
 OpenBabel03172210433D

 56 59  0  0  1  0  0  0  0  0999 V2000
   43.1830    7.6470   44.9410 S   0  0  0  0  0  0  0  0  0  0  0  0
   42.3860    6.4070   45.0490 O   0  0  0  0  0  0  0  0  0  0  0  0
   43.5860    8.0840   46.3290 O   0  0  0  0  0  0  0  0  0  0  0  0
   44.6010    7.4980   44.0010 N   0  0  0  0  0  0  0  0  0  0  0  0
   44.4260    6.8410   42.7650 C   0  0  0  0  0  0  0  0  0  0  0  0
   45.7330    7.0140   41.9640 C   0  0  0  0  0  0  0  0  0  0  0  0
   46.6760    6.2000   42.6880 N   0  0  0  0  0  0  0  0  0  0  0  0
   46.9610    6.7390   44.0360 C   0  0  0  0  0  0  0  0  0  0  0  0
   45.7850    7.2970   44.7250 C   0  0  0  0  0  0  0  0  0  0  0  0
   47.3200    5.0280   42.2970 C   0  0  0  0  0  0  0  0  0  0  0  0
   47.9490    5.1480   41.1430 O   0  0  0  0  0  0  0  0  0  0  0  0
   47.4600    3.7110   42.8620 C   0  0  0  0  0  0  0  0  0  0  0  0
   48.6890    3.3770   43.5160 N   0  0  0  0  0  0  0  0  0  0  0  0
   49.7090    2.5290   42.9870 C   0  0  0  0  0  0  0  0  0  0  0  0
   49.6260    1.9460   41.8520 O   0  0  0  0  0  0  0  0  0  0  0  0
   50.7650    2.4720   43.9220 N   0  0  0  0  0  0  0  0  0  0  0  0
   50.6060    3.5790   44.8530 C   0  0  1  0  0  0  0  0  0  0  0  0
   50.9820    3.2560   46.2570 C   0  0  1  0  0  0  0  0  0  0  0  0
   51.5570    4.5300   46.8850 C   0  0  0  0  0  0  0  0  0  0  0  0
   52.9310    4.7150   46.2700 C   0  0  0  0  0  0  0  0  0  0  0  0
   52.8260    4.5700   44.7720 C   0  0  0  0  0  0  0  0  0  0  0  0
   51.3930    4.7410   44.2910 C   0  0  0  0  0  0  0  0  0  0  0  0
   49.8180    2.8470   47.1300 C   0  0  0  0  0  0  0  0  0  0  0  0
   49.1360    3.8390   44.7920 C   0  0  0  0  0  0  0  0  0  0  0  0
   48.4320    4.3590   45.6790 O   0  0  0  0  0  0  0  0  0  0  0  0
   42.2030    8.9320   44.2140 C   0  0  0  0  0  0  0  0  0  0  0  0
   41.7390   10.4430   44.8480 S   0  0  0  0  0  0  0  0  0  0  0  0
   40.8360   11.0280   43.5290 C   0  0  0  0  0  0  0  0  0  0  0  0
   40.9230   10.0110   42.6150 C   0  0  0  0  0  0  0  0  0  0  0  0
   41.6330    8.9280   42.9750 C   0  0  0  0  0  0  0  0  0  0  0  0
   39.9890   12.5750   43.3760 Cl  0  0  0  0  0  0  0  0  0  0  0  0
   44.2090    5.7580   42.8830 H   0  0  0  0  0  0  0  0  0  0  0  0
   43.5750    7.2790   42.2220 H   0  0  0  0  0  0  0  0  0  0  0  0
   45.5910    6.8220   40.9210 H   0  0  0  0  0  0  0  0  0  0  0  0
   45.9930    8.1060   42.1650 H   0  0  0  0  0  0  0  0  0  0  0  0
   47.7140    7.5440   43.8640 H   0  0  0  0  0  0  0  0  0  0  0  0
   47.4770    5.9750   44.6510 H   0  0  0  0  0  0  0  0  0  0  0  0
   45.5460    6.6300   45.6080 H   0  0  0  0  0  0  0  0  0  0  0  0
   46.0620    8.2760   45.2200 H   0  0  0  0  0  0  0  0  0  0  0  0
   46.5900    3.4620   43.5710 H   0  0  0  0  0  0  0  0  0  0  0  0
   47.2880    2.9050   42.0660 H   0  0  0  0  0  0  0  0  0  0  0  0
   51.5270    1.7780   43.9610 H   0  0  0  0  0  0  0  0  0  0  0  0
   51.7670    2.4660   46.2890 H   0  0  0  0  0  0  0  0  0  0  0  0
   50.9120    5.3600   46.5790 H   0  0  0  0  0  0  0  0  0  0  0  0
   51.6170    4.4470   47.9870 H   0  0  0  0  0  0  0  0  0  0  0  0
   53.5820    3.9120   46.7140 H   0  0  0  0  0  0  0  0  0  0  0  0
   53.3790    5.6870   46.5190 H   0  0  0  0  0  0  0  0  0  0  0  0
   53.1750    3.5520   44.4970 H   0  0  0  0  0  0  0  0  0  0  0  0
   53.5110    5.2930   44.2650 H   0  0  0  0  0  0  0  0  0  0  0  0
   51.4470    4.6340   43.1690 H   0  0  0  0  0  0  0  0  0  0  0  0
   50.9960    5.7210   44.5730 H   0  0  0  0  0  0  0  0  0  0  0  0
   49.0300    2.3010   46.6020 H   0  0  0  0  0  0  0  0  0  0  0  0
   50.2200    2.1720   47.9410 H   0  0  0  0  0  0  0  0  0  0  0  0
   49.3970    3.7220   47.7050 H   0  0  0  0  0  0  0  0  0  0  0  0
   40.4070   10.1330   41.6310 H   0  0  0  0  0  0  0  0  0  0  0  0
   41.7600    8.0540   42.3030 H   0  0  0  0  0  0  0  0  0  0  0  0
  1  2  2  0  0  0  0
  1  3  2  0  0  0  0
  4  9  1  0  0  0  0
  4  1  1  0  0  0  0
  5 32  1  0  0  0  0
  5  4  1  0  0  0  0
  6 35  1  0  0  0  0
  6  7  1  0  0  0  0
  6  5  1  0  0  0  0
  7  8  1  0  0  0  0
  8 37  1  0  0  0  0
  8  9  1  0  0  0  0
  9 39  1  0  0  0  0
  9 38  1  0  0  0  0
 10  7  1  0  0  0  0
 10 12  1  0  0  0  0
 11 10  2  0  0  0  0
 12 13  1  0  0  0  0
 12 40  1  0  0  0  0
 13 24  1  0  0  0  0
 14 13  1  0  0  0  0
 14 16  1  0  0  0  0
 15 14  2  0  0  0  0
 16 42  1  0  0  0  0
 16 17  1  0  0  0  0
 17 24  1  6  0  0  0
 17 18  1  0  0  0  0
 18 43  1  1  0  0  0
 18 19  1  0  0  0  0
 18 23  1  0  0  0  0
 19 45  1  0  0  0  0
 20 47  1  0  0  0  0
 20 46  1  0  0  0  0
 20 19  1  0  0  0  0
 21 20  1  0  0  0  0
 22 51  1  0  0  0  0
 22 21  1  0  0  0  0
 22 17  1  0  0  0  0
 23 54  1  0  0  0  0
 23 53  1  0  0  0  0
 24 25  2  0  0  0  0
 26 27  1  0  0  0  0
 26  1  1  0  0  0  0
 28 27  1  0  0  0  0
 29 30  1  0  0  0  0
 29 28  2  0  0  0  0
 30 26  2  0  0  0  0
 31 28  1  0  0  0  0
 33  5  1  0  0  0  0
 34  6  1  0  0  0  0
 36  8  1  0  0  0  0
 41 12  1  0  0  0  0
 44 19  1  0  0  0  0
 48 21  1  0  0  0  0
 49 21  1  0  0  0  0
 50 22  1  0  0  0  0
 52 23  1  0  0  0  0
 55 29  1  0  0  0  0
 56 30  1  0  0  0  0
M  END
>  <Pose>
1

>  <Score>
-7.23

$$$$
