
 OpenBabel03172210433D

 60 63  0  0  1  0  0  0  0  0999 V2000
   47.3870   15.5190   44.3540 Cl  0  0  0  0  0  0  0  0  0  0  0  0
   46.0370   15.0770   45.4000 C   0  0  0  0  0  0  0  0  0  0  0  0
   45.3170   13.9460   45.1270 C   0  0  0  0  0  0  0  0  0  0  0  0
   44.2630   13.5780   45.9230 C   0  0  0  0  0  0  0  0  0  0  0  0
   43.9560   14.4090   47.0190 C   0  0  0  0  0  0  0  0  0  0  0  0
   44.6800   15.5260   47.2730 C   0  0  0  0  0  0  0  0  0  0  0  0
   45.7340   15.8890   46.4760 C   0  0  0  0  0  0  0  0  0  0  0  0
   43.5210   12.5240   45.7500 O   0  0  0  0  0  0  0  0  0  0  0  0
   43.2730   11.2430   45.9050 C   0  0  0  0  0  0  0  0  0  0  0  0
   41.8930   10.6870   45.7010 C   0  0  1  0  0  0  0  0  0  0  0  0
   41.8200    9.5410   46.5060 O   0  0  0  0  0  0  0  0  0  0  0  0
   41.4930    9.7820   47.8120 C   0  0  0  0  0  0  0  0  0  0  0  0
   40.0560   10.2180   48.0190 C   0  0  0  0  0  0  0  0  0  0  0  0
   39.7840   11.1090   46.8620 N   0  0  0  0  0  0  0  0  0  0  0  0
   40.9300   11.7220   46.3110 C   0  0  0  0  0  0  0  0  0  0  0  0
   38.4770   11.2530   46.4450 C   0  0  0  0  0  0  0  0  0  0  0  0
   37.7800   10.2100   46.1050 O   0  0  0  0  0  0  0  0  0  0  0  0
   37.7790   12.4980   46.3440 C   0  0  0  0  0  0  0  0  0  0  0  0
   37.6660   13.3680   47.3470 N   0  0  0  0  0  0  0  0  0  0  0  0
   37.0100   14.5430   47.2590 C   0  0  0  0  0  0  0  0  0  0  0  0
   36.4060   14.8950   46.0630 C   0  0  0  0  0  0  0  0  0  0  0  0
   36.4980   14.0560   45.0440 N   0  0  0  0  0  0  0  0  0  0  0  0
   37.1560   12.8910   45.1540 C   0  0  0  0  0  0  0  0  0  0  0  0
   35.6980   16.1990   46.0230 C   0  0  0  0  0  0  0  0  0  0  0  0
   41.5240   10.3160   44.3370 C   0  0  0  0  0  0  0  0  0  0  0  0
   42.5840    9.9240   43.4060 C   0  0  0  0  0  0  0  0  0  0  0  0
   43.0480   10.7360   42.5840 O   0  0  0  0  0  0  0  0  0  0  0  0
   43.1210    8.6050   43.4060 N   0  0  0  0  0  0  0  0  0  0  0  0
   42.2560    7.4300   43.4090 C   0  0  0  0  0  0  0  0  0  0  0  0
   42.7820    6.4930   44.4750 C   0  0  0  0  0  0  0  0  0  0  0  0
   44.1150    6.1830   44.1860 O   0  0  0  0  0  0  0  0  0  0  0  0
   44.8930    7.3180   44.4100 C   0  0  0  0  0  0  0  0  0  0  0  0
   44.5490    8.3650   43.4010 C   0  0  0  0  0  0  0  0  0  0  0  0
   45.5610   13.3340   44.2710 H   0  0  0  0  0  0  0  0  0  0  0  0
   43.1260   14.1640   47.6850 H   0  0  0  0  0  0  0  0  0  0  0  0
   44.4600   16.1810   48.1150 H   0  0  0  0  0  0  0  0  0  0  0  0
   46.3350   16.7580   46.6330 H   0  0  0  0  0  0  0  0  0  0  0  0
   44.0100   10.5860   45.2930 H   0  0  0  0  0  0  0  0  0  0  0  0
   43.5800   10.9200   46.9740 H   0  0  0  0  0  0  0  0  0  0  0  0
   41.6230    8.8440   48.3750 H   0  0  0  0  0  0  0  0  0  0  0  0
   42.2010   10.5130   48.2420 H   0  0  0  0  0  0  0  0  0  0  0  0
   40.0030   10.7640   48.9620 H   0  0  0  0  0  0  0  0  0  0  0  0
   39.3740    9.3740   47.9100 H   0  0  0  0  0  0  0  0  0  0  0  0
   41.5170   12.1280   47.2080 H   0  0  0  0  0  0  0  0  0  0  0  0
   40.8220   12.5690   45.6590 H   0  0  0  0  0  0  0  0  0  0  0  0
   36.9730   15.1830   48.1310 H   0  0  0  0  0  0  0  0  0  0  0  0
   37.2140   12.2270   44.3060 H   0  0  0  0  0  0  0  0  0  0  0  0
   35.5290   16.5400   44.9750 H   0  0  0  0  0  0  0  0  0  0  0  0
   34.7390   16.0560   46.5600 H   0  0  0  0  0  0  0  0  0  0  0  0
   36.2490   17.0030   46.5480 H   0  0  0  0  0  0  0  0  0  0  0  0
   40.9330   11.1880   43.8540 H   0  0  0  0  0  0  0  0  0  0  0  0
   40.7140    9.5270   44.3550 H   0  0  0  0  0  0  0  0  0  0  0  0
   41.2030    7.7010   43.6150 H   0  0  0  0  0  0  0  0  0  0  0  0
   42.3440    6.8840   42.4340 H   0  0  0  0  0  0  0  0  0  0  0  0
   42.6740    6.9810   45.4530 H   0  0  0  0  0  0  0  0  0  0  0  0
   42.2380    5.5200   44.4710 H   0  0  0  0  0  0  0  0  0  0  0  0
   44.7430    7.7430   45.4190 H   0  0  0  0  0  0  0  0  0  0  0  0
   45.9560    7.0250   44.2370 H   0  0  0  0  0  0  0  0  0  0  0  0
   45.1290    9.2780   43.6430 H   0  0  0  0  0  0  0  0  0  0  0  0
   44.8370    8.0860   42.3650 H   0  0  0  0  0  0  0  0  0  0  0  0
  1  2  1  0  0  0  0
  2  7  1  0  0  0  0
  3  2  2  0  0  0  0
  3  4  1  0  0  0  0
  4  5  2  0  0  0  0
  5  6  1  0  0  0  0
  5 35  1  0  0  0  0
  6 36  1  0  0  0  0
  7 37  1  0  0  0  0
  7  6  2  0  0  0  0
  8  9  1  0  0  0  0
  8  4  1  0  0  0  0
  9 39  1  0  0  0  0
 10 25  1  6  0  0  0
 10  9  1  0  0  0  0
 10 15  1  0  0  0  0
 10 11  1  0  0  0  0
 11 12  1  0  0  0  0
 12 13  1  0  0  0  0
 12 41  1  0  0  0  0
 12 40  1  0  0  0  0
 13 42  1  0  0  0  0
 14 13  1  0  0  0  0
 15 14  1  0  0  0  0
 15 44  1  0  0  0  0
 16 14  1  0  0  0  0
 17 16  2  0  0  0  0
 18 16  1  0  0  0  0
 18 19  1  0  0  0  0
 20 19  2  0  0  0  0
 20 46  1  0  0  0  0
 21 20  1  0  0  0  0
 22 23  1  0  0  0  0
 22 21  2  0  0  0  0
 23 18  2  0  0  0  0
 24 21  1  0  0  0  0
 24 50  1  0  0  0  0
 24 49  1  0  0  0  0
 25 52  1  0  0  0  0
 26 25  1  0  0  0  0
 27 26  2  0  0  0  0
 28 26  1  0  0  0  0
 28 29  1  0  0  0  0
 29 53  1  0  0  0  0
 29 30  1  0  0  0  0
 30 55  1  0  0  0  0
 31 32  1  0  0  0  0
 31 30  1  0  0  0  0
 32 57  1  0  0  0  0
 33 28  1  0  0  0  0
 33 59  1  0  0  0  0
 33 32  1  0  0  0  0
 34  3  1  0  0  0  0
 38  9  1  0  0  0  0
 43 13  1  0  0  0  0
 45 15  1  0  0  0  0
 47 23  1  0  0  0  0
 48 24  1  0  0  0  0
 51 25  1  0  0  0  0
 54 29  1  0  0  0  0
 56 30  1  0  0  0  0
 58 32  1  0  0  0  0
 60 33  1  0  0  0  0
M  END
>  <Pose>
1

>  <Score>
-5.07

$$$$
