
 OpenBabel03172210433D

 55 58  0  0  1  0  0  0  0  0999 V2000
   38.0020   14.4210   46.1600 Cl  0  0  0  0  0  0  0  0  0  0  0  0
   38.9340   13.0020   45.6160 C   0  0  0  0  0  0  0  0  0  0  0  0
   38.3840   11.7430   45.6390 C   0  0  0  0  0  0  0  0  0  0  0  0
   39.1130   10.6360   45.2060 C   0  0  0  0  0  0  0  0  0  0  0  0
   40.4260   10.7490   44.7300 C   0  0  0  0  0  0  0  0  0  0  0  0
   40.9420   12.0230   44.7210 C   0  0  0  0  0  0  0  0  0  0  0  0
   40.2320   13.1280   45.1480 C   0  0  0  0  0  0  0  0  0  0  0  0
   41.0780    9.5370   44.2690 C   0  0  2  0  0  0  0  0  0  0  0  0
   41.8040    8.8510   45.4240 C   0  0  0  0  0  0  0  0  0  0  0  0
   42.1520    7.4840   44.8720 C   0  0  0  0  0  0  0  0  0  0  0  0
   43.1280    7.6000   43.8470 N   0  0  0  0  0  0  0  0  0  0  0  0
   42.7600    8.4670   42.6960 C   0  0  0  0  0  0  0  0  0  0  0  0
   41.9490    9.6590   43.0750 C   0  0  0  0  0  0  0  0  0  0  0  0
   44.3800    6.9980   43.8310 C   0  0  0  0  0  0  0  0  0  0  0  0
   44.9670    6.8700   44.9930 O   0  0  0  0  0  0  0  0  0  0  0  0
   45.1910    6.4730   42.7230 C   0  0  0  0  0  0  0  0  0  0  0  0
   46.1540    5.5050   43.0170 N   0  0  0  0  0  0  0  0  0  0  0  0
   46.9050    4.7720   42.0470 C   0  0  0  0  0  0  0  0  0  0  0  0
   46.4610    4.8410   40.8700 O   0  0  0  0  0  0  0  0  0  0  0  0
   48.0760    4.0280   42.4190 C   0  0  0  0  0  0  0  0  0  0  0  0
   48.5940    3.7780   43.5760 C   0  0  0  0  0  0  0  0  0  0  0  0
   48.0390    4.2560   44.8040 N   0  0  0  0  0  0  0  0  0  0  0  0
   48.6120    3.9490   46.0550 N   0  0  0  0  0  0  0  0  0  0  0  0
   49.7680    3.1480   46.1480 C   0  0  0  0  0  0  0  0  0  0  0  0
   50.2490    2.8950   47.2910 O   0  0  0  0  0  0  0  0  0  0  0  0
   50.3640    2.6420   44.9270 C   0  0  0  0  0  0  0  0  0  0  0  0
   49.8110    2.9370   43.7020 C   0  0  0  0  0  0  0  0  0  0  0  0
   50.4140    2.4000   42.6010 C   0  0  0  0  0  0  0  0  0  0  0  0
   51.5450    1.5790   42.6790 C   0  0  0  0  0  0  0  0  0  0  0  0
   52.0570    1.3160   43.9190 C   0  0  0  0  0  0  0  0  0  0  0  0
   51.4780    1.8410   45.0710 C   0  0  0  0  0  0  0  0  0  0  0  0
   40.0480    8.6020   43.9320 O   0  0  0  0  0  0  0  0  0  0  0  0
   37.3620   11.6400   46.0050 H   0  0  0  0  0  0  0  0  0  0  0  0
   38.6250    9.6810   45.2530 H   0  0  0  0  0  0  0  0  0  0  0  0
   41.9570   12.1230   44.3520 H   0  0  0  0  0  0  0  0  0  0  0  0
   40.6810   14.1240   45.1210 H   0  0  0  0  0  0  0  0  0  0  0  0
   42.6660    9.4130   45.7740 H   0  0  0  0  0  0  0  0  0  0  0  0
   41.1070    8.7510   46.2600 H   0  0  0  0  0  0  0  0  0  0  0  0
   41.1870    7.1880   44.2880 H   0  0  0  0  0  0  0  0  0  0  0  0
   42.2330    6.7540   45.6440 H   0  0  0  0  0  0  0  0  0  0  0  0
   43.6780    8.7390   42.1120 H   0  0  0  0  0  0  0  0  0  0  0  0
   42.1620    7.8130   42.0280 H   0  0  0  0  0  0  0  0  0  0  0  0
   42.6350   10.5410   43.0890 H   0  0  0  0  0  0  0  0  0  0  0  0
   41.2940    9.8870   42.1680 H   0  0  0  0  0  0  0  0  0  0  0  0
   44.4250    6.1090   41.9530 H   0  0  0  0  0  0  0  0  0  0  0  0
   45.6760    7.3470   42.1500 H   0  0  0  0  0  0  0  0  0  0  0  0
   46.4430    5.3020   44.0110 H   0  0  0  0  0  0  0  0  0  0  0  0
   48.6180    3.6020   41.5390 H   0  0  0  0  0  0  0  0  0  0  0  0
   47.1800    4.8570   44.8090 H   0  0  0  0  0  0  0  0  0  0  0  0
   48.1790    4.3100   46.9370 H   0  0  0  0  0  0  0  0  0  0  0  0
   50.0460    2.5790   41.6260 H   0  0  0  0  0  0  0  0  0  0  0  0
   51.9810    1.1820   41.7670 H   0  0  0  0  0  0  0  0  0  0  0  0
   52.9360    0.6660   43.9620 H   0  0  0  0  0  0  0  0  0  0  0  0
   51.9280    1.5960   46.0250 H   0  0  0  0  0  0  0  0  0  0  0  0
   39.9770    8.6120   42.9450 H   0  0  0  0  0  0  0  0  0  0  0  0
  2  3  1  0  0  0  0
  2  1  1  0  0  0  0
  3 33  1  0  0  0  0
  4 34  1  0  0  0  0
  4  3  2  0  0  0  0
  5  4  1  0  0  0  0
  6  5  2  0  0  0  0
  6  7  1  0  0  0  0
  7  2  2  0  0  0  0
  8 32  1  6  0  0  0
  8  5  1  0  0  0  0
  8  9  1  0  0  0  0
  9 37  1  0  0  0  0
  9 38  1  0  0  0  0
 10  9  1  0  0  0  0
 10 40  1  0  0  0  0
 11 10  1  0  0  0  0
 12 13  1  0  0  0  0
 12 11  1  0  0  0  0
 13 43  1  0  0  0  0
 13  8  1  0  0  0  0
 14 11  1  0  0  0  0
 14 15  2  0  0  0  0
 16 17  1  0  0  0  0
 16 14  1  0  0  0  0
 17 47  1  0  0  0  0
 18 20  1  0  0  0  0
 18 17  1  0  0  0  0
 19 18  2  0  0  0  0
 20 21  2  0  0  0  0
 21 27  1  0  0  0  0
 21 22  1  0  0  0  0
 22 49  1  0  0  0  0
 22 23  1  0  0  0  0
 23 24  1  0  0  0  0
 23 50  1  0  0  0  0
 24 25  2  0  0  0  0
 26 31  1  0  0  0  0
 26 24  1  0  0  0  0
 27 26  2  0  0  0  0
 28 29  2  0  0  0  0
 28 27  1  0  0  0  0
 29 30  1  0  0  0  0
 30 53  1  0  0  0  0
 30 31  2  0  0  0  0
 31 54  1  0  0  0  0
 35  6  1  0  0  0  0
 36  7  1  0  0  0  0
 39 10  1  0  0  0  0
 41 12  1  0  0  0  0
 42 12  1  0  0  0  0
 44 13  1  0  0  0  0
 45 16  1  0  0  0  0
 46 16  1  0  0  0  0
 48 20  1  0  0  0  0
 51 28  1  0  0  0  0
 52 29  1  0  0  0  0
 55 32  1  0  0  0  0
M  END
>  <Pose>
1

>  <Score>
-7.15

$$$$
