
 OpenBabel03172210433D

 39 42  0  0  0  0  0  0  0  0999 V2000
   51.1640    0.9380   42.9320 Cl  0  0  0  0  0  0  0  0  0  0  0  0
   49.8820    2.1350   42.9990 C   0  0  0  0  0  0  0  0  0  0  0  0
   48.7850    2.0590   42.1590 C   0  0  0  0  0  0  0  0  0  0  0  0
   47.7860    3.0120   42.2270 C   0  0  0  0  0  0  0  0  0  0  0  0
   47.8330    4.0610   43.1150 C   0  0  0  0  0  0  0  0  0  0  0  0
   48.9250    4.1420   43.9550 C   0  0  0  0  0  0  0  0  0  0  0  0
   49.9320    3.1920   43.8960 C   0  0  0  0  0  0  0  0  0  0  0  0
   46.7740    5.0590   43.1780 C   0  0  0  0  0  0  0  0  0  0  0  0
   45.4970    4.8220   43.5150 N   0  0  0  0  0  0  0  0  0  0  0  0
   44.8110    5.9240   43.4730 O   0  0  0  0  0  0  0  0  0  0  0  0
   45.6020    6.9050   43.1120 C   0  0  0  0  0  0  0  0  0  0  0  0
   46.8390    6.3730   42.9240 N   0  0  0  0  0  0  0  0  0  0  0  0
   45.1740    8.3090   42.9560 C   0  0  0  0  0  0  0  0  0  0  0  0
   44.1440    8.6290   43.9460 N   0  0  0  0  0  0  0  0  0  0  0  0
   43.5410    7.6140   44.5980 C   0  0  0  0  0  0  0  0  0  0  0  0
   42.5700    7.8590   45.5360 C   0  0  0  0  0  0  0  0  0  0  0  0
   42.1890    9.2450   45.8270 C   0  0  0  0  0  0  0  0  0  0  0  0
   41.2270    9.1870   46.7730 N   0  0  0  0  0  0  0  0  0  0  0  0
   40.9910    7.9280   47.0800 N   0  0  0  0  0  0  0  0  0  0  0  0
   41.7630    7.0900   46.3730 C   0  0  0  0  0  0  0  0  0  0  0  0
   41.7870    5.8370   46.4240 O   0  0  0  0  0  0  0  0  0  0  0  0
   42.8330   10.2490   45.1350 C   0  0  0  0  0  0  0  0  0  0  0  0
   43.7840    9.8810   44.2250 C   0  0  0  0  0  0  0  0  0  0  0  0
   42.4800   11.6440   45.3990 C   0  0  0  0  0  0  0  0  0  0  0  0
   41.5280   11.9270   46.1400 O   0  0  0  0  0  0  0  0  0  0  0  0
   43.1970   12.6820   44.8290 O   0  0  0  0  0  0  0  0  0  0  0  0
   44.3350   13.2630   45.4200 C   0  0  0  0  0  0  0  0  0  0  0  0
   48.7290    1.2360   41.4470 H   0  0  0  0  0  0  0  0  0  0  0  0
   46.9300    2.9490   41.5690 H   0  0  0  0  0  0  0  0  0  0  0  0
   48.9660    4.9670   44.6590 H   0  0  0  0  0  0  0  0  0  0  0  0
   50.7870    3.2510   44.5500 H   0  0  0  0  0  0  0  0  0  0  0  0
   46.0380    8.9610   43.1680 H   0  0  0  0  0  0  0  0  0  0  0  0
   44.7440    8.4970   41.9430 H   0  0  0  0  0  0  0  0  0  0  0  0
   43.8180    6.5930   44.3890 H   0  0  0  0  0  0  0  0  0  0  0  0
   40.2920    7.6250   47.7830 H   0  0  0  0  0  0  0  0  0  0  0  0
   44.2840   10.6870   43.6860 H   0  0  0  0  0  0  0  0  0  0  0  0
   44.5450   12.8780   46.4270 H   0  0  0  0  0  0  0  0  0  0  0  0
   45.2600   13.0720   44.8010 H   0  0  0  0  0  0  0  0  0  0  0  0
   44.1950   14.3630   45.3810 H   0  0  0  0  0  0  0  0  0  0  0  0
  1  2  1  0  0  0  0
  2  7  1  0  0  0  0
  3  4  1  0  0  0  0
  3  2  2  0  0  0  0
  4  5  2  0  0  0  0
  5  8  1  0  0  0  0
  5  6  1  0  0  0  0
  6 30  1  0  0  0  0
  7  6  2  0  0  0  0
  7 31  1  0  0  0  0
  8  9  2  0  0  0  0
 10  9  1  0  0  0  0
 11 10  1  0  0  0  0
 12 11  2  0  0  0  0
 12  8  1  0  0  0  0
 13 11  1  0  0  0  0
 13 32  1  0  0  0  0
 13 14  1  0  0  0  0
 14 23  1  0  0  0  0
 14 15  1  0  0  0  0
 15 16  1  0  0  0  0
 16 17  2  0  0  0  0
 16 20  1  0  0  0  0
 17 18  1  0  0  0  0
 18 19  1  0  0  0  0
 19 35  1  0  0  0  0
 20 21  2  0  0  0  0
 20 19  1  0  0  0  0
 22 24  1  0  0  0  0
 22 17  1  0  0  0  0
 23 22  2  0  0  0  0
 24 25  2  0  0  0  0
 26 24  1  0  0  0  0
 26 27  1  0  0  0  0
 27 37  1  0  0  0  0
 28  3  1  0  0  0  0
 29  4  1  0  0  0  0
 33 13  1  0  0  0  0
 34 15  1  0  0  0  0
 36 23  1  0  0  0  0
 38 27  1  0  0  0  0
 39 27  1  0  0  0  0
M  END
>  <Pose>
1

>  <Score>
-5.98

$$$$
