
 OpenBabel03172210433D

 58 61  0  0  1  0  0  0  0  0999 V2000
   52.7530   -0.1140   42.1750 Cl  0  0  0  0  0  0  0  0  0  0  0  0
   51.7670    1.0920   42.9870 C   0  0  0  0  0  0  0  0  0  0  0  0
   50.6670    1.6700   42.4070 C   0  0  0  0  0  0  0  0  0  0  0  0
   49.8940    2.6210   43.0550 C   0  0  0  0  0  0  0  0  0  0  0  0
   48.7990    3.3390   42.7520 N   0  0  0  0  0  0  0  0  0  0  0  0
   48.4510    4.1430   43.7710 C   0  0  0  0  0  0  0  0  0  0  0  0
   49.3790    3.9030   44.7420 N   0  0  0  0  0  0  0  0  0  0  0  0
   50.2630    2.9860   44.3330 C   0  0  0  0  0  0  0  0  0  0  0  0
   51.3620    2.4290   44.9540 C   0  0  0  0  0  0  0  0  0  0  0  0
   52.1090    1.4790   44.2660 C   0  0  0  0  0  0  0  0  0  0  0  0
   49.3460    4.5940   46.0300 C   0  0  0  0  0  0  0  0  0  0  0  0
   47.3190    5.0970   43.8690 C   0  0  0  0  0  0  0  0  0  0  0  0
   46.8470    5.6130   42.5490 C   0  0  0  0  0  0  0  0  0  0  0  0
   46.0210    6.8400   42.6520 C   0  0  0  0  0  0  0  0  0  0  0  0
   46.4940    7.9290   42.2360 O   0  0  0  0  0  0  0  0  0  0  0  0
   44.7270    6.8100   43.2040 N   0  0  0  0  0  0  0  0  0  0  0  0
   43.6610    7.7090   42.7590 C   0  0  0  0  0  0  0  0  0  0  0  0
   43.3470    8.5840   43.9560 C   0  0  2  0  0  0  0  0  0  0  0  0
   42.9960    7.7450   45.1610 C   0  0  1  0  0  0  0  0  0  0  0  0
   42.9700    6.2580   44.7870 C   0  0  0  0  0  0  0  0  0  0  0  0
   44.3450    5.8860   44.2580 C   0  0  0  0  0  0  0  0  0  0  0  0
   43.9830    7.8300   46.1740 O   0  0  0  0  0  0  0  0  0  0  0  0
   41.7020    8.1300   45.8110 C   0  0  0  0  0  0  0  0  0  0  0  0
   42.4440    9.6470   43.6890 N   0  0  0  0  0  0  0  0  0  0  0  0
   42.7190   10.9310   44.0630 C   0  0  0  0  0  0  0  0  0  0  0  0
   41.8430   11.9640   43.8060 C   0  0  0  0  0  0  0  0  0  0  0  0
   40.6580   11.7020   43.1550 C   0  0  0  0  0  0  0  0  0  0  0  0
   39.8190   12.6310   42.8980 O   0  0  0  0  0  0  0  0  0  0  0  0
   40.3940   10.4350   42.7900 N   0  0  0  0  0  0  0  0  0  0  0  0
   41.2920    9.4460   43.0670 C   0  0  0  0  0  0  0  0  0  0  0  0
   40.9920    8.2870   42.7030 O   0  0  0  0  0  0  0  0  0  0  0  0
   42.1120   13.3700   44.1980 C   0  0  0  0  0  0  0  0  0  0  0  0
   50.3880    1.3730   41.4030 H   0  0  0  0  0  0  0  0  0  0  0  0
   51.6490    2.7170   45.9550 H   0  0  0  0  0  0  0  0  0  0  0  0
   52.9690    1.0390   44.7430 H   0  0  0  0  0  0  0  0  0  0  0  0
   48.4810    4.2330   46.6550 H   0  0  0  0  0  0  0  0  0  0  0  0
   49.1760    5.6860   45.8950 H   0  0  0  0  0  0  0  0  0  0  0  0
   50.2990    4.3870   46.5720 H   0  0  0  0  0  0  0  0  0  0  0  0
   47.5490    5.9320   44.5790 H   0  0  0  0  0  0  0  0  0  0  0  0
   46.4740    4.5470   44.3330 H   0  0  0  0  0  0  0  0  0  0  0  0
   47.7570    5.8420   41.9230 H   0  0  0  0  0  0  0  0  0  0  0  0
   46.2980    4.7910   42.0440 H   0  0  0  0  0  0  0  0  0  0  0  0
   42.8290    7.0330   42.4720 H   0  0  0  0  0  0  0  0  0  0  0  0
   43.9910    8.3560   41.9270 H   0  0  0  0  0  0  0  0  0  0  0  0
   44.3500    9.0540   44.2020 H   0  0  0  0  0  0  0  0  0  0  0  0
   42.8220    5.6840   45.7230 H   0  0  0  0  0  0  0  0  0  0  0  0
   42.1580    6.0120   44.1050 H   0  0  0  0  0  0  0  0  0  0  0  0
   44.2860    4.8770   43.8010 H   0  0  0  0  0  0  0  0  0  0  0  0
   45.0660    5.8720   45.0890 H   0  0  0  0  0  0  0  0  0  0  0  0
   44.7930    8.1840   45.7300 H   0  0  0  0  0  0  0  0  0  0  0  0
   41.7550    8.0350   46.9350 H   0  0  0  0  0  0  0  0  0  0  0  0
   40.8520    7.4500   45.5250 H   0  0  0  0  0  0  0  0  0  0  0  0
   41.4150    9.1690   45.6090 H   0  0  0  0  0  0  0  0  0  0  0  0
   43.6660   11.1390   44.5830 H   0  0  0  0  0  0  0  0  0  0  0  0
   39.5030   10.2330   42.3000 H   0  0  0  0  0  0  0  0  0  0  0  0
   42.6370   13.8390   43.3290 H   0  0  0  0  0  0  0  0  0  0  0  0
   41.1680   13.9370   44.3340 H   0  0  0  0  0  0  0  0  0  0  0  0
   42.7360   13.4010   45.1150 H   0  0  0  0  0  0  0  0  0  0  0  0
  1  2  1  0  0  0  0
  2 10  1  0  0  0  0
  3  2  2  0  0  0  0
  3  4  1  0  0  0  0
  4  8  2  0  0  0  0
  5  4  1  0  0  0  0
  5  6  2  0  0  0  0
  6 12  1  0  0  0  0
  6  7  1  0  0  0  0
  7 11  1  0  0  0  0
  8  7  1  0  0  0  0
  8  9  1  0  0  0  0
  9 34  1  0  0  0  0
 10 35  1  0  0  0  0
 10  9  2  0  0  0  0
 11 38  1  0  0  0  0
 11 36  1  0  0  0  0
 12 40  1  0  0  0  0
 12 39  1  0  0  0  0
 13 14  1  0  0  0  0
 13 12  1  0  0  0  0
 14 16  1  0  0  0  0
 15 14  2  0  0  0  0
 16 21  1  0  0  0  0
 17 16  1  0  0  0  0
 17 18  1  0  0  0  0
 18 45  1  1  0  0  0
 18 19  1  0  0  0  0
 19 23  1  0  0  0  0
 19 22  1  1  0  0  0
 20 19  1  0  0  0  0
 20 46  1  0  0  0  0
 21 20  1  0  0  0  0
 21 49  1  0  0  0  0
 23 51  1  0  0  0  0
 24 18  1  0  0  0  0
 24 25  1  0  0  0  0
 25 54  1  0  0  0  0
 26 25  2  0  0  0  0
 26 32  1  0  0  0  0
 27 26  1  0  0  0  0
 28 27  2  0  0  0  0
 29 30  1  0  0  0  0
 29 27  1  0  0  0  0
 30 24  1  0  0  0  0
 31 30  2  0  0  0  0
 32 57  1  0  0  0  0
 32 58  1  0  0  0  0
 33  3  1  0  0  0  0
 37 11  1  0  0  0  0
 41 13  1  0  0  0  0
 42 13  1  0  0  0  0
 43 17  1  0  0  0  0
 44 17  1  0  0  0  0
 47 20  1  0  0  0  0
 48 21  1  0  0  0  0
 50 22  1  0  0  0  0
 52 23  1  0  0  0  0
 53 23  1  0  0  0  0
 55 29  1  0  0  0  0
 56 32  1  0  0  0  0
M  END
>  <Pose>
1

>  <Score>
-7.80

$$$$
