
 OpenBabel03172210433D

 42 45  0  0  0  0  0  0  0  0999 V2000
   47.9460    2.0800   42.0030 Cl  0  0  0  0  0  0  0  0  0  0  0  0
   47.7280    3.6930   42.6790 C   0  0  0  0  0  0  0  0  0  0  0  0
   46.9420    4.6510   42.0610 C   0  0  0  0  0  0  0  0  0  0  0  0
   46.7460    5.9220   42.5550 C   0  0  0  0  0  0  0  0  0  0  0  0
   46.0590    7.0110   42.1710 N   0  0  0  0  0  0  0  0  0  0  0  0
   46.2230    8.0140   43.0540 C   0  0  0  0  0  0  0  0  0  0  0  0
   47.0340    7.5270   44.0070 N   0  0  0  0  0  0  0  0  0  0  0  0
   47.3850    6.2510   43.7540 C   0  0  0  0  0  0  0  0  0  0  0  0
   48.1690    5.3090   44.3800 C   0  0  0  0  0  0  0  0  0  0  0  0
   48.3520    4.0480   43.8710 C   0  0  0  0  0  0  0  0  0  0  0  0
   45.6220    9.3900   42.9830 C   0  0  0  0  0  0  0  0  0  0  0  0
   44.5490    9.5110   43.9530 N   0  0  0  0  0  0  0  0  0  0  0  0
   43.1890    9.4180   43.6000 C   0  0  0  0  0  0  0  0  0  0  0  0
   42.7920    8.3470   43.1090 O   0  0  0  0  0  0  0  0  0  0  0  0
   42.2360   10.5260   43.7870 C   0  0  0  0  0  0  0  0  0  0  0  0
   41.6870   11.1320   42.5550 C   0  0  0  0  0  0  0  0  0  0  0  0
   40.7830   10.2210   43.2880 C   0  0  0  0  0  0  0  0  0  0  0  0
   42.2160   11.2440   45.0260 N   0  0  0  0  0  0  0  0  0  0  0  0
   42.5220   12.6180   44.9600 C   0  0  0  0  0  0  0  0  0  0  0  0
   43.9930   12.7830   45.3230 C   0  0  0  0  0  0  0  0  0  0  0  0
   44.1860   12.4980   46.6540 O   0  0  0  0  0  0  0  0  0  0  0  0
   43.3250   11.5660   47.1780 C   0  0  0  0  0  0  0  0  0  0  0  0
   42.7960   10.6040   46.1340 C   0  0  0  0  0  0  0  0  0  0  0  0
   46.4440    4.3880   41.1190 H   0  0  0  0  0  0  0  0  0  0  0  0
   47.3510    8.0730   44.8400 H   0  0  0  0  0  0  0  0  0  0  0  0
   48.6530    5.5760   45.3010 H   0  0  0  0  0  0  0  0  0  0  0  0
   48.9640    3.2810   44.3430 H   0  0  0  0  0  0  0  0  0  0  0  0
   45.2490    9.6150   41.9910 H   0  0  0  0  0  0  0  0  0  0  0  0
   46.4130   10.0970   43.2900 H   0  0  0  0  0  0  0  0  0  0  0  0
   44.8010    9.6750   44.9550 H   0  0  0  0  0  0  0  0  0  0  0  0
   42.0070   10.7910   41.5500 H   0  0  0  0  0  0  0  0  0  0  0  0
   41.4050   12.2090   42.5150 H   0  0  0  0  0  0  0  0  0  0  0  0
   40.6170    9.1730   42.9440 H   0  0  0  0  0  0  0  0  0  0  0  0
   39.9460   10.6500   43.8210 H   0  0  0  0  0  0  0  0  0  0  0  0
   42.2510   13.1620   44.0580 H   0  0  0  0  0  0  0  0  0  0  0  0
   41.9640   13.1350   45.7980 H   0  0  0  0  0  0  0  0  0  0  0  0
   44.5920   12.0940   44.6990 H   0  0  0  0  0  0  0  0  0  0  0  0
   44.2660   13.8500   45.0910 H   0  0  0  0  0  0  0  0  0  0  0  0
   43.9310   10.9380   47.8970 H   0  0  0  0  0  0  0  0  0  0  0  0
   42.5120   12.0020   47.7970 H   0  0  0  0  0  0  0  0  0  0  0  0
   43.6210    9.8990   45.9180 H   0  0  0  0  0  0  0  0  0  0  0  0
   42.0170    9.9840   46.6660 H   0  0  0  0  0  0  0  0  0  0  0  0
  1  2  1  0  0  0  0
  2 10  1  0  0  0  0
  3  4  1  0  0  0  0
  3  2  2  0  0  0  0
  4  8  2  0  0  0  0
  5  4  1  0  0  0  0
  5  6  2  0  0  0  0
  6  7  1  0  0  0  0
  7 25  1  0  0  0  0
  8  7  1  0  0  0  0
  8  9  1  0  0  0  0
  9 26  1  0  0  0  0
 10 27  1  0  0  0  0
 10  9  2  0  0  0  0
 11  6  1  0  0  0  0
 11 29  1  0  0  0  0
 11 12  1  0  0  0  0
 12 30  1  0  0  0  0
 13 15  1  0  0  0  0
 13 12  1  0  0  0  0
 14 13  2  0  0  0  0
 15 18  1  0  0  0  0
 16 17  1  0  0  0  0
 16 15  1  0  0  0  0
 17 15  1  0  0  0  0
 17 34  1  0  0  0  0
 18 23  1  0  0  0  0
 19 18  1  0  0  0  0
 19 20  1  0  0  0  0
 19 36  1  0  0  0  0
 20 21  1  0  0  0  0
 21 22  1  0  0  0  0
 22 40  1  0  0  0  0
 22 39  1  0  0  0  0
 23 42  1  0  0  0  0
 23 22  1  0  0  0  0
 24  3  1  0  0  0  0
 28 11  1  0  0  0  0
 31 16  1  0  0  0  0
 32 16  1  0  0  0  0
 33 17  1  0  0  0  0
 35 19  1  0  0  0  0
 37 20  1  0  0  0  0
 38 20  1  0  0  0  0
 41 23  1  0  0  0  0
M  END
>  <Pose>
1

>  <Score>
-6.28

$$$$
