
 OpenBabel03172210433D

 45 48  0  0  0  0  0  0  0  0999 V2000
   55.0350    2.1970   41.4330 Cl  0  0  0  0  0  0  0  0  0  0  0  0
   53.5580    2.3190   42.3630 C   0  0  0  0  0  0  0  0  0  0  0  0
   52.5790    1.3930   42.1600 C   0  0  0  0  0  0  0  0  0  0  0  0
   51.3840    1.4560   42.8840 C   0  0  0  0  0  0  0  0  0  0  0  0
   51.1400    2.4190   43.8060 C   0  0  0  0  0  0  0  0  0  0  0  0
   52.1680    3.3560   43.9920 C   0  0  0  0  0  0  0  0  0  0  0  0
   53.3510    3.3140   43.2910 C   0  0  0  0  0  0  0  0  0  0  0  0
   49.9320    2.4970   44.6250 C   0  0  0  0  0  0  0  0  0  0  0  0
   49.1640    3.7110   44.5390 N   0  0  0  0  0  0  0  0  0  0  0  0
   48.3840    4.0150   43.4580 C   0  0  0  0  0  0  0  0  0  0  0  0
   47.7700    5.2220   43.6500 C   0  0  0  0  0  0  0  0  0  0  0  0
   48.1910    5.6210   44.8430 N   0  0  0  0  0  0  0  0  0  0  0  0
   49.0480    4.7130   45.4120 C   0  0  0  0  0  0  0  0  0  0  0  0
   49.6210    4.9070   46.6880 N   0  0  0  0  0  0  0  0  0  0  0  0
   51.0580    5.1360   46.7570 C   0  0  0  0  0  0  0  0  0  0  0  0
   51.2040    6.1430   47.9130 C   0  0  0  0  0  0  0  0  0  0  0  0
   50.0710    7.0390   47.9840 N   0  0  0  0  0  0  0  0  0  0  0  0
   48.8290    6.3880   48.3460 C   0  0  0  0  0  0  0  0  0  0  0  0
   48.9880    4.9260   47.9550 C   0  0  0  0  0  0  0  0  0  0  0  0
   46.9380    5.7470   42.7310 N   0  0  0  0  0  0  0  0  0  0  0  0
   46.6940    5.0690   41.5790 C   0  0  0  0  0  0  0  0  0  0  0  0
   45.9140    5.5970   40.7540 O   0  0  0  0  0  0  0  0  0  0  0  0
   47.2730    3.8800   41.3440 N   0  0  0  0  0  0  0  0  0  0  0  0
   48.1000    3.3660   42.2670 C   0  0  0  0  0  0  0  0  0  0  0  0
   48.6120    2.2560   42.0030 O   0  0  0  0  0  0  0  0  0  0  0  0
   46.3300    7.0340   43.0170 C   0  0  0  0  0  0  0  0  0  0  0  0
   52.6930    0.5940   41.4460 H   0  0  0  0  0  0  0  0  0  0  0  0
   50.6480    0.6980   42.6660 H   0  0  0  0  0  0  0  0  0  0  0  0
   51.9950    4.1450   44.7330 H   0  0  0  0  0  0  0  0  0  0  0  0
   54.1430    4.0360   43.4330 H   0  0  0  0  0  0  0  0  0  0  0  0
   50.1240    2.2060   45.7040 H   0  0  0  0  0  0  0  0  0  0  0  0
   49.2790    1.6400   44.2990 H   0  0  0  0  0  0  0  0  0  0  0  0
   51.4710    5.5380   45.8290 H   0  0  0  0  0  0  0  0  0  0  0  0
   51.6170    4.2400   47.0670 H   0  0  0  0  0  0  0  0  0  0  0  0
   51.4290    5.6260   48.8640 H   0  0  0  0  0  0  0  0  0  0  0  0
   52.0820    6.7870   47.6600 H   0  0  0  0  0  0  0  0  0  0  0  0
   50.2860    7.7320   48.7200 H   0  0  0  0  0  0  0  0  0  0  0  0
   47.9450    6.8490   47.8610 H   0  0  0  0  0  0  0  0  0  0  0  0
   48.6460    6.4390   49.4450 H   0  0  0  0  0  0  0  0  0  0  0  0
   49.7140    4.5400   48.7630 H   0  0  0  0  0  0  0  0  0  0  0  0
   48.1260    4.3090   48.1270 H   0  0  0  0  0  0  0  0  0  0  0  0
   47.0530    3.4020   40.4460 H   0  0  0  0  0  0  0  0  0  0  0  0
   47.1020    7.8410   43.0050 H   0  0  0  0  0  0  0  0  0  0  0  0
   45.8470    7.0490   44.0320 H   0  0  0  0  0  0  0  0  0  0  0  0
   45.5630    7.3150   42.2880 H   0  0  0  0  0  0  0  0  0  0  0  0
  1  2  1  0  0  0  0
  2  7  1  0  0  0  0
  3  2  2  0  0  0  0
  3  4  1  0  0  0  0
  4  5  2  0  0  0  0
  5  6  1  0  0  0  0
  5  8  1  0  0  0  0
  6 29  1  0  0  0  0
  7 30  1  0  0  0  0
  7  6  2  0  0  0  0
  8 31  1  0  0  0  0
  9  8  1  0  0  0  0
  9 13  1  0  0  0  0
 10 11  2  0  0  0  0
 10  9  1  0  0  0  0
 11 12  1  0  0  0  0
 12 13  2  0  0  0  0
 13 14  1  0  0  0  0
 14 15  1  0  0  0  0
 14 19  1  0  0  0  0
 15 34  1  0  0  0  0
 15 16  1  0  0  0  0
 16 17  1  0  0  0  0
 16 35  1  0  0  0  0
 17 18  1  0  0  0  0
 17 37  1  0  0  0  0
 18 39  1  0  0  0  0
 19 41  1  0  0  0  0
 19 18  1  0  0  0  0
 19 40  1  0  0  0  0
 20 26  1  0  0  0  0
 20 11  1  0  0  0  0
 21 20  1  0  0  0  0
 22 21  2  0  0  0  0
 23 21  1  0  0  0  0
 23 24  1  0  0  0  0
 24 10  1  0  0  0  0
 25 24  2  0  0  0  0
 26 44  1  0  0  0  0
 27  3  1  0  0  0  0
 28  4  1  0  0  0  0
 32  8  1  0  0  0  0
 33 15  1  0  0  0  0
 36 16  1  0  0  0  0
 38 18  1  0  0  0  0
 42 23  1  0  0  0  0
 43 26  1  0  0  0  0
 45 26  1  0  0  0  0
M  END
>  <Pose>
1

>  <Score>
-5.90

$$$$
