
 OpenBabel03172210433D

 34 37  0  0  1  0  0  0  0  0999 V2000
   46.7710    5.0010   43.1450 Cl  0  0  0  0  0  0  0  0  0  0  0  0
   45.6230    6.3100   43.4030 C   0  0  0  0  0  0  0  0  0  0  0  0
   45.8800    7.5830   42.9580 C   0  0  0  0  0  0  0  0  0  0  0  0
   44.9770    8.6020   43.1640 C   0  0  0  0  0  0  0  0  0  0  0  0
   43.7780    8.4020   43.8230 C   0  0  0  0  0  0  0  0  0  0  0  0
   43.5390    7.1180   44.2610 C   0  0  0  0  0  0  0  0  0  0  0  0
   44.4270    6.0870   44.0660 C   0  0  0  0  0  0  0  0  0  0  0  0
   42.8790    9.4880   44.0120 N   0  0  0  0  0  0  0  0  0  0  0  0
   42.7680   10.3510   45.1540 C   0  0  0  0  0  0  0  0  0  0  0  0
   43.1380    9.9760   46.3200 O   0  0  0  0  0  0  0  0  0  0  0  0
   42.1920   11.6400   44.7400 C   0  0  1  0  0  0  0  0  0  0  0  0
   41.5180   11.3060   43.4310 C   0  0  2  0  0  0  0  0  0  0  0  0
   40.0260   11.5170   43.5780 C   0  0  2  0  0  0  0  0  0  0  0  0
   39.8460   13.0330   43.7510 C   0  0  0  0  0  0  0  0  0  0  0  0
   40.5240   13.3660   45.0480 C   0  0  0  0  0  0  0  0  0  0  0  0
   40.4750   14.4810   45.4930 O   0  0  0  0  0  0  0  0  0  0  0  0
   41.2500   12.2380   45.7290 C   0  0  1  0  0  0  0  0  0  0  0  0
   40.1640   11.2270   46.1120 C   0  0  0  0  0  0  0  0  0  0  0  0
   39.4850   10.8640   44.8200 C   0  0  0  0  0  0  0  0  0  0  0  0
   38.5650   10.0940   44.8210 O   0  0  0  0  0  0  0  0  0  0  0  0
   41.9000    9.9380   43.0850 C   0  0  0  0  0  0  0  0  0  0  0  0
   41.4420    9.2730   42.1290 O   0  0  0  0  0  0  0  0  0  0  0  0
   46.8060    7.7630   42.4440 H   0  0  0  0  0  0  0  0  0  0  0  0
   45.1740    9.6220   42.8110 H   0  0  0  0  0  0  0  0  0  0  0  0
   42.6190    6.9020   44.7820 H   0  0  0  0  0  0  0  0  0  0  0  0
   44.2340    5.0650   44.4160 H   0  0  0  0  0  0  0  0  0  0  0  0
   43.0260   12.3800   44.5890 H   0  0  0  0  0  0  0  0  0  0  0  0
   41.8720   12.0340   42.6690 H   0  0  0  0  0  0  0  0  0  0  0  0
   39.4740   11.1400   42.7000 H   0  0  0  0  0  0  0  0  0  0  0  0
   40.4870   13.4970   42.9530 H   0  0  0  0  0  0  0  0  0  0  0  0
   38.8020   13.3340   43.7220 H   0  0  0  0  0  0  0  0  0  0  0  0
   41.7900   12.6270   46.5910 H   0  0  0  0  0  0  0  0  0  0  0  0
   39.4680   11.7840   46.7950 H   0  0  0  0  0  0  0  0  0  0  0  0
   40.5800   10.3480   46.6120 H   0  0  0  0  0  0  0  0  0  0  0  0
  1  2  1  0  0  0  0
  2  7  1  0  0  0  0
  3  4  1  0  0  0  0
  3  2  2  0  0  0  0
  4  5  2  0  0  0  0
  5  8  1  0  0  0  0
  5  6  1  0  0  0  0
  6 25  1  0  0  0  0
  7  6  2  0  0  0  0
  7 26  1  0  0  0  0
  8  9  1  0  0  0  0
  9 10  2  0  0  0  0
 11 27  1  6  0  0  0
 11  9  1  0  0  0  0
 11 17  1  0  0  0  0
 12 28  1  6  0  0  0
 12 13  1  0  0  0  0
 12 11  1  0  0  0  0
 13 29  1  6  0  0  0
 13 14  1  0  0  0  0
 13 19  1  0  0  0  0
 14 15  1  0  0  0  0
 15 16  2  0  0  0  0
 15 17  1  0  0  0  0
 17 18  1  0  0  0  0
 17 32  1  1  0  0  0
 18 34  1  0  0  0  0
 18 33  1  0  0  0  0
 19 20  2  0  0  0  0
 19 18  1  0  0  0  0
 21 12  1  0  0  0  0
 21  8  1  0  0  0  0
 22 21  2  0  0  0  0
 23  3  1  0  0  0  0
 24  4  1  0  0  0  0
 30 14  1  0  0  0  0
 31 14  1  0  0  0  0
M  END
>  <Pose>
1

>  <Score>
-4.55

$$$$
