
 OpenBabel03172210433D

 47 51  0  0  1  0  0  0  0  0999 V2000
   47.3720    4.5180   42.0470 Cl  0  0  0  0  0  0  0  0  0  0  0  0
   46.2450    5.5770   42.8750 C   0  0  0  0  0  0  0  0  0  0  0  0
   45.4250    5.0700   43.8550 C   0  0  0  0  0  0  0  0  0  0  0  0
   44.5300    5.9170   44.4980 C   0  0  0  0  0  0  0  0  0  0  0  0
   44.4160    7.2490   44.2080 C   0  0  0  0  0  0  0  0  0  0  0  0
   45.2480    7.7270   43.2260 C   0  0  0  0  0  0  0  0  0  0  0  0
   46.1580    6.8980   42.5620 C   0  0  0  0  0  0  0  0  0  0  0  0
   43.5130    8.1020   44.8520 N   0  0  0  0  0  0  0  0  0  0  0  0
   42.1690    8.4630   44.4650 C   0  0  0  0  0  0  0  0  0  0  0  0
   41.5860    8.0970   43.4410 O   0  0  0  0  0  0  0  0  0  0  0  0
   41.5850    9.3430   45.4860 C   0  0  2  0  0  0  0  0  0  0  0  0
   40.8920   10.5790   44.9630 C   0  0  2  0  0  0  0  0  0  0  0  0
   41.8590   11.6500   44.9390 N   0  0  0  0  0  0  0  0  0  0  0  0
   43.1570   11.0280   45.1150 C   0  0  2  0  0  0  0  0  0  0  0  0
   42.8240    9.9380   46.1130 C   0  0  2  0  0  0  0  0  0  0  0  0
   43.7630    8.8010   46.0830 C   0  0  0  0  0  0  0  0  0  0  0  0
   44.5770    8.5550   46.9770 O   0  0  0  0  0  0  0  0  0  0  0  0
   44.1780   11.9860   45.6720 C   0  0  0  0  0  0  0  0  0  0  0  0
   43.6210   13.2480   46.1480 C   0  0  0  0  0  0  0  0  0  0  0  0
   42.7870   13.2640   47.0730 O   0  0  0  0  0  0  0  0  0  0  0  0
   44.0260   14.4670   45.5560 N   0  0  0  0  0  0  0  0  0  0  0  0
   39.7920   10.8510   45.9530 C   0  0  0  0  0  0  0  0  0  0  0  0
   38.6040   10.5900   45.3320 C   0  0  0  0  0  0  0  0  0  0  0  0
   37.3790   10.6890   46.0090 C   0  0  0  0  0  0  0  0  0  0  0  0
   37.3500   11.0620   47.3370 C   0  0  0  0  0  0  0  0  0  0  0  0
   38.5400   11.3270   47.9600 C   0  0  0  0  0  0  0  0  0  0  0  0
   39.7360   11.2240   47.2800 C   0  0  0  0  0  0  0  0  0  0  0  0
   38.8010   10.3040   43.9560 N   0  0  0  0  0  0  0  0  0  0  0  0
   40.1940   10.4010   43.7060 C   0  0  0  0  0  0  0  0  0  0  0  0
   40.6910   10.3390   42.5620 O   0  0  0  0  0  0  0  0  0  0  0  0
   45.4760    4.0140   44.1250 H   0  0  0  0  0  0  0  0  0  0  0  0
   43.9250    5.4670   45.2410 H   0  0  0  0  0  0  0  0  0  0  0  0
   45.2490    8.7460   42.9170 H   0  0  0  0  0  0  0  0  0  0  0  0
   46.8110    7.2960   41.7840 H   0  0  0  0  0  0  0  0  0  0  0  0
   40.9720    8.7890   46.2270 H   0  0  0  0  0  0  0  0  0  0  0  0
   41.7840   12.1250   44.0080 H   0  0  0  0  0  0  0  0  0  0  0  0
   43.4940   10.5190   44.1860 H   0  0  0  0  0  0  0  0  0  0  0  0
   42.6650   10.3350   47.1290 H   0  0  0  0  0  0  0  0  0  0  0  0
   44.8860   12.2140   44.8200 H   0  0  0  0  0  0  0  0  0  0  0  0
   44.7830   11.4350   46.4230 H   0  0  0  0  0  0  0  0  0  0  0  0
   44.1450   15.3680   46.0800 H   0  0  0  0  0  0  0  0  0  0  0  0
   44.2440   14.5590   44.5220 H   0  0  0  0  0  0  0  0  0  0  0  0
   36.4410   10.4780   45.5090 H   0  0  0  0  0  0  0  0  0  0  0  0
   36.3830   11.1280   47.8400 H   0  0  0  0  0  0  0  0  0  0  0  0
   38.5410   11.6220   48.9920 H   0  0  0  0  0  0  0  0  0  0  0  0
   40.6690   11.4420   47.7890 H   0  0  0  0  0  0  0  0  0  0  0  0
   38.0440   10.0640   43.2450 H   0  0  0  0  0  0  0  0  0  0  0  0
  1  2  1  0  0  0  0
  2  3  1  0  0  0  0
  3 31  1  0  0  0  0
  3  4  2  0  0  0  0
  4 32  1  0  0  0  0
  5  4  1  0  0  0  0
  5  8  1  0  0  0  0
  6  5  2  0  0  0  0
  7  2  2  0  0  0  0
  7  6  1  0  0  0  0
  8 16  1  0  0  0  0
  9  8  1  0  0  0  0
  9 11  1  0  0  0  0
 10  9  2  0  0  0  0
 11 15  1  0  0  0  0
 11 35  1  1  0  0  0
 12 29  1  6  0  0  0
 12 11  1  0  0  0  0
 12 22  1  0  0  0  0
 13 12  1  0  0  0  0
 13 14  1  0  0  0  0
 14 37  1  6  0  0  0
 14 18  1  0  0  0  0
 14 15  1  0  0  0  0
 15 38  1  1  0  0  0
 16 15  1  0  0  0  0
 16 17  2  0  0  0  0
 18 19  1  0  0  0  0
 18 40  1  0  0  0  0
 19 20  2  0  0  0  0
 21 41  1  0  0  0  0
 21 19  1  0  0  0  0
 22 27  1  0  0  0  0
 23 22  2  0  0  0  0
 23 24  1  0  0  0  0
 24 25  2  0  0  0  0
 25 44  1  0  0  0  0
 25 26  1  0  0  0  0
 26 45  1  0  0  0  0
 27 46  1  0  0  0  0
 27 26  2  0  0  0  0
 28 23  1  0  0  0  0
 29 28  1  0  0  0  0
 30 29  2  0  0  0  0
 33  6  1  0  0  0  0
 34  7  1  0  0  0  0
 36 13  1  0  0  0  0
 39 18  1  0  0  0  0
 42 21  1  0  0  0  0
 43 24  1  0  0  0  0
 47 28  1  0  0  0  0
M  END
>  <Pose>
1

>  <Score>
-6.00

$$$$
