
 OpenBabel03172210433D

 40 43  0  0  0  0  0  0  0  0999 V2000
   40.9700   12.3580   44.4510 Cl  0  0  0  0  0  0  0  0  0  0  0  0
   42.0470   11.0100   44.1450 C   0  0  0  0  0  0  0  0  0  0  0  0
   41.8870    9.7960   44.7740 C   0  0  0  0  0  0  0  0  0  0  0  0
   42.7530    8.7290   44.5220 C   0  0  0  0  0  0  0  0  0  0  0  0
   43.7860    8.9230   43.6160 C   0  0  0  0  0  0  0  0  0  0  0  0
   43.9580   10.1290   42.9800 C   0  0  0  0  0  0  0  0  0  0  0  0
   43.1020   11.1690   43.2370 C   0  0  0  0  0  0  0  0  0  0  0  0
   44.7230    7.8250   43.3180 C   0  0  0  0  0  0  0  0  0  0  0  0
   45.7450    7.7370   42.5360 N   0  0  0  0  0  0  0  0  0  0  0  0
   46.3600    6.4390   42.5780 C   0  0  0  0  0  0  0  0  0  0  0  0
   45.5300    5.6700   43.5580 C   0  0  0  0  0  0  0  0  0  0  0  0
   44.5170    6.5970   43.9870 N   0  0  0  0  0  0  0  0  0  0  0  0
   43.4490    6.4300   44.9110 C   0  0  0  0  0  0  0  0  0  0  0  0
   43.2470    5.3410   45.5190 O   0  0  0  0  0  0  0  0  0  0  0  0
   42.5320    7.5000   45.2040 N   0  0  0  0  0  0  0  0  0  0  0  0
   41.4450    7.3060   46.1530 C   0  0  0  0  0  0  0  0  0  0  0  0
   41.8590    7.6820   47.5240 C   0  0  0  0  0  0  0  0  0  0  0  0
   42.9960    8.1890   47.6810 O   0  0  0  0  0  0  0  0  0  0  0  0
   41.0340    7.4980   48.6600 N   0  0  0  0  0  0  0  0  0  0  0  0
   40.5470    8.6100   49.4410 C   0  0  0  0  0  0  0  0  0  0  0  0
   39.0600    8.7580   49.2570 C   0  0  0  0  0  0  0  0  0  0  0  0
   38.5140   10.0270   48.7050 C   0  0  0  0  0  0  0  0  0  0  0  0
   38.3580    9.7380   50.1490 C   0  0  0  0  0  0  0  0  0  0  0  0
   41.0750    9.6450   45.4840 H   0  0  0  0  0  0  0  0  0  0  0  0
   44.7580   10.2670   42.2850 H   0  0  0  0  0  0  0  0  0  0  0  0
   43.1880   12.1520   42.7630 H   0  0  0  0  0  0  0  0  0  0  0  0
   47.4300    6.4800   42.8720 H   0  0  0  0  0  0  0  0  0  0  0  0
   46.2630    5.9270   41.5810 H   0  0  0  0  0  0  0  0  0  0  0  0
   45.0860    4.7460   43.1060 H   0  0  0  0  0  0  0  0  0  0  0  0
   46.1970    5.3960   44.4100 H   0  0  0  0  0  0  0  0  0  0  0  0
   40.9550    6.3320   46.0750 H   0  0  0  0  0  0  0  0  0  0  0  0
   40.6590    8.0640   45.8560 H   0  0  0  0  0  0  0  0  0  0  0  0
   40.7820    6.5240   48.9220 H   0  0  0  0  0  0  0  0  0  0  0  0
   41.0900    9.5470   49.1350 H   0  0  0  0  0  0  0  0  0  0  0  0
   40.7860    8.4260   50.5010 H   0  0  0  0  0  0  0  0  0  0  0  0
   38.5210    7.7960   49.1330 H   0  0  0  0  0  0  0  0  0  0  0  0
   39.2380   10.8010   48.3630 H   0  0  0  0  0  0  0  0  0  0  0  0
   37.6420    9.9350   48.0170 H   0  0  0  0  0  0  0  0  0  0  0  0
   39.0120   10.3210   50.8370 H   0  0  0  0  0  0  0  0  0  0  0  0
   37.3410    9.4860   50.5240 H   0  0  0  0  0  0  0  0  0  0  0  0
  2  1  1  0  0  0  0
  2  3  1  0  0  0  0
  3 24  1  0  0  0  0
  4  3  2  0  0  0  0
  4 15  1  0  0  0  0
  5  4  1  0  0  0  0
  6  7  1  0  0  0  0
  6  5  2  0  0  0  0
  7  2  2  0  0  0  0
  8  5  1  0  0  0  0
  8 12  1  0  0  0  0
  9 10  1  0  0  0  0
  9  8  2  0  0  0  0
 10 27  1  0  0  0  0
 10 11  1  0  0  0  0
 11 12  1  0  0  0  0
 11 30  1  0  0  0  0
 12 13  1  0  0  0  0
 13 15  1  0  0  0  0
 13 14  2  0  0  0  0
 15 16  1  0  0  0  0
 16 17  1  0  0  0  0
 17 18  2  0  0  0  0
 17 19  1  0  0  0  0
 19 33  1  0  0  0  0
 19 20  1  0  0  0  0
 20 35  1  0  0  0  0
 21 20  1  0  0  0  0
 21 23  1  0  0  0  0
 22 21  1  0  0  0  0
 22 23  1  0  0  0  0
 23 40  1  0  0  0  0
 23 39  1  0  0  0  0
 25  6  1  0  0  0  0
 26  7  1  0  0  0  0
 28 10  1  0  0  0  0
 29 11  1  0  0  0  0
 31 16  1  0  0  0  0
 32 16  1  0  0  0  0
 34 20  1  0  0  0  0
 36 21  1  0  0  0  0
 37 22  1  0  0  0  0
 38 22  1  0  0  0  0
M  END
>  <Pose>
1

>  <Score>
-4.55

$$$$
