
 OpenBabel03172210433D

 63 66  0  0  1  0  0  0  0  0999 V2000
   46.9510    4.9810   41.5680 Cl  0  0  0  0  0  0  0  0  0  0  0  0
   45.9870    5.9620   42.6480 C   0  0  0  0  0  0  0  0  0  0  0  0
   45.2770    5.4380   43.7020 C   0  0  0  0  0  0  0  0  0  0  0  0
   44.5310    6.2560   44.5240 C   0  0  0  0  0  0  0  0  0  0  0  0
   44.4520    7.6430   44.3380 C   0  0  0  0  0  0  0  0  0  0  0  0
   45.1730    8.1390   43.2770 C   0  0  0  0  0  0  0  0  0  0  0  0
   45.9320    7.3110   42.4400 C   0  0  0  0  0  0  0  0  0  0  0  0
   43.6870    8.4460   45.2650 C   0  0  0  0  0  0  0  0  0  0  0  0
   42.7060    9.2470   44.8860 C   0  0  0  0  0  0  0  0  0  0  0  0
   41.8790   10.1110   45.8050 C   0  0  2  0  0  0  0  0  0  0  0  0
   40.7590   10.5430   45.0200 N   0  0  0  0  0  0  0  0  0  0  0  0
   40.9650   10.2490   43.6460 C   0  0  0  0  0  0  0  0  0  0  0  0
   40.2580   10.6050   42.6920 O   0  0  0  0  0  0  0  0  0  0  0  0
   42.1950    9.4280   43.5640 C   0  0  0  0  0  0  0  0  0  0  0  0
   42.6760    8.9810   42.4960 O   0  0  0  0  0  0  0  0  0  0  0  0
   39.5590   11.1830   45.5490 C   0  0  0  0  0  0  0  0  0  0  0  0
   38.3740   10.3140   45.3040 C   0  0  0  0  0  0  0  0  0  0  0  0
   37.1850   11.1080   44.9560 N   0  0  0  0  0  4  0  0  0  0  0  0
   37.1690   12.2680   45.7920 C   0  0  0  0  0  0  0  0  0  0  0  0
   35.8010   12.9470   45.7990 C   0  0  0  0  0  0  0  0  0  0  0  0
   34.8850   11.9740   46.2360 O   0  0  0  0  0  0  0  0  0  0  0  0
   34.7640   11.0430   45.2250 C   0  0  0  0  0  0  0  0  0  0  0  0
   36.0450   10.2370   45.1430 C   0  0  0  0  0  0  0  0  0  0  0  0
   42.7640   11.2220   46.2480 C   0  0  0  0  0  0  0  0  0  0  0  0
   43.0430   11.3870   47.5740 C   0  0  0  0  0  0  0  0  0  0  0  0
   43.8660   12.4020   47.9700 C   0  0  0  0  0  0  0  0  0  0  0  0
   44.4310   13.2740   47.0650 C   0  0  0  0  0  0  0  0  0  0  0  0
   44.1500   13.1090   45.7220 C   0  0  0  0  0  0  0  0  0  0  0  0
   43.3130   12.0770   45.3250 C   0  0  0  0  0  0  0  0  0  0  0  0
   45.2690   14.3050   47.4770 O   0  0  0  0  0  0  0  0  0  0  0  0
   44.7940   15.6540   47.3510 C   0  0  0  0  0  0  0  0  0  0  0  0
   45.7840   16.5880   48.0420 C   0  0  0  0  0  0  0  0  0  0  0  0
   46.1200   17.6910   47.0470 C   0  0  0  0  0  0  0  0  0  0  0  0
   43.9570    8.4110   46.6540 O   0  0  0  0  0  0  0  0  0  0  0  0
   45.3280    4.3700   43.8570 H   0  0  0  0  0  0  0  0  0  0  0  0
   43.9780    5.8270   45.3510 H   0  0  0  0  0  0  0  0  0  0  0  0
   45.1780    9.2070   43.0980 H   0  0  0  0  0  0  0  0  0  0  0  0
   46.4850    7.7520   41.6110 H   0  0  0  0  0  0  0  0  0  0  0  0
   41.5670    9.5110   46.6850 H   0  0  0  0  0  0  0  0  0  0  0  0
   39.4240   12.1510   45.0140 H   0  0  0  0  0  0  0  0  0  0  0  0
   39.7080   11.3810   46.6220 H   0  0  0  0  0  0  0  0  0  0  0  0
   38.1010    9.7260   46.1960 H   0  0  0  0  0  0  0  0  0  0  0  0
   38.5680    9.6420   44.4290 H   0  0  0  0  0  0  0  0  0  0  0  0
   37.2270   11.4080   43.9470 H   0  0  0  0  0  0  0  0  0  0  0  0
   37.9000   12.9990   45.3500 H   0  0  0  0  0  0  0  0  0  0  0  0
   37.4170   12.0330   46.8480 H   0  0  0  0  0  0  0  0  0  0  0  0
   35.6060   13.2530   44.7560 H   0  0  0  0  0  0  0  0  0  0  0  0
   35.8290   13.7730   46.5100 H   0  0  0  0  0  0  0  0  0  0  0  0
   33.9550   10.3310   45.4570 H   0  0  0  0  0  0  0  0  0  0  0  0
   34.5990   11.4970   44.2380 H   0  0  0  0  0  0  0  0  0  0  0  0
   35.9870    9.5790   44.2510 H   0  0  0  0  0  0  0  0  0  0  0  0
   36.2160    9.6410   46.0600 H   0  0  0  0  0  0  0  0  0  0  0  0
   42.6250   10.7290   48.3250 H   0  0  0  0  0  0  0  0  0  0  0  0
   44.0970   12.5450   49.0210 H   0  0  0  0  0  0  0  0  0  0  0  0
   44.6020   13.8020   45.0280 H   0  0  0  0  0  0  0  0  0  0  0  0
   43.1280   11.9980   44.2510 H   0  0  0  0  0  0  0  0  0  0  0  0
   44.7430   15.9360   46.2880 H   0  0  0  0  0  0  0  0  0  0  0  0
   43.7880   15.7420   47.7980 H   0  0  0  0  0  0  0  0  0  0  0  0
   45.2620   17.0520   48.9030 H   0  0  0  0  0  0  0  0  0  0  0  0
   46.6870   16.0340   48.3590 H   0  0  0  0  0  0  0  0  0  0  0  0
   46.2900   18.6380   47.5730 H   0  0  0  0  0  0  0  0  0  0  0  0
   45.2830   17.8620   46.3290 H   0  0  0  0  0  0  0  0  0  0  0  0
   47.0370   17.3850   46.5060 H   0  0  0  0  0  0  0  0  0  0  0  0
  1  2  1  0  0  0  0
  2  3  1  0  0  0  0
  3 35  1  0  0  0  0
  3  4  2  0  0  0  0
  4 36  1  0  0  0  0
  5  4  1  0  0  0  0
  5  8  1  0  0  0  0
  6  5  2  0  0  0  0
  7  2  2  0  0  0  0
  7  6  1  0  0  0  0
  8 34  1  0  0  0  0
  9  8  2  0  0  0  0
  9 10  1  0  0  0  0
 10 24  1  0  0  0  0
 10 39  1  1  0  0  0
 11 16  1  0  0  0  0
 11 10  1  0  0  0  0
 12 11  1  0  0  0  0
 13 12  2  0  0  0  0
 14 12  1  0  0  0  0
 14  9  1  0  0  0  0
 15 14  2  0  0  0  0
 16 41  1  0  0  0  0
 17 16  1  0  0  0  0
 17 42  1  0  0  0  0
 18 23  1  0  0  0  0
 18 17  1  0  0  0  0
 18 19  1  0  0  0  0
 19 20  1  0  0  0  0
 19 46  1  0  0  0  0
 20 21  1  0  0  0  0
 20 48  1  0  0  0  0
 22 49  1  0  0  0  0
 22 21  1  0  0  0  0
 23 22  1  0  0  0  0
 23 52  1  0  0  0  0
 24 25  1  0  0  0  0
 25 26  2  0  0  0  0
 25 53  1  0  0  0  0
 26 54  1  0  0  0  0
 27 30  1  0  0  0  0
 27 26  1  0  0  0  0
 28 27  2  0  0  0  0
 29 28  1  0  0  0  0
 29 24  2  0  0  0  0
 31 30  1  0  0  0  0
 31 58  1  0  0  0  0
 31 32  1  0  0  0  0
 32 60  1  0  0  0  0
 32 59  1  0  0  0  0
 33 61  1  0  0  0  0
 33 32  1  0  0  0  0
 37  6  1  0  0  0  0
 38  7  1  0  0  0  0
 40 16  1  0  0  0  0
 43 17  1  0  0  0  0
 44 18  1  0  0  0  0
 45 19  1  0  0  0  0
 47 20  1  0  0  0  0
 50 22  1  0  0  0  0
 51 23  1  0  0  0  0
 55 28  1  0  0  0  0
 56 29  1  0  0  0  0
 57 31  1  0  0  0  0
 62 33  1  0  0  0  0
 63 33  1  0  0  0  0
M  END
>  <Pose>
1

>  <Score>
-6.67

$$$$
