
 OpenBabel03172210433D

 37 40  0  0  0  0  0  0  0  0999 V2000
   46.4040    7.5680   41.5190 F   0  0  0  0  0  0  0  0  0  0  0  0
   45.8100    6.7670   42.4370 C   0  0  0  0  0  0  0  0  0  0  0  0
   44.6860    7.1500   43.1160 N   0  0  0  0  0  0  0  0  0  0  0  0
   44.3940    6.1210   43.9270 C   0  0  0  0  0  0  0  0  0  0  0  0
   45.3020    5.1470   43.7540 N   0  0  0  0  0  0  0  0  0  0  0  0
   46.2080    5.5130   42.8270 C   0  0  0  0  0  0  0  0  0  0  0  0
   47.3660    4.7080   42.3540 C   0  0  0  0  0  0  0  0  0  0  0  0
   47.4790    4.7970   41.0700 O   0  0  0  0  0  0  0  0  0  0  0  0
   48.2050    3.9720   43.1520 N   0  0  0  0  0  0  0  0  0  0  0  0
   49.0390    3.2410   43.9450 C   0  0  0  0  0  0  0  0  0  0  0  0
   50.3360    2.8110   43.3050 C   0  0  0  0  0  0  0  0  0  0  0  0
   51.5600    3.0710   43.7720 N   0  0  0  0  0  0  0  0  0  0  0  0
   52.4320    2.5270   42.9410 N   0  0  0  0  0  0  0  0  0  0  0  0
   51.8010    1.9260   41.9560 N   0  0  0  0  0  0  0  0  0  0  0  0
   50.5000    2.1060   42.1900 N   0  0  0  0  0  0  0  0  0  0  0  0
   51.7890    3.8060   44.9750 C   0  0  0  0  0  0  0  0  0  0  0  0
   52.8160    4.7440   44.9830 C   0  0  0  0  0  0  0  0  0  0  0  0
   53.1040    5.4800   46.1270 C   0  0  0  0  0  0  0  0  0  0  0  0
   52.3810    5.3030   47.2890 C   0  0  0  0  0  0  0  0  0  0  0  0
   51.3640    4.3720   47.2740 C   0  0  0  0  0  0  0  0  0  0  0  0
   51.0760    3.6380   46.1370 C   0  0  0  0  0  0  0  0  0  0  0  0
   43.2900    6.2510   44.7340 C   0  0  0  0  0  0  0  0  0  0  0  0
   42.4880    7.3940   44.7300 C   0  0  0  0  0  0  0  0  0  0  0  0
   42.8170    8.4220   43.8880 C   0  0  0  0  0  0  0  0  0  0  0  0
   43.9400    8.2670   43.0820 C   0  0  0  0  0  0  0  0  0  0  0  0
   41.8460    9.8930   43.8270 Cl  0  0  0  0  0  0  0  0  0  0  0  0
   48.8620    5.1090   43.5340 H   0  0  0  0  0  0  0  0  0  0  0  0
   48.5700    2.2430   44.2780 H   0  0  0  0  0  0  0  0  0  0  0  0
   49.3230    3.6810   44.9560 H   0  0  0  0  0  0  0  0  0  0  0  0
   53.3890    4.8940   44.0820 H   0  0  0  0  0  0  0  0  0  0  0  0
   53.9000    6.2100   46.1480 H   0  0  0  0  0  0  0  0  0  0  0  0
   52.6090    5.8820   48.1970 H   0  0  0  0  0  0  0  0  0  0  0  0
   50.7850    4.2280   48.1980 H   0  0  0  0  0  0  0  0  0  0  0  0
   50.2700    2.9160   46.1680 H   0  0  0  0  0  0  0  0  0  0  0  0
   42.9910    5.4650   45.4140 H   0  0  0  0  0  0  0  0  0  0  0  0
   41.6090    7.4880   45.3810 H   0  0  0  0  0  0  0  0  0  0  0  0
   44.1810    9.0870   42.4260 H   0  0  0  0  0  0  0  0  0  0  0  0
  1  2  1  0  0  0  0
  2  6  2  0  0  0  0
  2  3  1  0  0  0  0
  3  4  1  0  0  0  0
  4 22  1  0  0  0  0
  5  4  2  0  0  0  0
  6  5  1  0  0  0  0
  7  6  1  0  0  0  0
  7  9  1  0  0  0  0
  8  7  2  0  0  0  0
  9 27  1  0  0  0  0
  9 10  1  0  0  0  0
 10 28  1  0  0  0  0
 10 29  1  0  0  0  0
 11 12  1  0  0  0  0
 11 10  1  0  0  0  0
 12 16  1  0  0  0  0
 13 12  1  0  0  0  0
 14 15  1  0  0  0  0
 14 13  2  0  0  0  0
 15 11  2  0  0  0  0
 16 17  2  0  0  0  0
 16 21  1  0  0  0  0
 17 18  1  0  0  0  0
 18 31  1  0  0  0  0
 18 19  2  0  0  0  0
 19 32  1  0  0  0  0
 20 19  1  0  0  0  0
 20 33  1  0  0  0  0
 21 34  1  0  0  0  0
 21 20  2  0  0  0  0
 22 35  1  0  0  0  0
 23 22  2  0  0  0  0
 23 36  1  0  0  0  0
 24 23  1  0  0  0  0
 25  3  1  0  0  0  0
 25 24  2  0  0  0  0
 26 24  1  0  0  0  0
 30 17  1  0  0  0  0
 37 25  1  0  0  0  0
M  END
>  <Pose>
1

>  <Score>
-6.64

$$$$
