
 OpenBabel03172210433D

 33 36  0  0  1  0  0  0  0  0999 V2000
   42.7980   11.4190   43.3960 Cl  0  0  0  0  0  0  0  0  0  0  0  0
   42.9000    9.6730   43.4570 C   0  0  0  0  0  0  0  0  0  0  0  0
   44.1120    9.0180   43.4150 C   0  0  0  0  0  0  0  0  0  0  0  0
   44.2050    7.6360   43.4640 C   0  0  0  0  0  0  0  0  0  0  0  0
   43.0200    6.9330   43.5560 C   0  0  0  0  0  0  0  0  0  0  0  0
   41.7990    7.5920   43.5980 C   0  0  0  0  0  0  0  0  0  0  0  0
   41.7160    8.9690   43.5500 C   0  0  0  0  0  0  0  0  0  0  0  0
   45.4550    6.9580   43.4200 N   0  0  0  0  0  0  0  0  0  0  0  0
   46.0150    6.1920   42.3370 C   0  0  0  0  0  0  0  0  0  0  0  0
   45.4160    5.9260   41.2690 O   0  0  0  0  0  0  0  0  0  0  0  0
   47.3740    5.7800   42.6770 C   0  0  2  0  0  0  0  0  0  0  0  0
   47.5420    4.3300   42.9890 C   0  0  1  0  0  0  0  0  0  0  0  0
   48.6760    4.3870   43.8390 O   0  0  0  0  0  0  0  0  0  0  0  0
   48.0840    5.1950   44.8440 C   0  0  1  0  0  0  0  0  0  0  0  0
   47.6890    6.4110   44.0430 C   0  0  2  0  0  0  0  0  0  0  0  0
   46.3920    6.9240   44.4900 C   0  0  0  0  0  0  0  0  0  0  0  0
   46.1200    7.2930   45.6590 O   0  0  0  0  0  0  0  0  0  0  0  0
   46.8560    4.4210   45.1250 C   0  0  0  0  0  0  0  0  0  0  0  0
   46.5290    3.8380   43.9490 C   0  0  0  0  0  0  0  0  0  0  0  0
   47.7730    3.4480   41.8130 C   0  0  0  0  0  0  0  0  0  0  0  0
   47.9990    2.1480   42.2480 O   0  0  0  0  0  0  0  0  0  0  0  0
   45.0510    9.5660   43.3440 H   0  0  0  0  0  0  0  0  0  0  0  0
   43.0720    5.8460   43.5950 H   0  0  0  0  0  0  0  0  0  0  0  0
   40.8740    7.0250   43.6720 H   0  0  0  0  0  0  0  0  0  0  0  0
   40.7510    9.4660   43.5830 H   0  0  0  0  0  0  0  0  0  0  0  0
   48.1360    6.0670   41.9330 H   0  0  0  0  0  0  0  0  0  0  0  0
   48.7340    5.3820   45.6800 H   0  0  0  0  0  0  0  0  0  0  0  0
   48.4700    7.1700   43.9720 H   0  0  0  0  0  0  0  0  0  0  0  0
   46.3190    4.3190   46.0430 H   0  0  0  0  0  0  0  0  0  0  0  0
   45.7020    3.1630   43.7780 H   0  0  0  0  0  0  0  0  0  0  0  0
   48.7110    3.8070   41.3160 H   0  0  0  0  0  0  0  0  0  0  0  0
   46.9780    3.5010   41.0550 H   0  0  0  0  0  0  0  0  0  0  0  0
   47.7120    2.0460   43.1850 H   0  0  0  0  0  0  0  0  0  0  0  0
  1  2  1  0  0  0  0
  2  7  1  0  0  0  0
  3  2  2  0  0  0  0
  3  4  1  0  0  0  0
  4  5  2  0  0  0  0
  5 23  1  0  0  0  0
  5  6  1  0  0  0  0
  6 24  1  0  0  0  0
  7 25  1  0  0  0  0
  7  6  2  0  0  0  0
  8  4  1  0  0  0  0
  8 16  1  0  0  0  0
  9 11  1  0  0  0  0
  9  8  1  0  0  0  0
 10  9  2  0  0  0  0
 11 26  1  6  0  0  0
 11 12  1  0  0  0  0
 11 15  1  0  0  0  0
 12 20  1  6  0  0  0
 12 13  1  0  0  0  0
 12 19  1  0  0  0  0
 13 14  1  0  0  0  0
 14 18  1  0  0  0  0
 14 27  1  1  0  0  0
 15 28  1  6  0  0  0
 15 16  1  0  0  0  0
 15 14  1  0  0  0  0
 16 17  2  0  0  0  0
 18 29  1  0  0  0  0
 19 18  2  0  0  0  0
 20 21  1  0  0  0  0
 21 33  1  0  0  0  0
 22  3  1  0  0  0  0
 30 19  1  0  0  0  0
 31 20  1  0  0  0  0
 32 20  1  0  0  0  0
M  END
>  <Pose>
1

>  <Score>
-4.84

$$$$
