
 OpenBabel03172210433D

 42 45  0  0  1  0  0  0  0  0999 V2000
   51.5620    1.6500   45.7160 Cl  0  0  0  0  0  0  0  0  0  0  0  0
   50.3990    2.2560   44.5370 C   0  0  0  0  0  0  0  0  0  0  0  0
   49.7440    3.4580   44.7070 C   0  0  0  0  0  0  0  0  0  0  0  0
   48.8480    3.9400   43.8130 N   0  0  0  0  0  0  0  0  0  0  0  0
   48.5380    3.2650   42.6910 C   0  0  0  0  0  0  0  0  0  0  0  0
   47.6410    3.7320   41.7830 N   0  0  0  0  0  0  0  0  0  0  0  0
   46.9990    4.9040   41.9410 C   0  0  0  0  0  0  0  0  0  0  0  0
   47.3080    5.6140   43.0960 C   0  0  2  0  0  0  0  0  0  0  0  0
   46.5990    6.9090   43.2730 C   0  0  0  0  0  0  0  0  0  0  0  0
   45.1970    6.6270   42.9450 N   0  0  0  0  0  0  0  0  0  0  0  0
   44.9010    6.1880   41.6110 C   0  0  0  0  0  0  0  0  0  0  0  0
   46.0180    5.4270   40.9550 C   0  0  0  0  0  0  0  0  0  0  0  0
   44.1860    6.7790   43.9200 C   0  0  0  0  0  0  0  0  0  0  0  0
   44.5490    6.7180   45.1440 O   0  0  0  0  0  0  0  0  0  0  0  0
   42.7640    7.0010   43.5770 C   0  0  0  0  0  0  0  0  0  0  0  0
   42.5510    8.3040   42.8380 C   0  0  0  0  0  0  0  0  0  0  0  0
   43.4290    9.3280   43.5440 C   0  0  0  0  0  0  0  0  0  0  0  0
   43.4130    9.1080   44.9200 O   0  0  0  0  0  0  0  0  0  0  0  0
   42.1830    8.5820   45.3410 C   0  0  0  0  0  0  0  0  0  0  0  0
   41.9860    7.1460   44.8930 C   0  0  0  0  0  0  0  0  0  0  0  0
   48.2220    5.1160   43.9990 C   0  0  0  0  0  0  0  0  0  0  0  0
   48.4880    5.7860   45.0490 O   0  0  0  0  0  0  0  0  0  0  0  0
   49.1830    2.0540   42.5020 C   0  0  0  0  0  0  0  0  0  0  0  0
   50.1000    1.5420   43.3960 C   0  0  0  0  0  0  0  0  0  0  0  0
   49.9650    4.0390   45.6000 H   0  0  0  0  0  0  0  0  0  0  0  0
   47.0450    7.6490   42.6010 H   0  0  0  0  0  0  0  0  0  0  0  0
   46.6620    7.2880   44.3020 H   0  0  0  0  0  0  0  0  0  0  0  0
   44.0150    5.5120   41.5970 H   0  0  0  0  0  0  0  0  0  0  0  0
   44.6570    7.1210   41.0230 H   0  0  0  0  0  0  0  0  0  0  0  0
   46.5900    6.1000   40.2520 H   0  0  0  0  0  0  0  0  0  0  0  0
   45.6550    4.5630   40.3600 H   0  0  0  0  0  0  0  0  0  0  0  0
   42.3790    6.1320   42.9990 H   0  0  0  0  0  0  0  0  0  0  0  0
   41.4950    8.6290   43.0610 H   0  0  0  0  0  0  0  0  0  0  0  0
   42.7080    8.2590   41.7650 H   0  0  0  0  0  0  0  0  0  0  0  0
   44.4650    9.1610   43.2050 H   0  0  0  0  0  0  0  0  0  0  0  0
   43.1550   10.3650   43.2790 H   0  0  0  0  0  0  0  0  0  0  0  0
   42.2060    8.5720   46.4500 H   0  0  0  0  0  0  0  0  0  0  0  0
   41.3380    9.2310   45.0450 H   0  0  0  0  0  0  0  0  0  0  0  0
   42.3140    6.4140   45.6360 H   0  0  0  0  0  0  0  0  0  0  0  0
   40.9110    7.0570   44.6100 H   0  0  0  0  0  0  0  0  0  0  0  0
   48.9360    1.5010   41.5940 H   0  0  0  0  0  0  0  0  0  0  0  0
   50.6020    0.5930   43.2410 H   0  0  0  0  0  0  0  0  0  0  0  0
  2  3  1  0  0  0  0
  2  1  1  0  0  0  0
  3 25  1  0  0  0  0
  4 21  1  0  0  0  0
  4  3  1  0  0  0  0
  5  4  1  0  0  0  0
  6  7  2  0  0  0  0
  6  5  1  0  0  0  0
  8  7  1  6  0  0  0
  8  9  1  0  0  0  0
  8 21  1  0  0  0  0
  9 27  1  0  0  0  0
 10  9  1  0  0  0  0
 10 13  1  0  0  0  0
 11 10  1  0  0  0  0
 12 11  1  0  0  0  0
 12  7  1  0  0  0  0
 13 14  2  0  0  0  0
 15 13  1  0  0  0  0
 15 20  1  0  0  0  0
 16 33  1  0  0  0  0
 16 17  1  0  0  0  0
 16 15  1  0  0  0  0
 17 18  1  0  0  0  0
 18 19  1  0  0  0  0
 19 37  1  0  0  0  0
 20 19  1  0  0  0  0
 20 39  1  0  0  0  0
 21 22  2  0  0  0  0
 23  5  2  0  0  0  0
 23 24  1  0  0  0  0
 24  2  2  0  0  0  0
 26  9  1  0  0  0  0
 28 11  1  0  0  0  0
 29 11  1  0  0  0  0
 30 12  1  0  0  0  0
 31 12  1  0  0  0  0
 32 15  1  0  0  0  0
 34 16  1  0  0  0  0
 35 17  1  0  0  0  0
 36 17  1  0  0  0  0
 38 19  1  0  0  0  0
 40 20  1  0  0  0  0
 41 23  1  0  0  0  0
 42 24  1  0  0  0  0
M  END
>  <Pose>
1

>  <Score>
-5.12

$$$$
