
 OpenBabel03172210433D

 41 44  0  0  0  0  0  0  0  0999 V2000
   48.6950    5.6390   46.3390 F   0  0  0  0  0  0  0  0  0  0  0  0
   49.3140    4.4990   45.9500 C   0  0  0  0  0  0  0  0  0  0  0  0
   49.0830    4.0290   44.6660 C   0  0  0  0  0  0  0  0  0  0  0  0
   49.6770    2.8760   44.2010 C   0  0  0  0  0  0  0  0  0  0  0  0
   50.5190    2.1950   45.0630 C   0  0  0  0  0  0  0  0  0  0  0  0
   50.7500    2.6600   46.3370 C   0  0  0  0  0  0  0  0  0  0  0  0
   50.1530    3.8120   46.7950 C   0  0  0  0  0  0  0  0  0  0  0  0
   51.2780    0.7260   44.4760 Cl  0  0  0  0  0  0  0  0  0  0  0  0
   49.2810    2.5940   42.8370 C   0  0  0  0  0  0  0  0  0  0  0  0
   49.6260    1.6370   42.1070 O   0  0  0  0  0  0  0  0  0  0  0  0
   48.3760    3.6730   42.4650 C   0  0  0  0  0  0  0  0  0  0  0  0
   47.8030    3.7960   41.3370 O   0  0  0  0  0  0  0  0  0  0  0  0
   48.2680    4.5340   43.5880 N   0  0  0  0  0  0  0  0  0  0  0  0
   47.4730    5.7410   43.6850 C   0  0  0  0  0  0  0  0  0  0  0  0
   46.1660    5.6190   43.0750 N   0  0  0  0  0  0  0  0  0  0  0  0
   45.1480    5.5210   44.0650 C   0  0  0  0  0  0  0  0  0  0  0  0
   43.9300    6.3390   43.8180 C   0  0  0  0  0  0  0  0  0  0  0  0
   44.2070    7.6350   43.2570 N   0  0  0  0  0  0  0  0  0  0  0  0
   45.4980    7.8630   42.6510 C   0  0  0  0  0  0  0  0  0  0  0  0
   45.9240    6.5510   42.0270 C   0  0  0  0  0  0  0  0  0  0  0  0
   43.2630    8.6870   43.2760 C   0  0  0  0  0  0  0  0  0  0  0  0
   42.1120    8.6070   42.5890 N   0  0  0  0  0  0  0  0  0  0  0  0
   41.1970    9.5970   42.5910 C   0  0  0  0  0  0  0  0  0  0  0  0
   41.4180   10.7510   43.3170 C   0  0  0  0  0  0  0  0  0  0  0  0
   42.5660   10.8370   44.0070 N   0  0  0  0  0  0  0  0  0  0  0  0
   43.4820    9.8490   44.0060 C   0  0  0  0  0  0  0  0  0  0  0  0
   51.4240    2.0980   46.9970 H   0  0  0  0  0  0  0  0  0  0  0  0
   50.3560    4.1580   47.8160 H   0  0  0  0  0  0  0  0  0  0  0  0
   47.4280    6.0140   44.7430 H   0  0  0  0  0  0  0  0  0  0  0  0
   48.0120    6.5570   43.1580 H   0  0  0  0  0  0  0  0  0  0  0  0
   44.8370    4.4460   44.1320 H   0  0  0  0  0  0  0  0  0  0  0  0
   45.5800    5.7470   45.0790 H   0  0  0  0  0  0  0  0  0  0  0  0
   43.1440    5.7890   43.2440 H   0  0  0  0  0  0  0  0  0  0  0  0
   43.4550    6.5320   44.8240 H   0  0  0  0  0  0  0  0  0  0  0  0
   46.2030    8.0590   43.5020 H   0  0  0  0  0  0  0  0  0  0  0  0
   45.4880    8.6900   41.9220 H   0  0  0  0  0  0  0  0  0  0  0  0
   46.7720    6.6160   41.3510 H   0  0  0  0  0  0  0  0  0  0  0  0
   45.0730    6.1460   41.4050 H   0  0  0  0  0  0  0  0  0  0  0  0
   40.2700    9.5210   42.0310 H   0  0  0  0  0  0  0  0  0  0  0  0
   40.6630   11.5320   43.3020 H   0  0  0  0  0  0  0  0  0  0  0  0
   44.4110    9.9110   44.5590 H   0  0  0  0  0  0  0  0  0  0  0  0
  2  1  1  0  0  0  0
  2  7  1  0  0  0  0
  3  2  2  0  0  0  0
  4  3  1  0  0  0  0
  4  5  2  0  0  0  0
  5  6  1  0  0  0  0
  6  7  2  0  0  0  0
  6 27  1  0  0  0  0
  7 28  1  0  0  0  0
  8  5  1  0  0  0  0
  9  4  1  0  0  0  0
 10  9  2  0  0  0  0
 11  9  1  0  0  0  0
 11 13  1  0  0  0  0
 12 11  2  0  0  0  0
 13 14  1  0  0  0  0
 13  3  1  0  0  0  0
 14 29  1  0  0  0  0
 15 14  1  0  0  0  0
 15 16  1  0  0  0  0
 16 31  1  0  0  0  0
 16 32  1  0  0  0  0
 17 16  1  0  0  0  0
 17 34  1  0  0  0  0
 18 21  1  0  0  0  0
 18 17  1  0  0  0  0
 19 18  1  0  0  0  0
 19 35  1  0  0  0  0
 20 19  1  0  0  0  0
 20 15  1  0  0  0  0
 21 26  1  0  0  0  0
 22 23  1  0  0  0  0
 22 21  2  0  0  0  0
 23 24  2  0  0  0  0
 24 25  1  0  0  0  0
 26 25  2  0  0  0  0
 26 41  1  0  0  0  0
 30 14  1  0  0  0  0
 33 17  1  0  0  0  0
 36 19  1  0  0  0  0
 37 20  1  0  0  0  0
 38 20  1  0  0  0  0
 39 23  1  0  0  0  0
 40 24  1  0  0  0  0
M  END
>  <Pose>
1

>  <Score>
-6.76

$$$$
