
 OpenBabel03172210433D

 41 44  0  0  0  0  0  0  0  0999 V2000
   46.0320    5.3170   40.9720 Cl  0  0  0  0  0  0  0  0  0  0  0  0
   47.1430    4.7940   42.2100 C   0  0  0  0  0  0  0  0  0  0  0  0
   47.9670    3.6950   42.0280 C   0  0  0  0  0  0  0  0  0  0  0  0
   48.8520    3.2670   43.0000 C   0  0  0  0  0  0  0  0  0  0  0  0
   48.8990    3.9800   44.1830 C   0  0  0  0  0  0  0  0  0  0  0  0
   48.0700    5.0740   44.3470 C   0  0  0  0  0  0  0  0  0  0  0  0
   47.1770    5.5160   43.3870 C   0  0  0  0  0  0  0  0  0  0  0  0
   46.3100    6.7100   43.6230 C   0  0  0  0  0  0  0  0  0  0  0  0
   44.9270    6.2790   44.0090 C   0  0  0  0  0  0  0  0  0  0  0  0
   44.7510    5.0360   44.2590 O   0  0  0  0  0  0  0  0  0  0  0  0
   43.8640    7.2160   44.0940 N   0  0  0  0  0  0  0  0  0  0  0  0
   42.7950    7.1400   43.1610 C   0  0  0  0  0  0  0  0  0  0  0  0
   42.5510    8.5480   42.6030 C   0  0  0  0  0  0  0  0  0  0  0  0
   42.1070    9.3180   43.8280 C   0  0  0  0  0  0  0  0  0  0  0  0
   42.7640    9.1210   45.0260 C   0  0  0  0  0  0  0  0  0  0  0  0
   42.3400    9.8160   46.1200 N   0  0  0  0  0  0  0  0  0  0  0  0
   41.3130   10.6790   46.0780 C   0  0  0  0  0  0  0  0  0  0  0  0
   40.6830   10.8580   44.9030 N   0  0  0  0  0  0  0  0  0  0  0  0
   41.0610   10.1930   43.7710 C   0  0  0  0  0  0  0  0  0  0  0  0
   40.4160   10.3750   42.5610 O   0  0  0  0  0  0  0  0  0  0  0  0
   43.9090    8.1950   45.1280 C   0  0  0  0  0  0  0  0  0  0  0  0
   49.7830    3.5530   45.1520 O   0  0  0  0  0  0  0  0  0  0  0  0
   50.8950    2.7130   44.9190 C   0  0  0  0  0  0  0  0  0  0  0  0
   50.8480    1.9730   43.6290 C   0  0  0  0  0  0  0  0  0  0  0  0
   49.6890    2.1870   42.8700 O   0  0  0  0  0  0  0  0  0  0  0  0
   47.9480    3.1260   41.1160 H   0  0  0  0  0  0  0  0  0  0  0  0
   48.1130    5.6280   45.2830 H   0  0  0  0  0  0  0  0  0  0  0  0
   46.2870    7.2750   42.6660 H   0  0  0  0  0  0  0  0  0  0  0  0
   46.7180    7.3830   44.3780 H   0  0  0  0  0  0  0  0  0  0  0  0
   41.8290    6.8160   43.6470 H   0  0  0  0  0  0  0  0  0  0  0  0
   42.9570    6.4160   42.3400 H   0  0  0  0  0  0  0  0  0  0  0  0
   41.7880    8.5590   41.8240 H   0  0  0  0  0  0  0  0  0  0  0  0
   43.5280    8.9150   42.2320 H   0  0  0  0  0  0  0  0  0  0  0  0
   40.9860   11.2260   46.9620 H   0  0  0  0  0  0  0  0  0  0  0  0
   40.3750    9.5910   41.9210 H   0  0  0  0  0  0  0  0  0  0  0  0
   44.8850    8.7550   45.1150 H   0  0  0  0  0  0  0  0  0  0  0  0
   43.8580    7.7480   46.1510 H   0  0  0  0  0  0  0  0  0  0  0  0
   51.7930    3.3970   44.8770 H   0  0  0  0  0  0  0  0  0  0  0  0
   51.0790    2.0690   45.8010 H   0  0  0  0  0  0  0  0  0  0  0  0
   51.7150    2.2080   42.9620 H   0  0  0  0  0  0  0  0  0  0  0  0
   50.9530    0.8760   43.8590 H   0  0  0  0  0  0  0  0  0  0  0  0
  1  2  1  0  0  0  0
  2  7  1  0  0  0  0
  3  2  2  0  0  0  0
  3  4  1  0  0  0  0
  4  5  2  0  0  0  0
  5  6  1  0  0  0  0
  5 22  1  0  0  0  0
  6 27  1  0  0  0  0
  7  8  1  0  0  0  0
  7  6  2  0  0  0  0
  8  9  1  0  0  0  0
  8 29  1  0  0  0  0
  9 11  1  0  0  0  0
  9 10  2  0  0  0  0
 11 21  1  0  0  0  0
 12 30  1  0  0  0  0
 12 11  1  0  0  0  0
 13 12  1  0  0  0  0
 13 14  1  0  0  0  0
 14 15  2  0  0  0  0
 15 21  1  0  0  0  0
 15 16  1  0  0  0  0
 17 16  2  0  0  0  0
 17 34  1  0  0  0  0
 18 17  1  0  0  0  0
 19 14  1  0  0  0  0
 19 18  2  0  0  0  0
 20 19  1  0  0  0  0
 21 37  1  0  0  0  0
 23 22  1  0  0  0  0
 23 39  1  0  0  0  0
 24 41  1  0  0  0  0
 24 23  1  0  0  0  0
 25  4  1  0  0  0  0
 25 24  1  0  0  0  0
 26  3  1  0  0  0  0
 28  8  1  0  0  0  0
 31 12  1  0  0  0  0
 32 13  1  0  0  0  0
 33 13  1  0  0  0  0
 35 20  1  0  0  0  0
 36 21  1  0  0  0  0
 38 23  1  0  0  0  0
 40 24  1  0  0  0  0
M  END
>  <Pose>
1

>  <Score>
-5.88

$$$$
