
 OpenBabel03172210433D

 36 39  0  0  1  0  0  0  0  0999 V2000
   50.4370    6.8710   48.6440 Cl  0  0  0  0  0  0  0  0  0  0  0  0
   50.1380    5.8200   47.2760 C   0  0  0  0  0  0  0  0  0  0  0  0
   49.0590    5.9840   46.4330 C   0  0  0  0  0  0  0  0  0  0  0  0
   48.8110    5.1620   45.3520 C   0  0  2  0  0  0  0  0  0  0  0  0
   49.6980    4.1300   45.1180 C   0  0  0  0  0  0  0  0  0  0  0  0
   50.7820    3.9560   45.9540 C   0  0  0  0  0  0  0  0  0  0  0  0
   51.0290    4.7770   47.0350 C   0  0  0  0  0  0  0  0  0  0  0  0
   49.4530    3.2370   43.9640 C   0  0  0  0  0  0  0  0  0  0  0  0
   50.0990    2.2360   43.5350 N   0  0  0  0  0  0  0  0  0  0  0  0
   49.5130    1.6290   42.3590 C   0  0  0  0  0  0  0  0  0  0  0  0
   48.3000    2.4500   42.0690 C   0  0  0  0  0  0  0  0  0  0  0  0
   48.3270    3.4450   43.1230 N   0  0  0  0  0  0  0  0  0  0  0  0
   47.4590    4.5350   43.4350 C   0  0  0  0  0  0  0  0  0  0  0  0
   46.3390    4.9660   42.8290 N   0  0  0  0  0  0  0  0  0  0  0  0
   45.8400    6.0210   43.4510 N   0  0  0  0  0  0  0  0  0  0  0  0
   46.6870    6.2520   44.4850 C   0  0  0  0  0  0  0  0  0  0  0  0
   46.5300    7.1850   45.3020 O   0  0  0  0  0  0  0  0  0  0  0  0
   47.6870    5.3550   44.4950 N   0  0  0  0  0  0  0  0  0  0  0  0
   44.6460    6.7660   43.1010 C   0  0  0  0  0  0  0  0  0  0  0  0
   43.6310    6.6600   44.2480 C   0  0  0  0  0  0  0  0  0  0  0  0
   42.3070    7.1650   43.8060 C   0  0  0  0  0  0  0  0  0  0  0  0
   42.0710    8.3600   43.4980 O   0  0  0  0  0  0  0  0  0  0  0  0
   41.2370    6.2380   43.7260 N   0  0  0  0  0  0  0  0  0  0  0  0
   48.3860    6.8020   46.6470 H   0  0  0  0  0  0  0  0  0  0  0  0
   51.4560    3.1400   45.7430 H   0  0  0  0  0  0  0  0  0  0  0  0
   51.8800    4.6430   47.6950 H   0  0  0  0  0  0  0  0  0  0  0  0
   49.2670    0.5610   42.5270 H   0  0  0  0  0  0  0  0  0  0  0  0
   50.2800    1.7220   41.5490 H   0  0  0  0  0  0  0  0  0  0  0  0
   47.3620    1.8630   42.0550 H   0  0  0  0  0  0  0  0  0  0  0  0
   48.4180    2.9560   41.0680 H   0  0  0  0  0  0  0  0  0  0  0  0
   44.9080    7.8480   43.0470 H   0  0  0  0  0  0  0  0  0  0  0  0
   44.1920    6.4130   42.1760 H   0  0  0  0  0  0  0  0  0  0  0  0
   43.9760    7.2360   45.1270 H   0  0  0  0  0  0  0  0  0  0  0  0
   43.4860    5.5930   44.5490 H   0  0  0  0  0  0  0  0  0  0  0  0
   41.3680    5.2100   43.7250 H   0  0  0  0  0  0  0  0  0  0  0  0
   40.2700    6.6180   43.6630 H   0  0  0  0  0  0  0  0  0  0  0  0
  2  1  1  0  0  0  0
  3 24  1  0  0  0  0
  3  2  2  0  0  0  0
  4  5  1  6  0  0  0
  4  3  1  0  0  0  0
  5  6  1  0  0  0  0
  6  7  2  0  0  0  0
  7  2  1  0  0  0  0
  7 26  1  0  0  0  0
  8  5  2  0  0  0  0
  9  8  1  0  0  0  0
 10 27  1  0  0  0  0
 10  9  1  0  0  0  0
 11 10  1  0  0  0  0
 11 12  1  0  0  0  0
 12 13  1  0  0  0  0
 12  8  1  0  0  0  0
 13 18  1  0  0  0  0
 14 13  2  0  0  0  0
 14 15  1  0  0  0  0
 15 16  1  0  0  0  0
 16 18  1  0  0  0  0
 16 17  2  0  0  0  0
 18  4  1  0  0  0  0
 19 15  1  0  0  0  0
 19 20  1  0  0  0  0
 20 34  1  0  0  0  0
 20 33  1  0  0  0  0
 21 20  1  0  0  0  0
 22 21  2  0  0  0  0
 23 21  1  0  0  0  0
 25  6  1  0  0  0  0
 28 10  1  0  0  0  0
 29 11  1  0  0  0  0
 30 11  1  0  0  0  0
 31 19  1  0  0  0  0
 32 19  1  0  0  0  0
 35 23  1  0  0  0  0
 36 23  1  0  0  0  0
M  END
>  <Pose>
1

>  <Score>
-5.83

$$$$
