
 OpenBabel03172210433D

 57 60  0  0  0  0  0  0  0  0999 V2000
   43.6800   12.3030   49.6690 Cl  0  0  0  0  0  0  0  0  0  0  0  0
   43.4340   11.2950   48.2630 C   0  0  0  0  0  0  0  0  0  0  0  0
   43.4010   11.8380   46.9980 C   0  0  0  0  0  0  0  0  0  0  0  0
   43.2070   11.0330   45.9070 C   0  0  0  0  0  0  0  0  0  0  0  0
   43.0430    9.6530   46.0850 C   0  0  0  0  0  0  0  0  0  0  0  0
   43.0750    9.0980   47.3540 C   0  0  0  0  0  0  0  0  0  0  0  0
   43.2700    9.9360   48.4170 C   0  0  0  0  0  0  0  0  0  0  0  0
   42.8380    8.7090   45.0910 O   0  0  0  0  0  0  0  0  0  0  0  0
   43.1880    8.7990   43.7300 C   0  0  0  0  0  0  0  0  0  0  0  0
   42.4320    9.8730   43.0170 C   0  0  0  0  0  0  0  0  0  0  0  0
   42.2600   11.0910   43.7490 N   0  0  0  0  0  0  0  0  0  0  0  0
   43.1970   11.7620   44.6130 C   0  0  0  0  0  0  0  0  0  0  0  0
   40.9970   11.7660   43.6360 C   0  0  0  0  0  0  0  0  0  0  0  0
   40.7790   12.3860   42.5660 O   0  0  0  0  0  0  0  0  0  0  0  0
   40.0090   11.7350   44.7130 C   0  0  0  0  0  0  0  0  0  0  0  0
   39.6180   12.9710   45.2860 N   0  0  0  0  0  0  0  0  0  0  0  0
   39.2660   12.8300   46.7010 C   0  0  0  0  0  0  0  0  0  0  0  0
   38.1220   11.8930   46.8050 C   0  0  0  0  0  0  0  0  0  0  0  0
   36.9880   12.1160   45.8620 C   0  0  0  0  0  0  0  0  0  0  0  0
   37.2210   13.0350   44.7290 C   0  0  0  0  0  0  0  0  0  0  0  0
   38.5530   13.6760   44.6180 C   0  0  0  0  0  0  0  0  0  0  0  0
   36.4070   10.8340   45.3940 C   0  0  0  0  0  0  0  0  0  0  0  0
   35.1880   10.6210   45.5520 O   0  0  0  0  0  0  0  0  0  0  0  0
   37.2310    9.8670   44.7790 N   0  0  0  0  0  0  0  0  0  0  0  0
   44.6950    8.9590   43.6020 C   0  0  0  0  0  0  0  0  0  0  0  0
   45.3580    7.5990   43.4680 C   0  0  0  0  0  0  0  0  0  0  0  0
   45.0320    6.9670   42.2840 O   0  0  0  0  0  0  0  0  0  0  0  0
   43.7790    7.3700   41.8340 C   0  0  0  0  0  0  0  0  0  0  0  0
   42.8520    7.4800   43.0290 C   0  0  0  0  0  0  0  0  0  0  0  0
   43.5270   12.9000   46.8480 H   0  0  0  0  0  0  0  0  0  0  0  0
   42.9420    8.0310   47.4450 H   0  0  0  0  0  0  0  0  0  0  0  0
   43.3010    9.5390   49.4290 H   0  0  0  0  0  0  0  0  0  0  0  0
   42.9660   10.1000   42.0590 H   0  0  0  0  0  0  0  0  0  0  0  0
   41.4440    9.4350   42.7190 H   0  0  0  0  0  0  0  0  0  0  0  0
   44.2110   11.8560   44.1790 H   0  0  0  0  0  0  0  0  0  0  0  0
   42.8640   12.8050   44.8350 H   0  0  0  0  0  0  0  0  0  0  0  0
   40.4730   11.1290   45.5480 H   0  0  0  0  0  0  0  0  0  0  0  0
   39.1530   11.0940   44.3740 H   0  0  0  0  0  0  0  0  0  0  0  0
   40.1200   12.4360   47.2510 H   0  0  0  0  0  0  0  0  0  0  0  0
   38.9370   13.8370   47.0440 H   0  0  0  0  0  0  0  0  0  0  0  0
   38.4660   10.8290   46.6640 H   0  0  0  0  0  0  0  0  0  0  0  0
   37.8010   11.9030   47.8900 H   0  0  0  0  0  0  0  0  0  0  0  0
   36.1640   12.5710   46.4990 H   0  0  0  0  0  0  0  0  0  0  0  0
   36.3940   13.8050   44.6550 H   0  0  0  0  0  0  0  0  0  0  0  0
   37.0760   12.4480   43.7700 H   0  0  0  0  0  0  0  0  0  0  0  0
   38.8800   13.9570   43.6130 H   0  0  0  0  0  0  0  0  0  0  0  0
   38.4750   14.6650   45.1670 H   0  0  0  0  0  0  0  0  0  0  0  0
   37.1850    9.8330   43.7180 H   0  0  0  0  0  0  0  0  0  0  0  0
   37.8590    9.2080   45.2530 H   0  0  0  0  0  0  0  0  0  0  0  0
   45.0950    9.3960   44.5510 H   0  0  0  0  0  0  0  0  0  0  0  0
   44.9740    9.5550   42.7180 H   0  0  0  0  0  0  0  0  0  0  0  0
   46.4580    7.7640   43.4700 H   0  0  0  0  0  0  0  0  0  0  0  0
   45.0830    6.9510   44.3190 H   0  0  0  0  0  0  0  0  0  0  0  0
   43.9210    8.3590   41.3400 H   0  0  0  0  0  0  0  0  0  0  0  0
   43.3900    6.6790   41.0640 H   0  0  0  0  0  0  0  0  0  0  0  0
   43.1140    6.6400   43.7080 H   0  0  0  0  0  0  0  0  0  0  0  0
   41.7910    7.4290   42.7530 H   0  0  0  0  0  0  0  0  0  0  0  0
  2  7  1  0  0  0  0
  2  1  1  0  0  0  0
  3  2  2  0  0  0  0
  4  5  2  0  0  0  0
  4  3  1  0  0  0  0
  5  6  1  0  0  0  0
  6 31  1  0  0  0  0
  6  7  2  0  0  0  0
  7 32  1  0  0  0  0
  8  5  1  0  0  0  0
  9  8  1  0  0  0  0
 10  9  1  0  0  0  0
 10 11  1  0  0  0  0
 11 12  1  0  0  0  0
 12 36  1  0  0  0  0
 12  4  1  0  0  0  0
 13 11  1  0  0  0  0
 13 15  1  0  0  0  0
 14 13  2  0  0  0  0
 15 16  1  0  0  0  0
 15 37  1  0  0  0  0
 16 17  1  0  0  0  0
 17 18  1  0  0  0  0
 17 40  1  0  0  0  0
 17 39  1  0  0  0  0
 18 42  1  0  0  0  0
 19 43  1  0  0  0  0
 19 18  1  0  0  0  0
 20 19  1  0  0  0  0
 21 20  1  0  0  0  0
 21 47  1  0  0  0  0
 21 16  1  0  0  0  0
 22 23  2  0  0  0  0
 22 19  1  0  0  0  0
 24 49  1  0  0  0  0
 24 22  1  0  0  0  0
 25  9  1  0  0  0  0
 25 50  1  0  0  0  0
 26 52  1  0  0  0  0
 26 25  1  0  0  0  0
 26 53  1  0  0  0  0
 27 26  1  0  0  0  0
 28 27  1  0  0  0  0
 28 29  1  0  0  0  0
 29 56  1  0  0  0  0
 29  9  1  0  0  0  0
 30  3  1  0  0  0  0
 33 10  1  0  0  0  0
 34 10  1  0  0  0  0
 35 12  1  0  0  0  0
 38 15  1  0  0  0  0
 41 18  1  0  0  0  0
 44 20  1  0  0  0  0
 45 20  1  0  0  0  0
 46 21  1  0  0  0  0
 48 24  1  0  0  0  0
 51 25  1  0  0  0  0
 54 28  1  0  0  0  0
 55 28  1  0  0  0  0
 57 29  1  0  0  0  0
M  END
>  <Pose>
1

>  <Score>
-4.48

$$$$
