
 OpenBabel03172210433D

 43 46  0  0  0  0  0  0  0  0999 V2000
   47.6230    3.2800   42.4810 S   0  0  0  0  0  0  0  0  0  0  0  0
   47.1060    1.9070   42.2850 O   0  0  0  0  0  0  0  0  0  0  0  0
   48.0690    3.8530   41.1540 O   0  0  0  0  0  0  0  0  0  0  0  0
   46.4370    4.2940   43.1380 N   0  0  0  0  0  0  0  0  0  0  0  0
   46.9080    5.5860   43.5340 C   0  0  0  0  0  0  0  0  0  0  0  0
   45.8000    6.5700   43.7980 C   0  0  0  0  0  0  0  0  0  0  0  0
   44.6460    5.9490   44.4070 N   0  0  0  0  0  0  0  0  0  0  0  0
   44.5840    4.5540   44.7520 C   0  0  0  0  0  0  0  0  0  0  0  0
   45.5300    3.6690   44.0330 C   0  0  0  0  0  0  0  0  0  0  0  0
   43.5130    6.7620   44.6810 C   0  0  0  0  0  0  0  0  0  0  0  0
   42.3880    6.2450   44.9890 O   0  0  0  0  0  0  0  0  0  0  0  0
   43.6020    8.2210   44.6180 C   0  0  0  0  0  0  0  0  0  0  0  0
   43.7140    8.9210   43.4330 C   0  0  0  0  0  0  0  0  0  0  0  0
   43.7900   10.2650   43.4510 N   0  0  0  0  0  0  0  0  0  0  0  0
   43.7630   10.9920   44.5830 C   0  0  0  0  0  0  0  0  0  0  0  0
   43.6530   10.3250   45.7460 N   0  0  0  0  0  0  0  0  0  0  0  0
   43.6230   11.0370   46.8910 C   0  0  0  0  0  0  0  0  0  0  0  0
   43.7020   12.4150   46.9020 C   0  0  0  0  0  0  0  0  0  0  0  0
   43.8150   13.1290   45.7250 C   0  0  0  0  0  0  0  0  0  0  0  0
   43.8430   12.3790   44.5620 C   0  0  0  0  0  0  0  0  0  0  0  0
   43.5750    8.9810   45.7700 C   0  0  0  0  0  0  0  0  0  0  0  0
   43.4730    8.3580   46.8550 O   0  0  0  0  0  0  0  0  0  0  0  0
   49.0150    3.2500   43.5760 C   0  0  0  0  0  0  0  0  0  0  0  0
   50.4780    2.3850   43.4440 S   0  0  0  0  0  0  0  0  0  0  0  0
   51.2350    2.9140   44.8780 C   0  0  0  0  0  0  0  0  0  0  0  0
   50.3090    3.7610   45.4210 C   0  0  0  0  0  0  0  0  0  0  0  0
   49.1650    3.9360   44.7540 C   0  0  0  0  0  0  0  0  0  0  0  0
   52.8290    2.4970   45.5390 Cl  0  0  0  0  0  0  0  0  0  0  0  0
   47.4860    5.4750   44.4750 H   0  0  0  0  0  0  0  0  0  0  0  0
   47.5980    5.9540   42.7500 H   0  0  0  0  0  0  0  0  0  0  0  0
   46.1320    7.4300   44.4090 H   0  0  0  0  0  0  0  0  0  0  0  0
   45.4820    6.9690   42.8140 H   0  0  0  0  0  0  0  0  0  0  0  0
   43.5350    4.2200   44.4970 H   0  0  0  0  0  0  0  0  0  0  0  0
   44.6410    4.4270   45.8640 H   0  0  0  0  0  0  0  0  0  0  0  0
   46.1480    3.1260   44.8080 H   0  0  0  0  0  0  0  0  0  0  0  0
   45.0040    2.8470   43.4640 H   0  0  0  0  0  0  0  0  0  0  0  0
   43.7380    8.3470   42.5160 H   0  0  0  0  0  0  0  0  0  0  0  0
   43.5350   10.4910   47.8270 H   0  0  0  0  0  0  0  0  0  0  0  0
   43.6780   12.9870   47.8280 H   0  0  0  0  0  0  0  0  0  0  0  0
   43.8790   14.2090   45.6960 H   0  0  0  0  0  0  0  0  0  0  0  0
   43.9300   12.9180   43.6280 H   0  0  0  0  0  0  0  0  0  0  0  0
   50.5280    4.2700   46.3840 H   0  0  0  0  0  0  0  0  0  0  0  0
   48.3350    4.5990   45.0930 H   0  0  0  0  0  0  0  0  0  0  0  0
  1  4  1  0  0  0  0
  1 23  1  0  0  0  0
  2  1  2  0  0  0  0
  3  1  2  0  0  0  0
  4  5  1  0  0  0  0
  4  9  1  0  0  0  0
  5  6  1  0  0  0  0
  5 29  1  0  0  0  0
  6  7  1  0  0  0  0
  6 31  1  0  0  0  0
  7 10  1  0  0  0  0
  7  8  1  0  0  0  0
  8 34  1  0  0  0  0
  9  8  1  0  0  0  0
  9 35  1  0  0  0  0
 10 11  2  0  0  0  0
 12 10  1  0  0  0  0
 12 21  1  0  0  0  0
 13 14  1  0  0  0  0
 13 12  2  0  0  0  0
 14 15  2  0  0  0  0
 15 16  1  0  0  0  0
 16 21  1  0  0  0  0
 16 17  1  0  0  0  0
 17 18  2  0  0  0  0
 17 38  1  0  0  0  0
 18 39  1  0  0  0  0
 19 18  1  0  0  0  0
 20 15  1  0  0  0  0
 20 19  2  0  0  0  0
 21 22  2  0  0  0  0
 23 27  2  0  0  0  0
 24 23  1  0  0  0  0
 24 25  1  0  0  0  0
 25 26  2  0  0  0  0
 25 28  1  0  0  0  0
 26 42  1  0  0  0  0
 27 43  1  0  0  0  0
 27 26  1  0  0  0  0
 30  5  1  0  0  0  0
 32  6  1  0  0  0  0
 33  8  1  0  0  0  0
 36  9  1  0  0  0  0
 37 13  1  0  0  0  0
 40 19  1  0  0  0  0
 41 20  1  0  0  0  0
M  END
>  <Pose>
1

>  <Score>
-6.18

$$$$
