
 OpenBabel03172210433D

 50 53  0  0  1  0  0  0  0  0999 V2000
   47.3170    4.3140   43.1450 S   0  0  0  0  0  0  0  0  0  0  0  0
   47.9180    4.3620   41.7490 O   0  0  0  0  0  0  0  0  0  0  0  0
   46.4420    3.0630   43.1260 O   0  0  0  0  0  0  0  0  0  0  0  0
   46.3560    5.6510   43.4480 N   0  0  0  0  0  0  0  0  0  0  0  0
   45.0260    5.4410   43.8160 C   0  0  0  0  0  0  0  0  0  0  0  0
   44.3380    6.7170   44.3240 C   0  0  0  0  0  0  0  0  0  0  0  0
   44.7440    7.8680   43.5740 N   0  0  0  0  0  0  0  0  0  0  0  0
   46.1510    8.0250   43.2780 C   0  0  0  0  0  0  0  0  0  0  0  0
   46.5840    6.7640   42.5560 C   0  0  0  0  0  0  0  0  0  0  0  0
   43.7990    8.8070   43.1460 C   0  0  0  0  0  0  0  0  0  0  0  0
   44.1180   10.0160   43.0170 O   0  0  0  0  0  0  0  0  0  0  0  0
   42.3850    8.4330   42.8270 C   0  0  0  0  0  0  0  0  0  0  0  0
   41.4740    9.6220   42.6290 C   0  0  0  0  0  0  0  0  0  0  0  0
   41.1570    9.5430   44.1200 C   0  0  0  0  0  0  0  0  0  0  0  0
   41.6060    8.0800   44.0690 C   0  0  0  0  0  0  0  0  0  0  0  0
   48.6090    4.0020   44.2830 C   0  0  0  0  0  0  0  0  0  0  0  0
   48.6730    4.7720   45.4620 C   0  0  0  0  0  0  0  0  0  0  0  0
   49.6980    4.6140   46.3670 C   0  0  0  0  0  0  0  0  0  0  0  0
   50.7160    3.7060   46.1810 C   0  0  0  0  0  0  0  0  0  0  0  0
   50.6570    2.9520   45.0350 C   0  0  0  0  0  0  0  0  0  0  0  0
   49.6200    3.0970   44.1020 C   0  0  0  0  0  0  0  0  0  0  0  0
   49.5770    2.0460   42.7060 Cl  0  0  0  0  0  0  0  0  0  0  0  0
   51.7430    3.5950   47.1490 N   0  0  0  0  0  0  0  0  0  0  0  0
   51.7710    4.3950   48.3240 C   0  0  0  0  0  0  0  0  0  0  0  0
   52.4850    4.1750   49.3210 O   0  0  0  0  0  0  0  0  0  0  0  0
   50.8680    5.5770   48.3320 C   0  0  2  0  0  0  0  0  0  0  0  0
   49.7380    5.3890   47.5260 O   0  0  0  0  0  0  0  0  0  0  0  0
   51.5960    6.8100   47.8490 C   0  0  0  0  0  0  0  0  0  0  0  0
   44.9830    4.7640   44.6930 H   0  0  0  0  0  0  0  0  0  0  0  0
   44.4090    5.0380   43.0010 H   0  0  0  0  0  0  0  0  0  0  0  0
   43.2520    6.5700   44.2280 H   0  0  0  0  0  0  0  0  0  0  0  0
   44.6450    6.8800   45.3750 H   0  0  0  0  0  0  0  0  0  0  0  0
   46.3710    8.9360   42.7020 H   0  0  0  0  0  0  0  0  0  0  0  0
   46.7020    8.0510   44.2600 H   0  0  0  0  0  0  0  0  0  0  0  0
   45.9690    6.6390   41.6400 H   0  0  0  0  0  0  0  0  0  0  0  0
   47.6490    6.8070   42.3200 H   0  0  0  0  0  0  0  0  0  0  0  0
   42.3250    7.6800   42.0050 H   0  0  0  0  0  0  0  0  0  0  0  0
   40.5970    9.4240   41.9990 H   0  0  0  0  0  0  0  0  0  0  0  0
   42.0020   10.5730   42.3550 H   0  0  0  0  0  0  0  0  0  0  0  0
   41.8210   10.1710   44.7360 H   0  0  0  0  0  0  0  0  0  0  0  0
   40.1030    9.6950   44.3670 H   0  0  0  0  0  0  0  0  0  0  0  0
   40.7750    7.3680   43.8720 H   0  0  0  0  0  0  0  0  0  0  0  0
   42.2060    7.7700   44.9330 H   0  0  0  0  0  0  0  0  0  0  0  0
   47.8850    5.4860   45.6190 H   0  0  0  0  0  0  0  0  0  0  0  0
   51.4310    2.2280   44.8460 H   0  0  0  0  0  0  0  0  0  0  0  0
   52.5140    2.9030   47.0030 H   0  0  0  0  0  0  0  0  0  0  0  0
   50.5430    5.7440   49.3700 H   0  0  0  0  0  0  0  0  0  0  0  0
   52.7030    6.5970   47.8740 H   0  0  0  0  0  0  0  0  0  0  0  0
   51.3540    7.6630   48.5060 H   0  0  0  0  0  0  0  0  0  0  0  0
   51.3260    7.0190   46.7960 H   0  0  0  0  0  0  0  0  0  0  0  0
  1  4  1  0  0  0  0
  1 16  1  0  0  0  0
  2  1  2  0  0  0  0
  3  1  2  0  0  0  0
  4  5  1  0  0  0  0
  5  6  1  0  0  0  0
  5 29  1  0  0  0  0
  6 32  1  0  0  0  0
  7  6  1  0  0  0  0
  8  7  1  0  0  0  0
  8 34  1  0  0  0  0
  9  8  1  0  0  0  0
  9  4  1  0  0  0  0
 10  7  1  0  0  0  0
 11 10  2  0  0  0  0
 12 10  1  0  0  0  0
 12 15  1  0  0  0  0
 13 12  1  0  0  0  0
 13 14  1  0  0  0  0
 14 41  1  0  0  0  0
 14 40  1  0  0  0  0
 15 14  1  0  0  0  0
 15 43  1  0  0  0  0
 16 17  1  0  0  0  0
 17 44  1  0  0  0  0
 17 18  2  0  0  0  0
 18 27  1  0  0  0  0
 19 18  1  0  0  0  0
 19 23  1  0  0  0  0
 20 19  2  0  0  0  0
 21 16  2  0  0  0  0
 21 20  1  0  0  0  0
 22 21  1  0  0  0  0
 23 24  1  0  0  0  0
 24 26  1  0  0  0  0
 24 25  2  0  0  0  0
 26 47  1  1  0  0  0
 27 26  1  0  0  0  0
 28 48  1  0  0  0  0
 28 26  1  0  0  0  0
 28 49  1  0  0  0  0
 30  5  1  0  0  0  0
 31  6  1  0  0  0  0
 33  8  1  0  0  0  0
 35  9  1  0  0  0  0
 36  9  1  0  0  0  0
 37 12  1  0  0  0  0
 38 13  1  0  0  0  0
 39 13  1  0  0  0  0
 42 15  1  0  0  0  0
 45 20  1  0  0  0  0
 46 23  1  0  0  0  0
 50 28  1  0  0  0  0
M  END
>  <Pose>
1

>  <Score>
-5.86

$$$$
