
 OpenBabel03172210433D

 41 44  0  0  0  0  0  0  0  0999 V2000
   42.1120    6.9890   44.7420 B   0  0  0  0  0  0  0  0  0  0  0  0
   43.9200    7.2900   44.1760 C   0  0  0  0  0  0  0  0  0  0  0  0
   44.9690    6.8390   44.9290 C   0  0  0  0  0  0  0  0  0  0  0  0
   46.2770    7.0640   44.5080 C   0  0  0  0  0  0  0  0  0  0  0  0
   46.4410    7.7470   43.3210 C   0  0  0  0  0  0  0  0  0  0  0  0
   45.3880    8.1920   42.5780 C   0  0  0  0  0  0  0  0  0  0  0  0
   44.0820    7.9750   42.9850 C   0  0  0  0  0  0  0  0  0  0  0  0
   47.7770    7.9610   42.9170 O   0  0  0  0  0  0  0  0  0  0  0  0
   48.3290    9.2650   42.8940 C   0  0  0  0  0  0  0  0  0  0  0  0
   47.4060    6.6610   45.3400 C   0  0  0  0  0  0  0  0  0  0  0  0
   48.3210    5.7020   45.2280 N   0  0  0  0  0  0  0  0  0  0  0  0
   49.1700    5.7420   46.2970 C   0  0  0  0  0  0  0  0  0  0  0  0
   48.7250    6.7660   47.0620 N   0  0  0  0  0  0  0  0  0  0  0  0
   47.6810    7.3200   46.5080 N   0  0  0  0  0  0  0  0  0  0  0  0
   50.0980    4.7780   46.2000 N   0  0  0  0  0  0  0  0  0  0  0  0
   49.8870    4.0880   45.0860 C   0  0  0  0  0  0  0  0  0  0  0  0
   48.7650    4.6670   44.4710 C   0  0  0  0  0  0  0  0  0  0  0  0
   48.3090    4.1610   43.3180 N   0  0  0  0  0  0  0  0  0  0  0  0
   48.9640    3.0940   42.7850 C   0  0  0  0  0  0  0  0  0  0  0  0
   48.5110    2.6360   41.6910 O   0  0  0  0  0  0  0  0  0  0  0  0
   50.0310    2.5110   43.3260 N   0  0  0  0  0  0  0  0  0  0  0  0
   50.4870    3.0110   44.4760 C   0  0  0  0  0  0  0  0  0  0  0  0
   51.4920    2.4970   45.0300 O   0  0  0  0  0  0  0  0  0  0  0  0
   50.6850    1.3580   42.6830 C   0  0  0  0  0  0  0  0  0  0  0  0
   47.1470    4.6790   42.6560 C   0  0  0  0  0  0  0  0  0  0  0  0
   51.1660    4.5120   47.1420 C   0  0  0  0  0  0  0  0  0  0  0  0
   44.8160    6.3060   45.8580 H   0  0  0  0  0  0  0  0  0  0  0  0
   45.5810    8.7300   41.6410 H   0  0  0  0  0  0  0  0  0  0  0  0
   43.2470    8.3270   42.3960 H   0  0  0  0  0  0  0  0  0  0  0  0
   49.2820    9.1950   42.3190 H   0  0  0  0  0  0  0  0  0  0  0  0
   47.6700    9.9910   42.3940 H   0  0  0  0  0  0  0  0  0  0  0  0
   48.5650    9.6570   43.8860 H   0  0  0  0  0  0  0  0  0  0  0  0
   50.1240    0.4330   42.8280 H   0  0  0  0  0  0  0  0  0  0  0  0
   50.7350    1.6060   41.5870 H   0  0  0  0  0  0  0  0  0  0  0  0
   51.7230    1.3350   43.0320 H   0  0  0  0  0  0  0  0  0  0  0  0
   46.8850    3.9130   41.8340 H   0  0  0  0  0  0  0  0  0  0  0  0
   47.3160    5.5860   42.0900 H   0  0  0  0  0  0  0  0  0  0  0  0
   46.2840    4.6210   43.3060 H   0  0  0  0  0  0  0  0  0  0  0  0
   51.3070    3.4080   47.2460 H   0  0  0  0  0  0  0  0  0  0  0  0
   52.0970    4.9550   46.7330 H   0  0  0  0  0  0  0  0  0  0  0  0
   50.9250    4.8780   48.1640 H   0  0  0  0  0  0  0  0  0  0  0  0
  2  1  1  0  0  0  0
  2  3  1  0  0  0  0
  3 27  1  0  0  0  0
  4  3  2  0  0  0  0
  4 10  1  0  0  0  0
  5  4  1  0  0  0  0
  6  7  1  0  0  0  0
  6  5  2  0  0  0  0
  7  2  2  0  0  0  0
  8  5  1  0  0  0  0
  9  8  1  0  0  0  0
  9 32  1  0  0  0  0
 10 14  2  0  0  0  0
 11 10  1  0  0  0  0
 11 12  1  0  0  0  0
 12 13  2  0  0  0  0
 14 13  1  0  0  0  0
 15 12  1  0  0  0  0
 15 26  1  0  0  0  0
 16 15  1  0  0  0  0
 17 16  2  0  0  0  0
 17 11  1  0  0  0  0
 18 17  1  0  0  0  0
 19 18  1  0  0  0  0
 19 21  1  0  0  0  0
 20 19  2  0  0  0  0
 21 22  1  0  0  0  0
 22 23  2  0  0  0  0
 22 16  1  0  0  0  0
 24 33  1  0  0  0  0
 24 35  1  0  0  0  0
 24 21  1  0  0  0  0
 25 38  1  0  0  0  0
 25 18  1  0  0  0  0
 26 39  1  0  0  0  0
 26 41  1  0  0  0  0
 28  6  1  0  0  0  0
 29  7  1  0  0  0  0
 30  9  1  0  0  0  0
 31  9  1  0  0  0  0
 34 24  1  0  0  0  0
 36 25  1  0  0  0  0
 37 25  1  0  0  0  0
 40 26  1  0  0  0  0
M  END
>  <Pose>
1

>  <Score>
-5.43

$$$$
