
 OpenBabel03172210433D

 35 37  0  0  1  0  0  0  0  0999 V2000
   38.5460    9.2200   50.0480 B   0  0  0  0  0  0  0  0  0  0  0  0
   39.8200    9.1920   48.6350 C   0  0  0  0  0  0  0  0  0  0  0  0
   39.9570   10.2990   47.7960 C   0  0  0  0  0  0  0  0  0  0  0  0
   40.8930   10.3090   46.7540 C   0  0  0  0  0  0  0  0  0  0  0  0
   41.6560    9.1630   46.6170 C   0  0  0  0  0  0  0  0  0  0  0  0
   41.5050    8.0760   47.4600 C   0  0  0  0  0  0  0  0  0  0  0  0
   40.5860    8.0820   48.4710 C   0  0  0  0  0  0  0  0  0  0  0  0
   42.5560    9.1830   45.5890 O   0  0  0  0  0  0  0  0  0  0  0  0
   42.7820    8.0250   44.8330 C   0  0  0  0  0  0  0  0  0  0  0  0
   41.0230   11.5490   45.9970 C   0  0  2  0  0  0  0  0  0  0  0  0
   39.5490   12.0250   45.8640 C   0  0  2  0  0  0  0  0  0  0  0  0
   38.9480   10.6920   45.3770 C   0  0  0  0  0  0  0  0  0  0  0  0
   37.9450   10.1880   45.8480 O   0  0  0  0  0  0  0  0  0  0  0  0
   39.7380   10.1430   44.2980 N   0  0  0  0  0  0  0  0  0  0  0  0
   40.6020   11.1310   43.6250 C   0  0  1  0  0  0  0  0  0  0  0  0
   39.7030   12.2740   43.4150 N   0  0  0  0  0  0  0  0  0  0  0  0
   39.3360   12.8920   44.6650 C   0  0  0  0  0  0  0  0  0  0  0  0
   38.8790   14.0450   44.7560 O   0  0  0  0  0  0  0  0  0  0  0  0
   41.6190   11.6160   44.6940 C   0  0  0  0  0  0  0  0  0  0  0  0
   41.2680   10.6670   42.4060 C   0  0  0  0  0  0  0  0  0  0  0  0
   39.3020   11.1220   48.0220 H   0  0  0  0  0  0  0  0  0  0  0  0
   42.1460    7.2370   47.2710 H   0  0  0  0  0  0  0  0  0  0  0  0
   40.5280    7.1710   49.0930 H   0  0  0  0  0  0  0  0  0  0  0  0
   42.9380    7.1510   45.4830 H   0  0  0  0  0  0  0  0  0  0  0  0
   41.7900    7.8430   44.2990 H   0  0  0  0  0  0  0  0  0  0  0  0
   43.5500    8.1440   44.0580 H   0  0  0  0  0  0  0  0  0  0  0  0
   41.4540   12.3060   46.7020 H   0  0  0  0  0  0  0  0  0  0  0  0
   39.0980   12.4000   46.7400 H   0  0  0  0  0  0  0  0  0  0  0  0
   39.7250    9.1570   44.0250 H   0  0  0  0  0  0  0  0  0  0  0  0
   39.3830   12.5770   42.4880 H   0  0  0  0  0  0  0  0  0  0  0  0
   41.7510   12.7170   44.4420 H   0  0  0  0  0  0  0  0  0  0  0  0
   42.6230   11.2370   44.5300 H   0  0  0  0  0  0  0  0  0  0  0  0
   41.2600   11.5440   41.6710 H   0  0  0  0  0  0  0  0  0  0  0  0
   42.3210   10.3590   42.5250 H   0  0  0  0  0  0  0  0  0  0  0  0
   40.7320    9.8530   41.9250 H   0  0  0  0  0  0  0  0  0  0  0  0
  2  1  1  0  0  0  0
  3 21  1  0  0  0  0
  3  2  2  0  0  0  0
  4  3  1  0  0  0  0
  5  4  2  0  0  0  0
  5  6  1  0  0  0  0
  6  7  2  0  0  0  0
  7  2  1  0  0  0  0
  7 23  1  0  0  0  0
  8  5  1  0  0  0  0
  9 24  1  0  0  0  0
  9  8  1  0  0  0  0
 10 27  1  1  0  0  0
 10  4  1  0  0  0  0
 11 10  1  0  0  0  0
 11 28  1  1  0  0  0
 12 13  2  0  0  0  0
 12 11  1  0  0  0  0
 14 12  1  0  0  0  0
 15 20  1  6  0  0  0
 15 14  1  0  0  0  0
 15 19  1  0  0  0  0
 16 15  1  0  0  0  0
 16 17  1  0  0  0  0
 17 18  2  0  0  0  0
 17 11  1  0  0  0  0
 19 10  1  0  0  0  0
 20 34  1  0  0  0  0
 22  6  1  0  0  0  0
 25  9  1  0  0  0  0
 26  9  1  0  0  0  0
 29 14  1  0  0  0  0
 30 16  1  0  0  0  0
 31 19  1  0  0  0  0
 32 19  1  0  0  0  0
 33 20  1  0  0  0  0
 35 20  1  0  0  0  0
M  END
>  <Pose>
1

>  <Score>
-4.15

$$$$
