
 OpenBabel03172210433D

 50 53  0  0  1  0  0  0  0  0999 V2000
   39.8960   14.3420   44.9800 Cl  0  0  0  0  0  0  0  0  0  0  0  0
   40.4650   12.9180   45.8470 C   0  0  0  0  0  0  0  0  0  0  0  0
   40.6490   11.7290   45.1170 C   0  0  0  0  0  0  0  0  0  0  0  0
   41.0940   10.6300   45.7900 C   0  0  0  0  0  0  0  0  0  0  0  0
   41.3560   10.6610   47.1530 C   0  0  0  0  0  0  0  0  0  0  0  0
   41.1650   11.8380   47.8400 C   0  0  0  0  0  0  0  0  0  0  0  0
   40.7210   12.9730   47.1980 C   0  0  0  0  0  0  0  0  0  0  0  0
   41.4570   11.8430   49.3160 C   0  0  0  0  0  0  0  0  0  0  0  0
   41.3250    9.5570   44.7750 C   0  0  2  0  0  0  0  0  0  0  0  0
   40.9960    8.2540   45.1960 N   0  0  0  0  0  0  0  0  0  0  0  0
   42.1710    7.7090   45.8150 C   0  0  2  0  0  0  0  0  0  0  0  0
   43.3160    8.6010   45.5530 C   0  0  2  0  0  0  0  0  0  0  0  0
   42.7740    9.4680   44.4130 C   0  0  1  0  0  0  0  0  0  0  0  0
   43.0430    8.6160   43.2690 C   0  0  0  0  0  0  0  0  0  0  0  0
   42.4170    8.3680   42.2150 O   0  0  0  0  0  0  0  0  0  0  0  0
   44.3250    8.0010   43.5600 N   0  0  0  0  0  0  0  0  0  0  0  0
   44.5140    8.0140   44.9670 C   0  0  0  0  0  0  0  0  0  0  0  0
   45.5210    7.5970   45.5570 O   0  0  0  0  0  0  0  0  0  0  0  0
   45.2830    7.4670   42.6290 C   0  0  0  0  0  0  0  0  0  0  0  0
   45.7230    6.0740   42.8850 C   0  0  0  0  0  0  0  0  0  0  0  0
   46.3880    5.4220   41.8890 O   0  0  0  0  0  0  0  0  0  0  0  0
   47.2060    4.3920   42.3030 C   0  0  0  0  0  0  0  0  0  0  0  0
   42.3820    6.2490   45.4610 C   0  0  1  0  0  0  0  0  0  0  0  0
   42.5140    5.9880   44.1300 O   0  0  0  0  0  0  0  0  0  0  0  0
   43.4250    5.6690   46.3590 C   0  0  0  0  0  0  0  0  0  0  0  0
   40.5900   10.0350   43.6060 C   0  0  0  0  0  0  0  0  0  0  0  0
   40.1880    9.4280   42.5640 O   0  0  0  0  0  0  0  0  0  0  0  0
   40.3350   11.4110   43.7660 N   0  0  0  0  0  0  0  0  0  0  0  0
   41.7010    9.8010   47.7270 H   0  0  0  0  0  0  0  0  0  0  0  0
   40.5800   13.8950   47.7720 H   0  0  0  0  0  0  0  0  0  0  0  0
   42.4180   11.3160   49.4830 H   0  0  0  0  0  0  0  0  0  0  0  0
   40.6820   11.2350   49.8670 H   0  0  0  0  0  0  0  0  0  0  0  0
   41.5280   12.8590   49.7140 H   0  0  0  0  0  0  0  0  0  0  0  0
   40.1710    8.2250   45.8420 H   0  0  0  0  0  0  0  0  0  0  0  0
   42.0160    7.6700   46.9400 H   0  0  0  0  0  0  0  0  0  0  0  0
   43.5450    9.3290   46.3690 H   0  0  0  0  0  0  0  0  0  0  0  0
   43.2830   10.4500   44.3890 H   0  0  0  0  0  0  0  0  0  0  0  0
   44.8480    7.4970   41.6030 H   0  0  0  0  0  0  0  0  0  0  0  0
   46.1620    8.1560   42.5890 H   0  0  0  0  0  0  0  0  0  0  0  0
   44.7940    5.4750   43.1060 H   0  0  0  0  0  0  0  0  0  0  0  0
   46.3040    6.0130   43.8370 H   0  0  0  0  0  0  0  0  0  0  0  0
   46.6690    3.6080   42.8410 H   0  0  0  0  0  0  0  0  0  0  0  0
   47.6670    3.9460   41.3960 H   0  0  0  0  0  0  0  0  0  0  0  0
   47.9940    4.8450   42.9610 H   0  0  0  0  0  0  0  0  0  0  0  0
   41.3900    5.7680   45.7580 H   0  0  0  0  0  0  0  0  0  0  0  0
   41.9840    5.2160   43.8050 H   0  0  0  0  0  0  0  0  0  0  0  0
   42.9830    4.7880   46.9180 H   0  0  0  0  0  0  0  0  0  0  0  0
   44.2760    5.2170   45.8040 H   0  0  0  0  0  0  0  0  0  0  0  0
   43.7110    6.4100   47.1150 H   0  0  0  0  0  0  0  0  0  0  0  0
   39.9840   12.1150   43.0690 H   0  0  0  0  0  0  0  0  0  0  0  0
  1  2  1  0  0  0  0
  2  7  1  0  0  0  0
  3  4  1  0  0  0  0
  3  2  2  0  0  0  0
  4  5  2  0  0  0  0
  5 29  1  0  0  0  0
  5  6  1  0  0  0  0
  6  8  1  0  0  0  0
  7 30  1  0  0  0  0
  7  6  2  0  0  0  0
  8 31  1  0  0  0  0
  8 33  1  0  0  0  0
  8 32  1  0  0  0  0
  9 26  1  6  0  0  0
  9 10  1  0  0  0  0
  9  4  1  0  0  0  0
 10 11  1  0  0  0  0
 10 34  1  0  0  0  0
 11 35  1  1  0  0  0
 12 11  1  0  0  0  0
 12 36  1  1  0  0  0
 13 37  1  6  0  0  0
 13  9  1  0  0  0  0
 13 12  1  0  0  0  0
 14 16  1  0  0  0  0
 14 13  1  0  0  0  0
 15 14  2  0  0  0  0
 16 17  1  0  0  0  0
 17 12  1  0  0  0  0
 17 18  2  0  0  0  0
 19 20  1  0  0  0  0
 19 16  1  0  0  0  0
 20 40  1  0  0  0  0
 20 41  1  0  0  0  0
 21 22  1  0  0  0  0
 21 20  1  0  0  0  0
 22 42  1  0  0  0  0
 22 44  1  0  0  0  0
 23 45  1  1  0  0  0
 23 11  1  0  0  0  0
 23 25  1  0  0  0  0
 24 23  1  0  0  0  0
 25 47  1  0  0  0  0
 25 49  1  0  0  0  0
 26 28  1  0  0  0  0
 27 26  2  0  0  0  0
 28  3  1  0  0  0  0
 38 19  1  0  0  0  0
 39 19  1  0  0  0  0
 43 22  1  0  0  0  0
 46 24  1  0  0  0  0
 48 25  1  0  0  0  0
 50 28  1  0  0  0  0
M  END
>  <Pose>
1

>  <Score>
-5.12

$$$$
