
 OpenBabel03172210433D

 48 51  0  0  0  0  0  0  0  0999 V2000
   46.4760    6.0560   50.9200 B   0  0  0  0  0  0  0  0  0  0  0  0
   46.5150    7.8690   50.3350 C   0  0  0  0  0  0  0  0  0  0  0  0
   45.4470    8.5490   49.8250 C   0  0  0  0  0  0  0  0  0  0  0  0
   45.5000    9.8610   49.4090 C   0  0  0  0  0  0  0  0  0  0  0  0
   46.7310   10.5130   49.5260 C   0  0  0  0  0  0  0  0  0  0  0  0
   47.8360    9.8810   50.0290 C   0  0  0  0  0  0  0  0  0  0  0  0
   47.7210    8.5560   50.4330 C   0  0  0  0  0  0  0  0  0  0  0  0
   46.8100   11.8300   49.1210 O   0  0  0  0  0  0  0  0  0  0  0  0
   46.6570   12.8700   50.0510 C   0  0  0  0  0  0  0  0  0  0  0  0
   44.3450   10.5700   48.8840 C   0  0  0  0  0  0  0  0  0  0  0  0
   43.7450   10.3390   47.7490 C   0  0  0  0  0  0  0  0  0  0  0  0
   44.1230    9.3570   46.8470 O   0  0  0  0  0  0  0  0  0  0  0  0
   43.3090    9.3420   45.7300 C   0  0  0  0  0  0  0  0  0  0  0  0
   42.3410   10.3170   45.8240 C   0  0  0  0  0  0  0  0  0  0  0  0
   41.4190   10.4780   44.8120 C   0  0  0  0  0  0  0  0  0  0  0  0
   41.4760    9.6560   43.7070 C   0  0  0  0  0  0  0  0  0  0  0  0
   42.4770    8.6670   43.6340 C   0  0  0  0  0  0  0  0  0  0  0  0
   43.3960    8.4880   44.6210 C   0  0  0  0  0  0  0  0  0  0  0  0
   44.4250    7.4850   44.6100 C   0  0  0  0  0  0  0  0  0  0  0  0
   45.7260    7.7300   44.1370 N   0  0  0  0  0  4  0  0  0  0  0  0
   46.7490    6.8490   44.6300 C   0  0  0  0  0  0  0  0  0  0  0  0
   46.8360    5.5340   43.8950 C   0  0  0  0  0  0  0  0  0  0  0  0
   45.8330    5.3570   42.9520 O   0  0  0  0  0  0  0  0  0  0  0  0
   45.9520    6.4110   42.0520 C   0  0  0  0  0  0  0  0  0  0  0  0
   45.7910    7.7630   42.6650 C   0  0  0  0  0  0  0  0  0  0  0  0
   42.4130    7.9090   42.4540 O   0  0  0  0  0  0  0  0  0  0  0  0
   42.5910   10.9780   47.1100 C   0  0  0  0  0  0  0  0  0  0  0  0
   41.9370   11.9280   47.5940 O   0  0  0  0  0  0  0  0  0  0  0  0
   44.5000    8.0060   49.7510 H   0  0  0  0  0  0  0  0  0  0  0  0
   48.8220   10.3450   50.1380 H   0  0  0  0  0  0  0  0  0  0  0  0
   48.6020    8.0370   50.8390 H   0  0  0  0  0  0  0  0  0  0  0  0
   46.3270   13.8150   49.5170 H   0  0  0  0  0  0  0  0  0  0  0  0
   47.6520   13.1070   50.5060 H   0  0  0  0  0  0  0  0  0  0  0  0
   45.8640   12.6820   50.8050 H   0  0  0  0  0  0  0  0  0  0  0  0
   43.9260   11.3870   49.4940 H   0  0  0  0  0  0  0  0  0  0  0  0
   40.6560   11.2510   44.8980 H   0  0  0  0  0  0  0  0  0  0  0  0
   40.7830    9.7340   42.8840 H   0  0  0  0  0  0  0  0  0  0  0  0
   44.5650    7.0070   45.6440 H   0  0  0  0  0  0  0  0  0  0  0  0
   44.0720    6.5490   44.0280 H   0  0  0  0  0  0  0  0  0  0  0  0
   46.0040    8.7000   44.3910 H   0  0  0  0  0  0  0  0  0  0  0  0
   47.7270    7.3810   44.4310 H   0  0  0  0  0  0  0  0  0  0  0  0
   46.6890    6.7190   45.7110 H   0  0  0  0  0  0  0  0  0  0  0  0
   47.8100    5.4150   43.3370 H   0  0  0  0  0  0  0  0  0  0  0  0
   46.8330    4.7000   44.6250 H   0  0  0  0  0  0  0  0  0  0  0  0
   45.0970    6.2910   41.3220 H   0  0  0  0  0  0  0  0  0  0  0  0
   46.9050    6.2970   41.4590 H   0  0  0  0  0  0  0  0  0  0  0  0
   44.9080    8.3170   42.2850 H   0  0  0  0  0  0  0  0  0  0  0  0
   46.6690    8.3740   42.3650 H   0  0  0  0  0  0  0  0  0  0  0  0
  2  7  1  0  0  0  0
  2  1  1  0  0  0  0
  3  2  2  0  0  0  0
  4  5  2  0  0  0  0
  4  3  1  0  0  0  0
  5  6  1  0  0  0  0
  6 30  1  0  0  0  0
  6  7  2  0  0  0  0
  7 31  1  0  0  0  0
  8  5  1  0  0  0  0
  8  9  1  0  0  0  0
  9 33  1  0  0  0  0
  9 34  1  0  0  0  0
 10  4  1  0  0  0  0
 10 35  1  0  0  0  0
 11 10  2  0  0  0  0
 12 11  1  0  0  0  0
 13 14  1  0  0  0  0
 13 12  1  0  0  0  0
 14 27  1  0  0  0  0
 15 36  1  0  0  0  0
 15 14  2  0  0  0  0
 16 15  1  0  0  0  0
 17 16  2  0  0  0  0
 17 18  1  0  0  0  0
 18 13  2  0  0  0  0
 19 18  1  0  0  0  0
 19 38  1  0  0  0  0
 20 40  1  0  0  0  0
 20 19  1  0  0  0  0
 20 21  1  0  0  0  0
 21 42  1  0  0  0  0
 22 44  1  0  0  0  0
 22 21  1  0  0  0  0
 23 22  1  0  0  0  0
 24 25  1  0  0  0  0
 24 23  1  0  0  0  0
 25 20  1  0  0  0  0
 26 17  1  0  0  0  0
 27 28  2  0  0  0  0
 27 11  1  0  0  0  0
 29  3  1  0  0  0  0
 32  9  1  0  0  0  0
 37 16  1  0  0  0  0
 39 19  1  0  0  0  0
 41 21  1  0  0  0  0
 43 22  1  0  0  0  0
 45 24  1  0  0  0  0
 46 24  1  0  0  0  0
 47 25  1  0  0  0  0
 48 25  1  0  0  0  0
M  END
>  <Pose>
1

>  <Score>
-4.57

$$$$
