
 OpenBabel03172210433D

 49 52  0  0  1  0  0  0  0  0999 V2000
   42.3260   10.2890   43.0410 S   0  0  0  0  0  0  0  0  0  0  0  0
   43.6230   11.0210   43.2960 O   0  0  0  0  0  0  0  0  0  0  0  0
   41.7620   10.8280   41.7710 O   0  0  0  0  0  0  0  0  0  0  0  0
   42.7120    8.6180   42.9230 N   0  0  0  0  0  0  0  0  0  0  0  0
   42.9260    8.0630   44.2450 C   0  0  0  0  0  0  0  0  0  0  0  0
   43.4990    6.6560   44.1430 C   0  0  0  0  0  0  0  0  0  0  0  0
   44.7790    6.7470   43.4410 N   0  0  0  0  0  0  0  0  0  0  0  0
   45.0420    8.0130   42.8240 C   0  0  0  0  0  0  0  0  0  0  0  0
   43.8180    8.4070   42.0390 C   0  0  0  0  0  0  0  0  0  0  0  0
   45.6340    5.6400   43.4300 C   0  0  0  0  0  0  0  0  0  0  0  0
   45.3240    4.6060   44.1510 O   0  0  0  0  0  0  0  0  0  0  0  0
   46.8910    5.4640   42.6960 C   0  0  0  0  0  0  0  0  0  0  0  0
   47.3900    3.7610   42.4780 S   0  0  0  0  0  0  0  0  0  0  0  0
   48.9810    3.3690   43.1830 C   0  0  1  0  0  0  0  0  0  0  0  0
   49.8390    2.5770   42.5530 N   0  0  0  0  0  0  0  0  0  0  0  0
   51.0480    2.2680   43.0290 C   0  0  0  0  0  0  0  0  0  0  0  0
   51.4210    2.7970   44.2350 N   0  0  0  0  0  0  0  0  0  0  0  0
   50.5800    3.5990   44.8960 C   0  0  0  0  0  0  0  0  0  0  0  0
   50.7090    4.2510   46.0890 N   0  0  0  0  0  0  0  0  0  0  0  0
   49.6010    4.9290   46.3110 N   0  0  0  0  0  0  0  0  0  0  0  0
   48.7380    4.7520   45.3080 C   0  0  0  0  0  0  0  0  0  0  0  0
   49.3290    3.9160   44.3990 C   0  0  0  0  0  0  0  0  0  0  0  0
   51.8590    4.2090   46.9420 C   0  0  0  0  0  0  0  0  0  0  0  0
   41.2220   10.5430   44.3750 C   0  0  0  0  0  0  0  0  0  0  0  0
   41.6160   10.7960   45.6690 C   0  0  0  0  0  0  0  0  0  0  0  0
   40.7000   10.9780   46.6760 C   0  0  0  0  0  0  0  0  0  0  0  0
   39.3340   10.9090   46.3990 C   0  0  0  0  0  0  0  0  0  0  0  0
   38.9190   10.6520   45.0880 C   0  0  0  0  0  0  0  0  0  0  0  0
   39.8580   10.4740   44.0950 C   0  0  0  0  0  0  0  0  0  0  0  0
   38.1830   11.1430   47.6880 Cl  0  0  0  0  0  0  0  0  0  0  0  0
   41.9500    7.9790   44.7410 H   0  0  0  0  0  0  0  0  0  0  0  0
   43.5850    8.6810   44.8600 H   0  0  0  0  0  0  0  0  0  0  0  0
   43.6660    6.3040   45.1820 H   0  0  0  0  0  0  0  0  0  0  0  0
   42.7740    6.0470   43.5950 H   0  0  0  0  0  0  0  0  0  0  0  0
   45.9670    8.0410   42.2180 H   0  0  0  0  0  0  0  0  0  0  0  0
   45.2330    8.7530   43.6470 H   0  0  0  0  0  0  0  0  0  0  0  0
   44.0150    9.2290   41.3390 H   0  0  0  0  0  0  0  0  0  0  0  0
   43.5940    7.5130   41.3790 H   0  0  0  0  0  0  0  0  0  0  0  0
   47.6920    5.9710   43.2720 H   0  0  0  0  0  0  0  0  0  0  0  0
   46.9080    5.9420   41.6930 H   0  0  0  0  0  0  0  0  0  0  0  0
   51.7110    1.6230   42.4810 H   0  0  0  0  0  0  0  0  0  0  0  0
   47.7670    5.1860   45.2250 H   0  0  0  0  0  0  0  0  0  0  0  0
   52.8270    4.2100   46.3670 H   0  0  0  0  0  0  0  0  0  0  0  0
   51.8290    5.0970   47.6330 H   0  0  0  0  0  0  0  0  0  0  0  0
   51.8080    3.2810   47.5420 H   0  0  0  0  0  0  0  0  0  0  0  0
   42.6680   10.8510   45.8810 H   0  0  0  0  0  0  0  0  0  0  0  0
   40.9760   11.1810   47.6980 H   0  0  0  0  0  0  0  0  0  0  0  0
   37.8470   10.6010   44.9040 H   0  0  0  0  0  0  0  0  0  0  0  0
   39.5470   10.2780   43.0960 H   0  0  0  0  0  0  0  0  0  0  0  0
  1  2  2  0  0  0  0
  1 24  1  0  0  0  0
  3  1  2  0  0  0  0
  4  1  1  0  0  0  0
  4  5  1  0  0  0  0
  5 31  1  0  0  0  0
  5 32  1  0  0  0  0
  6  5  1  0  0  0  0
  6 33  1  0  0  0  0
  7  6  1  0  0  0  0
  8  7  1  0  0  0  0
  8 36  1  0  0  0  0
  9  8  1  0  0  0  0
  9  4  1  0  0  0  0
 10  7  1  0  0  0  0
 10 11  2  0  0  0  0
 12 39  1  0  0  0  0
 12 10  1  0  0  0  0
 13 12  1  0  0  0  0
 14 13  1  6  0  0  0
 14 22  1  0  0  0  0
 15 16  2  0  0  0  0
 15 14  1  0  0  0  0
 16 17  1  0  0  0  0
 17 18  1  0  0  0  0
 18 19  1  0  0  0  0
 19 20  1  0  0  0  0
 19 23  1  0  0  0  0
 21 20  2  0  0  0  0
 22 18  2  0  0  0  0
 22 21  1  0  0  0  0
 23 45  1  0  0  0  0
 23 44  1  0  0  0  0
 24 25  1  0  0  0  0
 25 46  1  0  0  0  0
 25 26  2  0  0  0  0
 26 47  1  0  0  0  0
 27 26  1  0  0  0  0
 27 30  1  0  0  0  0
 28 27  2  0  0  0  0
 29 24  2  0  0  0  0
 29 28  1  0  0  0  0
 34  6  1  0  0  0  0
 35  8  1  0  0  0  0
 37  9  1  0  0  0  0
 38  9  1  0  0  0  0
 40 12  1  0  0  0  0
 41 16  1  0  0  0  0
 42 21  1  0  0  0  0
 43 23  1  0  0  0  0
 48 28  1  0  0  0  0
 49 29  1  0  0  0  0
M  END
>  <Pose>
1

>  <Score>
-7.50

$$$$
