
 OpenBabel03172210433D

 49 52  0  0  0  0  0  0  0  0999 V2000
   42.9370   10.6320   43.5060 S   0  0  0  0  0  0  0  0  0  0  0  0
   44.3360   10.2470   43.0440 O   0  0  0  0  0  0  0  0  0  0  0  0
   42.2490   11.1540   42.2500 O   0  0  0  0  0  0  0  0  0  0  0  0
   42.1520    9.2270   43.9880 N   0  0  0  0  0  0  0  0  0  0  0  0
   42.4850    8.7510   45.3080 C   0  0  0  0  0  0  0  0  0  0  0  0
   43.0110    7.3240   45.1710 C   0  0  0  0  0  0  0  0  0  0  0  0
   43.8630    7.2400   44.0450 N   0  0  0  0  0  0  0  0  0  0  0  0
   43.0360    7.2560   42.7580 C   0  0  0  0  0  0  0  0  0  0  0  0
   41.9390    8.2280   43.0080 C   0  0  0  0  0  0  0  0  0  0  0  0
   45.2210    7.2030   43.9170 C   0  0  0  0  0  0  0  0  0  0  0  0
   45.6710    8.4080   43.4260 O   0  0  0  0  0  0  0  0  0  0  0  0
   46.3210    6.3450   44.1170 C   0  0  0  0  0  0  0  0  0  0  0  0
   46.9290    5.3420   43.5730 C   0  0  0  0  0  0  0  0  0  0  0  0
   46.5210    4.7330   42.3770 N   0  0  0  0  0  0  0  0  0  0  0  0
   47.2060    3.6770   41.7370 N   0  0  0  0  0  0  0  0  0  0  0  0
   48.3780    3.1810   42.3150 C   0  0  0  0  0  0  0  0  0  0  0  0
   48.9980    2.2390   41.7550 O   0  0  0  0  0  0  0  0  0  0  0  0
   48.8560    3.7800   43.5740 C   0  0  0  0  0  0  0  0  0  0  0  0
   48.1810    4.8140   44.1950 C   0  0  0  0  0  0  0  0  0  0  0  0
   48.6910    5.3080   45.3520 C   0  0  0  0  0  0  0  0  0  0  0  0
   49.8690    4.7710   45.8830 C   0  0  0  0  0  0  0  0  0  0  0  0
   50.5430    3.7440   45.2710 C   0  0  0  0  0  0  0  0  0  0  0  0
   50.0210    3.2460   44.0970 C   0  0  0  0  0  0  0  0  0  0  0  0
   42.9690   11.9060   44.6600 C   0  0  0  0  0  0  0  0  0  0  0  0
   41.8170   12.5270   45.0730 C   0  0  0  0  0  0  0  0  0  0  0  0
   41.8680   13.5500   46.0030 C   0  0  0  0  0  0  0  0  0  0  0  0
   43.0570   13.9850   46.5440 C   0  0  0  0  0  0  0  0  0  0  0  0
   44.2240   13.3620   46.1300 C   0  0  0  0  0  0  0  0  0  0  0  0
   44.1580   12.3320   45.1940 C   0  0  0  0  0  0  0  0  0  0  0  0
   43.0670   15.2860   47.7170 Cl  0  0  0  0  0  0  0  0  0  0  0  0
   43.1730    9.3980   45.8650 H   0  0  0  0  0  0  0  0  0  0  0  0
   41.5440    8.6820   45.8880 H   0  0  0  0  0  0  0  0  0  0  0  0
   42.0480    6.7310   44.9080 H   0  0  0  0  0  0  0  0  0  0  0  0
   43.3440    6.8650   46.0820 H   0  0  0  0  0  0  0  0  0  0  0  0
   42.6650    6.2170   42.7030 H   0  0  0  0  0  0  0  0  0  0  0  0
   43.7020    7.4800   41.9130 H   0  0  0  0  0  0  0  0  0  0  0  0
   41.0300    7.6360   43.3240 H   0  0  0  0  0  0  0  0  0  0  0  0
   41.6170    8.7400   42.0720 H   0  0  0  0  0  0  0  0  0  0  0  0
   46.8570    6.6420   45.1050 H   0  0  0  0  0  0  0  0  0  0  0  0
   45.6520    5.0130   41.9170 H   0  0  0  0  0  0  0  0  0  0  0  0
   46.7980    3.2970   40.8310 H   0  0  0  0  0  0  0  0  0  0  0  0
   48.2180    6.1120   45.8900 H   0  0  0  0  0  0  0  0  0  0  0  0
   50.2350    5.1930   46.7990 H   0  0  0  0  0  0  0  0  0  0  0  0
   51.4580    3.3160   45.6710 H   0  0  0  0  0  0  0  0  0  0  0  0
   50.5150    2.4260   43.5630 H   0  0  0  0  0  0  0  0  0  0  0  0
   40.8330   12.2600   44.7080 H   0  0  0  0  0  0  0  0  0  0  0  0
   40.9580   14.0580   46.3450 H   0  0  0  0  0  0  0  0  0  0  0  0
   45.1700   13.6950   46.5500 H   0  0  0  0  0  0  0  0  0  0  0  0
   45.1290   11.8960   44.9240 H   0  0  0  0  0  0  0  0  0  0  0  0
  1  4  1  0  0  0  0
  1 24  1  0  0  0  0
  2  1  2  0  0  0  0
  3  1  2  0  0  0  0
  4  5  1  0  0  0  0
  5 31  1  0  0  0  0
  5 32  1  0  0  0  0
  6  5  1  0  0  0  0
  6 34  1  0  0  0  0
  7  6  1  0  0  0  0
  8  9  1  0  0  0  0
  8  7  1  0  0  0  0
  9 37  1  0  0  0  0
  9  4  1  0  0  0  0
 10  7  1  0  0  0  0
 10 12  1  0  0  0  0
 11 10  2  0  0  0  0
 12 39  1  0  0  0  0
 13 12  2  0  0  0  0
 13 19  1  0  0  0  0
 14 13  1  0  0  0  0
 15 16  1  0  0  0  0
 15 14  1  0  0  0  0
 16 18  1  0  0  0  0
 17 16  2  0  0  0  0
 18 23  2  0  0  0  0
 18 19  1  0  0  0  0
 19 20  2  0  0  0  0
 20 21  1  0  0  0  0
 20 42  1  0  0  0  0
 21 43  1  0  0  0  0
 22 44  1  0  0  0  0
 22 21  2  0  0  0  0
 23 22  1  0  0  0  0
 24 25  2  0  0  0  0
 24 29  1  0  0  0  0
 25 26  1  0  0  0  0
 26 47  1  0  0  0  0
 26 27  2  0  0  0  0
 27 30  1  0  0  0  0
 28 27  1  0  0  0  0
 28 48  1  0  0  0  0
 29 28  2  0  0  0  0
 33  6  1  0  0  0  0
 35  8  1  0  0  0  0
 36  8  1  0  0  0  0
 38  9  1  0  0  0  0
 40 14  1  0  0  0  0
 41 15  1  0  0  0  0
 45 23  1  0  0  0  0
 46 25  1  0  0  0  0
 49 29  1  0  0  0  0
M  END
>  <Pose>
1

>  <Score>
-6.78

$$$$
