
 OpenBabel03172210433D

 44 47  0  0  0  0  0  0  0  0999 V2000
   44.5050    9.1700   43.1610 Cl  0  0  0  0  0  0  0  0  0  0  0  0
   45.2510    7.6290   43.4480 C   0  0  0  0  0  0  0  0  0  0  0  0
   44.6040    6.6470   44.1540 C   0  0  0  0  0  0  0  0  0  0  0  0
   45.2490    5.4460   44.3490 C   0  0  0  0  0  0  0  0  0  0  0  0
   46.5140    5.1790   43.8710 C   0  0  0  0  0  0  0  0  0  0  0  0
   47.1480    6.1750   43.1650 C   0  0  0  0  0  0  0  0  0  0  0  0
   46.5110    7.3800   42.9650 C   0  0  0  0  0  0  0  0  0  0  0  0
   47.1680    3.9040   44.0910 N   0  0  0  0  0  0  0  0  0  0  0  0
   48.3380    3.6520   43.3240 C   0  0  0  0  0  0  0  0  0  0  0  0
   49.5810    3.3530   44.0280 C   0  0  0  0  0  0  0  0  0  0  0  0
   49.8770    4.2610   44.9260 O   0  0  0  0  0  0  0  0  0  0  0  0
   50.4750    2.3170   43.9250 N   0  0  0  0  0  0  0  0  0  0  0  0
   50.6960    1.5010   42.7740 C   0  0  0  0  0  0  0  0  0  0  0  0
   52.1620    1.6290   42.3680 C   0  0  0  0  0  0  0  0  0  0  0  0
   52.8830    1.0880   43.4560 O   0  0  0  0  0  0  0  0  0  0  0  0
   52.7810    1.9600   44.5180 C   0  0  0  0  0  0  0  0  0  0  0  0
   51.3510    1.9850   45.0690 C   0  0  0  0  0  0  0  0  0  0  0  0
   43.3170    6.8250   44.6910 N   0  0  0  0  0  0  0  0  0  0  0  0
   42.2920    6.0300   44.4580 N   0  0  0  0  0  0  0  0  0  0  0  0
   41.2290    6.4570   45.1130 N   0  0  0  0  0  0  0  0  0  0  0  0
   41.6030    7.5390   45.7630 N   0  0  0  0  0  0  0  0  0  0  0  0
   42.9230    7.7900   45.5110 C   0  0  0  0  0  0  0  0  0  0  0  0
   43.6290    8.9350   46.0840 C   0  0  0  0  0  0  0  0  0  0  0  0
   43.0140   10.1810   46.5230 C   0  0  0  0  0  0  0  0  0  0  0  0
   43.3840    9.1540   47.6060 C   0  0  0  0  0  0  0  0  0  0  0  0
   44.7490    4.6400   44.9150 H   0  0  0  0  0  0  0  0  0  0  0  0
   48.1450    5.9600   42.7890 H   0  0  0  0  0  0  0  0  0  0  0  0
   47.0640    8.1400   42.3940 H   0  0  0  0  0  0  0  0  0  0  0  0
   46.8010    3.2260   44.7660 H   0  0  0  0  0  0  0  0  0  0  0  0
   48.5360    4.5960   42.7250 H   0  0  0  0  0  0  0  0  0  0  0  0
   48.1440    2.8940   42.5110 H   0  0  0  0  0  0  0  0  0  0  0  0
   50.6570    0.4220   43.1910 H   0  0  0  0  0  0  0  0  0  0  0  0
   49.9860    1.5470   41.9660 H   0  0  0  0  0  0  0  0  0  0  0  0
   52.3360    1.0880   41.4380 H   0  0  0  0  0  0  0  0  0  0  0  0
   52.5000    2.6600   42.2690 H   0  0  0  0  0  0  0  0  0  0  0  0
   53.0820    2.9760   44.1920 H   0  0  0  0  0  0  0  0  0  0  0  0
   53.4610    1.6630   45.3250 H   0  0  0  0  0  0  0  0  0  0  0  0
   51.2680    2.7040   45.8790 H   0  0  0  0  0  0  0  0  0  0  0  0
   51.1030    0.9370   45.3320 H   0  0  0  0  0  0  0  0  0  0  0  0
   44.7470    8.9920   45.8840 H   0  0  0  0  0  0  0  0  0  0  0  0
   43.6420   11.1230   46.4860 H   0  0  0  0  0  0  0  0  0  0  0  0
   41.9550   10.4240   46.5530 H   0  0  0  0  0  0  0  0  0  0  0  0
   44.2320    9.4640   48.2300 H   0  0  0  0  0  0  0  0  0  0  0  0
   42.6070    8.5620   48.0840 H   0  0  0  0  0  0  0  0  0  0  0  0
  1  2  1  0  0  0  0
  2  3  1  0  0  0  0
  3  4  2  0  0  0  0
  3 18  1  0  0  0  0
  4 26  1  0  0  0  0
  5  8  1  0  0  0  0
  5  4  1  0  0  0  0
  6  5  2  0  0  0  0
  7  6  1  0  0  0  0
  7  2  2  0  0  0  0
  8 29  1  0  0  0  0
  9 10  1  0  0  0  0
  9  8  1  0  0  0  0
 10 11  2  0  0  0  0
 12 10  1  0  0  0  0
 12 17  1  0  0  0  0
 13 32  1  0  0  0  0
 13 12  1  0  0  0  0
 14 13  1  0  0  0  0
 14 15  1  0  0  0  0
 15 16  1  0  0  0  0
 16 17  1  0  0  0  0
 16 37  1  0  0  0  0
 17 39  1  0  0  0  0
 17 38  1  0  0  0  0
 18 22  1  0  0  0  0
 19 18  1  0  0  0  0
 19 20  2  0  0  0  0
 20 21  1  0  0  0  0
 22 21  2  0  0  0  0
 22 23  1  0  0  0  0
 23 24  1  0  0  0  0
 23 25  1  0  0  0  0
 24 42  1  0  0  0  0
 24 25  1  0  0  0  0
 25 44  1  0  0  0  0
 25 43  1  0  0  0  0
 27  6  1  0  0  0  0
 28  7  1  0  0  0  0
 30  9  1  0  0  0  0
 31  9  1  0  0  0  0
 33 13  1  0  0  0  0
 34 14  1  0  0  0  0
 35 14  1  0  0  0  0
 36 16  1  0  0  0  0
 40 23  1  0  0  0  0
 41 24  1  0  0  0  0
M  END
>  <Pose>
1

>  <Score>
-5.87

$$$$
