
 OpenBabel03172210433D

 49 52  0  0  1  0  0  0  0  0999 V2000
   53.8670   -1.5020   44.8800 B   0  0  0  0  0  0  0  0  0  0  0  0
   52.4790   -0.2690   44.4230 C   0  0  0  0  0  0  0  0  0  0  0  0
   51.6170    0.2330   45.3710 C   0  0  0  0  0  0  0  0  0  0  0  0
   50.6040    1.1290   45.0510 C   0  0  0  0  0  0  0  0  0  0  0  0
   50.4330    1.5480   43.7480 C   0  0  0  0  0  0  0  0  0  0  0  0
   51.3020    1.0420   42.7960 C   0  0  0  0  0  0  0  0  0  0  0  0
   52.3080    0.1520   43.1130 C   0  0  0  0  0  0  0  0  0  0  0  0
   49.4010    2.4790   43.3430 C   0  0  0  0  0  0  0  0  0  0  0  0
   48.6620    2.2890   42.1790 C   0  0  0  0  0  0  0  0  0  0  0  0
   47.7230    3.1210   41.7950 O   0  0  0  0  0  0  0  0  0  0  0  0
   47.4020    4.1950   42.4760 C   0  0  0  0  0  0  0  0  0  0  0  0
   48.0780    4.4670   43.6420 C   0  0  0  0  0  0  0  0  0  0  0  0
   47.7090    5.6030   44.3220 C   0  0  0  0  0  0  0  0  0  0  0  0
   46.7200    6.4520   43.8940 C   0  0  0  0  0  0  0  0  0  0  0  0
   46.0160    6.1920   42.7000 C   0  0  0  0  0  0  0  0  0  0  0  0
   46.3900    5.0540   42.0260 C   0  0  0  0  0  0  0  0  0  0  0  0
   45.0290    7.0700   42.3040 O   0  0  0  0  0  0  0  0  0  0  0  0
   44.0210    7.5650   43.0790 C   0  0  2  0  0  0  0  0  0  0  0  0
   44.2980    8.8560   43.6010 O   0  0  0  0  0  0  0  0  0  0  0  0
   43.0680    9.4120   43.8800 C   0  0  1  0  0  0  0  0  0  0  0  0
   42.2930    8.7030   44.9460 C   0  0  2  0  0  0  0  0  0  0  0  0
   42.3500    7.2010   44.7980 C   0  0  1  0  0  0  0  0  0  0  0  0
   43.7040    6.7330   44.3080 C   0  0  1  0  0  0  0  0  0  0  0  0
   43.6060    5.3810   44.0020 O   0  0  0  0  0  0  0  0  0  0  0  0
   41.9840    6.6020   45.9960 O   0  0  0  0  0  0  0  0  0  0  0  0
   40.9470    9.0690   44.7920 O   0  0  0  0  0  0  0  0  0  0  0  0
   43.1450   10.8840   44.1970 C   0  0  0  0  0  0  0  0  0  0  0  0
   43.7670   11.6070   43.1810 O   0  0  0  0  0  0  0  0  0  0  0  0
   49.0710    3.6150   44.0740 C   0  0  0  0  0  0  0  0  0  0  0  0
   49.6900    3.8630   45.1430 O   0  0  0  0  0  0  0  0  0  0  0  0
   51.7360   -0.0860   46.4050 H   0  0  0  0  0  0  0  0  0  0  0  0
   49.9300    1.5220   45.7870 H   0  0  0  0  0  0  0  0  0  0  0  0
   51.1680    1.3730   41.7640 H   0  0  0  0  0  0  0  0  0  0  0  0
   52.9880   -0.2440   42.3670 H   0  0  0  0  0  0  0  0  0  0  0  0
   48.9240    1.3950   41.6060 H   0  0  0  0  0  0  0  0  0  0  0  0
   48.2550    5.8040   45.2460 H   0  0  0  0  0  0  0  0  0  0  0  0
   46.4360    7.3450   44.4350 H   0  0  0  0  0  0  0  0  0  0  0  0
   45.8920    4.8000   41.1100 H   0  0  0  0  0  0  0  0  0  0  0  0
   43.0750    7.6430   42.5170 H   0  0  0  0  0  0  0  0  0  0  0  0
   42.4620    9.3320   42.9340 H   0  0  0  0  0  0  0  0  0  0  0  0
   42.5930    9.0150   45.9790 H   0  0  0  0  0  0  0  0  0  0  0  0
   41.6150    6.9040   44.0230 H   0  0  0  0  0  0  0  0  0  0  0  0
   44.5140    6.9240   45.0440 H   0  0  0  0  0  0  0  0  0  0  0  0
   42.7680    5.0000   44.3570 H   0  0  0  0  0  0  0  0  0  0  0  0
   41.1660    6.0240   45.8960 H   0  0  0  0  0  0  0  0  0  0  0  0
   40.3500    8.3180   45.0350 H   0  0  0  0  0  0  0  0  0  0  0  0
   43.6230   11.0650   45.1800 H   0  0  0  0  0  0  0  0  0  0  0  0
   42.1130   11.3200   44.2890 H   0  0  0  0  0  0  0  0  0  0  0  0
   44.5870   11.0730   42.9390 H   0  0  0  0  0  0  0  0  0  0  0  0
  2  1  1  0  0  0  0
  2  3  1  0  0  0  0
  3 31  1  0  0  0  0
  4  3  2  0  0  0  0
  4 32  1  0  0  0  0
  5  4  1  0  0  0  0
  6  7  1  0  0  0  0
  6  5  2  0  0  0  0
  7  2  2  0  0  0  0
  8  5  1  0  0  0  0
  8 29  1  0  0  0  0
  9  8  2  0  0  0  0
 10  9  1  0  0  0  0
 10 11  1  0  0  0  0
 11 12  1  0  0  0  0
 12 29  1  0  0  0  0
 12 13  2  0  0  0  0
 13 36  1  0  0  0  0
 14 13  1  0  0  0  0
 14 37  1  0  0  0  0
 15 14  2  0  0  0  0
 16 11  2  0  0  0  0
 16 15  1  0  0  0  0
 17 15  1  0  0  0  0
 17 18  1  0  0  0  0
 18 39  1  6  0  0  0
 18 19  1  0  0  0  0
 18 23  1  0  0  0  0
 19 20  1  0  0  0  0
 20 40  1  6  0  0  0
 20 27  1  0  0  0  0
 20 21  1  0  0  0  0
 21 41  1  1  0  0  0
 22 42  1  6  0  0  0
 22 21  1  0  0  0  0
 22 25  1  0  0  0  0
 23 22  1  0  0  0  0
 23 43  1  1  0  0  0
 24 23  1  0  0  0  0
 24 44  1  0  0  0  0
 26 21  1  0  0  0  0
 26 46  1  0  0  0  0
 27 48  1  0  0  0  0
 27 47  1  0  0  0  0
 28 27  1  0  0  0  0
 29 30  2  0  0  0  0
 33  6  1  0  0  0  0
 34  7  1  0  0  0  0
 35  9  1  0  0  0  0
 38 16  1  0  0  0  0
 45 25  1  0  0  0  0
 49 28  1  0  0  0  0
M  END
>  <Pose>
1

>  <Score>
-6.72

$$$$
