
 OpenBabel03172210433D

 45 48  0  0  0  0  0  0  0  0999 V2000
   41.0990    9.9650   43.4450 S   0  0  0  0  0  0  0  0  0  0  0  0
   41.4540    9.9320   41.9750 O   0  0  0  0  0  0  0  0  0  0  0  0
   39.6500   10.2580   43.5550 O   0  0  0  0  0  0  0  0  0  0  0  0
   41.5000    8.4390   44.1370 N   0  0  0  0  0  0  0  0  0  0  0  0
   42.0440    8.6410   45.4300 C   0  0  0  0  0  0  0  0  0  0  0  0
   43.3480    7.9670   45.7480 C   0  0  0  0  0  0  0  0  0  0  0  0
   44.1340    7.8840   44.5610 N   0  0  0  0  0  0  0  0  0  0  0  0
   43.4190    6.9750   43.6660 C   0  0  0  0  0  0  0  0  0  0  0  0
   42.1860    7.6550   43.1990 C   0  0  0  0  0  0  0  0  0  0  0  0
   45.4800    7.4670   44.7520 C   0  0  0  0  0  0  0  0  0  0  0  0
   46.2150    7.3410   43.4610 C   0  0  0  0  0  0  0  0  0  0  0  0
   46.9920    6.1210   43.3840 N   0  0  0  0  0  0  0  0  0  0  0  0
   47.8610    5.6590   44.2820 N   0  0  0  0  0  0  0  0  0  0  0  0
   48.3780    4.4920   43.8740 C   0  0  0  0  0  0  0  0  0  0  0  0
   47.8240    4.2070   42.6890 N   0  0  0  0  0  0  0  0  0  0  0  0
   48.1500    3.0790   42.0140 C   0  0  0  0  0  0  0  0  0  0  0  0
   49.0590    2.1690   42.5040 C   0  0  0  0  0  0  0  0  0  0  0  0
   49.6460    2.4370   43.7260 C   0  0  0  0  0  0  0  0  0  0  0  0
   49.2940    3.5930   44.3880 C   0  0  0  0  0  0  0  0  0  0  0  0
   46.9650    5.2270   42.3950 C   0  0  0  0  0  0  0  0  0  0  0  0
   46.2990    5.2350   41.3330 O   0  0  0  0  0  0  0  0  0  0  0  0
   41.9810   11.2600   44.2690 C   0  0  0  0  0  0  0  0  0  0  0  0
   43.6570   11.5720   44.3060 S   0  0  0  0  0  0  0  0  0  0  0  0
   43.6570   12.9600   45.2910 C   0  0  0  0  0  0  0  0  0  0  0  0
   42.3290   13.1450   45.5680 C   0  0  0  0  0  0  0  0  0  0  0  0
   41.4650   12.2690   45.0410 C   0  0  0  0  0  0  0  0  0  0  0  0
   45.1420   14.0340   45.8890 B   0  0  0  0  0  0  0  0  0  0  0  0
   42.2340    9.7540   45.5480 H   0  0  0  0  0  0  0  0  0  0  0  0
   41.2530    8.3430   46.1850 H   0  0  0  0  0  0  0  0  0  0  0  0
   43.8070    8.5480   46.5750 H   0  0  0  0  0  0  0  0  0  0  0  0
   43.0610    6.9350   46.1110 H   0  0  0  0  0  0  0  0  0  0  0  0
   44.0300    6.6820   42.8030 H   0  0  0  0  0  0  0  0  0  0  0  0
   43.1170    6.1120   44.3050 H   0  0  0  0  0  0  0  0  0  0  0  0
   42.4690    8.2600   42.2890 H   0  0  0  0  0  0  0  0  0  0  0  0
   41.4840    6.8480   42.8430 H   0  0  0  0  0  0  0  0  0  0  0  0
   46.0630    8.1920   45.4000 H   0  0  0  0  0  0  0  0  0  0  0  0
   45.4730    6.4680   45.2760 H   0  0  0  0  0  0  0  0  0  0  0  0
   45.4630    7.2870   42.6240 H   0  0  0  0  0  0  0  0  0  0  0  0
   46.9120    8.2030   43.2820 H   0  0  0  0  0  0  0  0  0  0  0  0
   47.6860    2.8710   41.0540 H   0  0  0  0  0  0  0  0  0  0  0  0
   49.3300    1.2640   41.9800 H   0  0  0  0  0  0  0  0  0  0  0  0
   50.3680    1.7260   44.1260 H   0  0  0  0  0  0  0  0  0  0  0  0
   49.7590    3.7910   45.3380 H   0  0  0  0  0  0  0  0  0  0  0  0
   42.0190   14.0000   46.2080 H   0  0  0  0  0  0  0  0  0  0  0  0
   40.3620   12.3340   45.2090 H   0  0  0  0  0  0  0  0  0  0  0  0
  1  3  2  0  0  0  0
  1  4  1  0  0  0  0
  1 22  1  0  0  0  0
  2  1  2  0  0  0  0
  4  5  1  0  0  0  0
  5 28  1  0  0  0  0
  5  6  1  0  0  0  0
  5 29  1  0  0  0  0
  6 31  1  0  0  0  0
  6 30  1  0  0  0  0
  7 10  1  0  0  0  0
  7  6  1  0  0  0  0
  8 33  1  0  0  0  0
  8  7  1  0  0  0  0
  9  8  1  0  0  0  0
  9  4  1  0  0  0  0
 10 37  1  0  0  0  0
 10 36  1  0  0  0  0
 11 10  1  0  0  0  0
 12 11  1  0  0  0  0
 12 13  1  0  0  0  0
 14 13  2  0  0  0  0
 14 19  1  0  0  0  0
 15 14  1  0  0  0  0
 16 17  2  0  0  0  0
 16 15  1  0  0  0  0
 17 18  1  0  0  0  0
 18 42  1  0  0  0  0
 18 19  2  0  0  0  0
 19 43  1  0  0  0  0
 20 15  1  0  0  0  0
 20 12  1  0  0  0  0
 21 20  2  0  0  0  0
 22 23  1  0  0  0  0
 22 26  2  0  0  0  0
 23 24  1  0  0  0  0
 24 25  2  0  0  0  0
 24 27  1  0  0  0  0
 25 44  1  0  0  0  0
 26 45  1  0  0  0  0
 26 25  1  0  0  0  0
 32  8  1  0  0  0  0
 34  9  1  0  0  0  0
 35  9  1  0  0  0  0
 38 11  1  0  0  0  0
 39 11  1  0  0  0  0
 40 16  1  0  0  0  0
 41 17  1  0  0  0  0
M  END
>  <Pose>
1

>  <Score>
-6.43

$$$$
