
 OpenBabel03172210433D

 52 55  0  0  0  0  0  0  0  0999 V2000
   50.8450    1.7560   42.9520 Cl  0  0  0  0  0  0  0  0  0  0  0  0
   49.5670    2.9580   43.2560 C   0  0  0  0  0  0  0  0  0  0  0  0
   49.5310    3.7420   44.4040 C   0  0  0  0  0  0  0  0  0  0  0  0
   48.4930    4.6210   44.6610 C   0  0  0  0  0  0  0  0  0  0  0  0
   47.4290    4.7380   43.7470 C   0  0  0  0  0  0  0  0  0  0  0  0
   47.4940    3.9700   42.6390 C   0  0  0  0  0  0  0  0  0  0  0  0
   48.5190    3.0840   42.3610 C   0  0  0  0  0  0  0  0  0  0  0  0
   46.3320    5.6540   44.1200 C   0  0  0  0  0  0  0  0  0  0  0  0
   45.0120    5.2770   44.0230 C   0  0  0  0  0  0  0  0  0  0  0  0
   44.0190    6.2310   44.2820 C   0  0  0  0  0  0  0  0  0  0  0  0
   44.3390    7.5240   44.6330 C   0  0  0  0  0  0  0  0  0  0  0  0
   43.4230    8.5410   44.9060 C   0  0  0  0  0  0  0  0  0  0  0  0
   42.0730    8.1300   44.7800 C   0  0  0  0  0  0  0  0  0  0  0  0
   41.7080    6.8350   44.4230 C   0  0  0  0  0  0  0  0  0  0  0  0
   42.6940    5.8940   44.1730 C   0  0  0  0  0  0  0  0  0  0  0  0
   41.0070    8.9810   45.0010 O   0  0  0  0  0  0  0  0  0  0  0  0
   43.6740    9.9240   45.1140 C   0  0  0  0  0  0  0  0  0  0  0  0
   44.2580   10.8090   44.1390 N   0  0  0  0  0  4  0  0  0  0  0  0
   43.3490   11.0220   42.9780 C   0  0  0  0  0  0  0  0  0  0  0  0
   41.9460   11.1550   43.4520 C   0  0  0  0  0  0  0  0  0  0  0  0
   41.7000   12.2580   44.3530 N   0  0  0  0  0  0  0  0  0  0  0  0
   42.8420   12.6130   45.1250 C   0  0  0  0  0  0  0  0  0  0  0  0
   44.1730   12.1900   44.7140 C   0  0  0  0  0  0  0  0  0  0  0  0
   40.5640   11.9510   45.2350 C   0  0  0  0  0  0  0  0  0  0  0  0
   39.2350   12.1890   44.5560 C   0  0  0  0  0  0  0  0  0  0  0  0
   38.3250   11.1680   44.7850 O   0  0  0  0  0  0  0  0  0  0  0  0
   45.5710    7.8280   44.7110 O   0  0  0  0  0  0  0  0  0  0  0  0
   46.5880    6.9920   44.4810 C   0  0  0  0  0  0  0  0  0  0  0  0
   47.7650    7.3560   44.5830 O   0  0  0  0  0  0  0  0  0  0  0  0
   50.3470    3.6260   45.0950 H   0  0  0  0  0  0  0  0  0  0  0  0
   48.4810    5.2180   45.5640 H   0  0  0  0  0  0  0  0  0  0  0  0
   46.7190    4.0080   41.8820 H   0  0  0  0  0  0  0  0  0  0  0  0
   48.5290    2.4930   41.4580 H   0  0  0  0  0  0  0  0  0  0  0  0
   44.7130    4.2780   43.7590 H   0  0  0  0  0  0  0  0  0  0  0  0
   40.6970    6.5090   44.3720 H   0  0  0  0  0  0  0  0  0  0  0  0
   42.4110    4.8750   43.8430 H   0  0  0  0  0  0  0  0  0  0  0  0
   44.6670    9.8560   45.8260 H   0  0  0  0  0  0  0  0  0  0  0  0
   43.0440   10.3840   45.8380 H   0  0  0  0  0  0  0  0  0  0  0  0
   45.2080   10.7040   43.8650 H   0  0  0  0  0  0  0  0  0  0  0  0
   43.4990   10.3430   42.1610 H   0  0  0  0  0  0  0  0  0  0  0  0
   43.6590   12.0500   42.5620 H   0  0  0  0  0  0  0  0  0  0  0  0
   41.5660   10.2160   43.8710 H   0  0  0  0  0  0  0  0  0  0  0  0
   41.3350   11.3670   42.5280 H   0  0  0  0  0  0  0  0  0  0  0  0
   42.6370   12.3470   46.1870 H   0  0  0  0  0  0  0  0  0  0  0  0
   42.8750   13.7650   45.1550 H   0  0  0  0  0  0  0  0  0  0  0  0
   44.9050   12.2120   45.5540 H   0  0  0  0  0  0  0  0  0  0  0  0
   44.5200   12.8810   43.8840 H   0  0  0  0  0  0  0  0  0  0  0  0
   40.6620   12.5980   46.1100 H   0  0  0  0  0  0  0  0  0  0  0  0
   40.5550   10.8970   45.5800 H   0  0  0  0  0  0  0  0  0  0  0  0
   39.2960   12.5060   43.5220 H   0  0  0  0  0  0  0  0  0  0  0  0
   38.8300   13.1160   45.0960 H   0  0  0  0  0  0  0  0  0  0  0  0
   37.9200   10.9050   43.8980 H   0  0  0  0  0  0  0  0  0  0  0  0
  1  2  1  0  0  0  0
  2  3  1  0  0  0  0
  3  4  2  0  0  0  0
  3 30  1  0  0  0  0
  4 31  1  0  0  0  0
  5  8  1  0  0  0  0
  5  4  1  0  0  0  0
  6  5  2  0  0  0  0
  7  6  1  0  0  0  0
  7  2  2  0  0  0  0
  8 28  1  0  0  0  0
  9  8  2  0  0  0  0
  9 10  1  0  0  0  0
 10 11  1  0  0  0  0
 11 27  1  0  0  0  0
 11 12  2  0  0  0  0
 12 17  1  0  0  0  0
 13 12  1  0  0  0  0
 13 16  1  0  0  0  0
 14 13  2  0  0  0  0
 15 10  2  0  0  0  0
 15 14  1  0  0  0  0
 17 37  1  0  0  0  0
 17 38  1  0  0  0  0
 18 23  1  0  0  0  0
 18 17  1  0  0  0  0
 19 20  1  0  0  0  0
 19 18  1  0  0  0  0
 20 42  1  0  0  0  0
 20 21  1  0  0  0  0
 21 22  1  0  0  0  0
 21 24  1  0  0  0  0
 22 45  1  0  0  0  0
 22 44  1  0  0  0  0
 23 22  1  0  0  0  0
 23 46  1  0  0  0  0
 24 49  1  0  0  0  0
 24 48  1  0  0  0  0
 25 26  1  0  0  0  0
 25 51  1  0  0  0  0
 25 24  1  0  0  0  0
 28 29  2  0  0  0  0
 28 27  1  0  0  0  0
 32  6  1  0  0  0  0
 33  7  1  0  0  0  0
 34  9  1  0  0  0  0
 35 14  1  0  0  0  0
 36 15  1  0  0  0  0
 39 18  1  0  0  0  0
 40 19  1  0  0  0  0
 41 19  1  0  0  0  0
 43 20  1  0  0  0  0
 47 23  1  0  0  0  0
 50 25  1  0  0  0  0
 52 26  1  0  0  0  0
M  END
>  <Pose>
1

>  <Score>
-5.73

$$$$
