
 OpenBabel03172210433D

 54 57  0  0  0  0  0  0  0  0999 V2000
   35.5460   10.8320   45.2590 B   0  0  0  0  0  0  0  0  0  0  0  0
   37.3620   10.8260   45.8430 C   0  0  0  0  0  0  0  0  0  0  0  0
   38.3820   10.4780   44.9860 C   0  0  0  0  0  0  0  0  0  0  0  0
   39.7050   10.4780   45.4310 C   0  0  0  0  0  0  0  0  0  0  0  0
   39.9690   10.8260   46.7230 C   0  0  0  0  0  0  0  0  0  0  0  0
   38.9680   11.1730   47.5850 C   0  0  0  0  0  0  0  0  0  0  0  0
   37.6670   11.1740   47.1480 C   0  0  0  0  0  0  0  0  0  0  0  0
   41.4180   10.7740   47.1710 C   0  0  0  0  0  0  0  0  0  0  0  0
   42.2720   10.2860   46.1180 N   0  0  0  0  0  0  0  0  0  0  0  0
   42.3610    8.9650   45.7540 C   0  0  0  0  0  0  0  0  0  0  0  0
   43.2880    8.8280   44.7400 C   0  0  0  0  0  0  0  0  0  0  0  0
   43.7410   10.0630   44.5080 N   0  0  0  0  0  0  0  0  0  0  0  0
   43.1230   10.9570   45.3430 C   0  0  0  0  0  0  0  0  0  0  0  0
   43.3460   12.3400   45.2390 N   0  0  0  0  0  0  0  0  0  0  0  0
   44.5410   13.0520   44.9570 C   0  0  0  0  0  0  0  0  0  0  0  0
   44.5410   14.4530   45.5800 C   0  0  0  0  0  0  0  0  0  0  0  0
   43.7090   14.6210   46.6990 N   0  0  0  0  0  0  0  0  0  0  0  0
   42.3910   14.1300   46.6080 C   0  0  0  0  0  0  0  0  0  0  0  0
   42.1580   13.2160   45.4280 C   0  0  0  0  0  0  0  0  0  0  0  0
   44.2670   14.8530   47.9670 C   0  0  0  0  0  0  0  0  0  0  0  0
   45.2090   13.8510   48.4880 C   0  0  0  0  0  0  0  0  0  0  0  0
   46.2750   14.1640   49.0810 O   0  0  0  0  0  0  0  0  0  0  0  0
   44.9360   12.5090   48.3320 O   0  0  0  0  0  0  0  0  0  0  0  0
   45.8430   11.5060   48.6960 C   0  0  0  0  0  0  0  0  0  0  0  0
   43.5540    7.6220   44.2010 N   0  0  0  0  0  0  0  0  0  0  0  0
   42.8920    6.5560   44.6740 C   0  0  0  0  0  0  0  0  0  0  0  0
   43.1480    5.4370   44.1630 O   0  0  0  0  0  0  0  0  0  0  0  0
   41.9850    6.6500   45.6520 N   0  0  0  0  0  0  0  0  0  0  0  0
   41.6900    7.8560   46.2240 C   0  0  0  0  0  0  0  0  0  0  0  0
   40.8330    7.9100   47.1380 O   0  0  0  0  0  0  0  0  0  0  0  0
   44.5400    7.5210   43.1410 C   0  0  0  0  0  0  0  0  0  0  0  0
   38.1900   10.1950   43.9470 H   0  0  0  0  0  0  0  0  0  0  0  0
   40.4810   10.1980   44.7070 H   0  0  0  0  0  0  0  0  0  0  0  0
   39.1810   11.4340   48.6050 H   0  0  0  0  0  0  0  0  0  0  0  0
   36.8820   11.4500   47.8350 H   0  0  0  0  0  0  0  0  0  0  0  0
   41.3700   10.1590   48.0670 H   0  0  0  0  0  0  0  0  0  0  0  0
   41.7000   11.8300   47.4260 H   0  0  0  0  0  0  0  0  0  0  0  0
   45.4660   12.5820   45.3830 H   0  0  0  0  0  0  0  0  0  0  0  0
   44.6080   13.2390   43.8680 H   0  0  0  0  0  0  0  0  0  0  0  0
   45.5830   14.7690   45.8520 H   0  0  0  0  0  0  0  0  0  0  0  0
   44.2250   15.2310   44.8200 H   0  0  0  0  0  0  0  0  0  0  0  0
   41.7090   15.0070   46.4600 H   0  0  0  0  0  0  0  0  0  0  0  0
   42.0870   13.6630   47.5590 H   0  0  0  0  0  0  0  0  0  0  0  0
   42.0650   13.7730   44.4740 H   0  0  0  0  0  0  0  0  0  0  0  0
   41.2560   12.6230   45.6250 H   0  0  0  0  0  0  0  0  0  0  0  0
   43.4760   15.1200   48.7110 H   0  0  0  0  0  0  0  0  0  0  0  0
   44.8700   15.8110   47.8880 H   0  0  0  0  0  0  0  0  0  0  0  0
   46.3860   11.1120   47.8040 H   0  0  0  0  0  0  0  0  0  0  0  0
   45.2220   10.6470   49.0820 H   0  0  0  0  0  0  0  0  0  0  0  0
   46.6060   11.8190   49.4340 H   0  0  0  0  0  0  0  0  0  0  0  0
   41.4730    5.8030   46.0090 H   0  0  0  0  0  0  0  0  0  0  0  0
   44.1710    8.1350   42.2930 H   0  0  0  0  0  0  0  0  0  0  0  0
   45.5140    7.9760   43.4560 H   0  0  0  0  0  0  0  0  0  0  0  0
   44.7110    6.4650   42.9010 H   0  0  0  0  0  0  0  0  0  0  0  0
  1  2  1  0  0  0  0
  2  7  1  0  0  0  0
  3  4  1  0  0  0  0
  3  2  2  0  0  0  0
  4  5  2  0  0  0  0
  5  8  1  0  0  0  0
  5  6  1  0  0  0  0
  6 34  1  0  0  0  0
  7  6  2  0  0  0  0
  7 35  1  0  0  0  0
  8 37  1  0  0  0  0
  8 36  1  0  0  0  0
  9  8  1  0  0  0  0
 10  9  1  0  0  0  0
 10 29  1  0  0  0  0
 11 10  2  0  0  0  0
 12 11  1  0  0  0  0
 12 13  2  0  0  0  0
 13  9  1  0  0  0  0
 14 13  1  0  0  0  0
 14 19  1  0  0  0  0
 15 14  1  0  0  0  0
 15 38  1  0  0  0  0
 15 16  1  0  0  0  0
 16 40  1  0  0  0  0
 16 17  1  0  0  0  0
 17 20  1  0  0  0  0
 18 17  1  0  0  0  0
 18 43  1  0  0  0  0
 19 45  1  0  0  0  0
 19 18  1  0  0  0  0
 20 21  1  0  0  0  0
 20 46  1  0  0  0  0
 21 22  2  0  0  0  0
 23 21  1  0  0  0  0
 23 24  1  0  0  0  0
 24 49  1  0  0  0  0
 24 50  1  0  0  0  0
 25 26  1  0  0  0  0
 25 11  1  0  0  0  0
 26 28  1  0  0  0  0
 27 26  2  0  0  0  0
 28 51  1  0  0  0  0
 28 29  1  0  0  0  0
 29 30  2  0  0  0  0
 31 53  1  0  0  0  0
 31 25  1  0  0  0  0
 32  3  1  0  0  0  0
 33  4  1  0  0  0  0
 39 15  1  0  0  0  0
 41 16  1  0  0  0  0
 42 18  1  0  0  0  0
 44 19  1  0  0  0  0
 47 20  1  0  0  0  0
 48 24  1  0  0  0  0
 52 31  1  0  0  0  0
 54 31  1  0  0  0  0
M  END
>  <Pose>
1

>  <Score>
-5.31

$$$$
