
 OpenBabel03172210433D

 36 39  0  0  1  0  0  0  0  0999 V2000
   46.8750    4.5200   43.6990 Cl  0  0  0  0  0  0  0  0  0  0  0  0
   45.7860    5.8880   43.5540 C   0  0  0  0  0  0  0  0  0  0  0  0
   44.5130    5.8340   44.0830 C   0  0  0  0  0  0  0  0  0  0  0  0
   43.6600    6.9180   43.9630 C   0  0  0  0  0  0  0  0  0  0  0  0
   44.0220    8.0870   43.3270 C   0  0  0  0  0  0  0  0  0  0  0  0
   45.3040    8.1320   42.7980 C   0  0  0  0  0  0  0  0  0  0  0  0
   46.1590    7.0530   42.9160 C   0  0  0  0  0  0  0  0  0  0  0  0
   43.1500    9.2110   43.1980 N   0  0  0  0  0  0  0  0  0  0  0  0
   41.8470    9.2560   42.5970 C   0  0  0  0  0  0  0  0  0  0  0  0
   41.2560    8.3000   42.0360 O   0  0  0  0  0  0  0  0  0  0  0  0
   41.2780   10.6170   42.7280 C   0  0  1  0  0  0  0  0  0  0  0  0
   39.9960   10.6110   43.2660 O   0  0  0  0  0  0  0  0  0  0  0  0
   40.0780   10.1920   44.5180 N   0  0  1  0  0  0  0  0  0  0  0  0
   41.3510   10.4170   45.0460 C   0  0  1  0  0  0  0  0  0  0  0  0
   42.0780   11.1450   43.9140 C   0  0  1  0  0  0  0  0  0  0  0  0
   43.4060   10.5400   43.6510 C   0  0  0  0  0  0  0  0  0  0  0  0
   44.5630   11.0400   43.7800 O   0  0  0  0  0  0  0  0  0  0  0  0
   41.4870   11.0960   46.3420 C   0  0  0  0  0  0  0  0  0  0  0  0
   40.2530   11.4560   47.0710 C   0  0  0  0  0  0  0  0  0  0  0  0
   39.2010   10.4030   46.7990 C   0  0  0  0  0  0  0  0  0  0  0  0
   38.9460   10.4290   45.3140 C   0  0  0  0  0  0  0  0  0  0  0  0
   44.1750    4.9260   44.6000 H   0  0  0  0  0  0  0  0  0  0  0  0
   42.6640    6.8820   44.3740 H   0  0  0  0  0  0  0  0  0  0  0  0
   45.5960    9.0500   42.2960 H   0  0  0  0  0  0  0  0  0  0  0  0
   47.1540    7.0870   42.5060 H   0  0  0  0  0  0  0  0  0  0  0  0
   41.3760   11.2360   41.8410 H   0  0  0  0  0  0  0  0  0  0  0  0
   41.8730    9.4150   45.1170 H   0  0  0  0  0  0  0  0  0  0  0  0
   42.0730   12.2210   44.0040 H   0  0  0  0  0  0  0  0  0  0  0  0
   42.0670   12.0530   46.1760 H   0  0  0  0  0  0  0  0  0  0  0  0
   42.1520   10.5220   47.0550 H   0  0  0  0  0  0  0  0  0  0  0  0
   40.4320   11.4460   48.1730 H   0  0  0  0  0  0  0  0  0  0  0  0
   39.8120   12.4340   46.7940 H   0  0  0  0  0  0  0  0  0  0  0  0
   38.2720   10.7260   47.3090 H   0  0  0  0  0  0  0  0  0  0  0  0
   39.4790    9.4150   47.1750 H   0  0  0  0  0  0  0  0  0  0  0  0
   38.4320   11.3950   45.0790 H   0  0  0  0  0  0  0  0  0  0  0  0
   38.1770    9.6330   45.1080 H   0  0  0  0  0  0  0  0  0  0  0  0
  2  1  1  0  0  0  0
  2  3  1  0  0  0  0
  3 22  1  0  0  0  0
  4  3  2  0  0  0  0
  4 23  1  0  0  0  0
  5  4  1  0  0  0  0
  6  7  1  0  0  0  0
  6  5  2  0  0  0  0
  7  2  2  0  0  0  0
  8  5  1  0  0  0  0
  8 16  1  0  0  0  0
  9 11  1  0  0  0  0
  9  8  1  0  0  0  0
 10  9  2  0  0  0  0
 11 26  1  6  0  0  0
 11 12  1  0  0  0  0
 11 15  1  0  0  0  0
 13 12  1  6  0  0  0
 13 14  1  0  0  0  0
 13 21  1  0  0  0  0
 14 27  1  1  0  0  0
 14 18  1  0  0  0  0
 15 28  1  1  0  0  0
 15 14  1  0  0  0  0
 16 17  2  0  0  0  0
 16 15  1  0  0  0  0
 18 30  1  0  0  0  0
 18 19  1  0  0  0  0
 19 31  1  0  0  0  0
 20 19  1  0  0  0  0
 20 34  1  0  0  0  0
 20 33  1  0  0  0  0
 21 20  1  0  0  0  0
 24  6  1  0  0  0  0
 25  7  1  0  0  0  0
 29 18  1  0  0  0  0
 32 19  1  0  0  0  0
 35 21  1  0  0  0  0
 36 21  1  0  0  0  0
M  END
>  <Pose>
1

>  <Score>
-4.58

$$$$
