
 OpenBabel03172210433D

 52 55  0  0  0  0  0  0  0  0999 V2000
   49.3730    4.2800   45.4210 B   0  0  0  0  0  0  0  0  0  0  0  0
   48.1760    4.7610   44.0250 C   0  0  0  0  0  0  0  0  0  0  0  0
   47.9850    3.8620   42.9870 C   0  0  0  0  0  0  0  0  0  0  0  0
   47.1150    4.2370   41.9820 C   0  0  0  0  0  0  0  0  0  0  0  0
   46.4730    5.4480   42.0130 C   0  0  0  0  0  0  0  0  0  0  0  0
   46.6470    6.3670   43.0470 C   0  0  0  0  0  0  0  0  0  0  0  0
   47.5180    5.9770   44.0400 C   0  0  0  0  0  0  0  0  0  0  0  0
   45.9210    7.6200   43.0310 C   0  0  0  0  0  0  0  0  0  0  0  0
   44.6600    7.6840   43.2910 N   0  0  0  0  0  0  0  0  0  0  0  0
   43.9230    8.8570   43.2840 N   0  0  0  0  0  0  0  0  0  0  0  0
   43.7330    9.5970   44.4840 C   0  0  0  0  0  0  0  0  0  0  0  0
   43.5000    8.9700   45.6260 N   0  0  0  0  0  4  0  0  0  0  0  0
   43.3380    9.5860   46.8090 C   0  0  0  0  0  0  0  0  0  0  0  0
   43.4210   10.9340   46.8060 N   0  0  0  0  0  0  0  0  0  0  0  0
   43.6570   11.6350   45.6650 C   0  0  0  0  0  0  0  0  0  0  0  0
   43.8100   10.9440   44.5080 N   0  0  0  0  0  0  0  0  0  0  0  0
   43.7570   13.0410   45.6790 N   0  0  0  0  0  0  0  0  0  0  0  0
   42.8270   13.8520   46.4220 C   0  0  0  0  0  0  0  0  0  0  0  0
   43.6960   14.7560   47.3080 C   0  0  0  0  0  0  0  0  0  0  0  0
   44.6190   15.4070   46.5160 O   0  0  0  0  0  0  0  0  0  0  0  0
   45.5720   14.5090   46.0360 C   0  0  0  0  0  0  0  0  0  0  0  0
   44.8200   13.6960   44.9600 C   0  0  0  0  0  0  0  0  0  0  0  0
   43.0910    8.8610   48.0260 N   0  0  0  0  0  0  0  0  0  0  0  0
   43.9600    8.9880   49.1610 C   0  0  0  0  0  0  0  0  0  0  0  0
   43.4820    8.4050   50.4330 C   0  0  0  0  0  0  0  0  0  0  0  0
   42.4390    7.5000   50.2970 O   0  0  0  0  0  0  0  0  0  0  0  0
   41.4200    7.9940   49.4940 C   0  0  0  0  0  0  0  0  0  0  0  0
   41.9460    8.0010   48.0800 C   0  0  0  0  0  0  0  0  0  0  0  0
   45.5940    5.8210   40.9910 O   0  0  0  0  0  0  0  0  0  0  0  0
   48.6330    2.6300   42.9450 O   0  0  0  0  0  0  0  0  0  0  0  0
   46.9780    3.5150   41.1700 H   0  0  0  0  0  0  0  0  0  0  0  0
   47.6690    6.6930   44.8630 H   0  0  0  0  0  0  0  0  0  0  0  0
   46.4410    8.5340   42.7960 H   0  0  0  0  0  0  0  0  0  0  0  0
   43.5080    9.1990   42.4100 H   0  0  0  0  0  0  0  0  0  0  0  0
   42.2380   14.4830   45.7260 H   0  0  0  0  0  0  0  0  0  0  0  0
   42.1640   13.2260   47.0710 H   0  0  0  0  0  0  0  0  0  0  0  0
   43.0230   15.4490   47.8430 H   0  0  0  0  0  0  0  0  0  0  0  0
   44.1970   14.0730   48.0390 H   0  0  0  0  0  0  0  0  0  0  0  0
   45.7870   13.7700   46.8640 H   0  0  0  0  0  0  0  0  0  0  0  0
   46.4650   14.9950   45.6510 H   0  0  0  0  0  0  0  0  0  0  0  0
   44.3390   14.4750   44.3000 H   0  0  0  0  0  0  0  0  0  0  0  0
   45.4850   13.0230   44.4110 H   0  0  0  0  0  0  0  0  0  0  0  0
   44.9510    8.5500   48.8570 H   0  0  0  0  0  0  0  0  0  0  0  0
   44.1200   10.0990   49.3200 H   0  0  0  0  0  0  0  0  0  0  0  0
   43.1980    9.2090   51.1580 H   0  0  0  0  0  0  0  0  0  0  0  0
   44.3300    7.8490   50.9100 H   0  0  0  0  0  0  0  0  0  0  0  0
   40.5430    7.3560   49.6320 H   0  0  0  0  0  0  0  0  0  0  0  0
   41.1700    9.0640   49.7260 H   0  0  0  0  0  0  0  0  0  0  0  0
   41.1000    8.3940   47.4560 H   0  0  0  0  0  0  0  0  0  0  0  0
   42.1710    6.9780   47.7090 H   0  0  0  0  0  0  0  0  0  0  0  0
   45.0330    5.0980   40.5510 H   0  0  0  0  0  0  0  0  0  0  0  0
   48.2860    1.7980   43.3970 H   0  0  0  0  0  0  0  0  0  0  0  0
  2  7  1  0  0  0  0
  2  1  1  0  0  0  0
  3  2  2  0  0  0  0
  4  5  2  0  0  0  0
  4  3  1  0  0  0  0
  5  6  1  0  0  0  0
  6  7  2  0  0  0  0
  7 32  1  0  0  0  0
  8  6  1  0  0  0  0
  8  9  2  0  0  0  0
 10  9  1  0  0  0  0
 10 11  1  0  0  0  0
 11 16  1  0  0  0  0
 11 12  2  0  0  0  0
 12 13  2  0  0  0  0
 13 23  1  0  0  0  0
 14 13  1  0  0  0  0
 15 17  1  0  0  0  0
 15 14  2  0  0  0  0
 16 15  1  0  0  0  0
 17 18  1  0  0  0  0
 18 36  1  0  0  0  0
 18 19  1  0  0  0  0
 19 37  1  0  0  0  0
 19 38  1  0  0  0  0
 20 19  1  0  0  0  0
 21 20  1  0  0  0  0
 21 39  1  0  0  0  0
 22 17  1  0  0  0  0
 22 21  1  0  0  0  0
 23 28  1  0  0  0  0
 23 24  1  0  0  0  0
 24 44  1  0  0  0  0
 24 25  1  0  0  0  0
 25 46  1  0  0  0  0
 25 45  1  0  0  0  0
 26 25  1  0  0  0  0
 27 47  1  0  0  0  0
 27 48  1  0  0  0  0
 27 26  1  0  0  0  0
 28 27  1  0  0  0  0
 29  5  1  0  0  0  0
 30  3  1  0  0  0  0
 30 52  1  0  0  0  0
 31  4  1  0  0  0  0
 33  8  1  0  0  0  0
 34 10  1  0  0  0  0
 35 18  1  0  0  0  0
 40 21  1  0  0  0  0
 41 22  1  0  0  0  0
 42 22  1  0  0  0  0
 43 24  1  0  0  0  0
 49 28  1  0  0  0  0
 50 28  1  0  0  0  0
 51 29  1  0  0  0  0
M  END
>  <Pose>
1

>  <Score>
-6.29

$$$$
