
 OpenBabel03172210433D

 41 45  0  0  1  0  0  0  0  0999 V2000
   49.7280    2.1940   42.8140 Cl  0  0  0  0  0  0  0  0  0  0  0  0
   48.6440    3.5240   43.2320 C   0  0  0  0  0  0  0  0  0  0  0  0
   48.9340    4.3940   44.2550 C   0  0  0  0  0  0  0  0  0  0  0  0
   48.0640    5.4280   44.5520 C   0  0  0  0  0  0  0  0  0  0  0  0
   46.8950    5.6370   43.8620 C   0  0  0  0  0  0  0  0  0  0  0  0
   46.6010    4.7630   42.8310 C   0  0  0  0  0  0  0  0  0  0  0  0
   47.4760    3.7220   42.5300 C   0  0  0  0  0  0  0  0  0  0  0  0
   45.9890    6.7030   44.1590 N   0  0  0  0  0  0  0  0  0  0  0  0
   45.6030    7.8120   43.3610 C   0  0  0  0  0  0  0  0  0  0  0  0
   45.9270    7.9900   42.1570 O   0  0  0  0  0  0  0  0  0  0  0  0
   44.7470    8.7570   44.1540 C   0  0  1  0  0  0  0  0  0  0  0  0
   43.4280    8.9730   43.4920 C   0  0  2  0  0  0  0  0  0  0  0  0
   42.4730    8.7390   44.5130 O   0  0  0  0  0  0  0  0  0  0  0  0
   42.9560    7.4590   44.8870 C   0  0  2  0  0  0  0  0  0  0  0  0
   44.3480    7.8790   45.3490 C   0  0  1  0  0  0  0  0  0  0  0  0
   45.3060    6.7850   45.4040 C   0  0  0  0  0  0  0  0  0  0  0  0
   45.4830    6.0450   46.4060 O   0  0  0  0  0  0  0  0  0  0  0  0
   42.9850    6.7860   43.5660 C   0  0  0  0  0  0  0  0  0  0  0  0
   43.1590    7.7630   42.6520 C   0  0  0  0  0  0  0  0  0  0  0  0
   42.1500    6.7850   45.9170 C   0  0  0  0  0  0  0  0  0  0  0  0
   43.2290   10.2500   42.7950 C   0  0  0  0  0  0  0  0  0  0  0  0
   41.9740   10.2300   42.1830 O   0  0  0  0  0  0  0  0  0  0  0  0
   41.0480   10.6860   43.0870 C   0  0  0  0  0  0  0  0  0  0  0  0
   41.8660   11.5860   43.9750 C   0  0  0  0  0  0  0  0  0  0  0  0
   43.1870   11.2890   43.7250 O   0  0  0  0  0  0  0  0  0  0  0  0
   49.8370    4.2600   44.8130 H   0  0  0  0  0  0  0  0  0  0  0  0
   48.2730    6.1360   45.3630 H   0  0  0  0  0  0  0  0  0  0  0  0
   45.6880    4.8900   42.2610 H   0  0  0  0  0  0  0  0  0  0  0  0
   47.2620    3.0350   41.7290 H   0  0  0  0  0  0  0  0  0  0  0  0
   45.2780    9.6580   44.4570 H   0  0  0  0  0  0  0  0  0  0  0  0
   44.2410    8.4600   46.2620 H   0  0  0  0  0  0  0  0  0  0  0  0
   42.8940    5.7450   43.2900 H   0  0  0  0  0  0  0  0  0  0  0  0
   43.1240    7.7160   41.5760 H   0  0  0  0  0  0  0  0  0  0  0  0
   42.5380    6.8910   46.9570 H   0  0  0  0  0  0  0  0  0  0  0  0
   42.0560    5.6780   45.7320 H   0  0  0  0  0  0  0  0  0  0  0  0
   41.0870    7.1410   45.9660 H   0  0  0  0  0  0  0  0  0  0  0  0
   44.0380   10.4560   42.0950 H   0  0  0  0  0  0  0  0  0  0  0  0
   40.2740   11.2620   42.5030 H   0  0  0  0  0  0  0  0  0  0  0  0
   40.4970    9.9070   43.6280 H   0  0  0  0  0  0  0  0  0  0  0  0
   41.5560   11.3610   45.0280 H   0  0  0  0  0  0  0  0  0  0  0  0
   41.5960   12.6380   43.6960 H   0  0  0  0  0  0  0  0  0  0  0  0
  1  2  1  0  0  0  0
  2  3  1  0  0  0  0
  3  4  2  0  0  0  0
  3 26  1  0  0  0  0
  4 27  1  0  0  0  0
  5  8  1  0  0  0  0
  5  4  1  0  0  0  0
  6  5  2  0  0  0  0
  7  6  1  0  0  0  0
  7  2  2  0  0  0  0
  8 16  1  0  0  0  0
  9 11  1  0  0  0  0
  9  8  1  0  0  0  0
 10  9  2  0  0  0  0
 11 30  1  1  0  0  0
 11 15  1  0  0  0  0
 12 21  1  6  0  0  0
 12 11  1  0  0  0  0
 12 13  1  0  0  0  0
 13 14  1  0  0  0  0
 14 15  1  0  0  0  0
 14 20  1  1  0  0  0
 15 16  1  0  0  0  0
 15 31  1  1  0  0  0
 16 17  2  0  0  0  0
 18 14  1  0  0  0  0
 19 12  1  0  0  0  0
 19 18  2  0  0  0  0
 20 36  1  0  0  0  0
 20 34  1  0  0  0  0
 21 25  1  0  0  0  0
 22 21  1  0  0  0  0
 22 23  1  0  0  0  0
 23 39  1  0  0  0  0
 23 24  1  0  0  0  0
 24 40  1  0  0  0  0
 25 24  1  0  0  0  0
 28  6  1  0  0  0  0
 29  7  1  0  0  0  0
 32 18  1  0  0  0  0
 33 19  1  0  0  0  0
 35 20  1  0  0  0  0
 37 21  1  0  0  0  0
 38 23  1  0  0  0  0
 41 24  1  0  0  0  0
M  END
>  <Pose>
1

>  <Score>
-4.51

$$$$
