
 OpenBabel03172210433D

 49 52  0  0  0  0  0  0  0  0999 V2000
   40.9060    9.4450   42.9980 Cl  0  0  0  0  0  0  0  0  0  0  0  0
   42.3600    8.5410   43.4390 C   0  0  0  0  0  0  0  0  0  0  0  0
   43.5690    9.1780   43.5510 C   0  0  0  0  0  0  0  0  0  0  0  0
   44.6550    8.4030   43.8940 C   0  0  0  0  0  0  0  0  0  0  0  0
   44.5440    7.0330   44.1190 C   0  0  0  0  0  0  0  0  0  0  0  0
   43.2990    6.4350   43.9930 C   0  0  0  0  0  0  0  0  0  0  0  0
   42.2050    7.1970   43.6500 C   0  0  0  0  0  0  0  0  0  0  0  0
   45.6850    6.2580   44.4720 N   0  0  0  0  0  0  0  0  0  0  0  0
   47.0170    6.5710   44.1500 C   0  0  0  0  0  0  0  0  0  0  0  0
   47.3780    6.4300   42.9500 O   0  0  0  0  0  0  0  0  0  0  0  0
   47.9660    7.0260   45.0860 N   0  0  0  0  0  0  0  0  0  0  0  0
   48.0790    6.6370   46.4160 N   0  0  0  0  0  0  0  0  0  0  0  0
   48.4340    7.6130   47.3780 C   0  0  0  0  0  0  0  0  0  0  0  0
   49.6600    7.7660   47.6840 O   0  0  0  0  0  0  0  0  0  0  0  0
   47.3960    8.4110   47.9990 C   0  0  0  0  0  0  0  0  0  0  0  0
   46.1100    8.2100   47.8460 N   0  0  0  0  0  0  0  0  0  0  0  0
   45.3480    9.1100   48.5470 N   0  0  0  0  0  0  0  0  0  0  0  0
   46.2760    9.9700   49.2100 C   0  0  0  0  0  0  0  0  0  0  0  0
   46.1250   10.9910   50.0000 N   0  0  0  0  0  0  0  0  0  0  0  0
   47.2350   11.6910   50.5410 N   0  0  0  0  0  0  0  0  0  0  0  0
   48.5610   11.3200   50.2550 C   0  0  0  0  0  0  0  0  0  0  0  0
   49.6080   11.9580   50.7600 C   0  0  0  0  0  0  0  0  0  0  0  0
   48.7530   10.1770   49.3680 C   0  0  0  0  0  0  0  0  0  0  0  0
   49.9090    9.8340   49.1020 O   0  0  0  0  0  0  0  0  0  0  0  0
   47.5870    9.5260   48.8630 N   0  0  0  0  0  0  0  0  0  0  0  0
   43.9260    9.1320   48.6280 C   0  0  0  0  0  0  0  0  0  0  0  0
   43.1440    9.1180   47.5000 C   0  0  0  0  0  0  0  0  0  0  0  0
   41.7560    9.0960   47.5230 C   0  0  0  0  0  0  0  0  0  0  0  0
   41.0890    9.0870   48.7310 C   0  0  0  0  0  0  0  0  0  0  0  0
   41.8530    9.1040   49.8790 C   0  0  0  0  0  0  0  0  0  0  0  0
   43.2460    9.1260   49.8250 C   0  0  0  0  0  0  0  0  0  0  0  0
   39.5970    9.0260   48.8020 C   0  0  0  0  0  0  0  0  0  0  0  0
   43.6690   10.2510   43.3780 H   0  0  0  0  0  0  0  0  0  0  0  0
   45.6440    8.8640   43.9960 H   0  0  0  0  0  0  0  0  0  0  0  0
   43.2490    5.3630   44.1800 H   0  0  0  0  0  0  0  0  0  0  0  0
   41.2290    6.7030   43.5630 H   0  0  0  0  0  0  0  0  0  0  0  0
   45.4770    5.3840   45.0160 H   0  0  0  0  0  0  0  0  0  0  0  0
   48.7040    7.7420   44.7820 H   0  0  0  0  0  0  0  0  0  0  0  0
   47.8930    5.6530   46.6610 H   0  0  0  0  0  0  0  0  0  0  0  0
   47.0020   12.4970   51.1640 H   0  0  0  0  0  0  0  0  0  0  0  0
   49.5230   12.8020   51.4230 H   0  0  0  0  0  0  0  0  0  0  0  0
   50.6160   11.6360   50.5210 H   0  0  0  0  0  0  0  0  0  0  0  0
   43.6670    9.1230   46.5330 H   0  0  0  0  0  0  0  0  0  0  0  0
   41.1750    9.0870   46.6180 H   0  0  0  0  0  0  0  0  0  0  0  0
   41.3130    9.1030   50.8250 H   0  0  0  0  0  0  0  0  0  0  0  0
   43.8210    9.1420   50.7480 H   0  0  0  0  0  0  0  0  0  0  0  0
   39.1030    9.9800   48.6010 H   0  0  0  0  0  0  0  0  0  0  0  0
   39.2410    8.6360   49.7630 H   0  0  0  0  0  0  0  0  0  0  0  0
   39.2170    8.2780   48.0380 H   0  0  0  0  0  0  0  0  0  0  0  0
  1  2  1  0  0  0  0
  2  3  2  0  0  0  0
  2  7  1  0  0  0  0
  3  4  1  0  0  0  0
  4 34  1  0  0  0  0
  4  5  2  0  0  0  0
  5  8  1  0  0  0  0
  6  5  1  0  0  0  0
  6 35  1  0  0  0  0
  7  6  2  0  0  0  0
  8 37  1  0  0  0  0
  9  8  1  0  0  0  0
  9 11  1  0  0  0  0
 10  9  2  0  0  0  0
 11 12  1  0  0  0  0
 12 39  1  0  0  0  0
 12 13  1  0  0  0  0
 13 14  2  0  0  0  0
 13 15  1  0  0  0  0
 15 25  1  0  0  0  0
 16 15  2  0  0  0  0
 16 17  1  0  0  0  0
 17 26  1  0  0  0  0
 17 18  1  0  0  0  0
 18 19  2  0  0  0  0
 19 20  1  0  0  0  0
 20 40  1  0  0  0  0
 21 20  1  0  0  0  0
 21 22  2  0  0  0  0
 22 41  1  0  0  0  0
 23 21  1  0  0  0  0
 24 23  2  0  0  0  0
 25 18  1  0  0  0  0
 25 23  1  0  0  0  0
 26 31  1  0  0  0  0
 27 28  1  0  0  0  0
 27 26  2  0  0  0  0
 28 29  2  0  0  0  0
 29 32  1  0  0  0  0
 29 30  1  0  0  0  0
 30 45  1  0  0  0  0
 31 30  2  0  0  0  0
 31 46  1  0  0  0  0
 32 48  1  0  0  0  0
 33  3  1  0  0  0  0
 36  7  1  0  0  0  0
 38 11  1  0  0  0  0
 42 22  1  0  0  0  0
 43 27  1  0  0  0  0
 44 28  1  0  0  0  0
 47 32  1  0  0  0  0
 49 32  1  0  0  0  0
M  END
>  <Pose>
1

>  <Score>
-7.30

$$$$
