
 OpenBabel03172210433D

 53 57  0  0  1  0  0  0  0  0999 V2000
   36.3030   14.7900   45.3510 Cl  0  0  0  0  0  0  0  0  0  0  0  0
   36.7860   13.1070   45.3720 C   0  0  0  0  0  0  0  0  0  0  0  0
   38.0410   12.6860   44.9820 C   0  0  0  0  0  0  0  0  0  0  0  0
   38.3920   11.3410   45.0110 C   0  0  0  0  0  0  0  0  0  0  0  0
   37.4340   10.4660   45.4440 C   0  0  0  0  0  0  0  0  0  0  0  0
   36.1790   10.8660   45.8370 C   0  0  0  0  0  0  0  0  0  0  0  0
   35.8390   12.1850   45.8070 C   0  0  0  0  0  0  0  0  0  0  0  0
   39.7770   11.2220   44.5420 C   0  0  2  0  0  0  0  0  0  0  0  0
   39.8980   10.3630   43.3770 N   0  0  0  0  0  0  0  0  0  0  0  0
   41.3390   10.1020   43.3430 C   0  0  1  0  0  0  0  0  0  0  0  0
   41.7920   10.0120   44.7500 C   0  0  2  0  0  0  0  0  0  0  0  0
   40.6310   10.5050   45.5540 C   0  0  1  0  0  0  0  0  0  0  0  0
   41.1360   11.3860   46.6100 C   0  0  0  0  0  0  0  0  0  0  0  0
   40.4580   11.7490   47.6040 O   0  0  0  0  0  0  0  0  0  0  0  0
   42.4780   11.7090   46.2690 N   0  0  0  0  0  0  0  0  0  0  0  0
   42.8470   11.0450   45.0680 C   0  0  0  0  0  0  0  0  0  0  0  0
   43.8610   11.2300   44.3410 O   0  0  0  0  0  0  0  0  0  0  0  0
   43.3390   12.5940   47.0490 C   0  0  0  0  0  0  0  0  0  0  0  0
   43.4580   13.9120   46.2960 C   0  0  0  0  0  0  0  0  0  0  0  0
   44.6200   13.9470   45.5420 O   0  0  0  0  0  0  0  0  0  0  0  0
   45.3920   15.0220   45.9370 C   0  0  0  0  0  0  0  0  0  0  0  0
   41.6450    8.8430   42.5870 C   0  0  0  0  0  0  0  0  0  0  0  0
   42.7200    8.0240   43.1690 C   0  0  0  0  0  0  0  0  0  0  0  0
   42.3550    6.8500   43.8240 C   0  0  0  0  0  0  0  0  0  0  0  0
   43.3350    6.0540   44.3580 C   0  0  0  0  0  0  0  0  0  0  0  0
   44.6720    6.3610   44.2780 C   0  0  0  0  0  0  0  0  0  0  0  0
   44.9930    7.5300   43.6230 C   0  0  0  0  0  0  0  0  0  0  0  0
   44.0480    8.3660   43.0670 C   0  0  0  0  0  0  0  0  0  0  0  0
   40.2340   12.5850   44.2250 C   0  0  0  0  0  0  0  0  0  0  0  0
   41.3360   12.9550   43.7960 O   0  0  0  0  0  0  0  0  0  0  0  0
   39.1420   13.4480   44.5100 N   0  0  0  0  0  0  0  0  0  0  0  0
   37.7090    9.3970   45.4690 H   0  0  0  0  0  0  0  0  0  0  0  0
   35.4740   10.1360   46.1660 H   0  0  0  0  0  0  0  0  0  0  0  0
   34.8600   12.5200   46.1110 H   0  0  0  0  0  0  0  0  0  0  0  0
   39.5820   10.8510   42.4950 H   0  0  0  0  0  0  0  0  0  0  0  0
   41.8440   10.9290   42.7730 H   0  0  0  0  0  0  0  0  0  0  0  0
   42.1420    9.0200   45.0920 H   0  0  0  0  0  0  0  0  0  0  0  0
   39.9990    9.6750   45.9490 H   0  0  0  0  0  0  0  0  0  0  0  0
   44.3460   12.1760   47.1340 H   0  0  0  0  0  0  0  0  0  0  0  0
   42.9370   12.7620   48.0640 H   0  0  0  0  0  0  0  0  0  0  0  0
   42.5430   14.0180   45.6750 H   0  0  0  0  0  0  0  0  0  0  0  0
   43.5130   14.7560   47.0130 H   0  0  0  0  0  0  0  0  0  0  0  0
   45.6700   14.9540   47.0030 H   0  0  0  0  0  0  0  0  0  0  0  0
   44.8910   16.0020   45.7900 H   0  0  0  0  0  0  0  0  0  0  0  0
   46.3040   15.0370   45.2980 H   0  0  0  0  0  0  0  0  0  0  0  0
   40.7120    8.2650   42.4150 H   0  0  0  0  0  0  0  0  0  0  0  0
   41.9820    9.1750   41.5610 H   0  0  0  0  0  0  0  0  0  0  0  0
   41.2890    6.5870   43.8980 H   0  0  0  0  0  0  0  0  0  0  0  0
   43.0480    5.1430   44.8660 H   0  0  0  0  0  0  0  0  0  0  0  0
   45.4560    5.7450   44.6940 H   0  0  0  0  0  0  0  0  0  0  0  0
   46.0300    7.8230   43.5280 H   0  0  0  0  0  0  0  0  0  0  0  0
   44.3680    9.2820   42.5420 H   0  0  0  0  0  0  0  0  0  0  0  0
   39.1230   14.4970   44.3980 H   0  0  0  0  0  0  0  0  0  0  0  0
  1  2  1  0  0  0  0
  2  7  1  0  0  0  0
  3  4  1  0  0  0  0
  3  2  2  0  0  0  0
  4  5  2  0  0  0  0
  5 32  1  0  0  0  0
  5  6  1  0  0  0  0
  6 33  1  0  0  0  0
  7  6  2  0  0  0  0
  7 34  1  0  0  0  0
  8 29  1  6  0  0  0
  8  4  1  0  0  0  0
  8 12  1  0  0  0  0
  9  8  1  0  0  0  0
 10 36  1  6  0  0  0
 10  9  1  0  0  0  0
 10 11  1  0  0  0  0
 11 16  1  0  0  0  0
 11 37  1  1  0  0  0
 11 12  1  0  0  0  0
 12 38  1  1  0  0  0
 12 13  1  0  0  0  0
 13 14  2  0  0  0  0
 15 13  1  0  0  0  0
 15 18  1  0  0  0  0
 16 15  1  0  0  0  0
 17 16  2  0  0  0  0
 18 39  1  0  0  0  0
 18 40  1  0  0  0  0
 19 42  1  0  0  0  0
 19 18  1  0  0  0  0
 20 21  1  0  0  0  0
 20 19  1  0  0  0  0
 21 43  1  0  0  0  0
 22 23  1  0  0  0  0
 22 10  1  0  0  0  0
 23 24  1  0  0  0  0
 24 48  1  0  0  0  0
 24 25  2  0  0  0  0
 25 49  1  0  0  0  0
 26 25  1  0  0  0  0
 26 50  1  0  0  0  0
 27 26  2  0  0  0  0
 28 23  2  0  0  0  0
 28 27  1  0  0  0  0
 29 31  1  0  0  0  0
 30 29  2  0  0  0  0
 31  3  1  0  0  0  0
 35  9  1  0  0  0  0
 41 19  1  0  0  0  0
 44 21  1  0  0  0  0
 45 21  1  0  0  0  0
 46 22  1  0  0  0  0
 47 22  1  0  0  0  0
 51 27  1  0  0  0  0
 52 28  1  0  0  0  0
 53 31  1  0  0  0  0
M  END
>  <Pose>
1

>  <Score>
-5.40

$$$$
