
 OpenBabel03172210433D

 42 45  0  0  0  0  0  0  0  0999 V2000
   51.5850    1.1430   43.9210 Cl  0  0  0  0  0  0  0  0  0  0  0  0
   50.2200    2.2410   43.8710 C   0  0  0  0  0  0  0  0  0  0  0  0
   49.9740    3.0740   44.9410 C   0  0  0  0  0  0  0  0  0  0  0  0
   48.8770    3.9230   44.8430 C   0  0  0  0  0  0  0  0  0  0  0  0
   48.0470    3.9690   43.7510 C   0  0  0  0  0  0  0  0  0  0  0  0
   48.3110    3.1320   42.6970 C   0  0  0  0  0  0  0  0  0  0  0  0
   49.3900    2.2850   42.7740 C   0  0  0  0  0  0  0  0  0  0  0  0
   46.9110    4.8880   43.7140 C   0  0  0  0  0  0  0  0  0  0  0  0
   46.9030    5.8350   42.6670 N   0  0  0  0  0  0  0  0  0  0  0  0
   45.8880    5.7390   41.6950 C   0  0  0  0  0  0  0  0  0  0  0  0
   44.6500    6.5590   41.9350 C   0  0  0  0  0  0  0  0  0  0  0  0
   45.0600    7.6580   42.8490 N   0  0  0  0  0  0  0  0  0  0  0  0
   46.3420    8.1850   42.5690 C   0  0  0  0  0  0  0  0  0  0  0  0
   47.3610    7.1540   43.0020 C   0  0  0  0  0  0  0  0  0  0  0  0
   44.1230    8.0430   43.8310 C   0  0  0  0  0  0  0  0  0  0  0  0
   43.4390    7.0770   44.5140 N   0  0  0  0  0  0  0  0  0  0  0  0
   42.5090    7.3050   45.4330 C   0  0  0  0  0  0  0  0  0  0  0  0
   42.2010    8.5780   45.7300 N   0  0  0  0  0  0  0  0  0  0  0  0
   42.8450    9.5780   45.0870 C   0  0  0  0  0  0  0  0  0  0  0  0
   42.7590   10.9180   45.1830 N   0  0  0  0  0  0  0  0  0  0  0  0
   43.6230   11.4750   44.3350 C   0  0  0  0  0  0  0  0  0  0  0  0
   44.2940   10.5180   43.6690 N   0  0  0  0  0  0  0  0  0  0  0  0
   43.8240    9.3440   44.1200 C   0  0  0  0  0  0  0  0  0  0  0  0
   41.8250    6.2340   46.1180 N   0  0  0  0  0  0  0  0  0  0  0  0
   50.6090    3.0650   45.8220 H   0  0  0  0  0  0  0  0  0  0  0  0
   48.7320    4.5580   45.7190 H   0  0  0  0  0  0  0  0  0  0  0  0
   47.6740    3.1280   41.7930 H   0  0  0  0  0  0  0  0  0  0  0  0
   49.6000    1.6150   41.9290 H   0  0  0  0  0  0  0  0  0  0  0  0
   45.9280    4.3540   43.7150 H   0  0  0  0  0  0  0  0  0  0  0  0
   46.9140    5.4520   44.6930 H   0  0  0  0  0  0  0  0  0  0  0  0
   45.5890    4.7010   41.5680 H   0  0  0  0  0  0  0  0  0  0  0  0
   46.3240    6.0610   40.7050 H   0  0  0  0  0  0  0  0  0  0  0  0
   43.7980    6.0080   42.3260 H   0  0  0  0  0  0  0  0  0  0  0  0
   44.3350    7.0780   41.0060 H   0  0  0  0  0  0  0  0  0  0  0  0
   46.4290    8.1970   41.4210 H   0  0  0  0  0  0  0  0  0  0  0  0
   46.5660    9.2040   42.8430 H   0  0  0  0  0  0  0  0  0  0  0  0
   47.6220    7.1970   44.0720 H   0  0  0  0  0  0  0  0  0  0  0  0
   48.2900    7.3520   42.4180 H   0  0  0  0  0  0  0  0  0  0  0  0
   43.7460   12.5570   44.2220 H   0  0  0  0  0  0  0  0  0  0  0  0
   45.0320   10.7090   42.9580 H   0  0  0  0  0  0  0  0  0  0  0  0
   41.8020    5.2740   45.7470 H   0  0  0  0  0  0  0  0  0  0  0  0
   41.3370    6.4260   47.0150 H   0  0  0  0  0  0  0  0  0  0  0  0
  2  1  1  0  0  0  0
  2  3  1  0  0  0  0
  3 25  1  0  0  0  0
  4  3  2  0  0  0  0
  4 26  1  0  0  0  0
  5  4  1  0  0  0  0
  6  7  1  0  0  0  0
  6  5  2  0  0  0  0
  7  2  2  0  0  0  0
  8 29  1  0  0  0  0
  8  5  1  0  0  0  0
  8 30  1  0  0  0  0
  9 14  1  0  0  0  0
  9  8  1  0  0  0  0
 10 11  1  0  0  0  0
 10  9  1  0  0  0  0
 11 33  1  0  0  0  0
 11 12  1  0  0  0  0
 12 15  1  0  0  0  0
 13 36  1  0  0  0  0
 13 12  1  0  0  0  0
 13 14  1  0  0  0  0
 14 37  1  0  0  0  0
 15 23  2  0  0  0  0
 15 16  1  0  0  0  0
 16 17  2  0  0  0  0
 17 18  1  0  0  0  0
 17 24  1  0  0  0  0
 19 20  1  0  0  0  0
 19 18  2  0  0  0  0
 21 20  2  0  0  0  0
 22 23  1  0  0  0  0
 22 21  1  0  0  0  0
 23 19  1  0  0  0  0
 24 42  1  0  0  0  0
 27  6  1  0  0  0  0
 28  7  1  0  0  0  0
 31 10  1  0  0  0  0
 32 10  1  0  0  0  0
 34 11  1  0  0  0  0
 35 13  1  0  0  0  0
 38 14  1  0  0  0  0
 39 21  1  0  0  0  0
 40 22  1  0  0  0  0
 41 24  1  0  0  0  0
M  END
>  <Pose>
1

>  <Score>
-6.48

$$$$
