
 OpenBabel03172210433D

 42 45  0  0  0  0  0  0  0  0999 V2000
   50.8470    5.2310   47.7050 Cl  0  0  0  0  0  0  0  0  0  0  0  0
   49.6950    5.2390   46.3730 C   0  0  0  0  0  0  0  0  0  0  0  0
   49.6480    4.1800   45.5020 C   0  0  0  0  0  0  0  0  0  0  0  0
   48.7350    4.2020   44.4590 C   0  0  0  0  0  0  0  0  0  0  0  0
   47.8810    5.2550   44.2790 C   0  0  0  0  0  0  0  0  0  0  0  0
   47.9260    6.3170   45.1510 C   0  0  0  0  0  0  0  0  0  0  0  0
   48.8300    6.2960   46.1830 C   0  0  0  0  0  0  0  0  0  0  0  0
   46.9380    5.1910   43.1340 C   0  0  0  0  0  0  0  0  0  0  0  0
   46.2060    6.4560   43.0920 N   0  0  0  0  0  0  0  0  0  0  0  0
   46.6120    7.6300   42.6470 N   0  0  0  0  0  0  0  0  0  0  0  0
   45.6650    8.5410   42.7730 N   0  0  0  0  0  0  0  0  0  0  0  0
   44.5930    7.9660   43.3160 C   0  0  0  0  0  0  0  0  0  0  0  0
   44.9330    6.6460   43.5200 C   0  0  0  0  0  0  0  0  0  0  0  0
   44.0110    5.8400   44.0650 N   0  0  0  0  0  0  0  0  0  0  0  0
   42.7960    6.3060   44.4030 C   0  0  0  0  0  0  0  0  0  0  0  0
   42.4870    7.5980   44.1950 N   0  0  0  0  0  0  0  0  0  0  0  0
   43.3510    8.4940   43.6480 C   0  0  0  0  0  0  0  0  0  0  0  0
   43.0330    9.8460   43.4290 N   0  0  0  0  0  0  0  0  0  0  0  0
   41.9430   10.3580   42.6410 C   0  0  0  0  0  0  0  0  0  0  0  0
   41.0790   11.1840   43.5200 C   0  0  0  0  0  0  0  0  0  0  0  0
   41.6070   11.6310   44.7390 N   0  0  0  0  0  0  0  0  0  0  0  0
   42.9920   11.6670   44.9450 C   0  0  0  0  0  0  0  0  0  0  0  0
   43.8460   10.8740   44.0300 C   0  0  0  0  0  0  0  0  0  0  0  0
   40.9750   10.9070   45.8280 C   0  0  0  0  0  0  0  0  0  0  0  0
   50.3090    3.3340   45.6180 H   0  0  0  0  0  0  0  0  0  0  0  0
   48.7070    3.3540   43.7740 H   0  0  0  0  0  0  0  0  0  0  0  0
   47.2610    7.1360   45.0090 H   0  0  0  0  0  0  0  0  0  0  0  0
   48.9040    7.1210   46.9050 H   0  0  0  0  0  0  0  0  0  0  0  0
   47.4820    5.0680   42.1900 H   0  0  0  0  0  0  0  0  0  0  0  0
   46.2500    4.3320   43.2760 H   0  0  0  0  0  0  0  0  0  0  0  0
   42.0780    5.6270   44.8400 H   0  0  0  0  0  0  0  0  0  0  0  0
   41.3450    9.5630   42.1590 H   0  0  0  0  0  0  0  0  0  0  0  0
   42.3580   10.9630   41.8070 H   0  0  0  0  0  0  0  0  0  0  0  0
   40.7640   12.0920   42.9230 H   0  0  0  0  0  0  0  0  0  0  0  0
   40.1050   10.6460   43.6910 H   0  0  0  0  0  0  0  0  0  0  0  0
   43.3330   12.7440   44.8680 H   0  0  0  0  0  0  0  0  0  0  0  0
   43.2500   11.3950   46.0100 H   0  0  0  0  0  0  0  0  0  0  0  0
   44.2990   11.5050   43.2340 H   0  0  0  0  0  0  0  0  0  0  0  0
   44.6930   10.4140   44.6120 H   0  0  0  0  0  0  0  0  0  0  0  0
   40.1150   10.2840   45.4560 H   0  0  0  0  0  0  0  0  0  0  0  0
   41.7030   10.1870   46.2610 H   0  0  0  0  0  0  0  0  0  0  0  0
   40.5510   11.5870   46.5900 H   0  0  0  0  0  0  0  0  0  0  0  0
  2  1  1  0  0  0  0
  3 25  1  0  0  0  0
  3  2  2  0  0  0  0
  4  3  1  0  0  0  0
  5  4  2  0  0  0  0
  5  6  1  0  0  0  0
  6  7  2  0  0  0  0
  7  2  1  0  0  0  0
  7 28  1  0  0  0  0
  8 30  1  0  0  0  0
  8  5  1  0  0  0  0
  9  8  1  0  0  0  0
  9 13  1  0  0  0  0
 10 11  2  0  0  0  0
 10  9  1  0  0  0  0
 11 12  1  0  0  0  0
 12 13  2  0  0  0  0
 12 17  1  0  0  0  0
 13 14  1  0  0  0  0
 14 15  2  0  0  0  0
 15 31  1  0  0  0  0
 16 15  1  0  0  0  0
 17 16  2  0  0  0  0
 18 17  1  0  0  0  0
 18 23  1  0  0  0  0
 19 18  1  0  0  0  0
 19 20  1  0  0  0  0
 20 35  1  0  0  0  0
 20 21  1  0  0  0  0
 21 22  1  0  0  0  0
 21 24  1  0  0  0  0
 22 37  1  0  0  0  0
 23 39  1  0  0  0  0
 23 22  1  0  0  0  0
 24 41  1  0  0  0  0
 24 42  1  0  0  0  0
 26  4  1  0  0  0  0
 27  6  1  0  0  0  0
 29  8  1  0  0  0  0
 32 19  1  0  0  0  0
 33 19  1  0  0  0  0
 34 20  1  0  0  0  0
 36 22  1  0  0  0  0
 38 23  1  0  0  0  0
 40 24  1  0  0  0  0
M  END
>  <Pose>
1

>  <Score>
-5.50

$$$$
