
 OpenBabel03172210433D

 38 41  0  0  1  0  0  0  0  0999 V2000
   42.4550   13.8780   46.4810 B   0  0  0  0  0  0  0  0  0  0  0  0
   42.0840   12.6250   45.0940 C   0  0  0  0  0  0  0  0  0  0  0  0
   43.0450   11.7550   44.6360 C   0  0  0  0  0  0  0  0  0  0  0  0
   42.8040   10.8200   43.6170 C   0  0  0  0  0  0  0  0  0  0  0  0
   41.5430   10.8160   43.0900 C   0  0  0  0  0  0  0  0  0  0  0  0
   40.5730   11.7040   43.5620 C   0  0  0  0  0  0  0  0  0  0  0  0
   40.8340   12.5980   44.5500 C   0  0  0  0  0  0  0  0  0  0  0  0
   43.8470    9.9670   43.2100 N   0  0  0  0  0  0  0  0  0  0  0  0
   43.8570    8.5710   43.3550 C   0  0  0  0  0  0  0  0  0  0  0  0
   43.1880    7.7680   42.6880 O   0  0  0  0  0  0  0  0  0  0  0  0
   44.7410    7.9500   44.4010 C   0  0  2  0  0  0  0  0  0  0  0  0
   46.1650    7.7430   43.9530 C   0  0  0  0  0  0  0  0  0  0  0  0
   45.8790    6.3460   43.5930 N   0  0  1  0  0  0  0  0  0  0  0  0
   44.7040    6.4500   44.4380 C   0  0  0  0  0  0  0  0  0  0  0  0
   46.5320    5.3910   42.7660 C   0  0  2  0  0  0  0  0  0  0  0  0
   46.2240    5.2420   41.4520 N   0  0  0  0  0  0  0  0  0  0  0  0
   46.8670    4.3180   40.6800 C   0  0  0  0  0  0  0  0  0  0  0  0
   47.8180    3.5300   41.1900 N   0  0  0  0  0  0  0  0  0  0  0  0
   48.1700    3.6220   42.4740 C   0  0  0  0  0  0  0  0  0  0  0  0
   49.0790    2.9560   43.2140 N   0  0  0  0  0  0  0  0  0  0  0  0
   49.0070    3.4560   44.4280 N   0  0  0  0  0  0  0  0  0  0  0  0
   48.0800    4.4190   44.4840 N   0  0  0  0  0  0  0  0  0  0  0  0
   47.5200    4.5570   43.2520 C   0  0  0  0  0  0  0  0  0  0  0  0
   49.9810    1.8890   42.7870 C   0  0  0  0  0  0  0  0  0  0  0  0
   44.0310   11.7950   45.0850 H   0  0  0  0  0  0  0  0  0  0  0  0
   41.2690   10.1210   42.2930 H   0  0  0  0  0  0  0  0  0  0  0  0
   39.5780   11.6550   43.1010 H   0  0  0  0  0  0  0  0  0  0  0  0
   40.0610   13.2810   44.9020 H   0  0  0  0  0  0  0  0  0  0  0  0
   44.7040   10.4460   42.7480 H   0  0  0  0  0  0  0  0  0  0  0  0
   44.7040    8.4720   45.3730 H   0  0  0  0  0  0  0  0  0  0  0  0
   46.4610    8.2750   43.0250 H   0  0  0  0  0  0  0  0  0  0  0  0
   46.9240    7.7640   44.7400 H   0  0  0  0  0  0  0  0  0  0  0  0
   43.7750    6.0380   43.9900 H   0  0  0  0  0  0  0  0  0  0  0  0
   44.9120    6.0020   45.4210 H   0  0  0  0  0  0  0  0  0  0  0  0
   46.5700    4.2560   39.6440 H   0  0  0  0  0  0  0  0  0  0  0  0
   50.9110    1.8840   43.3800 H   0  0  0  0  0  0  0  0  0  0  0  0
   50.3090    2.0550   41.7190 H   0  0  0  0  0  0  0  0  0  0  0  0
   49.5060    0.9070   42.8080 H   0  0  0  0  0  0  0  0  0  0  0  0
  2  1  1  0  0  0  0
  3 25  1  0  0  0  0
  3  2  1  0  0  0  0
  4  3  2  0  0  0  0
  5  6  2  0  0  0  0
  5  4  1  0  0  0  0
  6  7  1  0  0  0  0
  7 28  1  0  0  0  0
  7  2  2  0  0  0  0
  8  9  1  0  0  0  0
  8  4  1  0  0  0  0
  9 11  1  0  0  0  0
 10  9  2  0  0  0  0
 11 14  1  0  0  0  0
 11 30  1  1  0  0  0
 12 11  1  0  0  0  0
 12 32  1  0  0  0  0
 13 12  1  6  0  0  0
 13 14  1  0  0  0  0
 14 34  1  0  0  0  0
 15 16  1  1  0  0  0
 15 23  1  0  0  0  0
 15 13  1  0  0  0  0
 17 18  1  0  0  0  0
 17 16  2  0  0  0  0
 18 19  1  0  0  0  0
 19 20  1  0  0  0  0
 19 23  2  0  0  0  0
 20 21  1  0  0  0  0
 21 22  2  0  0  0  0
 23 22  1  0  0  0  0
 24 38  1  0  0  0  0
 24 20  1  0  0  0  0
 24 36  1  0  0  0  0
 26  5  1  0  0  0  0
 27  6  1  0  0  0  0
 29  8  1  0  0  0  0
 31 12  1  0  0  0  0
 33 14  1  0  0  0  0
 35 17  1  0  0  0  0
 37 24  1  0  0  0  0
M  END
>  <Pose>
1

>  <Score>
-7.03

$$$$
