
 OpenBabel03172210433D

 48 52  0  0  1  0  0  0  0  0999 V2000
   52.7100    1.7720   45.9130 Cl  0  0  0  0  0  0  0  0  0  0  0  0
   51.2600    2.6860   45.4880 C   0  0  0  0  0  0  0  0  0  0  0  0
   50.6570    2.4760   44.2680 C   0  0  0  0  0  0  0  0  0  0  0  0
   49.5290    3.1710   43.9070 C   0  0  0  0  0  0  0  0  0  0  0  0
   48.9610    4.1010   44.7530 C   0  0  0  0  0  0  0  0  0  0  0  0
   49.5780    4.2990   45.9700 C   0  0  0  0  0  0  0  0  0  0  0  0
   50.7090    3.6110   46.3460 C   0  0  0  0  0  0  0  0  0  0  0  0
   47.7950    4.7870   44.3240 N   0  0  0  0  0  0  0  0  0  0  0  0
   47.1610    4.5800   43.0660 C   0  0  0  0  0  0  0  0  0  0  0  0
   46.0810    5.2320   42.6990 C   0  0  0  0  0  0  0  0  0  0  0  0
   45.4120    6.2100   43.4830 N   0  0  0  0  0  0  0  0  0  0  0  0
   46.1280    7.4210   43.8080 C   0  0  0  0  0  0  0  0  0  0  0  0
   45.2640    8.5940   43.4270 C   0  0  0  0  0  0  0  0  0  0  0  0
   43.8810    8.4440   43.8340 N   0  0  2  0  0  0  0  0  0  0  0  0
   43.1940    7.2050   43.5310 C   0  0  0  0  0  0  0  0  0  0  0  0
   44.0630    6.0580   43.9790 C   0  0  0  0  0  0  0  0  0  0  0  0
   43.2210    9.5100   44.5210 C   0  0  2  0  0  0  0  0  0  0  0  0
   43.5430    9.7520   45.8070 N   0  0  0  0  0  0  0  0  0  0  0  0
   42.9380   10.7580   46.4990 C   0  0  0  0  0  0  0  0  0  0  0  0
   42.0000   11.5330   45.9110 N   0  0  0  0  0  0  0  0  0  0  0  0
   41.6380   11.3420   44.6380 C   0  0  0  0  0  0  0  0  0  0  0  0
   40.7560   11.9500   43.8260 N   0  0  0  0  0  0  0  0  0  0  0  0
   40.8100   11.3390   42.6560 N   0  0  0  0  0  0  0  0  0  0  0  0
   41.7260   10.3300   42.6970 C   0  0  0  0  0  0  0  0  0  0  0  0
   42.2680   10.3070   43.9430 C   0  0  0  0  0  0  0  0  0  0  0  0
   39.8820   13.0820   44.1470 C   0  0  0  0  0  0  0  0  0  0  0  0
   47.7370    3.6240   42.1900 N   0  0  0  0  0  0  0  0  0  0  0  0
   48.8940    2.9320   42.5950 C   0  0  0  0  0  0  0  0  0  0  0  0
   49.4660    2.0610   41.8610 O   0  0  0  0  0  0  0  0  0  0  0  0
   51.0980    1.7410   43.5920 H   0  0  0  0  0  0  0  0  0  0  0  0
   49.1530    5.0220   46.6470 H   0  0  0  0  0  0  0  0  0  0  0  0
   51.1900    3.7650   47.2950 H   0  0  0  0  0  0  0  0  0  0  0  0
   47.3590    5.4920   44.9560 H   0  0  0  0  0  0  0  0  0  0  0  0
   45.6480    5.0250   41.7230 H   0  0  0  0  0  0  0  0  0  0  0  0
   46.3370    7.5110   44.8940 H   0  0  0  0  0  0  0  0  0  0  0  0
   47.0690    7.5080   43.2280 H   0  0  0  0  0  0  0  0  0  0  0  0
   45.7010    9.4750   43.9870 H   0  0  0  0  0  0  0  0  0  0  0  0
   45.3690    8.8900   42.3580 H   0  0  0  0  0  0  0  0  0  0  0  0
   42.2510    7.1880   44.1520 H   0  0  0  0  0  0  0  0  0  0  0  0
   42.9580    7.0840   42.4600 H   0  0  0  0  0  0  0  0  0  0  0  0
   43.6290    5.0730   43.7290 H   0  0  0  0  0  0  0  0  0  0  0  0
   44.1220    6.1380   45.1030 H   0  0  0  0  0  0  0  0  0  0  0  0
   43.2300   10.9160   47.5350 H   0  0  0  0  0  0  0  0  0  0  0  0
   41.9910    9.6550   41.8970 H   0  0  0  0  0  0  0  0  0  0  0  0
   39.7730   13.7560   43.2680 H   0  0  0  0  0  0  0  0  0  0  0  0
   40.3620   13.7040   44.9440 H   0  0  0  0  0  0  0  0  0  0  0  0
   38.8710   12.7340   44.4300 H   0  0  0  0  0  0  0  0  0  0  0  0
   47.3300    3.4160   41.2500 H   0  0  0  0  0  0  0  0  0  0  0  0
  2  1  1  0  0  0  0
  2  7  1  0  0  0  0
  3  2  2  0  0  0  0
  4  3  1  0  0  0  0
  4  5  2  0  0  0  0
  5  6  1  0  0  0  0
  6  7  2  0  0  0  0
  6 31  1  0  0  0  0
  7 32  1  0  0  0  0
  8  5  1  0  0  0  0
  8 33  1  0  0  0  0
  9  8  1  0  0  0  0
 10  9  2  0  0  0  0
 10 11  1  0  0  0  0
 11 12  1  0  0  0  0
 11 16  1  0  0  0  0
 12 35  1  0  0  0  0
 13 12  1  0  0  0  0
 13 37  1  0  0  0  0
 14 13  1  6  0  0  0
 14 17  1  0  0  0  0
 15 14  1  0  0  0  0
 15 16  1  0  0  0  0
 15 39  1  0  0  0  0
 16 42  1  0  0  0  0
 17 25  1  1  0  0  0
 17 18  1  0  0  0  0
 18 19  2  0  0  0  0
 19 43  1  0  0  0  0
 20 19  1  0  0  0  0
 21 20  1  0  0  0  0
 22 26  1  0  0  0  0
 22 21  1  0  0  0  0
 23 24  2  0  0  0  0
 23 22  1  0  0  0  0
 24 25  1  0  0  0  0
 25 21  2  0  0  0  0
 26 47  1  0  0  0  0
 26 46  1  0  0  0  0
 27 28  1  0  0  0  0
 27  9  1  0  0  0  0
 28  4  1  0  0  0  0
 29 28  2  0  0  0  0
 30  3  1  0  0  0  0
 34 10  1  0  0  0  0
 36 12  1  0  0  0  0
 38 13  1  0  0  0  0
 40 15  1  0  0  0  0
 41 16  1  0  0  0  0
 44 24  1  0  0  0  0
 45 26  1  0  0  0  0
 48 27  1  0  0  0  0
M  END
>  <Pose>
1

>  <Score>
-7.14

$$$$
