
 OpenBabel03172210433D

 47 50  0  0  1  0  0  0  0  0999 V2000
   51.9840    2.1160   43.9090 S   0  0  0  0  0  0  0  0  0  0  0  0
   53.2560    1.6600   44.5340 O   0  0  0  0  0  0  0  0  0  0  0  0
   52.1970    2.4410   42.4450 O   0  0  0  0  0  0  0  0  0  0  0  0
   51.3200    3.4820   44.6590 N   0  0  0  0  0  0  0  0  0  0  0  0
   49.9680    3.3720   44.9790 C   0  0  0  0  0  0  0  0  0  0  0  0
   49.1680    4.5550   45.2990 C   0  0  1  0  0  0  0  0  0  0  0  0
   50.0460    5.7400   45.6070 C   0  0  0  0  0  0  0  0  0  0  0  0
   51.0120    5.9180   44.4920 C   0  0  0  0  0  0  0  0  0  0  0  0
   51.9030    4.7130   44.3940 C   0  0  0  0  0  0  0  0  0  0  0  0
   48.1830    4.9550   44.2570 C   0  0  0  0  0  0  0  0  0  0  0  0
   47.2040    5.8310   44.4720 N   0  0  0  0  0  0  0  0  0  0  0  0
   46.3260    6.1660   43.5110 C   0  0  0  0  0  0  0  0  0  0  0  0
   45.2590    7.0090   43.4620 N   0  0  0  0  0  0  0  0  0  0  0  0
   44.7740    6.9260   42.2410 N   0  0  0  0  0  0  0  0  0  0  0  0
   45.4670    6.0790   41.5040 N   0  0  0  0  0  0  0  0  0  0  0  0
   46.4510    5.5780   42.2590 C   0  0  0  0  0  0  0  0  0  0  0  0
   47.4640    4.6660   42.0210 C   0  0  0  0  0  0  0  0  0  0  0  0
   48.2860    4.4010   43.0450 N   0  0  0  0  0  0  0  0  0  0  0  0
   47.6050    4.0670   40.7760 O   0  0  0  0  0  0  0  0  0  0  0  0
   44.7710    7.8210   44.5330 C   0  0  0  0  0  0  0  0  0  0  0  0
   43.7380    8.7990   44.1140 C   0  0  0  0  0  0  0  0  0  0  0  0
   42.4650    8.3450   43.8750 C   0  0  0  0  0  0  0  0  0  0  0  0
   41.4360    9.1960   43.4780 C   0  0  0  0  0  0  0  0  0  0  0  0
   41.6810   10.5420   43.3140 C   0  0  0  0  0  0  0  0  0  0  0  0
   42.9560   11.0050   43.5530 C   0  0  0  0  0  0  0  0  0  0  0  0
   43.9780   10.1450   43.9490 C   0  0  0  0  0  0  0  0  0  0  0  0
   42.0860    6.6460   44.0650 Cl  0  0  0  0  0  0  0  0  0  0  0  0
   50.8200    0.7440   43.9240 C   0  0  0  0  0  0  0  0  0  0  0  0
   49.8670    2.6070   45.8080 H   0  0  0  0  0  0  0  0  0  0  0  0
   49.4590    2.8510   44.1090 H   0  0  0  0  0  0  0  0  0  0  0  0
   48.6010    4.3640   46.2690 H   0  0  0  0  0  0  0  0  0  0  0  0
   49.4220    6.6380   45.8000 H   0  0  0  0  0  0  0  0  0  0  0  0
   50.6390    5.5540   46.5350 H   0  0  0  0  0  0  0  0  0  0  0  0
   51.6710    6.7950   44.7890 H   0  0  0  0  0  0  0  0  0  0  0  0
   50.5990    6.2050   43.5240 H   0  0  0  0  0  0  0  0  0  0  0  0
   52.3980    4.7570   43.3890 H   0  0  0  0  0  0  0  0  0  0  0  0
   52.7490    4.8710   45.1240 H   0  0  0  0  0  0  0  0  0  0  0  0
   46.9010    3.4280   40.4400 H   0  0  0  0  0  0  0  0  0  0  0  0
   45.5710    8.4080   45.0400 H   0  0  0  0  0  0  0  0  0  0  0  0
   44.2630    7.1450   45.2790 H   0  0  0  0  0  0  0  0  0  0  0  0
   40.4290    8.8530   43.2860 H   0  0  0  0  0  0  0  0  0  0  0  0
   40.8750   11.2200   43.0010 H   0  0  0  0  0  0  0  0  0  0  0  0
   43.1520   12.0790   43.4220 H   0  0  0  0  0  0  0  0  0  0  0  0
   44.9720   10.5270   44.1320 H   0  0  0  0  0  0  0  0  0  0  0  0
   50.6810    0.3600   44.9430 H   0  0  0  0  0  0  0  0  0  0  0  0
   49.8860    1.1330   43.4700 H   0  0  0  0  0  0  0  0  0  0  0  0
   51.2980   -0.0590   43.3270 H   0  0  0  0  0  0  0  0  0  0  0  0
  1 28  1  0  0  0  0
  1  2  2  0  0  0  0
  1  4  1  0  0  0  0
  3  1  2  0  0  0  0
  4  5  1  0  0  0  0
  5  6  1  0  0  0  0
  5 29  1  0  0  0  0
  6  7  1  0  0  0  0
  6 31  1  1  0  0  0
  7 32  1  0  0  0  0
  7 33  1  0  0  0  0
  8 34  1  0  0  0  0
  8  7  1  0  0  0  0
  9  8  1  0  0  0  0
  9  4  1  0  0  0  0
  9 37  1  0  0  0  0
 10 11  2  0  0  0  0
 10  6  1  0  0  0  0
 12 11  1  0  0  0  0
 13 12  1  0  0  0  0
 13 20  1  0  0  0  0
 14 13  1  0  0  0  0
 15 14  2  0  0  0  0
 15 16  1  0  0  0  0
 16 12  2  0  0  0  0
 17 16  1  0  0  0  0
 17 18  2  0  0  0  0
 18 10  1  0  0  0  0
 19 17  1  0  0  0  0
 20 39  1  0  0  0  0
 20 40  1  0  0  0  0
 21 20  1  0  0  0  0
 22 27  1  0  0  0  0
 22 21  2  0  0  0  0
 23 22  1  0  0  0  0
 24 23  2  0  0  0  0
 24 25  1  0  0  0  0
 25 26  2  0  0  0  0
 26 21  1  0  0  0  0
 26 44  1  0  0  0  0
 28 45  1  0  0  0  0
 30  5  1  0  0  0  0
 35  8  1  0  0  0  0
 36  9  1  0  0  0  0
 38 19  1  0  0  0  0
 41 23  1  0  0  0  0
 42 24  1  0  0  0  0
 43 25  1  0  0  0  0
 46 28  1  0  0  0  0
 47 28  1  0  0  0  0
M  END
>  <Pose>
1

>  <Score>
-5.68

$$$$
