
 OpenBabel03172210433D

 56 59  0  0  0  0  0  0  0  0999 V2000
   45.6110    6.8900   43.0640 B   0  0  0  0  0  0  0  0  0  0  0  0
   44.1360    8.0280   43.4640 C   0  0  0  0  0  0  0  0  0  0  0  0
   44.3620    9.3860   43.7470 C   0  0  0  0  0  0  0  0  0  0  0  0
   43.3040   10.1740   44.0290 C   0  0  0  0  0  0  0  0  0  0  0  0
   42.0170    9.6840   44.0420 C   0  0  0  0  0  0  0  0  0  0  0  0
   41.8140    8.3260   43.7530 C   0  0  0  0  0  0  0  0  0  0  0  0
   42.8740    7.4890   43.4650 C   0  0  0  0  0  0  0  0  0  0  0  0
   40.9540   10.5270   44.3290 O   0  0  0  0  0  0  0  0  0  0  0  0
   40.5480   11.6240   43.5880 C   0  0  0  0  0  0  0  0  0  0  0  0
   43.5120   11.6180   44.2310 C   0  0  0  0  0  0  0  0  0  0  0  0
   43.9820   11.9600   45.4380 C   0  0  0  0  0  0  0  0  0  0  0  0
   44.2540   11.0490   46.4530 O   0  0  0  0  0  0  0  0  0  0  0  0
   44.7580   11.7470   47.5590 C   0  0  0  0  0  0  0  0  0  0  0  0
   44.8340   13.0880   47.3370 C   0  0  0  0  0  0  0  0  0  0  0  0
   45.3230   13.9570   48.2840 C   0  0  0  0  0  0  0  0  0  0  0  0
   45.7580   13.4680   49.5110 C   0  0  0  0  0  0  0  0  0  0  0  0
   45.6750   12.0920   49.7330 C   0  0  0  0  0  0  0  0  0  0  0  0
   45.1890   11.2390   48.7960 C   0  0  0  0  0  0  0  0  0  0  0  0
   44.8960    9.8090   49.0290 C   0  0  0  0  0  0  0  0  0  0  0  0
   45.9870    9.0770   49.4730 N   0  0  0  0  0  4  0  0  0  0  0  0
   46.5880    8.2440   48.3840 C   0  0  0  0  0  0  0  0  0  0  0  0
   48.1050    8.5470   48.4760 C   0  0  0  0  0  0  0  0  0  0  0  0
   48.3860    9.1710   49.7300 N   0  0  0  0  0  0  0  0  0  0  0  0
   47.8220    8.5480   50.8620 C   0  0  0  0  0  0  0  0  0  0  0  0
   46.2450    8.4480   50.6820 C   0  0  0  0  0  0  0  0  0  0  0  0
   49.1520   10.3150   49.7550 C   0  0  0  0  0  0  0  0  0  0  0  0
   50.6340   10.2410   49.5650 C   0  0  0  0  0  0  0  0  0  0  0  0
   50.9600   10.0650   48.2100 O   0  0  0  0  0  0  0  0  0  0  0  0
   46.1300   11.6830   50.9870 O   0  0  0  0  0  0  0  0  0  0  0  0
   44.3240   13.2710   45.9460 C   0  0  0  0  0  0  0  0  0  0  0  0
   44.2080   14.3440   45.3380 O   0  0  0  0  0  0  0  0  0  0  0  0
   45.3920    9.7040   43.7060 H   0  0  0  0  0  0  0  0  0  0  0  0
   40.8230    7.9000   43.7540 H   0  0  0  0  0  0  0  0  0  0  0  0
   42.6670    6.4240   43.2510 H   0  0  0  0  0  0  0  0  0  0  0  0
   40.2790   11.4300   42.5500 H   0  0  0  0  0  0  0  0  0  0  0  0
   39.6410   12.0630   44.0820 H   0  0  0  0  0  0  0  0  0  0  0  0
   41.3370   12.4340   43.5990 H   0  0  0  0  0  0  0  0  0  0  0  0
   43.2950   12.3490   43.4940 H   0  0  0  0  0  0  0  0  0  0  0  0
   45.3630   15.0220   48.0590 H   0  0  0  0  0  0  0  0  0  0  0  0
   46.1330   14.1680   50.2440 H   0  0  0  0  0  0  0  0  0  0  0  0
   44.0270    9.7710   49.7790 H   0  0  0  0  0  0  0  0  0  0  0  0
   44.4040    9.3980   48.1080 H   0  0  0  0  0  0  0  0  0  0  0  0
   46.7600    9.9230   49.4340 H   0  0  0  0  0  0  0  0  0  0  0  0
   46.1770    8.5610   47.4140 H   0  0  0  0  0  0  0  0  0  0  0  0
   46.3980    7.1900   48.6360 H   0  0  0  0  0  0  0  0  0  0  0  0
   48.6390    7.5930   48.3570 H   0  0  0  0  0  0  0  0  0  0  0  0
   48.3330    9.2130   47.6510 H   0  0  0  0  0  0  0  0  0  0  0  0
   48.1470    7.4970   50.8730 H   0  0  0  0  0  0  0  0  0  0  0  0
   48.0670    9.0200   51.7890 H   0  0  0  0  0  0  0  0  0  0  0  0
   45.9820    7.3480   50.5790 H   0  0  0  0  0  0  0  0  0  0  0  0
   45.8130    8.7980   51.6120 H   0  0  0  0  0  0  0  0  0  0  0  0
   48.7970   11.0490   48.9310 H   0  0  0  0  0  0  0  0  0  0  0  0
   48.9500   10.9240   50.6880 H   0  0  0  0  0  0  0  0  0  0  0  0
   51.1670    9.5030   50.1600 H   0  0  0  0  0  0  0  0  0  0  0  0
   51.0740   11.2430   49.8550 H   0  0  0  0  0  0  0  0  0  0  0  0
   51.6530   10.7570   47.9520 H   0  0  0  0  0  0  0  0  0  0  0  0
  1  2  1  0  0  0  0
  2  7  2  0  0  0  0
  2  3  1  0  0  0  0
  3  4  2  0  0  0  0
  4  5  1  0  0  0  0
  4 10  1  0  0  0  0
  5  8  1  0  0  0  0
  6 33  1  0  0  0  0
  6  5  2  0  0  0  0
  7  6  1  0  0  0  0
  9 37  1  0  0  0  0
  9 36  1  0  0  0  0
  9  8  1  0  0  0  0
 10 11  2  0  0  0  0
 11 30  1  0  0  0  0
 11 12  1  0  0  0  0
 12 13  1  0  0  0  0
 13 18  1  0  0  0  0
 14 13  2  0  0  0  0
 14 15  1  0  0  0  0
 15 16  2  0  0  0  0
 16 17  1  0  0  0  0
 16 40  1  0  0  0  0
 17 29  1  0  0  0  0
 18 19  1  0  0  0  0
 18 17  2  0  0  0  0
 19 20  1  0  0  0  0
 19 41  1  0  0  0  0
 20 25  1  0  0  0  0
 21 22  1  0  0  0  0
 21 45  1  0  0  0  0
 21 20  1  0  0  0  0
 22 23  1  0  0  0  0
 23 26  1  0  0  0  0
 23 24  1  0  0  0  0
 24 48  1  0  0  0  0
 24 49  1  0  0  0  0
 25 24  1  0  0  0  0
 25 51  1  0  0  0  0
 26 53  1  0  0  0  0
 27 26  1  0  0  0  0
 27 55  1  0  0  0  0
 27 54  1  0  0  0  0
 28 27  1  0  0  0  0
 30 14  1  0  0  0  0
 31 30  2  0  0  0  0
 32  3  1  0  0  0  0
 34  7  1  0  0  0  0
 35  9  1  0  0  0  0
 38 10  1  0  0  0  0
 39 15  1  0  0  0  0
 42 19  1  0  0  0  0
 43 20  1  0  0  0  0
 44 21  1  0  0  0  0
 46 22  1  0  0  0  0
 47 22  1  0  0  0  0
 50 25  1  0  0  0  0
 52 26  1  0  0  0  0
 56 28  1  0  0  0  0
M  END
>  <Pose>
1

>  <Score>
-5.04

$$$$
