
 OpenBabel03172210433D

 46 49  0  0  1  0  0  0  0  0999 V2000
   41.1970    8.6280   42.3550 Cl  0  0  0  0  0  0  0  0  0  0  0  0
   42.5330    8.4290   43.4680 C   0  0  0  0  0  0  0  0  0  0  0  0
   42.3180    8.7360   44.8200 C   0  0  0  0  0  0  0  0  0  0  0  0
   43.3440    8.5910   45.7160 C   0  0  0  0  0  0  0  0  0  0  0  0
   44.5700    8.1350   45.2170 C   0  0  0  0  0  0  0  0  0  0  0  0
   44.7690    7.8380   43.8870 C   0  0  0  0  0  0  0  0  0  0  0  0
   43.7360    7.9830   42.9790 C   0  0  0  0  0  0  0  0  0  0  0  0
   46.3190    7.2660   43.2830 Cl  0  0  0  0  0  0  0  0  0  0  0  0
   43.2100    8.8880   47.1500 C   0  0  2  0  0  0  0  0  0  0  0  0
   41.8480    9.3510   47.4690 C   0  0  0  0  0  0  0  0  0  0  0  0
   40.8430    9.4880   46.5640 C   0  0  0  0  0  0  0  0  0  0  0  0
   39.5970    9.9210   46.9130 N   0  0  0  0  0  0  0  0  0  0  0  0
   39.3840   10.2150   48.1930 C   0  0  0  0  0  0  0  0  0  0  0  0
   38.2390   10.6230   48.5660 O   0  0  0  0  0  0  0  0  0  0  0  0
   40.3520   10.0930   49.1250 N   0  0  0  0  0  0  0  0  0  0  0  0
   41.5760    9.6680   48.7940 C   0  0  0  0  0  0  0  0  0  0  0  0
   42.4790    9.5550   49.6620 O   0  0  0  0  0  0  0  0  0  0  0  0
   40.0550   10.4280   50.5100 C   0  0  0  0  0  0  0  0  0  0  0  0
   38.5500   10.0570   45.9240 C   0  0  0  0  0  0  0  0  0  0  0  0
   41.0830    9.1810   45.2520 O   0  0  0  0  0  0  0  0  0  0  0  0
   44.2460    9.8740   47.6040 C   0  0  0  0  0  0  0  0  0  0  0  0
   44.1780   11.2050   47.2710 C   0  0  0  0  0  0  0  0  0  0  0  0
   45.0950   12.1080   47.6530 N   0  0  0  0  0  0  0  0  0  0  0  0
   46.1320   11.6830   48.3990 C   0  0  0  0  0  0  0  0  0  0  0  0
   46.9920   12.5420   48.7530 O   0  0  0  0  0  0  0  0  0  0  0  0
   46.2390   10.3880   48.7480 N   0  0  0  0  0  0  0  0  0  0  0  0
   45.3330    9.4720   48.3780 C   0  0  0  0  0  0  0  0  0  0  0  0
   45.4050    8.2590   48.6880 O   0  0  0  0  0  0  0  0  0  0  0  0
   47.3710    9.9810   49.5480 C   0  0  0  0  0  0  0  0  0  0  0  0
   44.9930   13.5090   47.2890 C   0  0  0  0  0  0  0  0  0  0  0  0
   43.1150   11.6400   46.5060 O   0  0  0  0  0  0  0  0  0  0  0  0
   45.3850    8.0180   45.9210 H   0  0  0  0  0  0  0  0  0  0  0  0
   43.8580    7.7580   41.9320 H   0  0  0  0  0  0  0  0  0  0  0  0
   43.3830    7.9590   47.7660 H   0  0  0  0  0  0  0  0  0  0  0  0
   39.0100   10.8320   50.5840 H   0  0  0  0  0  0  0  0  0  0  0  0
   40.7700   11.1420   50.9460 H   0  0  0  0  0  0  0  0  0  0  0  0
   40.0520    9.5310   51.1690 H   0  0  0  0  0  0  0  0  0  0  0  0
   38.9560    9.9040   44.8920 H   0  0  0  0  0  0  0  0  0  0  0  0
   38.1070   11.0750   45.9200 H   0  0  0  0  0  0  0  0  0  0  0  0
   37.7950    9.2700   46.1020 H   0  0  0  0  0  0  0  0  0  0  0  0
   47.0640    9.2120   50.2710 H   0  0  0  0  0  0  0  0  0  0  0  0
   47.8070   10.8290   50.1160 H   0  0  0  0  0  0  0  0  0  0  0  0
   48.2160    9.6180   48.8930 H   0  0  0  0  0  0  0  0  0  0  0  0
   44.9150   14.0770   48.2620 H   0  0  0  0  0  0  0  0  0  0  0  0
   45.9230   13.8940   46.8120 H   0  0  0  0  0  0  0  0  0  0  0  0
   44.0810   13.7270   46.7310 H   0  0  0  0  0  0  0  0  0  0  0  0
  1  2  1  0  0  0  0
  2  3  1  0  0  0  0
  3 20  1  0  0  0  0
  3  4  2  0  0  0  0
  4  9  1  0  0  0  0
  5  4  1  0  0  0  0
  5 32  1  0  0  0  0
  6  5  2  0  0  0  0
  7  2  2  0  0  0  0
  7  6  1  0  0  0  0
  8  6  1  0  0  0  0
  9 10  1  0  0  0  0
  9 21  1  0  0  0  0
  9 34  1  1  0  0  0
 10 16  1  0  0  0  0
 11 12  1  0  0  0  0
 11 10  2  0  0  0  0
 12 13  1  0  0  0  0
 13 14  2  0  0  0  0
 13 15  1  0  0  0  0
 15 18  1  0  0  0  0
 16 15  1  0  0  0  0
 16 17  2  0  0  0  0
 18 35  1  0  0  0  0
 18 36  1  0  0  0  0
 18 37  1  0  0  0  0
 19 40  1  0  0  0  0
 19 12  1  0  0  0  0
 20 11  1  0  0  0  0
 21 27  1  0  0  0  0
 22 21  1  0  0  0  0
 22 23  1  0  0  0  0
 23 24  1  0  0  0  0
 24 26  1  0  0  0  0
 24 25  2  0  0  0  0
 26 29  1  0  0  0  0
 27 28  2  0  0  0  0
 27 26  1  0  0  0  0
 29 42  1  0  0  0  0
 29 41  1  0  0  0  0
 30 23  1  0  0  0  0
 30 44  1  0  0  0  0
 31 22  2  0  0  0  0
 33  7  1  0  0  0  0
 38 19  1  0  0  0  0
 39 19  1  0  0  0  0
 43 29  1  0  0  0  0
 45 30  1  0  0  0  0
 46 30  1  0  0  0  0
M  END
>  <Pose>
1

>  <Score>
-4.77

$$$$
