
 OpenBabel03172210433D

 45 48  0  0  0  0  0  0  0  0999 V2000
   41.5420    9.2210   42.7120 Cl  0  0  0  0  0  0  0  0  0  0  0  0
   42.7150    8.0170   43.2000 C   0  0  0  0  0  0  0  0  0  0  0  0
   43.7650    7.7560   42.3650 C   0  0  0  0  0  0  0  0  0  0  0  0
   44.7200    6.8290   42.6780 C   0  0  0  0  0  0  0  0  0  0  0  0
   44.6000    6.1560   43.8650 C   0  0  0  0  0  0  0  0  0  0  0  0
   43.5180    6.4290   44.7200 C   0  0  0  0  0  0  0  0  0  0  0  0
   42.5570    7.3520   44.4180 C   0  0  0  0  0  0  0  0  0  0  0  0
   41.4530    7.6940   45.2100 N   0  0  0  0  0  0  0  0  0  0  0  0
   41.4610    7.7750   46.6050 C   0  0  0  0  0  0  0  0  0  0  0  0
   42.3280    7.2380   47.3090 O   0  0  0  0  0  0  0  0  0  0  0  0
   40.4000    8.5330   47.3230 C   0  0  0  0  0  0  0  0  0  0  0  0
   39.7710    9.4740   46.6900 N   0  0  0  0  0  0  0  0  0  0  0  0
   38.7660   10.2310   47.2880 N   0  0  0  0  0  0  0  0  0  0  0  0
   38.4170    9.9660   48.6280 C   0  0  0  0  0  0  0  0  0  0  0  0
   37.4310   10.6240   49.1050 O   0  0  0  0  0  0  0  0  0  0  0  0
   39.1380    8.9820   49.4600 C   0  0  0  0  0  0  0  0  0  0  0  0
   40.0660    8.2490   48.6710 N   0  0  0  0  0  0  0  0  0  0  0  0
   38.0890   11.2790   46.5510 C   0  0  0  0  0  0  0  0  0  0  0  0
   38.4990   12.5880   46.6220 C   0  0  0  0  0  0  0  0  0  0  0  0
   37.8320   13.5800   45.8960 C   0  0  0  0  0  0  0  0  0  0  0  0
   36.7500   13.2680   45.0990 C   0  0  0  0  0  0  0  0  0  0  0  0
   36.3510   11.9520   45.0390 C   0  0  0  0  0  0  0  0  0  0  0  0
   37.0070   10.9900   45.7480 C   0  0  0  0  0  0  0  0  0  0  0  0
   36.0060   14.2890   44.3020 C   0  0  0  0  0  0  0  0  0  0  0  0
   45.5280    5.1960   44.2600 O   0  0  0  0  0  0  0  0  0  0  0  0
   46.8330    5.1040   43.6700 C   0  0  0  0  0  0  0  0  0  0  0  0
   46.7810    5.5670   42.2520 C   0  0  0  0  0  0  0  0  0  0  0  0
   47.5930    5.0750   41.4340 O   0  0  0  0  0  0  0  0  0  0  0  0
   45.8360    6.5430   41.8270 N   0  0  0  0  0  0  0  0  0  0  0  0
   43.8980    8.2750   41.4030 H   0  0  0  0  0  0  0  0  0  0  0  0
   43.4610    5.8750   45.6480 H   0  0  0  0  0  0  0  0  0  0  0  0
   40.5360    7.9070   44.7060 H   0  0  0  0  0  0  0  0  0  0  0  0
   39.7440    9.5470   50.2280 H   0  0  0  0  0  0  0  0  0  0  0  0
   38.4280    8.3360   50.0180 H   0  0  0  0  0  0  0  0  0  0  0  0
   40.5560    7.4250   49.1080 H   0  0  0  0  0  0  0  0  0  0  0  0
   39.3480   12.8370   47.2460 H   0  0  0  0  0  0  0  0  0  0  0  0
   38.1560   14.5940   45.9540 H   0  0  0  0  0  0  0  0  0  0  0  0
   35.4880   11.7120   44.4000 H   0  0  0  0  0  0  0  0  0  0  0  0
   36.6610    9.9620   45.6730 H   0  0  0  0  0  0  0  0  0  0  0  0
   34.9130   14.1860   44.4160 H   0  0  0  0  0  0  0  0  0  0  0  0
   36.2930   15.3130   44.5600 H   0  0  0  0  0  0  0  0  0  0  0  0
   36.2510   14.1390   43.2190 H   0  0  0  0  0  0  0  0  0  0  0  0
   47.4630    5.8450   44.2300 H   0  0  0  0  0  0  0  0  0  0  0  0
   47.2320    4.0870   43.7690 H   0  0  0  0  0  0  0  0  0  0  0  0
   45.9520    7.0380   40.9210 H   0  0  0  0  0  0  0  0  0  0  0  0
  1  2  1  0  0  0  0
  2  7  1  0  0  0  0
  3  4  1  0  0  0  0
  3  2  2  0  0  0  0
  4  5  2  0  0  0  0
  5 25  1  0  0  0  0
  5  6  1  0  0  0  0
  6 31  1  0  0  0  0
  7  6  2  0  0  0  0
  7  8  1  0  0  0  0
  8  9  1  0  0  0  0
  9 10  2  0  0  0  0
  9 11  1  0  0  0  0
 11 17  1  0  0  0  0
 12 13  1  0  0  0  0
 12 11  2  0  0  0  0
 13 14  1  0  0  0  0
 14 15  2  0  0  0  0
 14 16  1  0  0  0  0
 16 34  1  0  0  0  0
 16 33  1  0  0  0  0
 17 35  1  0  0  0  0
 17 16  1  0  0  0  0
 18 19  1  0  0  0  0
 18 13  1  0  0  0  0
 19 36  1  0  0  0  0
 20 37  1  0  0  0  0
 20 19  2  0  0  0  0
 21 20  1  0  0  0  0
 22 21  2  0  0  0  0
 22 23  1  0  0  0  0
 23 18  2  0  0  0  0
 24 40  1  0  0  0  0
 24 41  1  0  0  0  0
 24 21  1  0  0  0  0
 26 44  1  0  0  0  0
 26 43  1  0  0  0  0
 26 25  1  0  0  0  0
 27 26  1  0  0  0  0
 28 27  2  0  0  0  0
 29 27  1  0  0  0  0
 29  4  1  0  0  0  0
 30  3  1  0  0  0  0
 32  8  1  0  0  0  0
 38 22  1  0  0  0  0
 39 23  1  0  0  0  0
 42 24  1  0  0  0  0
 45 29  1  0  0  0  0
M  END
>  <Pose>
1

>  <Score>
-6.72

$$$$
