
 OpenBabel03172210433D

 41 44  0  0  1  0  0  0  0  0999 V2000
   47.1430    5.3320   43.0260 S   0  0  0  0  0  0  0  0  0  0  0  0
   46.7050    4.6970   41.7140 O   0  0  0  0  0  0  0  0  0  0  0  0
   47.7730    6.6570   42.6080 O   0  0  0  0  0  0  0  0  0  0  0  0
   45.8390    5.6740   44.0230 N   0  0  0  0  0  0  0  0  0  0  0  0
   44.7160    4.8270   43.9590 C   0  0  0  0  0  0  0  0  0  0  0  0
   43.5020    5.3580   44.6950 C   0  0  0  0  0  0  0  0  0  0  0  0
   43.2800    6.7420   44.1790 C   0  0  1  0  0  0  0  0  0  0  0  0
   44.3910    7.5560   44.0980 C   0  0  0  0  0  0  0  0  0  0  0  0
   44.2600    8.8030   43.6450 N   0  0  0  0  0  0  0  0  0  0  0  0
   43.0330    9.2260   43.2790 C   0  0  2  0  0  0  0  0  0  0  0  0
   41.9350    8.4530   43.3470 N   0  0  0  0  0  0  0  0  0  0  0  0
   40.8590    9.1380   42.9170 N   0  0  0  0  0  0  0  0  0  0  0  0
   41.2190   10.3780   42.5550 C   0  0  0  0  0  0  0  0  0  0  0  0
   42.5750   10.4500   42.7740 C   0  0  0  0  0  0  0  0  0  0  0  0
   42.0310    7.1840   43.8010 C   0  0  0  0  0  0  0  0  0  0  0  0
   41.0410    6.4130   43.8890 O   0  0  0  0  0  0  0  0  0  0  0  0
   45.6840    6.9740   44.5320 C   0  0  0  0  0  0  0  0  0  0  0  0
   48.3800    4.3330   43.6850 C   0  0  0  0  0  0  0  0  0  0  0  0
   48.9080    4.5910   44.9480 C   0  0  0  0  0  0  0  0  0  0  0  0
   49.8990    3.7720   45.4440 C   0  0  0  0  0  0  0  0  0  0  0  0
   50.3830    2.7150   44.7460 C   0  0  0  0  0  0  0  0  0  0  0  0
   49.8860    2.4360   43.5040 C   0  0  0  0  0  0  0  0  0  0  0  0
   48.8940    3.2540   43.0060 C   0  0  0  0  0  0  0  0  0  0  0  0
   50.4980    1.0650   42.5720 Cl  0  0  0  0  0  0  0  0  0  0  0  0
   48.4730    5.6410   45.7210 O   0  0  0  0  0  0  0  0  0  0  0  0
   49.2700    6.0750   46.8000 C   0  0  0  0  0  0  0  0  0  0  0  0
   44.9830    3.8270   44.3810 H   0  0  0  0  0  0  0  0  0  0  0  0
   44.4450    4.6400   42.8860 H   0  0  0  0  0  0  0  0  0  0  0  0
   43.7220    5.3520   45.7850 H   0  0  0  0  0  0  0  0  0  0  0  0
   42.6600    4.6870   44.4510 H   0  0  0  0  0  0  0  0  0  0  0  0
   39.8950    8.7350   42.8820 H   0  0  0  0  0  0  0  0  0  0  0  0
   40.5990   11.1850   42.1660 H   0  0  0  0  0  0  0  0  0  0  0  0
   43.2530   11.3000   42.6040 H   0  0  0  0  0  0  0  0  0  0  0  0
   45.6210    6.9080   45.6580 H   0  0  0  0  0  0  0  0  0  0  0  0
   46.5420    7.6080   44.3170 H   0  0  0  0  0  0  0  0  0  0  0  0
   50.3380    3.9490   46.4390 H   0  0  0  0  0  0  0  0  0  0  0  0
   51.1740    2.0670   45.1470 H   0  0  0  0  0  0  0  0  0  0  0  0
   48.5330    2.9790   42.0010 H   0  0  0  0  0  0  0  0  0  0  0  0
   49.5130    5.2360   47.4880 H   0  0  0  0  0  0  0  0  0  0  0  0
   50.2480    6.4930   46.4490 H   0  0  0  0  0  0  0  0  0  0  0  0
   48.7770    6.9160   47.3450 H   0  0  0  0  0  0  0  0  0  0  0  0
  1 18  1  0  0  0  0
  1  4  1  0  0  0  0
  2  1  2  0  0  0  0
  3  1  2  0  0  0  0
  4 17  1  0  0  0  0
  5  4  1  0  0  0  0
  5 27  1  0  0  0  0
  5  6  1  0  0  0  0
  6 29  1  0  0  0  0
  7 15  1  6  0  0  0
  7  6  1  0  0  0  0
  8  7  1  0  0  0  0
  8 17  1  0  0  0  0
  9  8  2  0  0  0  0
 10 14  1  6  0  0  0
 10 11  1  0  0  0  0
 10  9  1  0  0  0  0
 11 15  1  0  0  0  0
 12 11  1  0  0  0  0
 13 14  2  0  0  0  0
 13 12  1  0  0  0  0
 15 16  2  0  0  0  0
 17 34  1  0  0  0  0
 18 19  1  0  0  0  0
 19 20  2  0  0  0  0
 19 25  1  0  0  0  0
 20 36  1  0  0  0  0
 21 37  1  0  0  0  0
 21 20  1  0  0  0  0
 22 21  2  0  0  0  0
 23 22  1  0  0  0  0
 23 18  2  0  0  0  0
 24 22  1  0  0  0  0
 25 26  1  0  0  0  0
 26 41  1  0  0  0  0
 26 39  1  0  0  0  0
 28  5  1  0  0  0  0
 30  6  1  0  0  0  0
 31 12  1  0  0  0  0
 32 13  1  0  0  0  0
 33 14  1  0  0  0  0
 35 17  1  0  0  0  0
 38 23  1  0  0  0  0
 40 26  1  0  0  0  0
M  END
>  <Pose>
1

>  <Score>
-5.91

$$$$
