
 OpenBabel03172210433D

 41 44  0  0  1  0  0  0  0  0999 V2000
   44.4290    7.4010   44.4340 S   0  0  0  0  0  0  0  0  0  0  0  0
   43.6090    6.1530   44.6720 O   0  0  0  0  0  0  0  0  0  0  0  0
   45.0630    7.7570   45.7460 O   0  0  0  0  0  0  0  0  0  0  0  0
   45.5790    7.0940   43.2650 N   0  0  0  0  0  0  0  0  0  0  0  0
   45.2380    6.3250   42.1540 C   0  0  0  0  0  0  0  0  0  0  0  0
   46.3510    5.4240   41.6730 C   0  0  0  0  0  0  0  0  0  0  0  0
   47.2930    5.0220   42.7450 C   0  0  2  0  0  0  0  0  0  0  0  0
   47.5810    5.9620   43.7040 C   0  0  0  0  0  0  0  0  0  0  0  0
   48.4220    5.6890   44.7090 N   0  0  0  0  0  0  0  0  0  0  0  0
   49.0050    4.4480   44.7800 C   0  0  2  0  0  0  0  0  0  0  0  0
   48.7090    3.5380   43.8290 N   0  0  0  0  0  0  0  0  0  0  0  0
   49.3950    2.4300   44.1220 N   0  0  0  0  0  0  0  0  0  0  0  0
   50.1120    2.6100   45.2240 C   0  0  0  0  0  0  0  0  0  0  0  0
   49.8900    3.9060   45.6870 C   0  0  0  0  0  0  0  0  0  0  0  0
   47.8770    3.7570   42.8030 C   0  0  0  0  0  0  0  0  0  0  0  0
   47.6030    2.9090   41.9200 O   0  0  0  0  0  0  0  0  0  0  0  0
   46.9400    7.2830   43.6060 C   0  0  0  0  0  0  0  0  0  0  0  0
   43.2990    8.6720   44.0240 C   0  0  0  0  0  0  0  0  0  0  0  0
   43.4160    9.9650   44.5060 C   0  0  0  0  0  0  0  0  0  0  0  0
   42.4900   10.9330   44.1480 C   0  0  0  0  0  0  0  0  0  0  0  0
   41.4300   10.6640   43.3120 C   0  0  0  0  0  0  0  0  0  0  0  0
   41.3130    9.3770   42.8320 C   0  0  0  0  0  0  0  0  0  0  0  0
   42.2330    8.4150   43.1880 C   0  0  0  0  0  0  0  0  0  0  0  0
   40.5050   11.6600   42.9620 O   0  0  0  0  0  0  0  0  0  0  0  0
   39.7120   12.2630   43.9670 C   0  0  0  0  0  0  0  0  0  0  0  0
   42.6530   12.5640   44.7670 Cl  0  0  0  0  0  0  0  0  0  0  0  0
   44.2890    5.7450   42.3010 H   0  0  0  0  0  0  0  0  0  0  0  0
   45.0240    7.0220   41.2890 H   0  0  0  0  0  0  0  0  0  0  0  0
   45.9610    4.5500   41.1110 H   0  0  0  0  0  0  0  0  0  0  0  0
   46.9840    5.9790   40.9190 H   0  0  0  0  0  0  0  0  0  0  0  0
   49.3800    1.5410   43.5720 H   0  0  0  0  0  0  0  0  0  0  0  0
   50.7600    1.9090   45.7070 H   0  0  0  0  0  0  0  0  0  0  0  0
   50.3290    4.3410   46.5550 H   0  0  0  0  0  0  0  0  0  0  0  0
   47.0070    7.8740   44.5270 H   0  0  0  0  0  0  0  0  0  0  0  0
   47.4380    7.8110   42.7410 H   0  0  0  0  0  0  0  0  0  0  0  0
   44.2540   10.1660   45.1620 H   0  0  0  0  0  0  0  0  0  0  0  0
   40.4710    9.1490   42.1640 H   0  0  0  0  0  0  0  0  0  0  0  0
   42.1210    7.4050   42.7970 H   0  0  0  0  0  0  0  0  0  0  0  0
   40.4320   12.6060   44.7650 H   0  0  0  0  0  0  0  0  0  0  0  0
   39.2600   13.2070   43.5810 H   0  0  0  0  0  0  0  0  0  0  0  0
   38.9560   11.5750   44.3740 H   0  0  0  0  0  0  0  0  0  0  0  0
  1  2  2  0  0  0  0
  1  3  2  0  0  0  0
  4 17  1  0  0  0  0
  4  1  1  0  0  0  0
  5 27  1  0  0  0  0
  5  4  1  0  0  0  0
  6  5  1  0  0  0  0
  6  7  1  0  0  0  0
  7 15  1  6  0  0  0
  7  8  1  0  0  0  0
  8  9  2  0  0  0  0
 10  9  1  1  0  0  0
 10 14  1  0  0  0  0
 11 12  1  0  0  0  0
 11 10  1  0  0  0  0
 12 13  1  0  0  0  0
 13 14  2  0  0  0  0
 13 32  1  0  0  0  0
 14 33  1  0  0  0  0
 15 11  1  0  0  0  0
 16 15  2  0  0  0  0
 17  8  1  0  0  0  0
 17 34  1  0  0  0  0
 18  1  1  0  0  0  0
 18 19  1  0  0  0  0
 19 36  1  0  0  0  0
 20 19  2  0  0  0  0
 20 26  1  0  0  0  0
 21 20  1  0  0  0  0
 22 23  1  0  0  0  0
 22 21  2  0  0  0  0
 23 18  2  0  0  0  0
 24 21  1  0  0  0  0
 24 25  1  0  0  0  0
 25 41  1  0  0  0  0
 25 39  1  0  0  0  0
 28  5  1  0  0  0  0
 29  6  1  0  0  0  0
 30  6  1  0  0  0  0
 31 12  1  0  0  0  0
 35 17  1  0  0  0  0
 37 22  1  0  0  0  0
 38 23  1  0  0  0  0
 40 25  1  0  0  0  0
M  END
>  <Pose>
1

>  <Score>
-6.53

$$$$
