
 OpenBabel03172210433D

 41 43  0  0  1  0  0  0  0  0999 V2000
   49.6210    3.1100   45.0460 Cl  0  0  0  0  0  0  0  0  0  0  0  0
   48.5130    4.3580   44.4820 C   0  0  0  0  0  0  0  0  0  0  0  0
   47.6780    4.0910   43.4180 C   0  0  0  0  0  0  0  0  0  0  0  0
   46.8190    5.0790   42.9920 C   0  0  0  0  0  0  0  0  0  0  0  0
   46.7530    6.3430   43.5880 C   0  0  0  0  0  0  0  0  0  0  0  0
   47.5840    6.5980   44.6400 C   0  0  0  0  0  0  0  0  0  0  0  0
   48.4630    5.6060   45.0870 C   0  0  0  0  0  0  0  0  0  0  0  0
   45.8080    7.2870   43.0480 C   0  0  0  0  0  0  0  0  0  0  0  0
   45.6010    7.3040   41.8020 O   0  0  0  0  0  0  0  0  0  0  0  0
   45.1270    8.1840   43.9270 N   0  0  0  0  0  0  0  0  0  0  0  0
   43.7070    8.3140   43.7840 C   0  0  0  0  0  0  0  0  0  0  0  0
   43.1100    9.6190   44.1290 C   0  0  2  0  0  0  0  0  0  0  0  0
   41.7410    9.6280   44.5440 N   0  0  1  0  0  0  0  0  0  0  0  0
   41.6670   10.6610   45.6060 C   0  0  0  0  0  0  0  0  0  0  0  0
   42.4210   11.8550   45.0100 C   0  0  0  0  0  0  0  0  0  0  0  0
   42.4510   11.8140   43.5620 N   0  0  1  0  0  0  0  0  0  0  0  0
   43.2490   10.6920   43.0610 C   0  0  0  0  0  0  0  0  0  0  0  0
   41.0940   11.5410   43.1220 C   0  0  0  0  0  0  0  0  0  0  0  0
   40.8040   10.1080   43.5490 C   0  0  0  0  0  0  0  0  0  0  0  0
   47.7200    2.8450   42.8070 O   0  0  0  0  0  0  0  0  0  0  0  0
   48.8930    2.3770   42.1690 C   0  0  0  0  0  0  0  0  0  0  0  0
   46.1750    4.8280   42.1490 H   0  0  0  0  0  0  0  0  0  0  0  0
   47.5880    7.5380   45.1450 H   0  0  0  0  0  0  0  0  0  0  0  0
   49.1120    5.8310   45.9220 H   0  0  0  0  0  0  0  0  0  0  0  0
   45.6740    8.6940   44.6200 H   0  0  0  0  0  0  0  0  0  0  0  0
   43.4030    8.0410   42.7630 H   0  0  0  0  0  0  0  0  0  0  0  0
   43.2510    7.5540   44.4820 H   0  0  0  0  0  0  0  0  0  0  0  0
   43.7510   10.0240   44.9840 H   0  0  0  0  0  0  0  0  0  0  0  0
   42.2260   10.2350   46.4590 H   0  0  0  0  0  0  0  0  0  0  0  0
   40.6220   10.8970   45.8200 H   0  0  0  0  0  0  0  0  0  0  0  0
   41.8080   12.7400   45.2830 H   0  0  0  0  0  0  0  0  0  0  0  0
   43.4060   11.9640   45.4760 H   0  0  0  0  0  0  0  0  0  0  0  0
   42.8380   10.4060   42.0930 H   0  0  0  0  0  0  0  0  0  0  0  0
   44.3150   11.0000   42.9800 H   0  0  0  0  0  0  0  0  0  0  0  0
   41.1000   11.6090   42.0170 H   0  0  0  0  0  0  0  0  0  0  0  0
   40.4480   12.2820   43.6070 H   0  0  0  0  0  0  0  0  0  0  0  0
   40.6220    9.4480   42.7100 H   0  0  0  0  0  0  0  0  0  0  0  0
   39.8150   10.1910   44.1040 H   0  0  0  0  0  0  0  0  0  0  0  0
   49.6720    2.2970   42.9570 H   0  0  0  0  0  0  0  0  0  0  0  0
   49.2710    3.1320   41.4300 H   0  0  0  0  0  0  0  0  0  0  0  0
   48.6970    1.4030   41.7220 H   0  0  0  0  0  0  0  0  0  0  0  0
  2  1  1  0  0  0  0
  2  7  1  0  0  0  0
  3  2  2  0  0  0  0
  4  3  1  0  0  0  0
  4  5  2  0  0  0  0
  5  6  1  0  0  0  0
  6  7  2  0  0  0  0
  6 23  1  0  0  0  0
  7 24  1  0  0  0  0
  8  5  1  0  0  0  0
  8 10  1  0  0  0  0
  9  8  2  0  0  0  0
 10 25  1  0  0  0  0
 11 10  1  0  0  0  0
 11 12  1  0  0  0  0
 11 27  1  0  0  0  0
 12 13  1  0  0  0  0
 12 28  1  1  0  0  0
 13 19  1  6  0  0  0
 13 14  1  0  0  0  0
 14 30  1  0  0  0  0
 14 29  1  0  0  0  0
 15 31  1  0  0  0  0
 15 32  1  0  0  0  0
 15 14  1  0  0  0  0
 16 17  1  1  0  0  0
 16 15  1  0  0  0  0
 17 12  1  0  0  0  0
 18 19  1  0  0  0  0
 18 16  1  0  0  0  0
 18 36  1  0  0  0  0
 19 38  1  0  0  0  0
 20  3  1  0  0  0  0
 21 20  1  0  0  0  0
 21 39  1  0  0  0  0
 22  4  1  0  0  0  0
 26 11  1  0  0  0  0
 33 17  1  0  0  0  0
 34 17  1  0  0  0  0
 35 18  1  0  0  0  0
 37 19  1  0  0  0  0
 40 21  1  0  0  0  0
 41 21  1  0  0  0  0
M  END
>  <Pose>
1

>  <Score>
-5.37

$$$$
