
 OpenBabel03172210433D

 47 50  0  0  1  0  0  0  0  0999 V2000
   45.8360   11.7430   49.2990 Cl  0  0  0  0  0  0  0  0  0  0  0  0
   44.5920   10.7940   48.5240 C   0  0  0  0  0  0  0  0  0  0  0  0
   44.1570    9.5710   49.0170 C   0  0  0  0  0  0  0  0  0  0  0  0
   43.1840    8.8450   48.3960 C   0  0  0  0  0  0  0  0  0  0  0  0
   42.5910    9.3090   47.2380 C   0  0  0  0  0  0  0  0  0  0  0  0
   43.0160   10.5170   46.7450 C   0  0  0  0  0  0  0  0  0  0  0  0
   44.0040   11.2520   47.3770 C   0  0  0  0  0  0  0  0  0  0  0  0
   41.5440    8.5230   46.6160 C   0  0  2  0  0  0  0  0  0  0  0  0
   41.4030    8.3660   45.2560 N   0  0  0  0  0  4  0  0  0  0  0  0
   40.9020    9.6400   44.7810 C   0  0  0  0  0  0  0  0  0  0  0  0
   41.1470   10.4180   43.7770 C   0  0  0  0  0  0  0  0  0  0  0  0
   40.4570   11.6980   43.5390 C   0  0  0  0  0  0  0  0  0  0  0  0
   39.4410   12.0830   44.5550 C   0  0  0  0  0  0  0  0  0  0  0  0
   38.9000   10.9450   45.3540 C   0  0  0  0  0  0  0  0  0  0  0  0
   39.9230    9.9970   45.7400 N   0  0  0  0  0  0  0  0  0  0  0  0
   40.2200    9.2610   46.9660 C   0  0  0  0  0  0  0  0  0  0  0  0
   42.3670    7.8170   44.4250 C   0  0  0  0  0  0  0  0  0  0  0  0
   42.3080    6.6300   43.7770 C   0  0  0  0  0  0  0  0  0  0  0  0
   43.3600    6.2170   42.9610 C   0  0  0  0  0  0  0  0  0  0  0  0
   44.4980    6.9810   42.7710 C   0  0  0  0  0  0  0  0  0  0  0  0
   44.5300    8.1850   43.4430 C   0  0  0  0  0  0  0  0  0  0  0  0
   43.5130    8.6190   44.2520 C   0  0  0  0  0  0  0  0  0  0  0  0
   45.5210    6.5330   41.9510 O   0  0  0  0  0  0  0  0  0  0  0  0
   46.4390    5.5930   42.4470 C   0  0  0  0  0  0  0  0  0  0  0  0
   41.3980    7.2880   47.3100 O   0  0  0  0  0  0  0  0  0  0  0  0
   44.6450    9.2260   49.9380 H   0  0  0  0  0  0  0  0  0  0  0  0
   42.9040    7.8920   48.8570 H   0  0  0  0  0  0  0  0  0  0  0  0
   42.6140   10.9790   45.8580 H   0  0  0  0  0  0  0  0  0  0  0  0
   44.3380   12.2190   46.9770 H   0  0  0  0  0  0  0  0  0  0  0  0
   40.5270    7.7400   45.1160 H   0  0  0  0  0  0  0  0  0  0  0  0
   41.9050   10.1630   43.0450 H   0  0  0  0  0  0  0  0  0  0  0  0
   40.0740   11.7660   42.4900 H   0  0  0  0  0  0  0  0  0  0  0  0
   41.2770   12.4790   43.5620 H   0  0  0  0  0  0  0  0  0  0  0  0
   38.5860   12.5680   44.0010 H   0  0  0  0  0  0  0  0  0  0  0  0
   39.8380   12.8370   45.2900 H   0  0  0  0  0  0  0  0  0  0  0  0
   38.0910   10.4320   44.7590 H   0  0  0  0  0  0  0  0  0  0  0  0
   38.4080   11.3070   46.2770 H   0  0  0  0  0  0  0  0  0  0  0  0
   39.4110    8.5130   47.0920 H   0  0  0  0  0  0  0  0  0  0  0  0
   40.3450    9.9170   47.8300 H   0  0  0  0  0  0  0  0  0  0  0  0
   41.4320    6.0150   43.9010 H   0  0  0  0  0  0  0  0  0  0  0  0
   43.2480    5.2500   42.4690 H   0  0  0  0  0  0  0  0  0  0  0  0
   45.4380    8.7750   43.2770 H   0  0  0  0  0  0  0  0  0  0  0  0
   43.6010    9.5970   44.7450 H   0  0  0  0  0  0  0  0  0  0  0  0
   47.0840    6.0460   43.2270 H   0  0  0  0  0  0  0  0  0  0  0  0
   47.0280    5.1210   41.6320 H   0  0  0  0  0  0  0  0  0  0  0  0
   45.9230    4.7250   42.9480 H   0  0  0  0  0  0  0  0  0  0  0  0
   40.4550    7.0150   47.1680 H   0  0  0  0  0  0  0  0  0  0  0  0
  2  3  1  0  0  0  0
  2  1  1  0  0  0  0
  3 26  1  0  0  0  0
  4 27  1  0  0  0  0
  4  3  2  0  0  0  0
  5  4  1  0  0  0  0
  6  5  2  0  0  0  0
  6  7  1  0  0  0  0
  7  2  2  0  0  0  0
  8 16  1  0  0  0  0
  8  5  1  0  0  0  0
  8 25  1  1  0  0  0
  9  8  1  0  0  0  0
 10  9  1  0  0  0  0
 10 15  1  0  0  0  0
 11 10  2  0  0  0  0
 12 33  1  0  0  0  0
 12 11  1  0  0  0  0
 12 13  1  0  0  0  0
 13 35  1  0  0  0  0
 13 14  1  0  0  0  0
 14 15  1  0  0  0  0
 14 37  1  0  0  0  0
 15 16  1  0  0  0  0
 16 38  1  0  0  0  0
 16 39  1  0  0  0  0
 17  9  1  0  0  0  0
 18 40  1  0  0  0  0
 18 17  2  0  0  0  0
 19 18  1  0  0  0  0
 20 19  2  0  0  0  0
 20 21  1  0  0  0  0
 21 22  2  0  0  0  0
 22 17  1  0  0  0  0
 22 43  1  0  0  0  0
 23 24  1  0  0  0  0
 23 20  1  0  0  0  0
 24 46  1  0  0  0  0
 24 44  1  0  0  0  0
 28  6  1  0  0  0  0
 29  7  1  0  0  0  0
 30  9  1  0  0  0  0
 31 11  1  0  0  0  0
 32 12  1  0  0  0  0
 34 13  1  0  0  0  0
 36 14  1  0  0  0  0
 41 19  1  0  0  0  0
 42 21  1  0  0  0  0
 45 24  1  0  0  0  0
 47 25  1  0  0  0  0
M  END
>  <Pose>
1

>  <Score>
-4.76

$$$$
