
 OpenBabel03172210433D

 51 54  0  0  0  0  0  0  0  0999 V2000
   38.4010   13.0450   44.6580 Cl  0  0  0  0  0  0  0  0  0  0  0  0
   39.8020   12.0640   44.3030 C   0  0  0  0  0  0  0  0  0  0  0  0
   41.0590   12.5990   44.3630 C   0  0  0  0  0  0  0  0  0  0  0  0
   42.1640   11.7850   44.0860 C   0  0  0  0  0  0  0  0  0  0  0  0
   42.0320   10.4580   43.7530 C   0  0  0  0  0  0  0  0  0  0  0  0
   40.7450    9.8940   43.6900 C   0  0  0  0  0  0  0  0  0  0  0  0
   39.6750   10.7280   43.9700 C   0  0  0  0  0  0  0  0  0  0  0  0
   43.2280    9.9120   43.5530 N   0  0  0  0  0  0  0  0  0  0  0  0
   44.1260   10.9330   43.7670 C   0  0  0  0  0  0  0  0  0  0  0  0
   45.3830   10.8280   43.6720 O   0  0  0  0  0  0  0  0  0  0  0  0
   43.4510   12.0120   44.0770 O   0  0  0  0  0  0  0  0  0  0  0  0
   43.6250    8.5840   43.1190 C   0  0  0  0  0  0  0  0  0  0  0  0
   44.0170    7.6280   44.1510 C   0  0  0  0  0  0  0  0  0  0  0  0
   44.6280    6.3610   43.8330 C   0  0  0  0  0  0  0  0  0  0  0  0
   43.8850    5.3310   44.0580 O   0  0  0  0  0  0  0  0  0  0  0  0
   45.8900    6.0890   43.3010 N   0  0  0  0  0  0  0  0  0  0  0  0
   47.1240    5.9620   44.0990 C   0  0  0  0  0  0  0  0  0  0  0  0
   47.3440    4.4250   43.9420 C   0  0  0  0  0  0  0  0  0  0  0  0
   47.6630    4.1680   42.5450 N   0  0  0  0  0  0  0  0  0  0  0  0
   47.2520    5.0170   41.5670 C   0  0  0  0  0  0  0  0  0  0  0  0
   46.1250    5.9570   41.8890 C   0  0  0  0  0  0  0  0  0  0  0  0
   47.9960    2.8290   42.4230 C   0  0  0  0  0  0  0  0  0  0  0  0
   49.4610    2.5700   42.7760 C   0  0  0  0  0  0  0  0  0  0  0  0
   50.1790    2.2220   41.7620 O   0  0  0  0  0  0  0  0  0  0  0  0
   49.9050    2.6960   44.0210 N   0  0  0  0  0  0  0  0  0  0  0  0
   50.3770    2.8310   45.3470 C   0  0  0  0  0  0  0  0  0  0  0  0
   49.3460    3.4740   46.3500 C   0  0  0  0  0  0  0  0  0  0  0  0
   50.5080    4.2270   45.9180 C   0  0  0  0  0  0  0  0  0  0  0  0
   41.2030   13.6450   44.6190 H   0  0  0  0  0  0  0  0  0  0  0  0
   40.6710    8.8740   43.4270 H   0  0  0  0  0  0  0  0  0  0  0  0
   38.6910   10.2920   43.9150 H   0  0  0  0  0  0  0  0  0  0  0  0
   44.4770    8.7350   42.3880 H   0  0  0  0  0  0  0  0  0  0  0  0
   42.7230    8.2350   42.5150 H   0  0  0  0  0  0  0  0  0  0  0  0
   43.1010    7.3630   44.8050 H   0  0  0  0  0  0  0  0  0  0  0  0
   44.7520    8.1640   44.8510 H   0  0  0  0  0  0  0  0  0  0  0  0
   47.0380    6.2600   45.1170 H   0  0  0  0  0  0  0  0  0  0  0  0
   47.9740    6.4790   43.6160 H   0  0  0  0  0  0  0  0  0  0  0  0
   48.1660    4.1000   44.5780 H   0  0  0  0  0  0  0  0  0  0  0  0
   46.4570    3.8490   44.2030 H   0  0  0  0  0  0  0  0  0  0  0  0
   46.9690    4.4570   40.6210 H   0  0  0  0  0  0  0  0  0  0  0  0
   48.1580    5.6450   41.1960 H   0  0  0  0  0  0  0  0  0  0  0  0
   45.2310    5.7340   41.3150 H   0  0  0  0  0  0  0  0  0  0  0  0
   46.4780    6.9770   41.4840 H   0  0  0  0  0  0  0  0  0  0  0  0
   47.8430    2.4940   41.3690 H   0  0  0  0  0  0  0  0  0  0  0  0
   47.3650    2.1220   43.0420 H   0  0  0  0  0  0  0  0  0  0  0  0
   48.7810    2.1200   44.5220 H   0  0  0  0  0  0  0  0  0  0  0  0
   50.7960    1.9450   45.8770 H   0  0  0  0  0  0  0  0  0  0  0  0
   48.3470    3.4810   45.9480 H   0  0  0  0  0  0  0  0  0  0  0  0
   49.3900    3.0700   47.4060 H   0  0  0  0  0  0  0  0  0  0  0  0
   50.4290    5.1030   45.2150 H   0  0  0  0  0  0  0  0  0  0  0  0
   51.3060    4.4330   46.6850 H   0  0  0  0  0  0  0  0  0  0  0  0
  2  3  1  0  0  0  0
  2  1  1  0  0  0  0
  3 29  1  0  0  0  0
  4  3  2  0  0  0  0
  5  4  1  0  0  0  0
  6  5  2  0  0  0  0
  6  7  1  0  0  0  0
  7  2  2  0  0  0  0
  8  5  1  0  0  0  0
  8  9  1  0  0  0  0
  9 11  1  0  0  0  0
 10  9  2  0  0  0  0
 11  4  1  0  0  0  0
 12  8  1  0  0  0  0
 12 13  1  0  0  0  0
 13 34  1  0  0  0  0
 13 35  1  0  0  0  0
 14 15  2  0  0  0  0
 14 13  1  0  0  0  0
 16 14  1  0  0  0  0
 16 17  1  0  0  0  0
 17 36  1  0  0  0  0
 18 17  1  0  0  0  0
 18 39  1  0  0  0  0
 18 38  1  0  0  0  0
 19 18  1  0  0  0  0
 20 21  1  0  0  0  0
 20 19  1  0  0  0  0
 21 16  1  0  0  0  0
 22 19  1  0  0  0  0
 22 23  1  0  0  0  0
 22 45  1  0  0  0  0
 23 25  1  0  0  0  0
 24 23  2  0  0  0  0
 25 46  1  0  0  0  0
 25 26  1  0  0  0  0
 26 47  1  0  0  0  0
 26 28  1  0  0  0  0
 26 27  1  0  0  0  0
 27 49  1  0  0  0  0
 28 27  1  0  0  0  0
 28 51  1  0  0  0  0
 30  6  1  0  0  0  0
 31  7  1  0  0  0  0
 32 12  1  0  0  0  0
 33 12  1  0  0  0  0
 37 17  1  0  0  0  0
 40 20  1  0  0  0  0
 41 20  1  0  0  0  0
 42 21  1  0  0  0  0
 43 21  1  0  0  0  0
 44 22  1  0  0  0  0
 48 27  1  0  0  0  0
 50 28  1  0  0  0  0
M  END
>  <Pose>
1

>  <Score>
-6.73

$$$$
