
 OpenBabel03172210433D

 36 39  0  0  1  0  0  0  0  0999 V2000
   49.0050    6.0510   46.5200 Cl  0  0  0  0  0  0  0  0  0  0  0  0
   49.3560    4.7610   45.3880 C   0  0  0  0  0  0  0  0  0  0  0  0
   48.4780    4.5600   44.3430 C   0  0  0  0  0  0  0  0  0  0  0  0
   48.8170    3.5100   43.4810 C   0  0  0  0  0  0  0  0  0  0  0  0
   48.0580    3.2840   42.5190 O   0  0  0  0  0  0  0  0  0  0  0  0
   49.9180    2.7740   43.6800 N   0  0  0  0  0  0  0  0  0  0  0  0
   50.7560    2.9720   44.6860 N   0  0  0  0  0  0  0  0  0  0  0  0
   51.9090    2.0850   44.7520 C   0  0  1  0  0  0  0  0  0  0  0  0
   51.3620    0.6710   44.8040 C   0  0  1  0  0  0  0  0  0  0  0  0
   50.3930    0.4480   43.7240 C   0  0  1  0  0  0  0  0  0  0  0  0
   50.2890    1.6660   42.7970 C   0  0  2  0  0  0  0  0  0  0  0  0
   51.6980    1.9850   42.3820 C   0  0  0  0  0  0  0  0  0  0  0  0
   52.5350    2.2010   43.3820 C   0  0  0  0  0  0  0  0  0  0  0  0
   51.7290   -0.3060   43.7510 C   0  0  0  0  0  0  0  0  0  0  0  0
   50.4820    3.9560   45.5360 C   0  0  0  0  0  0  0  0  0  0  0  0
   51.2730    4.1530   46.4940 O   0  0  0  0  0  0  0  0  0  0  0  0
   47.3060    5.3380   44.1160 N   0  0  0  0  0  0  0  0  0  0  0  0
   47.1030    6.2190   43.0240 C   0  0  0  0  0  0  0  0  0  0  0  0
   46.1760    5.6950   41.9580 C   0  0  0  0  0  0  0  0  0  0  0  0
   46.5560    7.5760   43.4430 C   0  0  0  0  0  0  0  0  0  0  0  0
   52.6020    2.3210   45.5520 H   0  0  0  0  0  0  0  0  0  0  0  0
   51.2480    0.2630   45.8220 H   0  0  0  0  0  0  0  0  0  0  0  0
   49.4790   -0.1610   43.8490 H   0  0  0  0  0  0  0  0  0  0  0  0
   49.6110    1.5190   41.9700 H   0  0  0  0  0  0  0  0  0  0  0  0
   51.9280    2.0160   41.3330 H   0  0  0  0  0  0  0  0  0  0  0  0
   53.5790    2.4400   43.3200 H   0  0  0  0  0  0  0  0  0  0  0  0
   51.7160   -1.3700   43.9950 H   0  0  0  0  0  0  0  0  0  0  0  0
   52.4520    0.0660   42.9700 H   0  0  0  0  0  0  0  0  0  0  0  0
   46.5550    5.2270   44.8290 H   0  0  0  0  0  0  0  0  0  0  0  0
   48.0680    6.4310   42.5230 H   0  0  0  0  0  0  0  0  0  0  0  0
   46.6050    4.8580   41.3710 H   0  0  0  0  0  0  0  0  0  0  0  0
   45.9820    6.5000   41.1870 H   0  0  0  0  0  0  0  0  0  0  0  0
   45.1950    5.3940   42.3130 H   0  0  0  0  0  0  0  0  0  0  0  0
   46.5380    8.1870   42.4950 H   0  0  0  0  0  0  0  0  0  0  0  0
   47.2630    8.0980   44.1100 H   0  0  0  0  0  0  0  0  0  0  0  0
   45.5270    7.5360   43.7970 H   0  0  0  0  0  0  0  0  0  0  0  0
  2 15  1  0  0  0  0
  2  1  1  0  0  0  0
  3  2  2  0  0  0  0
  4  6  1  0  0  0  0
  4  3  1  0  0  0  0
  5  4  2  0  0  0  0
  6  7  1  0  0  0  0
  7  8  1  0  0  0  0
  7 15  1  0  0  0  0
  8  9  1  0  0  0  0
  8 21  1  1  0  0  0
  9 22  1  1  0  0  0
 10 14  1  0  0  0  0
 10 23  1  1  0  0  0
 10  9  1  0  0  0  0
 11 24  1  6  0  0  0
 11  6  1  0  0  0  0
 11 10  1  0  0  0  0
 12 11  1  0  0  0  0
 12 13  2  0  0  0  0
 13  8  1  0  0  0  0
 14 27  1  0  0  0  0
 14  9  1  0  0  0  0
 15 16  2  0  0  0  0
 17  3  1  0  0  0  0
 17 29  1  0  0  0  0
 18 20  1  0  0  0  0
 18 17  1  0  0  0  0
 19 33  1  0  0  0  0
 19 18  1  0  0  0  0
 20 36  1  0  0  0  0
 20 35  1  0  0  0  0
 25 12  1  0  0  0  0
 26 13  1  0  0  0  0
 28 14  1  0  0  0  0
 30 18  1  0  0  0  0
 31 19  1  0  0  0  0
 32 19  1  0  0  0  0
 34 20  1  0  0  0  0
M  END
>  <Pose>
1

>  <Score>
-5.09

$$$$
