
 OpenBabel03172210433D

 59 62  0  0  1  0  0  0  0  0999 V2000
   42.8630   11.0380   43.7070 Cl  0  0  0  0  0  0  0  0  0  0  0  0
   42.3110    9.5190   44.5200 C   0  0  2  0  0  0  0  0  0  0  0  0
   42.5190    8.3770   43.8790 C   0  0  2  0  0  0  0  0  0  0  0  0
   42.0000    7.1720   44.5700 C   0  0  0  0  0  0  0  0  0  0  0  0
   41.4370    7.3330   45.7080 N   0  0  0  0  0  0  0  0  0  0  0  0
   41.2590    8.5230   46.3390 N   0  0  0  0  0  0  0  0  0  0  0  0
   41.6840    9.6140   45.7630 C   0  0  0  0  0  0  0  0  0  0  0  0
   41.5780   10.7790   46.2770 O   0  0  0  0  0  0  0  0  0  0  0  0
   40.8460    8.4690   47.7410 C   0  0  0  0  0  0  0  0  0  0  0  0
   39.6230    8.8800   48.1630 C   0  0  0  0  0  0  0  0  0  0  0  0
   39.2170    8.7030   49.4680 C   0  0  0  0  0  0  0  0  0  0  0  0
   40.0580    8.0930   50.3970 C   0  0  0  0  0  0  0  0  0  0  0  0
   41.3110    7.6890   49.9370 C   0  0  0  0  0  0  0  0  0  0  0  0
   41.6850    7.8700   48.6630 C   0  0  0  0  0  0  0  0  0  0  0  0
   43.4130    8.1490   42.8450 N   0  0  0  0  0  0  0  0  0  0  0  0
   43.3710    7.4420   41.6350 C   0  0  0  0  0  0  0  0  0  0  0  0
   44.5210    6.3700   41.6890 C   0  0  0  0  0  0  0  0  0  0  0  0
   45.1340    6.1610   42.9040 N   0  0  0  0  0  0  0  0  0  0  0  0
   45.1710    7.2260   43.8700 C   0  0  0  0  0  0  0  0  0  0  0  0
   44.8360    8.5850   43.1740 C   0  0  0  0  0  0  0  0  0  0  0  0
   46.5780    5.7590   42.8280 C   0  0  0  0  0  0  0  0  0  0  0  0
   46.8040    4.5810   43.6530 C   0  0  0  0  0  0  0  0  0  0  0  0
   46.1590    3.8040   44.1290 O   0  0  0  0  0  0  0  0  0  0  0  0
   48.4790    4.3770   43.9230 N   0  0  0  0  0  0  0  0  0  0  0  0
   48.6550    3.3660   42.8220 C   0  0  0  0  0  0  0  0  0  0  0  0
   48.2490    3.4770   41.6980 O   0  0  0  0  0  0  0  0  0  0  0  0
   49.4060    2.2300   43.3050 N   0  0  0  0  0  0  0  0  0  0  0  0
   50.6010    1.6950   42.7710 C   0  0  0  0  0  0  0  0  0  0  0  0
   51.8900    2.3440   43.0700 C   0  0  0  0  0  0  0  0  0  0  0  0
   52.4650    1.6690   44.3200 C   0  0  0  0  0  0  0  0  0  0  0  0
   51.9760    0.2510   44.1380 C   0  0  0  0  0  0  0  0  0  0  0  0
   50.7160    0.2870   43.3910 C   0  0  0  0  0  0  0  0  0  0  0  0
   42.1810    6.3040   43.9750 H   0  0  0  0  0  0  0  0  0  0  0  0
   38.9540    9.3810   47.4630 H   0  0  0  0  0  0  0  0  0  0  0  0
   38.2640    8.9800   49.7990 H   0  0  0  0  0  0  0  0  0  0  0  0
   39.6990    7.9630   51.3930 H   0  0  0  0  0  0  0  0  0  0  0  0
   41.9320    7.1930   50.6840 H   0  0  0  0  0  0  0  0  0  0  0  0
   42.6640    7.5390   48.3400 H   0  0  0  0  0  0  0  0  0  0  0  0
   42.4390    6.9990   41.3110 H   0  0  0  0  0  0  0  0  0  0  0  0
   43.6330    8.1790   40.8240 H   0  0  0  0  0  0  0  0  0  0  0  0
   45.2260    6.7210   40.8740 H   0  0  0  0  0  0  0  0  0  0  0  0
   44.0570    5.4570   41.2040 H   0  0  0  0  0  0  0  0  0  0  0  0
   44.3810    7.1710   44.6590 H   0  0  0  0  0  0  0  0  0  0  0  0
   46.1850    7.3860   44.2300 H   0  0  0  0  0  0  0  0  0  0  0  0
   44.8930    9.4120   43.8160 H   0  0  0  0  0  0  0  0  0  0  0  0
   45.4320    8.5730   42.2280 H   0  0  0  0  0  0  0  0  0  0  0  0
   46.7340    5.6220   41.7660 H   0  0  0  0  0  0  0  0  0  0  0  0
   47.1640    6.6060   43.1970 H   0  0  0  0  0  0  0  0  0  0  0  0
   48.3820    4.8960   44.4890 H   0  0  0  0  0  0  0  0  0  0  0  0
   48.9830    1.7340   44.1590 H   0  0  0  0  0  0  0  0  0  0  0  0
   50.5230    1.6340   41.6190 H   0  0  0  0  0  0  0  0  0  0  0  0
   52.6020    2.0900   42.2470 H   0  0  0  0  0  0  0  0  0  0  0  0
   51.8540    3.4460   43.1940 H   0  0  0  0  0  0  0  0  0  0  0  0
   52.0320    2.1090   45.2440 H   0  0  0  0  0  0  0  0  0  0  0  0
   53.5860    1.7160   44.3290 H   0  0  0  0  0  0  0  0  0  0  0  0
   51.7420   -0.1200   45.2010 H   0  0  0  0  0  0  0  0  0  0  0  0
   52.7330   -0.4340   43.7060 H   0  0  0  0  0  0  0  0  0  0  0  0
   50.5330   -0.5230   42.6560 H   0  0  0  0  0  0  0  0  0  0  0  0
   49.8710    0.2280   44.1870 H   0  0  0  0  0  0  0  0  0  0  0  0
  2  1  1  6  0  0  0
  2  7  1  0  0  0  0
  3 15  1  1  0  0  0
  3  2  1  0  0  0  0
  3  4  1  0  0  0  0
  4  5  2  0  0  0  0
  5  6  1  0  0  0  0
  6  9  1  0  0  0  0
  7  8  2  0  0  0  0
  7  6  1  0  0  0  0
  9 10  2  0  0  0  0
  9 14  1  0  0  0  0
 10 11  1  0  0  0  0
 11 35  1  0  0  0  0
 11 12  2  0  0  0  0
 12 36  1  0  0  0  0
 13 12  1  0  0  0  0
 13 37  1  0  0  0  0
 14 13  2  0  0  0  0
 15 20  1  0  0  0  0
 16 17  1  0  0  0  0
 16 15  1  0  0  0  0
 17 18  1  0  0  0  0
 18 19  1  0  0  0  0
 19 44  1  0  0  0  0
 19 43  1  0  0  0  0
 20 45  1  0  0  0  0
 20 19  1  0  0  0  0
 21 18  1  0  0  0  0
 21 48  1  0  0  0  0
 21 22  1  0  0  0  0
 22 24  1  0  0  0  0
 22 23  2  0  0  0  0
 24 49  1  0  0  0  0
 25 27  1  0  0  0  0
 25 24  1  0  0  0  0
 26 25  2  0  0  0  0
 27 50  1  0  0  0  0
 28 29  1  0  0  0  0
 28 27  1  0  0  0  0
 28 32  1  0  0  0  0
 29 53  1  0  0  0  0
 29 30  1  0  0  0  0
 30 55  1  0  0  0  0
 30 54  1  0  0  0  0
 31 30  1  0  0  0  0
 31 56  1  0  0  0  0
 32 31  1  0  0  0  0
 32 59  1  0  0  0  0
 33  4  1  0  0  0  0
 34 10  1  0  0  0  0
 38 14  1  0  0  0  0
 39 16  1  0  0  0  0
 40 16  1  0  0  0  0
 41 17  1  0  0  0  0
 42 17  1  0  0  0  0
 46 20  1  0  0  0  0
 47 21  1  0  0  0  0
 51 28  1  0  0  0  0
 52 29  1  0  0  0  0
 57 31  1  0  0  0  0
 58 32  1  0  0  0  0
M  END
>  <Pose>
1

>  <Score>
-7.28

$$$$
