
 OpenBabel03172210433D

 50 54  0  0  0  0  0  0  0  0999 V2000
   38.5260   11.9720   46.8120 S   0  0  0  0  0  0  0  0  0  0  0  0
   38.8130   13.4540   46.5900 O   0  0  0  0  0  0  0  0  0  0  0  0
   38.1590   11.7390   48.2550 O   0  0  0  0  0  0  0  0  0  0  0  0
   39.8570   11.0990   46.3430 N   0  0  0  0  0  0  0  0  0  0  0  0
   41.1290   11.6760   46.3030 C   0  0  0  0  0  0  0  0  0  0  0  0
   42.0140   10.9680   45.2710 C   0  0  0  0  0  0  0  0  0  0  0  0
   41.3150   10.8980   44.0500 N   0  0  0  0  0  0  0  0  0  0  0  0
   40.0680   10.2380   44.1220 C   0  0  0  0  0  0  0  0  0  0  0  0
   39.7180    9.9420   45.5630 C   0  0  0  0  0  0  0  0  0  0  0  0
   42.0910   10.6340   42.8810 C   0  0  0  0  0  0  0  0  0  0  0  0
   42.8610    9.3850   43.0920 C   0  0  0  0  0  0  0  0  0  0  0  0
   42.2920    8.2430   43.6190 C   0  0  0  0  0  0  0  0  0  0  0  0
   42.9610    7.0650   43.8310 C   0  0  0  0  0  0  0  0  0  0  0  0
   42.3260    6.0760   44.3250 O   0  0  0  0  0  0  0  0  0  0  0  0
   44.2860    6.9770   43.5120 N   0  0  0  0  0  0  0  0  0  0  0  0
   45.0200    5.9460   43.6590 N   0  0  0  0  0  0  0  0  0  0  0  0
   46.2790    5.9310   43.3340 C   0  0  0  0  0  0  0  0  0  0  0  0
   46.4480    7.5500   42.7550 S   0  0  0  0  0  0  0  0  0  0  0  0
   44.8340    8.0820   43.0030 C   0  0  0  0  0  0  0  0  0  0  0  0
   44.1710    9.2410   42.7950 N   0  0  0  0  0  0  0  0  0  0  0  0
   47.3000    4.8800   43.4120 C   0  0  0  0  0  0  0  0  0  0  0  0
   47.3870    3.9650   42.3850 C   0  0  0  0  0  0  0  0  0  0  0  0
   48.3320    2.9470   42.4000 C   0  0  0  0  0  0  0  0  0  0  0  0
   49.2080    2.8420   43.4600 C   0  0  0  0  0  0  0  0  0  0  0  0
   49.1400    3.7500   44.5030 C   0  0  0  0  0  0  0  0  0  0  0  0
   48.1860    4.7400   44.4440 C   0  0  0  0  0  0  0  0  0  0  0  0
   50.3930    1.5760   43.4920 Cl  0  0  0  0  0  0  0  0  0  0  0  0
   37.1430   11.6110   45.8040 C   0  0  0  0  0  0  0  0  0  0  0  0
   36.2230   12.4980   45.3330 N   0  0  0  0  0  0  0  0  0  0  0  0
   35.3050   11.8650   44.5990 C   0  0  0  0  0  0  0  0  0  0  0  0
   35.5880   10.5560   44.5600 N   0  0  0  0  0  0  0  0  0  0  0  0
   36.7190   10.4040   45.3020 C   0  0  0  0  0  0  0  0  0  0  0  0
   41.5970   11.5350   47.3300 H   0  0  0  0  0  0  0  0  0  0  0  0
   41.1850   12.7610   46.0600 H   0  0  0  0  0  0  0  0  0  0  0  0
   42.1830    9.9440   45.6660 H   0  0  0  0  0  0  0  0  0  0  0  0
   42.9940   11.4870   45.1840 H   0  0  0  0  0  0  0  0  0  0  0  0
   39.2780   10.9320   43.7520 H   0  0  0  0  0  0  0  0  0  0  0  0
   40.0440    9.2680   43.5620 H   0  0  0  0  0  0  0  0  0  0  0  0
   38.6590    9.5520   45.6330 H   0  0  0  0  0  0  0  0  0  0  0  0
   40.3590    9.1270   45.9660 H   0  0  0  0  0  0  0  0  0  0  0  0
   42.8090   11.4690   42.7500 H   0  0  0  0  0  0  0  0  0  0  0  0
   41.4210   10.4940   42.0290 H   0  0  0  0  0  0  0  0  0  0  0  0
   41.2150    8.3330   43.8710 H   0  0  0  0  0  0  0  0  0  0  0  0
   46.7280    4.0000   41.5320 H   0  0  0  0  0  0  0  0  0  0  0  0
   48.4250    2.2150   41.6110 H   0  0  0  0  0  0  0  0  0  0  0  0
   49.8260    3.6670   45.3340 H   0  0  0  0  0  0  0  0  0  0  0  0
   48.1430    5.4400   45.2580 H   0  0  0  0  0  0  0  0  0  0  0  0
   34.4650   12.3410   44.1120 H   0  0  0  0  0  0  0  0  0  0  0  0
   35.0550    9.8200   44.0690 H   0  0  0  0  0  0  0  0  0  0  0  0
   37.1820    9.4460   45.4500 H   0  0  0  0  0  0  0  0  0  0  0  0
  1  3  2  0  0  0  0
  2  1  2  0  0  0  0
  4  1  1  0  0  0  0
  5  4  1  0  0  0  0
  5 33  1  0  0  0  0
  6 35  1  0  0  0  0
  6  5  1  0  0  0  0
  7  8  1  0  0  0  0
  7  6  1  0  0  0  0
  8  9  1  0  0  0  0
  9 39  1  0  0  0  0
  9 40  1  0  0  0  0
  9  4  1  0  0  0  0
 10 11  1  0  0  0  0
 10  7  1  0  0  0  0
 11 12  2  0  0  0  0
 12 13  1  0  0  0  0
 12 43  1  0  0  0  0
 13 14  2  0  0  0  0
 15 16  1  0  0  0  0
 15 13  1  0  0  0  0
 17 21  1  0  0  0  0
 17 16  2  0  0  0  0
 18 19  1  0  0  0  0
 18 17  1  0  0  0  0
 19 15  1  0  0  0  0
 20 19  2  0  0  0  0
 20 11  1  0  0  0  0
 21 26  1  0  0  0  0
 22 23  1  0  0  0  0
 22 21  2  0  0  0  0
 23 24  2  0  0  0  0
 24 27  1  0  0  0  0
 24 25  1  0  0  0  0
 25 46  1  0  0  0  0
 26 25  2  0  0  0  0
 26 47  1  0  0  0  0
 28  1  1  0  0  0  0
 29 28  1  0  0  0  0
 30 29  2  0  0  0  0
 31 30  1  0  0  0  0
 31 32  1  0  0  0  0
 32 50  1  0  0  0  0
 32 28  2  0  0  0  0
 34  5  1  0  0  0  0
 36  6  1  0  0  0  0
 37  8  1  0  0  0  0
 38  8  1  0  0  0  0
 41 10  1  0  0  0  0
 42 10  1  0  0  0  0
 44 22  1  0  0  0  0
 45 23  1  0  0  0  0
 48 30  1  0  0  0  0
 49 31  1  0  0  0  0
M  END
>  <Pose>
1

>  <Score>
-7.01

$$$$
