
 OpenBabel03172210433D

 55 58  0  0  0  0  0  0  0  0999 V2000
   43.3950   10.9550   44.2680 S   0  0  0  0  0  0  0  0  0  0  0  0
   44.3060   11.4570   45.3720 O   0  0  0  0  0  0  0  0  0  0  0  0
   43.9680   11.3110   42.9430 O   0  0  0  0  0  0  0  0  0  0  0  0
   43.3470    9.1810   44.4040 N   0  0  0  0  0  0  0  0  0  0  0  0
   43.5430    8.6900   43.0720 C   0  0  0  0  0  0  0  0  0  0  0  0
   44.1000    7.2560   43.0080 C   0  0  0  0  0  0  0  0  0  0  0  0
   45.3080    7.2540   43.7720 N   0  0  0  0  0  0  0  0  0  0  0  0
   44.9580    7.4470   45.1510 C   0  0  0  0  0  0  0  0  0  0  0  0
   44.5690    8.8980   45.2350 C   0  0  0  0  0  0  0  0  0  0  0  0
   46.3690    6.4640   43.3650 C   0  0  0  0  0  0  0  0  0  0  0  0
   46.4230    5.0890   43.8670 C   0  0  0  0  0  0  0  0  0  0  0  0
   45.2560    4.4960   43.8380 O   0  0  0  0  0  0  0  0  0  0  0  0
   47.4500    4.3260   44.3420 N   0  0  0  0  0  0  0  0  0  0  0  0
   48.8570    4.7320   44.3620 C   0  0  0  0  0  0  0  0  0  0  0  0
   49.6510    3.6800   45.0290 C   0  0  0  0  0  0  0  0  0  0  0  0
   50.0220    2.5020   44.3400 C   0  0  0  0  0  0  0  0  0  0  0  0
   50.6230    1.4640   44.9430 C   0  0  0  0  0  0  0  0  0  0  0  0
   50.9210    1.5130   46.3410 C   0  0  0  0  0  0  0  0  0  0  0  0
   50.5680    2.6160   47.0090 C   0  0  0  0  0  0  0  0  0  0  0  0
   49.9380    3.7110   46.4060 C   0  0  0  0  0  0  0  0  0  0  0  0
   49.6880    2.4190   42.5930 Cl  0  0  0  0  0  0  0  0  0  0  0  0
   41.8390   11.6600   44.4660 C   0  0  0  0  0  0  0  0  0  0  0  0
   40.7630   10.7710   44.3400 C   0  0  0  0  0  0  0  0  0  0  0  0
   39.4320   11.1370   44.5620 C   0  0  0  0  0  0  0  0  0  0  0  0
   39.1680   12.4530   44.9280 C   0  0  0  0  0  0  0  0  0  0  0  0
   40.2400   13.3190   45.0420 C   0  0  0  0  0  0  0  0  0  0  0  0
   41.5580   12.9430   44.8220 C   0  0  0  0  0  0  0  0  0  0  0  0
   37.8320   12.7440   45.1370 O   0  0  0  0  0  0  0  0  0  0  0  0
   37.0240   11.7310   45.7950 C   0  0  0  0  0  0  0  0  0  0  0  0
   37.2980   10.3510   45.2960 C   0  0  0  0  0  0  0  0  0  0  0  0
   38.3950   10.2310   44.4230 O   0  0  0  0  0  0  0  0  0  0  0  0
   42.4920    8.5960   42.6280 H   0  0  0  0  0  0  0  0  0  0  0  0
   44.0850    9.3180   42.3520 H   0  0  0  0  0  0  0  0  0  0  0  0
   43.3670    6.5790   43.4490 H   0  0  0  0  0  0  0  0  0  0  0  0
   44.3260    6.9460   41.9970 H   0  0  0  0  0  0  0  0  0  0  0  0
   44.0990    6.8460   45.4320 H   0  0  0  0  0  0  0  0  0  0  0  0
   45.8680    7.3390   45.7990 H   0  0  0  0  0  0  0  0  0  0  0  0
   45.3820    9.5030   44.7120 H   0  0  0  0  0  0  0  0  0  0  0  0
   44.3330    9.1780   46.2410 H   0  0  0  0  0  0  0  0  0  0  0  0
   47.3090    7.0280   43.7850 H   0  0  0  0  0  0  0  0  0  0  0  0
   46.6050    6.5000   42.2670 H   0  0  0  0  0  0  0  0  0  0  0  0
   47.3300    3.3570   44.7890 H   0  0  0  0  0  0  0  0  0  0  0  0
   49.1410    4.6580   43.2490 H   0  0  0  0  0  0  0  0  0  0  0  0
   48.9640    5.7170   44.7570 H   0  0  0  0  0  0  0  0  0  0  0  0
   50.8870    0.6000   44.3950 H   0  0  0  0  0  0  0  0  0  0  0  0
   51.3980    0.6800   46.7970 H   0  0  0  0  0  0  0  0  0  0  0  0
   50.7610    2.7030   48.0830 H   0  0  0  0  0  0  0  0  0  0  0  0
   49.6570    4.5450   47.0020 H   0  0  0  0  0  0  0  0  0  0  0  0
   40.9980    9.7340   44.0280 H   0  0  0  0  0  0  0  0  0  0  0  0
   39.9910   14.3140   45.3020 H   0  0  0  0  0  0  0  0  0  0  0  0
   42.3500   13.6550   44.9420 H   0  0  0  0  0  0  0  0  0  0  0  0
   37.2660   11.8540   46.9020 H   0  0  0  0  0  0  0  0  0  0  0  0
   35.9720   11.9720   45.6420 H   0  0  0  0  0  0  0  0  0  0  0  0
   36.4190    9.9490   44.7810 H   0  0  0  0  0  0  0  0  0  0  0  0
   37.4870    9.7240   46.2130 H   0  0  0  0  0  0  0  0  0  0  0  0
  1  4  1  0  0  0  0
  1 22  1  0  0  0  0
  1  2  2  0  0  0  0
  3  1  2  0  0  0  0
  4  9  1  0  0  0  0
  5  4  1  0  0  0  0
  6  5  1  0  0  0  0
  6 34  1  0  0  0  0
  6  7  1  0  0  0  0
  7  8  1  0  0  0  0
  8  9  1  0  0  0  0
  8 36  1  0  0  0  0
  8 37  1  0  0  0  0
  9 39  1  0  0  0  0
 10  7  1  0  0  0  0
 10 40  1  0  0  0  0
 10 11  1  0  0  0  0
 11 13  1  0  0  0  0
 12 11  2  0  0  0  0
 13 14  1  0  0  0  0
 13 42  1  0  0  0  0
 14 44  1  0  0  0  0
 14 15  1  0  0  0  0
 15 20  1  0  0  0  0
 16 17  1  0  0  0  0
 16 15  2  0  0  0  0
 17 18  2  0  0  0  0
 18 46  1  0  0  0  0
 18 19  1  0  0  0  0
 19 47  1  0  0  0  0
 20 48  1  0  0  0  0
 20 19  2  0  0  0  0
 21 16  1  0  0  0  0
 22 27  1  0  0  0  0
 23 22  2  0  0  0  0
 23 24  1  0  0  0  0
 24 25  2  0  0  0  0
 25 26  1  0  0  0  0
 25 28  1  0  0  0  0
 26 50  1  0  0  0  0
 27 51  1  0  0  0  0
 27 26  2  0  0  0  0
 28 29  1  0  0  0  0
 29 52  1  0  0  0  0
 30 29  1  0  0  0  0
 30 55  1  0  0  0  0
 31 24  1  0  0  0  0
 31 30  1  0  0  0  0
 32  5  1  0  0  0  0
 33  5  1  0  0  0  0
 35  6  1  0  0  0  0
 38  9  1  0  0  0  0
 41 10  1  0  0  0  0
 43 14  1  0  0  0  0
 45 17  1  0  0  0  0
 49 23  1  0  0  0  0
 53 29  1  0  0  0  0
 54 30  1  0  0  0  0
M  END
>  <Pose>
1

>  <Score>
-6.11

$$$$
