
 OpenBabel03172210433D

 56 59  0  0  0  0  0  0  0  0999 V2000
   46.2300    6.0170   42.6850 S   0  0  0  0  0  0  0  0  0  0  0  0
   46.8810    7.3620   42.5880 O   0  0  0  0  0  0  0  0  0  0  0  0
   45.6350    5.6890   41.3480 O   0  0  0  0  0  0  0  0  0  0  0  0
   45.0320    6.0560   43.9070 N   0  0  0  0  0  0  0  0  0  0  0  0
   45.0260    7.2330   44.6980 C   0  0  0  0  0  0  0  0  0  0  0  0
   44.1970    8.3550   44.1290 C   0  0  0  0  0  0  0  0  0  0  0  0
   42.9690    7.8770   43.5300 N   0  0  0  0  0  0  0  0  0  0  0  0
   42.6200    6.4950   43.8010 C   0  0  0  0  0  0  0  0  0  0  0  0
   43.7660    5.5620   43.4990 C   0  0  0  0  0  0  0  0  0  0  0  0
   42.1980    8.7400   42.7410 C   0  0  0  0  0  0  0  0  0  0  0  0
   41.3180    8.2580   41.9890 O   0  0  0  0  0  0  0  0  0  0  0  0
   42.3840   10.2140   42.7580 C   0  0  0  0  0  0  0  0  0  0  0  0
   42.0380   10.7890   44.0280 N   0  0  0  0  0  0  0  0  0  0  0  0
   40.7320   10.7830   44.5840 C   0  0  0  0  0  0  0  0  0  0  0  0
   39.7060   10.2670   44.0230 O   0  0  0  0  0  0  0  0  0  0  0  0
   40.6970   11.4260   45.8510 N   0  0  0  0  0  0  0  0  0  0  0  0
   41.9860   12.0700   46.0280 C   0  0  0  0  0  0  0  0  0  0  0  0
   42.5950   11.7670   47.3660 C   0  0  0  0  0  0  0  0  0  0  0  0
   42.1230   12.6730   48.4650 C   0  0  0  0  0  0  0  0  0  0  0  0
   42.2080   14.1320   48.1240 C   0  0  0  0  0  0  0  0  0  0  0  0
   42.6640   14.3680   46.7010 C   0  0  0  0  0  0  0  0  0  0  0  0
   41.7780   13.5470   45.7900 C   0  0  0  0  0  0  0  0  0  0  0  0
   42.8480   11.4600   44.9850 C   0  0  0  0  0  0  0  0  0  0  0  0
   44.0990   11.5070   44.9210 O   0  0  0  0  0  0  0  0  0  0  0  0
   39.5670   11.4220   46.7800 C   0  0  0  0  0  0  0  0  0  0  0  0
   47.4520    4.7770   43.0110 C   0  0  0  0  0  0  0  0  0  0  0  0
   47.7630    3.3410   42.1570 S   0  0  0  0  0  0  0  0  0  0  0  0
   49.0510    2.7380   43.0890 C   0  0  0  0  0  0  0  0  0  0  0  0
   49.2110    3.6890   44.0620 C   0  0  0  0  0  0  0  0  0  0  0  0
   48.3760    4.7520   44.0200 C   0  0  0  0  0  0  0  0  0  0  0  0
   49.9870    1.2420   42.8830 Cl  0  0  0  0  0  0  0  0  0  0  0  0
   46.0760    7.6150   44.7590 H   0  0  0  0  0  0  0  0  0  0  0  0
   44.6730    7.0020   45.7210 H   0  0  0  0  0  0  0  0  0  0  0  0
   44.7710    8.9930   43.4270 H   0  0  0  0  0  0  0  0  0  0  0  0
   43.8960    9.0010   44.9950 H   0  0  0  0  0  0  0  0  0  0  0  0
   41.7620    6.1860   43.1620 H   0  0  0  0  0  0  0  0  0  0  0  0
   42.3110    6.3570   44.8460 H   0  0  0  0  0  0  0  0  0  0  0  0
   43.7450    5.2170   42.4280 H   0  0  0  0  0  0  0  0  0  0  0  0
   43.5600    4.6220   44.0900 H   0  0  0  0  0  0  0  0  0  0  0  0
   41.7720   10.6950   41.9860 H   0  0  0  0  0  0  0  0  0  0  0  0
   43.4460   10.3970   42.4820 H   0  0  0  0  0  0  0  0  0  0  0  0
   42.3690   10.7270   47.6670 H   0  0  0  0  0  0  0  0  0  0  0  0
   43.7020   11.8730   47.2650 H   0  0  0  0  0  0  0  0  0  0  0  0
   42.7810   12.4710   49.3510 H   0  0  0  0  0  0  0  0  0  0  0  0
   41.0990   12.3840   48.7700 H   0  0  0  0  0  0  0  0  0  0  0  0
   41.2140   14.5880   48.3150 H   0  0  0  0  0  0  0  0  0  0  0  0
   42.9530   14.6560   48.7860 H   0  0  0  0  0  0  0  0  0  0  0  0
   42.5480   15.4340   46.4670 H   0  0  0  0  0  0  0  0  0  0  0  0
   43.6960   14.0170   46.5990 H   0  0  0  0  0  0  0  0  0  0  0  0
   41.9840   13.8450   44.7430 H   0  0  0  0  0  0  0  0  0  0  0  0
   40.7220   13.8180   46.0000 H   0  0  0  0  0  0  0  0  0  0  0  0
   39.3390   12.4450   47.1410 H   0  0  0  0  0  0  0  0  0  0  0  0
   38.6930   11.0100   46.2680 H   0  0  0  0  0  0  0  0  0  0  0  0
   39.8320   10.7180   47.5950 H   0  0  0  0  0  0  0  0  0  0  0  0
   50.0030    3.5730   44.8470 H   0  0  0  0  0  0  0  0  0  0  0  0
   48.4530    5.5700   44.7880 H   0  0  0  0  0  0  0  0  0  0  0  0
  1 26  1  0  0  0  0
  1  4  1  0  0  0  0
  2  1  2  0  0  0  0
  3  1  2  0  0  0  0
  4  5  1  0  0  0  0
  5 32  1  0  0  0  0
  5 33  1  0  0  0  0
  6  5  1  0  0  0  0
  6 35  1  0  0  0  0
  7  8  1  0  0  0  0
  7  6  1  0  0  0  0
  8 37  1  0  0  0  0
  9  8  1  0  0  0  0
  9  4  1  0  0  0  0
  9 39  1  0  0  0  0
 10 12  1  0  0  0  0
 10  7  1  0  0  0  0
 11 10  2  0  0  0  0
 12 13  1  0  0  0  0
 13 14  1  0  0  0  0
 13 23  1  0  0  0  0
 14 16  1  0  0  0  0
 15 14  2  0  0  0  0
 16 17  1  0  0  0  0
 16 25  1  0  0  0  0
 17 18  1  0  0  0  0
 18 42  1  0  0  0  0
 18 19  1  0  0  0  0
 19 45  1  0  0  0  0
 19 44  1  0  0  0  0
 20 46  1  0  0  0  0
 20 19  1  0  0  0  0
 20 47  1  0  0  0  0
 21 20  1  0  0  0  0
 22 51  1  0  0  0  0
 22 17  1  0  0  0  0
 22 21  1  0  0  0  0
 23 17  1  0  0  0  0
 24 23  2  0  0  0  0
 25 52  1  0  0  0  0
 25 54  1  0  0  0  0
 26 30  2  0  0  0  0
 27 26  1  0  0  0  0
 27 28  1  0  0  0  0
 28 29  2  0  0  0  0
 29 55  1  0  0  0  0
 30 29  1  0  0  0  0
 30 56  1  0  0  0  0
 31 28  1  0  0  0  0
 34  6  1  0  0  0  0
 36  8  1  0  0  0  0
 38  9  1  0  0  0  0
 40 12  1  0  0  0  0
 41 12  1  0  0  0  0
 43 18  1  0  0  0  0
 48 21  1  0  0  0  0
 49 21  1  0  0  0  0
 50 22  1  0  0  0  0
 53 25  1  0  0  0  0
M  END
>  <Pose>
1

>  <Score>
-5.88

$$$$
