
 OpenBabel03172210433D

 68 71  0  0  0  0  0  0  0  0999 V2000
   42.8190    8.0080   44.8210 S   0  0  0  0  0  0  0  0  0  0  0  0
   43.2330    8.0490   46.2710 O   0  0  0  0  0  0  0  0  0  0  0  0
   41.5380    7.2050   44.7900 O   0  0  0  0  0  0  0  0  0  0  0  0
   42.6990    9.5090   44.1160 N   0  0  0  0  0  0  0  0  0  0  0  0
   43.6250   10.5140   44.3030 C   0  0  0  0  0  0  0  0  0  0  0  0
   42.9440   11.8030   44.6760 C   0  0  0  0  0  0  0  0  0  0  0  0
   41.7840   12.1290   43.9260 N   0  0  0  0  0  0  0  0  0  0  0  0
   41.6140   11.2480   42.8160 C   0  0  0  0  0  0  0  0  0  0  0  0
   41.6100    9.7970   43.2880 C   0  0  0  0  0  0  0  0  0  0  0  0
   40.5910   12.2530   44.7130 C   0  0  0  0  0  0  0  0  0  0  0  0
   39.5500   13.0610   43.9930 C   0  0  0  0  0  0  0  0  0  0  0  0
   39.9610   13.9140   43.1760 O   0  0  0  0  0  0  0  0  0  0  0  0
   38.1670   12.8610   44.2310 N   0  0  0  0  0  0  0  0  0  0  0  0
   37.4430   13.9240   44.8660 C   0  0  0  0  0  0  0  0  0  0  0  0
   37.0290   13.7000   46.2690 C   0  0  0  0  0  0  0  0  0  0  0  0
   38.2320   13.3090   47.0920 C   0  0  0  0  0  0  0  0  0  0  0  0
   38.4260   11.7900   47.1480 C   0  0  0  0  0  0  0  0  0  0  0  0
   37.3010   11.1480   47.9360 C   0  0  0  0  0  0  0  0  0  0  0  0
   36.0560   11.9860   47.7100 C   0  0  0  0  0  0  0  0  0  0  0  0
   36.1220   12.4530   46.2710 C   0  0  0  0  0  0  0  0  0  0  0  0
   36.2980   14.7200   46.9180 N   0  0  0  0  0  0  0  0  0  0  0  0
   37.0170   15.7430   47.5910 C   0  0  0  0  0  0  0  0  0  0  0  0
   36.0070   16.4160   48.5380 C   0  0  0  0  0  0  0  0  0  0  0  0
   35.0000   17.0050   47.8110 O   0  0  0  0  0  0  0  0  0  0  0  0
   35.0980   16.8240   46.4550 C   0  0  0  0  0  0  0  0  0  0  0  0
   35.3010   15.3540   46.0840 C   0  0  0  0  0  0  0  0  0  0  0  0
   44.0540    7.0590   43.9990 C   0  0  0  0  0  0  0  0  0  0  0  0
   44.2530    5.7400   44.3010 C   0  0  0  0  0  0  0  0  0  0  0  0
   45.2120    4.9970   43.6640 C   0  0  0  0  0  0  0  0  0  0  0  0
   45.9910    5.5990   42.7000 C   0  0  0  0  0  0  0  0  0  0  0  0
   45.7920    6.9320   42.3920 C   0  0  0  0  0  0  0  0  0  0  0  0
   44.8280    7.6660   43.0360 C   0  0  0  0  0  0  0  0  0  0  0  0
   47.2100    4.6210   41.9030 Cl  0  0  0  0  0  0  0  0  0  0  0  0
   44.2600   10.7680   43.4050 H   0  0  0  0  0  0  0  0  0  0  0  0
   44.3790   10.3010   45.1070 H   0  0  0  0  0  0  0  0  0  0  0  0
   43.6850   12.6350   44.5360 H   0  0  0  0  0  0  0  0  0  0  0  0
   42.7650   11.7650   45.7720 H   0  0  0  0  0  0  0  0  0  0  0  0
   42.4790   11.3620   42.1030 H   0  0  0  0  0  0  0  0  0  0  0  0
   40.6470   11.4390   42.3370 H   0  0  0  0  0  0  0  0  0  0  0  0
   40.6090    9.6090   43.7740 H   0  0  0  0  0  0  0  0  0  0  0  0
   41.6200    9.1520   42.3610 H   0  0  0  0  0  0  0  0  0  0  0  0
   40.7720   12.6310   45.7390 H   0  0  0  0  0  0  0  0  0  0  0  0
   40.1460   11.2420   44.8270 H   0  0  0  0  0  0  0  0  0  0  0  0
   37.7410   11.9440   43.9290 H   0  0  0  0  0  0  0  0  0  0  0  0
   38.0740   14.8360   44.7760 H   0  0  0  0  0  0  0  0  0  0  0  0
   36.4870   14.1120   44.2870 H   0  0  0  0  0  0  0  0  0  0  0  0
   38.1260   13.6240   48.1620 H   0  0  0  0  0  0  0  0  0  0  0  0
   39.1750   13.7020   46.6520 H   0  0  0  0  0  0  0  0  0  0  0  0
   39.3700   11.6130   47.6970 H   0  0  0  0  0  0  0  0  0  0  0  0
   38.5420   11.3530   46.1420 H   0  0  0  0  0  0  0  0  0  0  0  0
   37.1340   10.1260   47.5370 H   0  0  0  0  0  0  0  0  0  0  0  0
   37.5910   11.1030   48.9880 H   0  0  0  0  0  0  0  0  0  0  0  0
   35.1220   11.3980   47.8860 H   0  0  0  0  0  0  0  0  0  0  0  0
   36.0790   12.8810   48.3620 H   0  0  0  0  0  0  0  0  0  0  0  0
   35.1130   12.6770   45.9350 H   0  0  0  0  0  0  0  0  0  0  0  0
   36.5430   11.6840   45.5900 H   0  0  0  0  0  0  0  0  0  0  0  0
   37.8120   15.3680   48.2700 H   0  0  0  0  0  0  0  0  0  0  0  0
   37.4060   16.5620   46.9550 H   0  0  0  0  0  0  0  0  0  0  0  0
   35.5440   15.5670   49.1150 H   0  0  0  0  0  0  0  0  0  0  0  0
   36.5210   17.0900   49.2270 H   0  0  0  0  0  0  0  0  0  0  0  0
   35.8760   17.4660   45.9640 H   0  0  0  0  0  0  0  0  0  0  0  0
   34.1330   17.1230   45.9740 H   0  0  0  0  0  0  0  0  0  0  0  0
   34.3320   14.8440   46.2410 H   0  0  0  0  0  0  0  0  0  0  0  0
   35.5420   15.3480   45.0070 H   0  0  0  0  0  0  0  0  0  0  0  0
   43.6410    5.2430   45.0680 H   0  0  0  0  0  0  0  0  0  0  0  0
   45.3620    3.9460   43.9150 H   0  0  0  0  0  0  0  0  0  0  0  0
   46.4160    7.3950   41.6260 H   0  0  0  0  0  0  0  0  0  0  0  0
   44.6920    8.7180   42.7760 H   0  0  0  0  0  0  0  0  0  0  0  0
  1  2  2  0  0  0  0
  3  1  2  0  0  0  0
  4  5  1  0  0  0  0
  4  1  1  0  0  0  0
  5  6  1  0  0  0  0
  5 35  1  0  0  0  0
  6 37  1  0  0  0  0
  7  6  1  0  0  0  0
  7 10  1  0  0  0  0
  8  9  1  0  0  0  0
  8  7  1  0  0  0  0
  9 40  1  0  0  0  0
  9  4  1  0  0  0  0
 10 43  1  0  0  0  0
 10 42  1  0  0  0  0
 11 13  1  0  0  0  0
 11 10  1  0  0  0  0
 12 11  2  0  0  0  0
 13 14  1  0  0  0  0
 14 15  1  0  0  0  0
 15 20  1  0  0  0  0
 15 21  1  0  0  0  0
 15 16  1  0  0  0  0
 16 17  1  0  0  0  0
 16 47  1  0  0  0  0
 17 49  1  0  0  0  0
 17 18  1  0  0  0  0
 18 52  1  0  0  0  0
 19 53  1  0  0  0  0
 19 18  1  0  0  0  0
 19 54  1  0  0  0  0
 20 19  1  0  0  0  0
 21 22  1  0  0  0  0
 22 57  1  0  0  0  0
 22 23  1  0  0  0  0
 23 59  1  0  0  0  0
 23 60  1  0  0  0  0
 24 23  1  0  0  0  0
 25 24  1  0  0  0  0
 26 63  1  0  0  0  0
 26 25  1  0  0  0  0
 26 21  1  0  0  0  0
 27 28  1  0  0  0  0
 27  1  1  0  0  0  0
 28 65  1  0  0  0  0
 29 66  1  0  0  0  0
 29 28  2  0  0  0  0
 30 29  1  0  0  0  0
 31 30  2  0  0  0  0
 31 32  1  0  0  0  0
 32 27  2  0  0  0  0
 33 30  1  0  0  0  0
 34  5  1  0  0  0  0
 36  6  1  0  0  0  0
 38  8  1  0  0  0  0
 39  8  1  0  0  0  0
 41  9  1  0  0  0  0
 44 13  1  0  0  0  0
 45 14  1  0  0  0  0
 46 14  1  0  0  0  0
 48 16  1  0  0  0  0
 50 17  1  0  0  0  0
 51 18  1  0  0  0  0
 55 20  1  0  0  0  0
 56 20  1  0  0  0  0
 58 22  1  0  0  0  0
 61 25  1  0  0  0  0
 62 25  1  0  0  0  0
 64 26  1  0  0  0  0
 67 31  1  0  0  0  0
 68 32  1  0  0  0  0
M  END
>  <Pose>
1

>  <Score>
-4.79

$$$$
