
 OpenBabel03172210433D

 38 41  0  0  0  0  0  0  0  0999 V2000
   37.9360   12.3850   46.6950 Cl  0  0  0  0  0  0  0  0  0  0  0  0
   39.1260   11.7500   45.5780 C   0  0  0  0  0  0  0  0  0  0  0  0
   39.5570   10.4300   45.6280 C   0  0  0  0  0  0  0  0  0  0  0  0
   40.4890    9.9020   44.7800 C   0  0  0  0  0  0  0  0  0  0  0  0
   41.0460   10.6920   43.8150 C   0  0  0  0  0  0  0  0  0  0  0  0
   40.6330   12.0210   43.7370 C   0  0  0  0  0  0  0  0  0  0  0  0
   39.6900   12.5370   44.6050 C   0  0  0  0  0  0  0  0  0  0  0  0
   42.0560   10.2670   42.8320 C   0  0  0  0  0  0  0  0  0  0  0  0
   42.0360    8.7800   42.7050 C   0  0  0  0  0  0  0  0  0  0  0  0
   42.7790    8.1280   43.8840 C   0  0  0  0  0  0  0  0  0  0  0  0
   44.1630    8.5810   43.6830 N   0  0  0  0  0  0  0  0  0  0  0  0
   44.3560    9.9860   43.8500 C   0  0  0  0  0  0  0  0  0  0  0  0
   43.4150   10.8250   43.0350 C   0  0  0  0  0  0  0  0  0  0  0  0
   45.1520    7.6240   43.3530 C   0  0  0  0  0  0  0  0  0  0  0  0
   45.0430    6.9240   42.2110 N   0  0  0  0  0  0  0  0  0  0  0  0
   45.9010    6.0160   41.7890 N   0  0  0  0  0  0  0  0  0  0  0  0
   45.9910    5.2260   40.7150 N   0  0  0  0  0  0  0  0  0  0  0  0
   47.0750    4.4850   40.7750 N   0  0  0  0  0  0  0  0  0  0  0  0
   47.6950    4.7900   41.8820 N   0  0  0  0  0  0  0  0  0  0  0  0
   46.9760    5.7430   42.5250 C   0  0  0  0  0  0  0  0  0  0  0  0
   47.1580    6.4250   43.7160 C   0  0  0  0  0  0  0  0  0  0  0  0
   46.2490    7.3700   44.1430 C   0  0  0  0  0  0  0  0  0  0  0  0
   41.5790   10.7630   41.5920 O   0  0  0  0  0  0  0  0  0  0  0  0
   39.1380    9.7870   46.3820 H   0  0  0  0  0  0  0  0  0  0  0  0
   40.8190    8.8710   44.8170 H   0  0  0  0  0  0  0  0  0  0  0  0
   41.0180   12.7140   43.0110 H   0  0  0  0  0  0  0  0  0  0  0  0
   39.3750   13.5970   44.5350 H   0  0  0  0  0  0  0  0  0  0  0  0
   41.0010    8.3790   42.7220 H   0  0  0  0  0  0  0  0  0  0  0  0
   42.5210    8.4070   41.7870 H   0  0  0  0  0  0  0  0  0  0  0  0
   42.7000    7.0340   43.8240 H   0  0  0  0  0  0  0  0  0  0  0  0
   42.4570    8.5310   44.8540 H   0  0  0  0  0  0  0  0  0  0  0  0
   44.1420   10.2150   44.9380 H   0  0  0  0  0  0  0  0  0  0  0  0
   45.3980   10.3060   43.6570 H   0  0  0  0  0  0  0  0  0  0  0  0
   43.9010   10.9030   42.0140 H   0  0  0  0  0  0  0  0  0  0  0  0
   43.4090   11.8570   43.4120 H   0  0  0  0  0  0  0  0  0  0  0  0
   48.0380    6.1770   44.2840 H   0  0  0  0  0  0  0  0  0  0  0  0
   46.3890    7.9000   45.0680 H   0  0  0  0  0  0  0  0  0  0  0  0
   41.1620    9.9830   41.1120 H   0  0  0  0  0  0  0  0  0  0  0  0
  2  3  1  0  0  0  0
  2  1  1  0  0  0  0
  3 24  1  0  0  0  0
  4 25  1  0  0  0  0
  4  3  2  0  0  0  0
  5  4  1  0  0  0  0
  6  5  2  0  0  0  0
  6  7  1  0  0  0  0
  7  2  2  0  0  0  0
  8 13  1  0  0  0  0
  8  5  1  0  0  0  0
  9 28  1  0  0  0  0
  9  8  1  0  0  0  0
  9 10  1  0  0  0  0
 10 31  1  0  0  0  0
 11 12  1  0  0  0  0
 11 10  1  0  0  0  0
 12 32  1  0  0  0  0
 13 35  1  0  0  0  0
 13 12  1  0  0  0  0
 14 11  1  0  0  0  0
 14 22  1  0  0  0  0
 15 14  2  0  0  0  0
 16 15  1  0  0  0  0
 16 20  1  0  0  0  0
 17 18  2  0  0  0  0
 17 16  1  0  0  0  0
 18 19  1  0  0  0  0
 19 20  2  0  0  0  0
 20 21  1  0  0  0  0
 21 22  2  0  0  0  0
 21 36  1  0  0  0  0
 22 37  1  0  0  0  0
 23  8  1  0  0  0  0
 26  6  1  0  0  0  0
 27  7  1  0  0  0  0
 29  9  1  0  0  0  0
 30 10  1  0  0  0  0
 33 12  1  0  0  0  0
 34 13  1  0  0  0  0
 38 23  1  0  0  0  0
M  END
>  <Pose>
1

>  <Score>
-6.19

$$$$
