
 OpenBabel03172210433D

 39 42  0  0  0  0  0  0  0  0999 V2000
   43.8020   10.9570   43.3590 Cl  0  0  0  0  0  0  0  0  0  0  0  0
   44.5080    9.3550   43.2110 C   0  0  0  0  0  0  0  0  0  0  0  0
   43.6450    8.2860   43.0870 C   0  0  0  0  0  0  0  0  0  0  0  0
   44.2190    7.0380   42.9720 C   0  0  0  0  0  0  0  0  0  0  0  0
   45.5690    6.8060   42.9740 C   0  0  0  0  0  0  0  0  0  0  0  0
   46.4030    7.9220   43.1010 C   0  0  0  0  0  0  0  0  0  0  0  0
   45.8910    9.1880   43.2200 C   0  0  0  0  0  0  0  0  0  0  0  0
   46.1550    5.4780   42.8500 C   0  0  0  0  0  0  0  0  0  0  0  0
   45.9060    4.3710   43.5550 N   0  0  0  0  0  0  0  0  0  0  0  0
   46.6800    3.3760   43.0910 N   0  0  0  0  0  0  0  0  0  0  0  0
   47.4130    3.8510   42.1000 N   0  0  0  0  0  0  0  0  0  0  0  0
   47.0910    5.1380   41.9500 N   0  0  0  0  0  0  0  0  0  0  0  0
   42.1810    8.4620   43.0770 C   0  0  0  0  0  0  0  0  0  0  0  0
   41.6200    8.5190   41.9590 O   0  0  0  0  0  0  0  0  0  0  0  0
   41.4100    8.5650   44.2360 N   0  0  0  0  0  0  0  0  0  0  0  0
   40.8050    9.6750   44.8520 C   0  0  0  0  0  0  0  0  0  0  0  0
   40.9470   11.0250   44.2920 C   0  0  0  0  0  0  0  0  0  0  0  0
   39.7910   11.9160   44.2520 C   0  0  0  0  0  0  0  0  0  0  0  0
   38.6590   11.8200   44.9570 N   0  0  0  0  0  0  0  0  0  0  0  0
   37.8900   12.8530   44.6540 C   0  0  0  0  0  0  0  0  0  0  0  0
   38.5460   13.5990   43.7540 N   0  0  0  0  0  0  0  0  0  0  0  0
   39.6960   13.0280   43.5150 N   0  0  0  0  0  0  0  0  0  0  0  0
   36.6470   13.0430   45.2180 C   0  0  0  0  0  0  0  0  0  0  0  0
   36.2140   12.1000   46.1320 C   0  0  0  0  0  0  0  0  0  0  0  0
   37.0160   11.0350   46.4390 C   0  0  0  0  0  0  0  0  0  0  0  0
   38.2370   10.9010   45.8490 C   0  0  0  0  0  0  0  0  0  0  0  0
   43.5450    6.1990   42.8740 H   0  0  0  0  0  0  0  0  0  0  0  0
   47.4760    7.7210   43.1010 H   0  0  0  0  0  0  0  0  0  0  0  0
   46.5530   10.0370   43.3180 H   0  0  0  0  0  0  0  0  0  0  0  0
   46.7130    2.3900   43.4400 H   0  0  0  0  0  0  0  0  0  0  0  0
   41.2600    7.6180   44.7370 H   0  0  0  0  0  0  0  0  0  0  0  0
   39.6810    9.4670   44.9580 H   0  0  0  0  0  0  0  0  0  0  0  0
   41.0970    9.7260   45.9500 H   0  0  0  0  0  0  0  0  0  0  0  0
   41.4350   10.9610   43.2610 H   0  0  0  0  0  0  0  0  0  0  0  0
   41.7580   11.5860   44.8650 H   0  0  0  0  0  0  0  0  0  0  0  0
   36.0550   13.8880   44.9480 H   0  0  0  0  0  0  0  0  0  0  0  0
   35.2590   12.1930   46.6020 H   0  0  0  0  0  0  0  0  0  0  0  0
   36.7070   10.2840   47.1470 H   0  0  0  0  0  0  0  0  0  0  0  0
   38.8990   10.0680   46.0690 H   0  0  0  0  0  0  0  0  0  0  0  0
  2  7  1  0  0  0  0
  2  1  1  0  0  0  0
  3  2  2  0  0  0  0
  4  5  2  0  0  0  0
  4  3  1  0  0  0  0
  5  6  1  0  0  0  0
  6 28  1  0  0  0  0
  6  7  2  0  0  0  0
  7 29  1  0  0  0  0
  8  5  1  0  0  0  0
  8  9  2  0  0  0  0
 10 30  1  0  0  0  0
 10  9  1  0  0  0  0
 11 10  1  0  0  0  0
 12 11  2  0  0  0  0
 12  8  1  0  0  0  0
 13  3  1  0  0  0  0
 13 15  1  0  0  0  0
 14 13  2  0  0  0  0
 15 31  1  0  0  0  0
 15 16  1  0  0  0  0
 16 32  1  0  0  0  0
 16 33  1  0  0  0  0
 17 16  1  0  0  0  0
 17 35  1  0  0  0  0
 18 17  1  0  0  0  0
 18 19  1  0  0  0  0
 19 26  1  0  0  0  0
 20 19  1  0  0  0  0
 20 23  1  0  0  0  0
 21 20  2  0  0  0  0
 22 21  1  0  0  0  0
 22 18  2  0  0  0  0
 23 24  2  0  0  0  0
 24 25  1  0  0  0  0
 24 37  1  0  0  0  0
 25 38  1  0  0  0  0
 26 39  1  0  0  0  0
 26 25  2  0  0  0  0
 27  4  1  0  0  0  0
 34 17  1  0  0  0  0
 36 23  1  0  0  0  0
M  END
>  <Pose>
1

>  <Score>
-7.24

$$$$
