
 OpenBabel03172210433D

 45 48  0  0  1  0  0  0  0  0999 V2000
   52.6700    2.6030   48.2110 Cl  0  0  0  0  0  0  0  0  0  0  0  0
   51.5530    3.0820   46.9470 C   0  0  0  0  0  0  0  0  0  0  0  0
   50.1790    2.8950   47.1000 C   0  0  0  0  0  0  0  0  0  0  0  0
   49.2940    3.2550   46.1210 C   0  0  0  0  0  0  0  0  0  0  0  0
   49.6970    3.8270   44.9120 C   0  0  0  0  0  0  0  0  0  0  0  0
   51.0620    4.0100   44.7710 C   0  0  0  0  0  0  0  0  0  0  0  0
   51.9530    3.6490   45.7530 C   0  0  0  0  0  0  0  0  0  0  0  0
   48.7630    4.1850   43.9140 N   0  0  0  0  0  0  0  0  0  0  0  0
   48.7650    3.4100   42.7060 C   0  0  0  0  0  0  0  0  0  0  0  0
   49.5630    2.4350   42.6090 O   0  0  0  0  0  0  0  0  0  0  0  0
   47.8540    3.8030   41.6930 N   0  0  0  0  0  0  0  0  0  0  0  0
   47.0580    4.7750   41.7680 C   0  0  0  0  0  0  0  0  0  0  0  0
   46.9230    5.7100   42.9370 C   0  0  1  0  0  0  0  0  0  0  0  0
   47.3860    7.0400   42.4120 C   0  0  0  0  0  0  0  0  0  0  0  0
   46.9100    8.1980   43.0650 N   0  0  0  0  0  4  0  0  0  0  0  0
   45.5510    8.1790   43.4590 C   0  0  0  0  0  0  0  0  0  0  0  0
   44.8980    6.9970   43.5970 C   0  0  0  0  0  0  0  0  0  0  0  0
   43.5630    7.0180   43.9890 C   0  0  0  0  0  0  0  0  0  0  0  0
   42.9340    8.2240   44.2260 C   0  0  0  0  0  0  0  0  0  0  0  0
   43.6010    9.4310   44.0850 C   0  0  0  0  0  0  0  0  0  0  0  0
   44.9380    9.3950   43.6920 C   0  0  0  0  0  0  0  0  0  0  0  0
   41.4950    8.2810   44.6380 C   0  0  0  0  0  0  0  0  0  0  0  0
   45.5060    5.6690   43.3640 C   0  0  0  0  0  0  0  0  0  0  0  0
   47.7330    8.6810   44.1630 C   0  0  0  0  0  0  0  0  0  0  0  0
   47.8520    5.2650   44.0050 C   0  0  0  0  0  0  0  0  0  0  0  0
   47.8780    5.8710   45.1360 O   0  0  0  0  0  0  0  0  0  0  0  0
   46.1920    5.0670   40.6970 O   0  0  0  0  0  0  0  0  0  0  0  0
   49.8590    2.4440   48.0490 H   0  0  0  0  0  0  0  0  0  0  0  0
   48.2060    3.1030   46.2530 H   0  0  0  0  0  0  0  0  0  0  0  0
   51.3660    4.4550   43.8340 H   0  0  0  0  0  0  0  0  0  0  0  0
   53.0270    3.8140   45.5880 H   0  0  0  0  0  0  0  0  0  0  0  0
   47.1970    7.1220   41.3050 H   0  0  0  0  0  0  0  0  0  0  0  0
   48.5090    7.0290   42.5030 H   0  0  0  0  0  0  0  0  0  0  0  0
   46.9600    8.9920   42.3480 H   0  0  0  0  0  0  0  0  0  0  0  0
   42.9930    6.1030   44.1110 H   0  0  0  0  0  0  0  0  0  0  0  0
   43.1220   10.4030   44.2660 H   0  0  0  0  0  0  0  0  0  0  0  0
   45.4540   10.3470   43.5830 H   0  0  0  0  0  0  0  0  0  0  0  0
   40.9620    7.3300   44.4230 H   0  0  0  0  0  0  0  0  0  0  0  0
   41.0120    9.1640   44.1410 H   0  0  0  0  0  0  0  0  0  0  0  0
   41.4350    8.4580   45.7210 H   0  0  0  0  0  0  0  0  0  0  0  0
   44.8400    5.1870   42.5850 H   0  0  0  0  0  0  0  0  0  0  0  0
   45.3630    5.0670   44.2790 H   0  0  0  0  0  0  0  0  0  0  0  0
   48.7600    8.2580   44.1570 H   0  0  0  0  0  0  0  0  0  0  0  0
   47.1910    8.5350   45.1270 H   0  0  0  0  0  0  0  0  0  0  0  0
   47.8810    9.8020   44.0980 H   0  0  0  0  0  0  0  0  0  0  0  0
  2  3  1  0  0  0  0
  2  1  1  0  0  0  0
  3 28  1  0  0  0  0
  4 29  1  0  0  0  0
  4  3  2  0  0  0  0
  5  4  1  0  0  0  0
  6  5  2  0  0  0  0
  6  7  1  0  0  0  0
  7  2  2  0  0  0  0
  8 25  1  0  0  0  0
  8  5  1  0  0  0  0
  9  8  1  0  0  0  0
 10  9  2  0  0  0  0
 11 12  1  0  0  0  0
 11  9  1  0  0  0  0
 13 12  1  6  0  0  0
 13 23  1  0  0  0  0
 13 25  1  0  0  0  0
 14 33  1  0  0  0  0
 14 13  1  0  0  0  0
 14 15  1  0  0  0  0
 15 16  1  0  0  0  0
 15 24  1  0  0  0  0
 16 17  2  0  0  0  0
 16 21  1  0  0  0  0
 17 18  1  0  0  0  0
 18 35  1  0  0  0  0
 18 19  2  0  0  0  0
 19 22  1  0  0  0  0
 20 19  1  0  0  0  0
 20 36  1  0  0  0  0
 21 20  2  0  0  0  0
 22 40  1  0  0  0  0
 23 17  1  0  0  0  0
 23 42  1  0  0  0  0
 24 44  1  0  0  0  0
 25 26  2  0  0  0  0
 27 12  2  0  0  0  0
 30  6  1  0  0  0  0
 31  7  1  0  0  0  0
 32 14  1  0  0  0  0
 34 15  1  0  0  0  0
 37 21  1  0  0  0  0
 38 22  1  0  0  0  0
 39 22  1  0  0  0  0
 41 23  1  0  0  0  0
 43 24  1  0  0  0  0
 45 24  1  0  0  0  0
M  END
>  <Pose>
1

>  <Score>
-5.86

$$$$
