
 OpenBabel03172210433D

 51 54  0  0  1  0  0  0  0  0999 V2000
   49.1470    2.4710   42.6080 Cl  0  0  0  0  0  0  0  0  0  0  0  0
   47.9410    3.7660   42.6230 C   0  0  0  0  0  0  0  0  0  0  0  0
   47.7210    4.5110   43.7540 C   0  0  0  0  0  0  0  0  0  0  0  0
   46.7770    5.5180   43.7470 C   0  0  0  0  0  0  0  0  0  0  0  0
   46.0350    5.8070   42.6310 C   0  0  0  0  0  0  0  0  0  0  0  0
   46.2530    5.0640   41.5050 C   0  0  0  0  0  0  0  0  0  0  0  0
   47.2090    4.0390   41.4930 C   0  0  0  0  0  0  0  0  0  0  0  0
   45.0670    6.8480   42.6580 N   0  0  0  0  0  0  0  0  0  0  0  0
   45.4810    8.2000   42.7950 C   0  0  0  0  0  0  0  0  0  0  0  0
   46.7400    8.4160   42.8880 O   0  0  0  0  0  0  0  0  0  0  0  0
   44.5450    9.2380   42.8240 N   0  0  0  0  0  0  0  0  0  0  0  0
   43.1620    8.9660   42.7170 C   0  0  0  0  0  0  0  0  0  0  0  0
   42.3570    9.8720   42.4270 O   0  0  0  0  0  0  0  0  0  0  0  0
   42.6590    7.5940   42.9540 C   0  0  1  0  0  0  0  0  0  0  0  0
   43.6750    6.5910   42.5530 C   0  0  0  0  0  0  0  0  0  0  0  0
   43.2880    5.4950   42.1110 O   0  0  0  0  0  0  0  0  0  0  0  0
   42.3620    7.3910   44.4140 C   0  0  0  0  0  0  0  0  0  0  0  0
   42.8680    8.0440   45.4430 C   0  0  0  0  0  0  0  0  0  0  0  0
   42.2950    7.5190   46.7080 C   0  0  2  0  0  0  0  0  0  0  0  0
   41.7870    6.2340   46.3170 N   0  0  0  0  0  0  0  0  0  0  0  0
   41.4670    6.4300   44.9650 N   0  0  0  0  0  0  0  0  0  0  0  0
   41.2850    8.4560   47.1880 C   0  0  0  0  0  0  0  0  0  0  0  0
   40.6520    9.2660   46.2690 C   0  0  0  0  0  0  0  0  0  0  0  0
   39.6810   10.1810   46.6220 C   0  0  0  0  0  0  0  0  0  0  0  0
   39.3380   10.2780   47.9770 C   0  0  0  0  0  0  0  0  0  0  0  0
   39.9440    9.4900   48.9320 C   0  0  0  0  0  0  0  0  0  0  0  0
   40.9060    8.5970   48.5050 C   0  0  0  0  0  0  0  0  0  0  0  0
   39.5740    9.6240   50.2370 O   0  0  0  0  0  0  0  0  0  0  0  0
   38.7190    8.7820   50.9540 C   0  0  0  0  0  0  0  0  0  0  0  0
   38.3750   11.1760   48.3790 O   0  0  0  0  0  0  0  0  0  0  0  0
   39.0370   11.0010   45.7050 O   0  0  0  0  0  0  0  0  0  0  0  0
   37.7830   10.5610   45.2270 C   0  0  0  0  0  0  0  0  0  0  0  0
   48.3050    4.2840   44.6300 H   0  0  0  0  0  0  0  0  0  0  0  0
   46.6230    6.0910   44.6500 H   0  0  0  0  0  0  0  0  0  0  0  0
   45.6810    5.2760   40.6200 H   0  0  0  0  0  0  0  0  0  0  0  0
   47.3760    3.4580   40.6030 H   0  0  0  0  0  0  0  0  0  0  0  0
   44.9100   10.2280   42.9260 H   0  0  0  0  0  0  0  0  0  0  0  0
   41.7120    7.4810   42.3910 H   0  0  0  0  0  0  0  0  0  0  0  0
   43.6020    8.8500   45.3330 H   0  0  0  0  0  0  0  0  0  0  0  0
   43.1310    7.4130   47.4380 H   0  0  0  0  0  0  0  0  0  0  0  0
   41.0180    5.8790   46.8820 H   0  0  0  0  0  0  0  0  0  0  0  0
   40.6980    5.9420   44.4630 H   0  0  0  0  0  0  0  0  0  0  0  0
   40.8930    9.2190   45.2110 H   0  0  0  0  0  0  0  0  0  0  0  0
   41.4010    7.9660   49.2190 H   0  0  0  0  0  0  0  0  0  0  0  0
   37.8270    8.4660   50.3690 H   0  0  0  0  0  0  0  0  0  0  0  0
   38.3550    9.1910   51.8930 H   0  0  0  0  0  0  0  0  0  0  0  0
   39.2720    7.8440   51.1830 H   0  0  0  0  0  0  0  0  0  0  0  0
   38.5880   12.1630   48.4060 H   0  0  0  0  0  0  0  0  0  0  0  0
   37.4240   11.2030   44.4050 H   0  0  0  0  0  0  0  0  0  0  0  0
   37.0390   10.4410   46.0270 H   0  0  0  0  0  0  0  0  0  0  0  0
   37.9330    9.5450   44.7750 H   0  0  0  0  0  0  0  0  0  0  0  0
  1  2  1  0  0  0  0
  2  3  1  0  0  0  0
  3 33  1  0  0  0  0
  4  3  2  0  0  0  0
  4 34  1  0  0  0  0
  5  8  1  0  0  0  0
  5  4  1  0  0  0  0
  6  5  2  0  0  0  0
  7  6  1  0  0  0  0
  7  2  2  0  0  0  0
  8  9  1  0  0  0  0
  9 11  1  0  0  0  0
  9 10  2  0  0  0  0
 11 37  1  0  0  0  0
 12 11  1  0  0  0  0
 12 14  1  0  0  0  0
 13 12  2  0  0  0  0
 14 38  1  6  0  0  0
 14 17  1  0  0  0  0
 15  8  1  0  0  0  0
 15 14  1  0  0  0  0
 16 15  2  0  0  0  0
 17 21  1  0  0  0  0
 17 18  2  0  0  0  0
 18 19  1  0  0  0  0
 19 22  1  0  0  0  0
 19 40  1  1  0  0  0
 20 19  1  0  0  0  0
 20 41  1  0  0  0  0
 21 20  1  0  0  0  0
 22 27  1  0  0  0  0
 23 24  1  0  0  0  0
 23 22  2  0  0  0  0
 24 25  2  0  0  0  0
 25 30  1  0  0  0  0
 25 26  1  0  0  0  0
 26 28  1  0  0  0  0
 27 26  2  0  0  0  0
 27 44  1  0  0  0  0
 28 29  1  0  0  0  0
 29 47  1  0  0  0  0
 29 46  1  0  0  0  0
 30 48  1  0  0  0  0
 31 24  1  0  0  0  0
 32 31  1  0  0  0  0
 32 50  1  0  0  0  0
 35  6  1  0  0  0  0
 36  7  1  0  0  0  0
 39 18  1  0  0  0  0
 42 21  1  0  0  0  0
 43 23  1  0  0  0  0
 45 29  1  0  0  0  0
 49 32  1  0  0  0  0
 51 32  1  0  0  0  0
M  END
>  <Pose>
1

>  <Score>
-7.14

$$$$
