
 OpenBabel03172210433D

 47 50  0  0  1  0  0  0  0  0999 V2000
   54.5830    2.6790   46.9950 Cl  0  0  0  0  0  0  0  0  0  0  0  0
   53.0850    2.8000   46.0900 C   0  0  0  0  0  0  0  0  0  0  0  0
   52.4890    1.6740   45.5410 C   0  0  0  0  0  0  0  0  0  0  0  0
   51.3260    1.8010   44.8430 C   0  0  0  0  0  0  0  0  0  0  0  0
   50.7020    3.0290   44.6550 C   0  0  0  0  0  0  0  0  0  0  0  0
   51.2980    4.1430   45.2020 C   0  0  0  0  0  0  0  0  0  0  0  0
   52.4910    4.0400   45.9220 C   0  0  0  0  0  0  0  0  0  0  0  0
   49.4890    3.1560   43.9250 N   0  0  0  0  0  0  0  0  0  0  0  0
   49.3740    2.8000   42.5540 C   0  0  0  0  0  0  0  0  0  0  0  0
   50.4010    2.3540   41.9640 O   0  0  0  0  0  0  0  0  0  0  0  0
   48.1530    2.9340   41.8550 N   0  0  0  0  0  0  0  0  0  0  0  0
   47.0010    3.4310   42.5090 C   0  0  0  0  0  0  0  0  0  0  0  0
   45.8490    3.3920   41.9510 O   0  0  0  0  0  0  0  0  0  0  0  0
   47.0720    4.0100   43.8500 C   0  0  1  0  0  0  0  0  0  0  0  0
   48.3130    3.6510   44.5480 C   0  0  0  0  0  0  0  0  0  0  0  0
   48.3750    3.7820   45.8200 O   0  0  0  0  0  0  0  0  0  0  0  0
   46.8680    5.4880   43.7860 C   0  0  0  0  0  0  0  0  0  0  0  0
   46.5840    6.2200   42.7420 C   0  0  0  0  0  0  0  0  0  0  0  0
   46.4840    7.6260   43.2070 C   0  0  2  0  0  0  0  0  0  0  0  0
   47.1680    7.6210   44.4830 N   0  0  0  0  0  0  0  0  0  0  0  0
   46.9680    6.3140   44.9410 N   0  0  0  0  0  0  0  0  0  0  0  0
   45.0590    8.0200   43.3870 C   0  0  0  0  0  0  0  0  0  0  0  0
   44.0570    7.0940   43.5650 C   0  0  0  0  0  0  0  0  0  0  0  0
   42.7310    7.4490   43.7320 C   0  0  0  0  0  0  0  0  0  0  0  0
   42.3690    8.7770   43.7230 C   0  0  0  0  0  0  0  0  0  0  0  0
   43.3550    9.7160   43.5470 C   0  0  0  0  0  0  0  0  0  0  0  0
   44.6730    9.3520   43.3820 C   0  0  0  0  0  0  0  0  0  0  0  0
   41.0510    9.1540   43.8880 O   0  0  0  0  0  0  0  0  0  0  0  0
   40.5960   10.3610   43.3210 C   0  0  0  0  0  0  0  0  0  0  0  0
   41.7690    6.4730   43.9070 O   0  0  0  0  0  0  0  0  0  0  0  0
   52.9480    0.7200   45.6710 H   0  0  0  0  0  0  0  0  0  0  0  0
   50.8600    0.9070   44.4110 H   0  0  0  0  0  0  0  0  0  0  0  0
   50.8050    5.0950   45.0510 H   0  0  0  0  0  0  0  0  0  0  0  0
   52.9230    4.9470   46.3350 H   0  0  0  0  0  0  0  0  0  0  0  0
   48.0890    2.6650   40.8390 H   0  0  0  0  0  0  0  0  0  0  0  0
   46.2110    3.5680   44.4320 H   0  0  0  0  0  0  0  0  0  0  0  0
   46.4550    5.8240   41.7370 H   0  0  0  0  0  0  0  0  0  0  0  0
   46.9820    8.3130   42.4820 H   0  0  0  0  0  0  0  0  0  0  0  0
   48.1860    7.8400   44.3730 H   0  0  0  0  0  0  0  0  0  0  0  0
   46.9110    6.0530   45.9600 H   0  0  0  0  0  0  0  0  0  0  0  0
   44.3690    6.0450   43.5680 H   0  0  0  0  0  0  0  0  0  0  0  0
   43.0760   10.7780   43.5400 H   0  0  0  0  0  0  0  0  0  0  0  0
   45.4660   10.0950   43.2400 H   0  0  0  0  0  0  0  0  0  0  0  0
   40.6540   10.3640   42.2160 H   0  0  0  0  0  0  0  0  0  0  0  0
   39.5630   10.5460   43.6710 H   0  0  0  0  0  0  0  0  0  0  0  0
   41.2210   11.1780   43.7400 H   0  0  0  0  0  0  0  0  0  0  0  0
   41.8880    5.7400   44.5770 H   0  0  0  0  0  0  0  0  0  0  0  0
  2  1  1  0  0  0  0
  3 31  1  0  0  0  0
  3  2  2  0  0  0  0
  4  3  1  0  0  0  0
  5  4  2  0  0  0  0
  5  6  1  0  0  0  0
  6  7  2  0  0  0  0
  7  2  1  0  0  0  0
  7 34  1  0  0  0  0
  8 15  1  0  0  0  0
  8  5  1  0  0  0  0
  9  8  1  0  0  0  0
 10  9  2  0  0  0  0
 11 12  1  0  0  0  0
 11  9  1  0  0  0  0
 12 14  1  0  0  0  0
 13 12  2  0  0  0  0
 14 36  1  1  0  0  0
 14 15  1  0  0  0  0
 15 16  2  0  0  0  0
 17 14  1  0  0  0  0
 17 21  1  0  0  0  0
 18 19  1  0  0  0  0
 18 17  2  0  0  0  0
 19 38  1  6  0  0  0
 19 22  1  0  0  0  0
 19 20  1  0  0  0  0
 20 21  1  0  0  0  0
 21 40  1  0  0  0  0
 22 23  1  0  0  0  0
 23 41  1  0  0  0  0
 23 24  2  0  0  0  0
 24 30  1  0  0  0  0
 25 24  1  0  0  0  0
 25 28  1  0  0  0  0
 26 25  2  0  0  0  0
 27 22  2  0  0  0  0
 27 26  1  0  0  0  0
 29 45  1  0  0  0  0
 29 46  1  0  0  0  0
 29 28  1  0  0  0  0
 30 47  1  0  0  0  0
 32  4  1  0  0  0  0
 33  6  1  0  0  0  0
 35 11  1  0  0  0  0
 37 18  1  0  0  0  0
 39 20  1  0  0  0  0
 42 26  1  0  0  0  0
 43 27  1  0  0  0  0
 44 29  1  0  0  0  0
M  END
>  <Pose>
1

>  <Score>
-6.77

$$$$
