
 OpenBabel03172210433D

 43 46  0  0  1  0  0  0  0  0999 V2000
   43.1180   10.5730   43.4490 Cl  0  0  0  0  0  0  0  0  0  0  0  0
   44.1780    9.2050   43.2730 C   0  0  0  0  0  0  0  0  0  0  0  0
   43.6210    7.9340   43.3160 C   0  0  0  0  0  0  0  0  0  0  0  0
   44.4430    6.8310   43.1780 C   0  0  0  0  0  0  0  0  0  0  0  0
   45.8090    6.9300   42.9960 C   0  0  0  0  0  0  0  0  0  0  0  0
   46.3440    8.2020   42.9550 C   0  0  0  0  0  0  0  0  0  0  0  0
   45.5530    9.3290   43.0890 C   0  0  0  0  0  0  0  0  0  0  0  0
   46.6400    5.7560   42.8520 N   0  0  0  0  0  0  0  0  0  0  0  0
   46.5890    5.0720   41.5890 C   0  0  0  0  0  0  0  0  0  0  0  0
   45.8470    5.4820   40.6440 O   0  0  0  0  0  0  0  0  0  0  0  0
   47.4070    3.9200   41.4540 N   0  0  0  0  0  0  0  0  0  0  0  0
   48.2420    3.4750   42.5470 C   0  0  0  0  0  0  0  0  0  0  0  0
   49.2270    2.7870   42.2510 O   0  0  0  0  0  0  0  0  0  0  0  0
   47.8950    3.8480   43.9050 C   0  0  2  0  0  0  0  0  0  0  0  0
   47.4770    5.2820   43.8950 C   0  0  0  0  0  0  0  0  0  0  0  0
   47.8230    6.1180   44.7680 O   0  0  0  0  0  0  0  0  0  0  0  0
   48.8390    3.5420   44.9550 C   0  0  0  0  0  0  0  0  0  0  0  0
   50.1420    3.3890   44.8820 C   0  0  0  0  0  0  0  0  0  0  0  0
   50.7240    3.0810   46.2110 C   0  0  2  0  0  0  0  0  0  0  0  0
   49.6210    3.3400   47.1090 N   0  0  0  0  0  0  0  0  0  0  0  0
   48.4650    3.3340   46.3330 N   0  0  0  0  0  0  0  0  0  0  0  0
   51.8250    3.9770   46.5820 C   0  0  0  0  0  0  0  0  0  0  0  0
   51.5080    5.2340   47.0750 C   0  0  0  0  0  0  0  0  0  0  0  0
   52.5160    6.0980   47.4320 C   0  0  0  0  0  0  0  0  0  0  0  0
   53.8410    5.7490   47.3150 C   0  0  0  0  0  0  0  0  0  0  0  0
   54.1730    4.5070   46.8280 C   0  0  0  0  0  0  0  0  0  0  0  0
   53.1470    3.6330   46.4660 C   0  0  0  0  0  0  0  0  0  0  0  0
   52.2080    7.3700   47.9320 O   0  0  0  0  0  0  0  0  0  0  0  0
   42.5370    7.8200   43.4610 H   0  0  0  0  0  0  0  0  0  0  0  0
   44.0150    5.8500   43.2130 H   0  0  0  0  0  0  0  0  0  0  0  0
   47.3940    8.3440   42.8150 H   0  0  0  0  0  0  0  0  0  0  0  0
   45.9400   10.3410   43.0610 H   0  0  0  0  0  0  0  0  0  0  0  0
   47.3850    3.4130   40.5520 H   0  0  0  0  0  0  0  0  0  0  0  0
   46.9420    3.2540   44.1500 H   0  0  0  0  0  0  0  0  0  0  0  0
   50.7970    3.4560   44.0110 H   0  0  0  0  0  0  0  0  0  0  0  0
   51.0380    2.0070   46.2490 H   0  0  0  0  0  0  0  0  0  0  0  0
   49.7440    4.2170   47.6600 H   0  0  0  0  0  0  0  0  0  0  0  0
   47.5150    3.1960   46.7380 H   0  0  0  0  0  0  0  0  0  0  0  0
   50.4630    5.5190   47.1720 H   0  0  0  0  0  0  0  0  0  0  0  0
   54.6400    6.4350   47.6000 H   0  0  0  0  0  0  0  0  0  0  0  0
   55.2020    4.1680   46.7100 H   0  0  0  0  0  0  0  0  0  0  0  0
   53.3940    2.6530   46.0820 H   0  0  0  0  0  0  0  0  0  0  0  0
   52.4650    7.6000   48.8760 H   0  0  0  0  0  0  0  0  0  0  0  0
  2  3  1  0  0  0  0
  2  1  1  0  0  0  0
  3 29  1  0  0  0  0
  4 30  1  0  0  0  0
  4  3  2  0  0  0  0
  5  4  1  0  0  0  0
  6  5  2  0  0  0  0
  6  7  1  0  0  0  0
  7  2  2  0  0  0  0
  8  5  1  0  0  0  0
  8 15  1  0  0  0  0
  9  8  1  0  0  0  0
 10  9  2  0  0  0  0
 11  9  1  0  0  0  0
 11 12  1  0  0  0  0
 12 14  1  0  0  0  0
 13 12  2  0  0  0  0
 14 34  1  1  0  0  0
 14 17  1  0  0  0  0
 15 14  1  0  0  0  0
 15 16  2  0  0  0  0
 17 21  1  0  0  0  0
 18 17  2  0  0  0  0
 18 19  1  0  0  0  0
 19 36  1  1  0  0  0
 19 22  1  0  0  0  0
 19 20  1  0  0  0  0
 20 37  1  0  0  0  0
 21 38  1  0  0  0  0
 21 20  1  0  0  0  0
 22 23  1  0  0  0  0
 23 39  1  0  0  0  0
 23 24  2  0  0  0  0
 24 28  1  0  0  0  0
 25 24  1  0  0  0  0
 25 40  1  0  0  0  0
 26 25  2  0  0  0  0
 27 22  2  0  0  0  0
 27 26  1  0  0  0  0
 28 43  1  0  0  0  0
 31  6  1  0  0  0  0
 32  7  1  0  0  0  0
 33 11  1  0  0  0  0
 35 18  1  0  0  0  0
 41 26  1  0  0  0  0
 42 27  1  0  0  0  0
M  END
>  <Pose>
1

>  <Score>
-7.30

$$$$
