
 OpenBabel03172210433D

 53 56  0  0  1  0  0  0  0  0999 V2000
   47.5710    4.3150   43.2410 Cl  0  0  0  0  0  0  0  0  0  0  0  0
   46.2910    5.5340   43.2990 C   0  0  0  0  0  0  0  0  0  0  0  0
   45.1190    5.2430   43.9600 C   0  0  0  0  0  0  0  0  0  0  0  0
   44.1080    6.1980   44.0100 C   0  0  0  0  0  0  0  0  0  0  0  0
   44.2630    7.4190   43.4110 C   0  0  0  0  0  0  0  0  0  0  0  0
   45.4460    7.6810   42.7560 C   0  0  0  0  0  0  0  0  0  0  0  0
   46.4720    6.7550   42.6870 C   0  0  0  0  0  0  0  0  0  0  0  0
   43.2040    8.4370   43.4540 N   0  0  0  0  0  0  0  0  0  0  0  0
   43.0920    9.2800   44.5900 C   0  0  2  0  0  0  0  0  0  0  0  0
   41.9410   10.1700   44.5750 C   0  0  0  0  0  0  0  0  0  0  0  0
   41.0920   10.2600   43.5130 C   0  0  0  0  0  0  0  0  0  0  0  0
   40.0100   11.1600   43.5590 C   0  0  0  0  0  0  0  0  0  0  0  0
   39.7600   11.9690   44.6390 C   0  0  0  0  0  0  0  0  0  0  0  0
   40.6330   11.8640   45.7090 C   0  0  0  0  0  0  0  0  0  0  0  0
   41.6780   10.9980   45.6720 C   0  0  0  0  0  0  0  0  0  0  0  0
   41.2450    9.4420   42.3420 N   0  0  0  0  0  0  0  0  0  0  0  0
   42.3300    8.5370   42.3610 C   0  0  0  0  0  0  0  0  0  0  0  0
   42.5360    7.7770   41.3590 O   0  0  0  0  0  0  0  0  0  0  0  0
   44.2640   10.1140   44.5290 O   0  0  0  0  0  0  0  0  0  0  0  0
   43.2150    8.5300   45.8660 C   0  0  0  0  0  0  0  0  0  0  0  0
   42.4350    7.6110   46.1210 O   0  0  0  0  0  0  0  0  0  0  0  0
   44.2390    8.9060   46.7560 N   0  0  0  0  0  0  0  0  0  0  0  0
   43.9690    9.3710   48.1170 C   0  0  0  0  0  0  0  0  0  0  0  0
   44.9670    8.8820   49.0950 C   0  0  0  0  0  0  0  0  0  0  0  0
   46.2860    9.3720   48.9810 N   0  0  0  0  0  0  0  0  0  0  0  0
   46.5930   10.6280   49.5300 C   0  0  0  0  0  0  0  0  0  0  0  0
   48.1140   10.8050   49.5230 C   0  0  0  0  0  0  0  0  0  0  0  0
   48.6720   10.1770   48.3940 O   0  0  0  0  0  0  0  0  0  0  0  0
   48.6180    8.7900   48.5100 C   0  0  0  0  0  0  0  0  0  0  0  0
   47.3240    8.4200   49.1820 C   0  0  0  0  0  0  0  0  0  0  0  0
   45.0210    4.2790   44.4220 H   0  0  0  0  0  0  0  0  0  0  0  0
   43.2080    5.9490   44.5300 H   0  0  0  0  0  0  0  0  0  0  0  0
   45.5910    8.6320   42.2790 H   0  0  0  0  0  0  0  0  0  0  0  0
   47.4020    6.9360   42.1840 H   0  0  0  0  0  0  0  0  0  0  0  0
   39.3670   11.1970   42.6990 H   0  0  0  0  0  0  0  0  0  0  0  0
   38.9400   12.6620   44.6930 H   0  0  0  0  0  0  0  0  0  0  0  0
   40.4500   12.5050   46.5900 H   0  0  0  0  0  0  0  0  0  0  0  0
   42.3470   10.9250   46.5050 H   0  0  0  0  0  0  0  0  0  0  0  0
   40.5810    9.5400   41.5530 H   0  0  0  0  0  0  0  0  0  0  0  0
   44.9380    9.7830   45.1790 H   0  0  0  0  0  0  0  0  0  0  0  0
   45.2620    8.8720   46.4890 H   0  0  0  0  0  0  0  0  0  0  0  0
   43.8510   10.4550   48.0540 H   0  0  0  0  0  0  0  0  0  0  0  0
   42.9780    8.9480   48.3840 H   0  0  0  0  0  0  0  0  0  0  0  0
   45.0120    7.7620   48.9970 H   0  0  0  0  0  0  0  0  0  0  0  0
   44.6090    9.0620   50.1300 H   0  0  0  0  0  0  0  0  0  0  0  0
   46.0820   11.4940   49.0720 H   0  0  0  0  0  0  0  0  0  0  0  0
   46.2970   10.6370   50.6030 H   0  0  0  0  0  0  0  0  0  0  0  0
   48.4100   11.8560   49.5450 H   0  0  0  0  0  0  0  0  0  0  0  0
   48.5840   10.3020   50.4010 H   0  0  0  0  0  0  0  0  0  0  0  0
   49.4870    8.3700   49.0540 H   0  0  0  0  0  0  0  0  0  0  0  0
   48.6290    8.3440   47.5020 H   0  0  0  0  0  0  0  0  0  0  0  0
   46.9840    7.4000   48.9070 H   0  0  0  0  0  0  0  0  0  0  0  0
   47.5470    8.3840   50.2860 H   0  0  0  0  0  0  0  0  0  0  0  0
  1  2  1  0  0  0  0
  2  3  1  0  0  0  0
  3  4  2  0  0  0  0
  3 31  1  0  0  0  0
  4 32  1  0  0  0  0
  5  8  1  0  0  0  0
  5  4  1  0  0  0  0
  6  5  2  0  0  0  0
  7  6  1  0  0  0  0
  7  2  2  0  0  0  0
  8  9  1  0  0  0  0
  9 19  1  6  0  0  0
  9 20  1  0  0  0  0
 10  9  1  0  0  0  0
 10 15  1  0  0  0  0
 11 12  1  0  0  0  0
 11 10  2  0  0  0  0
 12 13  2  0  0  0  0
 13 36  1  0  0  0  0
 13 14  1  0  0  0  0
 14 37  1  0  0  0  0
 15 14  2  0  0  0  0
 15 38  1  0  0  0  0
 16 17  1  0  0  0  0
 16 11  1  0  0  0  0
 17  8  1  0  0  0  0
 18 17  2  0  0  0  0
 19 40  1  0  0  0  0
 20 21  2  0  0  0  0
 20 22  1  0  0  0  0
 22 23  1  0  0  0  0
 23 43  1  0  0  0  0
 23 24  1  0  0  0  0
 24 45  1  0  0  0  0
 25 24  1  0  0  0  0
 25 30  1  0  0  0  0
 25 26  1  0  0  0  0
 26 47  1  0  0  0  0
 27 26  1  0  0  0  0
 27 48  1  0  0  0  0
 27 49  1  0  0  0  0
 28 29  1  0  0  0  0
 28 27  1  0  0  0  0
 29 50  1  0  0  0  0
 29 30  1  0  0  0  0
 30 53  1  0  0  0  0
 33  6  1  0  0  0  0
 34  7  1  0  0  0  0
 35 12  1  0  0  0  0
 39 16  1  0  0  0  0
 41 22  1  0  0  0  0
 42 23  1  0  0  0  0
 44 24  1  0  0  0  0
 46 26  1  0  0  0  0
 51 29  1  0  0  0  0
 52 30  1  0  0  0  0
M  END
>  <Pose>
1

>  <Score>
-6.31

$$$$
