
 OpenBabel03172210433D

 58 62  0  0  1  0  0  0  0  0999 V2000
   37.9450   10.4230   45.2260 Cl  0  0  0  0  0  0  0  0  0  0  0  0
   38.8500   10.2340   46.7120 C   0  0  0  0  0  0  0  0  0  0  0  0
   40.1410    9.7470   46.6940 C   0  0  0  0  0  0  0  0  0  0  0  0
   40.8770    9.5880   47.8470 C   0  0  0  0  0  0  0  0  0  0  0  0
   40.2880    9.9330   49.0430 C   0  0  0  0  0  0  0  0  0  0  0  0
   39.0160   10.4110   49.0460 C   0  0  0  0  0  0  0  0  0  0  0  0
   38.2630   10.5780   47.9060 C   0  0  0  0  0  0  0  0  0  0  0  0
   42.2830    9.0560   47.7980 C   0  0  0  0  0  0  0  0  0  0  0  0
   42.7850    9.1110   46.4370 N   0  0  0  0  0  0  0  0  0  0  0  0
   43.2960   10.3100   45.8660 C   0  0  0  0  0  0  0  0  0  0  0  0
   43.2410   11.3920   46.5340 O   0  0  0  0  0  0  0  0  0  0  0  0
   43.8940   10.3750   44.5290 C   0  0  1  0  0  0  0  0  0  0  0  0
   43.7230    9.2040   43.7350 N   0  0  1  0  0  0  0  0  0  0  0  0
   43.6900    7.9600   44.4330 C   0  0  0  0  0  0  0  0  0  0  0  0
   45.0270    7.3020   44.6750 C   0  0  0  0  0  0  0  0  0  0  0  0
   44.6770    6.2670   43.7570 N   0  0  0  0  0  0  0  0  0  0  0  0
   43.4230    6.8330   43.4500 C   0  0  0  0  0  0  0  0  0  0  0  0
   45.5880    5.9080   42.7320 C   0  0  0  0  0  0  0  0  0  0  0  0
   46.8140    5.2280   43.1660 C   0  0  0  0  0  0  0  0  0  0  0  0
   47.2040    4.0590   42.5610 C   0  0  0  0  0  0  0  0  0  0  0  0
   48.3670    3.3910   42.9540 C   0  0  0  0  0  0  0  0  0  0  0  0
   49.1310    3.9210   43.9680 C   0  0  0  0  0  0  0  0  0  0  0  0
   48.7650    5.0900   44.5910 C   0  0  0  0  0  0  0  0  0  0  0  0
   47.6000    5.7300   44.1740 C   0  0  0  0  0  0  0  0  0  0  0  0
   48.7610    2.2150   42.3480 O   0  0  0  0  0  0  0  0  0  0  0  0
   50.0460    1.7000   42.6440 C   0  0  0  0  0  0  0  0  0  0  0  0
   42.7830    7.9540   45.6100 C   0  0  0  0  0  0  0  0  0  0  0  0
   42.0310    6.9870   45.8960 O   0  0  0  0  0  0  0  0  0  0  0  0
   42.5220    9.3540   42.9660 C   0  0  0  0  0  0  0  0  0  0  0  0
   41.9550   10.7160   43.2490 C   0  0  1  0  0  0  0  0  0  0  0  0
   43.1440   11.4750   43.7640 C   0  0  0  0  0  0  0  0  0  0  0  0
   41.3870   11.3100   42.1290 O   0  0  0  0  0  0  0  0  0  0  0  0
   40.6020    9.4750   45.7320 H   0  0  0  0  0  0  0  0  0  0  0  0
   40.8530    9.8140   49.9400 H   0  0  0  0  0  0  0  0  0  0  0  0
   38.5620   10.6800   49.9980 H   0  0  0  0  0  0  0  0  0  0  0  0
   37.2380   10.9660   47.9390 H   0  0  0  0  0  0  0  0  0  0  0  0
   42.2330    7.9980   48.1330 H   0  0  0  0  0  0  0  0  0  0  0  0
   42.8930    9.6870   48.4730 H   0  0  0  0  0  0  0  0  0  0  0  0
   44.9670   10.6810   44.5670 H   0  0  0  0  0  0  0  0  0  0  0  0
   45.9070    7.9110   44.4780 H   0  0  0  0  0  0  0  0  0  0  0  0
   45.0760    6.8610   45.7130 H   0  0  0  0  0  0  0  0  0  0  0  0
   43.2030    7.1510   42.4280 H   0  0  0  0  0  0  0  0  0  0  0  0
   42.5640    6.2070   43.8290 H   0  0  0  0  0  0  0  0  0  0  0  0
   45.0040    5.2810   41.9910 H   0  0  0  0  0  0  0  0  0  0  0  0
   45.8150    6.8400   42.1340 H   0  0  0  0  0  0  0  0  0  0  0  0
   46.6500    3.5870   41.7590 H   0  0  0  0  0  0  0  0  0  0  0  0
   50.0350    3.3740   44.2520 H   0  0  0  0  0  0  0  0  0  0  0  0
   49.4040    5.4580   45.3800 H   0  0  0  0  0  0  0  0  0  0  0  0
   47.3610    6.6440   44.6990 H   0  0  0  0  0  0  0  0  0  0  0  0
   50.1750    0.7960   42.0080 H   0  0  0  0  0  0  0  0  0  0  0  0
   50.8440    2.4480   42.4230 H   0  0  0  0  0  0  0  0  0  0  0  0
   50.1420    1.4100   43.7090 H   0  0  0  0  0  0  0  0  0  0  0  0
   41.7340    8.6030   43.2250 H   0  0  0  0  0  0  0  0  0  0  0  0
   42.7710    9.2620   41.8680 H   0  0  0  0  0  0  0  0  0  0  0  0
   41.2180   10.6340   44.0960 H   0  0  0  0  0  0  0  0  0  0  0  0
   42.8730   12.3100   44.4280 H   0  0  0  0  0  0  0  0  0  0  0  0
   43.7730   11.7730   42.9190 H   0  0  0  0  0  0  0  0  0  0  0  0
   40.9750   10.5900   41.5930 H   0  0  0  0  0  0  0  0  0  0  0  0
  1  2  1  0  0  0  0
  2  7  1  0  0  0  0
  3  2  2  0  0  0  0
  3  4  1  0  0  0  0
  4  5  2  0  0  0  0
  5  6  1  0  0  0  0
  5 34  1  0  0  0  0
  6 35  1  0  0  0  0
  7 36  1  0  0  0  0
  7  6  2  0  0  0  0
  8  4  1  0  0  0  0
  8 37  1  0  0  0  0
  8 38  1  0  0  0  0
  9  8  1  0  0  0  0
 10  9  1  0  0  0  0
 10 11  2  0  0  0  0
 12 39  1  1  0  0  0
 12 10  1  0  0  0  0
 13 29  1  1  0  0  0
 13 14  1  0  0  0  0
 13 12  1  0  0  0  0
 14 15  1  0  0  0  0
 14 27  1  0  0  0  0
 15 41  1  0  0  0  0
 16 15  1  0  0  0  0
 17 16  1  0  0  0  0
 17 43  1  0  0  0  0
 17 14  1  0  0  0  0
 18 19  1  0  0  0  0
 18 16  1  0  0  0  0
 19 24  1  0  0  0  0
 20 21  1  0  0  0  0
 20 19  2  0  0  0  0
 21 22  2  0  0  0  0
 22 47  1  0  0  0  0
 22 23  1  0  0  0  0
 23 48  1  0  0  0  0
 24 23  2  0  0  0  0
 24 49  1  0  0  0  0
 25 26  1  0  0  0  0
 25 21  1  0  0  0  0
 26 52  1  0  0  0  0
 27 28  2  0  0  0  0
 27  9  1  0  0  0  0
 29 53  1  0  0  0  0
 29 30  1  0  0  0  0
 30 31  1  0  0  0  0
 30 55  1  1  0  0  0
 31 56  1  0  0  0  0
 31 12  1  0  0  0  0
 32 30  1  0  0  0  0
 33  3  1  0  0  0  0
 40 15  1  0  0  0  0
 42 17  1  0  0  0  0
 44 18  1  0  0  0  0
 45 18  1  0  0  0  0
 46 20  1  0  0  0  0
 50 26  1  0  0  0  0
 51 26  1  0  0  0  0
 54 29  1  0  0  0  0
 57 31  1  0  0  0  0
 58 32  1  0  0  0  0
M  END
>  <Pose>
1

>  <Score>
-5.82

$$$$
