
 OpenBabel03172210433D

 58 61  0  0  1  0  0  0  0  0999 V2000
   37.0340   13.2430   50.4390 Cl  0  0  0  0  0  0  0  0  0  0  0  0
   37.7830   12.4970   49.0080 C   0  0  0  0  0  0  0  0  0  0  0  0
   37.7790   11.1310   48.8490 C   0  0  0  0  0  0  0  0  0  0  0  0
   38.3860   10.5560   47.7230 C   0  0  0  0  0  0  0  0  0  0  0  0
   38.9970   11.3290   46.7470 C   0  0  0  0  0  0  0  0  0  0  0  0
   38.9850   12.6750   46.9270 C   0  0  0  0  0  0  0  0  0  0  0  0
   38.3940   13.2690   48.0340 C   0  0  0  0  0  0  0  0  0  0  0  0
   39.6290   10.5930   45.6280 C   0  0  1  0  0  0  0  0  0  0  0  0
   40.5600   11.3990   44.8250 C   0  0  0  0  0  0  0  0  0  0  0  0
   41.7750   10.7050   44.2630 C   0  0  0  0  0  0  0  0  0  0  0  0
   41.8130    9.2890   44.4320 N   0  0  0  0  0  0  0  0  0  0  0  0
   41.4670    8.8370   45.7950 C   0  0  0  0  0  0  0  0  0  0  0  0
   40.1890    9.3390   46.2540 C   0  0  0  0  0  0  0  0  0  0  0  0
   42.3950    8.3480   43.5490 C   0  0  0  0  0  0  0  0  0  0  0  0
   42.0680    8.3000   42.3660 O   0  0  0  0  0  0  0  0  0  0  0  0
   43.4500    7.3750   44.0570 C   0  0  1  0  0  0  0  0  0  0  0  0
   44.7510    7.9980   43.9920 N   0  0  0  0  0  0  0  0  0  0  0  0
   45.8230    7.5380   43.2300 C   0  0  0  0  0  0  0  0  0  0  0  0
   46.7800    8.5300   43.1430 O   0  0  0  0  0  0  0  0  0  0  0  0
   46.2340    6.3950   42.5610 C   0  0  0  0  0  0  0  0  0  0  0  0
   46.9250    5.2950   42.5380 C   0  0  0  0  0  0  0  0  0  0  0  0
   46.8740    4.4430   41.3420 N   0  0  0  0  0  0  0  0  0  0  0  0
   47.6420    3.3060   41.1880 N   0  0  0  0  0  0  0  0  0  0  0  0
   48.5290    2.8780   42.1620 C   0  0  0  0  0  0  0  0  0  0  0  0
   49.2420    1.8470   42.0670 O   0  0  0  0  0  0  0  0  0  0  0  0
   48.6520    3.6730   43.4070 C   0  0  0  0  0  0  0  0  0  0  0  0
   47.8710    4.7990   43.5180 C   0  0  0  0  0  0  0  0  0  0  0  0
   48.0950    5.5720   44.6640 C   0  0  0  0  0  0  0  0  0  0  0  0
   49.0360    5.1980   45.6120 C   0  0  0  0  0  0  0  0  0  0  0  0
   49.7850    4.0600   45.4630 C   0  0  0  0  0  0  0  0  0  0  0  0
   49.5870    3.2900   44.3370 C   0  0  0  0  0  0  0  0  0  0  0  0
   43.0830    6.4610   45.0990 C   0  0  0  0  0  0  0  0  0  0  0  0
   38.5690   10.1920   44.7590 O   0  0  0  0  0  0  0  0  0  0  0  0
   37.2960   10.5130   49.6050 H   0  0  0  0  0  0  0  0  0  0  0  0
   38.3450    9.4810   47.6370 H   0  0  0  0  0  0  0  0  0  0  0  0
   39.4300   13.3570   46.2110 H   0  0  0  0  0  0  0  0  0  0  0  0
   38.3820   14.3290   48.1890 H   0  0  0  0  0  0  0  0  0  0  0  0
   40.9270   12.3330   45.3310 H   0  0  0  0  0  0  0  0  0  0  0  0
   39.9870   11.7870   43.9220 H   0  0  0  0  0  0  0  0  0  0  0  0
   42.6770   11.0720   44.8880 H   0  0  0  0  0  0  0  0  0  0  0  0
   42.0640   11.0430   43.2500 H   0  0  0  0  0  0  0  0  0  0  0  0
   42.2920    9.3850   46.4180 H   0  0  0  0  0  0  0  0  0  0  0  0
   41.6260    7.7780   45.9500 H   0  0  0  0  0  0  0  0  0  0  0  0
   39.4160    8.5460   46.2110 H   0  0  0  0  0  0  0  0  0  0  0  0
   40.2920    9.5010   47.3910 H   0  0  0  0  0  0  0  0  0  0  0  0
   43.5280    6.6800   43.0760 H   0  0  0  0  0  0  0  0  0  0  0  0
   44.8000    8.8340   44.6670 H   0  0  0  0  0  0  0  0  0  0  0  0
   45.7000    6.4150   41.4710 H   0  0  0  0  0  0  0  0  0  0  0  0
   46.2030    4.7570   40.5890 H   0  0  0  0  0  0  0  0  0  0  0  0
   47.5520    2.7400   40.2990 H   0  0  0  0  0  0  0  0  0  0  0  0
   47.5760    6.4630   44.7720 H   0  0  0  0  0  0  0  0  0  0  0  0
   49.1810    5.8250   46.5090 H   0  0  0  0  0  0  0  0  0  0  0  0
   50.5030    3.8290   46.2300 H   0  0  0  0  0  0  0  0  0  0  0  0
   50.1540    2.3850   44.1690 H   0  0  0  0  0  0  0  0  0  0  0  0
   43.6490    6.5340   46.0560 H   0  0  0  0  0  0  0  0  0  0  0  0
   43.2220    5.3610   44.8060 H   0  0  0  0  0  0  0  0  0  0  0  0
   41.9760    6.4780   45.3180 H   0  0  0  0  0  0  0  0  0  0  0  0
   38.7500    9.3280   44.3530 H   0  0  0  0  0  0  0  0  0  0  0  0
  2  1  1  0  0  0  0
  3  2  1  0  0  0  0
  3 34  1  0  0  0  0
  4  3  2  0  0  0  0
  5  6  2  0  0  0  0
  5  4  1  0  0  0  0
  6  7  1  0  0  0  0
  7 37  1  0  0  0  0
  7  2  2  0  0  0  0
  8 33  1  6  0  0  0
  8 13  1  0  0  0  0
  8  5  1  0  0  0  0
  9 38  1  0  0  0  0
  9  8  1  0  0  0  0
 10 11  1  0  0  0  0
 10  9  1  0  0  0  0
 10 40  1  0  0  0  0
 11 12  1  0  0  0  0
 12 43  1  0  0  0  0
 12 13  1  0  0  0  0
 12 42  1  0  0  0  0
 13 45  1  0  0  0  0
 14 16  1  0  0  0  0
 14 11  1  0  0  0  0
 15 14  2  0  0  0  0
 16 46  1  6  0  0  0
 16 32  1  0  0  0  0
 17 16  1  0  0  0  0
 17 47  1  0  0  0  0
 18 17  1  0  0  0  0
 19 18  2  0  0  0  0
 20 18  1  0  0  0  0
 21 20  2  0  0  0  0
 21 27  1  0  0  0  0
 22 21  1  0  0  0  0
 23 22  1  0  0  0  0
 23 24  1  0  0  0  0
 24 26  1  0  0  0  0
 25 24  2  0  0  0  0
 26 27  2  0  0  0  0
 26 31  1  0  0  0  0
 27 28  1  0  0  0  0
 28 51  1  0  0  0  0
 28 29  2  0  0  0  0
 29 52  1  0  0  0  0
 30 29  1  0  0  0  0
 30 53  1  0  0  0  0
 31 30  2  0  0  0  0
 32 57  1  0  0  0  0
 32 55  1  0  0  0  0
 35  4  1  0  0  0  0
 36  6  1  0  0  0  0
 39  9  1  0  0  0  0
 41 10  1  0  0  0  0
 44 13  1  0  0  0  0
 48 20  1  0  0  0  0
 49 22  1  0  0  0  0
 50 23  1  0  0  0  0
 54 31  1  0  0  0  0
 56 32  1  0  0  0  0
 58 33  1  0  0  0  0
M  END
>  <Pose>
1

>  <Score>
-7.84

$$$$
