
 OpenBabel03172210433D

 58 61  0  0  0  0  0  0  0  0999 V2000
   42.4610    6.7620   44.3600 Cl  0  0  0  0  0  0  0  0  0  0  0  0
   44.0900    7.0160   43.7880 C   0  0  0  0  0  0  0  0  0  0  0  0
   44.4520    8.2910   43.4100 C   0  0  0  0  0  0  0  0  0  0  0  0
   45.7820    8.4080   42.9810 C   0  0  0  0  0  0  0  0  0  0  0  0
   46.6080    7.3450   42.9530 N   0  0  0  0  0  0  0  0  0  0  0  0
   46.2690    6.1250   43.3120 N   0  0  0  0  0  0  0  0  0  0  0  0
   45.0070    5.9630   43.7290 C   0  0  0  0  0  0  0  0  0  0  0  0
   44.6040    4.8290   44.0900 O   0  0  0  0  0  0  0  0  0  0  0  0
   47.2090    5.0560   43.2500 C   0  0  0  0  0  0  0  0  0  0  0  0
   47.1900    4.1170   42.2310 C   0  0  0  0  0  0  0  0  0  0  0  0
   48.0930    3.0750   42.1560 C   0  0  0  0  0  0  0  0  0  0  0  0
   49.0520    2.9730   43.1420 C   0  0  0  0  0  0  0  0  0  0  0  0
   49.0990    3.8930   44.1730 C   0  0  0  0  0  0  0  0  0  0  0  0
   48.1690    4.9380   44.2210 C   0  0  0  0  0  0  0  0  0  0  0  0
   43.5710    9.3880   43.4120 N   0  0  0  0  0  0  0  0  0  0  0  0
   42.3530    9.3500   42.6080 C   0  0  0  0  0  0  0  0  0  0  0  0
   41.1110    9.5420   43.4500 C   0  0  0  0  0  0  0  0  0  0  0  0
   41.5140   10.1240   44.7070 N   0  0  0  0  0  0  0  0  0  0  0  0
   42.4770   11.2070   44.6220 C   0  0  0  0  0  0  0  0  0  0  0  0
   43.8150   10.5780   44.2390 C   0  0  0  0  0  0  0  0  0  0  0  0
   41.0320    9.7070   45.9650 C   0  0  0  0  0  0  0  0  0  0  0  0
   41.8400    9.2510   46.8040 O   0  0  0  0  0  0  0  0  0  0  0  0
   39.6040    9.7780   46.3560 C   0  0  0  0  0  0  0  0  0  0  0  0
   38.8490   10.7350   45.4620 C   0  0  0  0  0  0  0  0  0  0  0  0
   38.2670   11.8910   46.2190 C   0  0  0  0  0  0  0  0  0  0  0  0
   39.2580   12.7930   46.7660 N   0  0  0  0  0  0  0  0  0  0  0  0
   39.6440   14.0410   46.2190 C   0  0  0  0  0  0  0  0  0  0  0  0
   39.1860   14.5770   45.1550 O   0  0  0  0  0  0  0  0  0  0  0  0
   40.6330   14.6630   47.0090 N   0  0  0  0  0  0  0  0  0  0  0  0
   40.9360   13.7940   48.1240 C   0  0  0  0  0  0  0  0  0  0  0  0
   40.0430   12.6270   47.9510 C   0  0  0  0  0  0  0  0  0  0  0  0
   39.9760   11.6410   48.7160 O   0  0  0  0  0  0  0  0  0  0  0  0
   41.2500   15.9500   46.7590 C   0  0  0  0  0  0  0  0  0  0  0  0
   46.0930    9.3870   42.6690 H   0  0  0  0  0  0  0  0  0  0  0  0
   46.4310    4.2120   41.4650 H   0  0  0  0  0  0  0  0  0  0  0  0
   48.0610    2.3410   41.3380 H   0  0  0  0  0  0  0  0  0  0  0  0
   49.7560    2.1550   43.0760 H   0  0  0  0  0  0  0  0  0  0  0  0
   49.8630    3.7790   44.9230 H   0  0  0  0  0  0  0  0  0  0  0  0
   48.1950    5.6640   45.0220 H   0  0  0  0  0  0  0  0  0  0  0  0
   42.4670   10.2450   41.9100 H   0  0  0  0  0  0  0  0  0  0  0  0
   42.2030    8.4320   42.0350 H   0  0  0  0  0  0  0  0  0  0  0  0
   40.5830    8.5830   43.6220 H   0  0  0  0  0  0  0  0  0  0  0  0
   40.4120   10.2240   42.8880 H   0  0  0  0  0  0  0  0  0  0  0  0
   42.1700   11.8840   43.7990 H   0  0  0  0  0  0  0  0  0  0  0  0
   42.5490   11.7940   45.5560 H   0  0  0  0  0  0  0  0  0  0  0  0
   44.2190   10.2220   45.1960 H   0  0  0  0  0  0  0  0  0  0  0  0
   44.3810   11.2840   43.6610 H   0  0  0  0  0  0  0  0  0  0  0  0
   39.1180    8.7830   46.2940 H   0  0  0  0  0  0  0  0  0  0  0  0
   39.4970   10.0950   47.4230 H   0  0  0  0  0  0  0  0  0  0  0  0
   38.0140   10.2150   44.9580 H   0  0  0  0  0  0  0  0  0  0  0  0
   39.5200   11.1190   44.6540 H   0  0  0  0  0  0  0  0  0  0  0  0
   37.6310   11.5230   47.0670 H   0  0  0  0  0  0  0  0  0  0  0  0
   37.5910   12.5130   45.5980 H   0  0  0  0  0  0  0  0  0  0  0  0
   40.7310   14.3020   49.1040 H   0  0  0  0  0  0  0  0  0  0  0  0
   42.0000   13.4940   48.1600 H   0  0  0  0  0  0  0  0  0  0  0  0
   40.5510   16.7440   47.1120 H   0  0  0  0  0  0  0  0  0  0  0  0
   41.3150   16.1040   45.6440 H   0  0  0  0  0  0  0  0  0  0  0  0
   42.2330   16.0160   47.2450 H   0  0  0  0  0  0  0  0  0  0  0  0
  2  1  1  0  0  0  0
  3 15  1  0  0  0  0
  3  2  2  0  0  0  0
  4  3  1  0  0  0  0
  5  4  2  0  0  0  0
  5  6  1  0  0  0  0
  6  7  1  0  0  0  0
  7  2  1  0  0  0  0
  7  8  2  0  0  0  0
  9  6  1  0  0  0  0
  9 14  1  0  0  0  0
 10  9  2  0  0  0  0
 11 10  1  0  0  0  0
 11 12  2  0  0  0  0
 12 13  1  0  0  0  0
 13 14  2  0  0  0  0
 13 38  1  0  0  0  0
 14 39  1  0  0  0  0
 15 20  1  0  0  0  0
 16 15  1  0  0  0  0
 16 17  1  0  0  0  0
 17 42  1  0  0  0  0
 17 18  1  0  0  0  0
 18 21  1  0  0  0  0
 19 18  1  0  0  0  0
 19 45  1  0  0  0  0
 20 19  1  0  0  0  0
 20 46  1  0  0  0  0
 21 23  1  0  0  0  0
 21 22  2  0  0  0  0
 23 49  1  0  0  0  0
 24 25  1  0  0  0  0
 24 23  1  0  0  0  0
 25 26  1  0  0  0  0
 25 52  1  0  0  0  0
 26 31  1  0  0  0  0
 27 26  1  0  0  0  0
 27 29  1  0  0  0  0
 28 27  2  0  0  0  0
 29 30  1  0  0  0  0
 30 55  1  0  0  0  0
 30 54  1  0  0  0  0
 31 30  1  0  0  0  0
 31 32  2  0  0  0  0
 33 29  1  0  0  0  0
 33 56  1  0  0  0  0
 33 58  1  0  0  0  0
 34  4  1  0  0  0  0
 35 10  1  0  0  0  0
 36 11  1  0  0  0  0
 37 12  1  0  0  0  0
 40 16  1  0  0  0  0
 41 16  1  0  0  0  0
 43 17  1  0  0  0  0
 44 19  1  0  0  0  0
 47 20  1  0  0  0  0
 48 23  1  0  0  0  0
 50 24  1  0  0  0  0
 51 24  1  0  0  0  0
 53 25  1  0  0  0  0
 57 33  1  0  0  0  0
M  END
>  <Pose>
1

>  <Score>
-7.08

$$$$
