
 OpenBabel03172210433D

 50 53  0  0  0  0  0  0  0  0999 V2000
   44.0150   10.5710   43.9090 Cl  0  0  0  0  0  0  0  0  0  0  0  0
   43.2090    9.3260   44.8350 C   0  0  0  0  0  0  0  0  0  0  0  0
   43.6300    8.0170   44.7090 C   0  0  0  0  0  0  0  0  0  0  0  0
   42.9490    7.0830   45.4670 C   0  0  0  0  0  0  0  0  0  0  0  0
   41.9330    7.4270   46.2810 N   0  0  0  0  0  0  0  0  0  0  0  0
   41.5160    8.6760   46.4140 N   0  0  0  0  0  0  0  0  0  0  0  0
   42.1570    9.6130   45.6910 C   0  0  0  0  0  0  0  0  0  0  0  0
   41.7700   10.7940   45.8120 O   0  0  0  0  0  0  0  0  0  0  0  0
   40.4370    9.0340   47.2820 C   0  0  0  0  0  0  0  0  0  0  0  0
   39.3250    9.6900   46.7950 C   0  0  0  0  0  0  0  0  0  0  0  0
   38.2790   10.0390   47.6250 C   0  0  0  0  0  0  0  0  0  0  0  0
   38.2940    9.7510   48.9750 C   0  0  0  0  0  0  0  0  0  0  0  0
   39.4030    9.0950   49.4680 C   0  0  0  0  0  0  0  0  0  0  0  0
   40.4430    8.7500   48.6350 C   0  0  0  0  0  0  0  0  0  0  0  0
   44.7070    7.6400   43.8490 N   0  0  0  0  0  0  0  0  0  0  0  0
   44.4700    7.6020   42.4330 C   0  0  0  0  0  0  0  0  0  0  0  0
   45.1850    6.4390   41.7820 C   0  0  0  0  0  0  0  0  0  0  0  0
   46.4420    6.1510   42.4260 N   0  0  0  0  0  0  0  0  0  0  0  0
   46.9870    7.1180   43.3470 C   0  0  0  0  0  0  0  0  0  0  0  0
   45.9830    7.3140   44.4540 C   0  0  0  0  0  0  0  0  0  0  0  0
   47.1210    4.9360   42.1540 C   0  0  0  0  0  0  0  0  0  0  0  0
   47.8570    4.8050   41.1240 O   0  0  0  0  0  0  0  0  0  0  0  0
   47.0190    3.7500   43.0440 C   0  0  0  0  0  0  0  0  0  0  0  0
   48.1170    3.6490   43.9100 O   0  0  0  0  0  0  0  0  0  0  0  0
   49.2840    3.0350   43.4980 C   0  0  0  0  0  0  0  0  0  0  0  0
   49.5800    2.4550   42.3290 N   0  0  0  0  0  0  0  0  0  0  0  0
   50.7890    1.9970   42.3490 O   0  0  0  0  0  0  0  0  0  0  0  0
   51.3730    2.2320   43.5050 C   0  0  0  0  0  0  0  0  0  0  0  0
   50.4320    2.8980   44.2640 C   0  0  0  0  0  0  0  0  0  0  0  0
   52.7550    1.8270   43.8210 C   0  0  0  0  0  0  0  0  0  0  0  0
   43.2750    6.0360   45.3740 H   0  0  0  0  0  0  0  0  0  0  0  0
   39.2850    9.9290   45.7410 H   0  0  0  0  0  0  0  0  0  0  0  0
   37.4070   10.5530   47.2450 H   0  0  0  0  0  0  0  0  0  0  0  0
   37.4650   10.0300   49.6190 H   0  0  0  0  0  0  0  0  0  0  0  0
   39.3910    8.8800   50.5330 H   0  0  0  0  0  0  0  0  0  0  0  0
   41.2890    8.2390   49.0610 H   0  0  0  0  0  0  0  0  0  0  0  0
   43.3930    7.5100   42.1940 H   0  0  0  0  0  0  0  0  0  0  0  0
   44.8090    8.5850   42.0180 H   0  0  0  0  0  0  0  0  0  0  0  0
   44.5230    5.5760   41.6930 H   0  0  0  0  0  0  0  0  0  0  0  0
   45.4310    6.7580   40.7340 H   0  0  0  0  0  0  0  0  0  0  0  0
   47.0370    8.0980   42.7980 H   0  0  0  0  0  0  0  0  0  0  0  0
   47.9890    6.8430   43.7180 H   0  0  0  0  0  0  0  0  0  0  0  0
   45.9000    6.4070   45.0950 H   0  0  0  0  0  0  0  0  0  0  0  0
   46.3330    8.1960   45.0640 H   0  0  0  0  0  0  0  0  0  0  0  0
   46.8620    2.8140   42.4740 H   0  0  0  0  0  0  0  0  0  0  0  0
   46.1080    3.8610   43.7020 H   0  0  0  0  0  0  0  0  0  0  0  0
   50.5970    3.2360   45.2740 H   0  0  0  0  0  0  0  0  0  0  0  0
   52.9850    1.9070   44.8970 H   0  0  0  0  0  0  0  0  0  0  0  0
   53.5070    2.4580   43.2640 H   0  0  0  0  0  0  0  0  0  0  0  0
   52.9140    0.7660   43.4650 H   0  0  0  0  0  0  0  0  0  0  0  0
  1  2  1  0  0  0  0
  2  7  1  0  0  0  0
  3  2  2  0  0  0  0
  3  4  1  0  0  0  0
  4  5  2  0  0  0  0
  5  6  1  0  0  0  0
  6  9  1  0  0  0  0
  7  8  2  0  0  0  0
  7  6  1  0  0  0  0
  9 14  1  0  0  0  0
 10  9  2  0  0  0  0
 10 11  1  0  0  0  0
 11 12  2  0  0  0  0
 12 13  1  0  0  0  0
 12 34  1  0  0  0  0
 13 35  1  0  0  0  0
 14 36  1  0  0  0  0
 14 13  2  0  0  0  0
 15 20  1  0  0  0  0
 15  3  1  0  0  0  0
 16 15  1  0  0  0  0
 17 18  1  0  0  0  0
 17 16  1  0  0  0  0
 18 19  1  0  0  0  0
 19 42  1  0  0  0  0
 19 20  1  0  0  0  0
 20 44  1  0  0  0  0
 20 43  1  0  0  0  0
 21 18  1  0  0  0  0
 21 23  1  0  0  0  0
 22 21  2  0  0  0  0
 23 46  1  0  0  0  0
 23 24  1  0  0  0  0
 25 24  1  0  0  0  0
 25 29  1  0  0  0  0
 26 27  1  0  0  0  0
 26 25  2  0  0  0  0
 27 28  1  0  0  0  0
 28 30  1  0  0  0  0
 28 29  2  0  0  0  0
 29 47  1  0  0  0  0
 30 48  1  0  0  0  0
 31  4  1  0  0  0  0
 32 10  1  0  0  0  0
 33 11  1  0  0  0  0
 37 16  1  0  0  0  0
 38 16  1  0  0  0  0
 39 17  1  0  0  0  0
 40 17  1  0  0  0  0
 41 19  1  0  0  0  0
 45 23  1  0  0  0  0
 49 30  1  0  0  0  0
 50 30  1  0  0  0  0
M  END
>  <Pose>
1

>  <Score>
-6.71

$$$$
