
 OpenBabel03172210433D

 39 42  0  0  0  0  0  0  0  0999 V2000
   38.7110   10.7240   46.3520 B   0  0  0  0  0  0  0  0  0  0  0  0
   40.2000   10.2300   45.2700 C   0  0  0  0  0  0  0  0  0  0  0  0
   40.8670    9.0770   45.5790 C   0  0  0  0  0  0  0  0  0  0  0  0
   41.9250    8.7080   44.8260 N   0  0  0  0  0  0  0  0  0  0  0  0
   42.3230    9.4560   43.7860 C   0  0  0  0  0  0  0  0  0  0  0  0
   43.3930    9.0830   43.0240 N   0  0  0  0  0  0  0  0  0  0  0  0
   44.0770    7.9570   43.2930 C   0  0  0  0  0  0  0  0  0  0  0  0
   43.6530    7.2060   44.3620 C   0  0  0  0  0  0  0  0  0  0  0  0
   42.5780    7.5550   45.1500 C   0  0  0  0  0  0  0  0  0  0  0  0
   42.1770    6.8930   46.1190 O   0  0  0  0  0  0  0  0  0  0  0  0
   45.2400    7.5890   42.4170 C   0  0  0  0  0  0  0  0  0  0  0  0
   46.2170    6.7750   43.1130 N   0  0  0  0  0  0  0  0  0  0  0  0
   46.8490    5.6580   42.7250 C   0  0  0  0  0  0  0  0  0  0  0  0
   47.6920    5.1930   43.7280 C   0  0  0  0  0  0  0  0  0  0  0  0
   47.5470    6.0740   44.7460 N   0  0  0  0  0  0  0  0  0  0  0  0
   46.6720    7.0150   44.3840 C   0  0  0  0  0  0  0  0  0  0  0  0
   48.4540    4.0860   43.6070 N   0  0  0  0  0  0  0  0  0  0  0  0
   48.3670    3.4270   42.4370 C   0  0  0  0  0  0  0  0  0  0  0  0
   49.0730    2.3900   42.3060 O   0  0  0  0  0  0  0  0  0  0  0  0
   47.5710    3.8340   41.4370 N   0  0  0  0  0  0  0  0  0  0  0  0
   46.8060    4.9400   41.5560 C   0  0  0  0  0  0  0  0  0  0  0  0
   46.0620    5.3360   40.6370 O   0  0  0  0  0  0  0  0  0  0  0  0
   47.4790    3.1200   40.1750 C   0  0  0  0  0  0  0  0  0  0  0  0
   49.3130    3.6530   44.6930 C   0  0  0  0  0  0  0  0  0  0  0  0
   41.6520   10.6250   43.4650 C   0  0  0  0  0  0  0  0  0  0  0  0
   40.5740   11.0270   44.2120 C   0  0  0  0  0  0  0  0  0  0  0  0
   40.5640    8.4410   46.4280 H   0  0  0  0  0  0  0  0  0  0  0  0
   44.1780    6.2930   44.5990 H   0  0  0  0  0  0  0  0  0  0  0  0
   44.8620    7.0960   41.5060 H   0  0  0  0  0  0  0  0  0  0  0  0
   45.7310    8.5370   42.1220 H   0  0  0  0  0  0  0  0  0  0  0  0
   46.3360    7.8660   44.9680 H   0  0  0  0  0  0  0  0  0  0  0  0
   46.5040    3.2930   39.6810 H   0  0  0  0  0  0  0  0  0  0  0  0
   48.3390    3.4580   39.5520 H   0  0  0  0  0  0  0  0  0  0  0  0
   47.6150    2.0210   40.3580 H   0  0  0  0  0  0  0  0  0  0  0  0
   50.3660    3.9530   44.5100 H   0  0  0  0  0  0  0  0  0  0  0  0
   49.2030    2.5430   44.7860 H   0  0  0  0  0  0  0  0  0  0  0  0
   48.9370    4.0680   45.6570 H   0  0  0  0  0  0  0  0  0  0  0  0
   42.0020   11.2110   42.6120 H   0  0  0  0  0  0  0  0  0  0  0  0
   40.0380   11.9520   43.9650 H   0  0  0  0  0  0  0  0  0  0  0  0
  2  3  1  0  0  0  0
  2  1  1  0  0  0  0
  3 27  1  0  0  0  0
  4  9  1  0  0  0  0
  4  3  1  0  0  0  0
  5  4  1  0  0  0  0
  6  7  2  0  0  0  0
  6  5  1  0  0  0  0
  7  8  1  0  0  0  0
  8 28  1  0  0  0  0
  8  9  1  0  0  0  0
  9 10  2  0  0  0  0
 11 12  1  0  0  0  0
 11  7  1  0  0  0  0
 12 16  1  0  0  0  0
 13 12  1  0  0  0  0
 13 14  2  0  0  0  0
 14 15  1  0  0  0  0
 16 15  2  0  0  0  0
 16 31  1  0  0  0  0
 17 14  1  0  0  0  0
 17 24  1  0  0  0  0
 18 17  1  0  0  0  0
 19 18  2  0  0  0  0
 20 21  1  0  0  0  0
 20 18  1  0  0  0  0
 21 13  1  0  0  0  0
 22 21  2  0  0  0  0
 23 34  1  0  0  0  0
 23 20  1  0  0  0  0
 24 36  1  0  0  0  0
 24 37  1  0  0  0  0
 25  5  2  0  0  0  0
 25 26  1  0  0  0  0
 26  2  2  0  0  0  0
 29 11  1  0  0  0  0
 30 11  1  0  0  0  0
 32 23  1  0  0  0  0
 33 23  1  0  0  0  0
 35 24  1  0  0  0  0
 38 25  1  0  0  0  0
 39 26  1  0  0  0  0
M  END
>  <Pose>
1

>  <Score>
-6.33

$$$$
