
 OpenBabel03172210433D

 53 56  0  0  1  0  0  0  0  0999 V2000
   40.7720   12.1030   44.0300 S   0  0  0  0  0  0  0  0  0  0  0  0
   41.8630   12.9520   44.6550 O   0  0  0  0  0  0  0  0  0  0  0  0
   40.0330   13.0270   43.0850 O   0  0  0  0  0  0  0  0  0  0  0  0
   41.4690   10.7940   43.2910 N   0  0  0  0  0  0  0  0  0  0  0  0
   40.7200    9.8340   42.6170 C   0  0  0  0  0  0  0  0  0  0  0  0
   41.6360    8.6610   42.2410 C   0  0  0  0  0  0  0  0  0  0  0  0
   42.5470    8.3780   43.3510 N   0  0  0  0  0  0  0  0  0  0  0  0
   43.3880    9.4770   43.7820 C   0  0  0  0  0  0  0  0  0  0  0  0
   42.8540   10.7310   43.0740 C   0  0  0  0  0  0  0  0  0  0  0  0
   42.5620    7.0920   43.9590 C   0  0  0  0  0  0  0  0  0  0  0  0
   41.4720    6.6410   44.3840 O   0  0  0  0  0  0  0  0  0  0  0  0
   43.8080    6.3350   44.0790 C   0  0  0  0  0  0  0  0  0  0  0  0
   44.9590    6.8990   43.2590 C   0  0  2  0  0  0  0  0  0  0  0  0
   45.1940    6.1840   42.0320 N   0  0  0  0  0  0  0  0  0  0  0  0
   46.2540    5.3430   41.6020 C   0  0  0  0  0  0  0  0  0  0  0  0
   46.4480    5.1500   40.3720 O   0  0  0  0  0  0  0  0  0  0  0  0
   47.2210    4.6210   42.4570 C   0  0  0  0  0  0  0  0  0  0  0  0
   47.6090    4.9630   43.7570 C   0  0  0  0  0  0  0  0  0  0  0  0
   48.5130    4.1800   44.4170 C   0  0  0  0  0  0  0  0  0  0  0  0
   49.0750    3.0360   43.8490 C   0  0  0  0  0  0  0  0  0  0  0  0
   48.6670    2.7200   42.5520 C   0  0  0  0  0  0  0  0  0  0  0  0
   47.7570    3.5010   41.8740 C   0  0  0  0  0  0  0  0  0  0  0  0
   47.1460    6.0830   44.4960 N   0  0  0  0  0  0  0  0  0  0  0  0
   46.1510    7.0410   44.1220 C   0  0  0  0  0  0  0  0  0  0  0  0
   46.3650    8.1930   44.6410 O   0  0  0  0  0  0  0  0  0  0  0  0
   39.6620   11.6810   45.3390 C   0  0  0  0  0  0  0  0  0  0  0  0
   38.8910   10.5420   45.2910 C   0  0  0  0  0  0  0  0  0  0  0  0
   38.0370   10.2580   46.3340 C   0  0  0  0  0  0  0  0  0  0  0  0
   37.9060   11.0650   47.4490 C   0  0  0  0  0  0  0  0  0  0  0  0
   38.6860   12.2140   47.4950 C   0  0  0  0  0  0  0  0  0  0  0  0
   39.5380   12.4940   46.4500 C   0  0  0  0  0  0  0  0  0  0  0  0
   36.8360   10.7140   48.7660 Cl  0  0  0  0  0  0  0  0  0  0  0  0
   40.2540   10.1900   41.6500 H   0  0  0  0  0  0  0  0  0  0  0  0
   39.9030    9.3570   43.2080 H   0  0  0  0  0  0  0  0  0  0  0  0
   42.2560    8.9120   41.3650 H   0  0  0  0  0  0  0  0  0  0  0  0
   41.0470    7.7630   41.9760 H   0  0  0  0  0  0  0  0  0  0  0  0
   43.2520    9.6900   44.8670 H   0  0  0  0  0  0  0  0  0  0  0  0
   44.4280    9.3300   43.4980 H   0  0  0  0  0  0  0  0  0  0  0  0
   43.1200   10.6070   41.9830 H   0  0  0  0  0  0  0  0  0  0  0  0
   43.4170   11.6310   43.4250 H   0  0  0  0  0  0  0  0  0  0  0  0
   44.1860    6.3740   45.1510 H   0  0  0  0  0  0  0  0  0  0  0  0
   43.6720    5.2580   43.8660 H   0  0  0  0  0  0  0  0  0  0  0  0
   44.6360    7.9470   42.9730 H   0  0  0  0  0  0  0  0  0  0  0  0
   44.4540    6.2750   41.2670 H   0  0  0  0  0  0  0  0  0  0  0  0
   48.8100    4.4470   45.4120 H   0  0  0  0  0  0  0  0  0  0  0  0
   49.7820    2.4280   44.3770 H   0  0  0  0  0  0  0  0  0  0  0  0
   49.1040    1.8310   42.1190 H   0  0  0  0  0  0  0  0  0  0  0  0
   47.4420    3.2600   40.8750 H   0  0  0  0  0  0  0  0  0  0  0  0
   47.5830    6.2080   45.4080 H   0  0  0  0  0  0  0  0  0  0  0  0
   38.9330    9.8620   44.4650 H   0  0  0  0  0  0  0  0  0  0  0  0
   37.4180    9.3450   46.3040 H   0  0  0  0  0  0  0  0  0  0  0  0
   38.5920   12.8520   48.3560 H   0  0  0  0  0  0  0  0  0  0  0  0
   40.1240   13.3930   46.5200 H   0  0  0  0  0  0  0  0  0  0  0  0
  1  2  2  0  0  0  0
  1 26  1  0  0  0  0
  3  1  2  0  0  0  0
  4  1  1  0  0  0  0
  5 34  1  0  0  0  0
  5  4  1  0  0  0  0
  6  5  1  0  0  0  0
  6  7  1  0  0  0  0
  7  8  1  0  0  0  0
  7 10  1  0  0  0  0
  8 37  1  0  0  0  0
  9  4  1  0  0  0  0
  9 40  1  0  0  0  0
  9  8  1  0  0  0  0
 10 12  1  0  0  0  0
 10 11  2  0  0  0  0
 12 41  1  0  0  0  0
 13 43  1  6  0  0  0
 13 12  1  0  0  0  0
 13 24  1  0  0  0  0
 14 13  1  0  0  0  0
 15 14  1  0  0  0  0
 15 17  1  0  0  0  0
 16 15  2  0  0  0  0
 17 18  1  0  0  0  0
 18 19  2  0  0  0  0
 18 23  1  0  0  0  0
 19 45  1  0  0  0  0
 20 46  1  0  0  0  0
 20 19  1  0  0  0  0
 21 20  2  0  0  0  0
 22 17  2  0  0  0  0
 22 21  1  0  0  0  0
 23 49  1  0  0  0  0
 24 23  1  0  0  0  0
 24 25  2  0  0  0  0
 26 31  1  0  0  0  0
 27 26  2  0  0  0  0
 27 28  1  0  0  0  0
 28 29  2  0  0  0  0
 29 30  1  0  0  0  0
 29 32  1  0  0  0  0
 30 52  1  0  0  0  0
 31 53  1  0  0  0  0
 31 30  2  0  0  0  0
 33  5  1  0  0  0  0
 35  6  1  0  0  0  0
 36  6  1  0  0  0  0
 38  8  1  0  0  0  0
 39  9  1  0  0  0  0
 42 12  1  0  0  0  0
 44 14  1  0  0  0  0
 47 21  1  0  0  0  0
 48 22  1  0  0  0  0
 50 27  1  0  0  0  0
 51 28  1  0  0  0  0
M  END
>  <Pose>
1

>  <Score>
-7.20

$$$$
