
 OpenBabel03172210433D

 53 56  0  0  1  0  0  0  0  0999 V2000
   43.8000   10.7420   44.0560 Cl  0  0  0  0  0  0  0  0  0  0  0  0
   42.4010   10.0800   44.8960 C   0  0  0  0  0  0  0  0  0  0  0  0
   42.4350    8.7490   45.2380 C   0  0  0  0  0  0  0  0  0  0  0  0
   41.3860    8.2590   45.9800 C   0  0  0  0  0  0  0  0  0  0  0  0
   41.6360    6.9370   46.1040 N   0  0  0  0  0  0  0  0  0  0  0  0
   42.7390    6.6370   45.4730 N   0  0  0  0  0  0  0  0  0  0  0  0
   43.3160    7.7500   44.8880 C   0  0  0  0  0  0  0  0  0  0  0  0
   44.6000    7.8060   44.2370 C   0  0  0  0  0  0  0  0  0  0  0  0
   45.0050    6.6260   43.4580 N   0  0  0  0  0  0  0  0  0  0  0  0
   45.8800    5.8300   44.3490 C   0  0  0  0  0  0  0  0  0  0  0  0
   47.2150    6.2950   43.9870 C   0  0  2  0  0  0  0  0  0  0  0  0
   47.1700    6.1350   42.4760 C   0  0  2  0  0  0  0  0  0  0  0  0
   45.7480    6.8150   42.2860 C   0  0  0  0  0  0  0  0  0  0  0  0
   46.9320    4.7060   42.0810 C   0  0  0  0  0  0  0  0  0  0  0  0
   47.6380    4.4300   40.8800 O   0  0  0  0  0  0  0  0  0  0  0  0
   48.3660    5.5070   44.5630 C   0  0  0  0  0  0  0  0  0  0  0  0
   48.5220    5.8720   45.9350 N   0  0  0  0  0  0  0  0  0  0  0  0
   49.2750    4.8990   46.6980 C   0  0  0  0  0  0  0  0  0  0  0  0
   50.5160    5.4660   47.3470 C   0  0  0  0  0  0  0  0  0  0  0  0
   50.2840    6.5800   48.1210 O   0  0  0  0  0  0  0  0  0  0  0  0
   49.2900    7.4020   47.6010 C   0  0  0  0  0  0  0  0  0  0  0  0
   49.1600    7.1540   46.1290 C   0  0  0  0  0  0  0  0  0  0  0  0
   40.8360    6.0200   46.9360 C   0  0  0  0  0  0  0  0  0  0  0  0
   40.3330    9.0300   46.3680 C   0  0  0  0  0  0  0  0  0  0  0  0
   40.3120   10.3800   46.0060 C   0  0  0  0  0  0  0  0  0  0  0  0
   41.3650   10.8970   45.2580 C   0  0  0  0  0  0  0  0  0  0  0  0
   44.9700    8.6770   43.7610 H   0  0  0  0  0  0  0  0  0  0  0  0
   45.3630    7.6820   45.1280 H   0  0  0  0  0  0  0  0  0  0  0  0
   45.5710    5.8290   45.3910 H   0  0  0  0  0  0  0  0  0  0  0  0
   45.7300    4.7580   44.0280 H   0  0  0  0  0  0  0  0  0  0  0  0
   47.4270    7.3390   44.1630 H   0  0  0  0  0  0  0  0  0  0  0  0
   47.9230    6.6940   41.9620 H   0  0  0  0  0  0  0  0  0  0  0  0
   45.9860    7.7850   41.9280 H   0  0  0  0  0  0  0  0  0  0  0  0
   45.2980    6.2320   41.4100 H   0  0  0  0  0  0  0  0  0  0  0  0
   45.8340    4.6120   41.7190 H   0  0  0  0  0  0  0  0  0  0  0  0
   47.0610    3.9260   42.7830 H   0  0  0  0  0  0  0  0  0  0  0  0
   46.9660    3.9230   40.2820 H   0  0  0  0  0  0  0  0  0  0  0  0
   48.0650    4.4520   44.5180 H   0  0  0  0  0  0  0  0  0  0  0  0
   49.2880    5.6360   43.9810 H   0  0  0  0  0  0  0  0  0  0  0  0
   48.6100    4.4610   47.4540 H   0  0  0  0  0  0  0  0  0  0  0  0
   49.6320    4.0580   46.0360 H   0  0  0  0  0  0  0  0  0  0  0  0
   51.2770    5.5980   46.5750 H   0  0  0  0  0  0  0  0  0  0  0  0
   50.8720    4.6630   48.0430 H   0  0  0  0  0  0  0  0  0  0  0  0
   48.3550    7.1550   48.1290 H   0  0  0  0  0  0  0  0  0  0  0  0
   49.5850    8.4670   47.7980 H   0  0  0  0  0  0  0  0  0  0  0  0
   48.5780    7.9600   45.6350 H   0  0  0  0  0  0  0  0  0  0  0  0
   50.1750    7.0650   45.6950 H   0  0  0  0  0  0  0  0  0  0  0  0
   40.7190    6.5160   47.9640 H   0  0  0  0  0  0  0  0  0  0  0  0
   41.4070    5.1090   47.1790 H   0  0  0  0  0  0  0  0  0  0  0  0
   39.8520    5.9370   46.5400 H   0  0  0  0  0  0  0  0  0  0  0  0
   39.4240    8.6250   46.8690 H   0  0  0  0  0  0  0  0  0  0  0  0
   39.4990   11.0120   46.2390 H   0  0  0  0  0  0  0  0  0  0  0  0
   41.4140   11.9180   44.9590 H   0  0  0  0  0  0  0  0  0  0  0  0
  1  2  1  0  0  0  0
  2  3  2  0  0  0  0
  2 26  1  0  0  0  0
  3  4  1  0  0  0  0
  4  5  1  0  0  0  0
  4 24  2  0  0  0  0
  5 23  1  0  0  0  0
  6  5  1  0  0  0  0
  7  3  1  0  0  0  0
  7  6  2  0  0  0  0
  8  7  1  0  0  0  0
  8 28  1  0  0  0  0
  9  8  1  0  0  0  0
  9 10  1  0  0  0  0
 10 29  1  0  0  0  0
 11 31  1  1  0  0  0
 11 10  1  0  0  0  0
 11 16  1  0  0  0  0
 12 32  1  6  0  0  0
 12 11  1  0  0  0  0
 13 12  1  0  0  0  0
 13  9  1  0  0  0  0
 14 12  1  0  0  0  0
 14 36  1  0  0  0  0
 15 14  1  0  0  0  0
 16 17  1  0  0  0  0
 17 22  1  0  0  0  0
 17 18  1  0  0  0  0
 18 19  1  0  0  0  0
 18 40  1  0  0  0  0
 19 43  1  0  0  0  0
 19 20  1  0  0  0  0
 21 45  1  0  0  0  0
 21 20  1  0  0  0  0
 21 44  1  0  0  0  0
 22 21  1  0  0  0  0
 23 49  1  0  0  0  0
 23 48  1  0  0  0  0
 24 51  1  0  0  0  0
 25 52  1  0  0  0  0
 25 24  1  0  0  0  0
 26 25  2  0  0  0  0
 27  8  1  0  0  0  0
 30 10  1  0  0  0  0
 33 13  1  0  0  0  0
 34 13  1  0  0  0  0
 35 14  1  0  0  0  0
 37 15  1  0  0  0  0
 38 16  1  0  0  0  0
 39 16  1  0  0  0  0
 41 18  1  0  0  0  0
 42 19  1  0  0  0  0
 46 22  1  0  0  0  0
 47 22  1  0  0  0  0
 50 23  1  0  0  0  0
 53 26  1  0  0  0  0
M  END
>  <Pose>
1

>  <Score>
-4.44

$$$$
