
 OpenBabel03172210433D

 49 52  0  0  1  0  0  0  0  0999 V2000
   40.3060   12.5060   43.7640 B   0  0  0  0  0  0  0  0  0  0  0  0
   41.4910   11.0180   43.7120 C   0  0  0  0  0  0  0  0  0  0  0  0
   41.0320    9.7420   43.9520 C   0  0  0  0  0  0  0  0  0  0  0  0
   41.8660    8.6640   43.9190 C   0  0  0  0  0  0  0  0  0  0  0  0
   41.7180    7.3220   44.1070 N   0  0  0  0  0  0  0  0  0  0  0  0
   42.8890    6.7230   43.9500 N   0  0  0  0  0  0  0  0  0  0  0  0
   43.8390    7.6200   43.6590 C   0  0  0  0  0  0  0  0  0  0  0  0
   43.1970    8.8520   43.6380 C   0  0  0  0  0  0  0  0  0  0  0  0
   43.6870   10.1290   43.3910 C   0  0  0  0  0  0  0  0  0  0  0  0
   42.8430   11.2160   43.4250 C   0  0  0  0  0  0  0  0  0  0  0  0
   45.2240    7.4440   43.4070 N   0  0  0  0  0  0  0  0  0  0  0  0
   46.2740    7.1730   44.3870 C   0  0  0  0  0  0  0  0  0  0  0  0
   47.1590    6.1790   43.6690 C   0  0  2  0  0  0  0  0  0  0  0  0
   47.2300    6.7690   42.2650 C   0  0  0  0  0  0  0  0  0  0  0  0
   45.9150    7.4920   42.1550 C   0  0  0  0  0  0  0  0  0  0  0  0
   45.4740    8.0610   41.1130 O   0  0  0  0  0  0  0  0  0  0  0  0
   46.5540    4.8270   43.6280 C   0  0  0  0  0  0  0  0  0  0  0  0
   45.3300    4.7330   43.3620 O   0  0  0  0  0  0  0  0  0  0  0  0
   47.2990    3.6520   43.8780 N   0  0  0  0  0  0  0  0  0  0  0  0
   48.1930    3.0720   42.9090 C   0  0  0  0  0  0  0  0  0  0  0  0
   48.8090    1.8120   43.4800 C   0  0  0  0  0  0  0  0  0  0  0  0
   50.1810    1.9910   43.8850 N   0  0  0  0  0  0  0  0  0  0  0  0
   50.6750    0.6950   44.3360 C   0  0  0  0  0  0  0  0  0  0  0  0
   51.1530   -0.1330   43.1460 C   0  0  0  0  0  0  0  0  0  0  0  0
   52.2780    0.3900   42.5540 O   0  0  0  0  0  0  0  0  0  0  0  0
   52.3710    1.7310   42.8480 C   0  0  0  0  0  0  0  0  0  0  0  0
   51.0250    2.4240   42.7940 C   0  0  0  0  0  0  0  0  0  0  0  0
   39.9860    9.5760   44.1750 H   0  0  0  0  0  0  0  0  0  0  0  0
   40.7730    6.9250   44.3370 H   0  0  0  0  0  0  0  0  0  0  0  0
   44.7570   10.2630   43.1680 H   0  0  0  0  0  0  0  0  0  0  0  0
   43.2450   12.2130   43.2290 H   0  0  0  0  0  0  0  0  0  0  0  0
   45.8860    6.8120   45.3470 H   0  0  0  0  0  0  0  0  0  0  0  0
   46.8700    8.0900   44.5670 H   0  0  0  0  0  0  0  0  0  0  0  0
   48.1780    6.1840   44.0900 H   0  0  0  0  0  0  0  0  0  0  0  0
   47.1550    5.9270   41.5460 H   0  0  0  0  0  0  0  0  0  0  0  0
   48.0850    7.4240   42.1170 H   0  0  0  0  0  0  0  0  0  0  0  0
   47.1760    3.1980   44.8190 H   0  0  0  0  0  0  0  0  0  0  0  0
   49.0470    3.7980   42.8040 H   0  0  0  0  0  0  0  0  0  0  0  0
   47.7630    2.9260   41.9200 H   0  0  0  0  0  0  0  0  0  0  0  0
   48.8180    1.0270   42.6790 H   0  0  0  0  0  0  0  0  0  0  0  0
   48.2050    1.4000   44.3120 H   0  0  0  0  0  0  0  0  0  0  0  0
   51.4850    0.7580   45.0590 H   0  0  0  0  0  0  0  0  0  0  0  0
   49.8060    0.1570   44.7760 H   0  0  0  0  0  0  0  0  0  0  0  0
   51.3890   -1.1490   43.5760 H   0  0  0  0  0  0  0  0  0  0  0  0
   50.3620   -0.2400   42.3770 H   0  0  0  0  0  0  0  0  0  0  0  0
   52.8400    1.9380   43.8290 H   0  0  0  0  0  0  0  0  0  0  0  0
   53.0290    2.1860   42.0690 H   0  0  0  0  0  0  0  0  0  0  0  0
   51.2480    3.5190   42.8530 H   0  0  0  0  0  0  0  0  0  0  0  0
   50.5540    2.2500   41.8000 H   0  0  0  0  0  0  0  0  0  0  0  0
  2  1  1  0  0  0  0
  2  3  1  0  0  0  0
  3 28  1  0  0  0  0
  4  3  2  0  0  0  0
  4  5  1  0  0  0  0
  5 29  1  0  0  0  0
  6  5  1  0  0  0  0
  7  6  2  0  0  0  0
  8  7  1  0  0  0  0
  8  4  1  0  0  0  0
  9 10  1  0  0  0  0
  9  8  2  0  0  0  0
 10  2  2  0  0  0  0
 11  7  1  0  0  0  0
 11 12  1  0  0  0  0
 12 33  1  0  0  0  0
 12 32  1  0  0  0  0
 13 34  1  1  0  0  0
 13 12  1  0  0  0  0
 14 13  1  0  0  0  0
 15 14  1  0  0  0  0
 15 11  1  0  0  0  0
 16 15  2  0  0  0  0
 17 13  1  0  0  0  0
 17 19  1  0  0  0  0
 18 17  2  0  0  0  0
 19 37  1  0  0  0  0
 20 21  1  0  0  0  0
 20 19  1  0  0  0  0
 21 22  1  0  0  0  0
 21 41  1  0  0  0  0
 22 23  1  0  0  0  0
 23 43  1  0  0  0  0
 23 42  1  0  0  0  0
 24 44  1  0  0  0  0
 24 23  1  0  0  0  0
 25 26  1  0  0  0  0
 25 24  1  0  0  0  0
 26 46  1  0  0  0  0
 27 26  1  0  0  0  0
 27 48  1  0  0  0  0
 27 22  1  0  0  0  0
 30  9  1  0  0  0  0
 31 10  1  0  0  0  0
 35 14  1  0  0  0  0
 36 14  1  0  0  0  0
 38 20  1  0  0  0  0
 39 20  1  0  0  0  0
 40 21  1  0  0  0  0
 45 24  1  0  0  0  0
 47 26  1  0  0  0  0
 49 27  1  0  0  0  0
M  END
>  <Pose>
1

>  <Score>
-6.17

$$$$
