
 OpenBabel03172210433D

 40 43  0  0  1  0  0  0  0  0999 V2000
   35.3970   10.8440   45.0830 Cl  0  0  0  0  0  0  0  0  0  0  0  0
   37.0620   11.3750   44.9850 C   0  0  0  0  0  0  0  0  0  0  0  0
   38.1830   10.6180   44.8240 N   0  0  0  0  0  0  0  0  0  0  0  0
   39.2870   11.3660   44.7940 C   0  0  0  0  0  0  0  0  0  0  0  0
   38.8100   12.6750   44.9470 C   0  0  0  0  0  0  0  0  0  0  0  0
   37.4400   12.6880   45.0660 C   0  0  0  0  0  0  0  0  0  0  0  0
   36.3870   14.0700   45.2750 Cl  0  0  0  0  0  0  0  0  0  0  0  0
   40.6730   11.0020   44.6610 C   0  0  0  0  0  0  0  0  0  0  0  0
   41.2540   10.8110   45.8310 O   0  0  0  0  0  0  0  0  0  0  0  0
   41.4600   10.8300   43.5330 N   0  0  0  0  0  0  0  0  0  0  0  0
   40.8810   10.0750   42.3960 C   0  0  0  0  0  0  0  0  0  0  0  0
   41.7680    8.8740   42.2010 C   0  0  0  0  0  0  0  0  0  0  0  0
   42.9440    8.8620   43.0120 N   0  0  0  0  0  0  0  0  0  0  0  0
   43.6610   10.0570   43.4320 C   0  0  0  0  0  0  0  0  0  0  0  0
   42.7760   11.2830   43.2740 C   0  0  0  0  0  0  0  0  0  0  0  0
   43.4810    7.6240   43.4610 C   0  0  2  0  0  0  0  0  0  0  0  0
   42.7190    6.7370   44.1280 N   0  0  0  0  0  0  0  0  0  0  0  0
   43.2140    5.5550   44.5640 C   0  0  0  0  0  0  0  0  0  0  0  0
   44.4990    5.2300   44.3380 N   0  0  0  0  0  0  0  0  0  0  0  0
   45.3230    6.0610   43.6800 C   0  0  0  0  0  0  0  0  0  0  0  0
   46.6200    5.9760   43.3300 N   0  0  0  0  0  0  0  0  0  0  0  0
   46.9220    7.0880   42.6890 N   0  0  0  0  0  0  0  0  0  0  0  0
   45.8440    7.9020   42.6110 C   0  0  0  0  0  0  0  0  0  0  0  0
   44.7960    7.2780   43.2360 C   0  0  0  0  0  0  0  0  0  0  0  0
   47.5500    4.8770   43.5940 C   0  0  0  0  0  0  0  0  0  0  0  0
   38.0770    9.5880   44.7340 H   0  0  0  0  0  0  0  0  0  0  0  0
   39.3870   13.6070   44.9770 H   0  0  0  0  0  0  0  0  0  0  0  0
   39.8360    9.8170   42.6170 H   0  0  0  0  0  0  0  0  0  0  0  0
   40.9320   10.7460   41.5020 H   0  0  0  0  0  0  0  0  0  0  0  0
   41.1300    7.9770   42.3350 H   0  0  0  0  0  0  0  0  0  0  0  0
   42.0770    8.8430   41.1160 H   0  0  0  0  0  0  0  0  0  0  0  0
   44.5810   10.1650   42.8500 H   0  0  0  0  0  0  0  0  0  0  0  0
   43.9030    9.9360   44.5000 H   0  0  0  0  0  0  0  0  0  0  0  0
   42.8670   11.5070   42.1410 H   0  0  0  0  0  0  0  0  0  0  0  0
   43.1650   12.1410   43.7820 H   0  0  0  0  0  0  0  0  0  0  0  0
   42.5820    4.8610   45.0980 H   0  0  0  0  0  0  0  0  0  0  0  0
   45.8150    8.8580   42.1460 H   0  0  0  0  0  0  0  0  0  0  0  0
   48.2870    5.2470   44.3540 H   0  0  0  0  0  0  0  0  0  0  0  0
   48.0640    4.5450   42.6810 H   0  0  0  0  0  0  0  0  0  0  0  0
   47.0260    4.0200   44.0270 H   0  0  0  0  0  0  0  0  0  0  0  0
  2  6  2  0  0  0  0
  2  1  1  0  0  0  0
  3  2  1  0  0  0  0
  4  3  1  0  0  0  0
  4  5  2  0  0  0  0
  5 27  1  0  0  0  0
  5  6  1  0  0  0  0
  6  7  1  0  0  0  0
  8  4  1  0  0  0  0
  8  9  2  0  0  0  0
 10  8  1  0  0  0  0
 11 28  1  0  0  0  0
 11 10  1  0  0  0  0
 12 30  1  0  0  0  0
 12 11  1  0  0  0  0
 12 13  1  0  0  0  0
 13 14  1  0  0  0  0
 14 33  1  0  0  0  0
 15 14  1  0  0  0  0
 15 10  1  0  0  0  0
 15 35  1  0  0  0  0
 16 13  1  1  0  0  0
 16 17  1  0  0  0  0
 17 18  2  0  0  0  0
 18 36  1  0  0  0  0
 19 18  1  0  0  0  0
 20 19  1  0  0  0  0
 21 25  1  0  0  0  0
 21 20  1  0  0  0  0
 22 21  1  0  0  0  0
 23 22  2  0  0  0  0
 23 24  1  0  0  0  0
 24 16  1  0  0  0  0
 24 20  2  0  0  0  0
 25 40  1  0  0  0  0
 25 38  1  0  0  0  0
 26  3  1  0  0  0  0
 29 11  1  0  0  0  0
 31 12  1  0  0  0  0
 32 14  1  0  0  0  0
 34 15  1  0  0  0  0
 37 23  1  0  0  0  0
 39 25  1  0  0  0  0
M  END
>  <Pose>
1

>  <Score>
-6.49

$$$$
