
 OpenBabel03172210433D

 52 55  0  0  1  0  0  0  0  0999 V2000
   39.4900   12.7590   41.1900 Cl  0  0  0  0  0  0  0  0  0  0  0  0
   40.0140   12.4770   42.8470 C   0  0  0  0  0  0  0  0  0  0  0  0
   40.5090   11.2000   43.1540 C   0  0  0  0  0  0  0  0  0  0  0  0
   40.9150   10.9850   44.4430 C   0  0  0  0  0  0  0  0  0  0  0  0
   40.8400   12.0020   45.4180 C   0  0  0  0  0  0  0  0  0  0  0  0
   40.3540   13.2470   45.1060 C   0  0  0  0  0  0  0  0  0  0  0  0
   39.9460   13.4580   43.8060 C   0  0  0  0  0  0  0  0  0  0  0  0
   41.4030    9.6030   44.5370 C   0  0  2  0  0  0  0  0  0  0  0  0
   40.8210    8.8400   45.5830 N   0  0  0  0  0  0  0  0  0  0  0  0
   41.6950    7.8540   46.0490 C   0  0  1  0  0  0  0  0  0  0  0  0
   43.0620    8.2770   45.5560 C   0  0  2  0  0  0  0  0  0  0  0  0
   42.8990    9.5790   44.8430 C   0  0  1  0  0  0  0  0  0  0  0  0
   43.7240    9.5220   43.6080 C   0  0  0  0  0  0  0  0  0  0  0  0
   43.8940   10.4920   42.8330 O   0  0  0  0  0  0  0  0  0  0  0  0
   44.2540    8.2000   43.4960 N   0  0  0  0  0  0  0  0  0  0  0  0
   43.5850    7.4020   44.4840 C   0  0  0  0  0  0  0  0  0  0  0  0
   43.4730    6.1670   44.4290 O   0  0  0  0  0  0  0  0  0  0  0  0
   45.2590    7.7260   42.5950 C   0  0  0  0  0  0  0  0  0  0  0  0
   46.2910    6.8300   43.1790 C   0  0  0  0  0  0  0  0  0  0  0  0
   46.4950    5.5200   42.5050 C   0  0  0  0  0  0  0  0  0  0  0  0
   46.8780    4.4260   43.4960 C   0  0  0  0  0  0  0  0  0  0  0  0
   41.6760    7.4880   47.4820 C   0  0  0  0  0  0  0  0  0  0  0  0
   41.5970    8.5710   48.4820 C   0  0  0  0  0  0  0  0  0  0  0  0
   40.7550    8.3440   49.6620 C   0  0  0  0  0  0  0  0  0  0  0  0
   41.0990    8.7770   50.7770 O   0  0  0  0  0  0  0  0  0  0  0  0
   39.5200    7.6350   49.6060 N   0  0  0  0  0  0  0  0  0  0  0  0
   41.2040    9.0290   43.2030 C   0  0  0  0  0  0  0  0  0  0  0  0
   41.4460    7.8490   42.7970 O   0  0  0  0  0  0  0  0  0  0  0  0
   40.6680   10.0310   42.3600 N   0  0  0  0  0  0  0  0  0  0  0  0
   41.1710   11.7940   46.4310 H   0  0  0  0  0  0  0  0  0  0  0  0
   40.2820   14.0490   45.8280 H   0  0  0  0  0  0  0  0  0  0  0  0
   39.5600   14.4310   43.5380 H   0  0  0  0  0  0  0  0  0  0  0  0
   39.8270    8.5880   45.4630 H   0  0  0  0  0  0  0  0  0  0  0  0
   41.4590    6.9040   45.4770 H   0  0  0  0  0  0  0  0  0  0  0  0
   43.8160    8.3000   46.3590 H   0  0  0  0  0  0  0  0  0  0  0  0
   43.2070   10.4550   45.4140 H   0  0  0  0  0  0  0  0  0  0  0  0
   45.8150    8.6250   42.1930 H   0  0  0  0  0  0  0  0  0  0  0  0
   44.8140    7.2610   41.6800 H   0  0  0  0  0  0  0  0  0  0  0  0
   47.2790    7.3760   43.1100 H   0  0  0  0  0  0  0  0  0  0  0  0
   46.1390    6.7250   44.2830 H   0  0  0  0  0  0  0  0  0  0  0  0
   47.2480    5.4840   41.7160 H   0  0  0  0  0  0  0  0  0  0  0  0
   45.5080    5.2440   42.0360 H   0  0  0  0  0  0  0  0  0  0  0  0
   47.5510    4.8010   44.2930 H   0  0  0  0  0  0  0  0  0  0  0  0
   47.3820    3.5760   42.9810 H   0  0  0  0  0  0  0  0  0  0  0  0
   45.9830    4.0250   44.0120 H   0  0  0  0  0  0  0  0  0  0  0  0
   40.8860    6.7010   47.6140 H   0  0  0  0  0  0  0  0  0  0  0  0
   42.6280    6.9140   47.6950 H   0  0  0  0  0  0  0  0  0  0  0  0
   42.6250    8.8210   48.8960 H   0  0  0  0  0  0  0  0  0  0  0  0
   41.2670    9.5460   48.0450 H   0  0  0  0  0  0  0  0  0  0  0  0
   38.7430    7.7860   50.2730 H   0  0  0  0  0  0  0  0  0  0  0  0
   39.3880    6.9300   48.8610 H   0  0  0  0  0  0  0  0  0  0  0  0
   40.4210    9.9720   41.3440 H   0  0  0  0  0  0  0  0  0  0  0  0
  1  2  1  0  0  0  0
  2  3  2  0  0  0  0
  2  7  1  0  0  0  0
  3  4  1  0  0  0  0
  4  8  1  0  0  0  0
  4  5  2  0  0  0  0
  5 30  1  0  0  0  0
  6  5  1  0  0  0  0
  6 31  1  0  0  0  0
  7  6  2  0  0  0  0
  8 27  1  6  0  0  0
  8 12  1  0  0  0  0
  8  9  1  0  0  0  0
  9 10  1  0  0  0  0
 10 34  1  6  0  0  0
 10 22  1  0  0  0  0
 11 10  1  0  0  0  0
 11 35  1  1  0  0  0
 12 36  1  1  0  0  0
 12 11  1  0  0  0  0
 13 12  1  0  0  0  0
 14 13  2  0  0  0  0
 15 13  1  0  0  0  0
 15 16  1  0  0  0  0
 16 11  1  0  0  0  0
 17 16  2  0  0  0  0
 18 19  1  0  0  0  0
 18 15  1  0  0  0  0
 19 40  1  0  0  0  0
 20 19  1  0  0  0  0
 20 21  1  0  0  0  0
 21 45  1  0  0  0  0
 21 43  1  0  0  0  0
 22 46  1  0  0  0  0
 22 47  1  0  0  0  0
 22 23  1  0  0  0  0
 23 48  1  0  0  0  0
 23 24  1  0  0  0  0
 24 25  2  0  0  0  0
 26 24  1  0  0  0  0
 26 50  1  0  0  0  0
 28 27  2  0  0  0  0
 29  3  1  0  0  0  0
 29 27  1  0  0  0  0
 32  7  1  0  0  0  0
 33  9  1  0  0  0  0
 37 18  1  0  0  0  0
 38 18  1  0  0  0  0
 39 19  1  0  0  0  0
 41 20  1  0  0  0  0
 42 20  1  0  0  0  0
 44 21  1  0  0  0  0
 49 23  1  0  0  0  0
 51 26  1  0  0  0  0
 52 29  1  0  0  0  0
M  END
>  <Pose>
1

>  <Score>
-6.36

$$$$
