
 OpenBabel03172210433D

 62 65  0  0  1  0  0  0  0  0999 V2000
   47.5680    4.2320   43.2530 S   0  0  0  0  0  0  0  0  0  0  0  0
   46.3790    3.3060   43.3980 O   0  0  0  0  0  0  0  0  0  0  0  0
   48.3500    3.7180   42.0510 O   0  0  0  0  0  0  0  0  0  0  0  0
   47.1310    5.8440   42.9430 N   0  0  0  0  0  0  0  0  0  0  0  0
   46.9700    6.6520   44.1050 C   0  0  0  0  0  0  0  0  0  0  0  0
   45.4990    6.6900   44.4700 C   0  0  0  0  0  0  0  0  0  0  0  0
   44.8260    7.4630   43.4560 N   0  0  0  0  0  0  0  0  0  0  0  0
   45.3860    7.3810   42.1590 C   0  0  0  0  0  0  0  0  0  0  0  0
   46.0560    6.0130   42.0190 C   0  0  0  0  0  0  0  0  0  0  0  0
   44.3320    8.7240   43.8840 C   0  0  0  0  0  0  0  0  0  0  0  0
   43.0080    8.5330   44.5340 C   0  0  1  0  0  0  0  0  0  0  0  0
   43.0900    8.4360   46.0200 C   0  0  0  0  0  0  0  0  0  0  0  0
   44.1810    8.3570   46.6330 O   0  0  0  0  0  0  0  0  0  0  0  0
   41.8490    8.4410   46.6530 O   0  0  0  0  0  0  0  0  0  0  0  0
   40.7180    9.0540   46.1570 C   0  0  0  0  0  0  0  0  0  0  0  0
   40.8170    9.6980   44.9730 C   0  0  0  0  0  0  0  0  0  0  0  0
   42.0970    9.7090   44.2980 C   0  0  0  0  0  0  0  0  0  0  0  0
   42.4510   10.6390   43.5540 O   0  0  0  0  0  0  0  0  0  0  0  0
   39.6610   10.3900   44.3880 C   0  0  0  0  0  0  0  0  0  0  0  0
   38.7230   10.8860   45.3080 N   0  0  0  0  0  0  0  0  0  0  0  0
   37.3620   10.5750   45.1940 C   0  0  0  0  0  0  0  0  0  0  0  0
   36.5060   11.6210   45.9430 C   0  0  0  0  0  0  0  0  0  0  0  0
   37.0160   12.8970   45.5080 N   0  0  0  0  0  0  0  0  0  0  0  0
   38.3500   13.2090   46.0010 C   0  0  0  0  0  0  0  0  0  0  0  0
   39.1250   11.9130   46.1980 C   0  0  0  0  0  0  0  0  0  0  0  0
   36.2900   13.7610   44.6660 C   0  0  0  0  0  0  0  0  0  0  0  0
   35.9550   13.4620   43.3650 C   0  0  0  0  0  0  0  0  0  0  0  0
   35.2400   14.3430   42.5880 C   0  0  0  0  0  0  0  0  0  0  0  0
   34.8220   15.5650   43.0600 C   0  0  0  0  0  0  0  0  0  0  0  0
   35.1400   15.8930   44.3530 C   0  0  0  0  0  0  0  0  0  0  0  0
   35.8620   15.0060   45.1390 C   0  0  0  0  0  0  0  0  0  0  0  0
   34.8470   13.9060   40.9470 Cl  0  0  0  0  0  0  0  0  0  0  0  0
   48.5930    4.0320   44.6610 C   0  0  0  0  0  0  0  0  0  0  0  0
   47.2180    7.7100   43.7930 H   0  0  0  0  0  0  0  0  0  0  0  0
   47.6340    6.4060   44.9270 H   0  0  0  0  0  0  0  0  0  0  0  0
   45.1060    5.6540   44.4190 H   0  0  0  0  0  0  0  0  0  0  0  0
   45.3280    7.0670   45.4800 H   0  0  0  0  0  0  0  0  0  0  0  0
   46.0640    8.2050   41.8810 H   0  0  0  0  0  0  0  0  0  0  0  0
   44.5510    7.3910   41.4070 H   0  0  0  0  0  0  0  0  0  0  0  0
   45.2470    5.2550   42.1870 H   0  0  0  0  0  0  0  0  0  0  0  0
   46.3950    5.8490   40.9690 H   0  0  0  0  0  0  0  0  0  0  0  0
   45.0070    9.2000   44.6380 H   0  0  0  0  0  0  0  0  0  0  0  0
   44.2920    9.3880   42.9890 H   0  0  0  0  0  0  0  0  0  0  0  0
   42.5190    7.6340   44.1560 H   0  0  0  0  0  0  0  0  0  0  0  0
   39.7610    9.0540   46.6500 H   0  0  0  0  0  0  0  0  0  0  0  0
   39.2180    9.6910   43.6200 H   0  0  0  0  0  0  0  0  0  0  0  0
   40.0620   11.2670   43.7940 H   0  0  0  0  0  0  0  0  0  0  0  0
   37.0590    9.6070   45.6220 H   0  0  0  0  0  0  0  0  0  0  0  0
   37.0170   10.7240   44.1300 H   0  0  0  0  0  0  0  0  0  0  0  0
   35.4420   11.4600   45.8190 H   0  0  0  0  0  0  0  0  0  0  0  0
   36.7390   11.4350   47.0160 H   0  0  0  0  0  0  0  0  0  0  0  0
   38.9240   13.8340   45.3130 H   0  0  0  0  0  0  0  0  0  0  0  0
   38.2230   13.6450   47.0120 H   0  0  0  0  0  0  0  0  0  0  0  0
   40.1950   12.1450   46.0350 H   0  0  0  0  0  0  0  0  0  0  0  0
   39.0420   11.5570   47.2460 H   0  0  0  0  0  0  0  0  0  0  0  0
   36.2840   12.4890   42.9720 H   0  0  0  0  0  0  0  0  0  0  0  0
   34.2510   16.2580   42.4260 H   0  0  0  0  0  0  0  0  0  0  0  0
   34.8360   16.8490   44.7870 H   0  0  0  0  0  0  0  0  0  0  0  0
   36.1190   15.2500   46.1660 H   0  0  0  0  0  0  0  0  0  0  0  0
   48.0400    3.8240   45.5970 H   0  0  0  0  0  0  0  0  0  0  0  0
   49.2870    3.1520   44.5270 H   0  0  0  0  0  0  0  0  0  0  0  0
   49.2540    4.8970   44.8670 H   0  0  0  0  0  0  0  0  0  0  0  0
  1  2  2  0  0  0  0
  1 33  1  0  0  0  0
  3  1  2  0  0  0  0
  4  1  1  0  0  0  0
  4  5  1  0  0  0  0
  5  6  1  0  0  0  0
  5 35  1  0  0  0  0
  6 37  1  0  0  0  0
  7 10  1  0  0  0  0
  7  6  1  0  0  0  0
  8  7  1  0  0  0  0
  9  8  1  0  0  0  0
  9 40  1  0  0  0  0
  9  4  1  0  0  0  0
 10 11  1  0  0  0  0
 10 42  1  0  0  0  0
 11 44  1  6  0  0  0
 11 12  1  0  0  0  0
 12 13  2  0  0  0  0
 12 14  1  0  0  0  0
 15 45  1  0  0  0  0
 15 14  1  0  0  0  0
 16 15  2  0  0  0  0
 17 11  1  0  0  0  0
 17 16  1  0  0  0  0
 18 17  2  0  0  0  0
 19 16  1  0  0  0  0
 19 20  1  0  0  0  0
 20 25  1  0  0  0  0
 21 20  1  0  0  0  0
 21 48  1  0  0  0  0
 21 22  1  0  0  0  0
 22 51  1  0  0  0  0
 23 22  1  0  0  0  0
 23 24  1  0  0  0  0
 24 25  1  0  0  0  0
 24 53  1  0  0  0  0
 25 55  1  0  0  0  0
 26 31  1  0  0  0  0
 26 23  1  0  0  0  0
 27 26  2  0  0  0  0
 28 29  2  0  0  0  0
 28 27  1  0  0  0  0
 29 30  1  0  0  0  0
 30 58  1  0  0  0  0
 30 31  2  0  0  0  0
 31 59  1  0  0  0  0
 32 28  1  0  0  0  0
 33 62  1  0  0  0  0
 33 60  1  0  0  0  0
 34  5  1  0  0  0  0
 36  6  1  0  0  0  0
 38  8  1  0  0  0  0
 39  8  1  0  0  0  0
 41  9  1  0  0  0  0
 43 10  1  0  0  0  0
 46 19  1  0  0  0  0
 47 19  1  0  0  0  0
 49 21  1  0  0  0  0
 50 22  1  0  0  0  0
 52 24  1  0  0  0  0
 54 25  1  0  0  0  0
 56 27  1  0  0  0  0
 57 29  1  0  0  0  0
 61 33  1  0  0  0  0
M  END
>  <Pose>
1

>  <Score>
-6.74

$$$$
