
 OpenBabel03112215083D

 42 46  0  0  0  0  0  0  0  0999 V2000
  -38.6970  -68.9160   52.1960 C   0  0  0  0  0  0  0  0  0  0  0  0
  -38.3290  -70.0520   52.9210 C   0  0  0  0  0  0  0  0  0  0  0  0
  -37.4300  -70.5900   52.6580 H   0  0  0  0  0  0  0  0  0  0  0  0
  -39.1210  -70.4960   53.9870 C   0  0  0  0  0  0  0  0  0  0  0  0
  -38.8390  -71.3710   54.5530 H   0  0  0  0  0  0  0  0  0  0  0  0
  -39.8540  -68.2130   52.5250 C   0  0  0  0  0  0  0  0  0  0  0  0
  -40.1370  -67.3310   51.9690 H   0  0  0  0  0  0  0  0  0  0  0  0
  -40.6370  -68.6630   53.5780 C   0  0  0  0  0  0  0  0  0  0  0  0
  -40.2780  -69.7880   54.3040 C   0  0  0  0  0  0  0  0  0  0  0  0
  -41.2160  -69.9700   55.2420 N   0  0  0  0  0  0  0  0  0  0  0  0
  -41.2330  -70.7130   55.9250 H   0  0  0  0  0  0  0  0  0  0  0  0
  -42.1640  -68.9550   55.1160 N   0  0  0  0  0  0  0  0  0  0  0  0
  -41.8130  -68.1440   54.1090 C   0  0  0  0  0  0  0  0  0  0  0  0
  -42.6310  -66.9770   53.6620 C   0  0  0  0  0  0  0  0  0  0  0  0
  -42.3060  -66.4560   52.4130 C   0  0  0  0  0  0  0  0  0  0  0  0
  -41.5170  -66.9200   51.8390 H   0  0  0  0  0  0  0  0  0  0  0  0
  -42.9690  -65.3550   51.8850 C   0  0  0  0  0  0  0  0  0  0  0  0
  -43.9900  -64.7470   52.6200 C   0  0  0  0  0  0  0  0  0  0  0  0
  -44.5190  -63.8940   52.2210 H   0  0  0  0  0  0  0  0  0  0  0  0
  -44.3170  -65.2590   53.8810 C   0  0  0  0  0  0  0  0  0  0  0  0
  -45.1040  -64.7940   54.4560 H   0  0  0  0  0  0  0  0  0  0  0  0
  -43.6400  -66.3640   54.4070 C   0  0  0  0  0  0  0  0  0  0  0  0
  -43.8960  -66.7410   55.3860 H   0  0  0  0  0  0  0  0  0  0  0  0
  -42.5840  -64.9500   50.6430 N   0  0  0  0  0  0  0  0  0  0  0  0
  -43.1780  -65.2170   49.8710 H   0  0  0  0  0  0  0  0  0  0  0  0
  -37.8490  -68.4400   51.0680 C   0  0  0  0  0  0  0  0  0  0  0  0
  -36.6230  -68.9030   50.7440 N   0  0  0  0  0  0  0  0  0  0  0  0
  -36.1900  -68.1910   49.6180 N   0  0  0  0  0  0  0  0  0  0  0  0
  -37.1660  -67.3170   49.2990 C   0  0  0  0  0  0  0  0  0  0  0  0
  -37.5290  -67.5200   48.2920 H   0  0  0  0  0  0  0  0  0  0  0  0
  -36.7810  -66.2980   49.3480 H   0  0  0  0  0  0  0  0  0  0  0  0
  -38.1710  -67.4700   50.1890 N   0  0  0  0  0  0  0  0  0  0  0  0
  -41.4950  -64.2340   50.3460 C   0  0  0  0  0  0  0  0  0  0  0  0
  -40.7180  -63.8720   51.2060 O   0  0  0  0  0  0  0  0  0  0  0  0
  -41.2710  -63.9040   49.0680 C   0  0  0  0  0  0  0  0  0  0  0  0
  -42.1030  -63.2460   48.2490 C   0  0  0  0  0  0  0  0  0  0  0  0
  -43.0830  -62.8850   48.5260 H   0  0  0  0  0  0  0  0  0  0  0  0
  -41.5770  -63.1060   47.1000 C   0  0  0  0  0  0  0  0  0  0  0  0
  -42.0710  -62.6020   46.2820 H   0  0  0  0  0  0  0  0  0  0  0  0
  -40.4160  -63.6150   47.0030 C   0  0  0  0  0  0  0  0  0  0  0  0
  -39.7870  -63.6120   46.1250 H   0  0  0  0  0  0  0  0  0  0  0  0
  -40.0900  -64.2000   48.2940 O   0  0  0  0  0  0  0  0  0  0  0  0
  1  6  2  0  0  0  0
  1  2  1  0  0  0  0
  2  4  2  0  0  0  0
  3  2  1  0  0  0  0
  4  9  1  0  0  0  0
  4  5  1  0  0  0  0
  6  8  1  0  0  0  0
  7  6  1  0  0  0  0
  8 13  1  0  0  0  0
  8  9  2  0  0  0  0
  9 10  1  0  0  0  0
 10 11  1  0  0  0  0
 12 10  1  0  0  0  0
 13 12  2  0  0  0  0
 14 13  1  0  0  0  0
 14 22  1  0  0  0  0
 15 14  2  0  0  0  0
 16 15  1  0  0  0  0
 17 15  1  0  0  0  0
 17 18  2  0  0  0  0
 18 20  1  0  0  0  0
 19 18  1  0  0  0  0
 20 22  2  0  0  0  0
 20 21  1  0  0  0  0
 22 23  1  0  0  0  0
 24 17  1  0  0  0  0
 25 24  1  0  0  0  0
 26  1  1  0  0  0  0
 27 26  2  0  0  0  0
 28 27  1  0  0  0  0
 29 31  1  0  0  0  0
 29 28  1  0  0  0  0
 29 32  1  0  0  0  0
 30 29  1  0  0  0  0
 32 26  1  0  0  0  0
 33 24  1  0  0  0  0
 33 34  2  0  0  0  0
 35 33  1  0  0  0  0
 36 37  1  0  0  0  0
 36 35  2  0  0  0  0
 38 36  1  0  0  0  0
 39 38  1  0  0  0  0
 40 38  2  0  0  0  0
 40 42  1  0  0  0  0
 41 40  1  0  0  0  0
 42 35  1  0  0  0  0
M  END
>  <Pose>
1

>  <Score>
-8.74

$$$$

 OpenBabel03112215083D

 42 46  0  0  0  0  0  0  0  0999 V2000
  -38.7710  -69.0030   52.2970 C   0  0  0  0  0  0  0  0  0  0  0  0
  -38.4330  -70.1130   53.0740 C   0  0  0  0  0  0  0  0  0  0  0  0
  -37.5640  -70.7030   52.8220 H   0  0  0  0  0  0  0  0  0  0  0  0
  -39.2160  -70.4650   54.1810 C   0  0  0  0  0  0  0  0  0  0  0  0
  -38.9580  -71.3200   54.7880 H   0  0  0  0  0  0  0  0  0  0  0  0
  -39.8890  -68.2340   52.6120 C   0  0  0  0  0  0  0  0  0  0  0  0
  -40.1490  -67.3730   52.0150 H   0  0  0  0  0  0  0  0  0  0  0  0
  -40.6650  -68.5930   53.7050 C   0  0  0  0  0  0  0  0  0  0  0  0
  -40.3350  -69.6920   54.4840 C   0  0  0  0  0  0  0  0  0  0  0  0
  -41.2560  -69.7820   55.4510 N   0  0  0  0  0  0  0  0  0  0  0  0
  -41.2880  -70.4870   56.1740 H   0  0  0  0  0  0  0  0  0  0  0  0
  -42.1650  -68.7370   55.2900 N   0  0  0  0  0  0  0  0  0  0  0  0
  -41.8040  -67.9970   54.2330 C   0  0  0  0  0  0  0  0  0  0  0  0
  -42.5840  -66.8210   53.7410 C   0  0  0  0  0  0  0  0  0  0  0  0
  -43.9040  -66.7490   54.1760 C   0  0  0  0  0  0  0  0  0  0  0  0
  -44.2800  -67.5110   54.8430 H   0  0  0  0  0  0  0  0  0  0  0  0
  -44.7510  -65.7220   53.7750 C   0  0  0  0  0  0  0  0  0  0  0  0
  -44.2740  -64.7330   52.9120 C   0  0  0  0  0  0  0  0  0  0  0  0
  -44.9180  -63.9250   52.5970 H   0  0  0  0  0  0  0  0  0  0  0  0
  -42.9510  -64.8030   52.4630 C   0  0  0  0  0  0  0  0  0  0  0  0
  -42.5750  -64.0420   51.7940 H   0  0  0  0  0  0  0  0  0  0  0  0
  -42.1070  -65.8430   52.8660 C   0  0  0  0  0  0  0  0  0  0  0  0
  -41.0910  -65.8900   52.5020 H   0  0  0  0  0  0  0  0  0  0  0  0
  -46.0130  -65.7400   54.2870 N   0  0  0  0  0  0  0  0  0  0  0  0
  -46.2800  -64.9600   54.8700 H   0  0  0  0  0  0  0  0  0  0  0  0
  -37.9320  -68.6250   51.1260 C   0  0  0  0  0  0  0  0  0  0  0  0
  -36.7910  -69.2340   50.7360 N   0  0  0  0  0  0  0  0  0  0  0  0
  -36.3340  -68.5700   49.5900 N   0  0  0  0  0  0  0  0  0  0  0  0
  -37.2090  -67.5790   49.3260 C   0  0  0  0  0  0  0  0  0  0  0  0
  -37.6480  -67.7260   48.3390 H   0  0  0  0  0  0  0  0  0  0  0  0
  -36.6990  -66.6170   49.3570 H   0  0  0  0  0  0  0  0  0  0  0  0
  -38.1770  -67.6150   50.2680 N   0  0  0  0  0  0  0  0  0  0  0  0
  -46.9330  -66.6890   54.0910 C   0  0  0  0  0  0  0  0  0  0  0  0
  -46.7020  -67.6680   53.4100 O   0  0  0  0  0  0  0  0  0  0  0  0
  -48.1380  -66.5430   54.6570 C   0  0  0  0  0  0  0  0  0  0  0  0
  -49.1010  -65.6880   54.2870 C   0  0  0  0  0  0  0  0  0  0  0  0
  -49.0270  -64.9950   53.4630 H   0  0  0  0  0  0  0  0  0  0  0  0
  -50.1160  -65.8090   55.0450 C   0  0  0  0  0  0  0  0  0  0  0  0
  -51.0130  -65.2190   54.9280 H   0  0  0  0  0  0  0  0  0  0  0  0
  -49.9760  -66.6880   55.9520 C   0  0  0  0  0  0  0  0  0  0  0  0
  -50.7060  -66.9570   56.7020 H   0  0  0  0  0  0  0  0  0  0  0  0
  -48.6510  -67.2660   55.7950 O   0  0  0  0  0  0  0  0  0  0  0  0
  1  6  2  0  0  0  0
  1  2  1  0  0  0  0
  2  4  2  0  0  0  0
  3  2  1  0  0  0  0
  4  9  1  0  0  0  0
  4  5  1  0  0  0  0
  6  8  1  0  0  0  0
  7  6  1  0  0  0  0
  8 13  1  0  0  0  0
  8  9  2  0  0  0  0
  9 10  1  0  0  0  0
 10 11  1  0  0  0  0
 12 10  1  0  0  0  0
 13 12  2  0  0  0  0
 14 15  1  0  0  0  0
 14 13  1  0  0  0  0
 15 16  1  0  0  0  0
 17 15  2  0  0  0  0
 17 24  1  0  0  0  0
 18 17  1  0  0  0  0
 19 18  1  0  0  0  0
 20 22  1  0  0  0  0
 20 18  2  0  0  0  0
 21 20  1  0  0  0  0
 22 14  2  0  0  0  0
 23 22  1  0  0  0  0
 24 25  1  0  0  0  0
 26  1  1  0  0  0  0
 27 26  2  0  0  0  0
 28 27  1  0  0  0  0
 29 31  1  0  0  0  0
 29 28  1  0  0  0  0
 29 32  1  0  0  0  0
 30 29  1  0  0  0  0
 32 26  1  0  0  0  0
 33 24  1  0  0  0  0
 33 35  1  0  0  0  0
 34 33  2  0  0  0  0
 35 42  1  0  0  0  0
 36 35  2  0  0  0  0
 36 38  1  0  0  0  0
 37 36  1  0  0  0  0
 38 40  2  0  0  0  0
 39 38  1  0  0  0  0
 40 41  1  0  0  0  0
 42 40  1  0  0  0  0
M  END
>  <Pose>
3

>  <Score>
-8.44

$$$$

 OpenBabel03112215083D

 42 46  0  0  0  0  0  0  0  0999 V2000
  -38.8470  -68.7210   51.8710 C   0  0  0  0  0  0  0  0  0  0  0  0
  -38.3180  -69.8490   52.5030 C   0  0  0  0  0  0  0  0  0  0  0  0
  -37.4370  -70.3280   52.1010 H   0  0  0  0  0  0  0  0  0  0  0  0
  -38.9260  -70.3630   53.6560 C   0  0  0  0  0  0  0  0  0  0  0  0
  -38.5190  -71.2320   54.1510 H   0  0  0  0  0  0  0  0  0  0  0  0
  -39.9830  -68.0950   52.3800 C   0  0  0  0  0  0  0  0  0  0  0  0
  -40.3900  -67.2200   51.8950 H   0  0  0  0  0  0  0  0  0  0  0  0
  -40.5830  -68.6130   53.5180 C   0  0  0  0  0  0  0  0  0  0  0  0
  -40.0640  -69.7310   54.1520 C   0  0  0  0  0  0  0  0  0  0  0  0
  -40.8480  -69.9880   55.2070 N   0  0  0  0  0  0  0  0  0  0  0  0
  -40.7280  -70.7460   55.8630 H   0  0  0  0  0  0  0  0  0  0  0  0
  -41.8590  -69.0290   55.2450 N   0  0  0  0  0  0  0  0  0  0  0  0
  -41.6990  -68.1760   54.2230 C   0  0  0  0  0  0  0  0  0  0  0  0
  -42.6350  -67.0490   53.9300 C   0  0  0  0  0  0  0  0  0  0  0  0
  -43.9410  -67.2200   54.3810 C   0  0  0  0  0  0  0  0  0  0  0  0
  -44.1990  -68.1190   54.9200 H   0  0  0  0  0  0  0  0  0  0  0  0
  -44.9230  -66.2610   54.1540 C   0  0  0  0  0  0  0  0  0  0  0  0
  -44.6000  -65.0950   53.4580 C   0  0  0  0  0  0  0  0  0  0  0  0
  -45.3490  -64.3380   53.2800 H   0  0  0  0  0  0  0  0  0  0  0  0
  -43.2910  -64.9200   52.9940 C   0  0  0  0  0  0  0  0  0  0  0  0
  -43.0330  -64.0210   52.4530 H   0  0  0  0  0  0  0  0  0  0  0  0
  -42.3110  -65.8920   53.2200 C   0  0  0  0  0  0  0  0  0  0  0  0
  -41.3080  -65.7480   52.8470 H   0  0  0  0  0  0  0  0  0  0  0  0
  -46.1580  -66.5230   54.6650 N   0  0  0  0  0  0  0  0  0  0  0  0
  -46.2210  -66.6460   55.6650 H   0  0  0  0  0  0  0  0  0  0  0  0
  -38.1950  -68.1720   50.6500 C   0  0  0  0  0  0  0  0  0  0  0  0
  -37.0960  -68.6690   50.0430 N   0  0  0  0  0  0  0  0  0  0  0  0
  -36.8300  -67.8600   48.9310 N   0  0  0  0  0  0  0  0  0  0  0  0
  -37.7720  -66.8970   48.9030 C   0  0  0  0  0  0  0  0  0  0  0  0
  -38.3380  -66.9590   47.9740 H   0  0  0  0  0  0  0  0  0  0  0  0
  -37.3010  -65.9170   48.9770 H   0  0  0  0  0  0  0  0  0  0  0  0
  -38.5980  -67.0890   49.9560 N   0  0  0  0  0  0  0  0  0  0  0  0
  -47.2940  -66.6340   53.9700 C   0  0  0  0  0  0  0  0  0  0  0  0
  -47.3160  -66.5080   52.7620 O   0  0  0  0  0  0  0  0  0  0  0  0
  -48.4320  -66.8790   54.6320 C   0  0  0  0  0  0  0  0  0  0  0  0
  -48.8310  -68.0530   55.1380 C   0  0  0  0  0  0  0  0  0  0  0  0
  -48.2690  -68.9740   55.0780 H   0  0  0  0  0  0  0  0  0  0  0  0
  -49.9660  -67.9320   55.7000 C   0  0  0  0  0  0  0  0  0  0  0  0
  -50.4790  -68.7530   56.1780 H   0  0  0  0  0  0  0  0  0  0  0  0
  -50.4410  -66.7530   55.6450 C   0  0  0  0  0  0  0  0  0  0  0  0
  -51.3850  -66.4240   56.0550 H   0  0  0  0  0  0  0  0  0  0  0  0
  -49.4780  -65.9310   54.9300 O   0  0  0  0  0  0  0  0  0  0  0  0
  1  6  2  0  0  0  0
  1  2  1  0  0  0  0
  2  4  2  0  0  0  0
  3  2  1  0  0  0  0
  4  5  1  0  0  0  0
  4  9  1  0  0  0  0
  6  8  1  0  0  0  0
  7  6  1  0  0  0  0
  8  9  2  0  0  0  0
  8 13  1  0  0  0  0
  9 10  1  0  0  0  0
 10 12  1  0  0  0  0
 10 11  1  0  0  0  0
 13 12  2  0  0  0  0
 14 13  1  0  0  0  0
 14 15  1  0  0  0  0
 15 16  1  0  0  0  0
 17 15  2  0  0  0  0
 17 24  1  0  0  0  0
 18 17  1  0  0  0  0
 19 18  1  0  0  0  0
 20 22  1  0  0  0  0
 20 18  2  0  0  0  0
 21 20  1  0  0  0  0
 22 14  2  0  0  0  0
 23 22  1  0  0  0  0
 24 25  1  0  0  0  0
 26  1  1  0  0  0  0
 27 26  2  0  0  0  0
 28 27  1  0  0  0  0
 29 28  1  0  0  0  0
 29 31  1  0  0  0  0
 29 32  1  0  0  0  0
 30 29  1  0  0  0  0
 32 26  1  0  0  0  0
 33 35  1  0  0  0  0
 33 24  1  0  0  0  0
 34 33  2  0  0  0  0
 35 42  1  0  0  0  0
 35 36  2  0  0  0  0
 36 38  1  0  0  0  0
 37 36  1  0  0  0  0
 38 39  1  0  0  0  0
 40 38  2  0  0  0  0
 40 41  1  0  0  0  0
 42 40  1  0  0  0  0
M  END
>  <Pose>
5

>  <Score>
-8.42

$$$$

 OpenBabel03112215083D

 42 46  0  0  0  0  0  0  0  0999 V2000
  -42.6190  -66.7990   53.7890 C   0  0  0  0  0  0  0  0  0  0  0  0
  -43.8010  -66.3140   54.3540 C   0  0  0  0  0  0  0  0  0  0  0  0
  -44.1800  -66.7510   55.2660 H   0  0  0  0  0  0  0  0  0  0  0  0
  -44.4960  -65.2630   53.7420 C   0  0  0  0  0  0  0  0  0  0  0  0
  -45.4080  -64.8810   54.1760 H   0  0  0  0  0  0  0  0  0  0  0  0
  -42.1190  -66.2430   52.6130 C   0  0  0  0  0  0  0  0  0  0  0  0
  -41.2020  -66.6140   52.1780 H   0  0  0  0  0  0  0  0  0  0  0  0
  -42.8160  -65.2080   52.0090 C   0  0  0  0  0  0  0  0  0  0  0  0
  -43.9900  -64.7190   52.5640 C   0  0  0  0  0  0  0  0  0  0  0  0
  -44.4240  -63.7350   51.7670 N   0  0  0  0  0  0  0  0  0  0  0  0
  -45.2620  -63.1880   51.9060 H   0  0  0  0  0  0  0  0  0  0  0  0
  -43.5240  -63.5950   50.7120 N   0  0  0  0  0  0  0  0  0  0  0  0
  -42.5310  -64.4830   50.8580 C   0  0  0  0  0  0  0  0  0  0  0  0
  -41.4140  -64.6450   49.8770 C   0  0  0  0  0  0  0  0  0  0  0  0
  -41.3450  -63.6770   48.8790 C   0  0  0  0  0  0  0  0  0  0  0  0
  -42.0650  -62.8720   48.8760 H   0  0  0  0  0  0  0  0  0  0  0  0
  -40.3720  -63.7200   47.8870 C   0  0  0  0  0  0  0  0  0  0  0  0
  -39.4370  -64.7580   47.8830 C   0  0  0  0  0  0  0  0  0  0  0  0
  -38.6710  -64.8010   47.1230 H   0  0  0  0  0  0  0  0  0  0  0  0
  -39.5060  -65.7390   48.8780 C   0  0  0  0  0  0  0  0  0  0  0  0
  -38.7870  -66.5450   48.8810 H   0  0  0  0  0  0  0  0  0  0  0  0
  -40.4920  -65.6920   49.8690 C   0  0  0  0  0  0  0  0  0  0  0  0
  -40.5390  -66.4630   50.6240 H   0  0  0  0  0  0  0  0  0  0  0  0
  -40.3840  -62.7060   46.9790 N   0  0  0  0  0  0  0  0  0  0  0  0
  -39.9800  -61.8270   47.2710 H   0  0  0  0  0  0  0  0  0  0  0  0
  -41.8760  -67.9100   54.4450 C   0  0  0  0  0  0  0  0  0  0  0  0
  -42.4250  -68.9820   55.0560 N   0  0  0  0  0  0  0  0  0  0  0  0
  -41.3750  -69.7810   55.5240 N   0  0  0  0  0  0  0  0  0  0  0  0
  -40.2240  -69.1660   55.1850 C   0  0  0  0  0  0  0  0  0  0  0  0
  -39.6350  -69.8140   54.5360 H   0  0  0  0  0  0  0  0  0  0  0  0
  -39.6500  -68.9340   56.0830 H   0  0  0  0  0  0  0  0  0  0  0  0
  -40.5360  -68.0250   54.5330 N   0  0  0  0  0  0  0  0  0  0  0  0
  -40.8800  -62.7600   45.7390 C   0  0  0  0  0  0  0  0  0  0  0  0
  -41.3900  -63.7710   45.3010 O   0  0  0  0  0  0  0  0  0  0  0  0
  -40.7950  -61.6700   44.9650 C   0  0  0  0  0  0  0  0  0  0  0  0
  -40.6150  -60.4060   45.3720 C   0  0  0  0  0  0  0  0  0  0  0  0
  -40.5080  -60.1000   46.4020 H   0  0  0  0  0  0  0  0  0  0  0  0
  -40.5880  -59.6180   44.3740 C   0  0  0  0  0  0  0  0  0  0  0  0
  -40.4510  -58.5510   44.4690 H   0  0  0  0  0  0  0  0  0  0  0  0
  -40.7390  -60.2030   43.2550 C   0  0  0  0  0  0  0  0  0  0  0  0
  -40.7490  -59.7320   42.2830 H   0  0  0  0  0  0  0  0  0  0  0  0
  -40.8950  -61.6230   43.5260 O   0  0  0  0  0  0  0  0  0  0  0  0
  1  2  1  0  0  0  0
  1 26  1  0  0  0  0
  2  3  1  0  0  0  0
  4  5  1  0  0  0  0
  4  2  2  0  0  0  0
  6  1  2  0  0  0  0
  7  6  1  0  0  0  0
  8  9  2  0  0  0  0
  8  6  1  0  0  0  0
  9  4  1  0  0  0  0
 10 11  1  0  0  0  0
 10  9  1  0  0  0  0
 12 13  2  0  0  0  0
 12 10  1  0  0  0  0
 13  8  1  0  0  0  0
 14 13  1  0  0  0  0
 15 14  2  0  0  0  0
 16 15  1  0  0  0  0
 17 15  1  0  0  0  0
 18 17  2  0  0  0  0
 18 20  1  0  0  0  0
 19 18  1  0  0  0  0
 20 21  1  0  0  0  0
 20 22  2  0  0  0  0
 22 14  1  0  0  0  0
 22 23  1  0  0  0  0
 24 25  1  0  0  0  0
 24 17  1  0  0  0  0
 26 32  1  0  0  0  0
 26 27  2  0  0  0  0
 27 28  1  0  0  0  0
 29 28  1  0  0  0  0
 29 31  1  0  0  0  0
 30 29  1  0  0  0  0
 32 29  1  0  0  0  0
 33 24  1  0  0  0  0
 34 33  2  0  0  0  0
 35 36  2  0  0  0  0
 35 33  1  0  0  0  0
 36 37  1  0  0  0  0
 38 39  1  0  0  0  0
 38 36  1  0  0  0  0
 40 42  1  0  0  0  0
 40 38  2  0  0  0  0
 41 40  1  0  0  0  0
 42 35  1  0  0  0  0
M  END
>  <Pose>
1

>  <Score>
-6.64

$$$$
