
 OpenBabel03112211303D

 42 46  0  0  0  0  0  0  0  0999 V2000
  -38.8740  -68.6340   51.8280 C   0  0  0  0  0  0  0  0  0  0  0  0
  -38.3070  -69.7260   52.4880 C   0  0  0  0  0  0  0  0  0  0  0  0
  -37.3970  -70.1700   52.1100 H   0  0  0  0  0  0  0  0  0  0  0  0
  -38.9130  -70.2490   53.6370 C   0  0  0  0  0  0  0  0  0  0  0  0
  -38.4780  -71.0910   54.1540 H   0  0  0  0  0  0  0  0  0  0  0  0
  -40.0470  -68.0520   52.3040 C   0  0  0  0  0  0  0  0  0  0  0  0
  -40.4830  -67.2040   51.7980 H   0  0  0  0  0  0  0  0  0  0  0  0
  -40.6450  -68.5790   53.4390 C   0  0  0  0  0  0  0  0  0  0  0  0
  -40.0880  -69.6630   54.1010 C   0  0  0  0  0  0  0  0  0  0  0  0
  -40.8810  -69.9380   55.1450 N   0  0  0  0  0  0  0  0  0  0  0  0
  -40.7390  -70.6800   55.8150 H   0  0  0  0  0  0  0  0  0  0  0  0
  -41.9350  -69.0260   55.1480 N   0  0  0  0  0  0  0  0  0  0  0  0
  -41.7930  -68.1830   54.1160 C   0  0  0  0  0  0  0  0  0  0  0  0
  -42.7740  -67.1050   53.7870 C   0  0  0  0  0  0  0  0  0  0  0  0
  -44.0460  -67.2620   54.3300 C   0  0  0  0  0  0  0  0  0  0  0  0
  -44.2480  -68.1170   54.9580 H   0  0  0  0  0  0  0  0  0  0  0  0
  -45.0630  -66.3470   54.0840 C   0  0  0  0  0  0  0  0  0  0  0  0
  -44.8120  -65.2380   53.2730 C   0  0  0  0  0  0  0  0  0  0  0  0
  -45.5900  -64.5150   53.0780 H   0  0  0  0  0  0  0  0  0  0  0  0
  -43.5380  -65.0780   52.7170 C   0  0  0  0  0  0  0  0  0  0  0  0
  -43.3360  -64.2230   52.0870 H   0  0  0  0  0  0  0  0  0  0  0  0
  -42.5220  -66.0060   52.9630 C   0  0  0  0  0  0  0  0  0  0  0  0
  -41.5470  -65.8750   52.5180 H   0  0  0  0  0  0  0  0  0  0  0  0
  -46.2590  -66.5890   54.6900 N   0  0  0  0  0  0  0  0  0  0  0  0
  -46.2630  -66.6100   55.6990 H   0  0  0  0  0  0  0  0  0  0  0  0
  -38.2230  -68.0730   50.6110 C   0  0  0  0  0  0  0  0  0  0  0  0
  -37.1170  -68.5570   50.0070 N   0  0  0  0  0  0  0  0  0  0  0  0
  -36.8550  -67.7430   48.8970 N   0  0  0  0  0  0  0  0  0  0  0  0
  -37.8090  -66.7900   48.8680 C   0  0  0  0  0  0  0  0  0  0  0  0
  -38.3700  -66.8560   47.9360 H   0  0  0  0  0  0  0  0  0  0  0  0
  -37.3490  -65.8040   48.9460 H   0  0  0  0  0  0  0  0  0  0  0  0
  -38.6360  -66.9940   49.9170 N   0  0  0  0  0  0  0  0  0  0  0  0
  -47.4270  -66.8030   54.0770 C   0  0  0  0  0  0  0  0  0  0  0  0
  -47.5200  -66.8030   52.8660 O   0  0  0  0  0  0  0  0  0  0  0  0
  -48.5180  -67.0100   54.8260 C   0  0  0  0  0  0  0  0  0  0  0  0
  -48.8140  -68.1110   55.5290 C   0  0  0  0  0  0  0  0  0  0  0  0
  -48.1920  -68.9930   55.5840 H   0  0  0  0  0  0  0  0  0  0  0  0
  -49.9310  -67.9730   56.1210 C   0  0  0  0  0  0  0  0  0  0  0  0
  -50.3660  -68.7390   56.7470 H   0  0  0  0  0  0  0  0  0  0  0  0
  -50.4890  -66.8500   55.9070 C   0  0  0  0  0  0  0  0  0  0  0  0
  -51.4360  -66.5200   56.3070 H   0  0  0  0  0  0  0  0  0  0  0  0
  -49.6150  -66.0940   55.0250 O   0  0  0  0  0  0  0  0  0  0  0  0
  1  6  2  0  0  0  0
  1  2  1  0  0  0  0
  2  4  2  0  0  0  0
  3  2  1  0  0  0  0
  4  9  1  0  0  0  0
  4  5  1  0  0  0  0
  6  8  1  0  0  0  0
  7  6  1  0  0  0  0
  8  9  2  0  0  0  0
  8 13  1  0  0  0  0
  9 10  1  0  0  0  0
 10 12  1  0  0  0  0
 10 11  1  0  0  0  0
 13 12  2  0  0  0  0
 14 13  1  0  0  0  0
 14 15  1  0  0  0  0
 15 16  1  0  0  0  0
 17 15  2  0  0  0  0
 17 24  1  0  0  0  0
 18 17  1  0  0  0  0
 19 18  1  0  0  0  0
 20 22  1  0  0  0  0
 20 18  2  0  0  0  0
 21 20  1  0  0  0  0
 22 14  2  0  0  0  0
 23 22  1  0  0  0  0
 24 25  1  0  0  0  0
 26  1  1  0  0  0  0
 27 26  2  0  0  0  0
 28 27  1  0  0  0  0
 29 28  1  0  0  0  0
 29 31  1  0  0  0  0
 29 32  1  0  0  0  0
 30 29  1  0  0  0  0
 32 26  1  0  0  0  0
 33 24  1  0  0  0  0
 33 35  1  0  0  0  0
 34 33  2  0  0  0  0
 35 42  1  0  0  0  0
 35 36  2  0  0  0  0
 36 37  1  0  0  0  0
 36 38  1  0  0  0  0
 38 39  1  0  0  0  0
 40 38  2  0  0  0  0
 40 41  1  0  0  0  0
 42 40  1  0  0  0  0
M  END
>  <Pose>
10

>  <Score>
-8.48

$$$$
