
 OpenBabel03112211293D

 55 58  0  0  1  0  0  0  0  0999 V2000
   20.5760    8.4740   32.2520 C   0  0  2  0  0  0  0  0  0  0  0  0
   21.2000    7.3200   31.9570 N   0  0  0  0  0  0  0  0  0  0  0  0
   19.3230    8.3700   32.8190 C   0  0  0  0  0  0  0  0  0  0  0  0
   18.8200    7.1120   33.0360 C   0  0  0  0  0  0  0  0  0  0  0  0
   17.5820    7.2450   33.5960 N   0  0  0  0  0  0  0  0  0  0  0  0
   16.9790    6.4790   33.8580 H   0  0  0  0  0  0  0  0  0  0  0  0
   17.2800    8.5680   33.7480 C   0  0  0  0  0  0  0  0  0  0  0  0
   16.3690    8.9710   34.1660 H   0  0  0  0  0  0  0  0  0  0  0  0
   18.3480    9.2970   33.2710 C   0  0  0  0  0  0  0  0  0  0  0  0
   18.4280   10.3730   33.2460 H   0  0  0  0  0  0  0  0  0  0  0  0
   19.4220    5.9630   32.7530 N   0  0  0  0  0  0  0  0  0  0  0  0
   20.6290    6.1360   32.2090 C   0  0  0  0  0  0  0  0  0  0  0  0
   21.3120    4.9470   31.8850 N   0  0  0  0  0  0  0  0  0  0  0  0
   20.8400    4.0710   32.0620 H   0  0  0  0  0  0  0  0  0  0  0  0
   22.6070    4.8930   31.3320 C   0  0  0  0  0  0  0  0  0  0  0  0
   23.4750    3.9040   31.7430 C   0  0  0  0  0  0  0  0  0  0  0  0
   22.9810    3.0300   32.7010 O   0  0  0  0  0  0  0  0  0  0  0  0
   24.0200    2.1740   33.1570 C   0  0  0  0  0  0  0  0  0  0  0  0
   23.6260    1.4910   33.9090 H   0  0  0  0  0  0  0  0  0  0  0  0
   24.8190    2.7740   33.5930 H   0  0  0  0  0  0  0  0  0  0  0  0
   24.4140    1.6020   32.3170 H   0  0  0  0  0  0  0  0  0  0  0  0
   23.0290    5.7960   30.3790 C   0  0  0  0  0  0  0  0  0  0  0  0
   22.3580    6.5710   30.0380 H   0  0  0  0  0  0  0  0  0  0  0  0
   24.3010    5.7140   29.8580 C   0  0  0  0  0  0  0  0  0  0  0  0
   24.6240    6.4350   29.1220 H   0  0  0  0  0  0  0  0  0  0  0  0
   25.1680    4.7220   30.2670 C   0  0  0  0  0  0  0  0  0  0  0  0
   24.7530    3.8130   31.2180 C   0  0  0  0  0  0  0  0  0  0  0  0
   25.4210    3.0330   31.5510 H   0  0  0  0  0  0  0  0  0  0  0  0
   26.5440    4.6630   29.6870 C   0  0  0  0  0  0  0  0  0  0  0  0
   27.1750    4.0210   30.3020 H   0  0  0  0  0  0  0  0  0  0  0  0
   26.9710    5.6650   29.6520 H   0  0  0  0  0  0  0  0  0  0  0  0
   26.4390    3.9980   28.0400 S   0  0  0  0  0  0  0  0  0  0  0  0
   25.5410    4.8240   27.2540 O   0  0  0  0  0  0  0  0  0  0  0  0
   26.2070    2.5710   28.1660 O   0  0  0  0  0  0  0  0  0  0  0  0
   28.0810    4.2390   27.4330 C   0  0  0  0  0  0  0  0  0  0  0  0
   28.2770    5.3060   27.3300 H   0  0  0  0  0  0  0  0  0  0  0  0
   28.1830    3.7560   26.4610 H   0  0  0  0  0  0  0  0  0  0  0  0
   28.7950    3.8040   28.1320 H   0  0  0  0  0  0  0  0  0  0  0  0
   20.7700   12.7020   32.0600 O   0  0  0  0  0  0  0  0  0  0  0  0
   21.4310   12.3420   31.0930 C   0  0  0  0  0  0  0  0  0  0  0  0
   21.1940   12.7160   29.7960 N   0  0  0  0  0  0  0  0  0  0  0  0
   20.4250   13.3330   29.5800 H   0  0  0  0  0  0  0  0  0  0  0  0
   21.7900   12.3730   29.0550 H   0  0  0  0  0  0  0  0  0  0  0  0
   22.5850   11.4400   31.2660 C   0  0  0  0  0  0  0  0  0  0  0  0
   23.8550   11.8760   30.9580 C   0  0  0  0  0  0  0  0  0  0  0  0
   24.0640   13.1190   30.4990 F   0  0  0  0  0  0  0  0  0  0  0  0
   24.9310   11.0330   31.1200 C   0  0  0  0  0  0  0  0  0  0  0  0
   25.9270   11.3720   30.8780 H   0  0  0  0  0  0  0  0  0  0  0  0
   24.7290    9.7560   31.5910 C   0  0  0  0  0  0  0  0  0  0  0  0
   25.5690    9.0900   31.7190 H   0  0  0  0  0  0  0  0  0  0  0  0
   23.4580    9.3240   31.9000 C   0  0  0  0  0  0  0  0  0  0  0  0
   23.3100    8.3210   32.2700 H   0  0  0  0  0  0  0  0  0  0  0  0
   22.3730   10.1590   31.7410 C   0  0  0  0  0  0  0  0  0  0  0  0
   21.0630    9.7680   32.0390 N   0  0  0  0  0  0  0  0  0  0  0  0
   20.3840   10.5130   32.1090 H   0  0  0  0  0  0  0  0  0  0  0  0
  1 54  1  6  0  0  0
  1  3  1  0  0  0  0
  2 12  2  0  0  0  0
  2  1  1  0  0  0  0
  3  4  2  0  0  0  0
  3  9  1  0  0  0  0
  4  5  1  0  0  0  0
  5  7  1  0  0  0  0
  5  6  1  0  0  0  0
  7  8  1  0  0  0  0
  9  7  2  0  0  0  0
 10  9  1  0  0  0  0
 11  4  1  0  0  0  0
 12 11  1  0  0  0  0
 13 14  1  0  0  0  0
 13 12  1  0  0  0  0
 15 16  1  0  0  0  0
 15 13  1  0  0  0  0
 16 17  1  0  0  0  0
 17 18  1  0  0  0  0
 18 20  1  0  0  0  0
 18 19  1  0  0  0  0
 21 18  1  0  0  0  0
 22 15  2  0  0  0  0
 23 22  1  0  0  0  0
 24 26  2  0  0  0  0
 24 22  1  0  0  0  0
 25 24  1  0  0  0  0
 26 27  1  0  0  0  0
 27 28  1  0  0  0  0
 27 16  2  0  0  0  0
 29 26  1  0  0  0  0
 29 30  1  0  0  0  0
 31 29  1  0  0  0  0
 32 34  2  0  0  0  0
 32 29  1  0  0  0  0
 33 32  2  0  0  0  0
 35 32  1  0  0  0  0
 35 38  1  0  0  0  0
 36 35  1  0  0  0  0
 37 35  1  0  0  0  0
 40 44  1  0  0  0  0
 40 39  2  0  0  0  0
 41 40  1  0  0  0  0
 42 41  1  0  0  0  0
 43 41  1  0  0  0  0
 44 53  1  0  0  0  0
 45 47  1  0  0  0  0
 45 44  2  0  0  0  0
 46 45  1  0  0  0  0
 47 49  2  0  0  0  0
 48 47  1  0  0  0  0
 49 50  1  0  0  0  0
 49 51  1  0  0  0  0
 51 52  1  0  0  0  0
 53 51  2  0  0  0  0
 53 54  1  0  0  0  0
 54 55  1  0  0  0  0
M  END
>  <Pose>
7

>  <Score>
-11.17

$$$$

 OpenBabel03112211293D

 55 58  0  0  1  0  0  0  0  0999 V2000
   20.6410    8.5480   32.3870 C   0  0  2  0  0  0  0  0  0  0  0  0
   21.1510    7.3840   31.9470 N   0  0  0  0  0  0  0  0  0  0  0  0
   19.4090    8.4880   33.0040 C   0  0  0  0  0  0  0  0  0  0  0  0
   18.8090    7.2600   33.1190 C   0  0  0  0  0  0  0  0  0  0  0  0
   17.6110    7.4350   33.7520 N   0  0  0  0  0  0  0  0  0  0  0  0
   16.9560    6.6970   33.9670 H   0  0  0  0  0  0  0  0  0  0  0  0
   17.4310    8.7550   34.0500 C   0  0  0  0  0  0  0  0  0  0  0  0
   16.5760    9.1850   34.5510 H   0  0  0  0  0  0  0  0  0  0  0  0
   18.5370    9.4400   33.5950 C   0  0  0  0  0  0  0  0  0  0  0  0
   18.7080   10.5030   33.6730 H   0  0  0  0  0  0  0  0  0  0  0  0
   19.2980    6.1010   32.6940 N   0  0  0  0  0  0  0  0  0  0  0  0
   20.4910    6.2310   32.1090 C   0  0  0  0  0  0  0  0  0  0  0  0
   21.0550    5.0300   31.6350 N   0  0  0  0  0  0  0  0  0  0  0  0
   20.4320    4.2520   31.4680 H   0  0  0  0  0  0  0  0  0  0  0  0
   22.4270    4.8380   31.3760 C   0  0  0  0  0  0  0  0  0  0  0  0
   23.0220    5.5340   30.3460 C   0  0  0  0  0  0  0  0  0  0  0  0
   22.1860    6.3800   29.6280 O   0  0  0  0  0  0  0  0  0  0  0  0
   22.6400    6.4830   28.2860 C   0  0  0  0  0  0  0  0  0  0  0  0
   21.9790    7.1470   27.7290 H   0  0  0  0  0  0  0  0  0  0  0  0
   22.6360    5.4960   27.8240 H   0  0  0  0  0  0  0  0  0  0  0  0
   23.6530    6.8850   28.2750 H   0  0  0  0  0  0  0  0  0  0  0  0
   23.1980    3.9820   32.1340 C   0  0  0  0  0  0  0  0  0  0  0  0
   22.7490    3.4370   32.9510 H   0  0  0  0  0  0  0  0  0  0  0  0
   24.5360    3.8190   31.8540 C   0  0  0  0  0  0  0  0  0  0  0  0
   25.1260    3.1360   32.4470 H   0  0  0  0  0  0  0  0  0  0  0  0
   25.1320    4.5190   30.8260 C   0  0  0  0  0  0  0  0  0  0  0  0
   24.3690    5.3800   30.0640 C   0  0  0  0  0  0  0  0  0  0  0  0
   24.8200    5.9320   29.2530 H   0  0  0  0  0  0  0  0  0  0  0  0
   26.5860    4.3160   30.5440 C   0  0  0  0  0  0  0  0  0  0  0  0
   27.0110    3.6350   31.2800 H   0  0  0  0  0  0  0  0  0  0  0  0
   27.1060    5.2730   30.5910 H   0  0  0  0  0  0  0  0  0  0  0  0
   26.7570    3.6210   28.9150 S   0  0  0  0  0  0  0  0  0  0  0  0
   26.3350    4.6050   27.9350 O   0  0  0  0  0  0  0  0  0  0  0  0
   26.1520    2.3030   28.9440 O   0  0  0  0  0  0  0  0  0  0  0  0
   28.5070    3.4220   28.7740 C   0  0  0  0  0  0  0  0  0  0  0  0
   28.9840    4.4020   28.7510 H   0  0  0  0  0  0  0  0  0  0  0  0
   28.7390    2.8830   27.8560 H   0  0  0  0  0  0  0  0  0  0  0  0
   28.8790    2.8580   29.6300 H   0  0  0  0  0  0  0  0  0  0  0  0
   20.8880   12.6090   32.0810 O   0  0  0  0  0  0  0  0  0  0  0  0
   21.5120   12.2890   31.0770 C   0  0  0  0  0  0  0  0  0  0  0  0
   21.2360   12.7250   29.8070 N   0  0  0  0  0  0  0  0  0  0  0  0
   20.4660   13.3580   29.6470 H   0  0  0  0  0  0  0  0  0  0  0  0
   21.8020   12.4120   29.0310 H   0  0  0  0  0  0  0  0  0  0  0  0
   22.6610   11.3690   31.1680 C   0  0  0  0  0  0  0  0  0  0  0  0
   23.8860   11.7400   30.6550 C   0  0  0  0  0  0  0  0  0  0  0  0
   24.0520   12.9340   30.0670 F   0  0  0  0  0  0  0  0  0  0  0  0
   24.9560   10.8800   30.7400 C   0  0  0  0  0  0  0  0  0  0  0  0
   25.9160   11.1670   30.3380 H   0  0  0  0  0  0  0  0  0  0  0  0
   24.7970    9.6520   31.3410 C   0  0  0  0  0  0  0  0  0  0  0  0
   25.6340    8.9740   31.4110 H   0  0  0  0  0  0  0  0  0  0  0  0
   23.5720    9.2860   31.8560 C   0  0  0  0  0  0  0  0  0  0  0  0
   23.4580    8.3220   32.3270 H   0  0  0  0  0  0  0  0  0  0  0  0
   22.4920   10.1380   31.7740 C   0  0  0  0  0  0  0  0  0  0  0  0
   21.2280    9.8140   32.2800 N   0  0  0  0  0  0  0  0  0  0  0  0
   20.6700   10.5890   32.6080 H   0  0  0  0  0  0  0  0  0  0  0  0
  1 54  1  6  0  0  0
  1  3  1  0  0  0  0
  2 12  2  0  0  0  0
  2  1  1  0  0  0  0
  3  4  2  0  0  0  0
  3  9  1  0  0  0  0
  4  5  1  0  0  0  0
  5  6  1  0  0  0  0
  5  7  1  0  0  0  0
  7  8  1  0  0  0  0
  9 10  1  0  0  0  0
  9  7  2  0  0  0  0
 11  4  1  0  0  0  0
 12 11  1  0  0  0  0
 13 12  1  0  0  0  0
 14 13  1  0  0  0  0
 15 13  1  0  0  0  0
 15 22  1  0  0  0  0
 16 15  2  0  0  0  0
 17 16  1  0  0  0  0
 18 17  1  0  0  0  0
 19 18  1  0  0  0  0
 20 18  1  0  0  0  0
 21 18  1  0  0  0  0
 22 23  1  0  0  0  0
 24 22  2  0  0  0  0
 24 25  1  0  0  0  0
 26 24  1  0  0  0  0
 27 16  1  0  0  0  0
 27 26  2  0  0  0  0
 28 27  1  0  0  0  0
 29 31  1  0  0  0  0
 29 26  1  0  0  0  0
 29 30  1  0  0  0  0
 32 34  2  0  0  0  0
 32 29  1  0  0  0  0
 33 32  2  0  0  0  0
 35 32  1  0  0  0  0
 35 38  1  0  0  0  0
 36 35  1  0  0  0  0
 37 35  1  0  0  0  0
 40 44  1  0  0  0  0
 40 39  2  0  0  0  0
 41 40  1  0  0  0  0
 42 41  1  0  0  0  0
 43 41  1  0  0  0  0
 44 53  1  0  0  0  0
 45 47  1  0  0  0  0
 45 44  2  0  0  0  0
 46 45  1  0  0  0  0
 47 49  2  0  0  0  0
 48 47  1  0  0  0  0
 49 50  1  0  0  0  0
 49 51  1  0  0  0  0
 51 52  1  0  0  0  0
 53 51  2  0  0  0  0
 53 54  1  0  0  0  0
 54 55  1  0  0  0  0
M  END
>  <Pose>
1

>  <Score>
-9.57

$$$$

 OpenBabel03112211293D

 55 58  0  0  1  0  0  0  0  0999 V2000
   24.3070    5.3110   30.2580 C   0  0  2  0  0  0  0  0  0  0  0  0
   23.4030    6.2950   30.4090 N   0  0  0  0  0  0  0  0  0  0  0  0
   24.1140    4.1740   31.0160 C   0  0  0  0  0  0  0  0  0  0  0  0
   23.0270    4.1390   31.8530 C   0  0  0  0  0  0  0  0  0  0  0  0
   23.0340    2.9370   32.5000 N   0  0  0  0  0  0  0  0  0  0  0  0
   22.3480    2.6410   33.1800 H   0  0  0  0  0  0  0  0  0  0  0  0
   24.1050    2.1940   32.0910 C   0  0  0  0  0  0  0  0  0  0  0  0
   24.3600    1.2020   32.4330 H   0  0  0  0  0  0  0  0  0  0  0  0
   24.8000    2.9400   31.1640 C   0  0  0  0  0  0  0  0  0  0  0  0
   25.6990    2.6420   30.6470 H   0  0  0  0  0  0  0  0  0  0  0  0
   22.1240    5.0990   32.0130 N   0  0  0  0  0  0  0  0  0  0  0  0
   22.3700    6.1670   31.2500 C   0  0  0  0  0  0  0  0  0  0  0  0
   21.4430    7.2200   31.3840 N   0  0  0  0  0  0  0  0  0  0  0  0
   20.4710    6.9760   31.5120 H   0  0  0  0  0  0  0  0  0  0  0  0
   21.7770    8.5890   31.3520 C   0  0  0  0  0  0  0  0  0  0  0  0
   21.1750    9.4500   32.2450 C   0  0  0  0  0  0  0  0  0  0  0  0
   20.2590    8.8730   33.1130 O   0  0  0  0  0  0  0  0  0  0  0  0
   19.3690    9.8660   33.6070 C   0  0  0  0  0  0  0  0  0  0  0  0
   18.6530    9.4060   34.2880 H   0  0  0  0  0  0  0  0  0  0  0  0
   18.8360   10.3230   32.7730 H   0  0  0  0  0  0  0  0  0  0  0  0
   19.9370   10.6300   34.1380 H   0  0  0  0  0  0  0  0  0  0  0  0
   22.7010    9.0920   30.4610 C   0  0  0  0  0  0  0  0  0  0  0  0
   23.1890    8.4290   29.7620 H   0  0  0  0  0  0  0  0  0  0  0  0
   23.0040   10.4350   30.4580 C   0  0  0  0  0  0  0  0  0  0  0  0
   23.7200   10.8180   29.7460 H   0  0  0  0  0  0  0  0  0  0  0  0
   22.4050   11.2960   31.3530 C   0  0  0  0  0  0  0  0  0  0  0  0
   21.4820   10.8000   32.2510 C   0  0  0  0  0  0  0  0  0  0  0  0
   21.0000   11.4620   32.9560 H   0  0  0  0  0  0  0  0  0  0  0  0
   22.7520   12.7490   31.3220 C   0  0  0  0  0  0  0  0  0  0  0  0
   23.3920   12.9550   30.4640 H   0  0  0  0  0  0  0  0  0  0  0  0
   23.2740   13.0220   32.2390 H   0  0  0  0  0  0  0  0  0  0  0  0
   21.2480   13.6890   31.1860 S   0  0  0  0  0  0  0  0  0  0  0  0
   20.5560   13.6610   32.4610 O   0  0  0  0  0  0  0  0  0  0  0  0
   20.5770   13.2560   29.9740 O   0  0  0  0  0  0  0  0  0  0  0  0
   21.8530   15.3290   30.9260 C   0  0  0  0  0  0  0  0  0  0  0  0
   22.3610   15.6760   31.8250 H   0  0  0  0  0  0  0  0  0  0  0  0
   21.0180   15.9930   30.7010 H   0  0  0  0  0  0  0  0  0  0  0  0
   22.5520   15.3300   30.0900 H   0  0  0  0  0  0  0  0  0  0  0  0
   25.5660    4.5570   26.8600 O   0  0  0  0  0  0  0  0  0  0  0  0
   26.6470    5.1280   26.9410 C   0  0  0  0  0  0  0  0  0  0  0  0
   27.8000    4.7210   26.3240 N   0  0  0  0  0  0  0  0  0  0  0  0
   27.8000    3.8910   25.7500 H   0  0  0  0  0  0  0  0  0  0  0  0
   28.6520    5.2520   26.4440 H   0  0  0  0  0  0  0  0  0  0  0  0
   26.7880    6.3550   27.7490 C   0  0  0  0  0  0  0  0  0  0  0  0
   27.5300    7.4140   27.2720 C   0  0  0  0  0  0  0  0  0  0  0  0
   28.1320    7.3490   26.0750 F   0  0  0  0  0  0  0  0  0  0  0  0
   27.6610    8.5570   28.0270 C   0  0  0  0  0  0  0  0  0  0  0  0
   28.2430    9.3880   27.6560 H   0  0  0  0  0  0  0  0  0  0  0  0
   27.0470    8.6350   29.2560 C   0  0  0  0  0  0  0  0  0  0  0  0
   27.1480    9.5300   29.8520 H   0  0  0  0  0  0  0  0  0  0  0  0
   26.3040    7.5750   29.7280 C   0  0  0  0  0  0  0  0  0  0  0  0
   25.8250    7.6470   30.6930 H   0  0  0  0  0  0  0  0  0  0  0  0
   26.1670    6.4250   28.9820 C   0  0  0  0  0  0  0  0  0  0  0  0
   25.4250    5.3210   29.4170 N   0  0  0  0  0  0  0  0  0  0  0  0
   25.7340    4.4200   29.0820 H   0  0  0  0  0  0  0  0  0  0  0  0
  1 54  1  1  0  0  0
  1  2  1  0  0  0  0
  1  3  1  0  0  0  0
  2 12  2  0  0  0  0
  3  9  1  0  0  0  0
  3  4  2  0  0  0  0
  4 11  1  0  0  0  0
  4  5  1  0  0  0  0
  5  6  1  0  0  0  0
  7  8  1  0  0  0  0
  7  5  1  0  0  0  0
  9  7  2  0  0  0  0
 10  9  1  0  0  0  0
 12 13  1  0  0  0  0
 12 11  1  0  0  0  0
 13 14  1  0  0  0  0
 15 13  1  0  0  0  0
 15 16  1  0  0  0  0
 16 27  2  0  0  0  0
 16 17  1  0  0  0  0
 17 18  1  0  0  0  0
 18 21  1  0  0  0  0
 18 19  1  0  0  0  0
 20 18  1  0  0  0  0
 22 15  2  0  0  0  0
 23 22  1  0  0  0  0
 24 22  1  0  0  0  0
 24 26  2  0  0  0  0
 25 24  1  0  0  0  0
 26 27  1  0  0  0  0
 27 28  1  0  0  0  0
 29 26  1  0  0  0  0
 29 31  1  0  0  0  0
 30 29  1  0  0  0  0
 32 29  1  0  0  0  0
 32 33  2  0  0  0  0
 34 32  2  0  0  0  0
 35 32  1  0  0  0  0
 35 36  1  0  0  0  0
 37 35  1  0  0  0  0
 38 35  1  0  0  0  0
 39 40  2  0  0  0  0
 40 44  1  0  0  0  0
 41 43  1  0  0  0  0
 41 40  1  0  0  0  0
 42 41  1  0  0  0  0
 44 53  1  0  0  0  0
 45 44  2  0  0  0  0
 45 47  1  0  0  0  0
 46 45  1  0  0  0  0
 47 49  2  0  0  0  0
 48 47  1  0  0  0  0
 49 51  1  0  0  0  0
 49 50  1  0  0  0  0
 51 52  1  0  0  0  0
 53 54  1  0  0  0  0
 53 51  2  0  0  0  0
 55 54  1  0  0  0  0
M  END
>  <Pose>
1

>  <Score>
-8.62

$$$$

 OpenBabel03112211293D

 55 58  0  0  1  0  0  0  0  0999 V2000
   24.6470    6.8230   30.7880 C   0  0  2  0  0  0  0  0  0  0  0  0
   23.3970    7.1380   31.1710 N   0  0  0  0  0  0  0  0  0  0  0  0
   24.9280    5.4800   30.6430 C   0  0  0  0  0  0  0  0  0  0  0  0
   23.9220    4.5830   30.8970 C   0  0  0  0  0  0  0  0  0  0  0  0
   24.4170    3.3270   30.6960 N   0  0  0  0  0  0  0  0  0  0  0  0
   23.8930    2.4720   30.8140 H   0  0  0  0  0  0  0  0  0  0  0  0
   25.7250    3.3990   30.3110 C   0  0  0  0  0  0  0  0  0  0  0  0
   26.3700    2.5630   30.0820 H   0  0  0  0  0  0  0  0  0  0  0  0
   26.0750    4.7310   30.2690 C   0  0  0  0  0  0  0  0  0  0  0  0
   27.0410    5.1320   30.0020 H   0  0  0  0  0  0  0  0  0  0  0  0
   22.6830    4.8760   31.2740 N   0  0  0  0  0  0  0  0  0  0  0  0
   22.4790    6.1900   31.3940 C   0  0  0  0  0  0  0  0  0  0  0  0
   21.1790    6.5560   31.7960 N   0  0  0  0  0  0  0  0  0  0  0  0
   20.4750    5.8320   31.8260 H   0  0  0  0  0  0  0  0  0  0  0  0
   20.7920    7.8620   32.1590 C   0  0  0  0  0  0  0  0  0  0  0  0
   19.5370    8.0700   32.6890 C   0  0  0  0  0  0  0  0  0  0  0  0
   18.7400    6.9400   32.8110 O   0  0  0  0  0  0  0  0  0  0  0  0
   17.4150    7.3180   33.1590 C   0  0  0  0  0  0  0  0  0  0  0  0
   16.7950    6.4260   33.2530 H   0  0  0  0  0  0  0  0  0  0  0  0
   17.0060    7.9650   32.3830 H   0  0  0  0  0  0  0  0  0  0  0  0
   17.4280    7.8530   34.1090 H   0  0  0  0  0  0  0  0  0  0  0  0
   21.6400    8.9390   32.0130 C   0  0  0  0  0  0  0  0  0  0  0  0
   22.6310    8.7920   31.6090 H   0  0  0  0  0  0  0  0  0  0  0  0
   21.2300   10.2010   32.3790 C   0  0  0  0  0  0  0  0  0  0  0  0
   21.8990   11.0390   32.2470 H   0  0  0  0  0  0  0  0  0  0  0  0
   19.9760   10.4090   32.9130 C   0  0  0  0  0  0  0  0  0  0  0  0
   19.1220    9.3360   33.0660 C   0  0  0  0  0  0  0  0  0  0  0  0
   18.1350    9.4830   33.4780 H   0  0  0  0  0  0  0  0  0  0  0  0
   19.5580   11.7920   33.2960 C   0  0  0  0  0  0  0  0  0  0  0  0
   19.6920   11.9320   34.3690 H   0  0  0  0  0  0  0  0  0  0  0  0
   18.5110   11.9440   33.0370 H   0  0  0  0  0  0  0  0  0  0  0  0
   20.5700   12.9560   32.4090 S   0  0  0  0  0  0  0  0  0  0  0  0
   19.7270   14.0200   31.8960 O   0  0  0  0  0  0  0  0  0  0  0  0
   21.4220   12.1940   31.5160 O   0  0  0  0  0  0  0  0  0  0  0  0
   21.5810   13.6290   33.6940 C   0  0  0  0  0  0  0  0  0  0  0  0
   20.9600   14.2070   34.3790 H   0  0  0  0  0  0  0  0  0  0  0  0
   22.3400   14.2770   33.2570 H   0  0  0  0  0  0  0  0  0  0  0  0
   22.0640   12.8180   34.2380 H   0  0  0  0  0  0  0  0  0  0  0  0
   27.4000    8.4780   27.5080 O   0  0  0  0  0  0  0  0  0  0  0  0
   27.4920    8.7530   28.6980 C   0  0  0  0  0  0  0  0  0  0  0  0
   28.4810    8.3050   29.5340 N   0  0  0  0  0  0  0  0  0  0  0  0
   29.2070    7.6990   29.1790 H   0  0  0  0  0  0  0  0  0  0  0  0
   28.4830    8.5810   30.5060 H   0  0  0  0  0  0  0  0  0  0  0  0
   26.4970    9.6290   29.3450 C   0  0  0  0  0  0  0  0  0  0  0  0
   26.4590   10.9730   29.0400 C   0  0  0  0  0  0  0  0  0  0  0  0
   27.3180   11.5040   28.1570 F   0  0  0  0  0  0  0  0  0  0  0  0
   25.5310   11.7890   29.6450 C   0  0  0  0  0  0  0  0  0  0  0  0
   25.4990   12.8430   29.4100 H   0  0  0  0  0  0  0  0  0  0  0  0
   24.6440   11.2560   30.5520 C   0  0  0  0  0  0  0  0  0  0  0  0
   23.9150   11.8930   31.0300 H   0  0  0  0  0  0  0  0  0  0  0  0
   24.6850    9.9120   30.8520 C   0  0  0  0  0  0  0  0  0  0  0  0
   23.9830    9.5030   31.5640 H   0  0  0  0  0  0  0  0  0  0  0  0
   25.6100    9.0850   30.2540 C   0  0  0  0  0  0  0  0  0  0  0  0
   25.6930    7.7150   30.5250 N   0  0  0  0  0  0  0  0  0  0  0  0
   26.6220    7.3200   30.5330 H   0  0  0  0  0  0  0  0  0  0  0  0
  1 54  1  1  0  0  0
  1  2  1  0  0  0  0
  2 12  2  0  0  0  0
  3  1  1  0  0  0  0
  3  4  2  0  0  0  0
  4 11  1  0  0  0  0
  5  6  1  0  0  0  0
  5  4  1  0  0  0  0
  7  5  1  0  0  0  0
  8  7  1  0  0  0  0
  9  7  2  0  0  0  0
  9  3  1  0  0  0  0
 10  9  1  0  0  0  0
 11 12  1  0  0  0  0
 12 13  1  0  0  0  0
 13 14  1  0  0  0  0
 13 15  1  0  0  0  0
 15 16  1  0  0  0  0
 16 17  1  0  0  0  0
 16 27  2  0  0  0  0
 17 18  1  0  0  0  0
 18 19  1  0  0  0  0
 18 21  1  0  0  0  0
 20 18  1  0  0  0  0
 22 15  2  0  0  0  0
 22 24  1  0  0  0  0
 23 22  1  0  0  0  0
 24 26  2  0  0  0  0
 25 24  1  0  0  0  0
 26 27  1  0  0  0  0
 26 29  1  0  0  0  0
 27 28  1  0  0  0  0
 29 30  1  0  0  0  0
 31 29  1  0  0  0  0
 32 29  1  0  0  0  0
 32 35  1  0  0  0  0
 33 32  2  0  0  0  0
 34 32  2  0  0  0  0
 35 38  1  0  0  0  0
 35 36  1  0  0  0  0
 37 35  1  0  0  0  0
 39 40  2  0  0  0  0
 40 44  1  0  0  0  0
 40 41  1  0  0  0  0
 41 43  1  0  0  0  0
 42 41  1  0  0  0  0
 44 53  1  0  0  0  0
 45 44  2  0  0  0  0
 45 47  1  0  0  0  0
 46 45  1  0  0  0  0
 47 49  2  0  0  0  0
 48 47  1  0  0  0  0
 49 51  1  0  0  0  0
 49 50  1  0  0  0  0
 51 52  1  0  0  0  0
 53 54  1  0  0  0  0
 53 51  2  0  0  0  0
 54 55  1  0  0  0  0
M  END
>  <Pose>
1

>  <Score>
-7.31

$$$$
