
 OpenBabel03112215093D

 55 58  0  0  1  0  0  0  0  0999 V2000
   20.6150    8.4920   32.3100 C   0  0  2  0  0  0  0  0  0  0  0  0
   21.2330    7.3470   31.9690 N   0  0  0  0  0  0  0  0  0  0  0  0
   19.3650    8.3720   32.8810 C   0  0  0  0  0  0  0  0  0  0  0  0
   18.8570    7.1100   33.0530 C   0  0  0  0  0  0  0  0  0  0  0  0
   17.6230    7.2280   33.6240 N   0  0  0  0  0  0  0  0  0  0  0  0
   17.0180    6.4550   33.8620 H   0  0  0  0  0  0  0  0  0  0  0  0
   17.3280    8.5460   33.8270 C   0  0  0  0  0  0  0  0  0  0  0  0
   16.4210    8.9360   34.2650 H   0  0  0  0  0  0  0  0  0  0  0  0
   18.3970    9.2870   33.3720 C   0  0  0  0  0  0  0  0  0  0  0  0
   18.4820   10.3630   33.3860 H   0  0  0  0  0  0  0  0  0  0  0  0
   19.4530    5.9700   32.7250 N   0  0  0  0  0  0  0  0  0  0  0  0
   20.6570    6.1570   32.1810 C   0  0  0  0  0  0  0  0  0  0  0  0
   21.3330    4.9780   31.8090 N   0  0  0  0  0  0  0  0  0  0  0  0
   20.8700    4.0970   31.9820 H   0  0  0  0  0  0  0  0  0  0  0  0
   22.6100    4.9410   31.2140 C   0  0  0  0  0  0  0  0  0  0  0  0
   23.4890    3.9390   31.5650 C   0  0  0  0  0  0  0  0  0  0  0  0
   23.0240    3.0350   32.5120 O   0  0  0  0  0  0  0  0  0  0  0  0
   24.1210    2.4470   33.1980 C   0  0  0  0  0  0  0  0  0  0  0  0
   23.7490    1.7400   33.9390 H   0  0  0  0  0  0  0  0  0  0  0  0
   24.6970    3.2260   33.6970 H   0  0  0  0  0  0  0  0  0  0  0  0
   24.7580    1.9250   32.4840 H   0  0  0  0  0  0  0  0  0  0  0  0
   23.0030    5.8730   30.2760 C   0  0  0  0  0  0  0  0  0  0  0  0
   22.3220    6.6580   29.9820 H   0  0  0  0  0  0  0  0  0  0  0  0
   24.2570    5.8060   29.7140 C   0  0  0  0  0  0  0  0  0  0  0  0
   24.5580    6.5500   28.9910 H   0  0  0  0  0  0  0  0  0  0  0  0
   25.1350    4.8020   30.0630 C   0  0  0  0  0  0  0  0  0  0  0  0
   24.7490    3.8630   30.9980 C   0  0  0  0  0  0  0  0  0  0  0  0
   25.4270    3.0730   31.2850 H   0  0  0  0  0  0  0  0  0  0  0  0
   26.4920    4.7600   29.4380 C   0  0  0  0  0  0  0  0  0  0  0  0
   27.1360    4.0860   30.0040 H   0  0  0  0  0  0  0  0  0  0  0  0
   26.9260    5.7600   29.4360 H   0  0  0  0  0  0  0  0  0  0  0  0
   26.3300    4.1720   27.7670 S   0  0  0  0  0  0  0  0  0  0  0  0
   25.4410    5.0580   27.0390 O   0  0  0  0  0  0  0  0  0  0  0  0
   26.0590    2.7480   27.8350 O   0  0  0  0  0  0  0  0  0  0  0  0
   27.9650    4.3930   27.1320 C   0  0  0  0  0  0  0  0  0  0  0  0
   28.1910    5.4580   27.0720 H   0  0  0  0  0  0  0  0  0  0  0  0
   28.0310    3.9510   26.1380 H   0  0  0  0  0  0  0  0  0  0  0  0
   28.6810    3.9070   27.7950 H   0  0  0  0  0  0  0  0  0  0  0  0
   20.7330   12.6550   32.0590 O   0  0  0  0  0  0  0  0  0  0  0  0
   21.4110   12.3320   31.0900 C   0  0  0  0  0  0  0  0  0  0  0  0
   21.1790   12.7320   29.8000 N   0  0  0  0  0  0  0  0  0  0  0  0
   20.3990   13.3400   29.5920 H   0  0  0  0  0  0  0  0  0  0  0  0
   21.7880   12.4200   29.0580 H   0  0  0  0  0  0  0  0  0  0  0  0
   22.5800   11.4490   31.2540 C   0  0  0  0  0  0  0  0  0  0  0  0
   23.8330   11.8860   30.8830 C   0  0  0  0  0  0  0  0  0  0  0  0
   24.0100   13.1140   30.3710 F   0  0  0  0  0  0  0  0  0  0  0  0
   24.9230   11.0610   31.0340 C   0  0  0  0  0  0  0  0  0  0  0  0
   25.9070   11.4010   30.7430 H   0  0  0  0  0  0  0  0  0  0  0  0
   24.7540    9.8000   31.5590 C   0  0  0  0  0  0  0  0  0  0  0  0
   25.6070    9.1480   31.6800 H   0  0  0  0  0  0  0  0  0  0  0  0
   23.5000    9.3670   31.9300 C   0  0  0  0  0  0  0  0  0  0  0  0
   23.3780    8.3760   32.3430 H   0  0  0  0  0  0  0  0  0  0  0  0
   22.4010   10.1840   31.7820 C   0  0  0  0  0  0  0  0  0  0  0  0
   21.1070    9.7910   32.1430 N   0  0  0  0  0  0  0  0  0  0  0  0
   20.4460   10.5380   32.3020 H   0  0  0  0  0  0  0  0  0  0  0  0
  1 54  1  6  0  0  0
  1  3  1  0  0  0  0
  2 12  2  0  0  0  0
  2  1  1  0  0  0  0
  3  4  2  0  0  0  0
  3  9  1  0  0  0  0
  4  5  1  0  0  0  0
  5  7  1  0  0  0  0
  5  6  1  0  0  0  0
  7  8  1  0  0  0  0
  9 10  1  0  0  0  0
  9  7  2  0  0  0  0
 11  4  1  0  0  0  0
 12 11  1  0  0  0  0
 13 14  1  0  0  0  0
 13 12  1  0  0  0  0
 15 16  1  0  0  0  0
 15 13  1  0  0  0  0
 16 17  1  0  0  0  0
 17 18  1  0  0  0  0
 18 20  1  0  0  0  0
 18 19  1  0  0  0  0
 21 18  1  0  0  0  0
 22 15  2  0  0  0  0
 23 22  1  0  0  0  0
 24 26  2  0  0  0  0
 24 22  1  0  0  0  0
 25 24  1  0  0  0  0
 26 27  1  0  0  0  0
 27 28  1  0  0  0  0
 27 16  2  0  0  0  0
 29 30  1  0  0  0  0
 29 26  1  0  0  0  0
 31 29  1  0  0  0  0
 32 34  2  0  0  0  0
 32 29  1  0  0  0  0
 33 32  2  0  0  0  0
 35 32  1  0  0  0  0
 35 38  1  0  0  0  0
 36 35  1  0  0  0  0
 37 35  1  0  0  0  0
 40 44  1  0  0  0  0
 40 39  2  0  0  0  0
 41 40  1  0  0  0  0
 42 41  1  0  0  0  0
 43 41  1  0  0  0  0
 44 53  1  0  0  0  0
 45 47  1  0  0  0  0
 45 44  2  0  0  0  0
 46 45  1  0  0  0  0
 47 49  2  0  0  0  0
 48 47  1  0  0  0  0
 49 50  1  0  0  0  0
 49 51  1  0  0  0  0
 51 52  1  0  0  0  0
 53 51  2  0  0  0  0
 53 54  1  0  0  0  0
 54 55  1  0  0  0  0
M  END
>  <Pose>
5

>  <Score>
-11.28

$$$$

 OpenBabel03112215093D

 55 56  0  0  0  0  0  0  0  0999 V2000
   20.7720    8.4710   32.4860 C   0  0  0  0  0  0  0  0  0  0  0  0
   21.3250    7.2990   32.1250 N   0  0  0  0  0  0  0  0  0  0  0  0
   19.5240    8.4100   33.0700 C   0  0  0  0  0  0  0  0  0  0  0  0
   18.9530    7.1740   33.2350 C   0  0  0  0  0  0  0  0  0  0  0  0
   17.7330    7.3500   33.8230 N   0  0  0  0  0  0  0  0  0  0  0  0
   17.0920    6.6060   34.0590 H   0  0  0  0  0  0  0  0  0  0  0  0
   17.5100    8.6790   34.0420 C   0  0  0  0  0  0  0  0  0  0  0  0
   16.6300    9.1110   34.4950 H   0  0  0  0  0  0  0  0  0  0  0  0
   18.6100    9.3680   33.5820 C   0  0  0  0  0  0  0  0  0  0  0  0
   18.7520   10.4380   33.6070 H   0  0  0  0  0  0  0  0  0  0  0  0
   19.4850    6.0080   32.8880 N   0  0  0  0  0  0  0  0  0  0  0  0
   20.6910    6.1390   32.3310 C   0  0  0  0  0  0  0  0  0  0  0  0
   21.3000    4.9300   31.9390 N   0  0  0  0  0  0  0  0  0  0  0  0
   20.7920    4.0730   32.1050 H   0  0  0  0  0  0  0  0  0  0  0  0
   22.5680    4.8330   31.3330 C   0  0  0  0  0  0  0  0  0  0  0  0
   23.4710    3.9030   31.8030 C   0  0  0  0  0  0  0  0  0  0  0  0
   23.0370    3.1290   32.8710 O   0  0  0  0  0  0  0  0  0  0  0  0
   23.9330    2.0470   33.0800 C   0  0  0  0  0  0  0  0  0  0  0  0
   23.5870    1.4450   33.9200 H   0  0  0  0  0  0  0  0  0  0  0  0
   24.9280    2.4360   33.2980 H   0  0  0  0  0  0  0  0  0  0  0  0
   23.9740    1.4300   32.1830 H   0  0  0  0  0  0  0  0  0  0  0  0
   22.9300    5.6340   30.2710 C   0  0  0  0  0  0  0  0  0  0  0  0
   22.2320    6.3610   29.8830 H   0  0  0  0  0  0  0  0  0  0  0  0
   24.1780    5.5120   29.7010 C   0  0  0  0  0  0  0  0  0  0  0  0
   24.4540    6.1550   28.8780 H   0  0  0  0  0  0  0  0  0  0  0  0
   25.0790    4.5790   30.1690 C   0  0  0  0  0  0  0  0  0  0  0  0
   24.7240    3.7700   31.2300 C   0  0  0  0  0  0  0  0  0  0  0  0
   25.4200    3.0380   31.6110 H   0  0  0  0  0  0  0  0  0  0  0  0
   26.4280    4.4740   29.5330 C   0  0  0  0  0  0  0  0  0  0  0  0
   27.0610    3.8120   30.1230 H   0  0  0  0  0  0  0  0  0  0  0  0
   26.8860    5.4620   29.4790 H   0  0  0  0  0  0  0  0  0  0  0  0
   26.2320    3.8140   27.8930 S   0  0  0  0  0  0  0  0  0  0  0  0
   25.4670    4.7530   27.0940 O   0  0  0  0  0  0  0  0  0  0  0  0
   25.7950    2.4370   28.0320 O   0  0  0  0  0  0  0  0  0  0  0  0
   27.8940    3.8080   27.2910 C   0  0  0  0  0  0  0  0  0  0  0  0
   28.2440    4.8340   27.1780 H   0  0  0  0  0  0  0  0  0  0  0  0
   27.9280    3.3040   26.3250 H   0  0  0  0  0  0  0  0  0  0  0  0
   28.5340    3.2810   27.9980 H   0  0  0  0  0  0  0  0  0  0  0  0
   23.4460   11.7160   31.2650 O   0  0  0  0  0  0  0  0  0  0  0  0
   22.3100   11.8550   30.8290 C   0  0  0  0  0  0  0  0  0  0  0  0
   21.9690   11.8420   29.5020 N   0  0  0  0  0  0  0  0  0  0  0  0
   22.6830   11.7090   28.7990 H   0  0  0  0  0  0  0  0  0  0  0  0
   21.0060   11.9650   29.2260 H   0  0  0  0  0  0  0  0  0  0  0  0
   21.1730   12.0570   31.7470 C   0  0  0  0  0  0  0  0  0  0  0  0
   20.5920   13.3020   31.8640 C   0  0  0  0  0  0  0  0  0  0  0  0
   21.0460   14.3430   31.1500 F   0  0  0  0  0  0  0  0  0  0  0  0
   19.5330   13.4890   32.7210 C   0  0  0  0  0  0  0  0  0  0  0  0
   19.0760   14.4630   32.8160 H   0  0  0  0  0  0  0  0  0  0  0  0
   19.0580   12.4280   33.4580 C   0  0  0  0  0  0  0  0  0  0  0  0
   18.2270   12.5700   34.1330 H   0  0  0  0  0  0  0  0  0  0  0  0
   19.6400   11.1850   33.3370 C   0  0  0  0  0  0  0  0  0  0  0  0
   19.2600   10.3580   33.9190 H   0  0  0  0  0  0  0  0  0  0  0  0
   20.7030   10.9860   32.4830 C   0  0  0  0  0  0  0  0  0  0  0  0
   21.3290    9.7440   32.3250 N   0  0  0  0  0  0  0  0  0  0  0  0
   22.3040    9.7710   32.0640 H   0  0  0  0  0  0  0  0  0  0  0  0
  1  3  2  0  0  0  0
  2 12  2  0  0  0  0
  2  1  1  0  0  0  0
  3  4  1  0  0  0  0
  4  5  1  0  0  0  0
  5  7  1  0  0  0  0
  5  6  1  0  0  0  0
  7  8  1  0  0  0  0
  9 10  1  0  0  0  0
 11  4  2  0  0  0  0
 12 11  1  0  0  0  0
 13 14  1  0  0  0  0
 13 12  1  0  0  0  0
 15 16  1  0  0  0  0
 15 13  1  0  0  0  0
 16 17  1  0  0  0  0
 17 18  1  0  0  0  0
 18 20  1  0  0  0  0
 18 19  1  0  0  0  0
 21 18  1  0  0  0  0
 22 15  2  0  0  0  0
 23 22  1  0  0  0  0
 24 26  2  0  0  0  0
 24 22  1  0  0  0  0
 25 24  1  0  0  0  0
 26 27  1  0  0  0  0
 27 28  1  0  0  0  0
 27 16  2  0  0  0  0
 29 30  1  0  0  0  0
 29 26  1  0  0  0  0
 31 29  1  0  0  0  0
 32 34  2  0  0  0  0
 32 29  1  0  0  0  0
 33 32  2  0  0  0  0
 35 32  1  0  0  0  0
 35 38  1  0  0  0  0
 36 35  1  0  0  0  0
 37 35  1  0  0  0  0
 40 39  2  0  0  0  0
 40 44  1  0  0  0  0
 41 40  1  0  0  0  0
 42 41  1  0  0  0  0
 43 41  1  0  0  0  0
 44 45  2  0  0  0  0
 44 53  1  0  0  0  0
 45 47  1  0  0  0  0
 46 45  1  0  0  0  0
 47 48  1  0  0  0  0
 47 49  2  0  0  0  0
 49 50  1  0  0  0  0
 51 49  1  0  0  0  0
 51 52  1  0  0  0  0
 53 51  2  0  0  0  0
 54 53  1  0  0  0  0
 54  1  1  0  0  0  0
 55 54  1  0  0  0  0
M  END
>  <Pose>
1

>  <Score>
-9.71

$$$$

 OpenBabel03112215093D

 55 58  0  0  1  0  0  0  0  0999 V2000
   20.8070    8.3480   32.2790 C   0  0  2  0  0  0  0  0  0  0  0  0
   21.3220    7.1850   31.8450 N   0  0  0  0  0  0  0  0  0  0  0  0
   19.5260    8.3050   32.7900 C   0  0  0  0  0  0  0  0  0  0  0  0
   18.8870    7.0920   32.8140 C   0  0  0  0  0  0  0  0  0  0  0  0
   17.6460    7.2810   33.3500 N   0  0  0  0  0  0  0  0  0  0  0  0
   16.9560    6.5560   33.4860 H   0  0  0  0  0  0  0  0  0  0  0  0
   17.4760    8.5970   33.6760 C   0  0  0  0  0  0  0  0  0  0  0  0
   16.5940    9.0350   34.1190 H   0  0  0  0  0  0  0  0  0  0  0  0
   18.6330    9.2630   33.3370 C   0  0  0  0  0  0  0  0  0  0  0  0
   18.8250   10.3180   33.4650 H   0  0  0  0  0  0  0  0  0  0  0  0
   19.3790    5.9330   32.3920 N   0  0  0  0  0  0  0  0  0  0  0  0
   20.6200    6.0460   31.9130 C   0  0  0  0  0  0  0  0  0  0  0  0
   21.1900    4.8450   31.4470 N   0  0  0  0  0  0  0  0  0  0  0  0
   20.5840    4.1910   30.9710 H   0  0  0  0  0  0  0  0  0  0  0  0
   22.5460    4.4910   31.5990 C   0  0  0  0  0  0  0  0  0  0  0  0
   23.4720    4.9730   30.6990 C   0  0  0  0  0  0  0  0  0  0  0  0
   22.9670    5.7780   29.6870 O   0  0  0  0  0  0  0  0  0  0  0  0
   23.8280    6.8890   29.4780 C   0  0  0  0  0  0  0  0  0  0  0  0
   23.4250    7.5170   28.6840 H   0  0  0  0  0  0  0  0  0  0  0  0
   24.8180    6.5330   29.1930 H   0  0  0  0  0  0  0  0  0  0  0  0
   23.9020    7.4700   30.3980 H   0  0  0  0  0  0  0  0  0  0  0  0
   22.9770    3.6870   32.6320 C   0  0  0  0  0  0  0  0  0  0  0  0
   22.2660    3.3100   33.3520 H   0  0  0  0  0  0  0  0  0  0  0  0
   24.3100    3.3620   32.7510 C   0  0  0  0  0  0  0  0  0  0  0  0
   24.6330    2.7200   33.5570 H   0  0  0  0  0  0  0  0  0  0  0  0
   25.2370    3.8470   31.8530 C   0  0  0  0  0  0  0  0  0  0  0  0
   24.8150    4.6550   30.8170 C   0  0  0  0  0  0  0  0  0  0  0  0
   25.5280    5.0390   30.1030 H   0  0  0  0  0  0  0  0  0  0  0  0
   26.6760    3.4720   32.0060 C   0  0  0  0  0  0  0  0  0  0  0  0
   26.9180    3.3680   33.0630 H   0  0  0  0  0  0  0  0  0  0  0  0
   27.3050    4.2440   31.5630 H   0  0  0  0  0  0  0  0  0  0  0  0
   26.9510    1.9250   31.1720 S   0  0  0  0  0  0  0  0  0  0  0  0
   28.2780    1.4390   31.5030 O   0  0  0  0  0  0  0  0  0  0  0  0
   26.5560    2.1050   29.7870 O   0  0  0  0  0  0  0  0  0  0  0  0
   25.7690    0.8650   31.9490 C   0  0  0  0  0  0  0  0  0  0  0  0
   26.0470    0.7150   32.9930 H   0  0  0  0  0  0  0  0  0  0  0  0
   25.7510   -0.0970   31.4360 H   0  0  0  0  0  0  0  0  0  0  0  0
   24.7810    1.3230   31.8980 H   0  0  0  0  0  0  0  0  0  0  0  0
   20.8950   12.2010   31.9730 O   0  0  0  0  0  0  0  0  0  0  0  0
   21.6240   12.0540   30.9990 C   0  0  0  0  0  0  0  0  0  0  0  0
   21.4540   12.6720   29.7880 N   0  0  0  0  0  0  0  0  0  0  0  0
   20.6790   13.3050   29.6490 H   0  0  0  0  0  0  0  0  0  0  0  0
   22.1030   12.4950   29.0350 H   0  0  0  0  0  0  0  0  0  0  0  0
   22.7940   11.1570   31.0660 C   0  0  0  0  0  0  0  0  0  0  0  0
   23.9900   11.5400   30.4990 C   0  0  0  0  0  0  0  0  0  0  0  0
   24.1110   12.7240   29.8810 F   0  0  0  0  0  0  0  0  0  0  0  0
   25.0800   10.7020   30.5610 C   0  0  0  0  0  0  0  0  0  0  0  0
   26.0190   10.9990   30.1170 H   0  0  0  0  0  0  0  0  0  0  0  0
   24.9670    9.4850   31.1930 C   0  0  0  0  0  0  0  0  0  0  0  0
   25.8200    8.8240   31.2440 H   0  0  0  0  0  0  0  0  0  0  0  0
   23.7700    9.1070   31.7610 C   0  0  0  0  0  0  0  0  0  0  0  0
   23.6920    8.1510   32.2560 H   0  0  0  0  0  0  0  0  0  0  0  0
   22.6710    9.9370   31.7030 C   0  0  0  0  0  0  0  0  0  0  0  0
   21.4340    9.5990   32.2630 N   0  0  0  0  0  0  0  0  0  0  0  0
   20.9310   10.3520   32.7110 H   0  0  0  0  0  0  0  0  0  0  0  0
  1 54  1  6  0  0  0
  1  3  1  0  0  0  0
  2 12  2  0  0  0  0
  2  1  1  0  0  0  0
  3  4  2  0  0  0  0
  3  9  1  0  0  0  0
  4  5  1  0  0  0  0
  5  6  1  0  0  0  0
  5  7  1  0  0  0  0
  7  8  1  0  0  0  0
  9 10  1  0  0  0  0
  9  7  2  0  0  0  0
 11  4  1  0  0  0  0
 12 11  1  0  0  0  0
 13 15  1  0  0  0  0
 13 12  1  0  0  0  0
 14 13  1  0  0  0  0
 15 22  1  0  0  0  0
 16 27  1  0  0  0  0
 16 15  2  0  0  0  0
 17 16  1  0  0  0  0
 18 17  1  0  0  0  0
 18 21  1  0  0  0  0
 19 18  1  0  0  0  0
 20 18  1  0  0  0  0
 22 24  2  0  0  0  0
 22 23  1  0  0  0  0
 24 25  1  0  0  0  0
 26 29  1  0  0  0  0
 26 24  1  0  0  0  0
 27 26  2  0  0  0  0
 28 27  1  0  0  0  0
 29 30  1  0  0  0  0
 31 29  1  0  0  0  0
 32 33  2  0  0  0  0
 32 35  1  0  0  0  0
 32 29  1  0  0  0  0
 34 32  2  0  0  0  0
 35 36  1  0  0  0  0
 37 35  1  0  0  0  0
 38 35  1  0  0  0  0
 40 44  1  0  0  0  0
 40 39  2  0  0  0  0
 41 40  1  0  0  0  0
 42 41  1  0  0  0  0
 43 41  1  0  0  0  0
 44 53  1  0  0  0  0
 45 47  1  0  0  0  0
 45 44  2  0  0  0  0
 46 45  1  0  0  0  0
 47 49  2  0  0  0  0
 48 47  1  0  0  0  0
 49 50  1  0  0  0  0
 49 51  1  0  0  0  0
 51 52  1  0  0  0  0
 53 51  2  0  0  0  0
 53 54  1  0  0  0  0
 54 55  1  0  0  0  0
M  END
>  <Pose>
1

>  <Score>
-9.48

$$$$

 OpenBabel03112215093D

 55 58  0  0  1  0  0  0  0  0999 V2000
   20.7310    8.5020   32.4760 C   0  0  2  0  0  0  0  0  0  0  0  0
   21.2970    7.3220   32.1720 N   0  0  0  0  0  0  0  0  0  0  0  0
   19.4500    8.4590   32.9880 C   0  0  0  0  0  0  0  0  0  0  0  0
   18.8640    7.2300   33.1440 C   0  0  0  0  0  0  0  0  0  0  0  0
   17.6130    7.4220   33.6560 N   0  0  0  0  0  0  0  0  0  0  0  0
   16.9540    6.6870   33.8700 H   0  0  0  0  0  0  0  0  0  0  0  0
   17.3840    8.7570   33.8360 C   0  0  0  0  0  0  0  0  0  0  0  0
   16.4820    9.2020   34.2280 H   0  0  0  0  0  0  0  0  0  0  0  0
   18.5140    9.4320   33.4270 C   0  0  0  0  0  0  0  0  0  0  0  0
   18.6600   10.5020   33.4380 H   0  0  0  0  0  0  0  0  0  0  0  0
   19.4080    6.0540   32.8520 N   0  0  0  0  0  0  0  0  0  0  0  0
   20.6450    6.1680   32.3640 C   0  0  0  0  0  0  0  0  0  0  0  0
   21.2690    4.9490   32.0330 N   0  0  0  0  0  0  0  0  0  0  0  0
   20.7340    4.1000   32.1500 H   0  0  0  0  0  0  0  0  0  0  0  0
   22.5880    4.8300   31.5500 C   0  0  0  0  0  0  0  0  0  0  0  0
   22.8890    5.3020   30.2900 C   0  0  0  0  0  0  0  0  0  0  0  0
   21.8290    5.8590   29.5870 O   0  0  0  0  0  0  0  0  0  0  0  0
   22.1970    7.1380   29.0900 C   0  0  0  0  0  0  0  0  0  0  0  0
   21.3610    7.5690   28.5390 H   0  0  0  0  0  0  0  0  0  0  0  0
   23.0560    7.0370   28.4260 H   0  0  0  0  0  0  0  0  0  0  0  0
   22.4580    7.7900   29.9240 H   0  0  0  0  0  0  0  0  0  0  0  0
   23.5930    4.2670   32.3080 C   0  0  0  0  0  0  0  0  0  0  0  0
   23.3760    3.9020   33.3010 H   0  0  0  0  0  0  0  0  0  0  0  0
   24.8700    4.1690   31.8050 C   0  0  0  0  0  0  0  0  0  0  0  0
   25.6460    3.7130   32.4040 H   0  0  0  0  0  0  0  0  0  0  0  0
   25.1720    4.6440   30.5460 C   0  0  0  0  0  0  0  0  0  0  0  0
   24.1740    5.2120   29.7820 C   0  0  0  0  0  0  0  0  0  0  0  0
   24.3930    5.5850   28.7920 H   0  0  0  0  0  0  0  0  0  0  0  0
   26.5680    4.5180   30.0270 C   0  0  0  0  0  0  0  0  0  0  0  0
   27.1510    3.8790   30.6910 H   0  0  0  0  0  0  0  0  0  0  0  0
   27.0300    5.5030   29.9720 H   0  0  0  0  0  0  0  0  0  0  0  0
   26.5060    3.7940   28.4030 S   0  0  0  0  0  0  0  0  0  0  0  0
   26.0350    4.7910   27.4590 O   0  0  0  0  0  0  0  0  0  0  0  0
   25.8280    2.5170   28.5260 O   0  0  0  0  0  0  0  0  0  0  0  0
   28.2130    3.4830   28.0650 C   0  0  0  0  0  0  0  0  0  0  0  0
   28.7430    4.4300   27.9690 H   0  0  0  0  0  0  0  0  0  0  0  0
   28.3030    2.9200   27.1370 H   0  0  0  0  0  0  0  0  0  0  0  0
   28.6460    2.9060   28.8830 H   0  0  0  0  0  0  0  0  0  0  0  0
   20.8720   12.4610   32.0350 O   0  0  0  0  0  0  0  0  0  0  0  0
   21.5750   12.2180   31.0620 C   0  0  0  0  0  0  0  0  0  0  0  0
   21.3870   12.7360   29.8070 N   0  0  0  0  0  0  0  0  0  0  0  0
   20.6200   13.3700   29.6320 H   0  0  0  0  0  0  0  0  0  0  0  0
   22.0140   12.4840   29.0580 H   0  0  0  0  0  0  0  0  0  0  0  0
   22.7290   11.3080   31.1780 C   0  0  0  0  0  0  0  0  0  0  0  0
   23.9520   11.6730   30.6590 C   0  0  0  0  0  0  0  0  0  0  0  0
   24.1130   12.8540   30.0430 F   0  0  0  0  0  0  0  0  0  0  0  0
   25.0280   10.8230   30.7670 C   0  0  0  0  0  0  0  0  0  0  0  0
   25.9880   11.1060   30.3600 H   0  0  0  0  0  0  0  0  0  0  0  0
   24.8750    9.6090   31.3970 C   0  0  0  0  0  0  0  0  0  0  0  0
   25.7160    8.9370   31.4840 H   0  0  0  0  0  0  0  0  0  0  0  0
   23.6510    9.2480   31.9170 C   0  0  0  0  0  0  0  0  0  0  0  0
   23.5410    8.2940   32.4110 H   0  0  0  0  0  0  0  0  0  0  0  0
   22.5660   10.0910   31.8130 C   0  0  0  0  0  0  0  0  0  0  0  0
   21.3030    9.7700   32.3230 N   0  0  0  0  0  0  0  0  0  0  0  0
   20.7340   10.5510   32.6170 H   0  0  0  0  0  0  0  0  0  0  0  0
  1 54  1  6  0  0  0
  1  3  1  0  0  0  0
  2 12  2  0  0  0  0
  2  1  1  0  0  0  0
  3  4  2  0  0  0  0
  3  9  1  0  0  0  0
  4  5  1  0  0  0  0
  5  7  1  0  0  0  0
  5  6  1  0  0  0  0
  7  8  1  0  0  0  0
  9 10  1  0  0  0  0
  9  7  2  0  0  0  0
 11  4  1  0  0  0  0
 12 11  1  0  0  0  0
 13 14  1  0  0  0  0
 13 12  1  0  0  0  0
 15 13  1  0  0  0  0
 15 22  1  0  0  0  0
 16 15  2  0  0  0  0
 17 16  1  0  0  0  0
 18 17  1  0  0  0  0
 18 21  1  0  0  0  0
 19 18  1  0  0  0  0
 20 18  1  0  0  0  0
 22 23  1  0  0  0  0
 24 22  2  0  0  0  0
 24 25  1  0  0  0  0
 26 24  1  0  0  0  0
 27 16  1  0  0  0  0
 27 26  2  0  0  0  0
 28 27  1  0  0  0  0
 29 26  1  0  0  0  0
 29 30  1  0  0  0  0
 31 29  1  0  0  0  0
 32 34  2  0  0  0  0
 32 29  1  0  0  0  0
 33 32  2  0  0  0  0
 35 32  1  0  0  0  0
 35 38  1  0  0  0  0
 36 35  1  0  0  0  0
 37 35  1  0  0  0  0
 40 44  1  0  0  0  0
 40 39  2  0  0  0  0
 41 40  1  0  0  0  0
 42 41  1  0  0  0  0
 43 41  1  0  0  0  0
 44 53  1  0  0  0  0
 45 47  1  0  0  0  0
 45 44  2  0  0  0  0
 46 45  1  0  0  0  0
 47 49  2  0  0  0  0
 48 47  1  0  0  0  0
 49 50  1  0  0  0  0
 49 51  1  0  0  0  0
 51 52  1  0  0  0  0
 53 51  2  0  0  0  0
 53 54  1  0  0  0  0
 54 55  1  0  0  0  0
M  END
>  <Pose>
1

>  <Score>
-9.37

$$$$

 OpenBabel03112215093D

 55 58  0  0  1  0  0  0  0  0999 V2000
   24.0150    8.4210   30.0720 C   0  0  2  0  0  0  0  0  0  0  0  0
   24.1780    9.7350   30.3060 N   0  0  0  0  0  0  0  0  0  0  0  0
   25.1030    7.7450   29.5610 C   0  0  0  0  0  0  0  0  0  0  0  0
   26.2530    8.4580   29.3350 C   0  0  0  0  0  0  0  0  0  0  0  0
   27.1880    7.6000   28.8320 N   0  0  0  0  0  0  0  0  0  0  0  0
   28.1290    7.8560   28.5710 H   0  0  0  0  0  0  0  0  0  0  0  0
   26.6620    6.3440   28.7340 C   0  0  0  0  0  0  0  0  0  0  0  0
   27.1730    5.4640   28.3710 H   0  0  0  0  0  0  0  0  0  0  0  0
   25.3600    6.4010   29.1810 C   0  0  0  0  0  0  0  0  0  0  0  0
   24.6630    5.5770   29.2330 H   0  0  0  0  0  0  0  0  0  0  0  0
   26.4330    9.7540   29.5620 N   0  0  0  0  0  0  0  0  0  0  0  0
   25.3430   10.3460   30.0560 C   0  0  0  0  0  0  0  0  0  0  0  0
   25.4790   11.7250   30.3110 N   0  0  0  0  0  0  0  0  0  0  0  0
   26.4140   12.1060   30.3470 H   0  0  0  0  0  0  0  0  0  0  0  0
   24.4020   12.6090   30.5210 C   0  0  0  0  0  0  0  0  0  0  0  0
   24.1700   13.1000   31.7880 C   0  0  0  0  0  0  0  0  0  0  0  0
   25.0400   12.6560   32.7750 O   0  0  0  0  0  0  0  0  0  0  0  0
   24.5840   13.0850   34.0500 C   0  0  0  0  0  0  0  0  0  0  0  0
   25.2720   12.7330   34.8190 H   0  0  0  0  0  0  0  0  0  0  0  0
   23.5910   12.6780   34.2370 H   0  0  0  0  0  0  0  0  0  0  0  0
   24.5410   14.1740   34.0730 H   0  0  0  0  0  0  0  0  0  0  0  0
   23.5790   13.0110   29.4900 C   0  0  0  0  0  0  0  0  0  0  0  0
   23.7530   12.6440   28.4900 H   0  0  0  0  0  0  0  0  0  0  0  0
   22.5360   13.8770   29.7300 C   0  0  0  0  0  0  0  0  0  0  0  0
   21.8900   14.1730   28.9170 H   0  0  0  0  0  0  0  0  0  0  0  0
   22.3060   14.3710   30.9980 C   0  0  0  0  0  0  0  0  0  0  0  0
   23.1270   13.9770   32.0340 C   0  0  0  0  0  0  0  0  0  0  0  0
   22.9570   14.3510   33.0330 H   0  0  0  0  0  0  0  0  0  0  0  0
   21.1630   15.3050   31.2270 C   0  0  0  0  0  0  0  0  0  0  0  0
   20.6100   14.9980   32.1150 H   0  0  0  0  0  0  0  0  0  0  0  0
   20.4980   15.2920   30.3630 H   0  0  0  0  0  0  0  0  0  0  0  0
   21.8090   16.9460   31.4610 S   0  0  0  0  0  0  0  0  0  0  0  0
   22.3280   17.4340   30.1970 O   0  0  0  0  0  0  0  0  0  0  0  0
   22.6530   16.9130   32.6410 O   0  0  0  0  0  0  0  0  0  0  0  0
   20.3530   17.8710   31.8500 C   0  0  0  0  0  0  0  0  0  0  0  0
   19.7030   17.9090   30.9760 H   0  0  0  0  0  0  0  0  0  0  0  0
   20.6330   18.8830   32.1400 H   0  0  0  0  0  0  0  0  0  0  0  0
   19.8270   17.3890   32.6740 H   0  0  0  0  0  0  0  0  0  0  0  0
   21.8430    5.2550   30.1580 O   0  0  0  0  0  0  0  0  0  0  0  0
   21.4870    5.4900   31.3060 C   0  0  0  0  0  0  0  0  0  0  0  0
   21.3950    4.5580   32.3070 N   0  0  0  0  0  0  0  0  0  0  0  0
   21.6300    3.5930   32.1220 H   0  0  0  0  0  0  0  0  0  0  0  0
   21.0910    4.8360   33.2290 H   0  0  0  0  0  0  0  0  0  0  0  0
   21.1150    6.8580   31.7120 C   0  0  0  0  0  0  0  0  0  0  0  0
   20.0820    7.0580   32.6020 C   0  0  0  0  0  0  0  0  0  0  0  0
   19.4030    6.0190   33.1120 F   0  0  0  0  0  0  0  0  0  0  0  0
   19.7350    8.3340   32.9790 C   0  0  0  0  0  0  0  0  0  0  0  0
   18.9260    8.4940   33.6760 H   0  0  0  0  0  0  0  0  0  0  0  0
   20.4260    9.4070   32.4630 C   0  0  0  0  0  0  0  0  0  0  0  0
   20.1570   10.4110   32.7550 H   0  0  0  0  0  0  0  0  0  0  0  0
   21.4590    9.2040   31.5750 C   0  0  0  0  0  0  0  0  0  0  0  0
   21.9960   10.0520   31.1770 H   0  0  0  0  0  0  0  0  0  0  0  0
   21.8140    7.9290   31.1890 C   0  0  0  0  0  0  0  0  0  0  0  0
   22.8550    7.6700   30.2890 N   0  0  0  0  0  0  0  0  0  0  0  0
   22.7550    6.8370   29.7270 H   0  0  0  0  0  0  0  0  0  0  0  0
  1 54  1  6  0  0  0
  1  2  1  0  0  0  0
  3  1  1  0  0  0  0
  4  3  2  0  0  0  0
  4 11  1  0  0  0  0
  5  4  1  0  0  0  0
  6  5  1  0  0  0  0
  7  5  1  0  0  0  0
  7  9  2  0  0  0  0
  8  7  1  0  0  0  0
  9 10  1  0  0  0  0
  9  3  1  0  0  0  0
 11 12  1  0  0  0  0
 12  2  2  0  0  0  0
 12 13  1  0  0  0  0
 13 14  1  0  0  0  0
 13 15  1  0  0  0  0
 15 16  1  0  0  0  0
 16 27  2  0  0  0  0
 16 17  1  0  0  0  0
 17 18  1  0  0  0  0
 18 21  1  0  0  0  0
 18 20  1  0  0  0  0
 18 19  1  0  0  0  0
 22 24  1  0  0  0  0
 22 15  2  0  0  0  0
 23 22  1  0  0  0  0
 24 26  2  0  0  0  0
 25 24  1  0  0  0  0
 26 29  1  0  0  0  0
 26 27  1  0  0  0  0
 27 28  1  0  0  0  0
 29 32  1  0  0  0  0
 29 30  1  0  0  0  0
 31 29  1  0  0  0  0
 32 35  1  0  0  0  0
 32 34  2  0  0  0  0
 33 32  2  0  0  0  0
 35 37  1  0  0  0  0
 35 38  1  0  0  0  0
 36 35  1  0  0  0  0
 39 40  2  0  0  0  0
 40 44  1  0  0  0  0
 40 41  1  0  0  0  0
 41 43  1  0  0  0  0
 42 41  1  0  0  0  0
 44 45  1  0  0  0  0
 45 47  2  0  0  0  0
 45 46  1  0  0  0  0
 47 48  1  0  0  0  0
 49 50  1  0  0  0  0
 49 47  1  0  0  0  0
 51 49  2  0  0  0  0
 52 51  1  0  0  0  0
 53 51  1  0  0  0  0
 53 44  2  0  0  0  0
 54 53  1  0  0  0  0
 55 54  1  0  0  0  0
M  END
>  <Pose>
1

>  <Score>
-8.32

$$$$

 OpenBabel03112215093D

 55 58  0  0  1  0  0  0  0  0999 V2000
   22.6320    8.2470   31.6460 C   0  0  2  0  0  0  0  0  0  0  0  0
   23.3100    9.3780   31.3840 N   0  0  0  0  0  0  0  0  0  0  0  0
   21.3700    8.3940   32.1830 C   0  0  0  0  0  0  0  0  0  0  0  0
   20.9120    9.6670   32.4030 C   0  0  0  0  0  0  0  0  0  0  0  0
   19.6570    9.5770   32.9350 N   0  0  0  0  0  0  0  0  0  0  0  0
   19.0810   10.3640   33.1990 H   0  0  0  0  0  0  0  0  0  0  0  0
   19.2970    8.2660   33.0570 C   0  0  0  0  0  0  0  0  0  0  0  0
   18.3600    7.8950   33.4450 H   0  0  0  0  0  0  0  0  0  0  0  0
   20.3470    7.5010   32.5960 C   0  0  0  0  0  0  0  0  0  0  0  0
   20.3840    6.4220   32.5570 H   0  0  0  0  0  0  0  0  0  0  0  0
   21.5650   10.7950   32.1490 N   0  0  0  0  0  0  0  0  0  0  0  0
   22.7770   10.5810   31.6300 C   0  0  0  0  0  0  0  0  0  0  0  0
   23.5160   11.7460   31.3450 N   0  0  0  0  0  0  0  0  0  0  0  0
   23.3910   12.5420   31.9520 H   0  0  0  0  0  0  0  0  0  0  0  0
   24.4190   11.8760   30.2700 C   0  0  0  0  0  0  0  0  0  0  0  0
   24.2240   12.8790   29.3450 C   0  0  0  0  0  0  0  0  0  0  0  0
   23.1160   13.6880   29.5580 O   0  0  0  0  0  0  0  0  0  0  0  0
   23.1980   14.8460   28.7390 C   0  0  0  0  0  0  0  0  0  0  0  0
   22.3250   15.4760   28.9110 H   0  0  0  0  0  0  0  0  0  0  0  0
   23.2300   14.5490   27.6910 H   0  0  0  0  0  0  0  0  0  0  0  0
   24.1020   15.4030   28.9870 H   0  0  0  0  0  0  0  0  0  0  0  0
   25.5020   11.0370   30.1240 C   0  0  0  0  0  0  0  0  0  0  0  0
   25.6760   10.2520   30.8450 H   0  0  0  0  0  0  0  0  0  0  0  0
   26.3650   11.1930   29.0620 C   0  0  0  0  0  0  0  0  0  0  0  0
   27.2030   10.5200   28.9510 H   0  0  0  0  0  0  0  0  0  0  0  0
   26.1720   12.1990   28.1380 C   0  0  0  0  0  0  0  0  0  0  0  0
   25.0920   13.0460   28.2790 C   0  0  0  0  0  0  0  0  0  0  0  0
   24.9250   13.8360   27.5620 H   0  0  0  0  0  0  0  0  0  0  0  0
   27.1230   12.3400   26.9940 C   0  0  0  0  0  0  0  0  0  0  0  0
   26.6630   11.9550   26.0840 H   0  0  0  0  0  0  0  0  0  0  0  0
   28.0350   11.7820   27.2040 H   0  0  0  0  0  0  0  0  0  0  0  0
   27.5110   14.0640   26.7870 S   0  0  0  0  0  0  0  0  0  0  0  0
   27.9810   14.5980   28.0520 O   0  0  0  0  0  0  0  0  0  0  0  0
   26.3900   14.6780   26.0980 O   0  0  0  0  0  0  0  0  0  0  0  0
   28.8810   14.0090   25.6710 C   0  0  0  0  0  0  0  0  0  0  0  0
   29.7360   13.5510   26.1690 H   0  0  0  0  0  0  0  0  0  0  0  0
   29.1390   15.0220   25.3630 H   0  0  0  0  0  0  0  0  0  0  0  0
   28.6120   13.4200   24.7950 H   0  0  0  0  0  0  0  0  0  0  0  0
   24.2450    3.8420   32.5130 O   0  0  0  0  0  0  0  0  0  0  0  0
   23.7020    4.2410   31.4900 C   0  0  0  0  0  0  0  0  0  0  0  0
   22.4330    3.9090   31.0930 N   0  0  0  0  0  0  0  0  0  0  0  0
   21.8720    3.2900   31.6600 H   0  0  0  0  0  0  0  0  0  0  0  0
   22.0590    4.2830   30.2330 H   0  0  0  0  0  0  0  0  0  0  0  0
   24.4090    5.1520   30.5710 C   0  0  0  0  0  0  0  0  0  0  0  0
   25.3870    4.6640   29.7310 C   0  0  0  0  0  0  0  0  0  0  0  0
   25.7100    3.3620   29.7360 F   0  0  0  0  0  0  0  0  0  0  0  0
   26.0470    5.5150   28.8750 C   0  0  0  0  0  0  0  0  0  0  0  0
   26.8140    5.1350   28.2170 H   0  0  0  0  0  0  0  0  0  0  0  0
   25.7230    6.8520   28.8610 C   0  0  0  0  0  0  0  0  0  0  0  0
   26.2380    7.5240   28.1910 H   0  0  0  0  0  0  0  0  0  0  0  0
   24.7430    7.3360   29.7000 C   0  0  0  0  0  0  0  0  0  0  0  0
   24.4950    8.3870   29.6810 H   0  0  0  0  0  0  0  0  0  0  0  0
   24.0770    6.4940   30.5640 C   0  0  0  0  0  0  0  0  0  0  0  0
   23.0750    6.9360   31.4350 N   0  0  0  0  0  0  0  0  0  0  0  0
   22.6160    6.2210   31.9800 H   0  0  0  0  0  0  0  0  0  0  0  0
  1 54  1  1  0  0  0
  1  3  1  0  0  0  0
  2 12  2  0  0  0  0
  2  1  1  0  0  0  0
  3  4  2  0  0  0  0
  3  9  1  0  0  0  0
  4  5  1  0  0  0  0
  5  7  1  0  0  0  0
  5  6  1  0  0  0  0
  7  8  1  0  0  0  0
  9  7  2  0  0  0  0
 10  9  1  0  0  0  0
 11  4  1  0  0  0  0
 12 11  1  0  0  0  0
 13 12  1  0  0  0  0
 13 14  1  0  0  0  0
 15 13  1  0  0  0  0
 16 17  1  0  0  0  0
 16 15  2  0  0  0  0
 18 19  1  0  0  0  0
 18 21  1  0  0  0  0
 18 17  1  0  0  0  0
 20 18  1  0  0  0  0
 22 15  1  0  0  0  0
 22 23  1  0  0  0  0
 24 22  2  0  0  0  0
 25 24  1  0  0  0  0
 26 27  2  0  0  0  0
 26 24  1  0  0  0  0
 27 16  1  0  0  0  0
 28 27  1  0  0  0  0
 29 31  1  0  0  0  0
 29 26  1  0  0  0  0
 30 29  1  0  0  0  0
 32 29  1  0  0  0  0
 32 33  2  0  0  0  0
 34 32  2  0  0  0  0
 35 36  1  0  0  0  0
 35 32  1  0  0  0  0
 37 35  1  0  0  0  0
 38 35  1  0  0  0  0
 40 39  2  0  0  0  0
 41 40  1  0  0  0  0
 41 42  1  0  0  0  0
 43 41  1  0  0  0  0
 44 40  1  0  0  0  0
 45 46  1  0  0  0  0
 45 44  2  0  0  0  0
 47 45  1  0  0  0  0
 48 47  1  0  0  0  0
 49 47  2  0  0  0  0
 49 51  1  0  0  0  0
 50 49  1  0  0  0  0
 51 53  2  0  0  0  0
 52 51  1  0  0  0  0
 53 44  1  0  0  0  0
 53 54  1  0  0  0  0
 54 55  1  0  0  0  0
M  END
>  <Pose>
1

>  <Score>
-7.63

$$$$
