
 OpenBabel03102210523D

 77 81  0  0  1  0  0  0  0  0999 V2000
   55.0900   93.0740   23.2230 C   0  0  0  0  0  0  0  0  0  0  0  0
   53.9800   93.5140   22.9630 O   0  0  0  0  0  0  0  0  0  0  0  0
   55.8420   93.6150   24.2240 N   0  0  0  0  0  0  0  0  0  0  0  0
   56.7730   93.2510   24.3700 H   0  0  0  0  0  0  0  0  0  0  0  0
   55.3950   94.6500   25.0640 C   0  0  0  0  0  0  0  0  0  0  0  0
   56.1400   95.8430   25.2740 C   0  0  0  0  0  0  0  0  0  0  0  0
   55.6100   96.8350   26.1590 C   0  0  0  0  0  0  0  0  0  0  0  0
   54.3570   96.6100   26.8150 C   0  0  0  0  0  0  0  0  0  0  0  0
   53.6730   95.4490   26.5830 C   0  0  0  0  0  0  0  0  0  0  0  0
   52.7210   95.2860   27.0660 H   0  0  0  0  0  0  0  0  0  0  0  0
   54.1890   94.4710   25.7320 C   0  0  0  0  0  0  0  0  0  0  0  0
   53.6380   93.5540   25.5880 H   0  0  0  0  0  0  0  0  0  0  0  0
   55.6210   92.0470   22.5230 N   0  0  0  0  0  0  0  0  0  0  0  0
   56.5600   91.7580   22.7580 H   0  0  0  0  0  0  0  0  0  0  0  0
   54.9700   91.3530   21.5000 C   0  0  0  0  0  0  0  0  0  0  0  0
   54.9390   89.9960   21.4020 N   0  0  0  0  0  0  0  0  0  0  0  0
   54.2160   89.6480   20.2760 N   0  0  0  0  0  0  0  0  0  0  0  0
   53.7990   90.7410   19.6990 C   0  0  2  0  0  0  0  0  0  0  0  0
   54.7110   90.7710   19.1020 H   0  0  0  0  0  0  0  0  0  0  0  0
   54.2530   91.8410   20.4440 C   0  0  0  0  0  0  0  0  0  0  0  0
   54.0680   92.8820   20.2220 H   0  0  0  0  0  0  0  0  0  0  0  0
   55.5420   89.0630   22.2500 C   0  0  0  0  0  0  0  0  0  0  0  0
   52.9740   90.7730   18.4360 C   0  0  0  0  0  0  0  0  0  0  0  0
   53.9310   91.0440   17.2750 C   0  0  0  0  0  0  0  0  0  0  0  0
   54.6810   90.2550   17.2300 H   0  0  0  0  0  0  0  0  0  0  0  0
   54.4220   92.0050   17.4250 H   0  0  0  0  0  0  0  0  0  0  0  0
   53.3700   91.0650   16.3400 H   0  0  0  0  0  0  0  0  0  0  0  0
   52.2770   89.4290   18.1890 C   0  0  0  0  0  0  0  0  0  0  0  0
   53.0250   88.6400   18.1110 H   0  0  0  0  0  0  0  0  0  0  0  0
   51.7070   89.4810   17.2620 H   0  0  0  0  0  0  0  0  0  0  0  0
   51.6040   89.2120   19.0180 H   0  0  0  0  0  0  0  0  0  0  0  0
   51.8990   91.8570   18.5400 C   0  0  0  0  0  0  0  0  0  0  0  0
   52.3730   92.8230   18.7160 H   0  0  0  0  0  0  0  0  0  0  0  0
   51.2280   91.6250   19.3670 H   0  0  0  0  0  0  0  0  0  0  0  0
   51.3310   91.8950   17.6100 H   0  0  0  0  0  0  0  0  0  0  0  0
   56.1210   87.9370   21.6740 C   0  0  0  0  0  0  0  0  0  0  0  0
   56.1060   87.7980   20.6030 H   0  0  0  0  0  0  0  0  0  0  0  0
   56.7150   87.0000   22.4950 C   0  0  0  0  0  0  0  0  0  0  0  0
   57.1640   86.1160   22.0680 H   0  0  0  0  0  0  0  0  0  0  0  0
   56.7360   87.1920   23.8730 C   0  0  0  0  0  0  0  0  0  0  0  0
   56.1560   88.3120   24.4400 C   0  0  0  0  0  0  0  0  0  0  0  0
   56.1780   88.4510   25.5100 H   0  0  0  0  0  0  0  0  0  0  0  0
   55.5510   89.2500   23.6320 C   0  0  0  0  0  0  0  0  0  0  0  0
   55.0870   90.1230   24.0660 H   0  0  0  0  0  0  0  0  0  0  0  0
   57.3950   86.1680   24.7510 C   0  0  0  0  0  0  0  0  0  0  0  0
   57.7930   85.3620   24.1350 H   0  0  0  0  0  0  0  0  0  0  0  0
   56.6620   85.7630   25.4490 H   0  0  0  0  0  0  0  0  0  0  0  0
   58.2070   86.6350   25.3080 H   0  0  0  0  0  0  0  0  0  0  0  0
   57.3770   96.0810   24.6310 C   0  0  0  0  0  0  0  0  0  0  0  0
   57.7880   95.3390   23.9620 H   0  0  0  0  0  0  0  0  0  0  0  0
   58.0550   97.2450   24.8540 C   0  0  0  0  0  0  0  0  0  0  0  0
   58.9970   97.4160   24.3540 H   0  0  0  0  0  0  0  0  0  0  0  0
   57.5460   98.2240   25.7240 C   0  0  0  0  0  0  0  0  0  0  0  0
   58.1010   99.1350   25.8900 H   0  0  0  0  0  0  0  0  0  0  0  0
   56.3520   98.0290   26.3620 C   0  0  0  0  0  0  0  0  0  0  0  0
   55.9690   98.7900   27.0250 H   0  0  0  0  0  0  0  0  0  0  0  0
   53.8720   97.5710   27.6620 O   0  0  0  0  0  0  0  0  0  0  0  0
   52.6280   97.2430   28.2860 C   0  0  0  0  0  0  0  0  0  0  0  0
   52.7740   96.4340   29.0010 H   0  0  0  0  0  0  0  0  0  0  0  0
   51.9050   96.9340   27.5310 H   0  0  0  0  0  0  0  0  0  0  0  0
   52.1220   98.4980   29.0110 C   0  0  0  0  0  0  0  0  0  0  0  0
   52.9770   99.0990   29.3190 H   0  0  0  0  0  0  0  0  0  0  0  0
   51.5550   98.1950   29.8910 H   0  0  0  0  0  0  0  0  0  0  0  0
   51.2480   99.3150   28.1300 N   0  0  0  0  0  0  0  0  0  0  0  0
   51.9940   99.7480   26.9260 C   0  0  0  0  0  0  0  0  0  0  0  0
   52.3590   98.8760   26.3840 H   0  0  0  0  0  0  0  0  0  0  0  0
   52.8380  100.3730   27.2200 H   0  0  0  0  0  0  0  0  0  0  0  0
   51.0420  100.5490   26.0390 C   0  0  0  0  0  0  0  0  0  0  0  0
   50.1610   99.9500   25.8080 H   0  0  0  0  0  0  0  0  0  0  0  0
   51.5450  100.8280   25.1140 H   0  0  0  0  0  0  0  0  0  0  0  0
   50.6550  101.7250   26.7550 O   0  0  0  0  0  0  0  0  0  0  0  0
   49.9550  101.3670   27.9500 C   0  0  0  0  0  0  0  0  0  0  0  0
   49.0740  100.7800   27.6910 H   0  0  0  0  0  0  0  0  0  0  0  0
   49.6480  102.2720   28.4740 H   0  0  0  0  0  0  0  0  0  0  0  0
   50.8690  100.5400   28.8560 C   0  0  0  0  0  0  0  0  0  0  0  0
   51.7620  101.1150   29.1030 H   0  0  0  0  0  0  0  0  0  0  0  0
   50.3410  100.2780   29.7730 H   0  0  0  0  0  0  0  0  0  0  0  0
  1  3  1  0  0  0  0
  2  1  2  0  0  0  0
  3  4  1  0  0  0  0
  3  5  1  0  0  0  0
  5  6  2  0  0  0  0
  5 11  1  0  0  0  0
  6  7  1  0  0  0  0
  7 55  1  0  0  0  0
  7  8  2  0  0  0  0
  8 57  1  0  0  0  0
  9  8  1  0  0  0  0
  9 10  1  0  0  0  0
 11  9  2  0  0  0  0
 12 11  1  0  0  0  0
 13 14  1  0  0  0  0
 13  1  1  0  0  0  0
 15 13  1  0  0  0  0
 16 15  1  0  0  0  0
 16 22  1  0  0  0  0
 17 16  1  0  0  0  0
 18 19  1  6  0  0  0
 18 17  1  0  0  0  0
 18 20  1  0  0  0  0
 20 15  2  0  0  0  0
 21 20  1  0  0  0  0
 22 43  1  0  0  0  0
 23 32  1  0  0  0  0
 23 18  1  0  0  0  0
 24 26  1  0  0  0  0
 24 23  1  0  0  0  0
 25 24  1  0  0  0  0
 27 24  1  0  0  0  0
 28 23  1  0  0  0  0
 28 31  1  0  0  0  0
 29 28  1  0  0  0  0
 30 28  1  0  0  0  0
 32 33  1  0  0  0  0
 32 34  1  0  0  0  0
 35 32  1  0  0  0  0
 36 22  2  0  0  0  0
 36 38  1  0  0  0  0
 37 36  1  0  0  0  0
 38 40  2  0  0  0  0
 39 38  1  0  0  0  0
 40 41  1  0  0  0  0
 40 45  1  0  0  0  0
 41 42  1  0  0  0  0
 43 44  1  0  0  0  0
 43 41  2  0  0  0  0
 45 48  1  0  0  0  0
 45 47  1  0  0  0  0
 46 45  1  0  0  0  0
 49 51  2  0  0  0  0
 49  6  1  0  0  0  0
 50 49  1  0  0  0  0
 51 53  1  0  0  0  0
 52 51  1  0  0  0  0
 53 54  1  0  0  0  0
 53 55  2  0  0  0  0
 55 56  1  0  0  0  0
 57 58  1  0  0  0  0
 58 59  1  0  0  0  0
 58 61  1  0  0  0  0
 60 58  1  0  0  0  0
 61 62  1  0  0  0  0
 61 63  1  0  0  0  0
 64 75  1  0  0  0  0
 64 61  1  0  0  0  0
 65 67  1  0  0  0  0
 65 64  1  0  0  0  0
 66 65  1  0  0  0  0
 68 71  1  0  0  0  0
 68 65  1  0  0  0  0
 69 68  1  0  0  0  0
 70 68  1  0  0  0  0
 71 72  1  0  0  0  0
 72 74  1  0  0  0  0
 72 75  1  0  0  0  0
 73 72  1  0  0  0  0
 75 76  1  0  0  0  0
 75 77  1  0  0  0  0
M  END
>  <Pose>
5

>  <Score>
-12.98

$$$$

 OpenBabel03102210523D

 77 81  0  0  1  0  0  0  0  0999 V2000
   55.2130   93.0110   23.2090 C   0  0  0  0  0  0  0  0  0  0  0  0
   54.0660   93.3790   23.0070 O   0  0  0  0  0  0  0  0  0  0  0  0
   55.9530   93.5440   24.2230 N   0  0  0  0  0  0  0  0  0  0  0  0
   56.9120   93.2440   24.3200 H   0  0  0  0  0  0  0  0  0  0  0  0
   55.4550   94.4850   25.1410 C   0  0  0  0  0  0  0  0  0  0  0  0
   56.1210   95.7100   25.4190 C   0  0  0  0  0  0  0  0  0  0  0  0
   55.5450   96.6010   26.3800 C   0  0  0  0  0  0  0  0  0  0  0  0
   54.3270   96.2450   27.0420 C   0  0  0  0  0  0  0  0  0  0  0  0
   53.7180   95.0570   26.7430 C   0  0  0  0  0  0  0  0  0  0  0  0
   52.7910   94.7960   27.2310 H   0  0  0  0  0  0  0  0  0  0  0  0
   54.2800   94.1780   25.8160 C   0  0  0  0  0  0  0  0  0  0  0  0
   53.7900   93.2360   25.6190 H   0  0  0  0  0  0  0  0  0  0  0  0
   55.7980   92.0740   22.4290 N   0  0  0  0  0  0  0  0  0  0  0  0
   56.7630   91.8450   22.6190 H   0  0  0  0  0  0  0  0  0  0  0  0
   55.1700   91.3990   21.3800 C   0  0  0  0  0  0  0  0  0  0  0  0
   55.1450   90.0440   21.2550 N   0  0  0  0  0  0  0  0  0  0  0  0
   54.4450   89.7160   20.1080 N   0  0  0  0  0  0  0  0  0  0  0  0
   54.0360   90.8190   19.5440 C   0  0  2  0  0  0  0  0  0  0  0  0
   54.9600   90.8630   18.9660 H   0  0  0  0  0  0  0  0  0  0  0  0
   54.4720   91.9050   20.3190 C   0  0  0  0  0  0  0  0  0  0  0  0
   54.2890   92.9500   20.1140 H   0  0  0  0  0  0  0  0  0  0  0  0
   55.7340   89.0960   22.0960 C   0  0  0  0  0  0  0  0  0  0  0  0
   53.2370   90.8730   18.2660 C   0  0  0  0  0  0  0  0  0  0  0  0
   54.2280   91.0570   17.1160 C   0  0  0  0  0  0  0  0  0  0  0  0
   54.9280   90.2220   17.1030 H   0  0  0  0  0  0  0  0  0  0  0  0
   54.7760   91.9890   17.2550 H   0  0  0  0  0  0  0  0  0  0  0  0
   53.6860   91.0920   16.1710 H   0  0  0  0  0  0  0  0  0  0  0  0
   52.4610   89.5710   18.0350 C   0  0  0  0  0  0  0  0  0  0  0  0
   53.1590   88.7350   17.9890 H   0  0  0  0  0  0  0  0  0  0  0  0
   51.9100   89.6370   17.0970 H   0  0  0  0  0  0  0  0  0  0  0  0
   51.7610   89.4150   18.8560 H   0  0  0  0  0  0  0  0  0  0  0  0
   52.2300   92.0250   18.3260 C   0  0  0  0  0  0  0  0  0  0  0  0
   52.7610   92.9630   18.4900 H   0  0  0  0  0  0  0  0  0  0  0  0
   51.5320   91.8540   19.1450 H   0  0  0  0  0  0  0  0  0  0  0  0
   51.6810   92.0770   17.3860 H   0  0  0  0  0  0  0  0  0  0  0  0
   55.5900   89.2630   23.4690 C   0  0  0  0  0  0  0  0  0  0  0  0
   55.0330   90.0990   23.8660 H   0  0  0  0  0  0  0  0  0  0  0  0
   56.1720   88.3420   24.3160 C   0  0  0  0  0  0  0  0  0  0  0  0
   56.0770   88.4580   25.3860 H   0  0  0  0  0  0  0  0  0  0  0  0
   56.8790   87.2640   23.7950 C   0  0  0  0  0  0  0  0  0  0  0  0
   57.0220   87.1050   22.4290 C   0  0  0  0  0  0  0  0  0  0  0  0
   57.5750   86.2650   22.0360 H   0  0  0  0  0  0  0  0  0  0  0  0
   56.4550   88.0230   21.5730 C   0  0  0  0  0  0  0  0  0  0  0  0
   56.5690   87.9130   20.5050 H   0  0  0  0  0  0  0  0  0  0  0  0
   57.4980   86.2660   24.7310 C   0  0  0  0  0  0  0  0  0  0  0  0
   57.2840   86.5510   25.7600 H   0  0  0  0  0  0  0  0  0  0  0  0
   58.5770   86.2440   24.5770 H   0  0  0  0  0  0  0  0  0  0  0  0
   57.0830   85.2770   24.5330 H   0  0  0  0  0  0  0  0  0  0  0  0
   57.3250   96.0780   24.7710 C   0  0  0  0  0  0  0  0  0  0  0  0
   57.7690   95.4140   24.0450 H   0  0  0  0  0  0  0  0  0  0  0  0
   57.9260   97.2690   25.0620 C   0  0  0  0  0  0  0  0  0  0  0  0
   58.8420   97.5390   24.5580 H   0  0  0  0  0  0  0  0  0  0  0  0
   57.3710   98.1480   26.0070 C   0  0  0  0  0  0  0  0  0  0  0  0
   57.8660   99.0830   26.2260 H   0  0  0  0  0  0  0  0  0  0  0  0
   56.2080   97.8270   26.6510 C   0  0  0  0  0  0  0  0  0  0  0  0
   55.7900   98.5130   27.3730 H   0  0  0  0  0  0  0  0  0  0  0  0
   53.7960   97.1100   27.9630 O   0  0  0  0  0  0  0  0  0  0  0  0
   52.5530   97.7010   27.5780 C   0  0  0  0  0  0  0  0  0  0  0  0
   51.8040   96.9230   27.4260 H   0  0  0  0  0  0  0  0  0  0  0  0
   52.6810   98.2670   26.6550 H   0  0  0  0  0  0  0  0  0  0  0  0
   52.1100   98.6390   28.7100 C   0  0  0  0  0  0  0  0  0  0  0  0
   52.9580   98.8270   29.3680 H   0  0  0  0  0  0  0  0  0  0  0  0
   51.3100   98.1600   29.2750 H   0  0  0  0  0  0  0  0  0  0  0  0
   51.6160   99.9340   28.1750 N   0  0  0  0  0  0  0  0  0  0  0  0
   50.1460  100.0270   28.3310 C   0  0  0  0  0  0  0  0  0  0  0  0
   49.8800   99.9340   29.3830 H   0  0  0  0  0  0  0  0  0  0  0  0
   49.6630   99.2330   27.7620 H   0  0  0  0  0  0  0  0  0  0  0  0
   49.6980  101.3890   27.8020 C   0  0  0  0  0  0  0  0  0  0  0  0
   50.2370  102.1830   28.3200 H   0  0  0  0  0  0  0  0  0  0  0  0
   48.6270  101.5130   27.9620 H   0  0  0  0  0  0  0  0  0  0  0  0
   49.9880  101.4370   26.4030 O   0  0  0  0  0  0  0  0  0  0  0  0
   51.3960  101.3190   26.1870 C   0  0  0  0  0  0  0  0  0  0  0  0
   51.9110  102.1280   26.7040 H   0  0  0  0  0  0  0  0  0  0  0  0
   51.6050  101.3780   25.1190 H   0  0  0  0  0  0  0  0  0  0  0  0
   51.8910   99.9750   26.7270 C   0  0  0  0  0  0  0  0  0  0  0  0
   51.3660   99.1610   26.2280 H   0  0  0  0  0  0  0  0  0  0  0  0
   52.9620   99.8790   26.5520 H   0  0  0  0  0  0  0  0  0  0  0  0
  1  3  1  0  0  0  0
  2  1  2  0  0  0  0
  3  4  1  0  0  0  0
  3  5  1  0  0  0  0
  5  6  2  0  0  0  0
  5 11  1  0  0  0  0
  6  7  1  0  0  0  0
  7 55  1  0  0  0  0
  7  8  2  0  0  0  0
  8 57  1  0  0  0  0
  9  8  1  0  0  0  0
  9 10  1  0  0  0  0
 11  9  2  0  0  0  0
 12 11  1  0  0  0  0
 13 14  1  0  0  0  0
 13  1  1  0  0  0  0
 15 13  1  0  0  0  0
 16 15  1  0  0  0  0
 16 22  1  0  0  0  0
 17 16  1  0  0  0  0
 18 19  1  6  0  0  0
 18 17  1  0  0  0  0
 18 20  1  0  0  0  0
 20 15  2  0  0  0  0
 21 20  1  0  0  0  0
 22 36  1  0  0  0  0
 23 32  1  0  0  0  0
 23 18  1  0  0  0  0
 24 26  1  0  0  0  0
 24 23  1  0  0  0  0
 25 24  1  0  0  0  0
 27 24  1  0  0  0  0
 28 23  1  0  0  0  0
 28 31  1  0  0  0  0
 29 28  1  0  0  0  0
 30 28  1  0  0  0  0
 32 33  1  0  0  0  0
 32 34  1  0  0  0  0
 35 32  1  0  0  0  0
 36 37  1  0  0  0  0
 36 38  2  0  0  0  0
 38 39  1  0  0  0  0
 40 38  1  0  0  0  0
 40 45  1  0  0  0  0
 41 40  2  0  0  0  0
 42 41  1  0  0  0  0
 43 22  2  0  0  0  0
 43 41  1  0  0  0  0
 44 43  1  0  0  0  0
 45 46  1  0  0  0  0
 47 45  1  0  0  0  0
 48 45  1  0  0  0  0
 49 51  2  0  0  0  0
 49  6  1  0  0  0  0
 50 49  1  0  0  0  0
 51 53  1  0  0  0  0
 52 51  1  0  0  0  0
 53 54  1  0  0  0  0
 53 55  2  0  0  0  0
 55 56  1  0  0  0  0
 58 57  1  0  0  0  0
 58 61  1  0  0  0  0
 59 58  1  0  0  0  0
 60 58  1  0  0  0  0
 61 63  1  0  0  0  0
 61 62  1  0  0  0  0
 64 65  1  0  0  0  0
 64 61  1  0  0  0  0
 65 66  1  0  0  0  0
 67 65  1  0  0  0  0
 68 70  1  0  0  0  0
 68 69  1  0  0  0  0
 68 65  1  0  0  0  0
 71 68  1  0  0  0  0
 72 71  1  0  0  0  0
 72 73  1  0  0  0  0
 72 75  1  0  0  0  0
 74 72  1  0  0  0  0
 75 64  1  0  0  0  0
 76 75  1  0  0  0  0
 77 75  1  0  0  0  0
M  END
>  <Pose>
3

>  <Score>
-12.68

$$$$

 OpenBabel03102210523D

 77 81  0  0  1  0  0  0  0  0999 V2000
   55.2630   93.1580   23.2570 C   0  0  0  0  0  0  0  0  0  0  0  0
   54.0930   93.4820   23.1130 O   0  0  0  0  0  0  0  0  0  0  0  0
   56.0430   93.7500   24.2040 N   0  0  0  0  0  0  0  0  0  0  0  0
   57.0170   93.4850   24.2530 H   0  0  0  0  0  0  0  0  0  0  0  0
   55.5710   94.7090   25.1170 C   0  0  0  0  0  0  0  0  0  0  0  0
   56.2190   95.9590   25.3200 C   0  0  0  0  0  0  0  0  0  0  0  0
   55.6720   96.8660   26.2820 C   0  0  0  0  0  0  0  0  0  0  0  0
   54.4990   96.5030   27.0190 C   0  0  0  0  0  0  0  0  0  0  0  0
   53.9070   95.2910   26.7910 C   0  0  0  0  0  0  0  0  0  0  0  0
   53.0140   95.0240   27.3370 H   0  0  0  0  0  0  0  0  0  0  0  0
   54.4420   94.3960   25.8640 C   0  0  0  0  0  0  0  0  0  0  0  0
   53.9660   93.4360   25.7240 H   0  0  0  0  0  0  0  0  0  0  0  0
   55.8300   92.2110   22.4760 N   0  0  0  0  0  0  0  0  0  0  0  0
   56.8120   92.0190   22.6150 H   0  0  0  0  0  0  0  0  0  0  0  0
   55.1620   91.4780   21.4920 C   0  0  0  0  0  0  0  0  0  0  0  0
   55.1240   90.1180   21.4530 N   0  0  0  0  0  0  0  0  0  0  0  0
   54.3840   89.7260   20.3520 N   0  0  0  0  0  0  0  0  0  0  0  0
   53.9650   90.7960   19.7330 C   0  0  2  0  0  0  0  0  0  0  0  0
   54.8690   90.7950   19.1240 H   0  0  0  0  0  0  0  0  0  0  0  0
   54.4340   91.9240   20.4250 C   0  0  0  0  0  0  0  0  0  0  0  0
   54.2510   92.9550   20.1620 H   0  0  0  0  0  0  0  0  0  0  0  0
   55.7330   89.2190   22.3310 C   0  0  0  0  0  0  0  0  0  0  0  0
   53.1240   90.7780   18.4810 C   0  0  0  0  0  0  0  0  0  0  0  0
   54.0010   91.2880   17.3370 C   0  0  0  0  0  0  0  0  0  0  0  0
   54.8720   90.6420   17.2310 H   0  0  0  0  0  0  0  0  0  0  0  0
   54.3270   92.3050   17.5550 H   0  0  0  0  0  0  0  0  0  0  0  0
   53.4280   91.2810   16.4100 H   0  0  0  0  0  0  0  0  0  0  0  0
   52.6570   89.3570   18.1400 C   0  0  0  0  0  0  0  0  0  0  0  0
   53.5260   88.7130   18.0010 H   0  0  0  0  0  0  0  0  0  0  0  0
   52.0700   89.3790   17.2220 H   0  0  0  0  0  0  0  0  0  0  0  0
   52.0450   88.9710   18.9550 H   0  0  0  0  0  0  0  0  0  0  0  0
   51.8850   91.6550   18.6700 C   0  0  0  0  0  0  0  0  0  0  0  0
   52.1930   92.6720   18.9140 H   0  0  0  0  0  0  0  0  0  0  0  0
   51.2770   91.2560   19.4820 H   0  0  0  0  0  0  0  0  0  0  0  0
   51.3020   91.6630   17.7490 H   0  0  0  0  0  0  0  0  0  0  0  0
   56.2950   88.0630   21.7980 C   0  0  0  0  0  0  0  0  0  0  0  0
   56.2620   87.8770   20.7340 H   0  0  0  0  0  0  0  0  0  0  0  0
   56.8950   87.1590   22.6500 C   0  0  0  0  0  0  0  0  0  0  0  0
   57.3300   86.2530   22.2550 H   0  0  0  0  0  0  0  0  0  0  0  0
   56.9390   87.4120   24.0170 C   0  0  0  0  0  0  0  0  0  0  0  0
   56.3770   88.5610   24.5420 C   0  0  0  0  0  0  0  0  0  0  0  0
   56.4160   88.7470   25.6060 H   0  0  0  0  0  0  0  0  0  0  0  0
   55.7660   89.4670   23.7030 C   0  0  0  0  0  0  0  0  0  0  0  0
   55.3150   90.3620   24.1050 H   0  0  0  0  0  0  0  0  0  0  0  0
   57.6040   86.4230   24.9300 C   0  0  0  0  0  0  0  0  0  0  0  0
   57.9860   85.5880   24.3440 H   0  0  0  0  0  0  0  0  0  0  0  0
   56.8790   86.0560   25.6570 H   0  0  0  0  0  0  0  0  0  0  0  0
   58.4280   86.9080   25.4530 H   0  0  0  0  0  0  0  0  0  0  0  0
   57.3760   96.3330   24.5980 C   0  0  0  0  0  0  0  0  0  0  0  0
   57.7990   95.6560   23.8700 H   0  0  0  0  0  0  0  0  0  0  0  0
   57.9610   97.5470   24.8180 C   0  0  0  0  0  0  0  0  0  0  0  0
   58.8420   97.8230   24.2570 H   0  0  0  0  0  0  0  0  0  0  0  0
   57.4350   98.4440   25.7620 C   0  0  0  0  0  0  0  0  0  0  0  0
   57.9160   99.3970   25.9240 H   0  0  0  0  0  0  0  0  0  0  0  0
   56.3160   98.1170   26.4780 C   0  0  0  0  0  0  0  0  0  0  0  0
   55.9190   98.8160   27.1990 H   0  0  0  0  0  0  0  0  0  0  0  0
   53.9970   97.3850   27.9390 O   0  0  0  0  0  0  0  0  0  0  0  0
   53.1630   98.4080   27.3900 C   0  0  0  0  0  0  0  0  0  0  0  0
   52.4710   97.9750   26.6680 H   0  0  0  0  0  0  0  0  0  0  0  0
   53.7770   99.1620   26.8970 H   0  0  0  0  0  0  0  0  0  0  0  0
   52.3810   99.0470   28.5460 C   0  0  0  0  0  0  0  0  0  0  0  0
   52.8200  100.0170   28.7800 H   0  0  0  0  0  0  0  0  0  0  0  0
   52.4460   98.3980   29.4200 H   0  0  0  0  0  0  0  0  0  0  0  0
   50.9510   99.2370   28.1910 N   0  0  0  0  0  0  0  0  0  0  0  0
   50.5230  100.6200   28.5020 C   0  0  0  0  0  0  0  0  0  0  0  0
   51.1410  101.3300   27.9520 H   0  0  0  0  0  0  0  0  0  0  0  0
   50.6210  100.8050   29.5720 H   0  0  0  0  0  0  0  0  0  0  0  0
   49.0620  100.7710   28.0820 C   0  0  0  0  0  0  0  0  0  0  0  0
   48.9500  100.5130   27.0290 H   0  0  0  0  0  0  0  0  0  0  0  0
   48.7360  101.8000   28.2400 H   0  0  0  0  0  0  0  0  0  0  0  0
   48.2770   99.8850   28.8850 O   0  0  0  0  0  0  0  0  0  0  0  0
   48.6690   98.5310   28.6500 C   0  0  0  0  0  0  0  0  0  0  0  0
   48.5380   98.2930   27.5940 H   0  0  0  0  0  0  0  0  0  0  0  0
   48.0490   97.8650   29.2510 H   0  0  0  0  0  0  0  0  0  0  0  0
   50.1380   98.3430   29.0350 C   0  0  0  0  0  0  0  0  0  0  0  0
   50.2800   98.5970   30.0850 H   0  0  0  0  0  0  0  0  0  0  0  0
   50.4340   97.3070   28.8680 H   0  0  0  0  0  0  0  0  0  0  0  0
  1  3  1  0  0  0  0
  2  1  2  0  0  0  0
  3  4  1  0  0  0  0
  3  5  1  0  0  0  0
  5  6  2  0  0  0  0
  5 11  1  0  0  0  0
  6  7  1  0  0  0  0
  7 55  1  0  0  0  0
  7  8  2  0  0  0  0
  8 57  1  0  0  0  0
  9  8  1  0  0  0  0
  9 10  1  0  0  0  0
 11  9  2  0  0  0  0
 12 11  1  0  0  0  0
 13 14  1  0  0  0  0
 13  1  1  0  0  0  0
 15 13  1  0  0  0  0
 16 15  1  0  0  0  0
 16 22  1  0  0  0  0
 17 16  1  0  0  0  0
 18 19  1  6  0  0  0
 18 17  1  0  0  0  0
 18 20  1  0  0  0  0
 20 15  2  0  0  0  0
 21 20  1  0  0  0  0
 22 43  1  0  0  0  0
 23 32  1  0  0  0  0
 23 18  1  0  0  0  0
 24 26  1  0  0  0  0
 24 23  1  0  0  0  0
 25 24  1  0  0  0  0
 27 24  1  0  0  0  0
 28 23  1  0  0  0  0
 28 31  1  0  0  0  0
 29 28  1  0  0  0  0
 30 28  1  0  0  0  0
 32 33  1  0  0  0  0
 32 34  1  0  0  0  0
 35 32  1  0  0  0  0
 36 22  2  0  0  0  0
 36 38  1  0  0  0  0
 37 36  1  0  0  0  0
 38 40  2  0  0  0  0
 39 38  1  0  0  0  0
 40 41  1  0  0  0  0
 40 45  1  0  0  0  0
 41 42  1  0  0  0  0
 43 44  1  0  0  0  0
 43 41  2  0  0  0  0
 45 48  1  0  0  0  0
 45 47  1  0  0  0  0
 46 45  1  0  0  0  0
 49 51  2  0  0  0  0
 49  6  1  0  0  0  0
 50 49  1  0  0  0  0
 51 53  1  0  0  0  0
 52 51  1  0  0  0  0
 53 54  1  0  0  0  0
 53 55  2  0  0  0  0
 55 56  1  0  0  0  0
 58 57  1  0  0  0  0
 58 61  1  0  0  0  0
 59 58  1  0  0  0  0
 60 58  1  0  0  0  0
 61 62  1  0  0  0  0
 61 63  1  0  0  0  0
 64 65  1  0  0  0  0
 64 61  1  0  0  0  0
 64 75  1  0  0  0  0
 65 67  1  0  0  0  0
 66 65  1  0  0  0  0
 68 70  1  0  0  0  0
 68 65  1  0  0  0  0
 68 71  1  0  0  0  0
 69 68  1  0  0  0  0
 72 71  1  0  0  0  0
 72 75  1  0  0  0  0
 72 74  1  0  0  0  0
 73 72  1  0  0  0  0
 75 76  1  0  0  0  0
 77 75  1  0  0  0  0
M  END
>  <Pose>
1

>  <Score>
-12.58

$$$$

 OpenBabel03102210523D

 77 81  0  0  1  0  0  0  0  0999 V2000
   55.1780   93.0920   23.1840 C   0  0  0  0  0  0  0  0  0  0  0  0
   54.0590   93.4970   22.9070 O   0  0  0  0  0  0  0  0  0  0  0  0
   55.8910   93.6440   24.2070 N   0  0  0  0  0  0  0  0  0  0  0  0
   56.8300   93.3100   24.3670 H   0  0  0  0  0  0  0  0  0  0  0  0
   55.3920   94.6510   25.0510 C   0  0  0  0  0  0  0  0  0  0  0  0
   56.0870   95.8690   25.2860 C   0  0  0  0  0  0  0  0  0  0  0  0
   55.5070   96.8300   26.1740 C   0  0  0  0  0  0  0  0  0  0  0  0
   54.2540   96.5500   26.8080 C   0  0  0  0  0  0  0  0  0  0  0  0
   53.6180   95.3660   26.5530 C   0  0  0  0  0  0  0  0  0  0  0  0
   52.6660   95.1620   27.0190 H   0  0  0  0  0  0  0  0  0  0  0  0
   54.1840   94.4190   25.6980 C   0  0  0  0  0  0  0  0  0  0  0  0
   53.6700   93.4830   25.5360 H   0  0  0  0  0  0  0  0  0  0  0  0
   55.7570   92.0930   22.4810 N   0  0  0  0  0  0  0  0  0  0  0  0
   56.7010   91.8340   22.7310 H   0  0  0  0  0  0  0  0  0  0  0  0
   55.1510   91.3920   21.4360 C   0  0  0  0  0  0  0  0  0  0  0  0
   55.1370   90.0340   21.3380 N   0  0  0  0  0  0  0  0  0  0  0  0
   54.4580   89.6790   20.1870 N   0  0  0  0  0  0  0  0  0  0  0  0
   54.0510   90.7670   19.5940 C   0  0  2  0  0  0  0  0  0  0  0  0
   54.9830   90.8060   19.0310 H   0  0  0  0  0  0  0  0  0  0  0  0
   54.4660   91.8720   20.3540 C   0  0  0  0  0  0  0  0  0  0  0  0
   54.2790   92.9100   20.1250 H   0  0  0  0  0  0  0  0  0  0  0  0
   55.7200   89.1080   22.2080 C   0  0  0  0  0  0  0  0  0  0  0  0
   53.2720   90.7890   18.3030 C   0  0  0  0  0  0  0  0  0  0  0  0
   52.0900   91.7380   18.5010 C   0  0  0  0  0  0  0  0  0  0  0  0
   52.4600   92.7320   18.7510 H   0  0  0  0  0  0  0  0  0  0  0  0
   51.4610   91.3700   19.3120 H   0  0  0  0  0  0  0  0  0  0  0  0
   51.5060   91.7870   17.5820 H   0  0  0  0  0  0  0  0  0  0  0  0
   54.1270   91.3130   17.1420 C   0  0  0  0  0  0  0  0  0  0  0  0
   54.4740   92.3210   17.3720 H   0  0  0  0  0  0  0  0  0  0  0  0
   53.5290   91.3340   16.2310 H   0  0  0  0  0  0  0  0  0  0  0  0
   54.9860   90.6580   16.9990 H   0  0  0  0  0  0  0  0  0  0  0  0
   52.8020   89.3760   17.9500 C   0  0  0  0  0  0  0  0  0  0  0  0
   52.1920   88.9830   18.7620 H   0  0  0  0  0  0  0  0  0  0  0  0
   53.6690   88.7320   17.8010 H   0  0  0  0  0  0  0  0  0  0  0  0
   52.2120   89.4080   17.0340 H   0  0  0  0  0  0  0  0  0  0  0  0
   55.5550   89.3040   23.5750 C   0  0  0  0  0  0  0  0  0  0  0  0
   54.9880   90.1450   23.9460 H   0  0  0  0  0  0  0  0  0  0  0  0
   56.1290   88.4040   24.4500 C   0  0  0  0  0  0  0  0  0  0  0  0
   56.0180   88.5430   25.5150 H   0  0  0  0  0  0  0  0  0  0  0  0
   56.8500   87.3200   23.9630 C   0  0  0  0  0  0  0  0  0  0  0  0
   57.0140   87.1320   22.6030 C   0  0  0  0  0  0  0  0  0  0  0  0
   57.5770   86.2870   22.2350 H   0  0  0  0  0  0  0  0  0  0  0  0
   56.4540   88.0290   21.7190 C   0  0  0  0  0  0  0  0  0  0  0  0
   56.5840   87.8960   20.6550 H   0  0  0  0  0  0  0  0  0  0  0  0
   57.4610   86.3450   24.9280 C   0  0  0  0  0  0  0  0  0  0  0  0
   57.2300   86.6510   25.9480 H   0  0  0  0  0  0  0  0  0  0  0  0
   58.5420   86.3260   24.7900 H   0  0  0  0  0  0  0  0  0  0  0  0
   57.0540   85.3500   24.7460 H   0  0  0  0  0  0  0  0  0  0  0  0
   57.3240   96.1620   24.6650 C   0  0  0  0  0  0  0  0  0  0  0  0
   57.7730   95.4440   23.9930 H   0  0  0  0  0  0  0  0  0  0  0  0
   57.9530   97.3480   24.9110 C   0  0  0  0  0  0  0  0  0  0  0  0
   58.8950   97.5610   24.4280 H   0  0  0  0  0  0  0  0  0  0  0  0
   57.3950   98.2960   25.7840 C   0  0  0  0  0  0  0  0  0  0  0  0
   57.9120   99.2260   25.9690 H   0  0  0  0  0  0  0  0  0  0  0  0
   56.1990   98.0490   26.4010 C   0  0  0  0  0  0  0  0  0  0  0  0
   55.7780   98.7870   27.0670 H   0  0  0  0  0  0  0  0  0  0  0  0
   53.7200   97.4810   27.6590 O   0  0  0  0  0  0  0  0  0  0  0  0
   52.7680   98.3610   27.0560 C   0  0  0  0  0  0  0  0  0  0  0  0
   52.0040   97.7820   26.5370 H   0  0  0  0  0  0  0  0  0  0  0  0
   53.2680   99.0210   26.3470 H   0  0  0  0  0  0  0  0  0  0  0  0
   52.1230   99.1910   28.1760 C   0  0  0  0  0  0  0  0  0  0  0  0
   52.5380  100.1990   28.1560 H   0  0  0  0  0  0  0  0  0  0  0  0
   52.3450   98.7260   29.1360 H   0  0  0  0  0  0  0  0  0  0  0  0
   50.6490   99.2710   28.0070 N   0  0  0  0  0  0  0  0  0  0  0  0
   50.1420  100.5640   28.5210 C   0  0  0  0  0  0  0  0  0  0  0  0
   50.6230  101.3860   27.9900 H   0  0  0  0  0  0  0  0  0  0  0  0
   50.3550  100.6470   29.5870 H   0  0  0  0  0  0  0  0  0  0  0  0
   48.6330  100.6100   28.2880 C   0  0  0  0  0  0  0  0  0  0  0  0
   48.4160  100.4520   27.2320 H   0  0  0  0  0  0  0  0  0  0  0  0
   48.2400  101.5790   28.5980 H   0  0  0  0  0  0  0  0  0  0  0  0
   48.0340   99.5710   29.0680 O   0  0  0  0  0  0  0  0  0  0  0  0
   48.5120   98.2950   28.6370 C   0  0  0  0  0  0  0  0  0  0  0  0
   48.2730   98.1550   27.5830 H   0  0  0  0  0  0  0  0  0  0  0  0
   48.0320   97.5120   29.2250 H   0  0  0  0  0  0  0  0  0  0  0  0
   50.0270   98.2180   28.8300 C   0  0  0  0  0  0  0  0  0  0  0  0
   50.2750   98.3750   29.8800 H   0  0  0  0  0  0  0  0  0  0  0  0
   50.3910   97.2400   28.5140 H   0  0  0  0  0  0  0  0  0  0  0  0
  1  3  1  0  0  0  0
  2  1  2  0  0  0  0
  3  4  1  0  0  0  0
  3  5  1  0  0  0  0
  5  6  2  0  0  0  0
  5 11  1  0  0  0  0
  6  7  1  0  0  0  0
  7 55  1  0  0  0  0
  7  8  2  0  0  0  0
  8 57  1  0  0  0  0
  9  8  1  0  0  0  0
  9 10  1  0  0  0  0
 11  9  2  0  0  0  0
 12 11  1  0  0  0  0
 13 14  1  0  0  0  0
 13  1  1  0  0  0  0
 15 13  1  0  0  0  0
 16 15  1  0  0  0  0
 16 22  1  0  0  0  0
 17 16  1  0  0  0  0
 18 19  1  6  0  0  0
 18 17  1  0  0  0  0
 18 20  1  0  0  0  0
 20 15  2  0  0  0  0
 21 20  1  0  0  0  0
 22 36  1  0  0  0  0
 23 24  1  0  0  0  0
 23 18  1  0  0  0  0
 24 25  1  0  0  0  0
 24 26  1  0  0  0  0
 27 24  1  0  0  0  0
 28 29  1  0  0  0  0
 28 23  1  0  0  0  0
 30 28  1  0  0  0  0
 31 28  1  0  0  0  0
 32 23  1  0  0  0  0
 32 33  1  0  0  0  0
 34 32  1  0  0  0  0
 35 32  1  0  0  0  0
 36 37  1  0  0  0  0
 36 38  2  0  0  0  0
 38 39  1  0  0  0  0
 40 38  1  0  0  0  0
 40 45  1  0  0  0  0
 41 40  2  0  0  0  0
 42 41  1  0  0  0  0
 43 22  2  0  0  0  0
 43 41  1  0  0  0  0
 44 43  1  0  0  0  0
 45 46  1  0  0  0  0
 47 45  1  0  0  0  0
 48 45  1  0  0  0  0
 49 51  2  0  0  0  0
 49  6  1  0  0  0  0
 50 49  1  0  0  0  0
 51 53  1  0  0  0  0
 52 51  1  0  0  0  0
 53 54  1  0  0  0  0
 53 55  2  0  0  0  0
 55 56  1  0  0  0  0
 58 57  1  0  0  0  0
 58 61  1  0  0  0  0
 59 58  1  0  0  0  0
 60 58  1  0  0  0  0
 61 63  1  0  0  0  0
 62 61  1  0  0  0  0
 64 61  1  0  0  0  0
 64 65  1  0  0  0  0
 64 75  1  0  0  0  0
 65 67  1  0  0  0  0
 66 65  1  0  0  0  0
 68 65  1  0  0  0  0
 68 70  1  0  0  0  0
 68 71  1  0  0  0  0
 69 68  1  0  0  0  0
 72 75  1  0  0  0  0
 72 71  1  0  0  0  0
 72 74  1  0  0  0  0
 73 72  1  0  0  0  0
 75 76  1  0  0  0  0
 77 75  1  0  0  0  0
M  END
>  <Pose>
1

>  <Score>
-12.37

$$$$
