
 OpenBabel03092210543D

 77 81  0  0  1  0  0  0  0  0999 V2000
   55.0730   93.0670   23.2280 C   0  0  0  0  0  0  0  0  0  0  0  0
   53.9690   93.5220   22.9700 O   0  0  0  0  0  0  0  0  0  0  0  0
   55.8330   93.5940   24.2310 N   0  0  0  0  0  0  0  0  0  0  0  0
   56.7590   93.2170   24.3750 H   0  0  0  0  0  0  0  0  0  0  0  0
   55.4000   94.6310   25.0750 C   0  0  0  0  0  0  0  0  0  0  0  0
   56.1510   95.8220   25.2740 C   0  0  0  0  0  0  0  0  0  0  0  0
   55.6360   96.8170   26.1640 C   0  0  0  0  0  0  0  0  0  0  0  0
   54.3920   96.5970   26.8370 C   0  0  0  0  0  0  0  0  0  0  0  0
   53.7000   95.4380   26.6160 C   0  0  0  0  0  0  0  0  0  0  0  0
   52.7540   95.2790   27.1110 H   0  0  0  0  0  0  0  0  0  0  0  0
   54.2020   94.4570   25.7580 C   0  0  0  0  0  0  0  0  0  0  0  0
   53.6460   93.5420   25.6230 H   0  0  0  0  0  0  0  0  0  0  0  0
   55.5900   92.0350   22.5240 N   0  0  0  0  0  0  0  0  0  0  0  0
   56.5250   91.7340   22.7570 H   0  0  0  0  0  0  0  0  0  0  0  0
   54.9290   91.3550   21.4980 C   0  0  0  0  0  0  0  0  0  0  0  0
   54.9110   89.9990   21.3750 N   0  0  0  0  0  0  0  0  0  0  0  0
   54.1720   89.6660   20.2540 N   0  0  0  0  0  0  0  0  0  0  0  0
   53.7340   90.7650   19.7050 C   0  0  2  0  0  0  0  0  0  0  0  0
   54.6360   90.8160   19.0940 H   0  0  0  0  0  0  0  0  0  0  0  0
   54.1890   91.8550   20.4630 C   0  0  0  0  0  0  0  0  0  0  0  0
   53.9900   92.8980   20.2660 H   0  0  0  0  0  0  0  0  0  0  0  0
   55.5380   89.0570   22.1940 C   0  0  0  0  0  0  0  0  0  0  0  0
   52.8890   90.8120   18.4570 C   0  0  0  0  0  0  0  0  0  0  0  0
   52.4020   89.3890   18.1820 C   0  0  0  0  0  0  0  0  0  0  0  0
   51.8220   89.0330   19.0340 H   0  0  0  0  0  0  0  0  0  0  0  0
   53.2600   88.7350   18.0290 H   0  0  0  0  0  0  0  0  0  0  0  0
   51.7770   89.3850   17.2890 H   0  0  0  0  0  0  0  0  0  0  0  0
   51.6640   91.7170   18.6440 C   0  0  0  0  0  0  0  0  0  0  0  0
   51.0630   91.3470   19.4750 H   0  0  0  0  0  0  0  0  0  0  0  0
   51.0670   91.7140   17.7330 H   0  0  0  0  0  0  0  0  0  0  0  0
   51.9940   92.7340   18.8590 H   0  0  0  0  0  0  0  0  0  0  0  0
   53.7110   91.3580   17.2870 C   0  0  0  0  0  0  0  0  0  0  0  0
   54.5880   90.7290   17.1350 H   0  0  0  0  0  0  0  0  0  0  0  0
   54.0280   92.3760   17.5100 H   0  0  0  0  0  0  0  0  0  0  0  0
   53.1010   91.3560   16.3830 H   0  0  0  0  0  0  0  0  0  0  0  0
   56.1630   87.9750   21.5830 C   0  0  0  0  0  0  0  0  0  0  0  0
   56.1650   87.8770   20.5080 H   0  0  0  0  0  0  0  0  0  0  0  0
   56.7810   87.0290   22.3760 C   0  0  0  0  0  0  0  0  0  0  0  0
   57.2660   86.1780   21.9200 H   0  0  0  0  0  0  0  0  0  0  0  0
   56.7800   87.1690   23.7590 C   0  0  0  0  0  0  0  0  0  0  0  0
   56.1540   88.2450   24.3610 C   0  0  0  0  0  0  0  0  0  0  0  0
   56.1580   88.3440   25.4360 H   0  0  0  0  0  0  0  0  0  0  0  0
   55.5240   89.1910   23.5820 C   0  0  0  0  0  0  0  0  0  0  0  0
   55.0240   90.0300   24.0430 H   0  0  0  0  0  0  0  0  0  0  0  0
   57.4650   86.1360   24.6070 C   0  0  0  0  0  0  0  0  0  0  0  0
   57.8990   85.3700   23.9650 H   0  0  0  0  0  0  0  0  0  0  0  0
   56.7390   85.6790   25.2800 H   0  0  0  0  0  0  0  0  0  0  0  0
   58.2540   86.6110   25.1910 H   0  0  0  0  0  0  0  0  0  0  0  0
   57.3820   96.0550   24.6150 C   0  0  0  0  0  0  0  0  0  0  0  0
   57.7810   95.3110   23.9410 H   0  0  0  0  0  0  0  0  0  0  0  0
   58.0660   97.2170   24.8280 C   0  0  0  0  0  0  0  0  0  0  0  0
   59.0020   97.3850   24.3160 H   0  0  0  0  0  0  0  0  0  0  0  0
   57.5710   98.1990   25.7030 C   0  0  0  0  0  0  0  0  0  0  0  0
   58.1320   99.1080   25.8610 H   0  0  0  0  0  0  0  0  0  0  0  0
   56.3850   98.0090   26.3560 C   0  0  0  0  0  0  0  0  0  0  0  0
   56.0130   98.7720   27.0240 H   0  0  0  0  0  0  0  0  0  0  0  0
   53.9210   97.5610   27.6890 O   0  0  0  0  0  0  0  0  0  0  0  0
   52.6030   97.3210   28.1890 C   0  0  0  0  0  0  0  0  0  0  0  0
   52.6270   96.5260   28.9350 H   0  0  0  0  0  0  0  0  0  0  0  0
   51.9430   97.0320   27.3710 H   0  0  0  0  0  0  0  0  0  0  0  0
   52.1010   98.6230   28.8300 C   0  0  0  0  0  0  0  0  0  0  0  0
   52.9560   99.2630   29.0510 H   0  0  0  0  0  0  0  0  0  0  0  0
   51.5760   98.3850   29.7550 H   0  0  0  0  0  0  0  0  0  0  0  0
   51.1760   99.3490   27.9220 N   0  0  0  0  0  0  0  0  0  0  0  0
   51.9300   99.9730   26.8110 C   0  0  0  0  0  0  0  0  0  0  0  0
   52.4710   99.2060   26.2560 H   0  0  0  0  0  0  0  0  0  0  0  0
   52.6370  100.7010   27.2080 H   0  0  0  0  0  0  0  0  0  0  0  0
   50.9300  100.6710   25.8900 C   0  0  0  0  0  0  0  0  0  0  0  0
   50.1780   99.9580   25.5530 H   0  0  0  0  0  0  0  0  0  0  0  0
   51.4500  101.0860   25.0260 H   0  0  0  0  0  0  0  0  0  0  0  0
   50.3060  101.7220   26.6320 O   0  0  0  0  0  0  0  0  0  0  0  0
   49.5850  101.1810   27.7420 C   0  0  0  0  0  0  0  0  0  0  0  0
   48.8320  100.4820   27.3790 H   0  0  0  0  0  0  0  0  0  0  0  0
   49.0970  101.9900   28.2850 H   0  0  0  0  0  0  0  0  0  0  0  0
   50.5500  100.4500   28.6770 C   0  0  0  0  0  0  0  0  0  0  0  0
   51.3170  101.1390   29.0290 H   0  0  0  0  0  0  0  0  0  0  0  0
   50.0030  100.0480   29.5310 H   0  0  0  0  0  0  0  0  0  0  0  0
  1  3  1  0  0  0  0
  2  1  2  0  0  0  0
  3  4  1  0  0  0  0
  3  5  1  0  0  0  0
  5  6  2  0  0  0  0
  5 11  1  0  0  0  0
  6  7  1  0  0  0  0
  7 55  1  0  0  0  0
  7  8  2  0  0  0  0
  8 57  1  0  0  0  0
  9  8  1  0  0  0  0
  9 10  1  0  0  0  0
 11  9  2  0  0  0  0
 12 11  1  0  0  0  0
 13 14  1  0  0  0  0
 13  1  1  0  0  0  0
 15 13  1  0  0  0  0
 16 15  1  0  0  0  0
 16 22  1  0  0  0  0
 17 16  1  0  0  0  0
 18 19  1  6  0  0  0
 18 17  1  0  0  0  0
 18 20  1  0  0  0  0
 20 15  2  0  0  0  0
 21 20  1  0  0  0  0
 22 43  1  0  0  0  0
 23 28  1  0  0  0  0
 23 18  1  0  0  0  0
 24 23  1  0  0  0  0
 24 25  1  0  0  0  0
 26 24  1  0  0  0  0
 27 24  1  0  0  0  0
 28 31  1  0  0  0  0
 28 29  1  0  0  0  0
 30 28  1  0  0  0  0
 32 34  1  0  0  0  0
 32 23  1  0  0  0  0
 33 32  1  0  0  0  0
 35 32  1  0  0  0  0
 36 22  2  0  0  0  0
 36 38  1  0  0  0  0
 37 36  1  0  0  0  0
 38 40  2  0  0  0  0
 39 38  1  0  0  0  0
 40 41  1  0  0  0  0
 40 45  1  0  0  0  0
 41 42  1  0  0  0  0
 43 44  1  0  0  0  0
 43 41  2  0  0  0  0
 45 48  1  0  0  0  0
 45 47  1  0  0  0  0
 46 45  1  0  0  0  0
 49 51  2  0  0  0  0
 49  6  1  0  0  0  0
 50 49  1  0  0  0  0
 51 53  1  0  0  0  0
 52 51  1  0  0  0  0
 53 54  1  0  0  0  0
 53 55  2  0  0  0  0
 55 56  1  0  0  0  0
 57 58  1  0  0  0  0
 58 61  1  0  0  0  0
 58 59  1  0  0  0  0
 60 58  1  0  0  0  0
 61 62  1  0  0  0  0
 61 63  1  0  0  0  0
 64 75  1  0  0  0  0
 64 61  1  0  0  0  0
 65 67  1  0  0  0  0
 65 64  1  0  0  0  0
 66 65  1  0  0  0  0
 68 71  1  0  0  0  0
 68 65  1  0  0  0  0
 69 68  1  0  0  0  0
 70 68  1  0  0  0  0
 71 72  1  0  0  0  0
 72 74  1  0  0  0  0
 72 75  1  0  0  0  0
 73 72  1  0  0  0  0
 75 76  1  0  0  0  0
 75 77  1  0  0  0  0
M  END
>  <Pose>
5

>  <Score>
-12.75

$$$$

 OpenBabel03092210543D

 77 81  0  0  1  0  0  0  0  0999 V2000
   55.2050   93.0310   23.2490 C   0  0  0  0  0  0  0  0  0  0  0  0
   54.0710   93.4080   22.9950 O   0  0  0  0  0  0  0  0  0  0  0  0
   55.9280   93.6090   24.2500 N   0  0  0  0  0  0  0  0  0  0  0  0
   56.8790   93.2980   24.3910 H   0  0  0  0  0  0  0  0  0  0  0  0
   55.4260   94.6110   25.0970 C   0  0  0  0  0  0  0  0  0  0  0  0
   56.1040   95.8430   25.3130 C   0  0  0  0  0  0  0  0  0  0  0  0
   55.5220   96.7990   26.2050 C   0  0  0  0  0  0  0  0  0  0  0  0
   54.2850   96.5000   26.8620 C   0  0  0  0  0  0  0  0  0  0  0  0
   53.6660   95.3040   26.6250 C   0  0  0  0  0  0  0  0  0  0  0  0
   52.7260   95.0850   27.1100 H   0  0  0  0  0  0  0  0  0  0  0  0
   54.2340   94.3620   25.7670 C   0  0  0  0  0  0  0  0  0  0  0  0
   53.7340   93.4160   25.6180 H   0  0  0  0  0  0  0  0  0  0  0  0
   55.7910   92.0390   22.5410 N   0  0  0  0  0  0  0  0  0  0  0  0
   56.7460   91.8040   22.7710 H   0  0  0  0  0  0  0  0  0  0  0  0
   55.1770   91.3150   21.5170 C   0  0  0  0  0  0  0  0  0  0  0  0
   55.1500   89.9560   21.4570 N   0  0  0  0  0  0  0  0  0  0  0  0
   54.4670   89.5740   20.3170 N   0  0  0  0  0  0  0  0  0  0  0  0
   54.0700   90.6490   19.6940 C   0  0  2  0  0  0  0  0  0  0  0  0
   55.0020   90.6640   19.1290 H   0  0  0  0  0  0  0  0  0  0  0  0
   54.4960   91.7710   20.4220 C   0  0  0  0  0  0  0  0  0  0  0  0
   54.3190   92.8050   20.1640 H   0  0  0  0  0  0  0  0  0  0  0  0
   55.7240   89.0490   22.3520 C   0  0  0  0  0  0  0  0  0  0  0  0
   53.2900   90.6430   18.4030 C   0  0  0  0  0  0  0  0  0  0  0  0
   52.0910   91.5730   18.5910 C   0  0  0  0  0  0  0  0  0  0  0  0
   52.4430   92.5770   18.8290 H   0  0  0  0  0  0  0  0  0  0  0  0
   51.4690   91.2040   19.4060 H   0  0  0  0  0  0  0  0  0  0  0  0
   51.5060   91.6020   17.6720 H   0  0  0  0  0  0  0  0  0  0  0  0
   54.1350   91.1690   17.2360 C   0  0  0  0  0  0  0  0  0  0  0  0
   54.4640   92.1850   17.4540 H   0  0  0  0  0  0  0  0  0  0  0  0
   53.5360   91.1680   16.3250 H   0  0  0  0  0  0  0  0  0  0  0  0
   55.0050   90.5270   17.0990 H   0  0  0  0  0  0  0  0  0  0  0  0
   52.8450   89.2180   18.0660 C   0  0  0  0  0  0  0  0  0  0  0  0
   52.2410   88.8230   18.8840 H   0  0  0  0  0  0  0  0  0  0  0  0
   53.7220   88.5870   17.9250 H   0  0  0  0  0  0  0  0  0  0  0  0
   52.2530   89.2290   17.1510 H   0  0  0  0  0  0  0  0  0  0  0  0
   55.5190   89.2550   23.7120 C   0  0  0  0  0  0  0  0  0  0  0  0
   54.9280   90.0900   24.0580 H   0  0  0  0  0  0  0  0  0  0  0  0
   56.0840   88.3750   24.6120 C   0  0  0  0  0  0  0  0  0  0  0  0
   55.9420   88.5220   25.6720 H   0  0  0  0  0  0  0  0  0  0  0  0
   56.8370   87.2980   24.1550 C   0  0  0  0  0  0  0  0  0  0  0  0
   57.0410   87.1000   22.8020 C   0  0  0  0  0  0  0  0  0  0  0  0
   57.6280   86.2610   22.4590 H   0  0  0  0  0  0  0  0  0  0  0  0
   56.4910   87.9770   21.8940 C   0  0  0  0  0  0  0  0  0  0  0  0
   56.6510   87.8360   20.8350 H   0  0  0  0  0  0  0  0  0  0  0  0
   57.4380   86.3440   25.1470 C   0  0  0  0  0  0  0  0  0  0  0  0
   57.1740   86.6560   26.1570 H   0  0  0  0  0  0  0  0  0  0  0  0
   58.5230   86.3420   25.0390 H   0  0  0  0  0  0  0  0  0  0  0  0
   57.0530   85.3400   24.9650 H   0  0  0  0  0  0  0  0  0  0  0  0
   57.3250   96.1540   24.6690 C   0  0  0  0  0  0  0  0  0  0  0  0
   57.7740   95.4410   23.9940 H   0  0  0  0  0  0  0  0  0  0  0  0
   57.9360   97.3530   24.8970 C   0  0  0  0  0  0  0  0  0  0  0  0
   58.8660   97.5800   24.3960 H   0  0  0  0  0  0  0  0  0  0  0  0
   57.3760   98.2970   25.7740 C   0  0  0  0  0  0  0  0  0  0  0  0
   57.8790   99.2370   25.9450 H   0  0  0  0  0  0  0  0  0  0  0  0
   56.1960   98.0320   26.4130 C   0  0  0  0  0  0  0  0  0  0  0  0
   55.7730   98.7660   27.0820 H   0  0  0  0  0  0  0  0  0  0  0  0
   53.7490   97.4280   27.7170 O   0  0  0  0  0  0  0  0  0  0  0  0
   52.4060   97.1550   28.1250 C   0  0  0  0  0  0  0  0  0  0  0  0
   52.3890   96.2960   28.7950 H   0  0  0  0  0  0  0  0  0  0  0  0
   51.7880   96.9480   27.2520 H   0  0  0  0  0  0  0  0  0  0  0  0
   51.8780   98.3980   28.8560 C   0  0  0  0  0  0  0  0  0  0  0  0
   52.7230   98.9970   29.1960 H   0  0  0  0  0  0  0  0  0  0  0  0
   51.2880   98.0810   29.7160 H   0  0  0  0  0  0  0  0  0  0  0  0
   51.0260   99.2260   27.9640 N   0  0  0  0  0  0  0  0  0  0  0  0
   51.8440   99.8310   26.8880 C   0  0  0  0  0  0  0  0  0  0  0  0
   52.3340   99.0470   26.3120 H   0  0  0  0  0  0  0  0  0  0  0  0
   52.5980  100.4880   27.3220 H   0  0  0  0  0  0  0  0  0  0  0  0
   50.9160  100.6380   25.9810 C   0  0  0  0  0  0  0  0  0  0  0  0
   50.1170   99.9980   25.6070 H   0  0  0  0  0  0  0  0  0  0  0  0
   51.4800  101.0440   25.1410 H   0  0  0  0  0  0  0  0  0  0  0  0
   50.3600  101.7050   26.7540 O   0  0  0  0  0  0  0  0  0  0  0  0
   49.5820  101.1800   27.8320 C   0  0  0  0  0  0  0  0  0  0  0  0
   48.7850  100.5550   27.4320 H   0  0  0  0  0  0  0  0  0  0  0  0
   49.1480  102.0040   28.4000 H   0  0  0  0  0  0  0  0  0  0  0  0
   50.4730  100.3430   28.7520 C   0  0  0  0  0  0  0  0  0  0  0  0
   51.2840  100.9580   29.1410 H   0  0  0  0  0  0  0  0  0  0  0  0
   49.8830   99.9520   29.5820 H   0  0  0  0  0  0  0  0  0  0  0  0
  1  3  1  0  0  0  0
  2  1  2  0  0  0  0
  3  4  1  0  0  0  0
  3  5  1  0  0  0  0
  5  6  2  0  0  0  0
  5 11  1  0  0  0  0
  6  7  1  0  0  0  0
  7 55  1  0  0  0  0
  7  8  2  0  0  0  0
  8 57  1  0  0  0  0
  9  8  1  0  0  0  0
  9 10  1  0  0  0  0
 11  9  2  0  0  0  0
 12 11  1  0  0  0  0
 13 14  1  0  0  0  0
 13  1  1  0  0  0  0
 15 13  1  0  0  0  0
 16 15  1  0  0  0  0
 16 22  1  0  0  0  0
 17 16  1  0  0  0  0
 18 19  1  6  0  0  0
 18 17  1  0  0  0  0
 18 20  1  0  0  0  0
 20 15  2  0  0  0  0
 21 20  1  0  0  0  0
 22 36  1  0  0  0  0
 23 24  1  0  0  0  0
 23 18  1  0  0  0  0
 24 25  1  0  0  0  0
 24 26  1  0  0  0  0
 27 24  1  0  0  0  0
 28 29  1  0  0  0  0
 28 23  1  0  0  0  0
 30 28  1  0  0  0  0
 31 28  1  0  0  0  0
 32 23  1  0  0  0  0
 32 33  1  0  0  0  0
 34 32  1  0  0  0  0
 35 32  1  0  0  0  0
 36 37  1  0  0  0  0
 36 38  2  0  0  0  0
 38 39  1  0  0  0  0
 40 38  1  0  0  0  0
 40 45  1  0  0  0  0
 41 40  2  0  0  0  0
 42 41  1  0  0  0  0
 43 22  2  0  0  0  0
 43 41  1  0  0  0  0
 44 43  1  0  0  0  0
 45 46  1  0  0  0  0
 47 45  1  0  0  0  0
 48 45  1  0  0  0  0
 49 51  2  0  0  0  0
 49  6  1  0  0  0  0
 50 49  1  0  0  0  0
 51 53  1  0  0  0  0
 52 51  1  0  0  0  0
 53 54  1  0  0  0  0
 53 55  2  0  0  0  0
 55 56  1  0  0  0  0
 57 58  1  0  0  0  0
 58 59  1  0  0  0  0
 58 61  1  0  0  0  0
 60 58  1  0  0  0  0
 61 62  1  0  0  0  0
 61 63  1  0  0  0  0
 64 75  1  0  0  0  0
 64 61  1  0  0  0  0
 65 67  1  0  0  0  0
 65 64  1  0  0  0  0
 66 65  1  0  0  0  0
 68 71  1  0  0  0  0
 68 65  1  0  0  0  0
 69 68  1  0  0  0  0
 70 68  1  0  0  0  0
 71 72  1  0  0  0  0
 72 74  1  0  0  0  0
 72 75  1  0  0  0  0
 73 72  1  0  0  0  0
 75 76  1  0  0  0  0
 75 77  1  0  0  0  0
M  END
>  <Pose>
1

>  <Score>
-12.63

$$$$

 OpenBabel03092210543D

 77 81  0  0  1  0  0  0  0  0999 V2000
   55.2880   93.0850   23.1300 C   0  0  0  0  0  0  0  0  0  0  0  0
   54.1680   93.5190   22.9080 O   0  0  0  0  0  0  0  0  0  0  0  0
   56.0590   93.6070   24.1260 N   0  0  0  0  0  0  0  0  0  0  0  0
   56.9960   93.2490   24.2400 H   0  0  0  0  0  0  0  0  0  0  0  0
   55.6230   94.6160   25.0020 C   0  0  0  0  0  0  0  0  0  0  0  0
   56.3680   95.8040   25.2350 C   0  0  0  0  0  0  0  0  0  0  0  0
   55.8510   96.7690   26.1570 C   0  0  0  0  0  0  0  0  0  0  0  0
   54.6080   96.5220   26.8250 C   0  0  0  0  0  0  0  0  0  0  0  0
   53.9230   95.3670   26.5700 C   0  0  0  0  0  0  0  0  0  0  0  0
   52.9780   95.1880   27.0620 H   0  0  0  0  0  0  0  0  0  0  0  0
   54.4270   94.4160   25.6820 C   0  0  0  0  0  0  0  0  0  0  0  0
   53.8750   93.5010   25.5200 H   0  0  0  0  0  0  0  0  0  0  0  0
   55.8120   92.0800   22.3910 N   0  0  0  0  0  0  0  0  0  0  0  0
   56.7590   91.7950   22.5960 H   0  0  0  0  0  0  0  0  0  0  0  0
   55.1420   91.4060   21.3670 C   0  0  0  0  0  0  0  0  0  0  0  0
   55.0490   90.0510   21.2840 N   0  0  0  0  0  0  0  0  0  0  0  0
   54.3250   89.7240   20.1510 N   0  0  0  0  0  0  0  0  0  0  0  0
   53.9680   90.8290   19.5560 C   0  0  2  0  0  0  0  0  0  0  0  0
   54.8880   90.8090   18.9720 H   0  0  0  0  0  0  0  0  0  0  0  0
   54.4620   91.9150   20.2950 C   0  0  0  0  0  0  0  0  0  0  0  0
   54.3300   92.9600   20.0600 H   0  0  0  0  0  0  0  0  0  0  0  0
   55.5960   89.1000   22.1500 C   0  0  0  0  0  0  0  0  0  0  0  0
   53.1620   90.8850   18.2820 C   0  0  0  0  0  0  0  0  0  0  0  0
   54.1320   91.2030   17.1440 C   0  0  0  0  0  0  0  0  0  0  0  0
   54.8950   90.4260   17.0890 H   0  0  0  0  0  0  0  0  0  0  0  0
   54.6070   92.1660   17.3300 H   0  0  0  0  0  0  0  0  0  0  0  0
   53.5860   91.2430   16.2020 H   0  0  0  0  0  0  0  0  0  0  0  0
   52.4890   89.5390   17.9860 C   0  0  0  0  0  0  0  0  0  0  0  0
   53.2500   88.7630   17.8980 H   0  0  0  0  0  0  0  0  0  0  0  0
   51.9330   89.6090   17.0510 H   0  0  0  0  0  0  0  0  0  0  0  0
   51.8070   89.2870   18.7970 H   0  0  0  0  0  0  0  0  0  0  0  0
   52.0700   91.9490   18.3990 C   0  0  0  0  0  0  0  0  0  0  0  0
   52.5260   92.9170   18.6100 H   0  0  0  0  0  0  0  0  0  0  0  0
   51.3890   91.6840   19.2090 H   0  0  0  0  0  0  0  0  0  0  0  0
   51.5150   92.0060   17.4620 H   0  0  0  0  0  0  0  0  0  0  0  0
   56.2270   87.9940   21.5900 C   0  0  0  0  0  0  0  0  0  0  0  0
   56.2930   87.8840   20.5180 H   0  0  0  0  0  0  0  0  0  0  0  0
   56.7670   87.0410   22.4290 C   0  0  0  0  0  0  0  0  0  0  0  0
   57.2550   86.1710   22.0130 H   0  0  0  0  0  0  0  0  0  0  0  0
   56.6840   87.1970   23.8080 C   0  0  0  0  0  0  0  0  0  0  0  0
   56.0520   88.2970   24.3590 C   0  0  0  0  0  0  0  0  0  0  0  0
   55.9920   88.4070   25.4320 H   0  0  0  0  0  0  0  0  0  0  0  0
   55.5000   89.2510   23.5330 C   0  0  0  0  0  0  0  0  0  0  0  0
   54.9970   90.1090   23.9530 H   0  0  0  0  0  0  0  0  0  0  0  0
   57.2840   86.1550   24.7070 C   0  0  0  0  0  0  0  0  0  0  0  0
   57.7350   85.3690   24.1020 H   0  0  0  0  0  0  0  0  0  0  0  0
   56.5050   85.7260   25.3380 H   0  0  0  0  0  0  0  0  0  0  0  0
   58.0480   86.6130   25.3350 H   0  0  0  0  0  0  0  0  0  0  0  0
   57.5960   96.0640   24.5810 C   0  0  0  0  0  0  0  0  0  0  0  0
   57.9970   95.3430   23.8840 H   0  0  0  0  0  0  0  0  0  0  0  0
   58.2750   97.2230   24.8280 C   0  0  0  0  0  0  0  0  0  0  0  0
   59.2080   97.4100   24.3190 H   0  0  0  0  0  0  0  0  0  0  0  0
   57.7770   98.1740   25.7330 C   0  0  0  0  0  0  0  0  0  0  0  0
   58.3330   99.0820   25.9180 H   0  0  0  0  0  0  0  0  0  0  0  0
   56.5930   97.9580   26.3830 C   0  0  0  0  0  0  0  0  0  0  0  0
   56.2190   98.6990   27.0740 H   0  0  0  0  0  0  0  0  0  0  0  0
   54.1340   97.4570   27.7070 O   0  0  0  0  0  0  0  0  0  0  0  0
   52.7830   97.8630   27.4760 C   0  0  0  0  0  0  0  0  0  0  0  0
   52.1320   96.9890   27.4530 H   0  0  0  0  0  0  0  0  0  0  0  0
   52.7120   98.3940   26.5270 H   0  0  0  0  0  0  0  0  0  0  0  0
   52.3700   98.7920   28.6270 C   0  0  0  0  0  0  0  0  0  0  0  0
   53.2560   99.0600   29.2030 H   0  0  0  0  0  0  0  0  0  0  0  0
   51.6640   98.2680   29.2710 H   0  0  0  0  0  0  0  0  0  0  0  0
   51.7310  100.0320   28.1160 N   0  0  0  0  0  0  0  0  0  0  0  0
   50.4440  100.2700   28.8090 C   0  0  0  0  0  0  0  0  0  0  0  0
   50.6120  100.3530   29.8830 H   0  0  0  0  0  0  0  0  0  0  0  0
   49.7600   99.4440   28.6110 H   0  0  0  0  0  0  0  0  0  0  0  0
   49.8500  101.5730   28.2750 C   0  0  0  0  0  0  0  0  0  0  0  0
   50.5650  102.3850   28.4040 H   0  0  0  0  0  0  0  0  0  0  0  0
   48.9320  101.8080   28.8130 H   0  0  0  0  0  0  0  0  0  0  0  0
   49.5660  101.3920   26.8850 O   0  0  0  0  0  0  0  0  0  0  0  0
   50.7730  101.1260   26.1660 C   0  0  0  0  0  0  0  0  0  0  0  0
   51.4650  101.9570   26.3010 H   0  0  0  0  0  0  0  0  0  0  0  0
   50.5450  101.0120   25.1060 H   0  0  0  0  0  0  0  0  0  0  0  0
   51.4130   99.8390   26.6900 C   0  0  0  0  0  0  0  0  0  0  0  0
   50.7180   99.0080   26.5750 H   0  0  0  0  0  0  0  0  0  0  0  0
   52.3270   99.6290   26.1330 H   0  0  0  0  0  0  0  0  0  0  0  0
  1  3  1  0  0  0  0
  2  1  2  0  0  0  0
  3  4  1  0  0  0  0
  3  5  1  0  0  0  0
  5  6  2  0  0  0  0
  5 11  1  0  0  0  0
  6  7  1  0  0  0  0
  7 55  1  0  0  0  0
  7  8  2  0  0  0  0
  8 57  1  0  0  0  0
  9  8  1  0  0  0  0
  9 10  1  0  0  0  0
 11  9  2  0  0  0  0
 12 11  1  0  0  0  0
 13 14  1  0  0  0  0
 13  1  1  0  0  0  0
 15 13  1  0  0  0  0
 16 15  1  0  0  0  0
 16 22  1  0  0  0  0
 17 16  1  0  0  0  0
 18 19  1  6  0  0  0
 18 17  1  0  0  0  0
 18 20  1  0  0  0  0
 20 15  2  0  0  0  0
 21 20  1  0  0  0  0
 22 43  1  0  0  0  0
 23 32  1  0  0  0  0
 23 18  1  0  0  0  0
 24 26  1  0  0  0  0
 24 23  1  0  0  0  0
 25 24  1  0  0  0  0
 27 24  1  0  0  0  0
 28 23  1  0  0  0  0
 28 31  1  0  0  0  0
 29 28  1  0  0  0  0
 30 28  1  0  0  0  0
 32 33  1  0  0  0  0
 32 34  1  0  0  0  0
 35 32  1  0  0  0  0
 36 22  2  0  0  0  0
 36 38  1  0  0  0  0
 37 36  1  0  0  0  0
 38 40  2  0  0  0  0
 39 38  1  0  0  0  0
 40 41  1  0  0  0  0
 40 45  1  0  0  0  0
 41 42  1  0  0  0  0
 43 44  1  0  0  0  0
 43 41  2  0  0  0  0
 45 48  1  0  0  0  0
 45 47  1  0  0  0  0
 46 45  1  0  0  0  0
 49 51  2  0  0  0  0
 49  6  1  0  0  0  0
 50 49  1  0  0  0  0
 51 53  1  0  0  0  0
 52 51  1  0  0  0  0
 53 54  1  0  0  0  0
 53 55  2  0  0  0  0
 55 56  1  0  0  0  0
 58 57  1  0  0  0  0
 58 61  1  0  0  0  0
 59 58  1  0  0  0  0
 60 58  1  0  0  0  0
 61 62  1  0  0  0  0
 61 63  1  0  0  0  0
 64 61  1  0  0  0  0
 64 65  1  0  0  0  0
 65 66  1  0  0  0  0
 67 65  1  0  0  0  0
 68 69  1  0  0  0  0
 68 65  1  0  0  0  0
 68 70  1  0  0  0  0
 71 68  1  0  0  0  0
 72 73  1  0  0  0  0
 72 75  1  0  0  0  0
 72 71  1  0  0  0  0
 74 72  1  0  0  0  0
 75 64  1  0  0  0  0
 76 75  1  0  0  0  0
 77 75  1  0  0  0  0
M  END
>  <Pose>
3

>  <Score>
-12.59

$$$$

 OpenBabel03092210543D

 77 81  0  0  1  0  0  0  0  0999 V2000
   55.1910   93.0110   23.2590 C   0  0  0  0  0  0  0  0  0  0  0  0
   54.0980   93.4660   22.9570 O   0  0  0  0  0  0  0  0  0  0  0  0
   55.8830   93.4970   24.3280 N   0  0  0  0  0  0  0  0  0  0  0  0
   56.8040   93.1240   24.5090 H   0  0  0  0  0  0  0  0  0  0  0  0
   55.3880   94.4890   25.1920 C   0  0  0  0  0  0  0  0  0  0  0  0
   56.0630   95.7220   25.4110 C   0  0  0  0  0  0  0  0  0  0  0  0
   55.4880   96.6650   26.3210 C   0  0  0  0  0  0  0  0  0  0  0  0
   54.2620   96.3550   26.9910 C   0  0  0  0  0  0  0  0  0  0  0  0
   53.6450   95.1580   26.7500 C   0  0  0  0  0  0  0  0  0  0  0  0
   52.7130   94.9300   27.2450 H   0  0  0  0  0  0  0  0  0  0  0  0
   54.2060   94.2270   25.8750 C   0  0  0  0  0  0  0  0  0  0  0  0
   53.7080   93.2810   25.7230 H   0  0  0  0  0  0  0  0  0  0  0  0
   55.7620   92.0180   22.5390 N   0  0  0  0  0  0  0  0  0  0  0  0
   56.6850   91.7150   22.8130 H   0  0  0  0  0  0  0  0  0  0  0  0
   55.1710   91.3800   21.4460 C   0  0  0  0  0  0  0  0  0  0  0  0
   55.1670   90.0300   21.2650 N   0  0  0  0  0  0  0  0  0  0  0  0
   54.5030   89.7420   20.0870 N   0  0  0  0  0  0  0  0  0  0  0  0
   54.0970   90.8630   19.5570 C   0  0  2  0  0  0  0  0  0  0  0  0
   55.0350   90.9410   19.0080 H   0  0  0  0  0  0  0  0  0  0  0  0
   54.4960   91.9210   20.3870 C   0  0  0  0  0  0  0  0  0  0  0  0
   54.3060   92.9710   20.2210 H   0  0  0  0  0  0  0  0  0  0  0  0
   55.7450   89.0560   22.0830 C   0  0  0  0  0  0  0  0  0  0  0  0
   53.3320   90.9600   18.2600 C   0  0  0  0  0  0  0  0  0  0  0  0
   54.3490   91.2360   17.1520 C   0  0  0  0  0  0  0  0  0  0  0  0
   55.0760   90.4240   17.1160 H   0  0  0  0  0  0  0  0  0  0  0  0
   54.8630   92.1750   17.3560 H   0  0  0  0  0  0  0  0  0  0  0  0
   53.8330   91.3040   16.1940 H   0  0  0  0  0  0  0  0  0  0  0  0
   52.6060   89.6480   17.9380 C   0  0  0  0  0  0  0  0  0  0  0  0
   53.3320   88.8380   17.8690 H   0  0  0  0  0  0  0  0  0  0  0  0
   52.0800   89.7480   16.9880 H   0  0  0  0  0  0  0  0  0  0  0  0
   51.8880   89.4270   18.7290 H   0  0  0  0  0  0  0  0  0  0  0  0
   52.2880   92.0750   18.3500 C   0  0  0  0  0  0  0  0  0  0  0  0
   52.7830   93.0190   18.5790 H   0  0  0  0  0  0  0  0  0  0  0  0
   51.5730   91.8400   19.1380 H   0  0  0  0  0  0  0  0  0  0  0  0
   51.7640   92.1600   17.3980 H   0  0  0  0  0  0  0  0  0  0  0  0
   55.5060   89.1270   23.4520 C   0  0  0  0  0  0  0  0  0  0  0  0
   54.8880   89.9120   23.8610 H   0  0  0  0  0  0  0  0  0  0  0  0
   56.0750   88.1780   24.2770 C   0  0  0  0  0  0  0  0  0  0  0  0
   55.9070   88.2210   25.3430 H   0  0  0  0  0  0  0  0  0  0  0  0
   56.8630   87.1670   23.7380 C   0  0  0  0  0  0  0  0  0  0  0  0
   57.0990   87.1030   22.3780 C   0  0  0  0  0  0  0  0  0  0  0  0
   57.7140   86.3140   21.9700 H   0  0  0  0  0  0  0  0  0  0  0  0
   56.5460   88.0500   21.5440 C   0  0  0  0  0  0  0  0  0  0  0  0
   56.7320   88.0140   20.4810 H   0  0  0  0  0  0  0  0  0  0  0  0
   57.4660   86.1370   24.6490 C   0  0  0  0  0  0  0  0  0  0  0  0
   57.1740   86.3450   25.6780 H   0  0  0  0  0  0  0  0  0  0  0  0
   58.5520   86.1700   24.5660 H   0  0  0  0  0  0  0  0  0  0  0  0
   57.1100   85.1470   24.3640 H   0  0  0  0  0  0  0  0  0  0  0  0
   57.2730   96.0450   24.7540 C   0  0  0  0  0  0  0  0  0  0  0  0
   57.7170   95.3400   24.0660 H   0  0  0  0  0  0  0  0  0  0  0  0
   57.8830   97.2440   24.9870 C   0  0  0  0  0  0  0  0  0  0  0  0
   58.8050   97.4800   24.4760 H   0  0  0  0  0  0  0  0  0  0  0  0
   57.3300   98.1760   25.8810 C   0  0  0  0  0  0  0  0  0  0  0  0
   57.8320   99.1160   26.0540 H   0  0  0  0  0  0  0  0  0  0  0  0
   56.1600   97.8990   26.5330 C   0  0  0  0  0  0  0  0  0  0  0  0
   55.7430   98.6250   27.2150 H   0  0  0  0  0  0  0  0  0  0  0  0
   53.7340   97.2710   27.8620 O   0  0  0  0  0  0  0  0  0  0  0  0
   53.2040   98.4460   27.2430 C   0  0  0  0  0  0  0  0  0  0  0  0
   52.5200   98.1660   26.4420 H   0  0  0  0  0  0  0  0  0  0  0  0
   54.0160   99.0470   26.8330 H   0  0  0  0  0  0  0  0  0  0  0  0
   52.4530   99.2440   28.3180 C   0  0  0  0  0  0  0  0  0  0  0  0
   52.2740  100.2540   27.9490 H   0  0  0  0  0  0  0  0  0  0  0  0
   53.0650   99.2900   29.2190 H   0  0  0  0  0  0  0  0  0  0  0  0
   51.1510   98.6110   28.6480 N   0  0  0  0  0  0  0  0  0  0  0  0
   50.8050   97.5880   27.6350 C   0  0  0  0  0  0  0  0  0  0  0  0
   51.5870   96.8300   27.5930 H   0  0  0  0  0  0  0  0  0  0  0  0
   50.7010   98.0570   26.6570 H   0  0  0  0  0  0  0  0  0  0  0  0
   49.4810   96.9430   28.0420 C   0  0  0  0  0  0  0  0  0  0  0  0
   49.5610   96.5400   29.0520 H   0  0  0  0  0  0  0  0  0  0  0  0
   49.2320   96.1400   27.3490 H   0  0  0  0  0  0  0  0  0  0  0  0
   48.4680   97.9510   28.0020 O   0  0  0  0  0  0  0  0  0  0  0  0
   48.7650   98.9870   28.9410 C   0  0  0  0  0  0  0  0  0  0  0  0
   48.8290   98.5610   29.9420 H   0  0  0  0  0  0  0  0  0  0  0  0
   47.9750   99.7380   28.9150 H   0  0  0  0  0  0  0  0  0  0  0  0
   50.1000   99.6430   28.5820 C   0  0  0  0  0  0  0  0  0  0  0  0
   50.0500  100.0550   27.5740 H   0  0  0  0  0  0  0  0  0  0  0  0
   50.3220  100.4420   29.2900 H   0  0  0  0  0  0  0  0  0  0  0  0
  1  3  1  0  0  0  0
  2  1  2  0  0  0  0
  3  4  1  0  0  0  0
  3  5  1  0  0  0  0
  5  6  2  0  0  0  0
  5 11  1  0  0  0  0
  6  7  1  0  0  0  0
  7 55  1  0  0  0  0
  7  8  2  0  0  0  0
  8 57  1  0  0  0  0
  9  8  1  0  0  0  0
  9 10  1  0  0  0  0
 11  9  2  0  0  0  0
 12 11  1  0  0  0  0
 13 14  1  0  0  0  0
 13  1  1  0  0  0  0
 15 13  1  0  0  0  0
 16 15  1  0  0  0  0
 16 22  1  0  0  0  0
 17 16  1  0  0  0  0
 18 19  1  6  0  0  0
 18 17  1  0  0  0  0
 18 20  1  0  0  0  0
 20 15  2  0  0  0  0
 21 20  1  0  0  0  0
 22 36  1  0  0  0  0
 23 32  1  0  0  0  0
 23 18  1  0  0  0  0
 24 26  1  0  0  0  0
 24 23  1  0  0  0  0
 25 24  1  0  0  0  0
 27 24  1  0  0  0  0
 28 23  1  0  0  0  0
 28 31  1  0  0  0  0
 29 28  1  0  0  0  0
 30 28  1  0  0  0  0
 32 33  1  0  0  0  0
 32 34  1  0  0  0  0
 35 32  1  0  0  0  0
 36 37  1  0  0  0  0
 36 38  2  0  0  0  0
 38 39  1  0  0  0  0
 40 38  1  0  0  0  0
 40 45  1  0  0  0  0
 41 40  2  0  0  0  0
 42 41  1  0  0  0  0
 43 22  2  0  0  0  0
 43 41  1  0  0  0  0
 44 43  1  0  0  0  0
 45 46  1  0  0  0  0
 47 45  1  0  0  0  0
 48 45  1  0  0  0  0
 49 51  2  0  0  0  0
 49  6  1  0  0  0  0
 50 49  1  0  0  0  0
 51 53  1  0  0  0  0
 52 51  1  0  0  0  0
 53 54  1  0  0  0  0
 53 55  2  0  0  0  0
 55 56  1  0  0  0  0
 58 57  1  0  0  0  0
 58 61  1  0  0  0  0
 59 58  1  0  0  0  0
 60 58  1  0  0  0  0
 61 64  1  0  0  0  0
 61 63  1  0  0  0  0
 62 61  1  0  0  0  0
 65 68  1  0  0  0  0
 65 64  1  0  0  0  0
 66 65  1  0  0  0  0
 67 65  1  0  0  0  0
 68 69  1  0  0  0  0
 70 68  1  0  0  0  0
 71 68  1  0  0  0  0
 71 72  1  0  0  0  0
 72 73  1  0  0  0  0
 74 72  1  0  0  0  0
 75 64  1  0  0  0  0
 75 72  1  0  0  0  0
 75 77  1  0  0  0  0
 76 75  1  0  0  0  0
M  END
>  <Pose>
1

>  <Score>
-12.03

$$$$
