
 OpenBabel03112211323D

 48 50  0  0  1  0  0  0  0  0999 V2000
   23.3010   61.9540   -3.2250 N   0  0  0  0  0  4  0  0  0  0  0  0
   22.9540   62.7920   -2.7800 H   0  0  0  0  0  0  0  0  0  0  0  0
   23.3670   61.2120   -2.5430 H   0  0  0  0  0  0  0  0  0  0  0  0
   22.6690   61.6790   -3.9630 H   0  0  0  0  0  0  0  0  0  0  0  0
   24.6520   62.2210   -3.8020 C   0  0  2  0  0  0  0  0  0  0  0  0
   25.2230   61.2930   -3.8380 H   0  0  0  0  0  0  0  0  0  0  0  0
   25.3540   63.2540   -2.9120 C   0  0  0  0  0  0  0  0  0  0  0  0
   24.6380   64.1330   -2.4110 O   0  0  0  0  0  0  0  0  0  0  0  0
   24.5380   62.7640   -5.2450 C   0  0  0  0  0  0  0  0  0  0  0  0
   24.1190   61.9840   -5.8800 H   0  0  0  0  0  0  0  0  0  0  0  0
   25.5340   63.0260   -5.6000 H   0  0  0  0  0  0  0  0  0  0  0  0
   23.6450   64.0020   -5.3330 C   0  0  0  0  0  0  0  0  0  0  0  0
   24.0170   64.7450   -4.6280 H   0  0  0  0  0  0  0  0  0  0  0  0
   22.6310   63.7150   -5.0550 H   0  0  0  0  0  0  0  0  0  0  0  0
   23.5960   64.7650   -7.0170 S   0  0  0  0  0  0  0  0  0  0  0  0
   21.8800   64.4350   -7.5530 C   0  0  0  0  0  0  0  0  0  0  0  0
   21.4900   65.3210   -8.0530 H   0  0  0  0  0  0  0  0  0  0  0  0
   21.2720   64.2150   -6.6750 H   0  0  0  0  0  0  0  0  0  0  0  0
   21.8050   63.2640   -8.5040 C   0  0  1  0  0  0  0  0  0  0  0  0
   22.4660   62.4720   -8.1530 H   0  0  0  0  0  0  0  0  0  0  0  0
   20.3710   62.9670   -8.5580 O   0  0  0  0  0  0  0  0  0  0  0  0
   22.2410   63.5780   -9.9520 C   0  0  1  0  0  0  0  0  0  0  0  0
   22.6870   64.5640  -10.0770 H   0  0  0  0  0  0  0  0  0  0  0  0
   23.2060   62.5900  -10.3750 O   0  0  0  0  0  0  0  0  0  0  0  0
   22.7750   61.7330  -10.3480 H   0  0  0  0  0  0  0  0  0  0  0  0
   20.9250   63.3720  -10.7490 C   0  0  1  0  0  0  0  0  0  0  0  0
   20.4330   64.3130  -10.9920 H   0  0  0  0  0  0  0  0  0  0  0  0
   21.1820   62.6480  -11.9070 O   0  0  0  0  0  0  0  0  0  0  0  0
   21.5120   61.7860  -11.6440 H   0  0  0  0  0  0  0  0  0  0  0  0
   20.1730   62.3870   -9.8530 C   0  0  2  0  0  0  0  0  0  0  0  0
   20.5270   61.3650   -9.9870 H   0  0  0  0  0  0  0  0  0  0  0  0
   26.5880   63.1610   -2.7690 O   0  0  0  0  0  0  0  0  0  0  0  0
   16.0390   59.3200   -9.8860 N   0  0  0  0  0  0  0  0  0  0  0  0
   17.3160   59.0710   -9.5980 C   0  0  0  0  0  0  0  0  0  0  0  0
   17.5910   58.0680   -9.3060 H   0  0  0  0  0  0  0  0  0  0  0  0
   18.2680   59.9960   -9.6530 N   0  0  0  0  0  0  0  0  0  0  0  0
   17.9550   61.2460   -9.9970 C   0  0  0  0  0  0  0  0  0  0  0  0
   16.6420   61.5530  -10.3040 C   0  0  0  0  0  0  0  0  0  0  0  0
   15.6610   60.5490  -10.2510 C   0  0  0  0  0  0  0  0  0  0  0  0
   14.3770   60.7640  -10.5370 N   0  0  0  0  0  0  0  0  0  0  0  0
   14.0680   61.6870  -10.8080 H   0  0  0  0  0  0  0  0  0  0  0  0
   13.7130   60.0050  -10.4820 H   0  0  0  0  0  0  0  0  0  0  0  0
   16.6800   62.8980  -10.6130 C   0  0  2  0  0  0  0  0  0  0  0  0
   17.9330   63.3630  -10.4980 C   0  0  0  0  0  0  0  0  0  0  0  0
   17.9710   64.1510   -9.7460 H   0  0  0  0  0  0  0  0  0  0  0  0
   18.2730   63.7590  -11.4550 H   0  0  0  0  0  0  0  0  0  0  0  0
   18.7040   62.3420  -10.1280 N   0  0  0  0  0  0  0  0  0  0  0  0
   15.1830   63.9940  -11.1000 B   0  0  0  0  0  0  0  0  0  0  0  0
  1  2  1  0  0  0  0
  1  3  1  0  0  0  0
  4  1  1  0  0  0  0
  5  6  1  6  0  0  0
  5  1  1  0  0  0  0
  5  7  1  0  0  0  0
  7 32  2  0  0  0  0
  7  8  1  0  0  0  0
  9  5  1  0  0  0  0
 10  9  1  0  0  0  0
 11  9  1  0  0  0  0
 12  9  1  0  0  0  0
 12 14  1  0  0  0  0
 12 13  1  0  0  0  0
 15 12  1  0  0  0  0
 16 15  1  0  0  0  0
 16 18  1  0  0  0  0
 17 16  1  0  0  0  0
 19 20  1  1  0  0  0
 19 16  1  0  0  0  0
 21 19  1  0  0  0  0
 22 23  1  6  0  0  0
 22 19  1  0  0  0  0
 24 25  1  0  0  0  0
 24 22  1  0  0  0  0
 26 27  1  6  0  0  0
 26 22  1  0  0  0  0
 26 30  1  0  0  0  0
 28 29  1  0  0  0  0
 28 26  1  0  0  0  0
 30 31  1  6  0  0  0
 30 21  1  0  0  0  0
 33 34  2  0  0  0  0
 34 35  1  0  0  0  0
 36 34  1  0  0  0  0
 37 36  2  0  0  0  0
 38 39  2  0  0  0  0
 38 37  1  0  0  0  0
 39 33  1  0  0  0  0
 40 42  1  0  0  0  0
 40 39  1  0  0  0  0
 41 40  1  0  0  0  0
 43 48  1  1  0  0  0
 43 44  1  0  0  0  0
 43 38  1  0  0  0  0
 44 47  1  0  0  0  0
 44 45  1  0  0  0  0
 46 44  1  0  0  0  0
 47 37  1  0  0  0  0
 47 30  1  0  0  0  0
M  END
>  <Pose>
9

>  <Score>
-12.56

$$$$

 OpenBabel03112211323D

 48 50  0  0  1  0  0  0  0  0999 V2000
   23.6590   61.6180   -3.2900 N   0  0  0  0  0  4  0  0  0  0  0  0
   24.1140   62.4610   -2.9680 H   0  0  0  0  0  0  0  0  0  0  0  0
   23.0360   61.2770   -2.5720 H   0  0  0  0  0  0  0  0  0  0  0  0
   23.1300   61.8200   -4.1260 H   0  0  0  0  0  0  0  0  0  0  0  0
   24.6890   60.5800   -3.5900 C   0  0  2  0  0  0  0  0  0  0  0  0
   24.5350   60.1960   -4.5980 H   0  0  0  0  0  0  0  0  0  0  0  0
   24.5490   59.4570   -2.5550 C   0  0  0  0  0  0  0  0  0  0  0  0
   23.4080   59.2360   -2.1270 O   0  0  0  0  0  0  0  0  0  0  0  0
   26.1120   61.1800   -3.5230 C   0  0  0  0  0  0  0  0  0  0  0  0
   26.7660   60.6050   -4.1790 H   0  0  0  0  0  0  0  0  0  0  0  0
   26.4740   61.1100   -2.4970 H   0  0  0  0  0  0  0  0  0  0  0  0
   26.1480   62.6450   -3.9570 C   0  0  0  0  0  0  0  0  0  0  0  0
   26.1310   62.6820   -5.0460 H   0  0  0  0  0  0  0  0  0  0  0  0
   27.0740   63.0890   -3.5920 H   0  0  0  0  0  0  0  0  0  0  0  0
   24.7300   63.6450   -3.3160 S   0  0  0  0  0  0  0  0  0  0  0  0
   23.4470   63.3770   -4.5910 C   0  0  0  0  0  0  0  0  0  0  0  0
   22.4660   63.5460   -4.1460 H   0  0  0  0  0  0  0  0  0  0  0  0
   23.5130   62.3490   -4.9470 H   0  0  0  0  0  0  0  0  0  0  0  0
   23.6180   64.3130   -5.7640 C   0  0  1  0  0  0  0  0  0  0  0  0
   24.6690   64.5850   -5.8570 H   0  0  0  0  0  0  0  0  0  0  0  0
   23.0160   63.5710   -6.8750 O   0  0  0  0  0  0  0  0  0  0  0  0
   22.8390   65.6410   -5.6520 C   0  0  1  0  0  0  0  0  0  0  0  0
   22.3780   65.8050   -4.6780 H   0  0  0  0  0  0  0  0  0  0  0  0
   23.7410   66.7380   -5.9120 O   0  0  0  0  0  0  0  0  0  0  0  0
   24.5940   66.5080   -5.5350 H   0  0  0  0  0  0  0  0  0  0  0  0
   21.8240   65.5330   -6.8220 C   0  0  1  0  0  0  0  0  0  0  0  0
   20.8280   65.2450   -6.4860 H   0  0  0  0  0  0  0  0  0  0  0  0
   21.7710   66.7360   -7.5150 O   0  0  0  0  0  0  0  0  0  0  0  0
   22.3120   66.6410   -8.3030 H   0  0  0  0  0  0  0  0  0  0  0  0
   22.5540   64.5850   -7.7750 C   0  0  2  0  0  0  0  0  0  0  0  0
   23.3160   65.1030   -8.3570 H   0  0  0  0  0  0  0  0  0  0  0  0
   25.5820   58.8590   -2.1970 O   0  0  0  0  0  0  0  0  0  0  0  0
   22.1910   63.0740  -12.6830 N   0  0  0  0  0  0  0  0  0  0  0  0
   23.1780   63.6770  -12.0190 C   0  0  0  0  0  0  0  0  0  0  0  0
   24.0890   63.9060  -12.5500 H   0  0  0  0  0  0  0  0  0  0  0  0
   23.0940   64.0090  -10.7350 N   0  0  0  0  0  0  0  0  0  0  0  0
   21.9850   63.7240  -10.0510 C   0  0  0  0  0  0  0  0  0  0  0  0
   20.9350   63.0990  -10.6970 C   0  0  0  0  0  0  0  0  0  0  0  0
   21.0480   62.7740  -12.0590 C   0  0  0  0  0  0  0  0  0  0  0  0
   20.0790   62.1760  -12.7520 N   0  0  0  0  0  0  0  0  0  0  0  0
   19.2100   61.9330  -12.2990 H   0  0  0  0  0  0  0  0  0  0  0  0
   20.2150   61.9650  -13.7310 H   0  0  0  0  0  0  0  0  0  0  0  0
   19.9740   62.9660   -9.7140 C   0  0  2  0  0  0  0  0  0  0  0  0
   20.4210   63.4790   -8.5580 C   0  0  0  0  0  0  0  0  0  0  0  0
   20.4490   62.7040   -7.7930 H   0  0  0  0  0  0  0  0  0  0  0  0
   19.7680   64.2880   -8.2320 H   0  0  0  0  0  0  0  0  0  0  0  0
   21.6490   63.9460   -8.7790 N   0  0  0  0  0  0  0  0  0  0  0  0
   18.2540   62.1410   -9.9130 B   0  0  0  0  0  0  0  0  0  0  0  0
  1  2  1  0  0  0  0
  1  3  1  0  0  0  0
  4  1  1  0  0  0  0
  5  6  1  6  0  0  0
  5  9  1  0  0  0  0
  5  1  1  0  0  0  0
  5  7  1  0  0  0  0
  7 32  2  0  0  0  0
  7  8  1  0  0  0  0
  9 11  1  0  0  0  0
 10  9  1  0  0  0  0
 12 14  1  0  0  0  0
 12  9  1  0  0  0  0
 12 15  1  0  0  0  0
 13 12  1  0  0  0  0
 16 17  1  0  0  0  0
 16 15  1  0  0  0  0
 18 16  1  0  0  0  0
 19 20  1  6  0  0  0
 19 22  1  0  0  0  0
 19 16  1  0  0  0  0
 21 19  1  0  0  0  0
 22 23  1  1  0  0  0
 24 22  1  0  0  0  0
 24 25  1  0  0  0  0
 26 27  1  1  0  0  0
 26 22  1  0  0  0  0
 28 26  1  0  0  0  0
 29 28  1  0  0  0  0
 30 31  1  6  0  0  0
 30 21  1  0  0  0  0
 30 26  1  0  0  0  0
 33 39  1  0  0  0  0
 33 34  2  0  0  0  0
 34 36  1  0  0  0  0
 35 34  1  0  0  0  0
 36 37  2  0  0  0  0
 37 47  1  0  0  0  0
 38 37  1  0  0  0  0
 38 43  1  0  0  0  0
 39 38  2  0  0  0  0
 40 41  1  0  0  0  0
 40 39  1  0  0  0  0
 42 40  1  0  0  0  0
 43 48  1  1  0  0  0
 43 44  1  0  0  0  0
 44 46  1  0  0  0  0
 44 45  1  0  0  0  0
 47 44  1  0  0  0  0
 47 30  1  0  0  0  0
M  END
>  <Pose>
1

>  <Score>
-7.72

$$$$
