
 OpenBabel03112211343D

 25 25  0  0  0  0  0  0  0  0999 V2000
   92.0670   99.2070  -41.9410 C   0  0  0  0  0  0  0  0  0  0  0  0
   92.2080   97.9020  -41.4550 C   0  0  0  0  0  0  0  0  0  0  0  0
   91.7080   96.8190  -42.1750 C   0  0  0  0  0  0  0  0  0  0  0  0
   92.5820  100.4080  -41.1610 C   0  0  0  0  0  0  0  0  0  0  0  0
   92.9550  100.0580  -40.1990 H   0  0  0  0  0  0  0  0  0  0  0  0
   91.7500  101.0950  -41.0000 H   0  0  0  0  0  0  0  0  0  0  0  0
   93.6650  101.1440  -41.8410 N   0  0  0  0  0  4  0  0  0  0  0  0
   94.3010  100.4300  -42.1670 H   0  0  0  0  0  0  0  0  0  0  0  0
   91.0450   97.0120  -43.3960 C   0  0  0  0  0  0  0  0  0  0  0  0
   90.6570   96.1670  -43.9450 H   0  0  0  0  0  0  0  0  0  0  0  0
   91.4020   99.3960  -43.1710 C   0  0  0  0  0  0  0  0  0  0  0  0
   91.2820  100.3950  -43.5620 H   0  0  0  0  0  0  0  0  0  0  0  0
   93.2340  101.8710  -43.0520 C   0  0  0  0  0  0  0  0  0  0  0  0
   92.6940  101.1920  -43.7110 H   0  0  0  0  0  0  0  0  0  0  0  0
   94.1090  102.2630  -43.5710 H   0  0  0  0  0  0  0  0  0  0  0  0
   92.5810  102.6960  -42.7660 H   0  0  0  0  0  0  0  0  0  0  0  0
   90.8940   98.3070  -43.8930 C   0  0  0  0  0  0  0  0  0  0  0  0
   94.4010  102.0200  -40.9160 C   0  0  0  0  0  0  0  0  0  0  0  0
   94.7020  101.4510  -40.0370 H   0  0  0  0  0  0  0  0  0  0  0  0
   93.7590  102.8470  -40.6110 H   0  0  0  0  0  0  0  0  0  0  0  0
   95.2870  102.4130  -41.4160 H   0  0  0  0  0  0  0  0  0  0  0  0
   92.8770   97.7110  -40.2780 O   0  0  0  0  0  0  0  0  0  0  0  0
   92.3880   97.9570  -39.4890 H   0  0  0  0  0  0  0  0  0  0  0  0
   91.9360   94.8900  -41.3620 I   0  0  0  0  0  0  0  0  0  0  0  0
   89.9140   98.6560  -45.7090 I   0  0  0  0  0  0  0  0  0  0  0  0
  1  2  1  0  0  0  0
  1  4  1  0  0  0  0
  2 22  1  0  0  0  0
  3  2  2  0  0  0  0
  3 24  1  0  0  0  0
  4  6  1  0  0  0  0
  4  5  1  0  0  0  0
  7  4  1  0  0  0  0
  7 18  1  0  0  0  0
  8  7  1  0  0  0  0
  9  3  1  0  0  0  0
 10  9  1  0  0  0  0
 11  1  2  0  0  0  0
 12 11  1  0  0  0  0
 13 16  1  0  0  0  0
 13  7  1  0  0  0  0
 14 13  1  0  0  0  0
 15 13  1  0  0  0  0
 17  9  2  0  0  0  0
 17 11  1  0  0  0  0
 18 20  1  0  0  0  0
 18 19  1  0  0  0  0
 21 18  1  0  0  0  0
 22 23  1  0  0  0  0
 25 17  1  0  0  0  0
M  END
>  <Pose>
2

>  <Score>
-4.89

$$$$

 OpenBabel03112211343D

 25 25  0  0  0  0  0  0  0  0999 V2000
   91.9110   96.1390  -41.6800 C   0  0  0  0  0  0  0  0  0  0  0  0
   92.2230   97.4700  -41.3800 C   0  0  0  0  0  0  0  0  0  0  0  0
   92.0670   98.4690  -42.3380 C   0  0  0  0  0  0  0  0  0  0  0  0
   92.0970   95.0260  -40.6600 C   0  0  0  0  0  0  0  0  0  0  0  0
   91.1620   94.4690  -40.5840 H   0  0  0  0  0  0  0  0  0  0  0  0
   92.3290   95.4790  -39.6960 H   0  0  0  0  0  0  0  0  0  0  0  0
   93.1760   94.0780  -40.9980 N   0  0  0  0  0  4  0  0  0  0  0  0
   93.1910   93.4150  -40.2360 H   0  0  0  0  0  0  0  0  0  0  0  0
   91.6040   98.1640  -43.6260 C   0  0  0  0  0  0  0  0  0  0  0  0
   91.4900   98.9440  -44.3640 H   0  0  0  0  0  0  0  0  0  0  0  0
   91.4430   95.8380  -42.9770 C   0  0  0  0  0  0  0  0  0  0  0  0
   91.1970   94.8160  -43.2280 H   0  0  0  0  0  0  0  0  0  0  0  0
   92.9170   93.2780  -42.2130 C   0  0  0  0  0  0  0  0  0  0  0  0
   91.9380   92.8070  -42.1360 H   0  0  0  0  0  0  0  0  0  0  0  0
   93.6840   92.5090  -42.3110 H   0  0  0  0  0  0  0  0  0  0  0  0
   92.9410   93.9280  -43.0870 H   0  0  0  0  0  0  0  0  0  0  0  0
   91.2910   96.8410  -43.9430 C   0  0  0  0  0  0  0  0  0  0  0  0
   94.4900   94.7360  -41.0540 C   0  0  0  0  0  0  0  0  0  0  0  0
   94.6450   95.3150  -40.1440 H   0  0  0  0  0  0  0  0  0  0  0  0
   94.5280   95.4000  -41.9180 H   0  0  0  0  0  0  0  0  0  0  0  0
   95.2710   93.9810  -41.1410 H   0  0  0  0  0  0  0  0  0  0  0  0
   92.6490   97.7720  -40.1160 O   0  0  0  0  0  0  0  0  0  0  0  0
   91.9700   97.7340  -39.4390 H   0  0  0  0  0  0  0  0  0  0  0  0
   92.5850  100.4430  -41.8150 I   0  0  0  0  0  0  0  0  0  0  0  0
   90.5960   96.3260  -45.8480 I   0  0  0  0  0  0  0  0  0  0  0  0
  1  2  1  0  0  0  0
  1  4  1  0  0  0  0
  2 22  1  0  0  0  0
  3 24  1  0  0  0  0
  3  2  2  0  0  0  0
  4  5  1  0  0  0  0
  4  6  1  0  0  0  0
  7  4  1  0  0  0  0
  7  8  1  0  0  0  0
  9  3  1  0  0  0  0
 10  9  1  0  0  0  0
 11  1  2  0  0  0  0
 12 11  1  0  0  0  0
 13 14  1  0  0  0  0
 13  7  1  0  0  0  0
 15 13  1  0  0  0  0
 16 13  1  0  0  0  0
 17  9  2  0  0  0  0
 17 11  1  0  0  0  0
 18  7  1  0  0  0  0
 18 19  1  0  0  0  0
 20 18  1  0  0  0  0
 21 18  1  0  0  0  0
 22 23  1  0  0  0  0
 25 17  1  0  0  0  0
M  END
>  <Pose>
2

>  <Score>
-4.51

$$$$

 OpenBabel03112211343D

 25 25  0  0  0  0  0  0  0  0999 V2000
   90.9140   94.8220  -45.4800 C   0  0  0  0  0  0  0  0  0  0  0  0
   91.5470   94.5920  -44.2530 C   0  0  0  0  0  0  0  0  0  0  0  0
   92.1720   93.3750  -43.9940 C   0  0  0  0  0  0  0  0  0  0  0  0
   90.2020   96.1340  -45.7770 C   0  0  0  0  0  0  0  0  0  0  0  0
   89.4910   96.3280  -44.9740 H   0  0  0  0  0  0  0  0  0  0  0  0
   89.6660   96.0270  -46.7200 H   0  0  0  0  0  0  0  0  0  0  0  0
   91.1070   97.2940  -45.8860 N   0  0  0  0  0  4  0  0  0  0  0  0
   91.8070   97.0170  -46.5600 H   0  0  0  0  0  0  0  0  0  0  0  0
   92.1740   92.3490  -44.9500 C   0  0  0  0  0  0  0  0  0  0  0  0
   92.6570   91.4070  -44.7390 H   0  0  0  0  0  0  0  0  0  0  0  0
   90.9200   93.7890  -46.4400 C   0  0  0  0  0  0  0  0  0  0  0  0
   90.4360   93.9460  -47.3920 H   0  0  0  0  0  0  0  0  0  0  0  0
   90.4730   98.5030  -46.4490 C   0  0  0  0  0  0  0  0  0  0  0  0
   89.9790   98.2520  -47.3870 H   0  0  0  0  0  0  0  0  0  0  0  0
   91.2350   99.2610  -46.6310 H   0  0  0  0  0  0  0  0  0  0  0  0
   89.7380   98.8900  -45.7430 H   0  0  0  0  0  0  0  0  0  0  0  0
   91.5440   92.5610  -46.1780 C   0  0  0  0  0  0  0  0  0  0  0  0
   91.7900   97.5830  -44.6150 C   0  0  0  0  0  0  0  0  0  0  0  0
   92.2440   96.6690  -44.2310 H   0  0  0  0  0  0  0  0  0  0  0  0
   91.0670   97.9600  -43.8920 H   0  0  0  0  0  0  0  0  0  0  0  0
   92.5640   98.3320  -44.7800 H   0  0  0  0  0  0  0  0  0  0  0  0
   91.5690   95.6010  -43.3300 O   0  0  0  0  0  0  0  0  0  0  0  0
   92.4320   95.9960  -43.1800 H   0  0  0  0  0  0  0  0  0  0  0  0
   93.0790   93.0980  -42.1120 I   0  0  0  0  0  0  0  0  0  0  0  0
   91.5130   91.0680  -47.6440 I   0  0  0  0  0  0  0  0  0  0  0  0
  1  2  1  0  0  0  0
  2  3  2  0  0  0  0
  2 22  1  0  0  0  0
  3 24  1  0  0  0  0
  4  1  1  0  0  0  0
  4  5  1  0  0  0  0
  6  4  1  0  0  0  0
  7  4  1  0  0  0  0
  7 18  1  0  0  0  0
  8  7  1  0  0  0  0
  9 10  1  0  0  0  0
  9  3  1  0  0  0  0
 11 17  1  0  0  0  0
 11  1  2  0  0  0  0
 12 11  1  0  0  0  0
 13  7  1  0  0  0  0
 13 16  1  0  0  0  0
 14 13  1  0  0  0  0
 15 13  1  0  0  0  0
 17  9  2  0  0  0  0
 18 19  1  0  0  0  0
 18 20  1  0  0  0  0
 21 18  1  0  0  0  0
 22 23  1  0  0  0  0
 25 17  1  0  0  0  0
M  END
>  <Pose>
1

>  <Score>
-4.42

$$$$

 OpenBabel03112211343D

 25 25  0  0  0  0  0  0  0  0999 V2000
   91.1140   95.0650  -45.4050 C   0  0  0  0  0  0  0  0  0  0  0  0
   91.6000   94.9300  -44.0990 C   0  0  0  0  0  0  0  0  0  0  0  0
   92.0980   93.7100  -43.6500 C   0  0  0  0  0  0  0  0  0  0  0  0
   90.5410   96.3800  -45.9110 C   0  0  0  0  0  0  0  0  0  0  0  0
   89.4570   96.3490  -45.7960 H   0  0  0  0  0  0  0  0  0  0  0  0
   90.7910   96.4800  -46.9670 H   0  0  0  0  0  0  0  0  0  0  0  0
   91.0500   97.5680  -45.1990 N   0  0  0  0  0  4  0  0  0  0  0  0
   91.1510   97.2740  -44.2380 H   0  0  0  0  0  0  0  0  0  0  0  0
   92.1170   92.5870  -44.4900 C   0  0  0  0  0  0  0  0  0  0  0  0
   92.5010   91.6430  -44.1320 H   0  0  0  0  0  0  0  0  0  0  0  0
   91.1370   93.9340  -46.2470 C   0  0  0  0  0  0  0  0  0  0  0  0
   90.7660   94.0170  -47.2580 H   0  0  0  0  0  0  0  0  0  0  0  0
   92.3970   97.9960  -45.6250 C   0  0  0  0  0  0  0  0  0  0  0  0
   93.0780   97.1460  -45.5870 H   0  0  0  0  0  0  0  0  0  0  0  0
   92.7570   98.7800  -44.9590 H   0  0  0  0  0  0  0  0  0  0  0  0
   92.3510   98.3790  -46.6450 H   0  0  0  0  0  0  0  0  0  0  0  0
   91.6340   92.7030  -45.7950 C   0  0  0  0  0  0  0  0  0  0  0  0
   90.0920   98.6840  -45.2340 C   0  0  0  0  0  0  0  0  0  0  0  0
   89.1110   98.3320  -44.9140 H   0  0  0  0  0  0  0  0  0  0  0  0
   90.0240   99.0740  -46.2500 H   0  0  0  0  0  0  0  0  0  0  0  0
   90.4300   99.4750  -44.5640 H   0  0  0  0  0  0  0  0  0  0  0  0
   91.6060   96.0310  -43.2870 O   0  0  0  0  0  0  0  0  0  0  0  0
   92.4690   96.4300  -43.1520 H   0  0  0  0  0  0  0  0  0  0  0  0
   92.7840   93.5820  -41.6620 I   0  0  0  0  0  0  0  0  0  0  0  0
   91.6360   91.0630  -47.0940 I   0  0  0  0  0  0  0  0  0  0  0  0
  1  2  1  0  0  0  0
  2  3  2  0  0  0  0
  2 22  1  0  0  0  0
  3 24  1  0  0  0  0
  4  5  1  0  0  0  0
  4  1  1  0  0  0  0
  4  7  1  0  0  0  0
  6  4  1  0  0  0  0
  7  8  1  0  0  0  0
  9 10  1  0  0  0  0
  9  3  1  0  0  0  0
 11 17  1  0  0  0  0
 11  1  2  0  0  0  0
 12 11  1  0  0  0  0
 13 14  1  0  0  0  0
 13  7  1  0  0  0  0
 13 15  1  0  0  0  0
 16 13  1  0  0  0  0
 17  9  2  0  0  0  0
 18  7  1  0  0  0  0
 18 19  1  0  0  0  0
 18 21  1  0  0  0  0
 20 18  1  0  0  0  0
 22 23  1  0  0  0  0
 25 17  1  0  0  0  0
M  END
>  <Pose>
1

>  <Score>
-4.37

$$$$

 OpenBabel03112211343D

 25 24  0  0  0  0  0  0  0  0999 V2000
   92.1480   93.8330  -43.1290 C   0  0  0  0  0  0  0  0  0  0  0  0
   91.7010   95.0850  -43.5640 C   0  0  0  0  0  0  0  0  0  0  0  0
   91.2300   95.2590  -44.8630 C   0  0  0  0  0  0  0  0  0  0  0  0
   92.6910   93.6230  -41.7230 C   0  0  0  0  0  0  0  0  0  0  0  0
   93.7780   93.6980  -41.7590 H   0  0  0  0  0  0  0  0  0  0  0  0
   92.4060   92.6250  -41.3900 H   0  0  0  0  0  0  0  0  0  0  0  0
   92.1910   94.6010  -40.7370 N   0  0  0  0  0  4  0  0  0  0  0  0
   92.8810   94.6040  -39.9990 H   0  0  0  0  0  0  0  0  0  0  0  0
   91.2030   94.1880  -45.7670 C   0  0  0  0  0  0  0  0  0  0  0  0
   90.8410   94.3320  -46.7740 H   0  0  0  0  0  0  0  0  0  0  0  0
   92.1160   92.7570  -44.0410 C   0  0  0  0  0  0  0  0  0  0  0  0
   92.4580   91.7820  -43.7250 H   0  0  0  0  0  0  0  0  0  0  0  0
   92.1390   95.9890  -41.2360 C   0  0  0  0  0  0  0  0  0  0  0  0
   93.1070   96.2590  -41.6600 H   0  0  0  0  0  0  0  0  0  0  0  0
   91.9020   96.6630  -40.4130 H   0  0  0  0  0  0  0  0  0  0  0  0
   91.3710   96.0700  -42.0050 H   0  0  0  0  0  0  0  0  0  0  0  0
   91.6480   92.9320  -45.3510 C   0  0  0  0  0  0  0  0  0  0  0  0
   90.9050   94.1870  -40.1540 C   0  0  0  0  0  0  0  0  0  0  0  0
   90.9810   93.1600  -39.7970 H   0  0  0  0  0  0  0  0  0  0  0  0
   90.1250   94.2520  -40.9130 H   0  0  0  0  0  0  0  0  0  0  0  0
   90.6560   94.8440  -39.3210 H   0  0  0  0  0  0  0  0  0  0  0  0
   91.7020   96.1250  -42.6750 O   0  0  0  0  0  0  0  0  0  0  0  0
   92.4360   96.7370  -42.7680 H   0  0  0  0  0  0  0  0  0  0  0  0
   90.6010   97.1820  -45.4480 I   0  0  0  0  0  0  0  0  0  0  0  0
   91.6310   91.2960  -46.6550 I   0  0  0  0  0  0  0  0  0  0  0  0
  1  4  1  0  0  0  0
  2  1  1  0  0  0  0
  3  2  2  0  0  0  0
  4  6  1  0  0  0  0
  4  7  1  0  0  0  0
  5  4  1  0  0  0  0
  7 18  1  0  0  0  0
  7  8  1  0  0  0  0
  9 17  2  0  0  0  0
  9  3  1  0  0  0  0
 10  9  1  0  0  0  0
 11 12  1  0  0  0  0
 11  1  2  0  0  0  0
 13  7  1  0  0  0  0
 13 15  1  0  0  0  0
 14 13  1  0  0  0  0
 17 11  1  0  0  0  0
 18 19  1  0  0  0  0
 18 21  1  0  0  0  0
 20 18  1  0  0  0  0
 22 16  1  0  0  0  0
 23 22  1  0  0  0  0
 24  3  1  0  0  0  0
 25 17  1  0  0  0  0
M  END
>  <Pose>
1

>  <Score>
-4.10

$$$$

 OpenBabel03112211343D

 25 25  0  0  0  0  0  0  0  0999 V2000
   91.1030   94.8280  -45.3990 C   0  0  0  0  0  0  0  0  0  0  0  0
   91.0270   93.7030  -46.2280 C   0  0  0  0  0  0  0  0  0  0  0  0
   91.5530   92.4810  -45.8170 C   0  0  0  0  0  0  0  0  0  0  0  0
   90.5590   96.1800  -45.8360 C   0  0  0  0  0  0  0  0  0  0  0  0
   89.4830   96.0860  -45.9830 H   0  0  0  0  0  0  0  0  0  0  0  0
   91.0330   96.4520  -46.7790 H   0  0  0  0  0  0  0  0  0  0  0  0
   90.8020   97.2650  -44.8650 N   0  0  0  0  0  4  0  0  0  0  0  0
   90.9680   96.7960  -43.9850 H   0  0  0  0  0  0  0  0  0  0  0  0
   92.1790   92.3510  -44.5690 C   0  0  0  0  0  0  0  0  0  0  0  0
   92.5880   91.4000  -44.2600 H   0  0  0  0  0  0  0  0  0  0  0  0
   91.7320   94.6920  -44.1430 C   0  0  0  0  0  0  0  0  0  0  0  0
   91.8020   95.5480  -43.4890 H   0  0  0  0  0  0  0  0  0  0  0  0
   92.0240   98.0500  -45.1300 C   0  0  0  0  0  0  0  0  0  0  0  0
   92.8720   97.3750  -45.2440 H   0  0  0  0  0  0  0  0  0  0  0  0
   92.2090   98.7280  -44.2970 H   0  0  0  0  0  0  0  0  0  0  0  0
   91.8930   98.6270  -46.0460 H   0  0  0  0  0  0  0  0  0  0  0  0
   92.2670   93.4630  -43.7300 C   0  0  0  0  0  0  0  0  0  0  0  0
   89.6260   98.1330  -44.7030 C   0  0  0  0  0  0  0  0  0  0  0  0
   88.7450   97.5200  -44.5090 H   0  0  0  0  0  0  0  0  0  0  0  0
   89.4720   98.7110  -45.6140 H   0  0  0  0  0  0  0  0  0  0  0  0
   89.7870   98.8120  -43.8650 H   0  0  0  0  0  0  0  0  0  0  0  0
   90.3930   93.8230  -47.4350 O   0  0  0  0  0  0  0  0  0  0  0  0
   89.4370   93.8940  -47.3850 H   0  0  0  0  0  0  0  0  0  0  0  0
   91.4220   90.8440  -47.1360 I   0  0  0  0  0  0  0  0  0  0  0  0
   93.1890   93.3300  -41.8580 I   0  0  0  0  0  0  0  0  0  0  0  0
  1 11  1  0  0  0  0
  2  3  1  0  0  0  0
  2  1  2  0  0  0  0
  3  9  2  0  0  0  0
  4  1  1  0  0  0  0
  4  7  1  0  0  0  0
  5  4  1  0  0  0  0
  6  4  1  0  0  0  0
  7 18  1  0  0  0  0
  7  8  1  0  0  0  0
  9 10  1  0  0  0  0
  9 17  1  0  0  0  0
 11 17  2  0  0  0  0
 11 12  1  0  0  0  0
 13  7  1  0  0  0  0
 13 15  1  0  0  0  0
 14 13  1  0  0  0  0
 16 13  1  0  0  0  0
 17 25  1  0  0  0  0
 18 19  1  0  0  0  0
 18 21  1  0  0  0  0
 20 18  1  0  0  0  0
 22 23  1  0  0  0  0
 22  2  1  0  0  0  0
 24  3  1  0  0  0  0
M  END
>  <Pose>
1

>  <Score>
-4.03

$$$$

 OpenBabel03112211343D

 25 25  0  0  0  0  0  0  0  0999 V2000
   91.7790   94.8670  -42.8110 C   0  0  0  0  0  0  0  0  0  0  0  0
   91.8090   93.7320  -43.6300 C   0  0  0  0  0  0  0  0  0  0  0  0
   91.6430   93.8470  -45.0080 C   0  0  0  0  0  0  0  0  0  0  0  0
   91.9330   94.7660  -41.3010 C   0  0  0  0  0  0  0  0  0  0  0  0
   91.0230   94.3260  -40.8920 H   0  0  0  0  0  0  0  0  0  0  0  0
   92.0620   95.7710  -40.9000 H   0  0  0  0  0  0  0  0  0  0  0  0
   93.0800   93.9440  -40.8700 N   0  0  0  0  0  4  0  0  0  0  0  0
   92.8250   93.5960  -39.9570 H   0  0  0  0  0  0  0  0  0  0  0  0
   91.4320   95.0980  -45.6050 C   0  0  0  0  0  0  0  0  0  0  0  0
   91.2980   95.1780  -46.6740 H   0  0  0  0  0  0  0  0  0  0  0  0
   91.5690   96.1240  -43.4170 C   0  0  0  0  0  0  0  0  0  0  0  0
   91.5420   97.0110  -42.8020 H   0  0  0  0  0  0  0  0  0  0  0  0
   93.3080   92.7440  -41.7000 C   0  0  0  0  0  0  0  0  0  0  0  0
   92.3800   92.1780  -41.7840 H   0  0  0  0  0  0  0  0  0  0  0  0
   94.0730   92.1200  -41.2360 H   0  0  0  0  0  0  0  0  0  0  0  0
   93.6410   93.0460  -42.6930 H   0  0  0  0  0  0  0  0  0  0  0  0
   91.3960   96.2400  -44.8030 C   0  0  0  0  0  0  0  0  0  0  0  0
   94.3080   94.7430  -40.7260 C   0  0  0  0  0  0  0  0  0  0  0  0
   94.1010   95.6170  -40.1090 H   0  0  0  0  0  0  0  0  0  0  0  0
   94.6500   95.0640  -41.7100 H   0  0  0  0  0  0  0  0  0  0  0  0
   95.0810   94.1380  -40.2520 H   0  0  0  0  0  0  0  0  0  0  0  0
   92.0410   92.5150  -43.0510 O   0  0  0  0  0  0  0  0  0  0  0  0
   91.3810   91.8440  -43.2390 H   0  0  0  0  0  0  0  0  0  0  0  0
   91.6730   92.0880  -46.1670 I   0  0  0  0  0  0  0  0  0  0  0  0
   91.0840   98.1330  -45.6370 I   0  0  0  0  0  0  0  0  0  0  0  0
  1  4  1  0  0  0  0
  2 22  1  0  0  0  0
  2  1  2  0  0  0  0
  3  2  1  0  0  0  0
  4  6  1  0  0  0  0
  4  5  1  0  0  0  0
  4  7  1  0  0  0  0
  7 18  1  0  0  0  0
  7  8  1  0  0  0  0
  9  3  2  0  0  0  0
  9 17  1  0  0  0  0
 10  9  1  0  0  0  0
 11  1  1  0  0  0  0
 11 12  1  0  0  0  0
 13 15  1  0  0  0  0
 13  7  1  0  0  0  0
 14 13  1  0  0  0  0
 16 13  1  0  0  0  0
 17 11  2  0  0  0  0
 18 21  1  0  0  0  0
 18 19  1  0  0  0  0
 20 18  1  0  0  0  0
 23 22  1  0  0  0  0
 24  3  1  0  0  0  0
 25 17  1  0  0  0  0
M  END
>  <Pose>
1

>  <Score>
-3.98

$$$$

 OpenBabel03112211343D

 25 25  0  0  0  0  0  0  0  0999 V2000
   91.4980   97.8040  -44.2500 C   0  0  0  0  0  0  0  0  0  0  0  0
   91.7630   98.9040  -43.4260 C   0  0  0  0  0  0  0  0  0  0  0  0
   92.0420   98.7260  -42.0730 C   0  0  0  0  0  0  0  0  0  0  0  0
   91.1650   97.9730  -45.7250 C   0  0  0  0  0  0  0  0  0  0  0  0
   91.9830   97.5540  -46.3120 H   0  0  0  0  0  0  0  0  0  0  0  0
   91.0750   99.0380  -45.9360 H   0  0  0  0  0  0  0  0  0  0  0  0
   89.9120   97.3110  -46.1350 N   0  0  0  0  0  4  0  0  0  0  0  0
   89.2570   97.5090  -45.3930 H   0  0  0  0  0  0  0  0  0  0  0  0
   92.0560   97.4450  -41.5030 C   0  0  0  0  0  0  0  0  0  0  0  0
   92.2690   97.3170  -40.4520 H   0  0  0  0  0  0  0  0  0  0  0  0
   91.5160   96.5160  -43.6730 C   0  0  0  0  0  0  0  0  0  0  0  0
   91.3140   95.6540  -44.2920 H   0  0  0  0  0  0  0  0  0  0  0  0
   89.3050   97.8710  -47.3590 C   0  0  0  0  0  0  0  0  0  0  0  0
   89.2080   98.9520  -47.2540 H   0  0  0  0  0  0  0  0  0  0  0  0
   88.3200   97.4310  -47.5110 H   0  0  0  0  0  0  0  0  0  0  0  0
   89.9400   97.6460  -48.2150 H   0  0  0  0  0  0  0  0  0  0  0  0
   91.7910   96.3370  -42.3100 C   0  0  0  0  0  0  0  0  0  0  0  0
   90.0660   95.8500  -46.2280 C   0  0  0  0  0  0  0  0  0  0  0  0
   90.5150   95.4730  -45.3090 H   0  0  0  0  0  0  0  0  0  0  0  0
   90.7080   95.6050  -47.0740 H   0  0  0  0  0  0  0  0  0  0  0  0
   89.0880   95.3900  -46.3690 H   0  0  0  0  0  0  0  0  0  0  0  0
   91.7750  100.1510  -43.9860 O   0  0  0  0  0  0  0  0  0  0  0  0
   92.6000  100.6330  -43.8860 H   0  0  0  0  0  0  0  0  0  0  0  0
   92.4010  100.4350  -40.8950 I   0  0  0  0  0  0  0  0  0  0  0  0
   91.7980   94.4010  -41.5160 I   0  0  0  0  0  0  0  0  0  0  0  0
  1 11  2  0  0  0  0
  1  2  1  0  0  0  0
  2  3  2  0  0  0  0
  3  9  1  0  0  0  0
  3 24  1  0  0  0  0
  4  1  1  0  0  0  0
  5  4  1  0  0  0  0
  6  4  1  0  0  0  0
  7  4  1  0  0  0  0
  7  8  1  0  0  0  0
  9 10  1  0  0  0  0
 11 17  1  0  0  0  0
 12 11  1  0  0  0  0
 13 14  1  0  0  0  0
 13  7  1  0  0  0  0
 15 13  1  0  0  0  0
 16 13  1  0  0  0  0
 17 25  1  0  0  0  0
 17  9  2  0  0  0  0
 18  7  1  0  0  0  0
 18 19  1  0  0  0  0
 20 18  1  0  0  0  0
 21 18  1  0  0  0  0
 22 23  1  0  0  0  0
 22  2  1  0  0  0  0
M  END
>  <Pose>
1

>  <Score>
-3.63

$$$$
