
 OpenBabel03092210523D

 25 25  0  0  0  0  0  0  0  0999 V2000
   92.1070   99.0100  -41.9150 C   0  0  0  0  0  0  0  0  0  0  0  0
   92.1940   97.7070  -41.4130 C   0  0  0  0  0  0  0  0  0  0  0  0
   91.7490   96.6240  -42.1670 C   0  0  0  0  0  0  0  0  0  0  0  0
   92.5640  100.2120  -41.1010 C   0  0  0  0  0  0  0  0  0  0  0  0
   92.9980   99.8500  -40.1690 H   0  0  0  0  0  0  0  0  0  0  0  0
   91.6920  100.8280  -40.8800 H   0  0  0  0  0  0  0  0  0  0  0  0
   93.5650  101.0530  -41.7850 N   0  0  0  0  0  4  0  0  0  0  0  0
   94.2050  100.4000  -42.2150 H   0  0  0  0  0  0  0  0  0  0  0  0
   91.1940   96.8140  -43.4410 C   0  0  0  0  0  0  0  0  0  0  0  0
   90.8470   95.9700  -44.0170 H   0  0  0  0  0  0  0  0  0  0  0  0
   91.5520   99.1970  -43.1990 C   0  0  0  0  0  0  0  0  0  0  0  0
   91.4750  100.1950  -43.6040 H   0  0  0  0  0  0  0  0  0  0  0  0
   93.0190  101.8610  -42.8940 C   0  0  0  0  0  0  0  0  0  0  0  0
   92.4610  101.2160  -43.5730 H   0  0  0  0  0  0  0  0  0  0  0  0
   93.8380  102.3360  -43.4340 H   0  0  0  0  0  0  0  0  0  0  0  0
   92.3560  102.6270  -42.4930 H   0  0  0  0  0  0  0  0  0  0  0  0
   91.0970   98.1080  -43.9560 C   0  0  0  0  0  0  0  0  0  0  0  0
   94.3290  101.8800  -40.8380 C   0  0  0  0  0  0  0  0  0  0  0  0
   94.7150  101.2520  -40.0360 H   0  0  0  0  0  0  0  0  0  0  0  0
   93.6780  102.6470  -40.4180 H   0  0  0  0  0  0  0  0  0  0  0  0
   95.1600  102.3560  -41.3590 H   0  0  0  0  0  0  0  0  0  0  0  0
   92.7590   97.5180  -40.1810 O   0  0  0  0  0  0  0  0  0  0  0  0
   92.1690   97.6650  -39.4380 H   0  0  0  0  0  0  0  0  0  0  0  0
   91.8890   94.6970  -41.3270 I   0  0  0  0  0  0  0  0  0  0  0  0
   90.2800   98.4540  -45.8510 I   0  0  0  0  0  0  0  0  0  0  0  0
  1  2  1  0  0  0  0
  1  4  1  0  0  0  0
  2 22  1  0  0  0  0
  3  2  2  0  0  0  0
  3 24  1  0  0  0  0
  4  6  1  0  0  0  0
  4  5  1  0  0  0  0
  7  4  1  0  0  0  0
  7 18  1  0  0  0  0
  8  7  1  0  0  0  0
  9  3  1  0  0  0  0
 10  9  1  0  0  0  0
 11  1  2  0  0  0  0
 12 11  1  0  0  0  0
 13 16  1  0  0  0  0
 13  7  1  0  0  0  0
 14 13  1  0  0  0  0
 15 13  1  0  0  0  0
 17  9  2  0  0  0  0
 17 11  1  0  0  0  0
 18 20  1  0  0  0  0
 18 19  1  0  0  0  0
 21 18  1  0  0  0  0
 22 23  1  0  0  0  0
 25 17  1  0  0  0  0
M  END
>  <Pose>
2

>  <Score>
-4.99

$$$$

 OpenBabel03092210523D

 25 25  0  0  0  0  0  0  0  0999 V2000
   91.9420   98.7560  -42.2590 C   0  0  0  0  0  0  0  0  0  0  0  0
   92.1460   97.5440  -41.5870 C   0  0  0  0  0  0  0  0  0  0  0  0
   91.7900   96.3360  -42.1800 C   0  0  0  0  0  0  0  0  0  0  0  0
   92.2980  100.0910  -41.6230 C   0  0  0  0  0  0  0  0  0  0  0  0
   92.4990  100.8080  -42.4190 H   0  0  0  0  0  0  0  0  0  0  0  0
   93.1960   99.9550  -41.0200 H   0  0  0  0  0  0  0  0  0  0  0  0
   91.2380  100.6430  -40.7580 N   0  0  0  0  0  4  0  0  0  0  0  0
   90.9810   99.8850  -40.1420 H   0  0  0  0  0  0  0  0  0  0  0  0
   91.2110   96.3030  -43.4570 C   0  0  0  0  0  0  0  0  0  0  0  0
   90.9340   95.3620  -43.9070 H   0  0  0  0  0  0  0  0  0  0  0  0
   91.3620   98.7180  -43.5450 C   0  0  0  0  0  0  0  0  0  0  0  0
   91.1950   99.6420  -44.0790 H   0  0  0  0  0  0  0  0  0  0  0  0
   91.6890  101.7360  -39.8720 C   0  0  0  0  0  0  0  0  0  0  0  0
   92.5720  101.4140  -39.3200 H   0  0  0  0  0  0  0  0  0  0  0  0
   90.8940  101.9870  -39.1710 H   0  0  0  0  0  0  0  0  0  0  0  0
   91.9340  102.6120  -40.4720 H   0  0  0  0  0  0  0  0  0  0  0  0
   90.9980   97.5020  -44.1400 C   0  0  0  0  0  0  0  0  0  0  0  0
   90.0440  101.0290  -41.5270 C   0  0  0  0  0  0  0  0  0  0  0  0
   89.7410  100.2000  -42.1670 H   0  0  0  0  0  0  0  0  0  0  0  0
   90.2740  101.8990  -42.1420 H   0  0  0  0  0  0  0  0  0  0  0  0
   89.2330  101.2730  -40.8410 H   0  0  0  0  0  0  0  0  0  0  0  0
   92.7340   97.5730  -40.3530 O   0  0  0  0  0  0  0  0  0  0  0  0
   92.1880   97.9350  -39.6520 H   0  0  0  0  0  0  0  0  0  0  0  0
   92.1040   94.5600  -41.0920 I   0  0  0  0  0  0  0  0  0  0  0  0
   90.1380   97.5170  -46.0470 I   0  0  0  0  0  0  0  0  0  0  0  0
  1  4  1  0  0  0  0
  1  2  1  0  0  0  0
  2 22  1  0  0  0  0
  3  2  2  0  0  0  0
  3 24  1  0  0  0  0
  4  6  1  0  0  0  0
  4  7  1  0  0  0  0
  5  4  1  0  0  0  0
  7  8  1  0  0  0  0
  7 13  1  0  0  0  0
  9  3  1  0  0  0  0
 10  9  1  0  0  0  0
 11  1  2  0  0  0  0
 12 11  1  0  0  0  0
 13 14  1  0  0  0  0
 13 15  1  0  0  0  0
 16 13  1  0  0  0  0
 17 11  1  0  0  0  0
 17  9  2  0  0  0  0
 18 21  1  0  0  0  0
 18  7  1  0  0  0  0
 19 18  1  0  0  0  0
 20 18  1  0  0  0  0
 22 23  1  0  0  0  0
 25 17  1  0  0  0  0
M  END
>  <Pose>
2

>  <Score>
-4.89

$$$$

 OpenBabel03092210523D

 25 25  0  0  0  0  0  0  0  0999 V2000
   91.8900   94.6260  -42.8480 C   0  0  0  0  0  0  0  0  0  0  0  0
   91.8000   93.5510  -43.7410 C   0  0  0  0  0  0  0  0  0  0  0  0
   91.6120   93.7730  -45.1030 C   0  0  0  0  0  0  0  0  0  0  0  0
   92.0700   94.4090  -41.3530 C   0  0  0  0  0  0  0  0  0  0  0  0
   91.3140   93.7000  -41.0160 H   0  0  0  0  0  0  0  0  0  0  0  0
   91.9240   95.3640  -40.8480 H   0  0  0  0  0  0  0  0  0  0  0  0
   93.3980   93.8840  -40.9810 N   0  0  0  0  0  4  0  0  0  0  0  0
   93.3600   93.7640  -39.9790 H   0  0  0  0  0  0  0  0  0  0  0  0
   91.4980   95.0760  -45.6100 C   0  0  0  0  0  0  0  0  0  0  0  0
   91.3480   95.2390  -46.6670 H   0  0  0  0  0  0  0  0  0  0  0  0
   91.7780   95.9350  -43.3640 C   0  0  0  0  0  0  0  0  0  0  0  0
   91.8440   96.7770  -42.6920 H   0  0  0  0  0  0  0  0  0  0  0  0
   93.6930   92.5450  -41.5290 C   0  0  0  0  0  0  0  0  0  0  0  0
   92.8770   91.8650  -41.2860 H   0  0  0  0  0  0  0  0  0  0  0  0
   94.6200   92.1710  -41.0930 H   0  0  0  0  0  0  0  0  0  0  0  0
   93.8010   92.6120  -42.6110 H   0  0  0  0  0  0  0  0  0  0  0  0
   91.5830   96.1600  -44.7340 C   0  0  0  0  0  0  0  0  0  0  0  0
   94.4730   94.8420  -41.2830 C   0  0  0  0  0  0  0  0  0  0  0  0
   94.2210   95.8160  -40.8640 H   0  0  0  0  0  0  0  0  0  0  0  0
   94.5890   94.9290  -42.3630 H   0  0  0  0  0  0  0  0  0  0  0  0
   95.4070   94.4890  -40.8450 H   0  0  0  0  0  0  0  0  0  0  0  0
   91.9370   92.2820  -43.2500 O   0  0  0  0  0  0  0  0  0  0  0  0
   91.1580   91.7270  -43.3390 H   0  0  0  0  0  0  0  0  0  0  0  0
   91.4580   92.1020  -46.3750 I   0  0  0  0  0  0  0  0  0  0  0  0
   91.4210   98.1250  -45.4330 I   0  0  0  0  0  0  0  0  0  0  0  0
  1  4  1  0  0  0  0
  2 22  1  0  0  0  0
  2  1  2  0  0  0  0
  3  2  1  0  0  0  0
  4  5  1  0  0  0  0
  4  7  1  0  0  0  0
  4  6  1  0  0  0  0
  7  8  1  0  0  0  0
  9  3  2  0  0  0  0
  9 17  1  0  0  0  0
 10  9  1  0  0  0  0
 11  1  1  0  0  0  0
 11 12  1  0  0  0  0
 13 14  1  0  0  0  0
 13 15  1  0  0  0  0
 13  7  1  0  0  0  0
 16 13  1  0  0  0  0
 17 11  2  0  0  0  0
 18  7  1  0  0  0  0
 18 19  1  0  0  0  0
 18 21  1  0  0  0  0
 20 18  1  0  0  0  0
 23 22  1  0  0  0  0
 24  3  1  0  0  0  0
 25 17  1  0  0  0  0
M  END
>  <Pose>
1

>  <Score>
-4.72

$$$$

 OpenBabel03092210523D

 25 25  0  0  0  0  0  0  0  0999 V2000
   91.0470   94.9380  -45.2600 C   0  0  0  0  0  0  0  0  0  0  0  0
   91.6340   94.6440  -44.0240 C   0  0  0  0  0  0  0  0  0  0  0  0
   92.1910   93.3900  -43.7830 C   0  0  0  0  0  0  0  0  0  0  0  0
   90.4100   96.2910  -45.5390 C   0  0  0  0  0  0  0  0  0  0  0  0
   89.4290   96.3130  -45.0630 H   0  0  0  0  0  0  0  0  0  0  0  0
   90.2920   96.3990  -46.6170 H   0  0  0  0  0  0  0  0  0  0  0  0
   91.1940   97.4360  -45.0400 N   0  0  0  0  0  4  0  0  0  0  0  0
   91.3410   97.2450  -44.0590 H   0  0  0  0  0  0  0  0  0  0  0  0
   92.1680   92.3920  -44.7670 C   0  0  0  0  0  0  0  0  0  0  0  0
   92.5980   91.4210  -44.5700 H   0  0  0  0  0  0  0  0  0  0  0  0
   91.0290   93.9310  -46.2480 C   0  0  0  0  0  0  0  0  0  0  0  0
   90.5800   94.1380  -47.2080 H   0  0  0  0  0  0  0  0  0  0  0  0
   92.5450   97.5450  -45.6280 C   0  0  0  0  0  0  0  0  0  0  0  0
   93.0620   96.5910  -45.5280 H   0  0  0  0  0  0  0  0  0  0  0  0
   93.1070   98.3200  -45.1060 H   0  0  0  0  0  0  0  0  0  0  0  0
   92.4620   97.8050  -46.6830 H   0  0  0  0  0  0  0  0  0  0  0  0
   91.5840   92.6670  -46.0050 C   0  0  0  0  0  0  0  0  0  0  0  0
   90.4530   98.7020  -45.1510 C   0  0  0  0  0  0  0  0  0  0  0  0
   89.4640   98.5840  -44.7080 H   0  0  0  0  0  0  0  0  0  0  0  0
   90.3500   98.9730  -46.2010 H   0  0  0  0  0  0  0  0  0  0  0  0
   90.9950   99.4880  -44.6240 H   0  0  0  0  0  0  0  0  0  0  0  0
   91.6800   95.6260  -43.0730 O   0  0  0  0  0  0  0  0  0  0  0  0
   92.4170   96.2360  -43.1540 H   0  0  0  0  0  0  0  0  0  0  0  0
   93.0300   93.0190  -41.8870 I   0  0  0  0  0  0  0  0  0  0  0  0
   91.5200   91.2170  -47.5120 I   0  0  0  0  0  0  0  0  0  0  0  0
  1  2  1  0  0  0  0
  2  3  2  0  0  0  0
  2 22  1  0  0  0  0
  3 24  1  0  0  0  0
  4  1  1  0  0  0  0
  4  5  1  0  0  0  0
  4  7  1  0  0  0  0
  6  4  1  0  0  0  0
  7  8  1  0  0  0  0
  9 10  1  0  0  0  0
  9  3  1  0  0  0  0
 11 17  1  0  0  0  0
 11  1  2  0  0  0  0
 12 11  1  0  0  0  0
 13 14  1  0  0  0  0
 13 15  1  0  0  0  0
 13  7  1  0  0  0  0
 16 13  1  0  0  0  0
 17  9  2  0  0  0  0
 18  7  1  0  0  0  0
 18 19  1  0  0  0  0
 18 21  1  0  0  0  0
 20 18  1  0  0  0  0
 23 22  1  0  0  0  0
 25 17  1  0  0  0  0
M  END
>  <Pose>
2

>  <Score>
-4.45

$$$$

 OpenBabel03092210523D

 25 25  0  0  0  0  0  0  0  0999 V2000
   91.9570   96.0620  -41.9630 C   0  0  0  0  0  0  0  0  0  0  0  0
   92.1630   97.3210  -41.3870 C   0  0  0  0  0  0  0  0  0  0  0  0
   91.8530   98.4830  -42.0890 C   0  0  0  0  0  0  0  0  0  0  0  0
   92.3110   94.7790  -41.2260 C   0  0  0  0  0  0  0  0  0  0  0  0
   91.4320   94.4470  -40.6730 H   0  0  0  0  0  0  0  0  0  0  0  0
   93.1190   94.9960  -40.5280 H   0  0  0  0  0  0  0  0  0  0  0  0
   92.7450   93.6810  -42.1110 N   0  0  0  0  0  4  0  0  0  0  0  0
   93.2420   94.1340  -42.8650 H   0  0  0  0  0  0  0  0  0  0  0  0
   91.3370   98.4200  -43.3920 C   0  0  0  0  0  0  0  0  0  0  0  0
   91.1040   99.3260  -43.9310 H   0  0  0  0  0  0  0  0  0  0  0  0
   91.4350   96.0030  -43.2730 C   0  0  0  0  0  0  0  0  0  0  0  0
   91.2700   95.0420  -43.7360 H   0  0  0  0  0  0  0  0  0  0  0  0
   93.7180   92.7570  -41.4950 C   0  0  0  0  0  0  0  0  0  0  0  0
   94.5470   93.3280  -41.0770 H   0  0  0  0  0  0  0  0  0  0  0  0
   94.0950   92.0690  -42.2510 H   0  0  0  0  0  0  0  0  0  0  0  0
   93.2300   92.1920  -40.7000 H   0  0  0  0  0  0  0  0  0  0  0  0
   91.1280   97.1720  -43.9830 C   0  0  0  0  0  0  0  0  0  0  0  0
   91.6040   92.9560  -42.6910 C   0  0  0  0  0  0  0  0  0  0  0  0
   90.9090   93.6680  -43.1360 H   0  0  0  0  0  0  0  0  0  0  0  0
   91.0950   92.3930  -41.9080 H   0  0  0  0  0  0  0  0  0  0  0  0
   91.9610   92.2700  -43.4590 H   0  0  0  0  0  0  0  0  0  0  0  0
   92.6410   97.3830  -40.1070 O   0  0  0  0  0  0  0  0  0  0  0  0
   91.9850   97.5960  -39.4380 H   0  0  0  0  0  0  0  0  0  0  0  0
   92.2190  100.3380  -41.1620 I   0  0  0  0  0  0  0  0  0  0  0  0
   90.3610   97.0160  -45.9240 I   0  0  0  0  0  0  0  0  0  0  0  0
  1  2  1  0  0  0  0
  1  4  1  0  0  0  0
  2 22  1  0  0  0  0
  3  2  2  0  0  0  0
  3 24  1  0  0  0  0
  4  5  1  0  0  0  0
  4  6  1  0  0  0  0
  7 13  1  0  0  0  0
  7  4  1  0  0  0  0
  8  7  1  0  0  0  0
  9  3  1  0  0  0  0
 10  9  1  0  0  0  0
 11  1  2  0  0  0  0
 12 11  1  0  0  0  0
 13 14  1  0  0  0  0
 13 16  1  0  0  0  0
 15 13  1  0  0  0  0
 17  9  2  0  0  0  0
 17 11  1  0  0  0  0
 18  7  1  0  0  0  0
 18 20  1  0  0  0  0
 19 18  1  0  0  0  0
 21 18  1  0  0  0  0
 22 23  1  0  0  0  0
 25 17  1  0  0  0  0
M  END
>  <Pose>
1

>  <Score>
-4.40

$$$$

 OpenBabel03092210523D

 25 25  0  0  0  0  0  0  0  0999 V2000
   91.9620   94.2810  -42.9200 C   0  0  0  0  0  0  0  0  0  0  0  0
   91.7940   93.2320  -43.8320 C   0  0  0  0  0  0  0  0  0  0  0  0
   91.4740   93.4910  -45.1620 C   0  0  0  0  0  0  0  0  0  0  0  0
   92.2860   94.0220  -41.4560 C   0  0  0  0  0  0  0  0  0  0  0  0
   93.3600   93.8530  -41.3670 H   0  0  0  0  0  0  0  0  0  0  0  0
   91.7500   93.1280  -41.1390 H   0  0  0  0  0  0  0  0  0  0  0  0
   91.9140   95.1300  -40.5570 N   0  0  0  0  0  4  0  0  0  0  0  0
   92.2600   94.8570  -39.6480 H   0  0  0  0  0  0  0  0  0  0  0  0
   91.3040   94.8070  -45.6170 C   0  0  0  0  0  0  0  0  0  0  0  0
   91.0510   94.9990  -46.6500 H   0  0  0  0  0  0  0  0  0  0  0  0
   91.7930   95.6030  -43.3840 C   0  0  0  0  0  0  0  0  0  0  0  0
   91.9180   96.4260  -42.6960 H   0  0  0  0  0  0  0  0  0  0  0  0
   92.5830   96.4100  -40.8660 C   0  0  0  0  0  0  0  0  0  0  0  0
   93.6600   96.2510  -40.9320 H   0  0  0  0  0  0  0  0  0  0  0  0
   92.3710   97.1310  -40.0770 H   0  0  0  0  0  0  0  0  0  0  0  0
   92.2140   96.7920  -41.8180 H   0  0  0  0  0  0  0  0  0  0  0  0
   91.4650   95.8650  -44.7210 C   0  0  0  0  0  0  0  0  0  0  0  0
   90.4550   95.2930  -40.4570 C   0  0  0  0  0  0  0  0  0  0  0  0
   89.9970   94.3310  -40.2280 H   0  0  0  0  0  0  0  0  0  0  0  0
   90.0660   95.6650  -41.4040 H   0  0  0  0  0  0  0  0  0  0  0  0
   90.2230   96.0040  -39.6640 H   0  0  0  0  0  0  0  0  0  0  0  0
   91.9850   91.9500  -43.3950 O   0  0  0  0  0  0  0  0  0  0  0  0
   91.1820   91.4390  -43.2710 H   0  0  0  0  0  0  0  0  0  0  0  0
   91.2100   91.8560  -46.4630 I   0  0  0  0  0  0  0  0  0  0  0  0
   91.2240   97.8480  -45.3420 I   0  0  0  0  0  0  0  0  0  0  0  0
  1  4  1  0  0  0  0
  2 22  1  0  0  0  0
  2  1  2  0  0  0  0
  3  2  1  0  0  0  0
  4  5  1  0  0  0  0
  4  6  1  0  0  0  0
  4  7  1  0  0  0  0
  7 18  1  0  0  0  0
  7  8  1  0  0  0  0
  9  3  2  0  0  0  0
  9 17  1  0  0  0  0
 10  9  1  0  0  0  0
 11  1  1  0  0  0  0
 11 12  1  0  0  0  0
 13  7  1  0  0  0  0
 13 15  1  0  0  0  0
 14 13  1  0  0  0  0
 16 13  1  0  0  0  0
 17 11  2  0  0  0  0
 18 19  1  0  0  0  0
 18 21  1  0  0  0  0
 20 18  1  0  0  0  0
 22 23  1  0  0  0  0
 24  3  1  0  0  0  0
 25 17  1  0  0  0  0
M  END
>  <Pose>
1

>  <Score>
-4.14

$$$$

 OpenBabel03092210523D

 25 25  0  0  0  0  0  0  0  0999 V2000
   91.8800   96.1980  -41.8340 C   0  0  0  0  0  0  0  0  0  0  0  0
   92.2110   97.3990  -41.1950 C   0  0  0  0  0  0  0  0  0  0  0  0
   92.0750   98.6160  -41.8580 C   0  0  0  0  0  0  0  0  0  0  0  0
   92.0440   94.8530  -41.1400 C   0  0  0  0  0  0  0  0  0  0  0  0
   91.1990   94.7090  -40.4670 H   0  0  0  0  0  0  0  0  0  0  0  0
   92.9680   94.8760  -40.5630 H   0  0  0  0  0  0  0  0  0  0  0  0
   92.1020   93.7060  -42.0660 N   0  0  0  0  0  4  0  0  0  0  0  0
   91.3550   93.0940  -41.7720 H   0  0  0  0  0  0  0  0  0  0  0  0
   91.6130   98.6670  -43.1810 C   0  0  0  0  0  0  0  0  0  0  0  0
   91.5150   99.6150  -43.6900 H   0  0  0  0  0  0  0  0  0  0  0  0
   91.4130   96.2540  -43.1640 C   0  0  0  0  0  0  0  0  0  0  0  0
   91.1530   95.3380  -43.6750 H   0  0  0  0  0  0  0  0  0  0  0  0
   91.8030   94.0480  -43.4710 C   0  0  0  0  0  0  0  0  0  0  0  0
   90.8610   94.5940  -43.5190 H   0  0  0  0  0  0  0  0  0  0  0  0
   91.7240   93.1330  -44.0590 H   0  0  0  0  0  0  0  0  0  0  0  0
   92.6040   94.6690  -43.8720 H   0  0  0  0  0  0  0  0  0  0  0  0
   91.2810   97.4780  -43.8340 C   0  0  0  0  0  0  0  0  0  0  0  0
   93.3690   92.9660  -41.9470 C   0  0  0  0  0  0  0  0  0  0  0  0
   93.5560   92.7310  -40.9000 H   0  0  0  0  0  0  0  0  0  0  0  0
   94.1840   93.5770  -42.3340 H   0  0  0  0  0  0  0  0  0  0  0  0
   93.3040   92.0410  -42.5210 H   0  0  0  0  0  0  0  0  0  0  0  0
   92.6370   97.3520  -39.8960 O   0  0  0  0  0  0  0  0  0  0  0  0
   91.9620   97.5440  -39.2410 H   0  0  0  0  0  0  0  0  0  0  0  0
   92.6210  100.3750  -40.8370 I   0  0  0  0  0  0  0  0  0  0  0  0
   90.5870   97.4910  -45.8080 I   0  0  0  0  0  0  0  0  0  0  0  0
  1  2  1  0  0  0  0
  1  4  1  0  0  0  0
  2 22  1  0  0  0  0
  3  2  2  0  0  0  0
  3 24  1  0  0  0  0
  4  6  1  0  0  0  0
  4  5  1  0  0  0  0
  7 18  1  0  0  0  0
  7  8  1  0  0  0  0
  7  4  1  0  0  0  0
  9  3  1  0  0  0  0
 10  9  1  0  0  0  0
 11  1  2  0  0  0  0
 12 11  1  0  0  0  0
 13  7  1  0  0  0  0
 14 13  1  0  0  0  0
 15 13  1  0  0  0  0
 16 13  1  0  0  0  0
 17  9  2  0  0  0  0
 17 11  1  0  0  0  0
 18 19  1  0  0  0  0
 20 18  1  0  0  0  0
 21 18  1  0  0  0  0
 22 23  1  0  0  0  0
 25 17  1  0  0  0  0
M  END
>  <Pose>
1

>  <Score>
-3.99

$$$$
