
 OpenBabel03112211333D

 51 54  0  0  0  0  0  0  0  0999 V2000
   19.4270   25.1780   72.4340 C   0  0  0  0  0  0  0  0  0  0  0  0
   19.7050   24.1260   72.3600 H   0  0  0  0  0  0  0  0  0  0  0  0
   19.7850   25.5830   73.3800 H   0  0  0  0  0  0  0  0  0  0  0  0
   19.8750   25.7310   71.6090 H   0  0  0  0  0  0  0  0  0  0  0  0
   17.8900   25.3090   72.3660 C   0  0  0  0  0  0  0  0  0  0  0  0
   17.4660   24.7360   73.1910 H   0  0  0  0  0  0  0  0  0  0  0  0
   17.5570   24.8840   71.4200 H   0  0  0  0  0  0  0  0  0  0  0  0
   17.3790   26.6680   72.4530 N   0  0  0  0  0  0  0  0  0  0  0  0
   17.6970   27.3560   71.7860 H   0  0  0  0  0  0  0  0  0  0  0  0
   16.4500   27.0510   73.4480 C   0  0  0  0  0  0  0  0  0  0  0  0
   16.0530   26.2360   74.2780 O   0  0  0  0  0  0  0  0  0  0  0  0
   16.0260   28.3380   73.4230 N   0  0  0  0  0  0  0  0  0  0  0  0
   15.0730   28.9550   74.3430 C   0  0  0  0  0  0  0  0  0  0  0  0
   15.6160   29.6420   74.9930 H   0  0  0  0  0  0  0  0  0  0  0  0
   14.6180   28.1690   74.9460 H   0  0  0  0  0  0  0  0  0  0  0  0
   13.9810   29.7170   73.6540 C   0  0  0  0  0  0  0  0  0  0  0  0
   13.4020   30.2550   74.4040 H   0  0  0  0  0  0  0  0  0  0  0  0
   13.3340   29.0100   73.1350 H   0  0  0  0  0  0  0  0  0  0  0  0
   14.5150   30.7030   72.6590 C   0  0  0  0  0  0  0  0  0  0  0  0
   15.0530   31.4380   73.2560 H   0  0  0  0  0  0  0  0  0  0  0  0
   15.4890   30.0780   71.7330 C   0  0  0  0  0  0  0  0  0  0  0  0
   15.9890   30.8660   71.1700 H   0  0  0  0  0  0  0  0  0  0  0  0
   14.9490   29.4270   71.0460 H   0  0  0  0  0  0  0  0  0  0  0  0
   16.5280   29.2670   72.4470 C   0  0  0  0  0  0  0  0  0  0  0  0
   17.0830   28.7010   71.6990 H   0  0  0  0  0  0  0  0  0  0  0  0
   17.2020   29.9570   72.9550 H   0  0  0  0  0  0  0  0  0  0  0  0
   13.5130   31.4950   71.9740 N   0  0  0  0  0  0  0  0  0  0  0  0
   12.6080   31.0610   71.8620 H   0  0  0  0  0  0  0  0  0  0  0  0
   13.6340   32.7130   71.4790 C   0  0  0  0  0  0  0  0  0  0  0  0
   14.8380   33.2350   71.3670 N   0  0  0  0  0  0  0  0  0  0  0  0
   14.9150   34.4510   70.8510 C   0  0  0  0  0  0  0  0  0  0  0  0
   13.7740   35.1320   70.4620 C   0  0  0  0  0  0  0  0  0  0  0  0
   12.5430   34.4910   70.6340 C   0  0  0  0  0  0  0  0  0  0  0  0
   11.6340   34.9980   70.3490 H   0  0  0  0  0  0  0  0  0  0  0  0
   12.4780   33.2780   71.1390 N   0  0  0  0  0  0  0  0  0  0  0  0
   16.2380   35.0170   70.7180 C   0  0  0  0  0  0  0  0  0  0  0  0
   16.6390   36.0540   69.9740 C   0  0  0  0  0  0  0  0  0  0  0  0
   15.9690   36.6300   69.3520 H   0  0  0  0  0  0  0  0  0  0  0  0
   17.9500   36.3090   70.0710 N   0  0  0  0  0  0  0  0  0  0  0  0
   18.4450   37.0610   69.6130 H   0  0  0  0  0  0  0  0  0  0  0  0
   18.4920   35.3900   70.8860 C   0  0  0  0  0  0  0  0  0  0  0  0
   17.4560   34.5490   71.3350 C   0  0  0  0  0  0  0  0  0  0  0  0
   17.7410   33.5030   72.2010 C   0  0  0  0  0  0  0  0  0  0  0  0
   16.9680   32.8380   72.5570 H   0  0  0  0  0  0  0  0  0  0  0  0
   19.0610   33.3480   72.5880 C   0  0  0  0  0  0  0  0  0  0  0  0
   19.3100   32.5350   73.2530 H   0  0  0  0  0  0  0  0  0  0  0  0
   20.0740   34.1860   72.1640 C   0  0  0  0  0  0  0  0  0  0  0  0
   21.0840   34.0390   72.5180 H   0  0  0  0  0  0  0  0  0  0  0  0
   19.7910   35.2080   71.2890 C   0  0  0  0  0  0  0  0  0  0  0  0
   20.5760   35.8550   70.9250 H   0  0  0  0  0  0  0  0  0  0  0  0
   13.7530   37.0670   69.6780 I   0  0  0  0  0  0  0  0  0  0  0  0
  1  3  1  0  0  0  0
  2  1  1  0  0  0  0
  4  1  1  0  0  0  0
  5  1  1  0  0  0  0
  5  8  1  0  0  0  0
  5  6  1  0  0  0  0
  7  5  1  0  0  0  0
  8 10  1  0  0  0  0
  9  8  1  0  0  0  0
 10 11  2  0  0  0  0
 12 10  1  0  0  0  0
 12 13  1  0  0  0  0
 13 15  1  0  0  0  0
 13 14  1  0  0  0  0
 16 13  1  0  0  0  0
 16 17  1  0  0  0  0
 18 16  1  0  0  0  0
 19 20  1  0  0  0  0
 19 16  1  0  0  0  0
 21 24  1  0  0  0  0
 21 19  1  0  0  0  0
 22 21  1  0  0  0  0
 23 21  1  0  0  0  0
 24 26  1  0  0  0  0
 24 12  1  0  0  0  0
 25 24  1  0  0  0  0
 27 19  1  0  0  0  0
 28 27  1  0  0  0  0
 29 27  1  0  0  0  0
 30 29  2  0  0  0  0
 31 30  1  0  0  0  0
 32 33  1  0  0  0  0
 32 31  2  0  0  0  0
 33 35  2  0  0  0  0
 34 33  1  0  0  0  0
 35 29  1  0  0  0  0
 36 31  1  0  0  0  0
 36 42  1  0  0  0  0
 37 39  1  0  0  0  0
 37 36  2  0  0  0  0
 38 37  1  0  0  0  0
 39 41  1  0  0  0  0
 40 39  1  0  0  0  0
 41 49  2  0  0  0  0
 41 42  1  0  0  0  0
 42 43  2  0  0  0  0
 43 44  1  0  0  0  0
 43 45  1  0  0  0  0
 45 46  1  0  0  0  0
 47 48  1  0  0  0  0
 47 45  2  0  0  0  0
 49 47  1  0  0  0  0
 50 49  1  0  0  0  0
 51 32  1  0  0  0  0
M  END
>  <Pose>
2

>  <Score>
-8.00

$$$$

 OpenBabel03112211333D

 51 54  0  0  0  0  0  0  0  0999 V2000
   19.5850   28.9070   77.2330 C   0  0  0  0  0  0  0  0  0  0  0  0
   20.6360   28.8160   77.5060 H   0  0  0  0  0  0  0  0  0  0  0  0
   19.0460   28.0160   77.5570 H   0  0  0  0  0  0  0  0  0  0  0  0
   19.1590   29.7860   77.7170 H   0  0  0  0  0  0  0  0  0  0  0  0
   19.4630   29.0520   75.7010 C   0  0  0  0  0  0  0  0  0  0  0  0
   19.9090   28.1700   75.2420 H   0  0  0  0  0  0  0  0  0  0  0  0
   20.0210   29.9390   75.4010 H   0  0  0  0  0  0  0  0  0  0  0  0
   18.1050   29.1840   75.1970 N   0  0  0  0  0  0  0  0  0  0  0  0
   17.3800   29.5140   75.8170 H   0  0  0  0  0  0  0  0  0  0  0  0
   17.7730   28.8620   73.8600 C   0  0  0  0  0  0  0  0  0  0  0  0
   18.6340   28.4500   73.0850 O   0  0  0  0  0  0  0  0  0  0  0  0
   16.4810   29.0410   73.4920 N   0  0  0  0  0  0  0  0  0  0  0  0
   15.9120   28.7790   72.1720 C   0  0  0  0  0  0  0  0  0  0  0  0
   15.2760   27.8960   72.2400 H   0  0  0  0  0  0  0  0  0  0  0  0
   16.7290   28.5870   71.4770 H   0  0  0  0  0  0  0  0  0  0  0  0
   15.0910   29.9150   71.6370 C   0  0  0  0  0  0  0  0  0  0  0  0
   14.5940   29.5880   70.7240 H   0  0  0  0  0  0  0  0  0  0  0  0
   15.7540   30.7500   71.4110 H   0  0  0  0  0  0  0  0  0  0  0  0
   14.0510   30.3750   72.6140 C   0  0  0  0  0  0  0  0  0  0  0  0
   13.3640   29.5340   72.7060 H   0  0  0  0  0  0  0  0  0  0  0  0
   14.6280   30.6300   73.9550 C   0  0  0  0  0  0  0  0  0  0  0  0
   13.8130   30.7650   74.6650 H   0  0  0  0  0  0  0  0  0  0  0  0
   15.2260   31.5400   73.9100 H   0  0  0  0  0  0  0  0  0  0  0  0
   15.4990   29.5070   74.4330 C   0  0  0  0  0  0  0  0  0  0  0  0
   16.0240   29.8470   75.3260 H   0  0  0  0  0  0  0  0  0  0  0  0
   14.8530   28.6670   74.6880 H   0  0  0  0  0  0  0  0  0  0  0  0
   13.2010   31.4540   72.1510 N   0  0  0  0  0  0  0  0  0  0  0  0
   12.2080   31.2740   72.1720 H   0  0  0  0  0  0  0  0  0  0  0  0
   13.5620   32.6430   71.7050 C   0  0  0  0  0  0  0  0  0  0  0  0
   14.8440   32.9450   71.6710 N   0  0  0  0  0  0  0  0  0  0  0  0
   15.1620   34.1410   71.2020 C   0  0  0  0  0  0  0  0  0  0  0  0
   14.1820   35.0240   70.7810 C   0  0  0  0  0  0  0  0  0  0  0  0
   12.8500   34.6080   70.8700 C   0  0  0  0  0  0  0  0  0  0  0  0
   12.0620   35.2760   70.5580 H   0  0  0  0  0  0  0  0  0  0  0  0
   12.5450   33.4130   71.3280 N   0  0  0  0  0  0  0  0  0  0  0  0
   16.5700   34.4650   71.1540 C   0  0  0  0  0  0  0  0  0  0  0  0
   17.1820   35.4660   70.5100 C   0  0  0  0  0  0  0  0  0  0  0  0
   16.6530   36.2000   69.9200 H   0  0  0  0  0  0  0  0  0  0  0  0
   18.5120   35.4700   70.6660 N   0  0  0  0  0  0  0  0  0  0  0  0
   19.1520   36.1530   70.2860 H   0  0  0  0  0  0  0  0  0  0  0  0
   18.8450   34.4080   71.4170 C   0  0  0  0  0  0  0  0  0  0  0  0
   17.6560   33.7370   71.7640 C   0  0  0  0  0  0  0  0  0  0  0  0
   17.7120   32.5940   72.5480 C   0  0  0  0  0  0  0  0  0  0  0  0
   16.8180   32.0560   72.8250 H   0  0  0  0  0  0  0  0  0  0  0  0
   18.9650   32.1730   72.9580 C   0  0  0  0  0  0  0  0  0  0  0  0
   19.0360   31.2790   73.5600 H   0  0  0  0  0  0  0  0  0  0  0  0
   20.1300   32.8420   72.6340 C   0  0  0  0  0  0  0  0  0  0  0  0
   21.0800   32.4870   73.0030 H   0  0  0  0  0  0  0  0  0  0  0  0
   20.0720   33.9620   71.8390 C   0  0  0  0  0  0  0  0  0  0  0  0
   20.9740   34.4820   71.5530 H   0  0  0  0  0  0  0  0  0  0  0  0
   14.5470   36.9500   70.0640 I   0  0  0  0  0  0  0  0  0  0  0  0
  1  2  1  0  0  0  0
  1  3  1  0  0  0  0
  1  4  1  0  0  0  0
  5  1  1  0  0  0  0
  6  5  1  0  0  0  0
  7  5  1  0  0  0  0
  8  5  1  0  0  0  0
  8  9  1  0  0  0  0
 10  8  1  0  0  0  0
 11 10  2  0  0  0  0
 12 10  1  0  0  0  0
 12 24  1  0  0  0  0
 13 14  1  0  0  0  0
 13 12  1  0  0  0  0
 15 13  1  0  0  0  0
 16 13  1  0  0  0  0
 16 19  1  0  0  0  0
 17 16  1  0  0  0  0
 18 16  1  0  0  0  0
 19 20  1  0  0  0  0
 19 21  1  0  0  0  0
 21 24  1  0  0  0  0
 21 22  1  0  0  0  0
 23 21  1  0  0  0  0
 24 26  1  0  0  0  0
 24 25  1  0  0  0  0
 27 28  1  0  0  0  0
 27 19  1  0  0  0  0
 29 27  1  0  0  0  0
 30 29  2  0  0  0  0
 31 30  1  0  0  0  0
 32 33  1  0  0  0  0
 32 31  2  0  0  0  0
 33 35  2  0  0  0  0
 34 33  1  0  0  0  0
 35 29  1  0  0  0  0
 36 31  1  0  0  0  0
 36 42  1  0  0  0  0
 37 39  1  0  0  0  0
 37 36  2  0  0  0  0
 38 37  1  0  0  0  0
 39 41  1  0  0  0  0
 40 39  1  0  0  0  0
 41 42  2  0  0  0  0
 41 49  1  0  0  0  0
 42 43  1  0  0  0  0
 43 44  1  0  0  0  0
 43 45  2  0  0  0  0
 45 46  1  0  0  0  0
 47 45  1  0  0  0  0
 47 48  1  0  0  0  0
 49 47  2  0  0  0  0
 50 49  1  0  0  0  0
 51 32  1  0  0  0  0
M  END
>  <Pose>
1

>  <Score>
-7.92

$$$$

 OpenBabel03112211333D

 51 54  0  0  0  0  0  0  0  0999 V2000
   27.0980   34.0050   70.5440 C   0  0  0  0  0  0  0  0  0  0  0  0
   28.1770   34.1590   70.5200 H   0  0  0  0  0  0  0  0  0  0  0  0
   26.8750   32.9610   70.3240 H   0  0  0  0  0  0  0  0  0  0  0  0
   26.7170   34.2570   71.5340 H   0  0  0  0  0  0  0  0  0  0  0  0
   26.4260   34.9090   69.4880 C   0  0  0  0  0  0  0  0  0  0  0  0
   26.8350   34.6480   68.5120 H   0  0  0  0  0  0  0  0  0  0  0  0
   26.6770   35.9440   69.7220 H   0  0  0  0  0  0  0  0  0  0  0  0
   24.9780   34.8040   69.4130 N   0  0  0  0  0  0  0  0  0  0  0  0
   24.5390   33.9120   69.5930 H   0  0  0  0  0  0  0  0  0  0  0  0
   24.1660   35.9180   69.0930 C   0  0  0  0  0  0  0  0  0  0  0  0
   24.6740   37.0130   68.8610 O   0  0  0  0  0  0  0  0  0  0  0  0
   22.8280   35.7100   69.0700 N   0  0  0  0  0  0  0  0  0  0  0  0
   21.8010   36.7060   68.7700 C   0  0  0  0  0  0  0  0  0  0  0  0
   21.3770   36.4790   67.7920 H   0  0  0  0  0  0  0  0  0  0  0  0
   22.2720   37.6890   68.7420 H   0  0  0  0  0  0  0  0  0  0  0  0
   20.6880   36.7410   69.7740 C   0  0  0  0  0  0  0  0  0  0  0  0
   19.9040   37.4040   69.4050 H   0  0  0  0  0  0  0  0  0  0  0  0
   21.0770   37.1270   70.7160 H   0  0  0  0  0  0  0  0  0  0  0  0
   20.0970   35.3840   70.0170 C   0  0  0  0  0  0  0  0  0  0  0  0
   19.6300   35.1110   69.0700 H   0  0  0  0  0  0  0  0  0  0  0  0
   21.1400   34.3740   70.3100 C   0  0  0  0  0  0  0  0  0  0  0  0
   20.6840   33.3840   70.2810 H   0  0  0  0  0  0  0  0  0  0  0  0
   21.5360   34.5620   71.3080 H   0  0  0  0  0  0  0  0  0  0  0  0
   22.2730   34.4090   69.3300 C   0  0  0  0  0  0  0  0  0  0  0  0
   23.0710   33.7750   69.7160 H   0  0  0  0  0  0  0  0  0  0  0  0
   21.9120   34.0030   68.3850 H   0  0  0  0  0  0  0  0  0  0  0  0
   18.9950   35.3490   70.9570 N   0  0  0  0  0  0  0  0  0  0  0  0
   19.2480   35.2550   71.9300 H   0  0  0  0  0  0  0  0  0  0  0  0
   17.7010   35.4240   70.7020 C   0  0  0  0  0  0  0  0  0  0  0  0
   16.9330   34.4030   71.0210 N   0  0  0  0  0  0  0  0  0  0  0  0
   15.6410   34.5270   70.7620 C   0  0  0  0  0  0  0  0  0  0  0  0
   15.1390   35.6770   70.1750 C   0  0  0  0  0  0  0  0  0  0  0  0
   16.0450   36.6970   69.8670 C   0  0  0  0  0  0  0  0  0  0  0  0
   15.6870   37.6030   69.4000 H   0  0  0  0  0  0  0  0  0  0  0  0
   17.3250   36.5680   70.1370 N   0  0  0  0  0  0  0  0  0  0  0  0
   14.7970   33.4100   71.1240 C   0  0  0  0  0  0  0  0  0  0  0  0
   13.4610   33.3340   71.1350 C   0  0  0  0  0  0  0  0  0  0  0  0
   12.8200   34.1530   70.8440 H   0  0  0  0  0  0  0  0  0  0  0  0
   12.9950   32.1450   71.5400 N   0  0  0  0  0  0  0  0  0  0  0  0
   12.0230   31.8750   71.5940 H   0  0  0  0  0  0  0  0  0  0  0  0
   14.0470   31.3760   71.8630 C   0  0  0  0  0  0  0  0  0  0  0  0
   15.2170   32.1190   71.6120 C   0  0  0  0  0  0  0  0  0  0  0  0
   16.4600   31.5550   71.8590 C   0  0  0  0  0  0  0  0  0  0  0  0
   17.3730   32.1030   71.6820 H   0  0  0  0  0  0  0  0  0  0  0  0
   16.4780   30.2580   72.3430 C   0  0  0  0  0  0  0  0  0  0  0  0
   17.4330   29.8010   72.5540 H   0  0  0  0  0  0  0  0  0  0  0  0
   15.3310   29.5220   72.5700 C   0  0  0  0  0  0  0  0  0  0  0  0
   15.4010   28.5030   72.9230 H   0  0  0  0  0  0  0  0  0  0  0  0
   14.1000   30.0920   72.3450 C   0  0  0  0  0  0  0  0  0  0  0  0
   13.1930   29.5410   72.5430 H   0  0  0  0  0  0  0  0  0  0  0  0
   13.1350   35.9800   69.6760 I   0  0  0  0  0  0  0  0  0  0  0  0
  1  4  1  0  0  0  0
  2  1  1  0  0  0  0
  3  1  1  0  0  0  0
  5  7  1  0  0  0  0
  5  1  1  0  0  0  0
  6  5  1  0  0  0  0
  8  5  1  0  0  0  0
  8  9  1  0  0  0  0
 10  8  1  0  0  0  0
 11 10  2  0  0  0  0
 12 10  1  0  0  0  0
 12 24  1  0  0  0  0
 13 12  1  0  0  0  0
 13 16  1  0  0  0  0
 14 13  1  0  0  0  0
 15 13  1  0  0  0  0
 16 19  1  0  0  0  0
 16 18  1  0  0  0  0
 17 16  1  0  0  0  0
 19 21  1  0  0  0  0
 19 27  1  0  0  0  0
 20 19  1  0  0  0  0
 21 23  1  0  0  0  0
 22 21  1  0  0  0  0
 24 25  1  0  0  0  0
 24 21  1  0  0  0  0
 26 24  1  0  0  0  0
 27 28  1  0  0  0  0
 29 27  1  0  0  0  0
 29 30  2  0  0  0  0
 31 30  1  0  0  0  0
 31 36  1  0  0  0  0
 32 31  2  0  0  0  0
 33 35  2  0  0  0  0
 33 32  1  0  0  0  0
 34 33  1  0  0  0  0
 35 29  1  0  0  0  0
 36 37  2  0  0  0  0
 36 42  1  0  0  0  0
 37 39  1  0  0  0  0
 38 37  1  0  0  0  0
 39 40  1  0  0  0  0
 39 41  1  0  0  0  0
 41 49  1  0  0  0  0
 42 43  1  0  0  0  0
 42 41  2  0  0  0  0
 43 45  2  0  0  0  0
 44 43  1  0  0  0  0
 45 46  1  0  0  0  0
 45 47  1  0  0  0  0
 47 48  1  0  0  0  0
 49 50  1  0  0  0  0
 49 47  2  0  0  0  0
 51 32  1  0  0  0  0
M  END
>  <Pose>
2

>  <Score>
-7.91

$$$$

 OpenBabel03112211333D

 51 54  0  0  0  0  0  0  0  0999 V2000
   26.6080   32.5450   68.9370 C   0  0  0  0  0  0  0  0  0  0  0  0
   27.6920   32.5380   69.0470 H   0  0  0  0  0  0  0  0  0  0  0  0
   26.3340   33.1450   68.0700 H   0  0  0  0  0  0  0  0  0  0  0  0
   26.2510   31.5240   68.8000 H   0  0  0  0  0  0  0  0  0  0  0  0
   25.9660   33.1480   70.2050 C   0  0  0  0  0  0  0  0  0  0  0  0
   26.3500   34.1600   70.3280 H   0  0  0  0  0  0  0  0  0  0  0  0
   26.2670   32.5390   71.0570 H   0  0  0  0  0  0  0  0  0  0  0  0
   24.5130   33.2160   70.1930 N   0  0  0  0  0  0  0  0  0  0  0  0
   23.9920   32.7270   70.9060 H   0  0  0  0  0  0  0  0  0  0  0  0
   23.8120   33.9500   69.2080 C   0  0  0  0  0  0  0  0  0  0  0  0
   24.4200   34.5490   68.3240 O   0  0  0  0  0  0  0  0  0  0  0  0
   22.4600   33.9620   69.3050 N   0  0  0  0  0  0  0  0  0  0  0  0
   21.5330   34.6490   68.4080 C   0  0  0  0  0  0  0  0  0  0  0  0
   21.0120   33.9010   67.8110 H   0  0  0  0  0  0  0  0  0  0  0  0
   22.1090   35.3020   67.7510 H   0  0  0  0  0  0  0  0  0  0  0  0
   20.5110   35.4800   69.1250 C   0  0  0  0  0  0  0  0  0  0  0  0
   19.7820   35.8410   68.3990 H   0  0  0  0  0  0  0  0  0  0  0  0
   21.0120   36.3290   69.5900 H   0  0  0  0  0  0  0  0  0  0  0  0
   19.7900   34.7050   70.1870 C   0  0  0  0  0  0  0  0  0  0  0  0
   19.2250   33.9480   69.6440 H   0  0  0  0  0  0  0  0  0  0  0  0
   20.7310   34.0000   71.0880 C   0  0  0  0  0  0  0  0  0  0  0  0
   20.1650   33.3030   71.7070 H   0  0  0  0  0  0  0  0  0  0  0  0
   21.2210   34.7360   71.7250 H   0  0  0  0  0  0  0  0  0  0  0  0
   21.7830   33.2340   70.3440 C   0  0  0  0  0  0  0  0  0  0  0  0
   22.5310   32.9040   71.0640 H   0  0  0  0  0  0  0  0  0  0  0  0
   21.3070   32.3650   69.8890 H   0  0  0  0  0  0  0  0  0  0  0  0
   18.7660   35.4400   70.9020 N   0  0  0  0  0  0  0  0  0  0  0  0
   19.0860   35.9980   71.6810 H   0  0  0  0  0  0  0  0  0  0  0  0
   17.4680   35.4730   70.6640 C   0  0  0  0  0  0  0  0  0  0  0  0
   16.7310   34.4430   71.0270 N   0  0  0  0  0  0  0  0  0  0  0  0
   15.4330   34.5240   70.7830 C   0  0  0  0  0  0  0  0  0  0  0  0
   14.8930   35.6410   70.1670 C   0  0  0  0  0  0  0  0  0  0  0  0
   15.7660   36.6740   69.8130 C   0  0  0  0  0  0  0  0  0  0  0  0
   15.3780   37.5550   69.3230 H   0  0  0  0  0  0  0  0  0  0  0  0
   17.0540   36.5880   70.0680 N   0  0  0  0  0  0  0  0  0  0  0  0
   14.6240   33.3980   71.1920 C   0  0  0  0  0  0  0  0  0  0  0  0
   13.2920   33.3040   71.2720 C   0  0  0  0  0  0  0  0  0  0  0  0
   12.6260   34.1120   71.0110 H   0  0  0  0  0  0  0  0  0  0  0  0
   12.8640   32.1110   71.7060 N   0  0  0  0  0  0  0  0  0  0  0  0
   11.9000   31.8280   71.8110 H   0  0  0  0  0  0  0  0  0  0  0  0
   13.9420   31.3570   71.9780 C   0  0  0  0  0  0  0  0  0  0  0  0
   15.0870   32.1150   71.6640 C   0  0  0  0  0  0  0  0  0  0  0  0
   16.3490   31.5690   71.8490 C   0  0  0  0  0  0  0  0  0  0  0  0
   17.2440   32.1290   71.6230 H   0  0  0  0  0  0  0  0  0  0  0  0
   16.4090   30.2750   72.3380 C   0  0  0  0  0  0  0  0  0  0  0  0
   17.3800   29.8320   72.5010 H   0  0  0  0  0  0  0  0  0  0  0  0
   15.2860   29.5250   72.6260 C   0  0  0  0  0  0  0  0  0  0  0  0
   15.3880   28.5090   72.9790 H   0  0  0  0  0  0  0  0  0  0  0  0
   14.0380   30.0770   72.4620 C   0  0  0  0  0  0  0  0  0  0  0  0
   13.1490   29.5140   72.7090 H   0  0  0  0  0  0  0  0  0  0  0  0
   12.8750   35.8750   69.6880 I   0  0  0  0  0  0  0  0  0  0  0  0
  1  2  1  0  0  0  0
  1  5  1  0  0  0  0
  3  1  1  0  0  0  0
  4  1  1  0  0  0  0
  5  6  1  0  0  0  0
  5  7  1  0  0  0  0
  8  5  1  0  0  0  0
  8  9  1  0  0  0  0
 10 12  1  0  0  0  0
 10  8  1  0  0  0  0
 11 10  2  0  0  0  0
 12 24  1  0  0  0  0
 13 16  1  0  0  0  0
 13 12  1  0  0  0  0
 14 13  1  0  0  0  0
 15 13  1  0  0  0  0
 16 18  1  0  0  0  0
 16 19  1  0  0  0  0
 17 16  1  0  0  0  0
 19 27  1  0  0  0  0
 19 21  1  0  0  0  0
 20 19  1  0  0  0  0
 21 22  1  0  0  0  0
 21 23  1  0  0  0  0
 24 25  1  0  0  0  0
 24 21  1  0  0  0  0
 26 24  1  0  0  0  0
 27 28  1  0  0  0  0
 29 27  1  0  0  0  0
 29 30  2  0  0  0  0
 31 30  1  0  0  0  0
 31 36  1  0  0  0  0
 32 31  2  0  0  0  0
 33 35  2  0  0  0  0
 33 32  1  0  0  0  0
 34 33  1  0  0  0  0
 35 29  1  0  0  0  0
 36 37  2  0  0  0  0
 36 42  1  0  0  0  0
 37 39  1  0  0  0  0
 38 37  1  0  0  0  0
 39 40  1  0  0  0  0
 39 41  1  0  0  0  0
 41 49  1  0  0  0  0
 42 43  1  0  0  0  0
 42 41  2  0  0  0  0
 43 45  2  0  0  0  0
 44 43  1  0  0  0  0
 45 46  1  0  0  0  0
 45 47  1  0  0  0  0
 47 48  1  0  0  0  0
 49 47  2  0  0  0  0
 49 50  1  0  0  0  0
 51 32  1  0  0  0  0
M  END
>  <Pose>
2

>  <Score>
-7.47

$$$$

 OpenBabel03112211333D

 51 54  0  0  0  0  0  0  0  0999 V2000
   24.1550   37.0370   65.3350 C   0  0  0  0  0  0  0  0  0  0  0  0
   24.9900   37.2320   64.6620 H   0  0  0  0  0  0  0  0  0  0  0  0
   23.2240   37.3430   64.8590 H   0  0  0  0  0  0  0  0  0  0  0  0
   24.1140   35.9720   65.5640 H   0  0  0  0  0  0  0  0  0  0  0  0
   24.3510   37.8360   66.6420 C   0  0  0  0  0  0  0  0  0  0  0  0
   24.4040   38.8940   66.3840 H   0  0  0  0  0  0  0  0  0  0  0  0
   25.2940   37.5240   67.0900 H   0  0  0  0  0  0  0  0  0  0  0  0
   23.3030   37.6670   67.6360 N   0  0  0  0  0  0  0  0  0  0  0  0
   22.3670   37.9810   67.4210 H   0  0  0  0  0  0  0  0  0  0  0  0
   23.5600   37.0760   68.8940 C   0  0  0  0  0  0  0  0  0  0  0  0
   24.6910   36.6920   69.1850 O   0  0  0  0  0  0  0  0  0  0  0  0
   22.5050   36.9500   69.7350 N   0  0  0  0  0  0  0  0  0  0  0  0
   22.5300   36.3720   71.0770 C   0  0  0  0  0  0  0  0  0  0  0  0
   22.4080   37.1770   71.8020 H   0  0  0  0  0  0  0  0  0  0  0  0
   23.4970   35.8920   71.2270 H   0  0  0  0  0  0  0  0  0  0  0  0
   21.4540   35.3540   71.3120 C   0  0  0  0  0  0  0  0  0  0  0  0
   21.4560   35.0790   72.3670 H   0  0  0  0  0  0  0  0  0  0  0  0
   21.6660   34.4730   70.7060 H   0  0  0  0  0  0  0  0  0  0  0  0
   20.0930   35.8710   70.9510 C   0  0  0  0  0  0  0  0  0  0  0  0
   19.9010   36.6720   71.6660 H   0  0  0  0  0  0  0  0  0  0  0  0
   20.0720   36.4670   69.5950 C   0  0  0  0  0  0  0  0  0  0  0  0
   19.1290   36.9980   69.4620 H   0  0  0  0  0  0  0  0  0  0  0  0
   20.1440   35.6640   68.8610 H   0  0  0  0  0  0  0  0  0  0  0  0
   21.2000   37.4280   69.3670 C   0  0  0  0  0  0  0  0  0  0  0  0
   21.2200   37.6750   68.3050 H   0  0  0  0  0  0  0  0  0  0  0  0
   20.9960   38.3280   69.9450 H   0  0  0  0  0  0  0  0  0  0  0  0
   19.0000   34.9470   71.1800 N   0  0  0  0  0  0  0  0  0  0  0  0
   19.2470   34.0700   71.6160 H   0  0  0  0  0  0  0  0  0  0  0  0
   17.7220   35.1070   70.8900 C   0  0  0  0  0  0  0  0  0  0  0  0
   16.8780   34.1440   71.1960 N   0  0  0  0  0  0  0  0  0  0  0  0
   15.6040   34.3530   70.9020 C   0  0  0  0  0  0  0  0  0  0  0  0
   15.1980   35.5290   70.2930 C   0  0  0  0  0  0  0  0  0  0  0  0
   16.1780   36.4820   70.0020 C   0  0  0  0  0  0  0  0  0  0  0  0
   15.8950   37.4060   69.5190 H   0  0  0  0  0  0  0  0  0  0  0  0
   17.4400   36.2690   70.3070 N   0  0  0  0  0  0  0  0  0  0  0  0
   14.6770   33.2990   71.2490 C   0  0  0  0  0  0  0  0  0  0  0  0
   13.3650   33.2180   71.0010 C   0  0  0  0  0  0  0  0  0  0  0  0
   12.8160   33.9790   70.4670 H   0  0  0  0  0  0  0  0  0  0  0  0
   12.7970   32.1020   71.4770 N   0  0  0  0  0  0  0  0  0  0  0  0
   11.8280   31.8380   71.3730 H   0  0  0  0  0  0  0  0  0  0  0  0
   13.7440   31.3960   72.1170 C   0  0  0  0  0  0  0  0  0  0  0  0
   14.9580   32.1000   71.9990 C   0  0  0  0  0  0  0  0  0  0  0  0
   16.1120   31.5860   72.5740 C   0  0  0  0  0  0  0  0  0  0  0  0
   17.0560   32.1060   72.5040 H   0  0  0  0  0  0  0  0  0  0  0  0
   16.0000   30.3780   73.2400 C   0  0  0  0  0  0  0  0  0  0  0  0
   16.8820   29.9630   73.7050 H   0  0  0  0  0  0  0  0  0  0  0  0
   14.8130   29.6780   73.3380 C   0  0  0  0  0  0  0  0  0  0  0  0
   14.7850   28.7260   73.8460 H   0  0  0  0  0  0  0  0  0  0  0  0
   13.6670   30.2010   72.7860 C   0  0  0  0  0  0  0  0  0  0  0  0
   12.7250   29.6810   72.8780 H   0  0  0  0  0  0  0  0  0  0  0  0
   13.2330   35.9620   69.7390 I   0  0  0  0  0  0  0  0  0  0  0  0
  1  4  1  0  0  0  0
  1  5  1  0  0  0  0
  2  1  1  0  0  0  0
  3  1  1  0  0  0  0
  5  7  1  0  0  0  0
  5  8  1  0  0  0  0
  6  5  1  0  0  0  0
  8 10  1  0  0  0  0
  9  8  1  0  0  0  0
 10 11  2  0  0  0  0
 10 12  1  0  0  0  0
 12 13  1  0  0  0  0
 13 15  1  0  0  0  0
 13 16  1  0  0  0  0
 13 14  1  0  0  0  0
 16 17  1  0  0  0  0
 18 16  1  0  0  0  0
 19 27  1  0  0  0  0
 19 16  1  0  0  0  0
 19 20  1  0  0  0  0
 21 19  1  0  0  0  0
 22 21  1  0  0  0  0
 23 21  1  0  0  0  0
 24 21  1  0  0  0  0
 24 12  1  0  0  0  0
 24 26  1  0  0  0  0
 25 24  1  0  0  0  0
 27 28  1  0  0  0  0
 29 27  1  0  0  0  0
 29 30  2  0  0  0  0
 31 30  1  0  0  0  0
 31 36  1  0  0  0  0
 32 31  2  0  0  0  0
 33 32  1  0  0  0  0
 33 35  2  0  0  0  0
 34 33  1  0  0  0  0
 35 29  1  0  0  0  0
 36 42  1  0  0  0  0
 37 36  2  0  0  0  0
 37 39  1  0  0  0  0
 38 37  1  0  0  0  0
 39 41  1  0  0  0  0
 40 39  1  0  0  0  0
 41 49  1  0  0  0  0
 42 41  2  0  0  0  0
 42 43  1  0  0  0  0
 43 45  2  0  0  0  0
 44 43  1  0  0  0  0
 45 47  1  0  0  0  0
 45 46  1  0  0  0  0
 47 48  1  0  0  0  0
 49 50  1  0  0  0  0
 49 47  2  0  0  0  0
 51 32  1  0  0  0  0
M  END
>  <Pose>
1

>  <Score>
-7.05

$$$$

 OpenBabel03112211333D

 51 54  0  0  0  0  0  0  0  0999 V2000
   20.2560   25.0300   72.4950 C   0  0  0  0  0  0  0  0  0  0  0  0
   20.8870   24.1430   72.4270 H   0  0  0  0  0  0  0  0  0  0  0  0
   20.8250   25.8460   72.9400 H   0  0  0  0  0  0  0  0  0  0  0  0
   19.9260   25.3180   71.4970 H   0  0  0  0  0  0  0  0  0  0  0  0
   19.0260   24.7200   73.3750 C   0  0  0  0  0  0  0  0  0  0  0  0
   19.3840   24.4200   74.3600 H   0  0  0  0  0  0  0  0  0  0  0  0
   18.4850   23.8920   72.9170 H   0  0  0  0  0  0  0  0  0  0  0  0
   18.0950   25.8230   73.5510 N   0  0  0  0  0  0  0  0  0  0  0  0
   18.0180   26.2610   74.4570 H   0  0  0  0  0  0  0  0  0  0  0  0
   17.2950   26.2980   72.4860 C   0  0  0  0  0  0  0  0  0  0  0  0
   17.3620   25.7780   71.3740 O   0  0  0  0  0  0  0  0  0  0  0  0
   16.4770   27.3440   72.7580 N   0  0  0  0  0  0  0  0  0  0  0  0
   15.5680   27.9990   71.8200 C   0  0  0  0  0  0  0  0  0  0  0  0
   14.5450   27.7390   72.0930 H   0  0  0  0  0  0  0  0  0  0  0  0
   15.7820   27.6300   70.8170 H   0  0  0  0  0  0  0  0  0  0  0  0
   15.6900   29.4940   71.8120 C   0  0  0  0  0  0  0  0  0  0  0  0
   14.8910   29.9080   71.1970 H   0  0  0  0  0  0  0  0  0  0  0  0
   16.6550   29.7640   71.3820 H   0  0  0  0  0  0  0  0  0  0  0  0
   15.5940   30.0820   73.1880 C   0  0  0  0  0  0  0  0  0  0  0  0
   14.5730   29.8730   73.5090 H   0  0  0  0  0  0  0  0  0  0  0  0
   16.5090   29.4090   74.1390 C   0  0  0  0  0  0  0  0  0  0  0  0
   16.2590   29.7310   75.1500 H   0  0  0  0  0  0  0  0  0  0  0  0
   17.5320   29.7030   73.9060 H   0  0  0  0  0  0  0  0  0  0  0  0
   16.4130   27.9140   74.0760 C   0  0  0  0  0  0  0  0  0  0  0  0
   17.2340   27.5000   74.6610 H   0  0  0  0  0  0  0  0  0  0  0  0
   15.4640   27.6190   74.5240 H   0  0  0  0  0  0  0  0  0  0  0  0
   15.6770   31.5270   73.2510 N   0  0  0  0  0  0  0  0  0  0  0  0
   16.2630   31.9040   73.9820 H   0  0  0  0  0  0  0  0  0  0  0  0
   15.0820   32.4130   72.4730 C   0  0  0  0  0  0  0  0  0  0  0  0
   15.7860   33.4290   72.0160 N   0  0  0  0  0  0  0  0  0  0  0  0
   15.1550   34.2840   71.2280 C   0  0  0  0  0  0  0  0  0  0  0  0
   13.8170   34.1110   70.9160 C   0  0  0  0  0  0  0  0  0  0  0  0
   13.1600   33.0040   71.4630 C   0  0  0  0  0  0  0  0  0  0  0  0
   12.1140   32.8450   71.2470 H   0  0  0  0  0  0  0  0  0  0  0  0
   13.7980   32.1540   72.2380 N   0  0  0  0  0  0  0  0  0  0  0  0
   15.9320   35.3910   70.7180 C   0  0  0  0  0  0  0  0  0  0  0  0
   15.5090   36.5650   70.2350 C   0  0  0  0  0  0  0  0  0  0  0  0
   14.4650   36.8380   70.1780 H   0  0  0  0  0  0  0  0  0  0  0  0
   16.5010   37.3680   69.8300 N   0  0  0  0  0  0  0  0  0  0  0  0
   16.3960   38.3020   69.4610 H   0  0  0  0  0  0  0  0  0  0  0  0
   17.6600   36.7120   70.0000 C   0  0  0  0  0  0  0  0  0  0  0  0
   17.3660   35.4570   70.5680 C   0  0  0  0  0  0  0  0  0  0  0  0
   18.3930   34.5700   70.8540 C   0  0  0  0  0  0  0  0  0  0  0  0
   18.1970   33.5990   71.2840 H   0  0  0  0  0  0  0  0  0  0  0  0
   19.6810   34.9840   70.5630 C   0  0  0  0  0  0  0  0  0  0  0  0
   20.4980   34.3060   70.7660 H   0  0  0  0  0  0  0  0  0  0  0  0
   19.9720   36.2220   70.0250 C   0  0  0  0  0  0  0  0  0  0  0  0
   20.9980   36.5070   69.8420 H   0  0  0  0  0  0  0  0  0  0  0  0
   18.9500   37.0900   69.7230 C   0  0  0  0  0  0  0  0  0  0  0  0
   19.1570   38.0510   69.2760 H   0  0  0  0  0  0  0  0  0  0  0  0
   12.6960   35.4070   69.7240 I   0  0  0  0  0  0  0  0  0  0  0  0
  1  3  1  0  0  0  0
  1  5  1  0  0  0  0
  2  1  1  0  0  0  0
  4  1  1  0  0  0  0
  5  8  1  0  0  0  0
  5  6  1  0  0  0  0
  7  5  1  0  0  0  0
  8  9  1  0  0  0  0
 10 12  1  0  0  0  0
 10  8  1  0  0  0  0
 11 10  2  0  0  0  0
 12 24  1  0  0  0  0
 13 14  1  0  0  0  0
 13 12  1  0  0  0  0
 15 13  1  0  0  0  0
 16 13  1  0  0  0  0
 16 19  1  0  0  0  0
 17 16  1  0  0  0  0
 18 16  1  0  0  0  0
 19 27  1  0  0  0  0
 19 20  1  0  0  0  0
 19 21  1  0  0  0  0
 21 22  1  0  0  0  0
 23 21  1  0  0  0  0
 24 21  1  0  0  0  0
 24 26  1  0  0  0  0
 24 25  1  0  0  0  0
 27 28  1  0  0  0  0
 29 27  1  0  0  0  0
 30 29  2  0  0  0  0
 31 30  1  0  0  0  0
 32 31  2  0  0  0  0
 32 33  1  0  0  0  0
 33 35  2  0  0  0  0
 34 33  1  0  0  0  0
 35 29  1  0  0  0  0
 36 31  1  0  0  0  0
 37 36  2  0  0  0  0
 38 37  1  0  0  0  0
 39 41  1  0  0  0  0
 39 37  1  0  0  0  0
 40 39  1  0  0  0  0
 41 42  1  0  0  0  0
 42 36  1  0  0  0  0
 42 43  2  0  0  0  0
 43 44  1  0  0  0  0
 45 46  1  0  0  0  0
 45 43  1  0  0  0  0
 47 45  2  0  0  0  0
 48 47  1  0  0  0  0
 49 41  2  0  0  0  0
 49 47  1  0  0  0  0
 50 49  1  0  0  0  0
 51 32  1  0  0  0  0
M  END
>  <Pose>
1

>  <Score>
-6.88

$$$$

 OpenBabel03112211333D

 51 54  0  0  0  0  0  0  0  0999 V2000
   13.5350   36.6650   69.3780 C   0  0  0  0  0  0  0  0  0  0  0  0
   12.8280   37.3980   68.9890 H   0  0  0  0  0  0  0  0  0  0  0  0
   14.4060   36.6180   68.7260 H   0  0  0  0  0  0  0  0  0  0  0  0
   13.8470   36.9570   70.3810 H   0  0  0  0  0  0  0  0  0  0  0  0
   12.8580   35.2780   69.4330 C   0  0  0  0  0  0  0  0  0  0  0  0
   12.5430   35.0170   68.4230 H   0  0  0  0  0  0  0  0  0  0  0  0
   11.9830   35.3560   70.0790 H   0  0  0  0  0  0  0  0  0  0  0  0
   13.6940   34.2000   69.9370 N   0  0  0  0  0  0  0  0  0  0  0  0
   14.6380   34.1070   69.5910 H   0  0  0  0  0  0  0  0  0  0  0  0
   13.2190   33.2780   70.8990 C   0  0  0  0  0  0  0  0  0  0  0  0
   12.0720   33.3630   71.3320 O   0  0  0  0  0  0  0  0  0  0  0  0
   14.0900   32.3250   71.3120 N   0  0  0  0  0  0  0  0  0  0  0  0
   13.8250   31.2750   72.2930 C   0  0  0  0  0  0  0  0  0  0  0  0
   13.7620   30.3220   71.7680 H   0  0  0  0  0  0  0  0  0  0  0  0
   12.8710   31.4880   72.7750 H   0  0  0  0  0  0  0  0  0  0  0  0
   14.8790   31.1650   73.3540 C   0  0  0  0  0  0  0  0  0  0  0  0
   14.6800   30.2790   73.9560 H   0  0  0  0  0  0  0  0  0  0  0  0
   14.8330   32.0520   73.9870 H   0  0  0  0  0  0  0  0  0  0  0  0
   16.2590   31.0560   72.7770 C   0  0  0  0  0  0  0  0  0  0  0  0
   16.2670   30.0990   72.2550 H   0  0  0  0  0  0  0  0  0  0  0  0
   16.5220   32.1150   71.7740 C   0  0  0  0  0  0  0  0  0  0  0  0
   17.4460   31.8750   71.2490 H   0  0  0  0  0  0  0  0  0  0  0  0
   16.6360   33.0660   72.2940 H   0  0  0  0  0  0  0  0  0  0  0  0
   15.4190   32.2470   70.7680 C   0  0  0  0  0  0  0  0  0  0  0  0
   15.5990   33.1540   70.1900 H   0  0  0  0  0  0  0  0  0  0  0  0
   15.4610   31.3810   70.1080 H   0  0  0  0  0  0  0  0  0  0  0  0
   17.3260   30.9190   73.7470 N   0  0  0  0  0  0  0  0  0  0  0  0
   17.1750   31.3720   74.6370 H   0  0  0  0  0  0  0  0  0  0  0  0
   18.4720   30.2750   73.6150 C   0  0  0  0  0  0  0  0  0  0  0  0
   19.5280   30.9420   73.1990 N   0  0  0  0  0  0  0  0  0  0  0  0
   20.6590   30.2620   73.0960 C   0  0  0  0  0  0  0  0  0  0  0  0
   20.7090   28.9130   73.4050 C   0  0  0  0  0  0  0  0  0  0  0  0
   19.5260   28.2990   73.8260 C   0  0  0  0  0  0  0  0  0  0  0  0
   19.5290   27.2460   74.0660 H   0  0  0  0  0  0  0  0  0  0  0  0
   18.4090   28.9850   73.9350 N   0  0  0  0  0  0  0  0  0  0  0  0
   21.8210   30.9990   72.6510 C   0  0  0  0  0  0  0  0  0  0  0  0
   23.0350   31.0710   73.2080 C   0  0  0  0  0  0  0  0  0  0  0  0
   23.3040   30.5420   74.1090 H   0  0  0  0  0  0  0  0  0  0  0  0
   23.8850   31.8630   72.5400 N   0  0  0  0  0  0  0  0  0  0  0  0
   24.8520   32.0300   72.7780 H   0  0  0  0  0  0  0  0  0  0  0  0
   23.2240   32.3950   71.4990 C   0  0  0  0  0  0  0  0  0  0  0  0
   21.9140   31.8790   71.5110 C   0  0  0  0  0  0  0  0  0  0  0  0
   21.0100   32.2660   70.5320 C   0  0  0  0  0  0  0  0  0  0  0  0
   19.9980   31.8900   70.5200 H   0  0  0  0  0  0  0  0  0  0  0  0
   21.4640   33.1540   69.5730 C   0  0  0  0  0  0  0  0  0  0  0  0
   20.7760   33.4790   68.8060 H   0  0  0  0  0  0  0  0  0  0  0  0
   22.7550   33.6450   69.5490 C   0  0  0  0  0  0  0  0  0  0  0  0
   23.0660   34.3150   68.7610 H   0  0  0  0  0  0  0  0  0  0  0  0
   23.6410   33.2760   70.5330 C   0  0  0  0  0  0  0  0  0  0  0  0
   24.6460   33.6720   70.5460 H   0  0  0  0  0  0  0  0  0  0  0  0
   22.4130   27.7190   73.2430 I   0  0  0  0  0  0  0  0  0  0  0  0
  1  5  1  0  0  0  0
  1  4  1  0  0  0  0
  2  1  1  0  0  0  0
  3  1  1  0  0  0  0
  5  8  1  0  0  0  0
  5  7  1  0  0  0  0
  6  5  1  0  0  0  0
  8 10  1  0  0  0  0
  9  8  1  0  0  0  0
 10 12  1  0  0  0  0
 10 11  2  0  0  0  0
 12 13  1  0  0  0  0
 13 15  1  0  0  0  0
 13 16  1  0  0  0  0
 14 13  1  0  0  0  0
 16 17  1  0  0  0  0
 16 18  1  0  0  0  0
 19 16  1  0  0  0  0
 19 27  1  0  0  0  0
 20 19  1  0  0  0  0
 21 23  1  0  0  0  0
 21 19  1  0  0  0  0
 22 21  1  0  0  0  0
 24 12  1  0  0  0  0
 24 21  1  0  0  0  0
 25 24  1  0  0  0  0
 26 24  1  0  0  0  0
 27 28  1  0  0  0  0
 29 27  1  0  0  0  0
 29 35  1  0  0  0  0
 30 29  2  0  0  0  0
 31 30  1  0  0  0  0
 31 32  2  0  0  0  0
 32 33  1  0  0  0  0
 33 35  2  0  0  0  0
 33 34  1  0  0  0  0
 36 31  1  0  0  0  0
 36 37  2  0  0  0  0
 37 38  1  0  0  0  0
 39 40  1  0  0  0  0
 39 37  1  0  0  0  0
 41 42  1  0  0  0  0
 41 39  1  0  0  0  0
 42 36  1  0  0  0  0
 43 42  2  0  0  0  0
 44 43  1  0  0  0  0
 45 43  1  0  0  0  0
 46 45  1  0  0  0  0
 47 45  2  0  0  0  0
 47 49  1  0  0  0  0
 48 47  1  0  0  0  0
 49 50  1  0  0  0  0
 49 41  2  0  0  0  0
 51 32  1  0  0  0  0
M  END
>  <Pose>
1

>  <Score>
-6.44

$$$$
