
 OpenBabel03112215123D

 51 54  0  0  0  0  0  0  0  0999 V2000
   18.6640   25.1710   72.6200 C   0  0  0  0  0  0  0  0  0  0  0  0
   18.9660   24.1260   72.6830 H   0  0  0  0  0  0  0  0  0  0  0  0
   19.4520   25.8030   73.0290 H   0  0  0  0  0  0  0  0  0  0  0  0
   18.4910   25.4370   71.5770 H   0  0  0  0  0  0  0  0  0  0  0  0
   17.3650   25.3820   73.4270 C   0  0  0  0  0  0  0  0  0  0  0  0
   17.5600   25.0950   74.4600 H   0  0  0  0  0  0  0  0  0  0  0  0
   16.5990   24.7290   73.0080 H   0  0  0  0  0  0  0  0  0  0  0  0
   16.8470   26.7410   73.4270 N   0  0  0  0  0  0  0  0  0  0  0  0
   17.2710   27.4280   72.8200 H   0  0  0  0  0  0  0  0  0  0  0  0
   15.7660   27.1250   74.2540 C   0  0  0  0  0  0  0  0  0  0  0  0
   15.2380   26.3120   75.0080 O   0  0  0  0  0  0  0  0  0  0  0  0
   15.3540   28.4120   74.1580 N   0  0  0  0  0  0  0  0  0  0  0  0
   14.2620   29.0300   74.9080 C   0  0  0  0  0  0  0  0  0  0  0  0
   14.6910   29.7180   75.6370 H   0  0  0  0  0  0  0  0  0  0  0  0
   13.7130   28.2450   75.4280 H   0  0  0  0  0  0  0  0  0  0  0  0
   13.2980   29.7920   74.0460 C   0  0  0  0  0  0  0  0  0  0  0  0
   12.6040   30.3310   74.6900 H   0  0  0  0  0  0  0  0  0  0  0  0
   12.7460   29.0840   73.4280 H   0  0  0  0  0  0  0  0  0  0  0  0
   13.9900   30.7760   73.1510 C   0  0  0  0  0  0  0  0  0  0  0  0
   14.4230   31.5120   73.8290 H   0  0  0  0  0  0  0  0  0  0  0  0
   15.1030   30.1500   72.4000 C   0  0  0  0  0  0  0  0  0  0  0  0
   15.6890   30.9370   71.9260 H   0  0  0  0  0  0  0  0  0  0  0  0
   14.6830   29.4980   71.6340 H   0  0  0  0  0  0  0  0  0  0  0  0
   16.0100   29.3400   73.2760 C   0  0  0  0  0  0  0  0  0  0  0  0
   16.6810   28.7720   72.6310 H   0  0  0  0  0  0  0  0  0  0  0  0
   16.5910   30.0300   73.8880 H   0  0  0  0  0  0  0  0  0  0  0  0
   13.1150   31.5670   72.3100 N   0  0  0  0  0  0  0  0  0  0  0  0
   12.1920   31.1890   72.1540 H   0  0  0  0  0  0  0  0  0  0  0  0
   13.3730   32.7210   71.7210 C   0  0  0  0  0  0  0  0  0  0  0  0
   14.6240   33.1230   71.6350 N   0  0  0  0  0  0  0  0  0  0  0  0
   14.8380   34.2770   71.0240 C   0  0  0  0  0  0  0  0  0  0  0  0
   13.7850   35.0190   70.5140 C   0  0  0  0  0  0  0  0  0  0  0  0
   12.4940   34.5060   70.6700 C   0  0  0  0  0  0  0  0  0  0  0  0
   11.6500   35.0640   70.2920 H   0  0  0  0  0  0  0  0  0  0  0  0
   12.2920   33.3530   71.2700 N   0  0  0  0  0  0  0  0  0  0  0  0
   16.2130   34.7100   70.9190 C   0  0  0  0  0  0  0  0  0  0  0  0
   16.7320   35.6890   70.1690 C   0  0  0  0  0  0  0  0  0  0  0  0
   16.1380   36.3150   69.5200 H   0  0  0  0  0  0  0  0  0  0  0  0
   18.0590   35.8180   70.3000 N   0  0  0  0  0  0  0  0  0  0  0  0
   18.6360   36.5100   69.8430 H   0  0  0  0  0  0  0  0  0  0  0  0
   18.4870   34.8660   71.1440 C   0  0  0  0  0  0  0  0  0  0  0  0
   17.3630   34.1380   71.5770 C   0  0  0  0  0  0  0  0  0  0  0  0
   17.5220   33.0860   72.4680 C   0  0  0  0  0  0  0  0  0  0  0  0
   16.6790   32.5060   72.8130 H   0  0  0  0  0  0  0  0  0  0  0  0
   18.8100   32.8120   72.8940 C   0  0  0  0  0  0  0  0  0  0  0  0
   18.9620   31.9910   73.5790 H   0  0  0  0  0  0  0  0  0  0  0  0
   19.9110   33.5390   72.4860 C   0  0  0  0  0  0  0  0  0  0  0  0
   20.8920   33.3020   72.8700 H   0  0  0  0  0  0  0  0  0  0  0  0
   19.7510   34.5670   71.5860 C   0  0  0  0  0  0  0  0  0  0  0  0
   20.6040   35.1290   71.2340 H   0  0  0  0  0  0  0  0  0  0  0  0
   13.9830   36.8700   69.5700 I   0  0  0  0  0  0  0  0  0  0  0  0
  1  2  1  0  0  0  0
  1  3  1  0  0  0  0
  1  5  1  0  0  0  0
  4  1  1  0  0  0  0
  5  8  1  0  0  0  0
  5  6  1  0  0  0  0
  7  5  1  0  0  0  0
  8 10  1  0  0  0  0
  9  8  1  0  0  0  0
 10 11  2  0  0  0  0
 12 10  1  0  0  0  0
 12 13  1  0  0  0  0
 13 15  1  0  0  0  0
 13 14  1  0  0  0  0
 16 17  1  0  0  0  0
 16 13  1  0  0  0  0
 18 16  1  0  0  0  0
 19 20  1  0  0  0  0
 19 16  1  0  0  0  0
 21 19  1  0  0  0  0
 21 24  1  0  0  0  0
 22 21  1  0  0  0  0
 23 21  1  0  0  0  0
 24 26  1  0  0  0  0
 24 12  1  0  0  0  0
 25 24  1  0  0  0  0
 27 19  1  0  0  0  0
 28 27  1  0  0  0  0
 29 27  1  0  0  0  0
 30 29  2  0  0  0  0
 31 30  1  0  0  0  0
 32 33  1  0  0  0  0
 32 31  2  0  0  0  0
 33 35  2  0  0  0  0
 34 33  1  0  0  0  0
 35 29  1  0  0  0  0
 36 31  1  0  0  0  0
 36 42  1  0  0  0  0
 37 39  1  0  0  0  0
 37 36  2  0  0  0  0
 38 37  1  0  0  0  0
 39 41  1  0  0  0  0
 40 39  1  0  0  0  0
 41 42  2  0  0  0  0
 41 49  1  0  0  0  0
 42 43  1  0  0  0  0
 43 44  1  0  0  0  0
 43 45  2  0  0  0  0
 45 46  1  0  0  0  0
 47 48  1  0  0  0  0
 47 45  1  0  0  0  0
 49 47  2  0  0  0  0
 50 49  1  0  0  0  0
 51 32  1  0  0  0  0
M  END
>  <Pose>
4

>  <Score>
-8.15

$$$$

 OpenBabel03112215123D

 51 54  0  0  0  0  0  0  0  0999 V2000
   26.0710   32.1230   73.0390 C   0  0  0  0  0  0  0  0  0  0  0  0
   27.1570   32.0390   73.0840 H   0  0  0  0  0  0  0  0  0  0  0  0
   25.6230   31.1440   73.2090 H   0  0  0  0  0  0  0  0  0  0  0  0
   25.7280   32.8180   73.8060 H   0  0  0  0  0  0  0  0  0  0  0  0
   25.6530   32.6460   71.6480 C   0  0  0  0  0  0  0  0  0  0  0  0
   26.0200   31.9430   70.9000 H   0  0  0  0  0  0  0  0  0  0  0  0
   26.1250   33.6160   71.4970 H   0  0  0  0  0  0  0  0  0  0  0  0
   24.2210   32.8060   71.4500 N   0  0  0  0  0  0  0  0  0  0  0  0
   23.5900   32.5580   72.1980 H   0  0  0  0  0  0  0  0  0  0  0  0
   23.6890   33.3010   70.2360 C   0  0  0  0  0  0  0  0  0  0  0  0
   24.4330   33.6040   69.3060 O   0  0  0  0  0  0  0  0  0  0  0  0
   22.3410   33.4280   70.1690 N   0  0  0  0  0  0  0  0  0  0  0  0
   21.5730   33.9170   69.0260 C   0  0  0  0  0  0  0  0  0  0  0  0
   21.0420   33.0750   68.5820 H   0  0  0  0  0  0  0  0  0  0  0  0
   22.2680   34.3340   68.2970 H   0  0  0  0  0  0  0  0  0  0  0  0
   20.5710   34.9740   69.3850 C   0  0  0  0  0  0  0  0  0  0  0  0
   19.9520   35.1800   68.5120 H   0  0  0  0  0  0  0  0  0  0  0  0
   21.1040   35.8790   69.6740 H   0  0  0  0  0  0  0  0  0  0  0  0
   19.6830   34.5550   70.5180 C   0  0  0  0  0  0  0  0  0  0  0  0
   19.1020   33.7220   70.1230 H   0  0  0  0  0  0  0  0  0  0  0  0
   20.4630   34.0500   71.6710 C   0  0  0  0  0  0  0  0  0  0  0  0
   19.7770   33.5800   72.3770 H   0  0  0  0  0  0  0  0  0  0  0  0
   20.9580   34.8930   72.1530 H   0  0  0  0  0  0  0  0  0  0  0  0
   21.5030   33.0470   71.2730 C   0  0  0  0  0  0  0  0  0  0  0  0
   22.1440   32.8680   72.1360 H   0  0  0  0  0  0  0  0  0  0  0  0
   20.9920   32.1230   71.0020 H   0  0  0  0  0  0  0  0  0  0  0  0
   18.6700   35.5190   70.8990 N   0  0  0  0  0  0  0  0  0  0  0  0
   19.0060   36.3530   71.3610 H   0  0  0  0  0  0  0  0  0  0  0  0
   17.3640   35.4460   70.7190 C   0  0  0  0  0  0  0  0  0  0  0  0
   16.7330   34.3530   71.0940 N   0  0  0  0  0  0  0  0  0  0  0  0
   15.4230   34.3290   70.9100 C   0  0  0  0  0  0  0  0  0  0  0  0
   14.7640   35.4050   70.3390 C   0  0  0  0  0  0  0  0  0  0  0  0
   15.5320   36.5120   69.9650 C   0  0  0  0  0  0  0  0  0  0  0  0
   15.0500   37.3650   69.5090 H   0  0  0  0  0  0  0  0  0  0  0  0
   16.8320   36.5310   70.1620 N   0  0  0  0  0  0  0  0  0  0  0  0
   14.7300   33.1330   71.3340 C   0  0  0  0  0  0  0  0  0  0  0  0
   13.4160   32.9250   71.4700 C   0  0  0  0  0  0  0  0  0  0  0  0
   12.6730   33.6790   71.2550 H   0  0  0  0  0  0  0  0  0  0  0  0
   13.1090   31.6950   71.9010 N   0  0  0  0  0  0  0  0  0  0  0  0
   12.1770   31.3300   72.0430 H   0  0  0  0  0  0  0  0  0  0  0  0
   14.2570   31.0300   72.1100 C   0  0  0  0  0  0  0  0  0  0  0  0
   15.3190   31.8860   71.7600 C   0  0  0  0  0  0  0  0  0  0  0  0
   16.6290   31.4450   71.8790 C   0  0  0  0  0  0  0  0  0  0  0  0
   17.4640   32.0810   71.6230 H   0  0  0  0  0  0  0  0  0  0  0  0
   16.8190   30.1540   72.3400 C   0  0  0  0  0  0  0  0  0  0  0  0
   17.8300   29.7910   72.4510 H   0  0  0  0  0  0  0  0  0  0  0  0
   15.7770   29.3070   72.6640 C   0  0  0  0  0  0  0  0  0  0  0  0
   15.9790   28.2990   72.9930 H   0  0  0  0  0  0  0  0  0  0  0  0
   14.4810   29.7560   72.5650 C   0  0  0  0  0  0  0  0  0  0  0  0
   13.6550   29.1170   72.8410 H   0  0  0  0  0  0  0  0  0  0  0  0
   12.7140   35.4750   69.9530 I   0  0  0  0  0  0  0  0  0  0  0  0
  1  2  1  0  0  0  0
  1  3  1  0  0  0  0
  1  4  1  0  0  0  0
  5  1  1  0  0  0  0
  6  5  1  0  0  0  0
  7  5  1  0  0  0  0
  8  5  1  0  0  0  0
  8  9  1  0  0  0  0
 10  8  1  0  0  0  0
 11 10  2  0  0  0  0
 12 10  1  0  0  0  0
 12 24  1  0  0  0  0
 13 16  1  0  0  0  0
 13 12  1  0  0  0  0
 14 13  1  0  0  0  0
 15 13  1  0  0  0  0
 16 18  1  0  0  0  0
 16 19  1  0  0  0  0
 17 16  1  0  0  0  0
 19 27  1  0  0  0  0
 19 21  1  0  0  0  0
 20 19  1  0  0  0  0
 21 23  1  0  0  0  0
 21 22  1  0  0  0  0
 24 21  1  0  0  0  0
 24 25  1  0  0  0  0
 26 24  1  0  0  0  0
 27 28  1  0  0  0  0
 29 27  1  0  0  0  0
 29 30  2  0  0  0  0
 31 30  1  0  0  0  0
 31 36  1  0  0  0  0
 32 31  2  0  0  0  0
 33 35  2  0  0  0  0
 33 32  1  0  0  0  0
 34 33  1  0  0  0  0
 35 29  1  0  0  0  0
 36 37  2  0  0  0  0
 36 42  1  0  0  0  0
 37 39  1  0  0  0  0
 38 37  1  0  0  0  0
 39 40  1  0  0  0  0
 39 41  1  0  0  0  0
 41 49  1  0  0  0  0
 42 43  1  0  0  0  0
 42 41  2  0  0  0  0
 43 45  2  0  0  0  0
 44 43  1  0  0  0  0
 45 46  1  0  0  0  0
 45 47  1  0  0  0  0
 47 48  1  0  0  0  0
 49 47  2  0  0  0  0
 49 50  1  0  0  0  0
 51 32  1  0  0  0  0
M  END
>  <Pose>
2

>  <Score>
-7.88

$$$$

 OpenBabel03112215123D

 51 54  0  0  0  0  0  0  0  0999 V2000
   15.4670   28.7860   79.2850 C   0  0  0  0  0  0  0  0  0  0  0  0
   16.1720   28.6840   80.1100 H   0  0  0  0  0  0  0  0  0  0  0  0
   14.8630   27.8820   79.2090 H   0  0  0  0  0  0  0  0  0  0  0  0
   14.8190   29.6430   79.4640 H   0  0  0  0  0  0  0  0  0  0  0  0
   16.2450   28.9960   77.9680 C   0  0  0  0  0  0  0  0  0  0  0  0
   16.8960   28.1350   77.8190 H   0  0  0  0  0  0  0  0  0  0  0  0
   16.8510   29.8960   78.0740 H   0  0  0  0  0  0  0  0  0  0  0  0
   15.4220   29.1480   76.7780 N   0  0  0  0  0  0  0  0  0  0  0  0
   14.4330   29.3280   76.8840 H   0  0  0  0  0  0  0  0  0  0  0  0
   15.9680   29.0510   75.4770 C   0  0  0  0  0  0  0  0  0  0  0  0
   17.1660   28.8250   75.3190 O   0  0  0  0  0  0  0  0  0  0  0  0
   15.1120   29.2280   74.4420 N   0  0  0  0  0  0  0  0  0  0  0  0
   15.4490   29.1750   73.0210 C   0  0  0  0  0  0  0  0  0  0  0  0
   15.0240   28.2640   72.6000 H   0  0  0  0  0  0  0  0  0  0  0  0
   16.5350   29.1480   72.9250 H   0  0  0  0  0  0  0  0  0  0  0  0
   14.9320   30.3460   72.2380 C   0  0  0  0  0  0  0  0  0  0  0  0
   15.1030   30.1610   71.1780 H   0  0  0  0  0  0  0  0  0  0  0  0
   15.4770   31.2400   72.5440 H   0  0  0  0  0  0  0  0  0  0  0  0
   13.4670   30.5760   72.4580 C   0  0  0  0  0  0  0  0  0  0  0  0
   12.9810   29.6990   72.0300 H   0  0  0  0  0  0  0  0  0  0  0  0
   13.1260   30.6180   73.8990 C   0  0  0  0  0  0  0  0  0  0  0  0
   12.0410   30.5860   74.0020 H   0  0  0  0  0  0  0  0  0  0  0  0
   13.5040   31.5500   74.3190 H   0  0  0  0  0  0  0  0  0  0  0  0
   13.7140   29.4730   74.6670 C   0  0  0  0  0  0  0  0  0  0  0  0
   13.5750   29.6750   75.7300 H   0  0  0  0  0  0  0  0  0  0  0  0
   13.1670   28.5700   74.3950 H   0  0  0  0  0  0  0  0  0  0  0  0
   12.8940   31.6760   71.7090 N   0  0  0  0  0  0  0  0  0  0  0  0
   11.9560   31.5330   71.3630 H   0  0  0  0  0  0  0  0  0  0  0  0
   13.4440   32.8420   71.4230 C   0  0  0  0  0  0  0  0  0  0  0  0
   14.7500   32.9710   71.5350 N   0  0  0  0  0  0  0  0  0  0  0  0
   15.2600   34.1520   71.2230 C   0  0  0  0  0  0  0  0  0  0  0  0
   14.4460   35.1930   70.8100 C   0  0  0  0  0  0  0  0  0  0  0  0
   13.0710   34.9520   70.7350 C   0  0  0  0  0  0  0  0  0  0  0  0
   12.4070   35.7450   70.4250 H   0  0  0  0  0  0  0  0  0  0  0  0
   12.5740   33.7720   71.0380 N   0  0  0  0  0  0  0  0  0  0  0  0
   16.6950   34.2880   71.3360 C   0  0  0  0  0  0  0  0  0  0  0  0
   17.4890   35.2510   70.8530 C   0  0  0  0  0  0  0  0  0  0  0  0
   17.1190   36.0980   70.2960 H   0  0  0  0  0  0  0  0  0  0  0  0
   18.7870   35.0640   71.1280 N   0  0  0  0  0  0  0  0  0  0  0  0
   19.5420   35.6860   70.8780 H   0  0  0  0  0  0  0  0  0  0  0  0
   18.9060   33.9040   71.7950 C   0  0  0  0  0  0  0  0  0  0  0  0
   17.6140   33.3710   71.9640 C   0  0  0  0  0  0  0  0  0  0  0  0
   17.4470   32.1650   72.6300 C   0  0  0  0  0  0  0  0  0  0  0  0
   16.4690   31.7290   72.7700 H   0  0  0  0  0  0  0  0  0  0  0  0
   18.5890   31.5460   73.1070 C   0  0  0  0  0  0  0  0  0  0  0  0
   18.4860   30.6000   73.6190 H   0  0  0  0  0  0  0  0  0  0  0  0
   19.8540   32.0790   72.9590 C   0  0  0  0  0  0  0  0  0  0  0  0
   20.7110   31.5690   73.3750 H   0  0  0  0  0  0  0  0  0  0  0  0
   20.0180   33.2630   72.2790 C   0  0  0  0  0  0  0  0  0  0  0  0
   21.0030   33.6810   72.1300 H   0  0  0  0  0  0  0  0  0  0  0  0
   15.1180   37.1100   70.3320 I   0  0  0  0  0  0  0  0  0  0  0  0
  1  4  1  0  0  0  0
  1  2  1  0  0  0  0
  3  1  1  0  0  0  0
  5  7  1  0  0  0  0
  5  1  1  0  0  0  0
  6  5  1  0  0  0  0
  8  9  1  0  0  0  0
  8  5  1  0  0  0  0
 10  8  1  0  0  0  0
 11 10  2  0  0  0  0
 12 24  1  0  0  0  0
 12 10  1  0  0  0  0
 13 12  1  0  0  0  0
 14 13  1  0  0  0  0
 15 13  1  0  0  0  0
 16 19  1  0  0  0  0
 16 18  1  0  0  0  0
 16 13  1  0  0  0  0
 17 16  1  0  0  0  0
 19 21  1  0  0  0  0
 20 19  1  0  0  0  0
 21 22  1  0  0  0  0
 21 23  1  0  0  0  0
 21 24  1  0  0  0  0
 24 25  1  0  0  0  0
 26 24  1  0  0  0  0
 27 19  1  0  0  0  0
 28 27  1  0  0  0  0
 29 30  2  0  0  0  0
 29 27  1  0  0  0  0
 31 36  1  0  0  0  0
 31 30  1  0  0  0  0
 32 31  2  0  0  0  0
 33 32  1  0  0  0  0
 33 35  2  0  0  0  0
 34 33  1  0  0  0  0
 35 29  1  0  0  0  0
 36 42  1  0  0  0  0
 37 39  1  0  0  0  0
 37 36  2  0  0  0  0
 38 37  1  0  0  0  0
 39 41  1  0  0  0  0
 40 39  1  0  0  0  0
 41 42  2  0  0  0  0
 41 49  1  0  0  0  0
 42 43  1  0  0  0  0
 43 44  1  0  0  0  0
 43 45  2  0  0  0  0
 45 46  1  0  0  0  0
 47 45  1  0  0  0  0
 47 48  1  0  0  0  0
 49 47  2  0  0  0  0
 50 49  1  0  0  0  0
 51 32  1  0  0  0  0
M  END
>  <Pose>
1

>  <Score>
-7.37

$$$$

 OpenBabel03112215123D

 51 54  0  0  0  0  0  0  0  0999 V2000
   14.7370   37.4740   70.0480 C   0  0  0  0  0  0  0  0  0  0  0  0
   14.2360   38.4090   69.7990 H   0  0  0  0  0  0  0  0  0  0  0  0
   15.3620   37.1620   69.2110 H   0  0  0  0  0  0  0  0  0  0  0  0
   15.3600   37.6200   70.9310 H   0  0  0  0  0  0  0  0  0  0  0  0
   13.6820   36.3850   70.3370 C   0  0  0  0  0  0  0  0  0  0  0  0
   13.0650   36.2690   69.4460 H   0  0  0  0  0  0  0  0  0  0  0  0
   13.0630   36.7270   71.1660 H   0  0  0  0  0  0  0  0  0  0  0  0
   14.2180   35.0780   70.6850 N   0  0  0  0  0  0  0  0  0  0  0  0
   15.2160   34.9290   70.6430 H   0  0  0  0  0  0  0  0  0  0  0  0
   13.3780   34.0110   71.0810 C   0  0  0  0  0  0  0  0  0  0  0  0
   12.1590   34.1620   71.1340 O   0  0  0  0  0  0  0  0  0  0  0  0
   13.9860   32.8440   71.4020 N   0  0  0  0  0  0  0  0  0  0  0  0
   13.3270   31.6150   71.8380 C   0  0  0  0  0  0  0  0  0  0  0  0
   13.3960   30.8830   71.0330 H   0  0  0  0  0  0  0  0  0  0  0  0
   12.2790   31.8380   72.0380 H   0  0  0  0  0  0  0  0  0  0  0  0
   13.9300   31.0170   73.0750 C   0  0  0  0  0  0  0  0  0  0  0  0
   13.4760   30.0410   73.2500 H   0  0  0  0  0  0  0  0  0  0  0  0
   13.7180   31.6730   73.9200 H   0  0  0  0  0  0  0  0  0  0  0  0
   15.4150   30.8450   72.9590 C   0  0  0  0  0  0  0  0  0  0  0  0
   15.5480   30.0970   72.1770 H   0  0  0  0  0  0  0  0  0  0  0  0
   16.0800   32.0890   72.5070 C   0  0  0  0  0  0  0  0  0  0  0  0
   17.1140   31.8580   72.2500 H   0  0  0  0  0  0  0  0  0  0  0  0
   16.0610   32.8110   73.3230 H   0  0  0  0  0  0  0  0  0  0  0  0
   15.4140   32.7000   71.3110 C   0  0  0  0  0  0  0  0  0  0  0  0
   15.8420   33.6910   71.1580 H   0  0  0  0  0  0  0  0  0  0  0  0
   15.6340   32.0720   70.4470 H   0  0  0  0  0  0  0  0  0  0  0  0
   16.0600   30.2460   74.1110 N   0  0  0  0  0  0  0  0  0  0  0  0
   16.4740   30.8900   74.7690 H   0  0  0  0  0  0  0  0  0  0  0  0
   16.1740   28.9640   74.4070 C   0  0  0  0  0  0  0  0  0  0  0  0
   17.0050   28.2230   73.7030 N   0  0  0  0  0  0  0  0  0  0  0  0
   17.1000   26.9480   74.0440 C   0  0  0  0  0  0  0  0  0  0  0  0
   16.3490   26.4320   75.0870 C   0  0  0  0  0  0  0  0  0  0  0  0
   15.4890   27.3040   75.7620 C   0  0  0  0  0  0  0  0  0  0  0  0
   14.8830   26.9310   76.5740 H   0  0  0  0  0  0  0  0  0  0  0  0
   15.4090   28.5720   75.4220 N   0  0  0  0  0  0  0  0  0  0  0  0
   18.0210   26.1390   73.2780 C   0  0  0  0  0  0  0  0  0  0  0  0
   17.9720   25.8050   71.9840 C   0  0  0  0  0  0  0  0  0  0  0  0
   17.1870   26.1340   71.3180 H   0  0  0  0  0  0  0  0  0  0  0  0
   18.9860   25.0230   71.5920 N   0  0  0  0  0  0  0  0  0  0  0  0
   19.1470   24.6840   70.6540 H   0  0  0  0  0  0  0  0  0  0  0  0
   19.7530   24.7700   72.6660 C   0  0  0  0  0  0  0  0  0  0  0  0
   19.1970   25.4570   73.7620 C   0  0  0  0  0  0  0  0  0  0  0  0
   19.8000   25.3690   75.0090 C   0  0  0  0  0  0  0  0  0  0  0  0
   19.3930   25.8800   75.8690 H   0  0  0  0  0  0  0  0  0  0  0  0
   20.9450   24.5970   75.1020 C   0  0  0  0  0  0  0  0  0  0  0  0
   21.4260   24.5050   76.0640 H   0  0  0  0  0  0  0  0  0  0  0  0
   21.5010   23.9400   74.0220 C   0  0  0  0  0  0  0  0  0  0  0  0
   22.4120   23.3730   74.1420 H   0  0  0  0  0  0  0  0  0  0  0  0
   20.8890   24.0120   72.7920 C   0  0  0  0  0  0  0  0  0  0  0  0
   21.2950   23.4820   71.9440 H   0  0  0  0  0  0  0  0  0  0  0  0
   16.3740   24.4360   75.6950 I   0  0  0  0  0  0  0  0  0  0  0  0
  1  5  1  0  0  0  0
  1  4  1  0  0  0  0
  2  1  1  0  0  0  0
  3  1  1  0  0  0  0
  5  8  1  0  0  0  0
  5  7  1  0  0  0  0
  6  5  1  0  0  0  0
  8 10  1  0  0  0  0
  9  8  1  0  0  0  0
 10 11  2  0  0  0  0
 10 12  1  0  0  0  0
 12 13  1  0  0  0  0
 13 15  1  0  0  0  0
 13 16  1  0  0  0  0
 14 13  1  0  0  0  0
 16 17  1  0  0  0  0
 16 18  1  0  0  0  0
 19 16  1  0  0  0  0
 19 27  1  0  0  0  0
 20 19  1  0  0  0  0
 21 19  1  0  0  0  0
 21 23  1  0  0  0  0
 22 21  1  0  0  0  0
 24 12  1  0  0  0  0
 24 21  1  0  0  0  0
 25 24  1  0  0  0  0
 26 24  1  0  0  0  0
 27 29  1  0  0  0  0
 27 28  1  0  0  0  0
 29 35  1  0  0  0  0
 30 31  1  0  0  0  0
 30 29  2  0  0  0  0
 31 32  2  0  0  0  0
 32 51  1  0  0  0  0
 32 33  1  0  0  0  0
 33 34  1  0  0  0  0
 35 33  2  0  0  0  0
 36 42  1  0  0  0  0
 36 31  1  0  0  0  0
 37 36  2  0  0  0  0
 38 37  1  0  0  0  0
 39 37  1  0  0  0  0
 39 41  1  0  0  0  0
 40 39  1  0  0  0  0
 41 49  2  0  0  0  0
 41 42  1  0  0  0  0
 42 43  2  0  0  0  0
 43 45  1  0  0  0  0
 43 44  1  0  0  0  0
 45 46  1  0  0  0  0
 47 48  1  0  0  0  0
 47 45  2  0  0  0  0
 49 47  1  0  0  0  0
 50 49  1  0  0  0  0
M  END
>  <Pose>
1

>  <Score>
-6.80

$$$$

 OpenBabel03112215123D

 51 54  0  0  0  0  0  0  0  0999 V2000
   10.5490   30.2700   75.3040 C   0  0  0  0  0  0  0  0  0  0  0  0
   10.0460   29.6140   76.0150 H   0  0  0  0  0  0  0  0  0  0  0  0
    9.8400   30.5890   74.5400 H   0  0  0  0  0  0  0  0  0  0  0  0
   10.9360   31.1440   75.8280 H   0  0  0  0  0  0  0  0  0  0  0  0
   11.7160   29.5100   74.6380 C   0  0  0  0  0  0  0  0  0  0  0  0
   11.3040   28.6350   74.1350 H   0  0  0  0  0  0  0  0  0  0  0  0
   12.4010   29.1890   75.4230 H   0  0  0  0  0  0  0  0  0  0  0  0
   12.4760   30.2730   73.6610 N   0  0  0  0  0  0  0  0  0  0  0  0
   11.9820   30.8020   72.9570 H   0  0  0  0  0  0  0  0  0  0  0  0
   13.8910   30.2940   73.6710 C   0  0  0  0  0  0  0  0  0  0  0  0
   14.5180   29.6530   74.5110 O   0  0  0  0  0  0  0  0  0  0  0  0
   14.4950   31.0550   72.7270 N   0  0  0  0  0  0  0  0  0  0  0  0
   15.9350   31.2300   72.5460 C   0  0  0  0  0  0  0  0  0  0  0  0
   16.2350   30.7040   71.6390 H   0  0  0  0  0  0  0  0  0  0  0  0
   16.4450   30.7930   73.4050 H   0  0  0  0  0  0  0  0  0  0  0  0
   16.3540   32.6650   72.4240 C   0  0  0  0  0  0  0  0  0  0  0  0
   17.4100   32.7000   72.1540 H   0  0  0  0  0  0  0  0  0  0  0  0
   16.2080   33.1560   73.3860 H   0  0  0  0  0  0  0  0  0  0  0  0
   15.5660   33.4010   71.3820 C   0  0  0  0  0  0  0  0  0  0  0  0
   15.8450   32.9320   70.4390 H   0  0  0  0  0  0  0  0  0  0  0  0
   14.1070   33.2140   71.5600 C   0  0  0  0  0  0  0  0  0  0  0  0
   13.5960   33.5970   70.6770 H   0  0  0  0  0  0  0  0  0  0  0  0
   13.7880   33.7770   72.4370 H   0  0  0  0  0  0  0  0  0  0  0  0
   13.7260   31.7760   71.7490 C   0  0  0  0  0  0  0  0  0  0  0  0
   12.6800   31.7440   72.0540 H   0  0  0  0  0  0  0  0  0  0  0  0
   13.8420   31.2700   70.7910 H   0  0  0  0  0  0  0  0  0  0  0  0
   15.9380   34.7890   71.1910 N   0  0  0  0  0  0  0  0  0  0  0  0
   15.2170   35.4690   71.3820 H   0  0  0  0  0  0  0  0  0  0  0  0
   17.1020   35.2750   70.7990 C   0  0  0  0  0  0  0  0  0  0  0  0
   18.1810   34.5370   70.9530 N   0  0  0  0  0  0  0  0  0  0  0  0
   19.3230   35.0570   70.5320 C   0  0  0  0  0  0  0  0  0  0  0  0
   19.3650   36.3210   69.9680 C   0  0  0  0  0  0  0  0  0  0  0  0
   18.1610   37.0240   69.8620 C   0  0  0  0  0  0  0  0  0  0  0  0
   18.1610   38.0160   69.4350 H   0  0  0  0  0  0  0  0  0  0  0  0
   17.0300   36.4950   70.2740 N   0  0  0  0  0  0  0  0  0  0  0  0
   20.5050   34.2400   70.6910 C   0  0  0  0  0  0  0  0  0  0  0  0
   21.6730   34.3150   70.0430 C   0  0  0  0  0  0  0  0  0  0  0  0
   21.8810   35.0520   69.2820 H   0  0  0  0  0  0  0  0  0  0  0  0
   22.5610   33.3880   70.4280 N   0  0  0  0  0  0  0  0  0  0  0  0
   23.5050   33.2900   70.0820 H   0  0  0  0  0  0  0  0  0  0  0  0
   21.9740   32.6110   71.3530 C   0  0  0  0  0  0  0  0  0  0  0  0
   20.6740   33.1070   71.5690 C   0  0  0  0  0  0  0  0  0  0  0  0
   19.8410   32.4850   72.4880 C   0  0  0  0  0  0  0  0  0  0  0  0
   18.8380   32.8390   72.6700 H   0  0  0  0  0  0  0  0  0  0  0  0
   20.3550   31.3900   73.1610 C   0  0  0  0  0  0  0  0  0  0  0  0
   19.7220   30.8810   73.8740 H   0  0  0  0  0  0  0  0  0  0  0  0
   21.6370   30.9160   72.9650 C   0  0  0  0  0  0  0  0  0  0  0  0
   21.9980   30.0740   73.5360 H   0  0  0  0  0  0  0  0  0  0  0  0
   22.4510   31.5220   72.0370 C   0  0  0  0  0  0  0  0  0  0  0  0
   23.4470   31.1470   71.8500 H   0  0  0  0  0  0  0  0  0  0  0  0
   21.1020   37.2710   69.3070 I   0  0  0  0  0  0  0  0  0  0  0  0
  1  4  1  0  0  0  0
  1  2  1  0  0  0  0
  3  1  1  0  0  0  0
  5  1  1  0  0  0  0
  5  7  1  0  0  0  0
  6  5  1  0  0  0  0
  8 10  1  0  0  0  0
  8  5  1  0  0  0  0
  9  8  1  0  0  0  0
 10 11  2  0  0  0  0
 12 10  1  0  0  0  0
 13 12  1  0  0  0  0
 13 15  1  0  0  0  0
 14 13  1  0  0  0  0
 16 13  1  0  0  0  0
 16 18  1  0  0  0  0
 17 16  1  0  0  0  0
 19 21  1  0  0  0  0
 19 16  1  0  0  0  0
 20 19  1  0  0  0  0
 21 24  1  0  0  0  0
 21 23  1  0  0  0  0
 22 21  1  0  0  0  0
 24 25  1  0  0  0  0
 24 12  1  0  0  0  0
 26 24  1  0  0  0  0
 27 19  1  0  0  0  0
 27 28  1  0  0  0  0
 29 30  2  0  0  0  0
 29 27  1  0  0  0  0
 31 36  1  0  0  0  0
 31 30  1  0  0  0  0
 32 31  2  0  0  0  0
 33 32  1  0  0  0  0
 33 35  2  0  0  0  0
 34 33  1  0  0  0  0
 35 29  1  0  0  0  0
 36 42  1  0  0  0  0
 37 39  1  0  0  0  0
 37 36  2  0  0  0  0
 38 37  1  0  0  0  0
 39 41  1  0  0  0  0
 40 39  1  0  0  0  0
 41 42  2  0  0  0  0
 41 49  1  0  0  0  0
 42 43  1  0  0  0  0
 43 44  1  0  0  0  0
 43 45  2  0  0  0  0
 45 46  1  0  0  0  0
 47 45  1  0  0  0  0
 47 48  1  0  0  0  0
 49 47  2  0  0  0  0
 50 49  1  0  0  0  0
 51 32  1  0  0  0  0
M  END
>  <Pose>
1

>  <Score>
-6.70

$$$$

 OpenBabel03112215123D

 51 54  0  0  0  0  0  0  0  0999 V2000
   14.6010   37.0340   69.9690 C   0  0  0  0  0  0  0  0  0  0  0  0
   14.1120   37.9430   69.6190 H   0  0  0  0  0  0  0  0  0  0  0  0
   15.5050   36.8600   69.3850 H   0  0  0  0  0  0  0  0  0  0  0  0
   14.8640   37.1450   71.0210 H   0  0  0  0  0  0  0  0  0  0  0  0
   13.6410   35.8370   69.8020 C   0  0  0  0  0  0  0  0  0  0  0  0
   13.3820   35.7570   68.7460 H   0  0  0  0  0  0  0  0  0  0  0  0
   12.7420   36.0420   70.3820 H   0  0  0  0  0  0  0  0  0  0  0  0
   14.1700   34.5520   70.2330 N   0  0  0  0  0  0  0  0  0  0  0  0
   15.1290   34.3180   70.0180 H   0  0  0  0  0  0  0  0  0  0  0  0
   13.3780   33.6230   70.9460 C   0  0  0  0  0  0  0  0  0  0  0  0
   12.2060   33.8780   71.2140 O   0  0  0  0  0  0  0  0  0  0  0  0
   13.9800   32.4660   71.3150 N   0  0  0  0  0  0  0  0  0  0  0  0
   13.3640   31.3670   72.0550 C   0  0  0  0  0  0  0  0  0  0  0  0
   13.2270   30.5270   71.3740 H   0  0  0  0  0  0  0  0  0  0  0  0
   12.3930   31.7000   72.4220 H   0  0  0  0  0  0  0  0  0  0  0  0
   14.1790   30.9010   73.2250 C   0  0  0  0  0  0  0  0  0  0  0  0
   13.7220   29.9990   73.6330 H   0  0  0  0  0  0  0  0  0  0  0  0
   14.1800   31.6830   73.9850 H   0  0  0  0  0  0  0  0  0  0  0  0
   15.5970   30.5950   72.8460 C   0  0  0  0  0  0  0  0  0  0  0  0
   15.5270   29.7370   72.1770 H   0  0  0  0  0  0  0  0  0  0  0  0
   16.2160   31.7060   72.0860 C   0  0  0  0  0  0  0  0  0  0  0  0
   17.1610   31.3580   71.6690 H   0  0  0  0  0  0  0  0  0  0  0  0
   16.4030   32.5340   72.7700 H   0  0  0  0  0  0  0  0  0  0  0  0
   15.3480   32.1960   70.9660 C   0  0  0  0  0  0  0  0  0  0  0  0
   15.7850   33.1180   70.5820 H   0  0  0  0  0  0  0  0  0  0  0  0
   15.3520   31.4380   70.1830 H   0  0  0  0  0  0  0  0  0  0  0  0
   16.4350   30.1120   73.9250 N   0  0  0  0  0  0  0  0  0  0  0  0
   16.1020   30.2990   74.8600 H   0  0  0  0  0  0  0  0  0  0  0  0
   17.5790   29.4580   73.8400 C   0  0  0  0  0  0  0  0  0  0  0  0
   18.7000   30.1110   74.0640 N   0  0  0  0  0  0  0  0  0  0  0  0
   19.8220   29.4130   73.9840 C   0  0  0  0  0  0  0  0  0  0  0  0
   19.8010   28.0650   73.6680 C   0  0  0  0  0  0  0  0  0  0  0  0
   18.5560   27.4710   73.4370 C   0  0  0  0  0  0  0  0  0  0  0  0
   18.5050   26.4240   73.1800 H   0  0  0  0  0  0  0  0  0  0  0  0
   17.4460   28.1710   73.5290 N   0  0  0  0  0  0  0  0  0  0  0  0
   21.0510   30.1290   74.2430 C   0  0  0  0  0  0  0  0  0  0  0  0
   21.7170   30.9720   73.4460 C   0  0  0  0  0  0  0  0  0  0  0  0
   21.3820   31.2380   72.4540 H   0  0  0  0  0  0  0  0  0  0  0  0
   22.8400   31.4550   73.9940 N   0  0  0  0  0  0  0  0  0  0  0  0
   23.4680   32.1230   73.5710 H   0  0  0  0  0  0  0  0  0  0  0  0
   22.9820   30.8960   75.2070 C   0  0  0  0  0  0  0  0  0  0  0  0
   21.8750   30.0530   75.4240 C   0  0  0  0  0  0  0  0  0  0  0  0
   21.7680   29.3460   76.6140 C   0  0  0  0  0  0  0  0  0  0  0  0
   20.9340   28.6880   76.8060 H   0  0  0  0  0  0  0  0  0  0  0  0
   22.7790   29.5210   77.5430 C   0  0  0  0  0  0  0  0  0  0  0  0
   22.7240   28.9740   78.4720 H   0  0  0  0  0  0  0  0  0  0  0  0
   23.8540   30.3640   77.3380 C   0  0  0  0  0  0  0  0  0  0  0  0
   24.6020   30.4860   78.1080 H   0  0  0  0  0  0  0  0  0  0  0  0
   23.9680   31.0460   76.1490 C   0  0  0  0  0  0  0  0  0  0  0  0
   24.8160   31.6870   75.9610 H   0  0  0  0  0  0  0  0  0  0  0  0
   21.4960   26.8650   73.4660 I   0  0  0  0  0  0  0  0  0  0  0  0
  1  4  1  0  0  0  0
  2  1  1  0  0  0  0
  3  1  1  0  0  0  0
  5  1  1  0  0  0  0
  5  8  1  0  0  0  0
  5  7  1  0  0  0  0
  6  5  1  0  0  0  0
  8 10  1  0  0  0  0
  9  8  1  0  0  0  0
 10 11  2  0  0  0  0
 10 12  1  0  0  0  0
 12 13  1  0  0  0  0
 13 15  1  0  0  0  0
 13 16  1  0  0  0  0
 14 13  1  0  0  0  0
 16 17  1  0  0  0  0
 16 18  1  0  0  0  0
 19 16  1  0  0  0  0
 19 27  1  0  0  0  0
 20 19  1  0  0  0  0
 21 23  1  0  0  0  0
 21 19  1  0  0  0  0
 22 21  1  0  0  0  0
 24 12  1  0  0  0  0
 24 21  1  0  0  0  0
 25 24  1  0  0  0  0
 26 24  1  0  0  0  0
 27 28  1  0  0  0  0
 29 27  1  0  0  0  0
 29 30  2  0  0  0  0
 31 30  1  0  0  0  0
 31 36  1  0  0  0  0
 32 31  2  0  0  0  0
 33 35  2  0  0  0  0
 33 32  1  0  0  0  0
 34 33  1  0  0  0  0
 35 29  1  0  0  0  0
 36 42  1  0  0  0  0
 37 39  1  0  0  0  0
 37 36  2  0  0  0  0
 38 37  1  0  0  0  0
 39 41  1  0  0  0  0
 40 39  1  0  0  0  0
 41 42  2  0  0  0  0
 41 49  1  0  0  0  0
 42 43  1  0  0  0  0
 43 44  1  0  0  0  0
 43 45  2  0  0  0  0
 45 46  1  0  0  0  0
 47 45  1  0  0  0  0
 47 48  1  0  0  0  0
 49 47  2  0  0  0  0
 50 49  1  0  0  0  0
 51 32  1  0  0  0  0
M  END
>  <Pose>
1

>  <Score>
-6.70

$$$$
