
 OpenBabel03112211373D

 70 73  0  0  1  0  0  0  0  0999 V2000
   21.9850   79.5980   12.4270 C   0  0  0  0  0  0  0  0  0  0  0  0
   21.5740   78.3050   12.7480 C   0  0  0  0  0  0  0  0  0  0  0  0
   21.2220   77.6380   11.9750 H   0  0  0  0  0  0  0  0  0  0  0  0
   21.6210   77.8850   14.0690 C   0  0  0  0  0  0  0  0  0  0  0  0
   22.1630   78.7080   15.0350 C   0  0  0  0  0  0  0  0  0  0  0  0
   22.5520   80.0070   14.7240 C   0  0  0  0  0  0  0  0  0  0  0  0
   22.9150   80.6640   15.5000 H   0  0  0  0  0  0  0  0  0  0  0  0
   22.4720   80.4580   13.4090 C   0  0  0  0  0  0  0  0  0  0  0  0
   22.7820   81.4600   13.1540 H   0  0  0  0  0  0  0  0  0  0  0  0
   22.2230   78.2580   16.4640 N   0  0  0  0  0  0  0  0  0  0  0  0
   23.5180   77.9180   17.1590 C   0  0  0  0  0  0  0  0  0  0  0  0
   23.5020   76.8650   17.4400 H   0  0  0  0  0  0  0  0  0  0  0  0
   23.6100   78.5320   18.0550 H   0  0  0  0  0  0  0  0  0  0  0  0
   24.7590   78.1780   16.2360 C   0  0  0  0  0  0  0  0  0  0  0  0
   24.5850   78.9400   15.4760 H   0  0  0  0  0  0  0  0  0  0  0  0
   25.9290   78.6670   17.1520 C   0  0  0  0  0  0  0  0  0  0  0  0
   26.1230   77.9210   17.9230 H   0  0  0  0  0  0  0  0  0  0  0  0
   25.6520   79.6110   17.6220 H   0  0  0  0  0  0  0  0  0  0  0  0
   26.8260   78.8110   16.5510 H   0  0  0  0  0  0  0  0  0  0  0  0
   25.0780   76.8540   15.5350 C   0  0  0  0  0  0  0  0  0  0  0  0
   25.2560   76.0800   16.2820 H   0  0  0  0  0  0  0  0  0  0  0  0
   25.9690   76.9740   14.9180 H   0  0  0  0  0  0  0  0  0  0  0  0
   24.2370   76.5640   14.9050 H   0  0  0  0  0  0  0  0  0  0  0  0
   20.9390   78.4520   17.2540 C   0  0  0  0  0  0  0  0  0  0  0  0
   20.0360   78.3230   16.6570 H   0  0  0  0  0  0  0  0  0  0  0  0
   20.7750   77.4100   18.3560 C   0  0  0  0  0  0  0  0  0  0  0  0
   21.6700   77.3910   18.9790 H   0  0  0  0  0  0  0  0  0  0  0  0
   20.6220   76.4260   17.9120 H   0  0  0  0  0  0  0  0  0  0  0  0
   19.5470   77.7900   19.2180 C   0  0  0  0  0  0  0  0  0  0  0  0
   19.4690   77.0920   20.0520 H   0  0  0  0  0  0  0  0  0  0  0  0
   18.6490   77.7250   18.6040 H   0  0  0  0  0  0  0  0  0  0  0  0
   19.6760   79.2180   19.7700 C   0  0  0  0  0  0  0  0  0  0  0  0
   20.5220   79.2480   20.4570 H   0  0  0  0  0  0  0  0  0  0  0  0
   18.7620   79.4640   20.3090 H   0  0  0  0  0  0  0  0  0  0  0  0
   19.8980   80.2740   18.6780 C   0  0  0  0  0  0  0  0  0  0  0  0
   20.0960   81.2390   19.1450 H   0  0  0  0  0  0  0  0  0  0  0  0
   19.0030   80.3460   18.0600 H   0  0  0  0  0  0  0  0  0  0  0  0
   21.0970   79.8790   17.7960 C   0  0  0  0  0  0  0  0  0  0  0  0
   21.1660   80.5720   16.9580 H   0  0  0  0  0  0  0  0  0  0  0  0
   22.0090   79.9350   18.3900 H   0  0  0  0  0  0  0  0  0  0  0  0
   21.2800   76.5170   14.4250 N   0  0  0  0  0  0  0  0  0  0  0  0
   21.7270   76.0970   15.2270 H   0  0  0  0  0  0  0  0  0  0  0  0
   20.3220   75.7340   13.6710 C   0  0  0  0  0  0  0  0  0  0  0  0
   20.2120   74.3700   14.1570 N   0  0  0  0  0  0  0  0  0  0  0  0
   20.7730   74.0530   14.9340 H   0  0  0  0  0  0  0  0  0  0  0  0
   19.2750   73.4680   13.5000 C   0  0  0  0  0  0  0  0  0  0  0  0
   19.7350   72.1880   13.1980 C   0  0  0  0  0  0  0  0  0  0  0  0
   20.7390   71.8940   13.4640 H   0  0  0  0  0  0  0  0  0  0  0  0
   18.8910   71.2920   12.5530 C   0  0  0  0  0  0  0  0  0  0  0  0
   19.2200   70.2930   12.3100 H   0  0  0  0  0  0  0  0  0  0  0  0
   17.6040   71.7260   12.2310 C   0  0  0  0  0  0  0  0  0  0  0  0
   17.1630   73.0090   12.5280 C   0  0  0  0  0  0  0  0  0  0  0  0
   16.1630   73.3110   12.2540 H   0  0  0  0  0  0  0  0  0  0  0  0
   17.9980   73.9010   13.1720 C   0  0  0  0  0  0  0  0  0  0  0  0
   17.6680   74.9010   13.4120 H   0  0  0  0  0  0  0  0  0  0  0  0
   16.6450   70.7530   11.5130 C   0  0  0  0  0  0  0  0  0  0  0  0
   17.1470   69.7980   11.3580 H   0  0  0  0  0  0  0  0  0  0  0  0
   16.3560   71.1730   10.5490 H   0  0  0  0  0  0  0  0  0  0  0  0
   15.7560   70.6020   12.1250 H   0  0  0  0  0  0  0  0  0  0  0  0
   19.6740   76.2090   12.7880 O   0  0  0  0  0  0  0  0  0  0  0  0
   21.8910   80.0900   10.9550 C   0  0  1  0  0  0  0  0  0  0  0  0
   22.6120   80.7760   11.4010 H   0  0  0  0  0  0  0  0  0  0  0  0
   21.8330   79.3390    9.6220 C   0  0  0  0  0  0  0  0  0  0  0  0
   21.7740   78.2500    9.6120 H   0  0  0  0  0  0  0  0  0  0  0  0
   22.4350   79.6780    8.7790 H   0  0  0  0  0  0  0  0  0  0  0  0
   20.6360   80.1630   10.0830 C   0  0  1  0  0  0  0  0  0  0  0  0
   20.0420   80.9610    9.6390 H   0  0  0  0  0  0  0  0  0  0  0  0
   19.4230   79.3760   10.6110 C   0  0  0  0  0  0  0  0  0  0  0  0
   19.3440   78.1170   10.4920 O   0  0  0  0  0  0  0  0  0  0  0  0
   18.4890   80.0050   11.1680 O   0  0  0  0  0  0  0  0  0  0  0  0
  1  2  2  0  0  0  0
  1  8  1  0  0  0  0
  2  4  1  0  0  0  0
  3  2  1  0  0  0  0
  4 41  1  0  0  0  0
  4  5  2  0  0  0  0
  5 10  1  0  0  0  0
  6  5  1  0  0  0  0
  6  7  1  0  0  0  0
  8  6  2  0  0  0  0
  9  8  1  0  0  0  0
 10 11  1  0  0  0  0
 10 24  1  0  0  0  0
 11 12  1  0  0  0  0
 11 13  1  0  0  0  0
 14 16  1  0  0  0  0
 14 11  1  0  0  0  0
 15 14  1  0  0  0  0
 16 18  1  0  0  0  0
 16 17  1  0  0  0  0
 19 16  1  0  0  0  0
 20 14  1  0  0  0  0
 20 21  1  0  0  0  0
 22 20  1  0  0  0  0
 23 20  1  0  0  0  0
 24 38  1  0  0  0  0
 24 26  1  0  0  0  0
 25 24  1  0  0  0  0
 26 27  1  0  0  0  0
 26 29  1  0  0  0  0
 28 26  1  0  0  0  0
 29 32  1  0  0  0  0
 29 30  1  0  0  0  0
 31 29  1  0  0  0  0
 32 34  1  0  0  0  0
 32 33  1  0  0  0  0
 35 36  1  0  0  0  0
 35 32  1  0  0  0  0
 37 35  1  0  0  0  0
 38 40  1  0  0  0  0
 38 35  1  0  0  0  0
 39 38  1  0  0  0  0
 41 42  1  0  0  0  0
 43 44  1  0  0  0  0
 43 41  1  0  0  0  0
 44 45  1  0  0  0  0
 46 44  1  0  0  0  0
 47 48  1  0  0  0  0
 47 46  1  0  0  0  0
 49 47  2  0  0  0  0
 50 49  1  0  0  0  0
 51 52  2  0  0  0  0
 51 49  1  0  0  0  0
 52 54  1  0  0  0  0
 53 52  1  0  0  0  0
 54 55  1  0  0  0  0
 54 46  2  0  0  0  0
 56 59  1  0  0  0  0
 56 51  1  0  0  0  0
 57 56  1  0  0  0  0
 58 56  1  0  0  0  0
 60 43  2  0  0  0  0
 61 62  1  6  0  0  0
 61  1  1  0  0  0  0
 63 66  1  0  0  0  0
 63 61  1  0  0  0  0
 64 63  1  0  0  0  0
 65 63  1  0  0  0  0
 66 67  1  6  0  0  0
 66 68  1  0  0  0  0
 66 61  1  0  0  0  0
 68 70  1  0  0  0  0
 69 68  2  0  0  0  0
M  END
>  <Pose>
8

>  <Score>
-8.72

$$$$

 OpenBabel03112211373D

 70 73  0  0  1  0  0  0  0  0999 V2000
   22.1120   80.0020   12.2700 C   0  0  0  0  0  0  0  0  0  0  0  0
   21.6220   78.7760   12.7180 C   0  0  0  0  0  0  0  0  0  0  0  0
   21.1230   78.1060   12.0340 H   0  0  0  0  0  0  0  0  0  0  0  0
   21.7840   78.4240   14.0500 C   0  0  0  0  0  0  0  0  0  0  0  0
   22.5090   79.2400   14.8940 C   0  0  0  0  0  0  0  0  0  0  0  0
   22.9780   80.4750   14.4590 C   0  0  0  0  0  0  0  0  0  0  0  0
   23.4880   81.1340   15.1460 H   0  0  0  0  0  0  0  0  0  0  0  0
   22.7870   80.8600   13.1340 C   0  0  0  0  0  0  0  0  0  0  0  0
   23.1580   81.8120   12.7810 H   0  0  0  0  0  0  0  0  0  0  0  0
   22.6920   78.8650   16.3340 N   0  0  0  0  0  0  0  0  0  0  0  0
   23.8150   77.9740   16.8090 C   0  0  0  0  0  0  0  0  0  0  0  0
   23.4590   76.9440   16.8370 H   0  0  0  0  0  0  0  0  0  0  0  0
   24.1110   78.2840   17.8110 H   0  0  0  0  0  0  0  0  0  0  0  0
   25.0620   78.0550   15.8620 C   0  0  0  0  0  0  0  0  0  0  0  0
   24.8530   78.5360   14.9060 H   0  0  0  0  0  0  0  0  0  0  0  0
   26.1540   78.8980   16.5990 C   0  0  0  0  0  0  0  0  0  0  0  0
   26.3820   78.4370   17.5600 H   0  0  0  0  0  0  0  0  0  0  0  0
   25.7850   79.9100   16.7600 H   0  0  0  0  0  0  0  0  0  0  0  0
   27.0580   78.9330   15.9900 H   0  0  0  0  0  0  0  0  0  0  0  0
   25.5130   76.6150   15.5950 C   0  0  0  0  0  0  0  0  0  0  0  0
   25.7260   76.1200   16.5420 H   0  0  0  0  0  0  0  0  0  0  0  0
   26.4120   76.6240   14.9790 H   0  0  0  0  0  0  0  0  0  0  0  0
   24.7210   76.0770   15.0740 H   0  0  0  0  0  0  0  0  0  0  0  0
   21.8640   79.6720   17.3210 C   0  0  0  0  0  0  0  0  0  0  0  0
   22.4560   80.3570   17.9280 H   0  0  0  0  0  0  0  0  0  0  0  0
   20.8720   80.5970   16.6230 C   0  0  0  0  0  0  0  0  0  0  0  0
   20.2700   80.0240   15.9190 H   0  0  0  0  0  0  0  0  0  0  0  0
   21.4120   81.3780   16.0880 H   0  0  0  0  0  0  0  0  0  0  0  0
   19.9550   81.2360   17.6940 C   0  0  0  0  0  0  0  0  0  0  0  0
   19.1960   81.8400   17.1960 H   0  0  0  0  0  0  0  0  0  0  0  0
   20.5570   81.8720   18.3430 H   0  0  0  0  0  0  0  0  0  0  0  0
   19.2620   80.1620   18.5460 C   0  0  0  0  0  0  0  0  0  0  0  0
   18.5900   79.5920   17.9040 H   0  0  0  0  0  0  0  0  0  0  0  0
   18.6850   80.6580   19.3260 H   0  0  0  0  0  0  0  0  0  0  0  0
   20.2440   79.1870   19.2110 C   0  0  0  0  0  0  0  0  0  0  0  0
   19.6840   78.3890   19.6990 H   0  0  0  0  0  0  0  0  0  0  0  0
   20.8360   79.7220   19.9530 H   0  0  0  0  0  0  0  0  0  0  0  0
   21.1820   78.5770   18.1520 C   0  0  0  0  0  0  0  0  0  0  0  0
   21.9460   77.9830   18.6540 H   0  0  0  0  0  0  0  0  0  0  0  0
   20.6010   77.9370   17.4880 H   0  0  0  0  0  0  0  0  0  0  0  0
   21.3610   77.1180   14.5300 N   0  0  0  0  0  0  0  0  0  0  0  0
   21.6980   76.7960   15.4260 H   0  0  0  0  0  0  0  0  0  0  0  0
   20.4730   76.2630   13.7700 C   0  0  0  0  0  0  0  0  0  0  0  0
   20.2640   74.9730   14.4060 N   0  0  0  0  0  0  0  0  0  0  0  0
   20.7220   74.7480   15.2780 H   0  0  0  0  0  0  0  0  0  0  0  0
   19.3820   74.0100   13.7590 C   0  0  0  0  0  0  0  0  0  0  0  0
   19.8620   72.7100   13.6130 C   0  0  0  0  0  0  0  0  0  0  0  0
   20.8410   72.4470   13.9850 H   0  0  0  0  0  0  0  0  0  0  0  0
   19.0720   71.7560   12.9860 C   0  0  0  0  0  0  0  0  0  0  0  0
   19.4170   70.7410   12.8610 H   0  0  0  0  0  0  0  0  0  0  0  0
   17.8160   72.1530   12.5210 C   0  0  0  0  0  0  0  0  0  0  0  0
   17.3560   73.4550   12.6640 C   0  0  0  0  0  0  0  0  0  0  0  0
   16.3820   73.7260   12.2830 H   0  0  0  0  0  0  0  0  0  0  0  0
   18.1370   74.4060   13.2900 C   0  0  0  0  0  0  0  0  0  0  0  0
   17.7920   75.4220   13.4110 H   0  0  0  0  0  0  0  0  0  0  0  0
   16.9180   71.1140   11.8190 C   0  0  0  0  0  0  0  0  0  0  0  0
   17.4280   70.1510   11.7920 H   0  0  0  0  0  0  0  0  0  0  0  0
   16.7090   71.4430   10.8010 H   0  0  0  0  0  0  0  0  0  0  0  0
   15.9810   71.0130   12.3670 H   0  0  0  0  0  0  0  0  0  0  0  0
   19.9470   76.6320   12.7650 O   0  0  0  0  0  0  0  0  0  0  0  0
   21.8930   80.4200   10.7890 C   0  0  1  0  0  0  0  0  0  0  0  0
   22.6960   81.0810   11.1180 H   0  0  0  0  0  0  0  0  0  0  0  0
   21.6520   79.6040    9.5150 C   0  0  0  0  0  0  0  0  0  0  0  0
   21.5280   78.5230    9.5760 H   0  0  0  0  0  0  0  0  0  0  0  0
   22.1810   79.8590    8.5970 H   0  0  0  0  0  0  0  0  0  0  0  0
   20.5600   80.5270   10.0460 C   0  0  1  0  0  0  0  0  0  0  0  0
   19.9710   81.3380    9.6180 H   0  0  0  0  0  0  0  0  0  0  0  0
   19.3650   79.8500   10.7400 C   0  0  0  0  0  0  0  0  0  0  0  0
   19.0930   78.6270   10.5530 O   0  0  0  0  0  0  0  0  0  0  0  0
   18.6400   80.5350   11.5050 O   0  0  0  0  0  0  0  0  0  0  0  0
  1  2  2  0  0  0  0
  1  8  1  0  0  0  0
  2  4  1  0  0  0  0
  3  2  1  0  0  0  0
  4 41  1  0  0  0  0
  4  5  2  0  0  0  0
  5 10  1  0  0  0  0
  6  5  1  0  0  0  0
  6  7  1  0  0  0  0
  8  6  2  0  0  0  0
  9  8  1  0  0  0  0
 10 11  1  0  0  0  0
 10 24  1  0  0  0  0
 11 12  1  0  0  0  0
 11 13  1  0  0  0  0
 14 16  1  0  0  0  0
 14 11  1  0  0  0  0
 15 14  1  0  0  0  0
 16 18  1  0  0  0  0
 16 17  1  0  0  0  0
 19 16  1  0  0  0  0
 20 14  1  0  0  0  0
 20 21  1  0  0  0  0
 22 20  1  0  0  0  0
 23 20  1  0  0  0  0
 24 25  1  0  0  0  0
 24 38  1  0  0  0  0
 26 24  1  0  0  0  0
 26 29  1  0  0  0  0
 27 26  1  0  0  0  0
 28 26  1  0  0  0  0
 29 31  1  0  0  0  0
 29 32  1  0  0  0  0
 30 29  1  0  0  0  0
 32 35  1  0  0  0  0
 32 34  1  0  0  0  0
 33 32  1  0  0  0  0
 35 36  1  0  0  0  0
 35 37  1  0  0  0  0
 38 39  1  0  0  0  0
 38 35  1  0  0  0  0
 40 38  1  0  0  0  0
 41 42  1  0  0  0  0
 43 44  1  0  0  0  0
 43 41  1  0  0  0  0
 44 45  1  0  0  0  0
 46 44  1  0  0  0  0
 47 46  1  0  0  0  0
 47 48  1  0  0  0  0
 49 47  2  0  0  0  0
 50 49  1  0  0  0  0
 51 52  2  0  0  0  0
 51 49  1  0  0  0  0
 52 54  1  0  0  0  0
 53 52  1  0  0  0  0
 54 55  1  0  0  0  0
 54 46  2  0  0  0  0
 56 59  1  0  0  0  0
 56 51  1  0  0  0  0
 57 56  1  0  0  0  0
 58 56  1  0  0  0  0
 60 43  2  0  0  0  0
 61 62  1  6  0  0  0
 61  1  1  0  0  0  0
 63 64  1  0  0  0  0
 63 66  1  0  0  0  0
 63 61  1  0  0  0  0
 65 63  1  0  0  0  0
 66 67  1  6  0  0  0
 66 68  1  0  0  0  0
 66 61  1  0  0  0  0
 68 70  1  0  0  0  0
 69 68  2  0  0  0  0
M  END
>  <Pose>
1

>  <Score>
-8.06

$$$$

 OpenBabel03112211373D

 70 73  0  0  1  0  0  0  0  0999 V2000
   21.8380   79.4270   11.8430 C   0  0  0  0  0  0  0  0  0  0  0  0
   21.4130   78.1530   12.2190 C   0  0  0  0  0  0  0  0  0  0  0  0
   21.0420   77.4610   11.4770 H   0  0  0  0  0  0  0  0  0  0  0  0
   21.4700   77.7830   13.5540 C   0  0  0  0  0  0  0  0  0  0  0  0
   22.0360   78.6360   14.4810 C   0  0  0  0  0  0  0  0  0  0  0  0
   22.4390   79.9160   14.1150 C   0  0  0  0  0  0  0  0  0  0  0  0
   22.8210   80.5970   14.8610 H   0  0  0  0  0  0  0  0  0  0  0  0
   22.3490   80.3160   12.7840 C   0  0  0  0  0  0  0  0  0  0  0  0
   22.6700   81.3040   12.4870 H   0  0  0  0  0  0  0  0  0  0  0  0
   22.1070   78.2410   15.9260 N   0  0  0  0  0  0  0  0  0  0  0  0
   20.8940   77.8100   16.7140 C   0  0  0  0  0  0  0  0  0  0  0  0
   20.9380   76.7320   16.8680 H   0  0  0  0  0  0  0  0  0  0  0  0
   19.9980   78.0600   16.1460 H   0  0  0  0  0  0  0  0  0  0  0  0
   20.8250   78.5200   18.1100 C   0  0  0  0  0  0  0  0  0  0  0  0
   21.7530   79.0190   18.3910 H   0  0  0  0  0  0  0  0  0  0  0  0
   19.7000   79.6030   18.0290 C   0  0  0  0  0  0  0  0  0  0  0  0
   18.7590   79.1290   17.7490 H   0  0  0  0  0  0  0  0  0  0  0  0
   19.9670   80.3500   17.2820 H   0  0  0  0  0  0  0  0  0  0  0  0
   19.5880   80.0850   19.0010 H   0  0  0  0  0  0  0  0  0  0  0  0
   20.5210   77.4340   19.1480 C   0  0  0  0  0  0  0  0  0  0  0  0
   19.5950   76.9260   18.8800 H   0  0  0  0  0  0  0  0  0  0  0  0
   20.4140   77.8910   20.1310 H   0  0  0  0  0  0  0  0  0  0  0  0
   21.3380   76.7130   19.1690 H   0  0  0  0  0  0  0  0  0  0  0  0
   23.5100   78.0130   16.4640 C   0  0  0  0  0  0  0  0  0  0  0  0
   23.5430   77.3540   17.3310 H   0  0  0  0  0  0  0  0  0  0  0  0
   24.4080   77.3020   15.4560 C   0  0  0  0  0  0  0  0  0  0  0  0
   24.3890   77.8370   14.5060 H   0  0  0  0  0  0  0  0  0  0  0  0
   24.0540   76.2820   15.3040 H   0  0  0  0  0  0  0  0  0  0  0  0
   25.8520   77.2760   16.0110 C   0  0  0  0  0  0  0  0  0  0  0  0
   26.5130   76.8370   15.2640 H   0  0  0  0  0  0  0  0  0  0  0  0
   25.8740   76.6700   16.9170 H   0  0  0  0  0  0  0  0  0  0  0  0
   26.3450   78.6930   16.3440 C   0  0  0  0  0  0  0  0  0  0  0  0
   26.4100   79.2630   15.4180 H   0  0  0  0  0  0  0  0  0  0  0  0
   27.3340   78.6180   16.7950 H   0  0  0  0  0  0  0  0  0  0  0  0
   25.4230   79.4450   17.3150 C   0  0  0  0  0  0  0  0  0  0  0  0
   25.7670   80.4740   17.4140 H   0  0  0  0  0  0  0  0  0  0  0  0
   25.4500   78.9570   18.2890 H   0  0  0  0  0  0  0  0  0  0  0  0
   23.9780   79.4400   16.7820 C   0  0  0  0  0  0  0  0  0  0  0  0
   23.3190   79.8700   17.5360 H   0  0  0  0  0  0  0  0  0  0  0  0
   23.9310   80.0400   15.8730 H   0  0  0  0  0  0  0  0  0  0  0  0
   21.1140   76.4350   13.9680 N   0  0  0  0  0  0  0  0  0  0  0  0
   21.5600   76.0430   14.7850 H   0  0  0  0  0  0  0  0  0  0  0  0
   20.1440   75.6340   13.2500 C   0  0  0  0  0  0  0  0  0  0  0  0
   20.0200   74.2920   13.7920 N   0  0  0  0  0  0  0  0  0  0  0  0
   20.5810   74.0010   14.5800 H   0  0  0  0  0  0  0  0  0  0  0  0
   19.0700   73.3750   13.1760 C   0  0  0  0  0  0  0  0  0  0  0  0
   19.5160   72.0800   12.9210 C   0  0  0  0  0  0  0  0  0  0  0  0
   20.5190   71.7860   13.1920 H   0  0  0  0  0  0  0  0  0  0  0  0
   18.6590   71.1690   12.3170 C   0  0  0  0  0  0  0  0  0  0  0  0
   18.9760   70.1580   12.1090 H   0  0  0  0  0  0  0  0  0  0  0  0
   17.3740   71.6030   11.9850 C   0  0  0  0  0  0  0  0  0  0  0  0
   16.9480   72.9010   12.2350 C   0  0  0  0  0  0  0  0  0  0  0  0
   15.9490   73.2020   11.9560 H   0  0  0  0  0  0  0  0  0  0  0  0
   17.7960   73.8080   12.8390 C   0  0  0  0  0  0  0  0  0  0  0  0
   17.4780   74.8200   13.0430 H   0  0  0  0  0  0  0  0  0  0  0  0
   16.4020   70.6130   11.3110 C   0  0  0  0  0  0  0  0  0  0  0  0
   16.8930   69.6470   11.1900 H   0  0  0  0  0  0  0  0  0  0  0  0
   16.1110   70.9980   10.3340 H   0  0  0  0  0  0  0  0  0  0  0  0
   15.5150   70.4940   11.9330 H   0  0  0  0  0  0  0  0  0  0  0  0
   19.4990   76.0800   12.3500 O   0  0  0  0  0  0  0  0  0  0  0  0
   21.7330   79.8620   10.3540 C   0  0  1  0  0  0  0  0  0  0  0  0
   22.2120   80.7180   10.8310 H   0  0  0  0  0  0  0  0  0  0  0  0
   21.9760   79.1090    9.0430 C   0  0  0  0  0  0  0  0  0  0  0  0
   22.2050   78.0430    9.0610 H   0  0  0  0  0  0  0  0  0  0  0  0
   22.5320   79.5860    8.2360 H   0  0  0  0  0  0  0  0  0  0  0  0
   20.5740   79.5930    9.3920 C   0  0  1  0  0  0  0  0  0  0  0  0
   19.8280   80.2040    8.8830 H   0  0  0  0  0  0  0  0  0  0  0  0
   19.5720   78.5210    9.8550 C   0  0  0  0  0  0  0  0  0  0  0  0
   19.6330   77.3280    9.4330 O   0  0  0  0  0  0  0  0  0  0  0  0
   18.6680   78.8450   10.6660 O   0  0  0  0  0  0  0  0  0  0  0  0
  1  2  2  0  0  0  0
  1  8  1  0  0  0  0
  2  4  1  0  0  0  0
  3  2  1  0  0  0  0
  4 41  1  0  0  0  0
  4  5  2  0  0  0  0
  5 10  1  0  0  0  0
  6  5  1  0  0  0  0
  6  7  1  0  0  0  0
  8  6  2  0  0  0  0
  9  8  1  0  0  0  0
 10 24  1  0  0  0  0
 10 11  1  0  0  0  0
 11 12  1  0  0  0  0
 11 14  1  0  0  0  0
 13 11  1  0  0  0  0
 14 15  1  0  0  0  0
 14 20  1  0  0  0  0
 16 14  1  0  0  0  0
 16 19  1  0  0  0  0
 17 16  1  0  0  0  0
 18 16  1  0  0  0  0
 20 23  1  0  0  0  0
 20 22  1  0  0  0  0
 21 20  1  0  0  0  0
 24 38  1  0  0  0  0
 24 25  1  0  0  0  0
 26 29  1  0  0  0  0
 26 24  1  0  0  0  0
 27 26  1  0  0  0  0
 28 26  1  0  0  0  0
 29 32  1  0  0  0  0
 29 31  1  0  0  0  0
 30 29  1  0  0  0  0
 32 34  1  0  0  0  0
 32 35  1  0  0  0  0
 33 32  1  0  0  0  0
 35 36  1  0  0  0  0
 35 37  1  0  0  0  0
 38 35  1  0  0  0  0
 38 39  1  0  0  0  0
 40 38  1  0  0  0  0
 41 42  1  0  0  0  0
 43 44  1  0  0  0  0
 43 41  1  0  0  0  0
 44 45  1  0  0  0  0
 46 44  1  0  0  0  0
 47 46  1  0  0  0  0
 47 48  1  0  0  0  0
 49 47  2  0  0  0  0
 50 49  1  0  0  0  0
 51 52  2  0  0  0  0
 51 49  1  0  0  0  0
 52 54  1  0  0  0  0
 53 52  1  0  0  0  0
 54 55  1  0  0  0  0
 54 46  2  0  0  0  0
 56 59  1  0  0  0  0
 56 51  1  0  0  0  0
 57 56  1  0  0  0  0
 58 56  1  0  0  0  0
 60 43  2  0  0  0  0
 61 62  1  6  0  0  0
 61  1  1  0  0  0  0
 63 64  1  0  0  0  0
 63 66  1  0  0  0  0
 63 61  1  0  0  0  0
 65 63  1  0  0  0  0
 66 67  1  6  0  0  0
 66 68  1  0  0  0  0
 66 61  1  0  0  0  0
 68 70  1  0  0  0  0
 69 68  2  0  0  0  0
M  END
>  <Pose>
1

>  <Score>
-7.77

$$$$
