
 OpenBabel03092210553D

 70 73  0  0  1  0  0  0  0  0999 V2000
   21.9820   79.4540   12.2860 C   0  0  0  0  0  0  0  0  0  0  0  0
   21.5030   78.2010   12.6660 C   0  0  0  0  0  0  0  0  0  0  0  0
   21.0760   77.5350   11.9310 H   0  0  0  0  0  0  0  0  0  0  0  0
   21.5800   77.8190   13.9970 C   0  0  0  0  0  0  0  0  0  0  0  0
   22.2160   78.6340   14.9120 C   0  0  0  0  0  0  0  0  0  0  0  0
   22.6730   79.8950   14.5420 C   0  0  0  0  0  0  0  0  0  0  0  0
   23.1110   80.5500   15.2800 H   0  0  0  0  0  0  0  0  0  0  0  0
   22.5650   80.3100   13.2170 C   0  0  0  0  0  0  0  0  0  0  0  0
   22.9270   81.2820   12.9160 H   0  0  0  0  0  0  0  0  0  0  0  0
   22.3090   78.2250   16.3510 N   0  0  0  0  0  0  0  0  0  0  0  0
   23.6180   78.1670   17.1000 C   0  0  0  0  0  0  0  0  0  0  0  0
   23.6860   77.2110   17.6180 H   0  0  0  0  0  0  0  0  0  0  0  0
   23.6430   78.9780   17.8290 H   0  0  0  0  0  0  0  0  0  0  0  0
   24.8460   78.3110   16.1370 C   0  0  0  0  0  0  0  0  0  0  0  0
   24.6650   78.9830   15.2980 H   0  0  0  0  0  0  0  0  0  0  0  0
   26.0320   78.8930   16.9750 C   0  0  0  0  0  0  0  0  0  0  0  0
   26.2330   78.2380   17.8220 H   0  0  0  0  0  0  0  0  0  0  0  0
   25.7680   79.8860   17.3380 H   0  0  0  0  0  0  0  0  0  0  0  0
   26.9210   78.9600   16.3480 H   0  0  0  0  0  0  0  0  0  0  0  0
   25.1470   76.9130   15.5860 C   0  0  0  0  0  0  0  0  0  0  0  0
   25.3310   76.2280   16.4140 H   0  0  0  0  0  0  0  0  0  0  0  0
   26.0290   76.9560   14.9480 H   0  0  0  0  0  0  0  0  0  0  0  0
   24.2950   76.5600   15.0060 H   0  0  0  0  0  0  0  0  0  0  0  0
   20.9820   78.1630   17.0900 C   0  0  0  0  0  0  0  0  0  0  0  0
   20.2120   77.6050   16.5570 H   0  0  0  0  0  0  0  0  0  0  0  0
   21.0930   77.4180   18.4160 C   0  0  0  0  0  0  0  0  0  0  0  0
   21.9000   77.8450   19.0110 H   0  0  0  0  0  0  0  0  0  0  0  0
   21.2980   76.3640   18.2290 H   0  0  0  0  0  0  0  0  0  0  0  0
   19.7530   77.5610   19.1780 C   0  0  0  0  0  0  0  0  0  0  0  0
   19.8500   77.0950   20.1580 H   0  0  0  0  0  0  0  0  0  0  0  0
   18.9680   77.0590   18.6130 H   0  0  0  0  0  0  0  0  0  0  0  0
   19.3730   79.0380   19.3610 C   0  0  0  0  0  0  0  0  0  0  0  0
   20.1150   79.5090   20.0060 H   0  0  0  0  0  0  0  0  0  0  0  0
   18.3940   79.0870   19.8370 H   0  0  0  0  0  0  0  0  0  0  0  0
   19.3110   79.8180   18.0400 C   0  0  0  0  0  0  0  0  0  0  0  0
   19.1530   80.8760   18.2530 H   0  0  0  0  0  0  0  0  0  0  0  0
   18.4860   79.4410   17.4370 H   0  0  0  0  0  0  0  0  0  0  0  0
   20.6300   79.6470   17.2630 C   0  0  0  0  0  0  0  0  0  0  0  0
   20.5260   80.1050   16.2800 H   0  0  0  0  0  0  0  0  0  0  0  0
   21.4330   80.1410   17.8110 H   0  0  0  0  0  0  0  0  0  0  0  0
   21.1680   76.4880   14.4120 N   0  0  0  0  0  0  0  0  0  0  0  0
   21.5720   76.0920   15.2500 H   0  0  0  0  0  0  0  0  0  0  0  0
   20.2000   75.7080   13.6690 C   0  0  0  0  0  0  0  0  0  0  0  0
   20.0150   74.3770   14.2220 N   0  0  0  0  0  0  0  0  0  0  0  0
   20.5380   74.0790   15.0320 H   0  0  0  0  0  0  0  0  0  0  0  0
   19.0600   73.4820   13.5820 C   0  0  0  0  0  0  0  0  0  0  0  0
   19.4780   72.1740   13.3450 C   0  0  0  0  0  0  0  0  0  0  0  0
   20.4650   71.8560   13.6460 H   0  0  0  0  0  0  0  0  0  0  0  0
   18.6160   71.2830   12.7200 C   0  0  0  0  0  0  0  0  0  0  0  0
   18.9130   70.2630   12.5260 H   0  0  0  0  0  0  0  0  0  0  0  0
   17.3520   71.7490   12.3500 C   0  0  0  0  0  0  0  0  0  0  0  0
   16.9530   73.0590   12.5820 C   0  0  0  0  0  0  0  0  0  0  0  0
   15.9710   73.3840   12.2730 H   0  0  0  0  0  0  0  0  0  0  0  0
   17.8070   73.9470   13.2070 C   0  0  0  0  0  0  0  0  0  0  0  0
   17.5100   74.9670   13.3970 H   0  0  0  0  0  0  0  0  0  0  0  0
   16.3750   70.7810   11.6520 C   0  0  0  0  0  0  0  0  0  0  0  0
   16.8440   69.8030   11.5480 H   0  0  0  0  0  0  0  0  0  0  0  0
   16.1220   71.1690   10.6650 H   0  0  0  0  0  0  0  0  0  0  0  0
   15.4670   70.6880   12.2490 H   0  0  0  0  0  0  0  0  0  0  0  0
   19.6010   76.1620   12.7420 O   0  0  0  0  0  0  0  0  0  0  0  0
   21.8560   79.9060   10.8040 C   0  0  1  0  0  0  0  0  0  0  0  0
   22.6330   80.5610   11.1980 H   0  0  0  0  0  0  0  0  0  0  0  0
   21.6990   79.1190    9.4980 C   0  0  0  0  0  0  0  0  0  0  0  0
   21.5760   78.0360    9.5260 H   0  0  0  0  0  0  0  0  0  0  0  0
   22.2840   79.3960    8.6220 H   0  0  0  0  0  0  0  0  0  0  0  0
   20.5720   80.0260    9.9800 C   0  0  1  0  0  0  0  0  0  0  0  0
   20.0080   80.8450    9.5340 H   0  0  0  0  0  0  0  0  0  0  0  0
   19.3390   79.3300   10.5810 C   0  0  0  0  0  0  0  0  0  0  0  0
   19.1470   78.0840   10.4480 O   0  0  0  0  0  0  0  0  0  0  0  0
   18.5000   80.0200   11.2130 O   0  0  0  0  0  0  0  0  0  0  0  0
  1  2  2  0  0  0  0
  1  8  1  0  0  0  0
  2  4  1  0  0  0  0
  3  2  1  0  0  0  0
  4 41  1  0  0  0  0
  4  5  2  0  0  0  0
  5 10  1  0  0  0  0
  6  5  1  0  0  0  0
  6  7  1  0  0  0  0
  8  6  2  0  0  0  0
  9  8  1  0  0  0  0
 10 24  1  0  0  0  0
 10 11  1  0  0  0  0
 11 12  1  0  0  0  0
 11 13  1  0  0  0  0
 14 16  1  0  0  0  0
 14 11  1  0  0  0  0
 15 14  1  0  0  0  0
 16 18  1  0  0  0  0
 16 17  1  0  0  0  0
 19 16  1  0  0  0  0
 20 14  1  0  0  0  0
 20 21  1  0  0  0  0
 22 20  1  0  0  0  0
 23 20  1  0  0  0  0
 24 38  1  0  0  0  0
 24 26  1  0  0  0  0
 25 24  1  0  0  0  0
 26 27  1  0  0  0  0
 26 29  1  0  0  0  0
 28 26  1  0  0  0  0
 29 32  1  0  0  0  0
 29 30  1  0  0  0  0
 31 29  1  0  0  0  0
 32 34  1  0  0  0  0
 32 33  1  0  0  0  0
 35 36  1  0  0  0  0
 35 32  1  0  0  0  0
 37 35  1  0  0  0  0
 38 40  1  0  0  0  0
 38 35  1  0  0  0  0
 39 38  1  0  0  0  0
 41 42  1  0  0  0  0
 43 44  1  0  0  0  0
 43 41  1  0  0  0  0
 44 45  1  0  0  0  0
 46 44  1  0  0  0  0
 47 46  1  0  0  0  0
 47 48  1  0  0  0  0
 49 47  2  0  0  0  0
 50 49  1  0  0  0  0
 51 52  2  0  0  0  0
 51 49  1  0  0  0  0
 52 54  1  0  0  0  0
 53 52  1  0  0  0  0
 54 55  1  0  0  0  0
 54 46  2  0  0  0  0
 56 59  1  0  0  0  0
 56 51  1  0  0  0  0
 57 56  1  0  0  0  0
 58 56  1  0  0  0  0
 60 43  2  0  0  0  0
 61 62  1  6  0  0  0
 61  1  1  0  0  0  0
 63 64  1  0  0  0  0
 63 66  1  0  0  0  0
 63 61  1  0  0  0  0
 65 63  1  0  0  0  0
 66 67  1  6  0  0  0
 66 68  1  0  0  0  0
 66 61  1  0  0  0  0
 68 70  1  0  0  0  0
 69 68  2  0  0  0  0
M  END
>  <Pose>
5

>  <Score>
-8.83

$$$$

 OpenBabel03092210553D

 70 73  0  0  1  0  0  0  0  0999 V2000
   20.1460   78.9630   17.7700 C   0  0  0  0  0  0  0  0  0  0  0  0
   20.3230   77.7640   17.0810 C   0  0  0  0  0  0  0  0  0  0  0  0
   19.8570   76.8570   17.4370 H   0  0  0  0  0  0  0  0  0  0  0  0
   21.1020   77.7470   15.9340 C   0  0  0  0  0  0  0  0  0  0  0  0
   21.6130   78.9260   15.4300 C   0  0  0  0  0  0  0  0  0  0  0  0
   21.4600   80.1210   16.1270 C   0  0  0  0  0  0  0  0  0  0  0  0
   21.9180   81.0260   15.7570 H   0  0  0  0  0  0  0  0  0  0  0  0
   20.7140   80.1450   17.3040 C   0  0  0  0  0  0  0  0  0  0  0  0
   20.5790   81.0690   17.8460 H   0  0  0  0  0  0  0  0  0  0  0  0
   22.4520   78.9170   14.1880 N   0  0  0  0  0  0  0  0  0  0  0  0
   23.7130   78.0980   14.0620 C   0  0  0  0  0  0  0  0  0  0  0  0
   24.4780   78.7020   13.5740 H   0  0  0  0  0  0  0  0  0  0  0  0
   23.5030   77.2180   13.4540 H   0  0  0  0  0  0  0  0  0  0  0  0
   24.2480   77.6340   15.4610 C   0  0  0  0  0  0  0  0  0  0  0  0
   23.4600   77.3300   16.1490 H   0  0  0  0  0  0  0  0  0  0  0  0
   25.1820   76.4030   15.2190 C   0  0  0  0  0  0  0  0  0  0  0  0
   25.9810   76.6820   14.5320 H   0  0  0  0  0  0  0  0  0  0  0  0
   24.6020   75.5860   14.7900 H   0  0  0  0  0  0  0  0  0  0  0  0
   25.6140   76.0830   16.1680 H   0  0  0  0  0  0  0  0  0  0  0  0
   24.9940   78.8260   16.0700 C   0  0  0  0  0  0  0  0  0  0  0  0
   25.7870   79.1430   15.3930 H   0  0  0  0  0  0  0  0  0  0  0  0
   25.4280   78.5320   17.0260 H   0  0  0  0  0  0  0  0  0  0  0  0
   24.2970   79.6500   16.2250 H   0  0  0  0  0  0  0  0  0  0  0  0
   21.8000   79.5420   12.9650 C   0  0  0  0  0  0  0  0  0  0  0  0
   20.9520   80.1850   13.2040 H   0  0  0  0  0  0  0  0  0  0  0  0
   22.7460   80.4800   12.2220 C   0  0  0  0  0  0  0  0  0  0  0  0
   23.6780   79.9610   11.9990 H   0  0  0  0  0  0  0  0  0  0  0  0
   22.9560   81.3540   12.8390 H   0  0  0  0  0  0  0  0  0  0  0  0
   22.0680   80.9240   10.9040 C   0  0  0  0  0  0  0  0  0  0  0  0
   22.7670   81.5350   10.3320 H   0  0  0  0  0  0  0  0  0  0  0  0
   21.1810   81.5130   11.1410 H   0  0  0  0  0  0  0  0  0  0  0  0
   21.6530   79.7110   10.0570 C   0  0  0  0  0  0  0  0  0  0  0  0
   22.5530   79.1820    9.7450 H   0  0  0  0  0  0  0  0  0  0  0  0
   21.1190   80.0700    9.1760 H   0  0  0  0  0  0  0  0  0  0  0  0
   20.7450   78.7270   10.8080 C   0  0  0  0  0  0  0  0  0  0  0  0
   20.5860   77.8410   10.1930 H   0  0  0  0  0  0  0  0  0  0  0  0
   19.7860   79.2040   11.0120 H   0  0  0  0  0  0  0  0  0  0  0  0
   21.4020   78.3130   12.1380 C   0  0  0  0  0  0  0  0  0  0  0  0
   20.6960   77.7110   12.7110 H   0  0  0  0  0  0  0  0  0  0  0  0
   22.2930   77.7220   11.9260 H   0  0  0  0  0  0  0  0  0  0  0  0
   21.2370   76.5320   15.1450 N   0  0  0  0  0  0  0  0  0  0  0  0
   22.1610   76.2360   14.8620 H   0  0  0  0  0  0  0  0  0  0  0  0
   20.0960   75.7320   14.7520 C   0  0  0  0  0  0  0  0  0  0  0  0
   20.4660   74.6190   13.8940 N   0  0  0  0  0  0  0  0  0  0  0  0
   21.4290   74.4730   13.6250 H   0  0  0  0  0  0  0  0  0  0  0  0
   19.4200   73.7180   13.4290 C   0  0  0  0  0  0  0  0  0  0  0  0
   19.7000   72.3540   13.4580 C   0  0  0  0  0  0  0  0  0  0  0  0
   20.6520   72.0020   13.8280 H   0  0  0  0  0  0  0  0  0  0  0  0
   18.7470   71.4500   13.0060 C   0  0  0  0  0  0  0  0  0  0  0  0
   18.9370   70.3870   13.0190 H   0  0  0  0  0  0  0  0  0  0  0  0
   17.5360   71.9600   12.5350 C   0  0  0  0  0  0  0  0  0  0  0  0
   17.2750   73.3240   12.5020 C   0  0  0  0  0  0  0  0  0  0  0  0
   16.3290   73.6810   12.1220 H   0  0  0  0  0  0  0  0  0  0  0  0
   18.2190   74.2260   12.9530 C   0  0  0  0  0  0  0  0  0  0  0  0
   18.0290   75.2890   12.9360 H   0  0  0  0  0  0  0  0  0  0  0  0
   16.4600   70.9790   12.0270 C   0  0  0  0  0  0  0  0  0  0  0  0
   16.8250   69.9570   12.1230 H   0  0  0  0  0  0  0  0  0  0  0  0
   16.2420   71.1900   10.9800 H   0  0  0  0  0  0  0  0  0  0  0  0
   15.5520   71.0980   12.6180 H   0  0  0  0  0  0  0  0  0  0  0  0
   18.9960   75.9610   15.1530 O   0  0  0  0  0  0  0  0  0  0  0  0
   19.3110   78.9780   19.0810 C   0  0  1  0  0  0  0  0  0  0  0  0
   18.7660   78.2790   18.4470 H   0  0  0  0  0  0  0  0  0  0  0  0
   19.7170   78.9700   20.5590 C   0  0  0  0  0  0  0  0  0  0  0  0
   20.7690   79.0330   20.8350 H   0  0  0  0  0  0  0  0  0  0  0  0
   19.1940   78.3240   21.2640 H   0  0  0  0  0  0  0  0  0  0  0  0
   19.0090   80.1860   19.9700 C   0  0  1  0  0  0  0  0  0  0  0  0
   18.1170   80.7530   20.2360 H   0  0  0  0  0  0  0  0  0  0  0  0
   19.8800   81.4280   19.7090 C   0  0  0  0  0  0  0  0  0  0  0  0
   21.0890   81.4840   20.0860 O   0  0  0  0  0  0  0  0  0  0  0  0
   19.3720   82.4100   19.1120 O   0  0  0  0  0  0  0  0  0  0  0  0
  1 61  1  0  0  0  0
  2  3  1  0  0  0  0
  2  1  2  0  0  0  0
  4  2  1  0  0  0  0
  5  4  2  0  0  0  0
  5  6  1  0  0  0  0
  6  8  2  0  0  0  0
  7  6  1  0  0  0  0
  8  1  1  0  0  0  0
  8  9  1  0  0  0  0
 10  5  1  0  0  0  0
 11 10  1  0  0  0  0
 11 14  1  0  0  0  0
 12 11  1  0  0  0  0
 13 11  1  0  0  0  0
 14 20  1  0  0  0  0
 14 15  1  0  0  0  0
 16 14  1  0  0  0  0
 16 19  1  0  0  0  0
 17 16  1  0  0  0  0
 18 16  1  0  0  0  0
 20 23  1  0  0  0  0
 20 22  1  0  0  0  0
 21 20  1  0  0  0  0
 24 25  1  0  0  0  0
 24 10  1  0  0  0  0
 26 28  1  0  0  0  0
 26 24  1  0  0  0  0
 27 26  1  0  0  0  0
 29 31  1  0  0  0  0
 29 26  1  0  0  0  0
 30 29  1  0  0  0  0
 32 35  1  0  0  0  0
 32 29  1  0  0  0  0
 33 32  1  0  0  0  0
 34 32  1  0  0  0  0
 35 37  1  0  0  0  0
 35 38  1  0  0  0  0
 36 35  1  0  0  0  0
 38 39  1  0  0  0  0
 38 24  1  0  0  0  0
 40 38  1  0  0  0  0
 41  4  1  0  0  0  0
 42 41  1  0  0  0  0
 43 41  1  0  0  0  0
 43 60  2  0  0  0  0
 44 43  1  0  0  0  0
 45 44  1  0  0  0  0
 46 47  1  0  0  0  0
 46 44  1  0  0  0  0
 47 48  1  0  0  0  0
 49 50  1  0  0  0  0
 49 47  2  0  0  0  0
 51 49  1  0  0  0  0
 52 51  2  0  0  0  0
 52 54  1  0  0  0  0
 53 52  1  0  0  0  0
 54 46  2  0  0  0  0
 55 54  1  0  0  0  0
 56 57  1  0  0  0  0
 56 51  1  0  0  0  0
 56 59  1  0  0  0  0
 58 56  1  0  0  0  0
 61 62  1  6  0  0  0
 61 66  1  0  0  0  0
 61 63  1  0  0  0  0
 63 64  1  0  0  0  0
 63 65  1  0  0  0  0
 66 67  1  1  0  0  0
 66 63  1  0  0  0  0
 68 66  1  0  0  0  0
 68 69  1  0  0  0  0
 70 68  2  0  0  0  0
M  END
>  <Pose>
2

>  <Score>
-8.44

$$$$

 OpenBabel03092210553D

 70 73  0  0  1  0  0  0  0  0999 V2000
   21.6370   79.4650   11.8530 C   0  0  0  0  0  0  0  0  0  0  0  0
   21.2980   78.1650   12.2250 C   0  0  0  0  0  0  0  0  0  0  0  0
   20.9710   77.4530   11.4810 H   0  0  0  0  0  0  0  0  0  0  0  0
   21.3860   77.7930   13.5580 C   0  0  0  0  0  0  0  0  0  0  0  0
   21.8990   78.6770   14.4870 C   0  0  0  0  0  0  0  0  0  0  0  0
   22.2150   79.9820   14.1250 C   0  0  0  0  0  0  0  0  0  0  0  0
   22.5550   80.6840   14.8730 H   0  0  0  0  0  0  0  0  0  0  0  0
   22.0930   80.3820   12.7970 C   0  0  0  0  0  0  0  0  0  0  0  0
   22.3470   81.3900   12.5030 H   0  0  0  0  0  0  0  0  0  0  0  0
   22.0010   78.2810   15.9290 N   0  0  0  0  0  0  0  0  0  0  0  0
   20.8020   77.8800   16.7520 C   0  0  0  0  0  0  0  0  0  0  0  0
   20.7280   76.7920   16.7610 H   0  0  0  0  0  0  0  0  0  0  0  0
   19.9050   78.3010   16.2980 H   0  0  0  0  0  0  0  0  0  0  0  0
   20.9110   78.3930   18.2300 C   0  0  0  0  0  0  0  0  0  0  0  0
   21.9320   78.6190   18.5380 H   0  0  0  0  0  0  0  0  0  0  0  0
   20.0730   79.7090   18.3310 C   0  0  0  0  0  0  0  0  0  0  0  0
   19.0450   79.5090   18.0280 H   0  0  0  0  0  0  0  0  0  0  0  0
   20.5040   80.4660   17.6760 H   0  0  0  0  0  0  0  0  0  0  0  0
   20.0840   80.0690   19.3600 H   0  0  0  0  0  0  0  0  0  0  0  0
   20.3660   77.2790   19.1300 C   0  0  0  0  0  0  0  0  0  0  0  0
   19.3440   77.0410   18.8350 H   0  0  0  0  0  0  0  0  0  0  0  0
   20.3760   77.6130   20.1680 H   0  0  0  0  0  0  0  0  0  0  0  0
   20.9900   76.3910   19.0280 H   0  0  0  0  0  0  0  0  0  0  0  0
   23.4140   78.0200   16.4270 C   0  0  0  0  0  0  0  0  0  0  0  0
   23.4580   77.3290   17.2690 H   0  0  0  0  0  0  0  0  0  0  0  0
   24.2810   77.3380   15.3740 C   0  0  0  0  0  0  0  0  0  0  0  0
   24.2470   77.9080   14.4460 H   0  0  0  0  0  0  0  0  0  0  0  0
   23.9140   76.3280   15.1940 H   0  0  0  0  0  0  0  0  0  0  0  0
   25.7370   77.2780   15.8960 C   0  0  0  0  0  0  0  0  0  0  0  0
   26.3760   76.8600   15.1190 H   0  0  0  0  0  0  0  0  0  0  0  0
   25.7720   76.6390   16.7780 H   0  0  0  0  0  0  0  0  0  0  0  0
   26.2520   78.6770   16.2690 C   0  0  0  0  0  0  0  0  0  0  0  0
   26.3020   79.2800   15.3630 H   0  0  0  0  0  0  0  0  0  0  0  0
   27.2500   78.5760   16.6950 H   0  0  0  0  0  0  0  0  0  0  0  0
   25.3590   79.4020   17.2870 C   0  0  0  0  0  0  0  0  0  0  0  0
   25.7160   80.4240   17.4160 H   0  0  0  0  0  0  0  0  0  0  0  0
   25.4030   78.8780   18.2420 H   0  0  0  0  0  0  0  0  0  0  0  0
   23.9030   79.4300   16.7860 C   0  0  0  0  0  0  0  0  0  0  0  0
   23.2650   79.8390   17.5700 H   0  0  0  0  0  0  0  0  0  0  0  0
   23.8420   80.0640   15.9020 H   0  0  0  0  0  0  0  0  0  0  0  0
   21.1210   76.4230   13.9670 N   0  0  0  0  0  0  0  0  0  0  0  0
   21.6400   76.0380   14.7430 H   0  0  0  0  0  0  0  0  0  0  0  0
   20.1400   75.5910   13.3010 C   0  0  0  0  0  0  0  0  0  0  0  0
   20.1150   74.2350   13.8220 N   0  0  0  0  0  0  0  0  0  0  0  0
   20.7430   73.9560   14.5630 H   0  0  0  0  0  0  0  0  0  0  0  0
   19.1670   73.2860   13.2540 C   0  0  0  0  0  0  0  0  0  0  0  0
   19.6500   72.0150   12.9470 C   0  0  0  0  0  0  0  0  0  0  0  0
   20.6810   71.7630   13.1450 H   0  0  0  0  0  0  0  0  0  0  0  0
   18.7950   71.0770   12.3840 C   0  0  0  0  0  0  0  0  0  0  0  0
   19.1410   70.0840   12.1380 H   0  0  0  0  0  0  0  0  0  0  0  0
   17.4730   71.4580   12.1470 C   0  0  0  0  0  0  0  0  0  0  0  0
   17.0090   72.7320   12.4480 C   0  0  0  0  0  0  0  0  0  0  0  0
   15.9810   72.9920   12.2410 H   0  0  0  0  0  0  0  0  0  0  0  0
   17.8550   73.6670   13.0110 C   0  0  0  0  0  0  0  0  0  0  0  0
   17.5080   74.6600   13.2530 H   0  0  0  0  0  0  0  0  0  0  0  0
   16.5020   70.4360   11.5210 C   0  0  0  0  0  0  0  0  0  0  0  0
   17.0250   69.4950   11.3500 H   0  0  0  0  0  0  0  0  0  0  0  0
   16.1290   70.8220   10.5720 H   0  0  0  0  0  0  0  0  0  0  0  0
   15.6650   70.2680   12.1990 H   0  0  0  0  0  0  0  0  0  0  0  0
   19.4140   76.0220   12.4580 O   0  0  0  0  0  0  0  0  0  0  0  0
   21.4980   79.8990   10.3670 C   0  0  1  0  0  0  0  0  0  0  0  0
   21.9940   80.7520   10.8300 H   0  0  0  0  0  0  0  0  0  0  0  0
   21.7030   79.1430    9.0510 C   0  0  0  0  0  0  0  0  0  0  0  0
   21.9260   78.0760    9.0650 H   0  0  0  0  0  0  0  0  0  0  0  0
   22.2420   79.6150    8.2300 H   0  0  0  0  0  0  0  0  0  0  0  0
   20.3130   79.6360    9.4350 C   0  0  1  0  0  0  0  0  0  0  0  0
   19.5580   80.2500    8.9440 H   0  0  0  0  0  0  0  0  0  0  0  0
   19.3160   78.5710    9.9240 C   0  0  0  0  0  0  0  0  0  0  0  0
   19.5180   77.3340    9.7330 O   0  0  0  0  0  0  0  0  0  0  0  0
   18.2750   78.9430   10.5220 O   0  0  0  0  0  0  0  0  0  0  0  0
  1  2  2  0  0  0  0
  1  8  1  0  0  0  0
  2  4  1  0  0  0  0
  3  2  1  0  0  0  0
  4 41  1  0  0  0  0
  4  5  2  0  0  0  0
  5 10  1  0  0  0  0
  6  5  1  0  0  0  0
  6  7  1  0  0  0  0
  8  6  2  0  0  0  0
  9  8  1  0  0  0  0
 10 24  1  0  0  0  0
 10 11  1  0  0  0  0
 11 12  1  0  0  0  0
 11 14  1  0  0  0  0
 13 11  1  0  0  0  0
 14 16  1  0  0  0  0
 14 15  1  0  0  0  0
 14 20  1  0  0  0  0
 16 19  1  0  0  0  0
 17 16  1  0  0  0  0
 18 16  1  0  0  0  0
 20 22  1  0  0  0  0
 21 20  1  0  0  0  0
 23 20  1  0  0  0  0
 24 38  1  0  0  0  0
 24 25  1  0  0  0  0
 26 29  1  0  0  0  0
 26 24  1  0  0  0  0
 27 26  1  0  0  0  0
 28 26  1  0  0  0  0
 29 32  1  0  0  0  0
 29 31  1  0  0  0  0
 30 29  1  0  0  0  0
 32 34  1  0  0  0  0
 32 35  1  0  0  0  0
 33 32  1  0  0  0  0
 35 36  1  0  0  0  0
 35 37  1  0  0  0  0
 38 35  1  0  0  0  0
 38 39  1  0  0  0  0
 40 38  1  0  0  0  0
 41 42  1  0  0  0  0
 43 44  1  0  0  0  0
 43 41  1  0  0  0  0
 44 45  1  0  0  0  0
 46 44  1  0  0  0  0
 47 48  1  0  0  0  0
 47 46  2  0  0  0  0
 49 47  1  0  0  0  0
 50 49  1  0  0  0  0
 51 49  2  0  0  0  0
 51 52  1  0  0  0  0
 52 54  2  0  0  0  0
 53 52  1  0  0  0  0
 54 55  1  0  0  0  0
 54 46  1  0  0  0  0
 56 51  1  0  0  0  0
 56 59  1  0  0  0  0
 57 56  1  0  0  0  0
 58 56  1  0  0  0  0
 60 43  2  0  0  0  0
 61 62  1  6  0  0  0
 61  1  1  0  0  0  0
 63 64  1  0  0  0  0
 63 66  1  0  0  0  0
 63 61  1  0  0  0  0
 65 63  1  0  0  0  0
 66 67  1  6  0  0  0
 66 68  1  0  0  0  0
 66 61  1  0  0  0  0
 68 70  1  0  0  0  0
 69 68  2  0  0  0  0
M  END
>  <Pose>
2

>  <Score>
-7.97

$$$$

 OpenBabel03092210553D

 70 73  0  0  1  0  0  0  0  0999 V2000
   20.0700   79.2400   17.4970 C   0  0  0  0  0  0  0  0  0  0  0  0
   20.3210   78.0230   16.8650 C   0  0  0  0  0  0  0  0  0  0  0  0
   19.8810   77.1120   17.2430 H   0  0  0  0  0  0  0  0  0  0  0  0
   21.1400   77.9940   15.7460 C   0  0  0  0  0  0  0  0  0  0  0  0
   21.6170   79.1740   15.2110 C   0  0  0  0  0  0  0  0  0  0  0  0
   21.3900   80.3870   15.8520 C   0  0  0  0  0  0  0  0  0  0  0  0
   21.8220   81.2960   15.4600 H   0  0  0  0  0  0  0  0  0  0  0  0
   20.6040   80.4270   17.0010 C   0  0  0  0  0  0  0  0  0  0  0  0
   20.4100   81.3650   17.5000 H   0  0  0  0  0  0  0  0  0  0  0  0
   22.4990   79.1510   13.9990 N   0  0  0  0  0  0  0  0  0  0  0  0
   22.1910   79.9440   12.7520 C   0  0  0  0  0  0  0  0  0  0  0  0
   23.1160   80.3790   12.3730 H   0  0  0  0  0  0  0  0  0  0  0  0
   21.4920   80.7410   13.0040 H   0  0  0  0  0  0  0  0  0  0  0  0
   21.5580   79.0470   11.6330 C   0  0  0  0  0  0  0  0  0  0  0  0
   21.1300   78.1170   12.0100 H   0  0  0  0  0  0  0  0  0  0  0  0
   20.4090   79.8720   10.9660 C   0  0  0  0  0  0  0  0  0  0  0  0
   20.8120   80.8090   10.5800 H   0  0  0  0  0  0  0  0  0  0  0  0
   19.6380   80.0860   11.7060 H   0  0  0  0  0  0  0  0  0  0  0  0
   19.9770   79.2970   10.1470 H   0  0  0  0  0  0  0  0  0  0  0  0
   22.6810   78.7020   10.6490 C   0  0  0  0  0  0  0  0  0  0  0  0
   23.1190   79.6220   10.2620 H   0  0  0  0  0  0  0  0  0  0  0  0
   22.2740   78.1180    9.8230 H   0  0  0  0  0  0  0  0  0  0  0  0
   23.4470   78.1210   11.1610 H   0  0  0  0  0  0  0  0  0  0  0  0
   23.8670   78.5230   14.2080 C   0  0  0  0  0  0  0  0  0  0  0  0
   24.6940   79.1840   13.9500 H   0  0  0  0  0  0  0  0  0  0  0  0
   24.1330   78.1910   15.6730 C   0  0  0  0  0  0  0  0  0  0  0  0
   23.3140   77.5890   16.0680 H   0  0  0  0  0  0  0  0  0  0  0  0
   24.2160   79.1130   16.2490 H   0  0  0  0  0  0  0  0  0  0  0  0
   25.4570   77.3960   15.7680 C   0  0  0  0  0  0  0  0  0  0  0  0
   25.6160   77.0920   16.8020 H   0  0  0  0  0  0  0  0  0  0  0  0
   26.2800   78.0360   15.4480 H   0  0  0  0  0  0  0  0  0  0  0  0
   25.4190   76.1450   14.8770 C   0  0  0  0  0  0  0  0  0  0  0  0
   24.6570   75.4690   15.2630 H   0  0  0  0  0  0  0  0  0  0  0  0
   26.3940   75.6590   14.9220 H   0  0  0  0  0  0  0  0  0  0  0  0
   25.0970   76.4540   13.4080 C   0  0  0  0  0  0  0  0  0  0  0  0
   24.9720   75.5190   12.8620 H   0  0  0  0  0  0  0  0  0  0  0  0
   25.9180   77.0230   12.9710 H   0  0  0  0  0  0  0  0  0  0  0  0
   23.7990   77.2770   13.3140 C   0  0  0  0  0  0  0  0  0  0  0  0
   23.6490   77.5890   12.2800 H   0  0  0  0  0  0  0  0  0  0  0  0
   22.9600   76.6570   13.6310 H   0  0  0  0  0  0  0  0  0  0  0  0
   21.3540   76.7560   15.0140 N   0  0  0  0  0  0  0  0  0  0  0  0
   22.2950   76.5040   14.7470 H   0  0  0  0  0  0  0  0  0  0  0  0
   20.2660   75.8710   14.6530 C   0  0  0  0  0  0  0  0  0  0  0  0
   20.7080   74.7450   13.8470 N   0  0  0  0  0  0  0  0  0  0  0  0
   21.6790   74.6460   13.5890 H   0  0  0  0  0  0  0  0  0  0  0  0
   19.7210   73.7620   13.4190 C   0  0  0  0  0  0  0  0  0  0  0  0
   20.0420   72.4200   13.6080 C   0  0  0  0  0  0  0  0  0  0  0  0
   20.9790   72.1440   14.0690 H   0  0  0  0  0  0  0  0  0  0  0  0
   19.1470   71.4390   13.2000 C   0  0  0  0  0  0  0  0  0  0  0  0
   19.3690   70.3910   13.3360 H   0  0  0  0  0  0  0  0  0  0  0  0
   17.9520   71.8520   12.6070 C   0  0  0  0  0  0  0  0  0  0  0  0
   17.6510   73.1940   12.4150 C   0  0  0  0  0  0  0  0  0  0  0  0
   16.7200   73.4740   11.9450 H   0  0  0  0  0  0  0  0  0  0  0  0
   18.5370   74.1720   12.8230 C   0  0  0  0  0  0  0  0  0  0  0  0
   18.3150   75.2200   12.6830 H   0  0  0  0  0  0  0  0  0  0  0  0
   16.9410   70.7840   12.1430 C   0  0  0  0  0  0  0  0  0  0  0  0
   17.3310   69.7910   12.3680 H   0  0  0  0  0  0  0  0  0  0  0  0
   16.7820   70.8770   11.0690 H   0  0  0  0  0  0  0  0  0  0  0  0
   15.9950   70.9290   12.6640 H   0  0  0  0  0  0  0  0  0  0  0  0
   19.1510   76.0500   15.0390 O   0  0  0  0  0  0  0  0  0  0  0  0
   19.1900   79.2720   18.7780 C   0  0  1  0  0  0  0  0  0  0  0  0
   18.5680   78.7350   18.0620 H   0  0  0  0  0  0  0  0  0  0  0  0
   19.5210   79.0600   20.2590 C   0  0  0  0  0  0  0  0  0  0  0  0
   20.5560   78.9220   20.5720 H   0  0  0  0  0  0  0  0  0  0  0  0
   18.8690   78.4470   20.8810 H   0  0  0  0  0  0  0  0  0  0  0  0
   19.0480   80.4250   19.7730 C   0  0  1  0  0  0  0  0  0  0  0  0
   18.2480   81.1050   20.0670 H   0  0  0  0  0  0  0  0  0  0  0  0
   20.1190   81.5240   19.6620 C   0  0  0  0  0  0  0  0  0  0  0  0
   21.2800   81.3730   20.1460 O   0  0  0  0  0  0  0  0  0  0  0  0
   19.8260   82.6000   19.0820 O   0  0  0  0  0  0  0  0  0  0  0  0
  1 61  1  0  0  0  0
  2  3  1  0  0  0  0
  2  1  2  0  0  0  0
  4  2  1  0  0  0  0
  5  4  2  0  0  0  0
  5  6  1  0  0  0  0
  6  8  2  0  0  0  0
  7  6  1  0  0  0  0
  8  1  1  0  0  0  0
  8  9  1  0  0  0  0
 10 24  1  0  0  0  0
 10  5  1  0  0  0  0
 11 13  1  0  0  0  0
 11 10  1  0  0  0  0
 12 11  1  0  0  0  0
 14 15  1  0  0  0  0
 14 11  1  0  0  0  0
 16 14  1  0  0  0  0
 16 18  1  0  0  0  0
 17 16  1  0  0  0  0
 19 16  1  0  0  0  0
 20 23  1  0  0  0  0
 20 14  1  0  0  0  0
 21 20  1  0  0  0  0
 22 20  1  0  0  0  0
 24 26  1  0  0  0  0
 25 24  1  0  0  0  0
 26 29  1  0  0  0  0
 26 27  1  0  0  0  0
 26 28  1  0  0  0  0
 29 30  1  0  0  0  0
 31 29  1  0  0  0  0
 32 34  1  0  0  0  0
 32 33  1  0  0  0  0
 32 29  1  0  0  0  0
 35 32  1  0  0  0  0
 36 35  1  0  0  0  0
 37 35  1  0  0  0  0
 38 35  1  0  0  0  0
 38 40  1  0  0  0  0
 38 24  1  0  0  0  0
 39 38  1  0  0  0  0
 41  4  1  0  0  0  0
 42 41  1  0  0  0  0
 43 41  1  0  0  0  0
 43 60  2  0  0  0  0
 44 43  1  0  0  0  0
 45 44  1  0  0  0  0
 46 47  1  0  0  0  0
 46 44  1  0  0  0  0
 47 48  1  0  0  0  0
 49 50  1  0  0  0  0
 49 47  2  0  0  0  0
 51 49  1  0  0  0  0
 52 51  2  0  0  0  0
 52 54  1  0  0  0  0
 53 52  1  0  0  0  0
 54 46  2  0  0  0  0
 55 54  1  0  0  0  0
 56 57  1  0  0  0  0
 56 51  1  0  0  0  0
 56 59  1  0  0  0  0
 58 56  1  0  0  0  0
 61 62  1  6  0  0  0
 61 66  1  0  0  0  0
 61 63  1  0  0  0  0
 63 64  1  0  0  0  0
 63 65  1  0  0  0  0
 66 67  1  1  0  0  0
 66 63  1  0  0  0  0
 68 66  1  0  0  0  0
 68 69  1  0  0  0  0
 70 68  2  0  0  0  0
M  END
>  <Pose>
1

>  <Score>
-6.83

$$$$
