
 OpenBabel03102210523D

 70 73  0  0  1  0  0  0  0  0999 V2000
   22.0360   79.6220   12.2040 C   0  0  0  0  0  0  0  0  0  0  0  0
   21.5530   78.3810   12.6150 C   0  0  0  0  0  0  0  0  0  0  0  0
   21.1490   77.6870   11.8930 H   0  0  0  0  0  0  0  0  0  0  0  0
   21.5970   78.0450   13.9610 C   0  0  0  0  0  0  0  0  0  0  0  0
   22.2050   78.8950   14.8630 C   0  0  0  0  0  0  0  0  0  0  0  0
   22.6660   80.1450   14.4610 C   0  0  0  0  0  0  0  0  0  0  0  0
   23.0810   80.8280   15.1880 H   0  0  0  0  0  0  0  0  0  0  0  0
   22.5900   80.5130   13.1200 C   0  0  0  0  0  0  0  0  0  0  0  0
   22.9570   81.4750   12.7950 H   0  0  0  0  0  0  0  0  0  0  0  0
   22.2610   78.5370   16.3180 N   0  0  0  0  0  0  0  0  0  0  0  0
   23.5550   78.4670   17.0910 C   0  0  0  0  0  0  0  0  0  0  0  0
   23.5420   77.5780   17.7210 H   0  0  0  0  0  0  0  0  0  0  0  0
   23.6400   79.3560   17.7170 H   0  0  0  0  0  0  0  0  0  0  0  0
   24.7990   78.3970   16.1390 C   0  0  0  0  0  0  0  0  0  0  0  0
   24.6830   78.9810   15.2270 H   0  0  0  0  0  0  0  0  0  0  0  0
   26.0240   78.9660   16.9270 C   0  0  0  0  0  0  0  0  0  0  0  0
   26.1610   78.3970   17.8460 H   0  0  0  0  0  0  0  0  0  0  0  0
   25.8430   80.0130   17.1720 H   0  0  0  0  0  0  0  0  0  0  0  0
   26.9200   78.8860   16.3130 H   0  0  0  0  0  0  0  0  0  0  0  0
   24.9820   76.9250   15.7550 C   0  0  0  0  0  0  0  0  0  0  0  0
   25.0990   76.3250   16.6570 H   0  0  0  0  0  0  0  0  0  0  0  0
   25.8690   76.8200   15.1310 H   0  0  0  0  0  0  0  0  0  0  0  0
   24.1070   76.5820   15.2020 H   0  0  0  0  0  0  0  0  0  0  0  0
   20.9210   78.5420   17.0350 C   0  0  0  0  0  0  0  0  0  0  0  0
   20.0900   78.2140   16.4100 H   0  0  0  0  0  0  0  0  0  0  0  0
   20.8850   77.5600   18.2010 C   0  0  0  0  0  0  0  0  0  0  0  0
   21.7310   77.7440   18.8620 H   0  0  0  0  0  0  0  0  0  0  0  0
   20.9360   76.5390   17.8220 H   0  0  0  0  0  0  0  0  0  0  0  0
   19.5620   77.7620   18.9780 C   0  0  0  0  0  0  0  0  0  0  0  0
   19.5630   77.1150   19.8560 H   0  0  0  0  0  0  0  0  0  0  0  0
   18.7260   77.4960   18.3320 H   0  0  0  0  0  0  0  0  0  0  0  0
   19.4020   79.2210   19.4310 C   0  0  0  0  0  0  0  0  0  0  0  0
   20.1880   79.4490   20.1510 H   0  0  0  0  0  0  0  0  0  0  0  0
   18.4290   79.3300   19.9100 H   0  0  0  0  0  0  0  0  0  0  0  0
   19.4910   80.2290   18.2770 C   0  0  0  0  0  0  0  0  0  0  0  0
   19.4860   81.2420   18.6810 H   0  0  0  0  0  0  0  0  0  0  0  0
   18.6340   80.0980   17.6160 H   0  0  0  0  0  0  0  0  0  0  0  0
   20.7900   80.0050   17.4790 C   0  0  0  0  0  0  0  0  0  0  0  0
   20.7800   80.6460   16.5970 H   0  0  0  0  0  0  0  0  0  0  0  0
   21.6420   80.2640   18.1070 H   0  0  0  0  0  0  0  0  0  0  0  0
   21.1800   76.7270   14.4110 N   0  0  0  0  0  0  0  0  0  0  0  0
   21.5460   76.3730   15.2840 H   0  0  0  0  0  0  0  0  0  0  0  0
   20.2580   75.9040   13.6550 C   0  0  0  0  0  0  0  0  0  0  0  0
   20.0610   74.5950   14.2540 N   0  0  0  0  0  0  0  0  0  0  0  0
   20.5470   74.3380   15.1010 H   0  0  0  0  0  0  0  0  0  0  0  0
   19.1490   73.6620   13.6070 C   0  0  0  0  0  0  0  0  0  0  0  0
   19.6120   72.3640   13.4020 C   0  0  0  0  0  0  0  0  0  0  0  0
   20.6000   72.0800   13.7320 H   0  0  0  0  0  0  0  0  0  0  0  0
   18.7920   71.4370   12.7710 C   0  0  0  0  0  0  0  0  0  0  0  0
   19.1230   70.4230   12.6010 H   0  0  0  0  0  0  0  0  0  0  0  0
   17.5250   71.8580   12.3630 C   0  0  0  0  0  0  0  0  0  0  0  0
   17.0810   73.1590   12.5640 C   0  0  0  0  0  0  0  0  0  0  0  0
   16.0980   73.4500   12.2260 H   0  0  0  0  0  0  0  0  0  0  0  0
   17.8920   74.0820   13.1940 C   0  0  0  0  0  0  0  0  0  0  0  0
   17.5600   75.0960   13.3600 H   0  0  0  0  0  0  0  0  0  0  0  0
   16.5930   70.8500   11.6580 C   0  0  0  0  0  0  0  0  0  0  0  0
   17.0940   69.8850   11.5830 H   0  0  0  0  0  0  0  0  0  0  0  0
   16.3540   71.2140   10.6590 H   0  0  0  0  0  0  0  0  0  0  0  0
   15.6750   70.7400   12.2350 H   0  0  0  0  0  0  0  0  0  0  0  0
   19.7010   76.3110   12.6810 O   0  0  0  0  0  0  0  0  0  0  0  0
   21.9480   80.0210   10.7050 C   0  0  1  0  0  0  0  0  0  0  0  0
   22.8410   80.5420   11.0480 H   0  0  0  0  0  0  0  0  0  0  0  0
   21.6110   79.2170    9.4450 C   0  0  0  0  0  0  0  0  0  0  0  0
   21.2970   78.1770    9.5300 H   0  0  0  0  0  0  0  0  0  0  0  0
   22.2090   79.3440    8.5420 H   0  0  0  0  0  0  0  0  0  0  0  0
   20.6810   80.3340    9.9050 C   0  0  1  0  0  0  0  0  0  0  0  0
   20.2590   81.2210    9.4310 H   0  0  0  0  0  0  0  0  0  0  0  0
   19.3620   79.9010   10.5670 C   0  0  0  0  0  0  0  0  0  0  0  0
   18.9090   78.7240   10.4410 O   0  0  0  0  0  0  0  0  0  0  0  0
   18.7180   80.7410   11.2450 O   0  0  0  0  0  0  0  0  0  0  0  0
  1  2  2  0  0  0  0
  1  8  1  0  0  0  0
  2  4  1  0  0  0  0
  3  2  1  0  0  0  0
  4 41  1  0  0  0  0
  4  5  2  0  0  0  0
  5 10  1  0  0  0  0
  6  5  1  0  0  0  0
  6  7  1  0  0  0  0
  8  6  2  0  0  0  0
  9  8  1  0  0  0  0
 10 24  1  0  0  0  0
 10 11  1  0  0  0  0
 11 13  1  0  0  0  0
 11 12  1  0  0  0  0
 14 16  1  0  0  0  0
 14 11  1  0  0  0  0
 15 14  1  0  0  0  0
 16 18  1  0  0  0  0
 16 17  1  0  0  0  0
 19 16  1  0  0  0  0
 20 14  1  0  0  0  0
 20 21  1  0  0  0  0
 22 20  1  0  0  0  0
 23 20  1  0  0  0  0
 24 38  1  0  0  0  0
 24 26  1  0  0  0  0
 25 24  1  0  0  0  0
 26 27  1  0  0  0  0
 26 29  1  0  0  0  0
 28 26  1  0  0  0  0
 29 32  1  0  0  0  0
 29 30  1  0  0  0  0
 31 29  1  0  0  0  0
 32 34  1  0  0  0  0
 32 33  1  0  0  0  0
 35 36  1  0  0  0  0
 35 32  1  0  0  0  0
 37 35  1  0  0  0  0
 38 40  1  0  0  0  0
 38 35  1  0  0  0  0
 39 38  1  0  0  0  0
 41 42  1  0  0  0  0
 43 44  1  0  0  0  0
 43 41  1  0  0  0  0
 44 45  1  0  0  0  0
 46 44  1  0  0  0  0
 47 46  1  0  0  0  0
 47 48  1  0  0  0  0
 49 47  2  0  0  0  0
 50 49  1  0  0  0  0
 51 52  2  0  0  0  0
 51 49  1  0  0  0  0
 52 54  1  0  0  0  0
 53 52  1  0  0  0  0
 54 55  1  0  0  0  0
 54 46  2  0  0  0  0
 56 59  1  0  0  0  0
 56 51  1  0  0  0  0
 57 56  1  0  0  0  0
 58 56  1  0  0  0  0
 60 43  2  0  0  0  0
 61 62  1  6  0  0  0
 61  1  1  0  0  0  0
 63 64  1  0  0  0  0
 63 66  1  0  0  0  0
 63 61  1  0  0  0  0
 65 63  1  0  0  0  0
 66 67  1  6  0  0  0
 66 68  1  0  0  0  0
 66 61  1  0  0  0  0
 68 70  1  0  0  0  0
 69 68  2  0  0  0  0
M  END
>  <Pose>
8

>  <Score>
-8.80

$$$$

 OpenBabel03102210523D

 70 73  0  0  1  0  0  0  0  0999 V2000
   20.1540   79.1750   17.4950 C   0  0  0  0  0  0  0  0  0  0  0  0
   20.2890   77.9590   16.8270 C   0  0  0  0  0  0  0  0  0  0  0  0
   19.6950   77.1070   17.1200 H   0  0  0  0  0  0  0  0  0  0  0  0
   21.1940   77.8550   15.7810 C   0  0  0  0  0  0  0  0  0  0  0  0
   21.8770   78.9740   15.3470 C   0  0  0  0  0  0  0  0  0  0  0  0
   21.7630   80.1830   16.0270 C   0  0  0  0  0  0  0  0  0  0  0  0
   22.3510   81.0340   15.7180 H   0  0  0  0  0  0  0  0  0  0  0  0
   20.8900   80.2910   17.1060 C   0  0  0  0  0  0  0  0  0  0  0  0
   20.7840   81.2280   17.6330 H   0  0  0  0  0  0  0  0  0  0  0  0
   22.8530   78.8710   14.2140 N   0  0  0  0  0  0  0  0  0  0  0  0
   24.3030   78.5050   14.4160 C   0  0  0  0  0  0  0  0  0  0  0  0
   24.8890   79.4200   14.5020 H   0  0  0  0  0  0  0  0  0  0  0  0
   24.6460   77.9330   13.5540 H   0  0  0  0  0  0  0  0  0  0  0  0
   24.5100   77.6450   15.7110 C   0  0  0  0  0  0  0  0  0  0  0  0
   23.5800   77.3930   16.2200 H   0  0  0  0  0  0  0  0  0  0  0  0
   25.2050   76.3120   15.2810 C   0  0  0  0  0  0  0  0  0  0  0  0
   26.1400   76.5380   14.7690 H   0  0  0  0  0  0  0  0  0  0  0  0
   24.5480   75.7600   14.6100 H   0  0  0  0  0  0  0  0  0  0  0  0
   25.4120   75.7090   16.1650 H   0  0  0  0  0  0  0  0  0  0  0  0
   25.3760   78.4770   16.6640 C   0  0  0  0  0  0  0  0  0  0  0  0
   26.3120   78.7390   16.1690 H   0  0  0  0  0  0  0  0  0  0  0  0
   25.5890   77.8970   17.5610 H   0  0  0  0  0  0  0  0  0  0  0  0
   24.8430   79.3880   16.9380 H   0  0  0  0  0  0  0  0  0  0  0  0
   22.2310   78.8630   12.8260 C   0  0  0  0  0  0  0  0  0  0  0  0
   21.5840   78.0050   12.6440 H   0  0  0  0  0  0  0  0  0  0  0  0
   21.3010   80.0510   12.6030 C   0  0  0  0  0  0  0  0  0  0  0  0
   21.8260   80.9770   12.8370 H   0  0  0  0  0  0  0  0  0  0  0  0
   20.4250   79.9580   13.2450 H   0  0  0  0  0  0  0  0  0  0  0  0
   20.8610   80.0630   11.1190 C   0  0  0  0  0  0  0  0  0  0  0  0
   20.2570   80.9510   10.9340 H   0  0  0  0  0  0  0  0  0  0  0  0
   20.2680   79.1710   10.9170 H   0  0  0  0  0  0  0  0  0  0  0  0
   22.0770   80.0790   10.1790 C   0  0  0  0  0  0  0  0  0  0  0  0
   22.6110   81.0180   10.3210 H   0  0  0  0  0  0  0  0  0  0  0  0
   21.7200   80.0160    9.1510 H   0  0  0  0  0  0  0  0  0  0  0  0
   23.0530   78.9210   10.4280 C   0  0  0  0  0  0  0  0  0  0  0  0
   23.9410   79.0590    9.8110 H   0  0  0  0  0  0  0  0  0  0  0  0
   22.5710   77.9790   10.1640 H   0  0  0  0  0  0  0  0  0  0  0  0
   23.4630   78.8850   11.9120 C   0  0  0  0  0  0  0  0  0  0  0  0
   24.0580   77.9900   12.0960 H   0  0  0  0  0  0  0  0  0  0  0  0
   24.0580   79.7690   12.1390 H   0  0  0  0  0  0  0  0  0  0  0  0
   21.2980   76.6280   15.0080 N   0  0  0  0  0  0  0  0  0  0  0  0
   22.2100   76.3270   14.6930 H   0  0  0  0  0  0  0  0  0  0  0  0
   20.1430   75.8200   14.6740 C   0  0  0  0  0  0  0  0  0  0  0  0
   20.4790   74.6940   13.8210 N   0  0  0  0  0  0  0  0  0  0  0  0
   21.4310   74.5430   13.5170 H   0  0  0  0  0  0  0  0  0  0  0  0
   19.4160   73.7850   13.4130 C   0  0  0  0  0  0  0  0  0  0  0  0
   19.6590   72.4200   13.5580 C   0  0  0  0  0  0  0  0  0  0  0  0
   20.5950   72.0750   13.9730 H   0  0  0  0  0  0  0  0  0  0  0  0
   18.6890   71.5080   13.1660 C   0  0  0  0  0  0  0  0  0  0  0  0
   18.8490   70.4450   13.2690 H   0  0  0  0  0  0  0  0  0  0  0  0
   17.4990   72.0080   12.6340 C   0  0  0  0  0  0  0  0  0  0  0  0
   17.2750   73.3710   12.4850 C   0  0  0  0  0  0  0  0  0  0  0  0
   16.3460   73.7200   12.0610 H   0  0  0  0  0  0  0  0  0  0  0  0
   18.2370   74.2820   12.8770 C   0  0  0  0  0  0  0  0  0  0  0  0
   18.0760   75.3440   12.7700 H   0  0  0  0  0  0  0  0  0  0  0  0
   16.4040   71.0170   12.1890 C   0  0  0  0  0  0  0  0  0  0  0  0
   16.7410   69.9970   12.3750 H   0  0  0  0  0  0  0  0  0  0  0  0
   16.2080   71.1470   11.1250 H   0  0  0  0  0  0  0  0  0  0  0  0
   15.4910   71.2070   12.7530 H   0  0  0  0  0  0  0  0  0  0  0  0
   19.0590   76.0560   15.1150 O   0  0  0  0  0  0  0  0  0  0  0  0
   19.1740   79.2840   18.6980 C   0  0  1  0  0  0  0  0  0  0  0  0
   18.6000   78.7240   17.9600 H   0  0  0  0  0  0  0  0  0  0  0  0
   19.3810   79.1390   20.2090 C   0  0  0  0  0  0  0  0  0  0  0  0
   20.3840   78.9980   20.6110 H   0  0  0  0  0  0  0  0  0  0  0  0
   18.6680   78.5680   20.8040 H   0  0  0  0  0  0  0  0  0  0  0  0
   18.9770   80.4870   19.6230 C   0  0  1  0  0  0  0  0  0  0  0  0
   18.1710   81.1940   19.8180 H   0  0  0  0  0  0  0  0  0  0  0  0
   20.0770   81.5610   19.5480 C   0  0  0  0  0  0  0  0  0  0  0  0
   21.2340   81.3620   20.0260 O   0  0  0  0  0  0  0  0  0  0  0  0
   19.8140   82.6620   19.0030 O   0  0  0  0  0  0  0  0  0  0  0  0
  1 61  1  0  0  0  0
  2  3  1  0  0  0  0
  2  1  2  0  0  0  0
  4  2  1  0  0  0  0
  5  4  2  0  0  0  0
  5  6  1  0  0  0  0
  6  8  2  0  0  0  0
  7  6  1  0  0  0  0
  8  1  1  0  0  0  0
  8  9  1  0  0  0  0
 10 11  1  0  0  0  0
 10  5  1  0  0  0  0
 11 12  1  0  0  0  0
 11 14  1  0  0  0  0
 13 11  1  0  0  0  0
 14 15  1  0  0  0  0
 14 20  1  0  0  0  0
 16 14  1  0  0  0  0
 16 19  1  0  0  0  0
 17 16  1  0  0  0  0
 18 16  1  0  0  0  0
 20 23  1  0  0  0  0
 20 22  1  0  0  0  0
 21 20  1  0  0  0  0
 24 10  1  0  0  0  0
 25 24  1  0  0  0  0
 26 24  1  0  0  0  0
 26 27  1  0  0  0  0
 26 28  1  0  0  0  0
 29 26  1  0  0  0  0
 30 29  1  0  0  0  0
 31 29  1  0  0  0  0
 32 33  1  0  0  0  0
 32 35  1  0  0  0  0
 32 29  1  0  0  0  0
 34 32  1  0  0  0  0
 35 38  1  0  0  0  0
 36 35  1  0  0  0  0
 37 35  1  0  0  0  0
 38 39  1  0  0  0  0
 38 40  1  0  0  0  0
 38 24  1  0  0  0  0
 41  4  1  0  0  0  0
 42 41  1  0  0  0  0
 43 41  1  0  0  0  0
 43 60  2  0  0  0  0
 44 43  1  0  0  0  0
 45 44  1  0  0  0  0
 46 47  1  0  0  0  0
 46 44  1  0  0  0  0
 47 48  1  0  0  0  0
 49 50  1  0  0  0  0
 49 47  2  0  0  0  0
 51 49  1  0  0  0  0
 52 51  2  0  0  0  0
 52 54  1  0  0  0  0
 53 52  1  0  0  0  0
 54 46  2  0  0  0  0
 55 54  1  0  0  0  0
 56 57  1  0  0  0  0
 56 51  1  0  0  0  0
 56 59  1  0  0  0  0
 58 56  1  0  0  0  0
 61 62  1  6  0  0  0
 61 66  1  0  0  0  0
 61 63  1  0  0  0  0
 63 64  1  0  0  0  0
 63 65  1  0  0  0  0
 66 67  1  1  0  0  0
 66 63  1  0  0  0  0
 68 66  1  0  0  0  0
 68 69  1  0  0  0  0
 70 68  2  0  0  0  0
M  END
>  <Pose>
1

>  <Score>
-7.94

$$$$

 OpenBabel03102210523D

 70 73  0  0  1  0  0  0  0  0999 V2000
   20.1460   79.2680   17.7780 C   0  0  0  0  0  0  0  0  0  0  0  0
   20.3720   78.0850   17.0760 C   0  0  0  0  0  0  0  0  0  0  0  0
   19.8850   77.1700   17.3790 H   0  0  0  0  0  0  0  0  0  0  0  0
   21.2280   78.0950   15.9850 C   0  0  0  0  0  0  0  0  0  0  0  0
   21.7680   79.2860   15.5440 C   0  0  0  0  0  0  0  0  0  0  0  0
   21.5660   80.4640   16.2550 C   0  0  0  0  0  0  0  0  0  0  0  0
   22.0460   81.3780   15.9380 H   0  0  0  0  0  0  0  0  0  0  0  0
   20.7420   80.4620   17.3780 C   0  0  0  0  0  0  0  0  0  0  0  0
   20.5670   81.3730   17.9310 H   0  0  0  0  0  0  0  0  0  0  0  0
   22.6900   79.3050   14.3620 N   0  0  0  0  0  0  0  0  0  0  0  0
   24.0770   78.7110   14.3990 C   0  0  0  0  0  0  0  0  0  0  0  0
   24.8080   79.5160   14.3270 H   0  0  0  0  0  0  0  0  0  0  0  0
   24.1940   78.0360   13.5510 H   0  0  0  0  0  0  0  0  0  0  0  0
   24.3320   77.9110   15.7230 C   0  0  0  0  0  0  0  0  0  0  0  0
   23.4260   77.7210   16.2990 H   0  0  0  0  0  0  0  0  0  0  0  0
   24.9490   76.5300   15.3240 C   0  0  0  0  0  0  0  0  0  0  0  0
   25.8590   76.6920   14.7460 H   0  0  0  0  0  0  0  0  0  0  0  0
   24.2310   75.9710   14.7230 H   0  0  0  0  0  0  0  0  0  0  0  0
   25.1870   75.9640   16.2250 H   0  0  0  0  0  0  0  0  0  0  0  0
   25.2840   78.7540   16.5770 C   0  0  0  0  0  0  0  0  0  0  0  0
   26.1970   78.9530   16.0150 H   0  0  0  0  0  0  0  0  0  0  0  0
   25.5310   78.2120   17.4900 H   0  0  0  0  0  0  0  0  0  0  0  0
   24.8030   79.6980   16.8330 H   0  0  0  0  0  0  0  0  0  0  0  0
   22.0390   79.6890   13.0430 C   0  0  0  0  0  0  0  0  0  0  0  0
   21.1030   80.2350   13.1610 H   0  0  0  0  0  0  0  0  0  0  0  0
   22.9000   80.6520   12.2310 C   0  0  0  0  0  0  0  0  0  0  0  0
   23.9030   80.2390   12.1160 H   0  0  0  0  0  0  0  0  0  0  0  0
   22.9590   81.6120   12.7430 H   0  0  0  0  0  0  0  0  0  0  0  0
   22.2520   80.8420   10.8390 C   0  0  0  0  0  0  0  0  0  0  0  0
   22.9010   81.4690   10.2280 H   0  0  0  0  0  0  0  0  0  0  0  0
   21.2850   81.3290   10.9610 H   0  0  0  0  0  0  0  0  0  0  0  0
   22.0480   79.4930   10.1320 C   0  0  0  0  0  0  0  0  0  0  0  0
   23.0270   79.0570    9.9300 H   0  0  0  0  0  0  0  0  0  0  0  0
   21.5280   79.6700    9.1910 H   0  0  0  0  0  0  0  0  0  0  0  0
   21.2310   78.4900   10.9590 C   0  0  0  0  0  0  0  0  0  0  0  0
   21.2250   77.5250   10.4530 H   0  0  0  0  0  0  0  0  0  0  0  0
   20.2080   78.8550   11.0590 H   0  0  0  0  0  0  0  0  0  0  0  0
   21.8530   78.3280   12.3590 C   0  0  0  0  0  0  0  0  0  0  0  0
   21.1970   77.7090   12.9700 H   0  0  0  0  0  0  0  0  0  0  0  0
   22.8240   77.8420   12.2620 H   0  0  0  0  0  0  0  0  0  0  0  0
   21.4190   76.8990   15.1800 N   0  0  0  0  0  0  0  0  0  0  0  0
   22.3530   76.6590   14.8790 H   0  0  0  0  0  0  0  0  0  0  0  0
   20.3190   76.0390   14.7950 C   0  0  0  0  0  0  0  0  0  0  0  0
   20.7380   74.9580   13.9190 N   0  0  0  0  0  0  0  0  0  0  0  0
   21.7030   74.8700   13.6340 H   0  0  0  0  0  0  0  0  0  0  0  0
   19.7370   74.0040   13.4590 C   0  0  0  0  0  0  0  0  0  0  0  0
   18.6880   74.5070   12.6920 C   0  0  0  0  0  0  0  0  0  0  0  0
   18.6480   75.5590   12.4480 H   0  0  0  0  0  0  0  0  0  0  0  0
   17.6950   73.6470   12.2450 C   0  0  0  0  0  0  0  0  0  0  0  0
   16.8710   74.0090   11.6470 H   0  0  0  0  0  0  0  0  0  0  0  0
   17.7950   72.2980   12.5920 C   0  0  0  0  0  0  0  0  0  0  0  0
   18.8400   71.8130   13.3660 C   0  0  0  0  0  0  0  0  0  0  0  0
   18.8780   70.7640   13.6220 H   0  0  0  0  0  0  0  0  0  0  0  0
   19.8320   72.6650   13.8110 C   0  0  0  0  0  0  0  0  0  0  0  0
   20.6530   72.3020   14.4110 H   0  0  0  0  0  0  0  0  0  0  0  0
   16.7040   71.3200   12.1090 C   0  0  0  0  0  0  0  0  0  0  0  0
   15.9650   71.8620   11.5190 H   0  0  0  0  0  0  0  0  0  0  0  0
   16.2170   70.8640   12.9720 H   0  0  0  0  0  0  0  0  0  0  0  0
   17.1590   70.5420   11.4960 H   0  0  0  0  0  0  0  0  0  0  0  0
   19.2140   76.2010   15.2150 O   0  0  0  0  0  0  0  0  0  0  0  0
   19.2230   79.2540   19.0290 C   0  0  1  0  0  0  0  0  0  0  0  0
   18.5510   78.9640   18.2210 H   0  0  0  0  0  0  0  0  0  0  0  0
   19.4380   78.7470   20.4590 C   0  0  0  0  0  0  0  0  0  0  0  0
   20.4140   78.3710   20.7630 H   0  0  0  0  0  0  0  0  0  0  0  0
   18.6560   78.1720   20.9560 H   0  0  0  0  0  0  0  0  0  0  0  0
   19.2410   80.2360   20.2020 C   0  0  1  0  0  0  0  0  0  0  0  0
   18.5620   80.9960   20.5910 H   0  0  0  0  0  0  0  0  0  0  0  0
   20.4950   81.1220   20.2980 C   0  0  0  0  0  0  0  0  0  0  0  0
   21.5570   80.7130   20.8570 O   0  0  0  0  0  0  0  0  0  0  0  0
   20.4580   82.2820   19.8140 O   0  0  0  0  0  0  0  0  0  0  0  0
  1 61  1  0  0  0  0
  2  3  1  0  0  0  0
  2  1  2  0  0  0  0
  4  2  1  0  0  0  0
  5  4  2  0  0  0  0
  5  6  1  0  0  0  0
  6  8  2  0  0  0  0
  7  6  1  0  0  0  0
  8  1  1  0  0  0  0
  8  9  1  0  0  0  0
 10 11  1  0  0  0  0
 10  5  1  0  0  0  0
 11 14  1  0  0  0  0
 12 11  1  0  0  0  0
 13 11  1  0  0  0  0
 14 15  1  0  0  0  0
 14 20  1  0  0  0  0
 16 14  1  0  0  0  0
 16 19  1  0  0  0  0
 17 16  1  0  0  0  0
 18 16  1  0  0  0  0
 20 23  1  0  0  0  0
 20 22  1  0  0  0  0
 21 20  1  0  0  0  0
 24 25  1  0  0  0  0
 24 10  1  0  0  0  0
 26 28  1  0  0  0  0
 26 24  1  0  0  0  0
 27 26  1  0  0  0  0
 29 31  1  0  0  0  0
 29 26  1  0  0  0  0
 30 29  1  0  0  0  0
 32 29  1  0  0  0  0
 32 35  1  0  0  0  0
 33 32  1  0  0  0  0
 34 32  1  0  0  0  0
 35 37  1  0  0  0  0
 35 38  1  0  0  0  0
 36 35  1  0  0  0  0
 38 39  1  0  0  0  0
 38 24  1  0  0  0  0
 40 38  1  0  0  0  0
 41  4  1  0  0  0  0
 42 41  1  0  0  0  0
 43 41  1  0  0  0  0
 43 60  2  0  0  0  0
 44 43  1  0  0  0  0
 45 44  1  0  0  0  0
 46 54  1  0  0  0  0
 46 44  1  0  0  0  0
 47 46  2  0  0  0  0
 48 47  1  0  0  0  0
 49 51  2  0  0  0  0
 49 47  1  0  0  0  0
 50 49  1  0  0  0  0
 51 52  1  0  0  0  0
 52 53  1  0  0  0  0
 52 54  2  0  0  0  0
 54 55  1  0  0  0  0
 56 51  1  0  0  0  0
 56 58  1  0  0  0  0
 57 56  1  0  0  0  0
 59 56  1  0  0  0  0
 61 62  1  6  0  0  0
 61 66  1  0  0  0  0
 61 63  1  0  0  0  0
 63 64  1  0  0  0  0
 63 65  1  0  0  0  0
 66 68  1  0  0  0  0
 66 63  1  0  0  0  0
 66 67  1  1  0  0  0
 68 69  1  0  0  0  0
 70 68  2  0  0  0  0
M  END
>  <Pose>
1

>  <Score>
-7.72

$$$$
