
 OpenBabel03112215143D

 49 52  0  0  1  0  0  0  0  0999 V2000
  -10.1110   11.0070  -17.2990 C   0  0  0  0  0  0  0  0  0  0  0  0
  -10.3390   10.3340  -18.1130 H   0  0  0  0  0  0  0  0  0  0  0  0
  -10.8390   12.1920  -17.1860 C   0  0  0  0  0  0  0  0  0  0  0  0
  -11.6070   12.4250  -17.9080 H   0  0  0  0  0  0  0  0  0  0  0  0
  -10.5730   13.0850  -16.1310 C   0  0  0  0  0  0  0  0  0  0  0  0
   -9.1010   10.6580  -16.4010 C   0  0  0  0  0  0  0  0  0  0  0  0
   -8.5380    9.7430  -16.5110 H   0  0  0  0  0  0  0  0  0  0  0  0
   -8.8490   11.5520  -15.3490 C   0  0  0  0  0  0  0  0  0  0  0  0
   -9.5820   12.7270  -15.2120 C   0  0  0  0  0  0  0  0  0  0  0  0
   -9.1800   13.4070  -14.1030 N   0  0  0  0  0  0  0  0  0  0  0  0
   -9.5520   14.2920  -13.7910 H   0  0  0  0  0  0  0  0  0  0  0  0
   -8.2210   12.7170  -13.4960 C   0  0  0  0  0  0  0  0  0  0  0  0
   -7.7290   13.0250  -12.5860 H   0  0  0  0  0  0  0  0  0  0  0  0
   -7.9440   11.5830  -14.1680 C   0  0  0  0  0  0  0  0  0  0  0  0
  -11.2370   14.2820  -15.9550 O   0  0  0  0  0  0  0  0  0  0  0  0
  -12.1330   14.7150  -16.9980 C   0  0  0  0  0  0  0  0  0  0  0  0
  -12.5810   15.6700  -16.7200 H   0  0  0  0  0  0  0  0  0  0  0  0
  -12.9190   13.9720  -17.1350 H   0  0  0  0  0  0  0  0  0  0  0  0
  -11.5780   14.8320  -17.9290 H   0  0  0  0  0  0  0  0  0  0  0  0
   -6.9670   10.5430  -13.8210 C   0  0  0  0  0  0  0  0  0  0  0  0
   -6.3310    9.9360  -14.8520 N   0  0  0  0  0  0  0  0  0  0  0  0
   -6.5140   10.2370  -15.7990 H   0  0  0  0  0  0  0  0  0  0  0  0
   -6.7660   10.2280  -12.6460 O   0  0  0  0  0  0  0  0  0  0  0  0
   -5.3850    8.8550  -14.6090 C   0  0  2  0  0  0  0  0  0  0  0  0
   -5.8700    8.2810  -13.8190 H   0  0  0  0  0  0  0  0  0  0  0  0
   -3.9830    9.3010  -14.1660 C   0  0  0  0  0  0  0  0  0  0  0  0
   -3.9370    9.4400  -13.0860 H   0  0  0  0  0  0  0  0  0  0  0  0
   -3.6870   10.2240  -14.6640 H   0  0  0  0  0  0  0  0  0  0  0  0
   -3.1490    8.1780  -14.5920 N   0  0  0  0  0  0  0  0  0  0  0  0
   -3.8190    7.3090  -15.5590 C   0  0  0  0  0  0  0  0  0  0  0  0
   -4.0480    6.3390  -15.1160 H   0  0  0  0  0  0  0  0  0  0  0  0
   -3.2020    7.1660  -16.4460 H   0  0  0  0  0  0  0  0  0  0  0  0
   -5.1090    8.0730  -15.9040 C   0  0  0  0  0  0  0  0  0  0  0  0
   -4.9550    8.7470  -16.7460 H   0  0  0  0  0  0  0  0  0  0  0  0
   -5.9250    7.3870  -16.1320 H   0  0  0  0  0  0  0  0  0  0  0  0
   -1.9920    7.8130  -13.9540 C   0  0  0  0  0  0  0  0  0  0  0  0
   -1.5080    6.5010  -14.0440 C   0  0  0  0  0  0  0  0  0  0  0  0
   -2.0500    5.7810  -14.6400 H   0  0  0  0  0  0  0  0  0  0  0  0
   -0.3510    6.0980  -13.3880 C   0  0  0  0  0  0  0  0  0  0  0  0
    0.0060    5.0850  -13.4960 H   0  0  0  0  0  0  0  0  0  0  0  0
    0.3470    7.0010  -12.5920 C   0  0  0  0  0  0  0  0  0  0  0  0
   -0.1160    8.3120  -12.4960 C   0  0  0  0  0  0  0  0  0  0  0  0
    0.4270    9.0230  -11.8910 H   0  0  0  0  0  0  0  0  0  0  0  0
   -1.2660    8.7220  -13.1660 C   0  0  0  0  0  0  0  0  0  0  0  0
   -1.6020    9.7450  -13.0800 H   0  0  0  0  0  0  0  0  0  0  0  0
    1.6130    6.5640  -11.8600 C   0  0  0  0  0  0  0  0  0  0  0  0
    1.8040    5.5100  -12.0610 H   0  0  0  0  0  0  0  0  0  0  0  0
    1.4820    6.7120  -10.7880 H   0  0  0  0  0  0  0  0  0  0  0  0
    2.4570    7.1600  -12.2080 H   0  0  0  0  0  0  0  0  0  0  0  0
  1  3  2  0  0  0  0
  1  6  1  0  0  0  0
  2  1  1  0  0  0  0
  3  5  1  0  0  0  0
  4  3  1  0  0  0  0
  5 15  1  0  0  0  0
  5  9  2  0  0  0  0
  6  8  2  0  0  0  0
  7  6  1  0  0  0  0
  8  9  1  0  0  0  0
  8 14  1  0  0  0  0
  9 10  1  0  0  0  0
 10 11  1  0  0  0  0
 10 12  1  0  0  0  0
 12 13  1  0  0  0  0
 14 20  1  0  0  0  0
 14 12  2  0  0  0  0
 16 17  1  0  0  0  0
 16 15  1  0  0  0  0
 18 16  1  0  0  0  0
 19 16  1  0  0  0  0
 20 23  2  0  0  0  0
 21 24  1  0  0  0  0
 21 20  1  0  0  0  0
 22 21  1  0  0  0  0
 24 26  1  0  0  0  0
 24 25  1  1  0  0  0
 26 27  1  0  0  0  0
 28 26  1  0  0  0  0
 29 26  1  0  0  0  0
 29 36  1  0  0  0  0
 30 31  1  0  0  0  0
 30 29  1  0  0  0  0
 32 30  1  0  0  0  0
 33 30  1  0  0  0  0
 33 24  1  0  0  0  0
 34 33  1  0  0  0  0
 35 33  1  0  0  0  0
 36 44  1  0  0  0  0
 37 36  2  0  0  0  0
 37 39  1  0  0  0  0
 38 37  1  0  0  0  0
 39 41  2  0  0  0  0
 40 39  1  0  0  0  0
 41 42  1  0  0  0  0
 41 46  1  0  0  0  0
 42 43  1  0  0  0  0
 44 45  1  0  0  0  0
 44 42  2  0  0  0  0
 46 48  1  0  0  0  0
 47 46  1  0  0  0  0
 49 46  1  0  0  0  0
M  END
>  <Pose>
1

>  <Score>
-9.20

$$$$

 OpenBabel03112215143D

 49 52  0  0  1  0  0  0  0  0999 V2000
   -2.4210   19.6850   -9.8820 C   0  0  0  0  0  0  0  0  0  0  0  0
   -1.8350   19.9550   -9.0160 H   0  0  0  0  0  0  0  0  0  0  0  0
   -3.6780   20.2670  -10.0500 C   0  0  0  0  0  0  0  0  0  0  0  0
   -4.0500   20.9660   -9.3160 H   0  0  0  0  0  0  0  0  0  0  0  0
   -4.4620   19.9440  -11.1730 C   0  0  0  0  0  0  0  0  0  0  0  0
   -1.8920   18.7670  -10.7920 C   0  0  0  0  0  0  0  0  0  0  0  0
   -0.9220   18.3160  -10.6410 H   0  0  0  0  0  0  0  0  0  0  0  0
   -2.6780   18.4580  -11.9120 C   0  0  0  0  0  0  0  0  0  0  0  0
   -3.9250   19.0470  -12.1020 C   0  0  0  0  0  0  0  0  0  0  0  0
   -4.4760   18.6180  -13.2700 N   0  0  0  0  0  0  0  0  0  0  0  0
   -5.3800   18.8940  -13.6280 H   0  0  0  0  0  0  0  0  0  0  0  0
   -3.6350   17.7800  -13.8640 C   0  0  0  0  0  0  0  0  0  0  0  0
   -3.8210   17.2960  -14.8120 H   0  0  0  0  0  0  0  0  0  0  0  0
   -2.5210   17.6120  -13.1270 C   0  0  0  0  0  0  0  0  0  0  0  0
   -5.7190   20.4650  -11.4050 O   0  0  0  0  0  0  0  0  0  0  0  0
   -6.3130   21.2770  -10.3730 C   0  0  0  0  0  0  0  0  0  0  0  0
   -7.2970   21.6140  -10.6980 H   0  0  0  0  0  0  0  0  0  0  0  0
   -5.6780   22.1420  -10.1810 H   0  0  0  0  0  0  0  0  0  0  0  0
   -6.4130   20.6900   -9.4610 H   0  0  0  0  0  0  0  0  0  0  0  0
   -1.3470   16.7870  -13.4380 C   0  0  0  0  0  0  0  0  0  0  0  0
   -0.7620   16.1430  -12.3990 N   0  0  0  0  0  0  0  0  0  0  0  0
   -1.1630   16.2170  -11.4750 H   0  0  0  0  0  0  0  0  0  0  0  0
   -0.9100   16.7150  -14.5890 O   0  0  0  0  0  0  0  0  0  0  0  0
    0.4400   15.3440  -12.6020 C   0  0  2  0  0  0  0  0  0  0  0  0
    0.9000   15.8140  -13.4720 H   0  0  0  0  0  0  0  0  0  0  0  0
    0.1960   13.8510  -12.8640 C   0  0  0  0  0  0  0  0  0  0  0  0
    0.0210   13.6590  -13.9220 H   0  0  0  0  0  0  0  0  0  0  0  0
   -0.6500   13.4820  -12.2830 H   0  0  0  0  0  0  0  0  0  0  0  0
    1.4490   13.2450  -12.4170 N   0  0  0  0  0  0  0  0  0  0  0  0
    2.2460   14.1430  -11.5800 C   0  0  0  0  0  0  0  0  0  0  0  0
    3.1500   14.4600  -12.1010 H   0  0  0  0  0  0  0  0  0  0  0  0
    2.5180   13.6610  -10.6410 H   0  0  0  0  0  0  0  0  0  0  0  0
    1.3080   15.3390  -11.3330 C   0  0  0  0  0  0  0  0  0  0  0  0
    0.7010   15.1850  -10.4400 H   0  0  0  0  0  0  0  0  0  0  0  0
    1.8700   16.2670  -11.2350 H   0  0  0  0  0  0  0  0  0  0  0  0
    1.9600   12.0890  -12.9450 C   0  0  0  0  0  0  0  0  0  0  0  0
    3.3270   11.7960  -12.8430 C   0  0  0  0  0  0  0  0  0  0  0  0
    3.9740   12.4880  -12.3230 H   0  0  0  0  0  0  0  0  0  0  0  0
    3.8750   10.6430  -13.3910 C   0  0  0  0  0  0  0  0  0  0  0  0
    4.9290   10.4380  -13.2740 H   0  0  0  0  0  0  0  0  0  0  0  0
    3.0650    9.7530  -14.0890 C   0  0  0  0  0  0  0  0  0  0  0  0
    1.7020   10.0240  -14.1960 C   0  0  0  0  0  0  0  0  0  0  0  0
    1.0640    9.3320  -14.7250 H   0  0  0  0  0  0  0  0  0  0  0  0
    1.1480   11.1710  -13.6330 C   0  0  0  0  0  0  0  0  0  0  0  0
    0.0880   11.3570  -13.7250 H   0  0  0  0  0  0  0  0  0  0  0  0
    3.6600    8.4890  -14.7030 C   0  0  0  0  0  0  0  0  0  0  0  0
    4.7330    8.4620  -14.5120 H   0  0  0  0  0  0  0  0  0  0  0  0
    3.4830    8.4890  -15.7780 H   0  0  0  0  0  0  0  0  0  0  0  0
    3.1890    7.6120  -14.2570 H   0  0  0  0  0  0  0  0  0  0  0  0
  1  2  1  0  0  0  0
  3  1  1  0  0  0  0
  3  4  1  0  0  0  0
  5  3  2  0  0  0  0
  6  7  1  0  0  0  0
  6  1  2  0  0  0  0
  8  6  1  0  0  0  0
  9  8  2  0  0  0  0
  9  5  1  0  0  0  0
 10  9  1  0  0  0  0
 11 10  1  0  0  0  0
 12 10  1  0  0  0  0
 12 14  2  0  0  0  0
 13 12  1  0  0  0  0
 14  8  1  0  0  0  0
 15  5  1  0  0  0  0
 15 16  1  0  0  0  0
 16 18  1  0  0  0  0
 16 19  1  0  0  0  0
 17 16  1  0  0  0  0
 20 14  1  0  0  0  0
 20 21  1  0  0  0  0
 21 22  1  0  0  0  0
 23 20  2  0  0  0  0
 24 25  1  6  0  0  0
 24 21  1  0  0  0  0
 24 33  1  0  0  0  0
 26 24  1  0  0  0  0
 26 29  1  0  0  0  0
 26 28  1  0  0  0  0
 27 26  1  0  0  0  0
 29 30  1  0  0  0  0
 30 33  1  0  0  0  0
 30 32  1  0  0  0  0
 31 30  1  0  0  0  0
 33 35  1  0  0  0  0
 33 34  1  0  0  0  0
 36 37  1  0  0  0  0
 36 29  1  0  0  0  0
 37 38  1  0  0  0  0
 39 40  1  0  0  0  0
 39 37  2  0  0  0  0
 41 39  1  0  0  0  0
 42 41  2  0  0  0  0
 42 44  1  0  0  0  0
 43 42  1  0  0  0  0
 44 36  2  0  0  0  0
 45 44  1  0  0  0  0
 46 47  1  0  0  0  0
 46 49  1  0  0  0  0
 46 41  1  0  0  0  0
 48 46  1  0  0  0  0
M  END
>  <Pose>
9

>  <Score>
-9.03

$$$$
