
 OpenBabel03092210523D

 49 52  0  0  1  0  0  0  0  0999 V2000
   -2.2710   19.8760   -9.8810 C   0  0  0  0  0  0  0  0  0  0  0  0
   -1.6420   20.2010   -9.0650 H   0  0  0  0  0  0  0  0  0  0  0  0
   -3.5470   20.4260  -10.0050 C   0  0  0  0  0  0  0  0  0  0  0  0
   -3.8910   21.1570   -9.2870 H   0  0  0  0  0  0  0  0  0  0  0  0
   -4.3870   20.0310  -11.0620 C   0  0  0  0  0  0  0  0  0  0  0  0
   -1.7760   18.9210  -10.7720 C   0  0  0  0  0  0  0  0  0  0  0  0
   -0.7910   18.4950  -10.6540 H   0  0  0  0  0  0  0  0  0  0  0  0
   -2.6190   18.5400  -11.8270 C   0  0  0  0  0  0  0  0  0  0  0  0
   -3.8860   19.0960  -11.9730 C   0  0  0  0  0  0  0  0  0  0  0  0
   -4.4950   18.5960  -13.0840 N   0  0  0  0  0  0  0  0  0  0  0  0
   -5.4230   18.8370  -13.4020 H   0  0  0  0  0  0  0  0  0  0  0  0
   -3.6730   17.7420  -13.6820 C   0  0  0  0  0  0  0  0  0  0  0  0
   -3.9020   17.2070  -14.5910 H   0  0  0  0  0  0  0  0  0  0  0  0
   -2.5140   17.6330  -13.0030 C   0  0  0  0  0  0  0  0  0  0  0  0
   -5.6660   20.5170  -11.2470 O   0  0  0  0  0  0  0  0  0  0  0  0
   -6.1470   21.5150  -10.3260 C   0  0  0  0  0  0  0  0  0  0  0  0
   -7.1640   21.8000  -10.5970 H   0  0  0  0  0  0  0  0  0  0  0  0
   -5.5010   22.3920  -10.3700 H   0  0  0  0  0  0  0  0  0  0  0  0
   -6.1410   21.1100   -9.3140 H   0  0  0  0  0  0  0  0  0  0  0  0
   -1.3440   16.8130  -13.3390 C   0  0  0  0  0  0  0  0  0  0  0  0
   -0.7600   16.1370  -12.3200 N   0  0  0  0  0  0  0  0  0  0  0  0
   -1.1600   16.1860  -11.3940 H   0  0  0  0  0  0  0  0  0  0  0  0
   -0.9080   16.7730  -14.4920 O   0  0  0  0  0  0  0  0  0  0  0  0
    0.4390   15.3410  -12.5470 C   0  0  2  0  0  0  0  0  0  0  0  0
    0.9020   15.8370  -13.3990 H   0  0  0  0  0  0  0  0  0  0  0  0
    0.1890   13.8580  -12.8580 C   0  0  0  0  0  0  0  0  0  0  0  0
    0.0150   13.7020  -13.9230 H   0  0  0  0  0  0  0  0  0  0  0  0
   -0.6590   13.4730  -12.2920 H   0  0  0  0  0  0  0  0  0  0  0  0
    1.4390   13.2320  -12.4290 N   0  0  0  0  0  0  0  0  0  0  0  0
    2.2380   14.0990  -11.5620 C   0  0  0  0  0  0  0  0  0  0  0  0
    3.1440   14.4280  -12.0710 H   0  0  0  0  0  0  0  0  0  0  0  0
    2.5060   13.5850  -10.6390 H   0  0  0  0  0  0  0  0  0  0  0  0
    1.3050   15.2890  -11.2770 C   0  0  0  0  0  0  0  0  0  0  0  0
    0.6950   15.1090  -10.3910 H   0  0  0  0  0  0  0  0  0  0  0  0
    1.8710   16.2120  -11.1480 H   0  0  0  0  0  0  0  0  0  0  0  0
    1.9460   12.0920  -12.9950 C   0  0  0  0  0  0  0  0  0  0  0  0
    3.3090   11.7830  -12.8870 C   0  0  0  0  0  0  0  0  0  0  0  0
    3.9550   12.4470  -12.3330 H   0  0  0  0  0  0  0  0  0  0  0  0
    3.8530   10.6460  -13.4710 C   0  0  0  0  0  0  0  0  0  0  0  0
    4.9030   10.4260  -13.3500 H   0  0  0  0  0  0  0  0  0  0  0  0
    3.0440    9.7910  -14.2130 C   0  0  0  0  0  0  0  0  0  0  0  0
    1.6850   10.0790  -14.3270 C   0  0  0  0  0  0  0  0  0  0  0  0
    1.0470    9.4130  -14.8890 H   0  0  0  0  0  0  0  0  0  0  0  0
    1.1340   11.2090  -13.7270 C   0  0  0  0  0  0  0  0  0  0  0  0
    0.0770   11.4080  -13.8260 H   0  0  0  0  0  0  0  0  0  0  0  0
    3.6350    8.5450  -14.8670 C   0  0  0  0  0  0  0  0  0  0  0  0
    4.7050    8.5000  -14.6640 H   0  0  0  0  0  0  0  0  0  0  0  0
    3.4710    8.5870  -15.9440 H   0  0  0  0  0  0  0  0  0  0  0  0
    3.1510    7.6570  -14.4610 H   0  0  0  0  0  0  0  0  0  0  0  0
  1  2  1  0  0  0  0
  3  1  1  0  0  0  0
  3  4  1  0  0  0  0
  5  3  2  0  0  0  0
  6  7  1  0  0  0  0
  6  1  2  0  0  0  0
  8  6  1  0  0  0  0
  9  8  2  0  0  0  0
  9  5  1  0  0  0  0
 10  9  1  0  0  0  0
 11 10  1  0  0  0  0
 12 10  1  0  0  0  0
 12 14  2  0  0  0  0
 13 12  1  0  0  0  0
 14  8  1  0  0  0  0
 15  5  1  0  0  0  0
 15 16  1  0  0  0  0
 16 19  1  0  0  0  0
 17 16  1  0  0  0  0
 18 16  1  0  0  0  0
 20 14  1  0  0  0  0
 20 21  1  0  0  0  0
 21 22  1  0  0  0  0
 23 20  2  0  0  0  0
 24 25  1  6  0  0  0
 24 21  1  0  0  0  0
 24 33  1  0  0  0  0
 26 24  1  0  0  0  0
 26 29  1  0  0  0  0
 26 28  1  0  0  0  0
 27 26  1  0  0  0  0
 29 30  1  0  0  0  0
 30 33  1  0  0  0  0
 30 32  1  0  0  0  0
 31 30  1  0  0  0  0
 33 35  1  0  0  0  0
 33 34  1  0  0  0  0
 36 37  1  0  0  0  0
 36 29  1  0  0  0  0
 37 38  1  0  0  0  0
 39 40  1  0  0  0  0
 39 37  2  0  0  0  0
 41 39  1  0  0  0  0
 42 41  2  0  0  0  0
 42 44  1  0  0  0  0
 43 42  1  0  0  0  0
 44 36  2  0  0  0  0
 45 44  1  0  0  0  0
 46 47  1  0  0  0  0
 46 49  1  0  0  0  0
 46 41  1  0  0  0  0
 48 46  1  0  0  0  0
M  END
>  <Pose>
10

>  <Score>
-9.05

$$$$
