
 OpenBabel03112211343D

 49 52  0  0  1  0  0  0  0  0999 V2000
   -2.3230   19.8050   -9.8620 C   0  0  0  0  0  0  0  0  0  0  0  0
   -1.7070   20.1170   -9.0310 H   0  0  0  0  0  0  0  0  0  0  0  0
   -3.5960   20.3590   -9.9980 C   0  0  0  0  0  0  0  0  0  0  0  0
   -3.9500   21.0800   -9.2770 H   0  0  0  0  0  0  0  0  0  0  0  0
   -4.4190   19.9810  -11.0750 C   0  0  0  0  0  0  0  0  0  0  0  0
   -1.8150   18.8610  -10.7580 C   0  0  0  0  0  0  0  0  0  0  0  0
   -0.8320   18.4320  -10.6300 H   0  0  0  0  0  0  0  0  0  0  0  0
   -2.6410   18.4970  -11.8320 C   0  0  0  0  0  0  0  0  0  0  0  0
   -3.9050   19.0580  -11.9910 C   0  0  0  0  0  0  0  0  0  0  0  0
   -4.4960   18.5760  -13.1180 N   0  0  0  0  0  0  0  0  0  0  0  0
   -5.4180   18.8230  -13.4480 H   0  0  0  0  0  0  0  0  0  0  0  0
   -3.6650   17.7290  -13.7150 C   0  0  0  0  0  0  0  0  0  0  0  0
   -3.8810   17.2070  -14.6360 H   0  0  0  0  0  0  0  0  0  0  0  0
   -2.5190   17.6070  -13.0190 C   0  0  0  0  0  0  0  0  0  0  0  0
   -5.6930   20.4720  -11.2740 O   0  0  0  0  0  0  0  0  0  0  0  0
   -6.2620   21.3070  -10.2460 C   0  0  0  0  0  0  0  0  0  0  0  0
   -7.2640   21.6160  -10.5420 H   0  0  0  0  0  0  0  0  0  0  0  0
   -5.6360   22.1890  -10.1060 H   0  0  0  0  0  0  0  0  0  0  0  0
   -6.3160   20.7480   -9.3120 H   0  0  0  0  0  0  0  0  0  0  0  0
   -1.3440   16.7900  -13.3470 C   0  0  0  0  0  0  0  0  0  0  0  0
   -0.7500   16.1360  -12.3200 N   0  0  0  0  0  0  0  0  0  0  0  0
   -1.1450   16.1980  -11.3930 H   0  0  0  0  0  0  0  0  0  0  0  0
   -0.9140   16.7330  -14.5020 O   0  0  0  0  0  0  0  0  0  0  0  0
    0.4530   15.3440  -12.5400 C   0  0  2  0  0  0  0  0  0  0  0  0
    0.8920   15.8090  -13.4220 H   0  0  0  0  0  0  0  0  0  0  0  0
    0.2140   13.8470  -12.7850 C   0  0  0  0  0  0  0  0  0  0  0  0
    0.0190   13.6450  -13.8380 H   0  0  0  0  0  0  0  0  0  0  0  0
   -0.6170   13.4770  -12.1850 H   0  0  0  0  0  0  0  0  0  0  0  0
    1.4800   13.2530  -12.3580 N   0  0  0  0  0  0  0  0  0  0  0  0
    2.2870   14.1640  -11.5450 C   0  0  0  0  0  0  0  0  0  0  0  0
    3.1780   14.4820  -12.0860 H   0  0  0  0  0  0  0  0  0  0  0  0
    2.5810   13.6920  -10.6070 H   0  0  0  0  0  0  0  0  0  0  0  0
    1.3460   15.3550  -11.2880 C   0  0  0  0  0  0  0  0  0  0  0  0
    0.7580   15.2050  -10.3830 H   0  0  0  0  0  0  0  0  0  0  0  0
    1.9040   16.2880  -11.2090 H   0  0  0  0  0  0  0  0  0  0  0  0
    1.9880   12.0960  -12.8870 C   0  0  0  0  0  0  0  0  0  0  0  0
    3.3280   11.7390  -12.6760 C   0  0  0  0  0  0  0  0  0  0  0  0
    3.9520   12.3800  -12.0720 H   0  0  0  0  0  0  0  0  0  0  0  0
    3.8740   10.5840  -13.2210 C   0  0  0  0  0  0  0  0  0  0  0  0
    4.9040   10.3270  -13.0200 H   0  0  0  0  0  0  0  0  0  0  0  0
    3.0950    9.7580  -14.0250 C   0  0  0  0  0  0  0  0  0  0  0  0
    1.7590   10.0940  -14.2410 C   0  0  0  0  0  0  0  0  0  0  0  0
    1.1440    9.4520  -14.8530 H   0  0  0  0  0  0  0  0  0  0  0  0
    1.2050   11.2430  -13.6810 C   0  0  0  0  0  0  0  0  0  0  0  0
    0.1660   11.4790  -13.8600 H   0  0  0  0  0  0  0  0  0  0  0  0
    3.6900    8.4920  -14.6360 C   0  0  0  0  0  0  0  0  0  0  0  0
    4.7390    8.4100  -14.3510 H   0  0  0  0  0  0  0  0  0  0  0  0
    3.6110    8.5410  -15.7220 H   0  0  0  0  0  0  0  0  0  0  0  0
    3.1450    7.6220  -14.2710 H   0  0  0  0  0  0  0  0  0  0  0  0
  1  2  1  0  0  0  0
  3  1  1  0  0  0  0
  3  4  1  0  0  0  0
  5  3  2  0  0  0  0
  6  7  1  0  0  0  0
  6  1  2  0  0  0  0
  8  6  1  0  0  0  0
  9  8  2  0  0  0  0
  9  5  1  0  0  0  0
 10  9  1  0  0  0  0
 11 10  1  0  0  0  0
 12 10  1  0  0  0  0
 12 14  2  0  0  0  0
 13 12  1  0  0  0  0
 14  8  1  0  0  0  0
 15  5  1  0  0  0  0
 15 16  1  0  0  0  0
 16 18  1  0  0  0  0
 16 19  1  0  0  0  0
 17 16  1  0  0  0  0
 20 14  1  0  0  0  0
 20 21  1  0  0  0  0
 21 22  1  0  0  0  0
 23 20  2  0  0  0  0
 24 25  1  6  0  0  0
 24 21  1  0  0  0  0
 24 33  1  0  0  0  0
 26 24  1  0  0  0  0
 26 29  1  0  0  0  0
 26 28  1  0  0  0  0
 27 26  1  0  0  0  0
 29 30  1  0  0  0  0
 30 33  1  0  0  0  0
 30 32  1  0  0  0  0
 31 30  1  0  0  0  0
 33 35  1  0  0  0  0
 33 34  1  0  0  0  0
 36 37  1  0  0  0  0
 36 29  1  0  0  0  0
 37 38  1  0  0  0  0
 39 40  1  0  0  0  0
 39 37  2  0  0  0  0
 41 39  1  0  0  0  0
 42 41  2  0  0  0  0
 42 44  1  0  0  0  0
 43 42  1  0  0  0  0
 44 36  2  0  0  0  0
 45 44  1  0  0  0  0
 46 47  1  0  0  0  0
 46 49  1  0  0  0  0
 46 41  1  0  0  0  0
 48 46  1  0  0  0  0
M  END
>  <Pose>
10

>  <Score>
-9.04

$$$$
