
 OpenBabel03092210463D

 34 37  0  0  1  0  0  0  0  0999 V2000
   14.9470  -56.2190   38.1060 N   0  0  0  0  0  0  0  0  0  0  0  0
   13.8570  -58.2670   38.0060 C   0  0  0  0  0  0  0  0  0  0  0  0
   14.0710  -57.0510   38.9060 C   0  0  0  0  0  0  0  0  0  0  0  0
   14.8670  -54.4940   39.5990 N   0  0  0  0  0  0  0  0  0  0  0  0
   15.3770  -56.8800   36.8790 C   0  0  0  0  0  0  0  0  0  0  0  0
   19.4830  -51.2620   36.6580 N   0  0  0  0  0  0  0  0  0  0  0  0
   15.0030  -58.2710   37.0630 C   0  0  1  0  0  0  0  0  0  0  0  0
   19.4420  -52.3380   35.8800 N   0  0  0  0  0  0  0  0  0  0  0  0
   15.4310  -55.0270   38.5100 C   0  0  0  0  0  0  0  0  0  0  0  0
   20.2990  -52.4130   34.8430 N   0  0  0  0  0  0  0  0  0  0  0  0
   15.3720  -53.3050   39.9700 C   0  0  0  0  0  0  0  0  0  0  0  0
   16.4260  -54.5020   37.7740 N   0  0  0  0  0  0  0  0  0  0  0  0
   16.3930  -52.6690   39.3090 C   0  0  0  0  0  0  0  0  0  0  0  0
   16.8970  -53.3060   38.1910 C   0  0  0  0  0  0  0  0  0  0  0  0
   17.9240  -52.7420   37.3680 C   0  0  0  0  0  0  0  0  0  0  0  0
   18.5600  -51.5090   37.5590 C   0  0  0  0  0  0  0  0  0  0  0  0
   18.5490  -53.2800   36.2500 C   0  0  0  0  0  0  0  0  0  0  0  0
   18.4590  -54.4500   35.4540 C   0  0  0  0  0  0  0  0  0  0  0  0
   19.2950  -54.5920   34.3920 C   0  0  0  0  0  0  0  0  0  0  0  0
   20.1980  -53.5450   34.1470 C   0  0  0  0  0  0  0  0  0  0  0  0
   16.1190  -58.8600   37.7140 F   0  0  0  0  0  0  0  0  0  0  0  0
   12.8980  -58.2160   37.4910 H   0  0  0  0  0  0  0  0  0  0  0  0
   13.7990  -59.1860   38.5880 H   0  0  0  0  0  0  0  0  0  0  0  0
   14.5270  -57.3030   39.8620 H   0  0  0  0  0  0  0  0  0  0  0  0
   13.1460  -56.5330   39.1490 H   0  0  0  0  0  0  0  0  0  0  0  0
   16.4450  -56.7570   36.7120 H   0  0  0  0  0  0  0  0  0  0  0  0
   14.9050  -56.4390   36.0020 H   0  0  0  0  0  0  0  0  0  0  0  0
   14.7760  -58.8120   36.1440 H   0  0  0  0  0  0  0  0  0  0  0  0
   14.9030  -52.8730   40.8530 H   0  0  0  0  0  0  0  0  0  0  0  0
   16.7760  -51.7110   39.6590 H   0  0  0  0  0  0  0  0  0  0  0  0
   18.3660  -50.7810   38.3460 H   0  0  0  0  0  0  0  0  0  0  0  0
   17.7200  -55.2070   35.7180 H   0  0  0  0  0  0  0  0  0  0  0  0
   19.2820  -55.4710   33.7490 H   0  0  0  0  0  0  0  0  0  0  0  0
   20.9160  -53.5840   33.3290 H   0  0  0  0  0  0  0  0  0  0  0  0
  1  9  1  0  0  0  0
  1  3  1  0  0  0  0
  2 23  1  0  0  0  0
  2  3  1  0  0  0  0
  3 25  1  0  0  0  0
  3 24  1  0  0  0  0
  4 11  1  0  0  0  0
  5  7  1  0  0  0  0
  5  1  1  0  0  0  0
  6 16  2  0  0  0  0
  7 28  1  6  0  0  0
  7 21  1  0  0  0  0
  7  2  1  0  0  0  0
  8 17  1  0  0  0  0
  8  6  1  0  0  0  0
  9  4  2  0  0  0  0
 10  8  1  0  0  0  0
 11 29  1  0  0  0  0
 12 14  2  0  0  0  0
 12  9  1  0  0  0  0
 13 30  1  0  0  0  0
 13 11  2  0  0  0  0
 14 13  1  0  0  0  0
 15 16  1  0  0  0  0
 15 14  1  0  0  0  0
 16 31  1  0  0  0  0
 17 15  2  0  0  0  0
 18 32  1  0  0  0  0
 18 17  1  0  0  0  0
 19 18  2  0  0  0  0
 20 19  1  0  0  0  0
 20 10  2  0  0  0  0
 22  2  1  0  0  0  0
 26  5  1  0  0  0  0
 27  5  1  0  0  0  0
 33 19  1  0  0  0  0
 34 20  1  0  0  0  0
M  END
>  <Pose>
10

>  <Score>
-7.19

$$$$
