
 OpenBabel03102210433D

 34 37  0  0  1  0  0  0  0  0999 V2000
   14.9500  -56.2220   38.0530 N   0  0  0  0  0  0  0  0  0  0  0  0
   13.8410  -58.2570   37.9160 C   0  0  0  0  0  0  0  0  0  0  0  0
   14.0400  -57.0450   38.8240 C   0  0  0  0  0  0  0  0  0  0  0  0
   14.8840  -54.5270   39.5810 N   0  0  0  0  0  0  0  0  0  0  0  0
   15.4100  -56.8860   36.8390 C   0  0  0  0  0  0  0  0  0  0  0  0
   19.4550  -51.2250   36.6490 N   0  0  0  0  0  0  0  0  0  0  0  0
   15.0160  -58.2730   37.0090 C   0  0  1  0  0  0  0  0  0  0  0  0
   19.3850  -52.2710   35.8320 N   0  0  0  0  0  0  0  0  0  0  0  0
   15.4340  -55.0360   38.4730 C   0  0  0  0  0  0  0  0  0  0  0  0
   20.2160  -52.3140   34.7730 N   0  0  0  0  0  0  0  0  0  0  0  0
   15.3890  -53.3440   39.9690 C   0  0  0  0  0  0  0  0  0  0  0  0
   16.4160  -54.4910   37.7340 N   0  0  0  0  0  0  0  0  0  0  0  0
   16.3970  -52.6890   39.3050 C   0  0  0  0  0  0  0  0  0  0  0  0
   16.8870  -53.3020   38.1680 C   0  0  0  0  0  0  0  0  0  0  0  0
   17.9000  -52.7170   37.3410 C   0  0  0  0  0  0  0  0  0  0  0  0
   18.5530  -51.4970   37.5620 C   0  0  0  0  0  0  0  0  0  0  0  0
   18.4920  -53.2170   36.1880 C   0  0  0  0  0  0  0  0  0  0  0  0
   18.3710  -54.3570   35.3530 C   0  0  0  0  0  0  0  0  0  0  0  0
   19.1790  -54.4660   34.2660 C   0  0  0  0  0  0  0  0  0  0  0  0
   20.0870  -53.4180   34.0380 C   0  0  0  0  0  0  0  0  0  0  0  0
   16.1030  -58.8750   37.6930 F   0  0  0  0  0  0  0  0  0  0  0  0
   12.8990  -58.1950   37.3720 H   0  0  0  0  0  0  0  0  0  0  0  0
   13.7540  -59.1760   38.4950 H   0  0  0  0  0  0  0  0  0  0  0  0
   14.4630  -57.3030   39.7930 H   0  0  0  0  0  0  0  0  0  0  0  0
   13.1130  -56.5160   39.0390 H   0  0  0  0  0  0  0  0  0  0  0  0
   16.4840  -56.7750   36.7050 H   0  0  0  0  0  0  0  0  0  0  0  0
   14.9710  -56.4390   35.9480 H   0  0  0  0  0  0  0  0  0  0  0  0
   14.8110  -58.8110   36.0830 H   0  0  0  0  0  0  0  0  0  0  0  0
   14.9310  -52.9310   40.8670 H   0  0  0  0  0  0  0  0  0  0  0  0
   16.7810  -51.7370   39.6680 H   0  0  0  0  0  0  0  0  0  0  0  0
   18.3850  -50.7970   38.3810 H   0  0  0  0  0  0  0  0  0  0  0  0
   17.6320  -55.1160   35.6060 H   0  0  0  0  0  0  0  0  0  0  0  0
   19.1420  -55.3200   33.5910 H   0  0  0  0  0  0  0  0  0  0  0  0
   20.7840  -53.4330   33.2010 H   0  0  0  0  0  0  0  0  0  0  0  0
  1  9  1  0  0  0  0
  1  3  1  0  0  0  0
  2 23  1  0  0  0  0
  2  3  1  0  0  0  0
  3 25  1  0  0  0  0
  3 24  1  0  0  0  0
  4 11  1  0  0  0  0
  5  7  1  0  0  0  0
  5  1  1  0  0  0  0
  6 16  2  0  0  0  0
  7 28  1  6  0  0  0
  7 21  1  0  0  0  0
  7  2  1  0  0  0  0
  8 17  1  0  0  0  0
  8  6  1  0  0  0  0
  9  4  2  0  0  0  0
 10  8  1  0  0  0  0
 11 29  1  0  0  0  0
 12 14  2  0  0  0  0
 12  9  1  0  0  0  0
 13 30  1  0  0  0  0
 13 11  2  0  0  0  0
 14 13  1  0  0  0  0
 15 16  1  0  0  0  0
 15 14  1  0  0  0  0
 16 31  1  0  0  0  0
 17 15  2  0  0  0  0
 18 32  1  0  0  0  0
 18 17  1  0  0  0  0
 19 18  2  0  0  0  0
 20 19  1  0  0  0  0
 20 10  2  0  0  0  0
 22  2  1  0  0  0  0
 26  5  1  0  0  0  0
 27  5  1  0  0  0  0
 33 19  1  0  0  0  0
 34 20  1  0  0  0  0
M  END
>  <Pose>
10

>  <Score>
-7.20

$$$$
