/Users/jonathanwahrer/Desktop/Msc/3_Semester/Drug_Design_Praktikum/waehrer_HTS_screening/HTS_experiment/out/docking_results/vina_output/3elj/0002_docked.pdbqt
 OpenBabel03192217123D

 38 41  0  0  0  0  0  0  0  0999 V2000
   21.2800   10.7530   32.3200 C   0  0  0  0  0  0  0  0  0  0  0  0
   20.3010   11.0580   33.2410 N   0  0  0  0  0  0  0  0  0  0  0  0
   20.0030   12.3100   33.1020 N   0  0  0  0  0  0  0  0  0  0  0  0
   20.7630   12.8470   32.1090 N   0  0  0  0  0  0  0  0  0  0  0  0
   21.5620   11.9090   31.6040 C   0  0  0  0  0  0  0  0  0  0  0  0
   21.8430    9.4300   32.1930 C   0  0  0  0  0  0  0  0  0  0  0  0
   21.3420    8.2900   31.5550 N   0  0  0  0  0  0  0  0  0  0  0  0
   20.4680    8.2310   31.0600 H   0  0  0  0  0  0  0  0  0  0  0  0
   23.0070    9.2880   32.7670 O   0  0  0  0  0  0  0  0  0  0  0  0
   22.1630    7.1110   31.6160 N   0  0  0  0  0  0  0  0  0  0  0  0
   22.9160    6.7940   30.6310 C   0  0  0  0  0  3  0  0  0  0  0  0
   23.7730    5.6010   30.6450 C   0  0  0  0  0  0  0  0  0  0  0  0
   23.7190    4.6630   31.6550 C   0  0  0  0  0  3  0  0  0  0  0  0
   24.5300    3.5400   31.6610 C   0  0  0  0  0  0  0  0  0  0  0  0
   25.4310    3.3210   30.6420 C   0  0  0  0  0  0  0  0  0  0  0  0
   24.4540    2.2410   33.0620 Br  0  0  0  0  0  0  0  0  0  0  0  0
   25.4880    4.2580   29.6280 C   0  0  0  0  0  0  0  0  0  0  0  0
   26.2640    2.2010   30.6150 O   0  0  0  0  0  1  0  0  0  0  0  0
   26.7350    3.9800   28.1940 Br  0  0  0  0  0  0  0  0  0  0  0  0
   24.6770    5.3750   29.6280 C   0  0  0  0  0  0  0  0  0  0  0  0
   24.7290    6.3330   28.6000 O   0  0  0  0  0  0  0  0  0  0  0  0
   24.8480    6.0290   27.6460 H   0  0  0  0  0  0  0  0  0  0  0  0
   22.5430   12.0170   30.5250 C   0  0  0  0  0  2  0  0  0  0  0  0
   23.6890   12.8280   30.6950 N   0  0  0  0  0  4  0  0  0  0  0  0
   24.2830   13.2610   29.4390 C   0  0  0  0  0  2  0  0  0  0  0  0
   24.5230   12.1180   28.5370 C   0  0  0  0  0  2  0  0  0  0  0  0
   24.8400   10.9180   29.0270 O   0  0  0  0  0  0  0  0  0  0  0  0
   24.8870   10.7320   30.3700 C   0  0  0  0  0  2  0  0  0  0  0  0
   24.7660   11.9280   31.2240 C   0  0  0  0  0  2  0  0  0  0  0  0
   23.5550   13.5810   31.3530 H   0  0  0  0  0  0  0  0  0  0  0  0
   20.6140   14.2300   31.7790 C   0  0  0  0  0  0  0  0  0  0  0  0
   21.5040   15.1940   31.5790 N   0  0  0  0  0  0  0  0  0  0  0  0
   20.8540   16.2680   31.2700 O   0  0  0  0  0  0  0  0  0  0  0  0
   19.5740   16.0680   31.2540 N   0  0  0  0  0  0  0  0  0  0  0  0
   19.3480   14.7990   31.5660 C   0  0  0  0  0  0  0  0  0  0  0  0
   18.1180   14.1030   31.6790 N   0  0  0  0  0  0  0  0  0  0  0  0
   17.5610   14.1860   32.5550 H   0  0  0  0  0  0  0  0  0  0  0  0
   17.7340   13.4920   30.9020 H   0  0  0  0  0  0  0  0  0  0  0  0
  1  2  1  0  0  0  0
  3  2  2  0  0  0  0
  4  3  1  0  0  0  0
  5  4  1  0  0  0  0
  5  1  2  0  0  0  0
  6  1  1  0  0  0  0
  6  9  2  0  0  0  0
  7 10  1  0  0  0  0
  7  6  1  0  0  0  0
  8  7  1  0  0  0  0
 11 12  1  0  0  0  0
 11 10  2  0  0  0  0
 12 13  1  0  0  0  0
 13 14  2  0  0  0  0
 14 16  1  0  0  0  0
 15 14  1  0  0  0  0
 17 15  2  0  0  0  0
 18 15  1  0  0  0  0
 19 17  1  0  0  0  0
 20 17  1  0  0  0  0
 20 12  2  0  0  0  0
 21 20  1  0  0  0  0
 22 21  1  0  0  0  0
 23 24  1  0  0  0  0
 23  5  1  0  0  0  0
 24 29  1  0  0  0  0
 24 30  1  0  0  0  0
 25 24  1  0  0  0  0
 26 27  1  0  0  0  0
 26 25  1  0  0  0  0
 27 28  1  0  0  0  0
 28 29  1  0  0  0  0
 31  4  1  0  0  0  0
 32 31  2  0  0  0  0
 33 32  1  0  0  0  0
 34 33  1  0  0  0  0
 34 35  2  0  0  0  0
 35 36  1  0  0  0  0
 35 31  1  0  0  0  0
 36 37  1  0  0  0  0
 38 36  1  0  0  0  0
M  END
>  <Pose>
1

>  <Score>
-8.640

$$$$
