/Users/jonathanwahrer/Desktop/Msc/3_Semester/Drug_Design_Praktikum/waehrer_HTS_screening/HTS_experiment/out/docking_results/vina_output/3elj/0003_docked.pdbqt
 OpenBabel03142213493D

 38 41  0  0  0  0  0  0  0  0999 V2000
   25.0030   13.3880   28.2770 C   0  0  0  0  0  0  0  0  0  0  0  0
   25.7870   14.1950   27.4930 N   0  0  0  0  0  0  0  0  0  0  0  0
   25.2520   15.3820   27.4220 N   0  0  0  0  0  0  0  0  0  0  0  0
   24.1310   15.4490   28.1180 N   0  0  0  0  0  0  0  0  0  0  0  0
   23.9520   14.2310   28.6550 C   0  0  0  0  0  0  0  0  0  0  0  0
   25.2760   11.9960   28.5810 C   0  0  0  0  0  0  0  0  0  0  0  0
   25.5440   11.4060   29.8090 N   0  0  0  0  0  0  0  0  0  0  0  0
   25.6000   11.8780   30.7420 H   0  0  0  0  0  0  0  0  0  0  0  0
   25.2630   11.2140   27.5570 O   0  0  0  0  0  0  0  0  0  0  0  0
   25.7790    9.9890   29.8170 N   0  0  0  0  0  0  0  0  0  0  0  0
   24.7780    9.1880   29.9060 C   0  0  0  0  0  3  0  0  0  0  0  0
   24.9040    7.7390   29.9220 C   0  0  0  0  0  0  0  0  0  0  0  0
   24.0840    6.9640   30.6980 C   0  0  0  0  0  3  0  0  0  0  0  0
   24.1890    5.5770   30.7270 C   0  0  0  0  0  0  0  0  0  0  0  0
   25.1530    4.9440   29.9470 C   0  0  0  0  0  0  0  0  0  0  0  0
   23.0330    4.5430   31.8160 Br  0  0  0  0  0  0  0  0  0  0  0  0
   25.9750    5.7090   29.1720 C   0  0  0  0  0  0  0  0  0  0  0  0
   27.2990    4.8860   28.0950 Br  0  0  0  0  0  0  0  0  0  0  0  0
   25.8530    7.0990   29.1570 C   0  0  0  0  0  0  0  0  0  0  0  0
   25.2420    3.5600   29.9900 O   0  0  0  0  0  0  0  0  0  0  0  0
   24.4200    2.9900   30.1030 H   0  0  0  0  0  0  0  0  0  0  0  0
   26.6780    7.8940   28.3760 O   0  0  0  0  0  0  0  0  0  0  0  0
   27.3590    8.5030   28.8110 H   0  0  0  0  0  0  0  0  0  0  0  0
   22.8630   13.8110   29.5420 C   0  0  0  0  0  2  0  0  0  0  0  0
   23.0970   14.0910   30.9610 N   0  0  0  0  0  0  0  0  0  0  0  0
   23.2880   12.8080   31.6660 C   0  0  0  0  0  2  0  0  0  0  0  0
   22.2260   11.8470   31.2600 C   0  0  0  0  0  2  0  0  0  0  0  0
   20.9900   12.4140   31.4560 O   0  0  0  0  0  0  0  0  0  0  0  0
   21.0130   13.5980   32.1450 C   0  0  0  0  0  2  0  0  0  0  0  0
   21.8580   14.6790   31.5220 C   0  0  0  0  0  2  0  0  0  0  0  0
   23.3490   16.6230   28.2510 C   0  0  0  0  0  0  0  0  0  0  0  0
   22.7740   17.1500   29.3530 N   0  0  0  0  0  0  0  0  0  0  0  0
   22.1460   18.2530   29.0400 O   0  0  0  0  0  0  0  0  0  0  0  0
   22.2700   18.5010   27.7610 N   0  0  0  0  0  0  0  0  0  0  0  0
   23.0110   17.5090   27.2390 C   0  0  0  0  0  0  0  0  0  0  0  0
   23.3680   17.4170   25.8770 N   0  0  0  0  0  0  0  0  0  0  0  0
   22.6210   17.2890   25.1710 H   0  0  0  0  0  0  0  0  0  0  0  0
   24.3500   17.4720   25.5520 H   0  0  0  0  0  0  0  0  0  0  0  0
  1  6  1  0  0  0  0
  1  5  2  0  0  0  0
  2  1  1  0  0  0  0
  3  2  2  0  0  0  0
  3  4  1  0  0  0  0
  4 31  1  0  0  0  0
  4  5  1  0  0  0  0
  5 24  1  0  0  0  0
  6  7  1  0  0  0  0
  7 10  1  0  0  0  0
  7  8  1  0  0  0  0
  9  6  2  0  0  0  0
 10 11  2  0  0  0  0
 11 12  1  0  0  0  0
 12 13  1  0  0  0  0
 13 14  2  0  0  0  0
 14 16  1  0  0  0  0
 15 20  1  0  0  0  0
 15 14  1  0  0  0  0
 17 15  2  0  0  0  0
 18 17  1  0  0  0  0
 19 17  1  0  0  0  0
 19 12  2  0  0  0  0
 20 21  1  0  0  0  0
 22 23  1  0  0  0  0
 22 19  1  0  0  0  0
 24 25  1  0  0  0  0
 25 30  1  0  0  0  0
 25 26  1  0  0  0  0
 27 28  1  0  0  0  0
 27 26  1  0  0  0  0
 28 29  1  0  0  0  0
 30 29  1  0  0  0  0
 31 32  2  0  0  0  0
 33 32  1  0  0  0  0
 34 33  1  0  0  0  0
 35 34  2  0  0  0  0
 35 31  1  0  0  0  0
 36 35  1  0  0  0  0
 37 36  1  0  0  0  0
 38 36  1  0  0  0  0
M  END
>  <Pose>
1

>  <Score>
-8.846

$$$$
