/Users/jonathanwahrer/Desktop/Msc/3_Semester/Drug_Design_Praktikum/waehrer_HTS_screening/HTS_experiment/out/docking_results/vina_output/3elj/0005_docked.pdbqt
 OpenBabel03192217143D

 38 41  0  0  1  0  0  0  0  0999 V2000
   24.7840   11.6860   29.2350 N   0  0  0  0  0  0  0  0  0  0  0  0
   25.8580   11.8410   28.4160 C   0  0  0  0  0  0  0  0  0  0  0  0
   25.8380   13.0970   27.8690 C   0  0  0  0  0  0  0  0  0  0  0  0
   24.7640   13.6750   28.3660 N   0  0  0  0  0  0  0  0  0  0  0  0
   24.0950   12.8420   29.2090 C   0  0  0  0  0  0  0  0  0  0  0  0
   26.7880   13.5800   27.0100 N   0  0  0  0  0  0  0  0  0  0  0  0
   27.7940   12.7520   26.7030 C   0  0  0  0  0  0  0  0  0  0  0  0
   28.6680   13.2010   25.9090 O   0  0  0  0  0  0  0  0  0  0  0  0
   27.8610   11.5090   27.2170 N   0  0  0  0  0  2  0  0  0  0  0  0
   26.9370   11.0210   28.0600 C   0  0  0  0  0  0  0  0  0  0  0  0
   27.0330    9.7490   28.5750 O   0  0  0  0  0  0  0  0  0  0  0  0
   26.6590   14.9320   26.4830 C   0  0  0  0  0  1  0  0  0  0  0  0
   24.4690   10.5170   29.9760 C   0  0  0  0  0  2  0  0  0  0  0  0
   23.7250    9.4050   29.4070 C   0  0  1  0  0  3  0  0  0  0  0  0
   23.6510    8.0490   29.9680 C   0  0  0  0  0  2  0  0  0  0  0  0
   23.1540    8.0870   31.3040 O   0  0  0  0  0  0  0  0  0  0  0  0
   21.8880    7.8280   31.6980 C   0  0  0  0  0  0  0  0  0  0  0  0
   21.1020    8.8760   32.2030 C   0  0  0  0  0  0  0  0  0  0  0  0
   21.8940   10.6160   32.2920 Br  0  0  0  0  0  0  0  0  0  0  0  0
   19.8110    8.6710   32.6180 C   0  0  0  0  0  3  0  0  0  0  0  0
   19.2450    7.4160   32.5510 C   0  0  0  0  0  0  0  0  0  0  0  0
   19.9950    6.3730   32.0610 C   0  0  0  0  0  3  0  0  0  0  0  0
   17.4470    7.2260   33.1510 Br  0  0  0  0  0  0  0  0  0  0  0  0
   21.3120    6.6010   31.6410 C   0  0  0  0  0  0  0  0  0  0  0  0
   22.2680    5.1090   31.0030 Br  0  0  0  0  0  0  0  0  0  0  0  0
   22.4700    9.6600   28.8270 O   0  0  0  0  0  0  0  0  0  0  0  0
   21.8390    8.9350   28.9870 H   0  0  0  0  0  0  0  0  0  0  0  0
   22.9540   13.2780   29.9700 N   0  0  0  0  0  0  0  0  0  0  0  0
   21.5980   12.9440   29.7590 C   0  0  0  0  0  2  0  0  0  0  0  0
   20.7700   13.5920   30.9030 C   0  0  0  0  0  2  0  0  0  0  0  0
   20.9690   15.0190   30.7350 N   0  0  0  0  0  4  0  0  0  0  0  0
   22.2890   15.2480   31.3520 C   0  0  0  0  0  2  0  0  0  0  0  0
   21.0710   15.3150   29.7410 H   0  0  0  0  0  0  0  0  0  0  0  0
   23.2360   14.1370   31.1280 C   0  0  0  0  0  2  0  0  0  0  0  0
   19.9620   15.7860   31.4410 C   0  0  0  0  0  2  0  0  0  0  0  0
   18.6010   15.4300   30.8860 C   0  0  0  0  0  2  0  0  0  0  0  0
   17.6690   16.3830   31.3160 O   0  0  0  0  0  0  0  0  0  0  0  0
   18.0940   17.2800   31.4030 H   0  0  0  0  0  0  0  0  0  0  0  0
  1 13  1  0  0  0  0
  2  1  1  0  0  0  0
  3  4  1  0  0  0  0
  3  2  2  0  0  0  0
  4  5  2  0  0  0  0
  5  1  1  0  0  0  0
  5 28  1  0  0  0  0
  6  3  1  0  0  0  0
  7  6  1  0  0  0  0
  7  9  1  0  0  0  0
  8  7  2  0  0  0  0
  9 10  1  0  0  0  0
 10  2  1  0  0  0  0
 10 11  2  0  0  0  0
 12  6  1  0  0  0  0
 14 15  1  1  0  0  0
 14 13  1  0  0  0  0
 15 16  1  0  0  0  0
 16 17  1  0  0  0  0
 17 18  1  0  0  0  0
 18 19  1  0  0  0  0
 18 20  2  0  0  0  0
 21 20  1  0  0  0  0
 21 23  1  0  0  0  0
 22 21  2  0  0  0  0
 24 17  2  0  0  0  0
 24 22  1  0  0  0  0
 25 24  1  0  0  0  0
 26 27  1  0  0  0  0
 26 14  1  0  0  0  0
 28 34  1  0  0  0  0
 29 28  1  0  0  0  0
 29 30  1  0  0  0  0
 31 30  1  0  0  0  0
 31 32  1  0  0  0  0
 31 35  1  0  0  0  0
 33 31  1  0  0  0  0
 34 32  1  0  0  0  0
 36 37  1  0  0  0  0
 36 35  1  0  0  0  0
 37 38  1  0  0  0  0
M  END
>  <Pose>
1

>  <Score>
-8.643

$$$$
