/Users/jonathanwahrer/Desktop/Msc/3_Semester/Drug_Design_Praktikum/waehrer_HTS_screening/HTS_experiment/out/docking_results/vina_output/3elj/0020_docked.pdbqt
 OpenBabel03192217163D

 34 37  0  0  0  0  0  0  0  0999 V2000
   22.9040    8.8820   29.9150 C   0  0  0  0  0  0  0  0  0  0  0  0
   23.6390    7.8150   29.6650 N   0  0  0  0  0  4  0  0  0  0  0  0
   23.4640    6.6610   30.3710 C   0  0  0  0  0  0  0  0  0  0  0  0
   22.5010    6.6920   31.3230 N   0  0  0  0  0  0  0  0  0  0  0  0
   21.7240    7.7500   31.6230 C   0  0  0  0  0  0  0  0  0  0  0  0
   21.9530    8.8610   30.8880 N   0  0  0  0  0  2  0  0  0  0  0  0
   22.8790   10.0960   29.0670 N   0  0  0  0  0  0  0  0  0  0  0  0
   22.6170    9.9470   28.1120 H   0  0  0  0  0  0  0  0  0  0  0  0
   23.2000   11.1460   29.7790 N   0  0  0  0  0  2  0  0  0  0  0  0
   23.5000   12.0670   30.4190 C   0  0  0  0  0  2  0  0  0  0  0  0
   22.6950   13.2270   30.8550 C   0  0  0  0  0  0  0  0  0  0  0  0
   22.9520   14.5250   30.5190 C   0  0  0  0  0  3  0  0  0  0  0  0
   22.0300   15.5280   30.7840 C   0  0  0  0  0  0  0  0  0  0  0  0
   20.8220   15.2210   31.4090 C   0  0  0  0  0  0  0  0  0  0  0  0
   20.5590   13.9260   31.7590 C   0  0  0  0  0  0  0  0  0  0  0  0
   18.8870   13.4960   32.5980 Br  0  0  0  0  0  0  0  0  0  0  0  0
   21.4960   12.9570   31.4750 C   0  0  0  0  0  3  0  0  0  0  0  0
   22.2130   16.8400   30.4780 O   0  0  0  0  0  0  0  0  0  0  0  0
   22.0950   17.4890   29.2620 C   0  0  0  0  0  2  0  0  0  0  0  0
   23.2100   17.1290   28.2900 C   0  0  0  0  0  1  0  0  0  0  0  0
   19.8740   16.1820   31.6880 O   0  0  0  0  0  0  0  0  0  0  0  0
   18.8990   16.0060   31.7320 H   0  0  0  0  0  0  0  0  0  0  0  0
   24.1690    5.4710   30.0760 N   0  0  0  0  0  0  0  0  0  0  0  0
   23.9660    4.2800   30.9160 C   0  0  0  0  0  2  0  0  0  0  0  0
   25.3950    3.7540   31.2120 C   0  0  0  0  0  2  0  0  0  0  0  0
   25.8510    3.3110   30.0040 O   0  0  0  0  0  0  0  0  0  0  0  0
   26.1060    4.3090   29.1050 C   0  0  0  0  0  2  0  0  0  0  0  0
   25.0950    5.4050   29.0110 C   0  0  0  0  0  2  0  0  0  0  0  0
   20.6610    7.6620   32.5050 N   0  0  0  0  0  0  0  0  0  0  0  0
   19.6580    6.6750   32.6220 C   0  0  0  0  0  2  0  0  0  0  0  0
   18.3230    7.3760   32.3530 C   0  0  0  0  0  2  0  0  0  0  0  0
   18.2230    8.4350   33.2290 O   0  0  0  0  0  0  0  0  0  0  0  0
   19.1940    9.4020   33.1070 C   0  0  0  0  0  2  0  0  0  0  0  0
   20.5680    8.7810   33.4900 C   0  0  0  0  0  2  0  0  0  0  0  0
  1  6  1  0  0  0  0
  2  1  2  0  0  0  0
  2  3  2  0  0  0  0
  3  4  1  0  0  0  0
  4  5  2  0  0  0  0
  5 29  1  0  0  0  0
  6  5  1  0  0  0  0
  7  9  1  0  0  0  0
  7  1  1  0  0  0  0
  8  7  1  0  0  0  0
  9 10  1  0  0  0  0
 10 11  1  0  0  0  0
 11 17  1  0  0  0  0
 12 13  1  0  0  0  0
 12 11  2  0  0  0  0
 13 14  2  0  0  0  0
 14 21  1  0  0  0  0
 14 15  1  0  0  0  0
 15 16  1  0  0  0  0
 17 15  2  0  0  0  0
 18 13  1  0  0  0  0
 19 18  1  0  0  0  0
 20 19  1  0  0  0  0
 21 22  1  0  0  0  0
 23  3  1  0  0  0  0
 23 24  1  0  0  0  0
 24 25  1  0  0  0  0
 26 25  1  0  0  0  0
 27 26  1  0  0  0  0
 28 27  1  0  0  0  0
 28 23  1  0  0  0  0
 29 30  1  0  0  0  0
 29 34  1  0  0  0  0
 31 30  1  0  0  0  0
 31 32  1  0  0  0  0
 33 32  1  0  0  0  0
 33 34  1  0  0  0  0
M  END
>  <Pose>
1

>  <Score>
-8.662

$$$$
