/Users/jonathanwahrer/Desktop/Msc/3_Semester/Drug_Design_Praktikum/waehrer_HTS_screening/HTS_experiment/out/docking_results/vina_output/3elj/0026_docked.pdbqt
 OpenBabel03192217173D

 29 32  0  0  1  0  0  0  0  0999 V2000
   23.2970   10.4180   32.0270 C   0  0  2  0  0  3  0  0  0  0  0  0
   24.1140    9.6580   31.1750 N   0  0  0  0  0  4  0  0  0  0  0  0
   23.7930    8.3060   30.9210 C   0  0  1  0  0  3  0  0  0  0  0  0
   22.8910    7.6540   31.9340 C   0  0  0  0  0  2  0  0  0  0  0  0
   21.7500    8.5250   32.3050 C   0  0  0  0  0  0  0  0  0  0  0  0
   20.4500    8.2540   32.6360 C   0  0  0  0  0  0  0  0  0  0  0  0
   19.8780    9.4900   32.8790 C   0  0  0  0  0  0  0  0  0  0  0  0
   20.8160   10.4570   32.6960 N   0  0  0  0  0  0  0  0  0  0  0  0
   21.9660    9.8690   32.3440 C   0  0  0  0  0  0  0  0  0  0  0  0
   18.5470    9.4980   33.2390 C   0  0  0  0  0  3  0  0  0  0  0  0
   17.8190    8.3330   33.3510 C   0  0  0  0  0  3  0  0  0  0  0  0
   18.3910    7.1010   33.1080 C   0  0  0  0  0  3  0  0  0  0  0  0
   19.7280    7.0750   32.7460 C   0  0  0  0  0  3  0  0  0  0  0  0
   24.2650   10.1390   30.2420 H   0  0  0  0  0  0  0  0  0  0  0  0
   25.1050    9.6770   31.5790 H   0  0  0  0  0  0  0  0  0  0  0  0
   20.5830   11.4650   32.8320 H   0  0  0  0  0  0  0  0  0  0  0  0
   23.0670   11.7610   31.4230 C   0  0  0  0  0  0  0  0  0  0  0  0
   22.1270   12.6400   31.9170 C   0  0  0  0  0  3  0  0  0  0  0  0
   22.0000   13.8520   31.2740 C   0  0  0  0  0  0  0  0  0  0  0  0
   22.7540   14.2230   30.1810 C   0  0  0  0  0  0  0  0  0  0  0  0
   20.7090   15.0910   31.9310 Br  0  0  0  0  0  0  0  0  0  0  0  0
   23.6900   13.3420   29.6940 C   0  0  0  0  0  0  0  0  0  0  0  0
   24.7490   13.8160   28.1890 Br  0  0  0  0  0  0  0  0  0  0  0  0
   23.8350   12.1060   30.3320 C   0  0  0  0  0  3  0  0  0  0  0  0
   22.5630   15.4830   29.5790 O   0  0  0  0  0  0  0  0  0  0  0  0
   21.9880   16.1550   30.0690 H   0  0  0  0  0  0  0  0  0  0  0  0
   23.1710    8.1010   29.5840 C   0  0  0  0  0  0  0  0  0  0  0  0
   23.0150    6.9120   29.1420 O   0  0  0  0  0  1  0  0  0  0  0  0
   22.7740    9.1980   28.8360 O   0  0  0  0  0  0  0  0  0  0  0  0
  1 17  1  6  0  0  0
  1  9  1  0  0  0  0
  2 15  1  0  0  0  0
  2  1  1  0  0  0  0
  3 27  1  6  0  0  0
  3  2  1  0  0  0  0
  3  4  1  0  0  0  0
  4  5  1  0  0  0  0
  5  9  2  0  0  0  0
  5  6  1  0  0  0  0
  6 13  2  0  0  0  0
  6  7  1  0  0  0  0
  7 10  2  0  0  0  0
  8 16  1  0  0  0  0
  8  7  1  0  0  0  0
  9  8  1  0  0  0  0
 10 11  1  0  0  0  0
 12 11  2  0  0  0  0
 13 12  1  0  0  0  0
 14  2  1  0  0  0  0
 17 18  1  0  0  0  0
 19 18  2  0  0  0  0
 19 21  1  0  0  0  0
 20 19  1  0  0  0  0
 22 20  2  0  0  0  0
 22 24  1  0  0  0  0
 23 22  1  0  0  0  0
 24 17  2  0  0  0  0
 25 26  1  0  0  0  0
 25 20  1  0  0  0  0
 28 27  1  0  0  0  0
 29 27  2  0  0  0  0
M  END
>  <Pose>
1

>  <Score>
-9.552

$$$$
