/Users/jonathanwahrer/Desktop/Msc/3_Semester/Drug_Design_Praktikum/waehrer_HTS_screening/HTS_experiment/out/docking_results/vina_output/3elj/0031_docked.pdbqt
 OpenBabel03192217173D

 24 27  0  0  1  0  0  0  0  0999 V2000
   22.1900    4.8650   31.2380 Br  0  0  0  0  0  0  0  0  0  0  0  0
   21.3810    6.5310   31.7490 C   0  0  0  0  0  0  0  0  0  0  0  0
   22.0660    7.6920   31.6870 C   0  0  0  0  0  0  0  0  0  0  0  0
   21.4740    8.9110   32.1280 C   0  0  0  0  0  0  0  0  0  0  0  0
   20.2140    8.8580   32.6160 C   0  0  0  0  0  3  0  0  0  0  0  0
   19.5350    7.6570   32.6820 C   0  0  0  0  0  3  0  0  0  0  0  0
   20.0980    6.4950   32.2530 C   0  0  0  0  0  3  0  0  0  0  0  0
   22.4630    9.9790   32.3720 C   0  0  0  0  0  2  0  0  0  0  0  0
   22.5370   11.1160   31.5490 N   0  0  2  0  0  4  0  0  0  0  0  0
   22.1460   11.0950   30.2300 C   0  0  0  0  0  2  0  0  0  0  0  0
   22.1860   12.4220   29.6210 N   0  0  2  0  0  0  0  0  0  0  0  0
   23.5490   12.9140   29.7350 C   0  0  0  0  0  2  0  0  0  0  0  0
   21.3350   13.3820   30.2800 C   0  0  0  0  0  2  0  0  0  0  0  0
   24.0150   12.9200   31.1070 N   0  0  2  0  0  0  0  0  0  0  0  0
   23.9230   11.6650   31.7410 C   0  0  0  0  0  2  0  0  0  0  0  0
   23.2440   13.9050   31.8370 C   0  0  0  0  0  2  0  0  0  0  0  0
   21.8020   13.4770   31.7300 C   0  0  2  0  0  3  0  0  0  0  0  0
   21.6930   12.1110   32.2990 C   0  0  0  0  0  2  0  0  0  0  0  0
   23.3260    7.7370   31.2070 O   0  0  0  0  0  0  0  0  0  0  0  0
   23.6480    7.7970   29.8030 C   0  0  0  0  0  2  0  0  0  0  0  0
   24.8510    7.0970   29.3610 C   0  0  0  0  0  0  0  0  0  0  0  0
   25.9980    7.4850   29.5330 O   0  0  0  0  0  0  0  0  0  0  0  0
   24.6760    5.8660   28.7190 O   0  0  0  0  0  0  0  0  0  0  0  0
   25.5470    4.7800   28.8940 C   0  0  0  0  0  1  0  0  0  0  0  0
  1  2  1  0  0  0  0
  2  7  1  0  0  0  0
  3  2  2  0  0  0  0
  3  4  1  0  0  0  0
  4  8  1  0  0  0  0
  4  5  2  0  0  0  0
  5  6  1  0  0  0  0
  7  6  2  0  0  0  0
  9 15  1  0  0  0  0
  9 18  1  0  0  0  0
  9  8  1  1  0  0  0
 10  9  1  0  0  0  0
 11 12  1  1  0  0  0
 11 10  1  0  0  0  0
 11 13  1  0  0  0  0
 14 12  1  6  0  0  0
 14 15  1  0  0  0  0
 14 16  1  0  0  0  0
 17 13  1  6  0  0  0
 17 16  1  0  0  0  0
 17 18  1  0  0  0  0
 19  3  1  0  0  0  0
 20 19  1  0  0  0  0
 21 22  2  0  0  0  0
 21 20  1  0  0  0  0
 23 24  1  0  0  0  0
 23 21  1  0  0  0  0
M  END
>  <Pose>
1

>  <Score>
-7.121

$$$$
