/Users/jonathanwahrer/Desktop/Msc/3_Semester/Drug_Design_Praktikum/waehrer_HTS_screening/HTS_experiment/out/docking_results/vina_output/3elj/0067_docked.pdbqt
 OpenBabel03192217183D

 22 25  0  0  1  0  0  0  0  0999 V2000
   22.2890    9.8100   31.9250 N   0  0  0  0  0  0  0  0  0  0  0  0
   21.5810   11.0940   31.7540 C   0  0  0  0  0  2  0  0  0  0  0  0
   22.6200   11.9240   31.1590 C   0  0  2  0  0  0  0  0  0  0  0  0
   22.7580   11.8340   29.7640 O   0  0  0  0  0  0  0  0  0  0  0  0
   23.9480   12.6070   29.6860 C   0  0  2  0  0  3  0  0  0  0  0  0
   24.8470   11.6670   30.5020 C   0  0  1  0  0  3  0  0  0  0  0  0
   23.9790   11.4510   31.7020 C   0  0  2  0  0  3  0  0  0  0  0  0
   23.6800   10.0730   32.0560 C   0  0  0  0  0  0  0  0  0  0  0  0
   24.5130    9.2200   32.4280 O   0  0  0  0  0  0  0  0  0  0  0  0
   23.5430   13.8100   30.4710 C   0  0  0  0  0  2  0  0  0  0  0  0
   22.5940   13.3740   31.3290 C   0  0  0  0  0  2  0  0  0  0  0  0
   21.7160    8.5120   31.9530 C   0  0  0  0  0  0  0  0  0  0  0  0
   20.5480    8.2290   32.6400 C   0  0  0  0  0  0  0  0  0  0  0  0
   19.6160    9.5550   33.6020 Br  0  0  0  0  0  0  0  0  0  0  0  0
   20.0120    6.9390   32.6470 C   0  0  0  0  0  3  0  0  0  0  0  0
   20.6200    5.9130   31.9750 C   0  0  0  0  0  3  0  0  0  0  0  0
   21.7680    6.1700   31.2950 C   0  0  0  0  0  3  0  0  0  0  0  0
   22.2940    7.4380   31.2880 C   0  0  0  0  0  3  0  0  0  0  0  0
   24.9280   10.4130   29.6870 C   0  0  0  0  0  0  0  0  0  0  0  0
   23.9830    9.9890   29.0070 O   0  0  0  0  0  0  0  0  0  0  0  0
   26.1180    9.6950   29.6970 O   0  0  0  0  0  0  0  0  0  0  0  0
   27.2900   10.3060   29.1460 C   0  0  0  0  0  1  0  0  0  0  0  0
  1 12  1  0  0  0  0
  1  8  1  0  0  0  0
  2  1  1  0  0  0  0
  3 11  1  1  0  0  0
  3  7  1  0  0  0  0
  3  2  1  0  0  0  0
  4  3  1  0  0  0  0
  5  4  1  0  0  0  0
  5 10  1  1  0  0  0
  5  6  1  0  0  0  0
  6 19  1  6  0  0  0
  6  7  1  0  0  0  0
  7  8  1  6  0  0  0
  8  9  2  0  0  0  0
 10 11  1  0  0  0  0
 12 13  1  0  0  0  0
 13 15  2  0  0  0  0
 13 14  1  0  0  0  0
 16 15  1  0  0  0  0
 17 16  2  0  0  0  0
 18 17  1  0  0  0  0
 18 12  2  0  0  0  0
 19 21  1  0  0  0  0
 20 19  2  0  0  0  0
 22 21  1  0  0  0  0
M  END
>  <Pose>
1

>  <Score>
-7.972

$$$$
