/Users/jonathanwahrer/Desktop/Msc/3_Semester/Drug_Design_Praktikum/waehrer_HTS_screening/HTS_experiment/out/docking_results/vina_output/3elj/0085_docked.pdbqt
 OpenBabel03192217183D

 26 29  0  0  0  0  0  0  0  0999 V2000
   22.9240   10.3060   31.6150 C   0  0  0  0  0  0  0  0  0  0  0  0
   21.7400   10.8390   32.1640 C   0  0  0  0  0  0  0  0  0  0  0  0
   20.6990   10.2280   32.7910 N   0  0  0  0  0  0  0  0  0  0  0  0
   19.8500   11.1550   33.1130 O   0  0  0  0  0  0  0  0  0  0  0  0
   20.2780   12.3190   32.7340 N   0  0  0  0  0  0  0  0  0  0  0  0
   21.4650   12.1810   32.1300 C   0  0  0  0  0  0  0  0  0  0  0  0
   22.3250   13.0970   31.5590 C   0  0  0  0  0  0  0  0  0  0  0  0
   23.4840   12.5700   31.0210 C   0  0  0  0  0  3  0  0  0  0  0  0
   23.7740   11.2070   31.0500 C   0  0  0  0  0  3  0  0  0  0  0  0
   23.1000    8.9020   31.7080 N   0  0  0  0  0  0  0  0  0  0  0  0
   22.9170    7.9950   30.6690 C   0  0  0  0  0  0  0  0  0  0  0  0
   22.5630    8.4160   29.5050 O   0  0  0  0  0  0  0  0  0  0  0  0
   23.4100    8.4770   32.6330 H   0  0  0  0  0  0  0  0  0  0  0  0
   23.1060    6.5350   30.8070 C   0  0  0  0  0  0  0  0  0  0  0  0
   22.3170    5.6260   31.4330 C   0  0  0  0  0  0  0  0  0  0  0  0
   20.6470    5.8870   32.3210 Br  0  0  0  0  0  0  0  0  0  0  0  0
   22.9540    4.3760   31.3000 C   0  0  0  0  0  3  0  0  0  0  0  0
   24.0650    4.6170   30.6130 N   0  0  0  0  0  0  0  0  0  0  0  0
   24.2030    5.8780   30.2960 N   0  0  0  0  0  0  0  0  0  0  0  0
   25.2890    6.4690   29.5590 C   0  0  0  0  0  1  0  0  0  0  0  0
   22.0570   14.4770   31.5160 N   0  0  0  0  0  0  0  0  0  0  0  0
   22.3870   15.2110   30.2970 C   0  0  0  0  0  2  0  0  0  0  0  0
   22.2030   16.6930   30.4740 C   0  0  0  0  0  2  0  0  0  0  0  0
   22.5850   17.2020   31.6720 O   0  0  0  0  0  0  0  0  0  0  0  0
   22.4880   16.4100   32.7780 C   0  0  0  0  0  2  0  0  0  0  0  0
   21.4820   15.3050   32.5330 C   0  0  0  0  0  2  0  0  0  0  0  0
  1 10  1  0  0  0  0
  1  2  1  0  0  0  0
  2  3  2  0  0  0  0
  3  4  1  0  0  0  0
  5  4  1  0  0  0  0
  6  2  1  0  0  0  0
  6  5  2  0  0  0  0
  7  6  1  0  0  0  0
  8  9  1  0  0  0  0
  8  7  2  0  0  0  0
  9  1  2  0  0  0  0
 10 13  1  0  0  0  0
 11 14  1  0  0  0  0
 11 10  1  0  0  0  0
 12 11  2  0  0  0  0
 14 15  2  0  0  0  0
 15 16  1  0  0  0  0
 17 15  1  0  0  0  0
 18 17  2  0  0  0  0
 19 18  1  0  0  0  0
 19 14  1  0  0  0  0
 20 19  1  0  0  0  0
 21  7  1  0  0  0  0
 21 26  1  0  0  0  0
 22 23  1  0  0  0  0
 22 21  1  0  0  0  0
 23 24  1  0  0  0  0
 24 25  1  0  0  0  0
 26 25  1  0  0  0  0
M  END
>  <Pose>
1

>  <Score>
-8.327

$$$$
