/Users/jonathanwahrer/Desktop/Msc/3_Semester/Drug_Design_Praktikum/waehrer_HTS_screening/HTS_experiment/out/docking_results/vina_output/3elj/0106_docked.pdbqt
 OpenBabel03192217183D

 29 32  0  0  0  0  0  0  0  0999 V2000
   21.5460    5.3350   32.0710 C   0  0  0  0  0  3  0  0  0  0  0  0
   21.0590    6.5200   32.3180 C   0  0  0  0  0  0  0  0  0  0  0  0
   21.7510    7.7070   32.1360 O   0  0  0  0  0  0  0  0  0  0  0  0
   20.9880    8.8070   32.4810 C   0  0  0  0  0  0  0  0  0  0  0  0
   19.7420    8.4140   32.9140 C   0  0  0  0  0  0  0  0  0  0  0  0
   18.8170    9.3570   33.3090 C   0  0  0  0  0  3  0  0  0  0  0  0
   19.1520   10.6930   33.2680 C   0  0  0  0  0  3  0  0  0  0  0  0
   20.4340   11.0690   32.8210 C   0  0  0  0  0  0  0  0  0  0  0  0
   21.3630   10.1570   32.4250 C   0  0  0  0  0  0  0  0  0  0  0  0
   20.6330   12.4590   32.8350 O   0  0  0  0  0  1  0  0  0  0  0  0
   19.7510    6.9500   32.8220 C   0  0  0  0  0  0  0  0  0  0  0  0
   18.8090    6.1830   33.1210 O   0  0  0  0  0  0  0  0  0  0  0  0
   22.8770    5.0370   31.5720 C   0  0  0  0  0  0  0  0  0  0  0  0
   23.4520    5.7160   30.5200 C   0  0  0  0  0  3  0  0  0  0  0  0
   24.6950    5.4430   30.0260 C   0  0  0  0  0  0  0  0  0  0  0  0
   25.5180    6.3610   28.5740 Br  0  0  0  0  0  0  0  0  0  0  0  0
   25.4100    4.4150   30.6320 C   0  0  0  0  0  3  0  0  0  0  0  0
   24.8830    3.6940   31.6970 C   0  0  0  0  0  3  0  0  0  0  0  0
   23.6320    4.0110   32.1490 C   0  0  0  0  0  0  0  0  0  0  0  0
   23.0770    3.3110   33.2030 O   0  0  0  0  0  0  0  0  0  0  0  0
   23.7510    2.2130   33.7580 C   0  0  0  0  0  1  0  0  0  0  0  0
   22.6770   10.4820   31.9420 C   0  0  0  0  0  2  0  0  0  0  0  0
   23.0390   10.3840   30.5880 N   0  0  0  0  0  4  0  0  0  0  0  0
   23.2390   11.6300   29.9000 C   0  0  0  0  0  2  0  0  0  0  0  0
   24.6010   12.2420   30.1170 C   0  0  0  0  0  2  0  0  0  0  0  0
   25.3780   11.5550   31.0410 O   0  0  0  0  0  0  0  0  0  0  0  0
   25.5130   10.2600   30.5520 C   0  0  0  0  0  2  0  0  0  0  0  0
   24.2230    9.5290   30.3840 C   0  0  0  0  0  2  0  0  0  0  0  0
   22.3000    9.8620   30.0750 H   0  0  0  0  0  0  0  0  0  0  0  0
  1  2  2  0  0  0  0
  2 11  1  0  0  0  0
  3  2  1  0  0  0  0
  3  4  1  0  0  0  0
  4  5  1  0  0  0  0
  5  6  2  0  0  0  0
  7  6  1  0  0  0  0
  8 10  1  0  0  0  0
  8  7  2  0  0  0  0
  9  4  2  0  0  0  0
  9  8  1  0  0  0  0
 11  5  1  0  0  0  0
 11 12  2  0  0  0  0
 13  1  1  0  0  0  0
 13 19  1  0  0  0  0
 14 13  2  0  0  0  0
 15 14  1  0  0  0  0
 15 17  2  0  0  0  0
 16 15  1  0  0  0  0
 17 18  1  0  0  0  0
 18 19  2  0  0  0  0
 19 20  1  0  0  0  0
 20 21  1  0  0  0  0
 22  9  1  0  0  0  0
 23 22  1  0  0  0  0
 24 25  1  0  0  0  0
 24 23  1  0  0  0  0
 25 26  1  0  0  0  0
 27 26  1  0  0  0  0
 28 27  1  0  0  0  0
 28 23  1  0  0  0  0
 29 23  1  0  0  0  0
M  END
>  <Pose>
1

>  <Score>
-9.263

$$$$
