/Users/jonathanwahrer/Desktop/Msc/3_Semester/Drug_Design_Praktikum/waehrer_HTS_screening/HTS_experiment/out/docking_results/vina_output/3elj/0111_docked.pdbqt
 OpenBabel03192217193D

 29 32  0  0  0  0  0  0  0  0999 V2000
   21.3660    9.5180   32.1270 C   0  0  0  0  0  0  0  0  0  0  0  0
   21.7440   10.6980   31.6850 N   0  0  0  0  0  0  0  0  0  0  0  0
   21.1080   11.6960   32.3760 C   0  0  0  0  0  0  0  0  0  0  0  0
   20.3020   11.0830   33.2740 N   0  0  0  0  0  0  0  0  0  0  0  0
   20.4420    9.8090   33.1390 N   0  0  0  0  0  0  0  0  0  0  0  0
   21.5010   12.8850   31.9150 N   0  0  0  0  0  0  0  0  0  0  0  0
   22.3820   12.6520   30.9290 C   0  0  0  0  0  0  0  0  0  0  0  0
   22.5490   11.2820   30.7610 C   0  0  0  0  0  0  0  0  0  0  0  0
   23.3430   10.7670   29.8420 N   0  0  0  0  0  0  0  0  0  0  0  0
   24.0190   11.6530   29.0450 C   0  0  0  0  0  0  0  0  0  0  0  0
   24.8030   11.2730   28.1390 O   0  0  0  0  0  0  0  0  0  0  0  0
   23.8850   12.9890   29.1810 N   0  0  0  0  0  0  0  0  0  0  0  0
   23.0830   13.5100   30.1030 C   0  0  0  0  0  0  0  0  0  0  0  0
   22.9150   14.7430   30.2790 O   0  0  0  0  0  0  0  0  0  0  0  0
   23.5550    9.3930   29.5000 C   0  0  0  0  0  1  0  0  0  0  0  0
   24.4070   13.6500   28.5680 H   0  0  0  0  0  0  0  0  0  0  0  0
   21.6220    8.1290   31.8730 C   0  0  0  0  0  0  0  0  0  0  0  0
   22.8010    7.5150   31.5740 C   0  0  0  0  0  3  0  0  0  0  0  0
   22.9810    6.1850   31.3260 C   0  0  0  0  0  0  0  0  0  0  0  0
   24.7250    5.5270   30.9240 Br  0  0  0  0  0  0  0  0  0  0  0  0
   21.9060    5.3480   31.3700 C   0  0  0  0  0  3  0  0  0  0  0  0
   20.6640    5.8870   31.6680 C   0  0  0  0  0  3  0  0  0  0  0  0
   20.5290    7.2330   31.9110 C   0  0  0  0  0  0  0  0  0  0  0  0
   19.2710    7.7310   32.2030 O   0  0  0  0  0  0  0  0  0  0  0  0
   18.2520    6.9940   32.8030 C   0  0  0  0  0  1  0  0  0  0  0  0
   21.0820   14.1790   32.3670 C   0  0  0  0  0  2  0  0  0  0  0  0
   19.6210   14.3840   32.0230 C   0  0  0  0  0  2  0  0  0  0  0  0
   19.4940   15.6030   31.3860 O   0  0  0  0  0  0  0  0  0  0  0  0
   18.3630   15.6360   30.5530 C   0  0  0  0  0  1  0  0  0  0  0  0
  1  5  2  0  0  0  0
  2  1  1  0  0  0  0
  2  3  1  0  0  0  0
  3  4  2  0  0  0  0
  5  4  1  0  0  0  0
  6 26  1  0  0  0  0
  6  3  1  0  0  0  0
  7  6  1  0  0  0  0
  8  7  2  0  0  0  0
  8  2  1  0  0  0  0
  9  8  1  0  0  0  0
 10 12  1  0  0  0  0
 10  9  1  0  0  0  0
 11 10  2  0  0  0  0
 12 13  1  0  0  0  0
 13 14  2  0  0  0  0
 13  7  1  0  0  0  0
 15  9  1  0  0  0  0
 16 12  1  0  0  0  0
 17 23  1  0  0  0  0
 17  1  1  0  0  0  0
 18 17  2  0  0  0  0
 19 21  2  0  0  0  0
 19 18  1  0  0  0  0
 20 19  1  0  0  0  0
 21 22  1  0  0  0  0
 22 23  2  0  0  0  0
 23 24  1  0  0  0  0
 24 25  1  0  0  0  0
 27 26  1  0  0  0  0
 28 27  1  0  0  0  0
 29 28  1  0  0  0  0
M  END
>  <Pose>
1

>  <Score>
-8.783

$$$$
