/Users/jonathanwahrer/Desktop/Msc/3_Semester/Drug_Design_Praktikum/waehrer_HTS_screening/HTS_experiment/out/docking_results/vina_output/3elj/0129_docked.pdbqt
 OpenBabel03192217193D

 31 34  0  0  1  0  0  0  0  0999 V2000
   23.3000    6.4910   30.1060 C   0  0  0  0  0  0  0  0  0  0  0  0
   22.8750    7.1020   29.0760 O   0  0  0  0  0  0  0  0  0  0  0  0
   24.6240    5.9660   30.1410 N   0  0  0  0  0  0  0  0  0  0  0  0
   25.0990    5.1260   31.2110 C   0  0  0  0  0  2  0  0  0  0  0  0
   25.3380    3.7710   30.5050 C   0  0  0  0  0  2  0  0  0  0  0  0
   26.5880    3.9800   29.6940 C   0  0  2  0  0  0  0  0  0  0  0  0
   26.6490    2.8770   28.7360 N   0  0  0  0  0  0  0  0  0  0  0  0
   26.6290    1.6010   29.3470 C   0  0  0  0  0  2  0  0  0  0  0  0
   27.8400    1.3420   30.2250 C   0  0  0  0  0  2  0  0  0  0  0  0
   28.3140    2.5730   30.8840 C   0  0  0  0  0  0  0  0  0  0  0  0
   29.3070    2.7320   31.7740 N   0  0  0  0  0  0  0  0  0  0  0  0
   29.3660    4.0470   32.0800 C   0  0  0  0  0  3  0  0  0  0  0  0
   28.4020    4.6880   31.3720 N   0  0  0  0  0  0  0  0  0  0  0  0
   27.7290    3.7960   30.6200 C   0  0  0  0  0  0  0  0  0  0  0  0
   26.6500    5.2570   28.9330 C   0  0  0  0  0  3  0  0  0  0  0  0
   25.5420    6.2420   29.0940 C   0  0  0  0  0  3  0  0  0  0  0  0
   27.4390    2.9910   28.0510 H   0  0  0  0  0  0  0  0  0  0  0  0
   28.2990    5.7170   31.4790 H   0  0  0  0  0  0  0  0  0  0  0  0
   22.3660    6.3500   31.2140 C   0  0  2  0  0  3  0  0  0  0  0  0
   21.4390    5.1720   30.9570 C   0  0  0  0  0  1  0  0  0  0  0  0
   21.7150    7.5520   31.5860 N   0  0  0  0  0  0  0  0  0  0  0  0
   22.3560    8.7150   32.0020 C   0  0  0  0  0  0  0  0  0  0  0  0
   23.5430    8.9760   32.0970 O   0  0  0  0  0  0  0  0  0  0  0  0
   20.6560    7.5510   31.4810 H   0  0  0  0  0  0  0  0  0  0  0  0
   21.4020    9.8140   32.4070 C   0  0  0  0  0  0  0  0  0  0  0  0
   21.7350   11.1020   32.0450 C   0  0  0  0  0  3  0  0  0  0  0  0
   20.9180   12.1400   32.4250 C   0  0  0  0  0  0  0  0  0  0  0  0
   21.3690   13.9410   31.9100 Br  0  0  0  0  0  0  0  0  0  0  0  0
   19.7710   11.9370   33.1640 C   0  0  0  0  0  3  0  0  0  0  0  0
   19.4850   10.6140   33.5060 C   0  0  0  0  0  3  0  0  0  0  0  0
   20.2830    9.5660   33.1350 C   0  0  0  0  0  3  0  0  0  0  0  0
  1  3  1  0  0  0  0
  1 19  1  0  0  0  0
  2  1  2  0  0  0  0
  3  4  1  0  0  0  0
  5  4  1  0  0  0  0
  6 15  1  6  0  0  0
  6  5  1  0  0  0  0
  6 14  1  0  0  0  0
  7  8  1  0  0  0  0
  7  6  1  0  0  0  0
  8  9  1  0  0  0  0
  9 10  1  0  0  0  0
 10 11  1  0  0  0  0
 11 12  2  0  0  0  0
 13 18  1  0  0  0  0
 13 12  1  0  0  0  0
 14 10  2  0  0  0  0
 14 13  1  0  0  0  0
 15 16  2  0  0  0  0
 16  3  1  0  0  0  0
 17  7  1  0  0  0  0
 19 20  1  6  0  0  0
 19 21  1  0  0  0  0
 21 22  1  0  0  0  0
 22 23  2  0  0  0  0
 22 25  1  0  0  0  0
 24 21  1  0  0  0  0
 25 31  1  0  0  0  0
 26 25  2  0  0  0  0
 26 27  1  0  0  0  0
 27 29  2  0  0  0  0
 28 27  1  0  0  0  0
 29 30  1  0  0  0  0
 31 30  2  0  0  0  0
M  END
>  <Pose>
1

>  <Score>
-8.278

$$$$
