/Users/jonathanwahrer/Desktop/Msc/3_Semester/Drug_Design_Praktikum/waehrer_HTS_screening/HTS_experiment/out/docking_results/vina_output/3elj/0137_docked.pdbqt
 OpenBabel03192217203D

 25 28  0  0  1  0  0  0  0  0999 V2000
   23.0530   11.3910   31.6360 C   0  0  2  0  0  3  0  0  0  0  0  0
   22.8520   11.9180   30.1680 C   0  0  0  0  0  2  0  0  0  0  0  0
   24.1730   11.9440   29.6380 N   0  0  0  0  0  0  0  0  0  0  0  0
   25.0190   11.0570   30.4230 C   0  0  1  0  0  3  0  0  0  0  0  0
   24.0810   10.2820   31.2540 C   0  0  0  0  0  2  0  0  0  0  0  0
   25.9250   10.3050   29.5410 C   0  0  0  0  0  0  0  0  0  0  0  0
   26.1530    9.1050   29.7780 O   0  0  0  0  0  0  0  0  0  0  0  0
   26.5310   10.9380   28.4330 N   0  0  0  0  0  0  0  0  0  0  0  0
   25.8290   11.9960   27.7410 C   0  0  2  0  0  3  0  0  0  0  0  0
   26.9040   12.9460   27.2520 C   0  0  0  0  0  2  0  0  0  0  0  0
   28.1910   12.2870   27.6100 C   0  0  0  0  0  2  0  0  0  0  0  0
   27.8040   10.8060   27.7310 C   0  0  0  0  0  2  0  0  0  0  0  0
   24.7920   12.6240   28.5530 C   0  0  0  0  0  0  0  0  0  0  0  0
   24.4180   13.8220   28.2960 O   0  0  0  0  0  0  0  0  0  0  0  0
   21.9210   11.0070   32.2150 N   0  0  0  0  0  0  0  0  0  0  0  0
   20.7510   10.6150   32.8170 C   0  0  0  0  0  0  0  0  0  0  0  0
   19.9240   11.2880   33.5060 O   0  0  0  0  0  0  0  0  0  0  0  0
   21.7180   12.2810   32.6960 H   0  0  0  0  0  0  0  0  0  0  0  0
   20.3030    9.1760   32.6880 C   0  0  0  0  0  0  0  0  0  0  0  0
   21.1550    8.2070   32.2170 C   0  0  0  0  0  3  0  0  0  0  0  0
   20.7780    6.8920   32.0920 C   0  0  0  0  0  0  0  0  0  0  0  0
   21.9650    5.5450   31.4670 Br  0  0  0  0  0  0  0  0  0  0  0  0
   19.4770    6.5660   32.4640 C   0  0  0  0  0  3  0  0  0  0  0  0
   18.6050    7.5050   32.9380 C   0  0  0  0  0  3  0  0  0  0  0  0
   19.0270    8.8240   33.0480 C   0  0  0  0  0  3  0  0  0  0  0  0
  1 15  1  6  0  0  0
  2  1  1  0  0  0  0
  3  2  1  0  0  0  0
  3  4  1  0  0  0  0
  4  5  1  6  0  0  0
  5  1  1  0  0  0  0
  6  7  2  0  0  0  0
  6  4  1  0  0  0  0
  8  6  1  0  0  0  0
  9 10  1  1  0  0  0
  9  8  1  0  0  0  0
  9 13  1  0  0  0  0
 10 11  1  0  0  0  0
 11 12  1  0  0  0  0
 12  8  1  0  0  0  0
 13  3  1  0  0  0  0
 14 13  2  0  0  0  0
 15 18  1  0  0  0  0
 15 16  1  0  0  0  0
 16 17  2  0  0  0  0
 19 16  1  0  0  0  0
 19 25  1  0  0  0  0
 20 19  2  0  0  0  0
 21 20  1  0  0  0  0
 21 23  2  0  0  0  0
 22 21  1  0  0  0  0
 23 24  1  0  0  0  0
 24 25  2  0  0  0  0
M  END
>  <Pose>
1

>  <Score>
-8.695

$$$$
