/Users/jonathanwahrer/Desktop/Msc/3_Semester/Drug_Design_Praktikum/waehrer_HTS_screening/HTS_experiment/out/docking_results/vina_output/3elj/0138_docked.pdbqt
 OpenBabel03192217203D

 25 28  0  0  1  0  0  0  0  0999 V2000
   23.2930    6.2600   30.4330 C   0  0  2  0  0  3  0  0  0  0  0  0
   24.2460    5.5870   31.3630 C   0  0  0  0  0  2  0  0  0  0  0  0
   25.3180    5.1320   30.4600 N   0  0  0  0  0  0  0  0  0  0  0  0
   25.1630    5.7830   29.1670 C   0  0  1  0  0  3  0  0  0  0  0  0
   24.2710    6.9480   29.4690 C   0  0  0  0  0  2  0  0  0  0  0  0
   26.4920    6.1500   28.6860 C   0  0  0  0  0  0  0  0  0  0  0  0
   26.6750    7.1930   28.0470 O   0  0  0  0  0  0  0  0  0  0  0  0
   27.6060    5.2880   28.9570 N   0  0  0  0  0  0  0  0  0  0  0  0
   27.2850    3.9780   29.4710 C   0  0  1  0  0  3  0  0  0  0  0  0
   28.5160    3.2380   29.7980 C   0  0  0  0  0  2  0  0  0  0  0  0
   29.5740    4.0180   29.0420 C   0  0  0  0  0  2  0  0  0  0  0  0
   29.0280    5.3910   28.8440 C   0  0  0  0  0  2  0  0  0  0  0  0
   26.3950    4.2210   30.6590 C   0  0  0  0  0  0  0  0  0  0  0  0
   26.5920    3.6550   31.7570 O   0  0  0  0  0  0  0  0  0  0  0  0
   22.3920    7.1680   31.0400 N   0  0  0  0  0  0  0  0  0  0  0  0
   21.1740    6.7070   31.5850 C   0  0  0  0  0  0  0  0  0  0  0  0
   20.8910    5.4600   31.5230 O   0  0  0  0  0  0  0  0  0  0  0  0
   22.6180    8.1780   31.0930 H   0  0  0  0  0  0  0  0  0  0  0  0
   20.1750    7.5410   32.2310 C   0  0  0  0  0  0  0  0  0  0  0  0
   20.3900    8.8610   32.5400 C   0  0  0  0  0  3  0  0  0  0  0  0
   19.4570    9.6590   33.1510 C   0  0  0  0  0  0  0  0  0  0  0  0
   19.7910   11.4840   33.5650 Br  0  0  0  0  0  0  0  0  0  0  0  0
   18.2290    9.1280   33.4800 C   0  0  0  0  0  3  0  0  0  0  0  0
   17.9650    7.7990   33.1870 C   0  0  0  0  0  3  0  0  0  0  0  0
   18.9480    7.0170   32.5620 C   0  0  0  0  0  3  0  0  0  0  0  0
  1 15  1  1  0  0  0
  1  2  1  0  0  0  0
  3 13  1  0  0  0  0
  3  2  1  0  0  0  0
  4  5  1  1  0  0  0
  4  3  1  0  0  0  0
  5  1  1  0  0  0  0
  6  8  1  0  0  0  0
  6  4  1  0  0  0  0
  7  6  2  0  0  0  0
  8  9  1  0  0  0  0
  9 10  1  1  0  0  0
  9 13  1  0  0  0  0
 11 10  1  0  0  0  0
 12  8  1  0  0  0  0
 12 11  1  0  0  0  0
 13 14  2  0  0  0  0
 15 18  1  0  0  0  0
 15 16  1  0  0  0  0
 16 19  1  0  0  0  0
 17 16  2  0  0  0  0
 19 20  2  0  0  0  0
 19 25  1  0  0  0  0
 20 21  1  0  0  0  0
 21 23  2  0  0  0  0
 21 22  1  0  0  0  0
 24 23  1  0  0  0  0
 25 24  2  0  0  0  0
M  END
>  <Pose>
1

>  <Score>
-8.365

$$$$
