/Users/jonathanwahrer/Desktop/Msc/3_Semester/Drug_Design_Praktikum/waehrer_HTS_screening/HTS_experiment/out/docking_results/vina_output/3elj/0141_docked.pdbqt
 OpenBabel03192217203D

 23 26  0  0  1  0  0  0  0  0999 V2000
   22.2820   12.2830   31.0930 N   0  0  0  0  0  0  0  0  0  0  0  0
   23.5050   12.8730   31.5750 C   0  0  0  0  0  0  0  0  0  0  0  0
   24.5240   12.2810   32.0530 O   0  0  0  0  0  0  0  0  0  0  0  0
   23.4050   14.3130   31.4320 C   0  0  1  0  0  3  0  0  0  0  0  0
   22.2780   14.5670   30.4110 C   0  0  2  0  0  3  0  0  0  0  0  0
   21.5250   15.7530   30.9210 C   0  0  2  0  0  3  0  0  0  0  0  0
   22.5370   16.3730   31.9050 C   0  0  0  0  0  2  0  0  0  0  0  0
   22.7870   15.0300   32.6240 C   0  0  1  0  0  3  0  0  0  0  0  0
   21.3720   14.6030   32.8190 C   0  0  0  0  0  2  0  0  0  0  0  0
   20.5620   15.2380   31.9610 C   0  0  0  0  0  2  0  0  0  0  0  0
   21.4480   13.3250   30.6680 C   0  0  0  0  0  0  0  0  0  0  0  0
   20.2070   13.2710   30.5170 O   0  0  0  0  0  0  0  0  0  0  0  0
   22.0940   10.8870   31.1100 N   0  0  0  0  0  0  0  0  0  0  0  0
   21.3310   10.1760   32.0520 C   0  0  0  0  0  0  0  0  0  0  0  0
   20.7420   10.7620   32.9770 O   0  0  0  0  0  0  0  0  0  0  0  0
   22.5600   10.2870   30.3570 H   0  0  0  0  0  0  0  0  0  0  0  0
   21.2020    8.7340   31.9850 C   0  0  0  0  0  0  0  0  0  0  0  0
   22.2180    7.9940   31.3840 C   0  0  0  0  0  3  0  0  0  0  0  0
   22.1400    6.6260   31.3030 C   0  0  0  0  0  0  0  0  0  0  0  0
   23.5610    5.6780   30.4630 Br  0  0  0  0  0  0  0  0  0  0  0  0
   21.0470    5.9390   31.8180 C   0  0  0  0  0  3  0  0  0  0  0  0
   20.0590    6.6910   32.4050 C   0  0  0  0  0  3  0  0  0  0  0  0
   20.1320    8.0630   32.4890 C   0  0  0  0  0  3  0  0  0  0  0  0
  1 13  1  0  0  0  0
  1  2  1  0  0  0  0
  2  3  2  0  0  0  0
  4  2  1  1  0  0  0
  4  8  1  0  0  0  0
  5 11  1  1  0  0  0
  5  6  1  0  0  0  0
  5  4  1  0  0  0  0
  6  7  1  1  0  0  0
  6 10  1  0  0  0  0
  8  7  1  6  0  0  0
  8  9  1  0  0  0  0
 10  9  1  0  0  0  0
 11  1  1  0  0  0  0
 12 11  2  0  0  0  0
 13 14  1  0  0  0  0
 14 15  2  0  0  0  0
 16 13  1  0  0  0  0
 17 14  1  0  0  0  0
 17 23  1  0  0  0  0
 18 17  2  0  0  0  0
 19 18  1  0  0  0  0
 19 21  2  0  0  0  0
 20 19  1  0  0  0  0
 21 22  1  0  0  0  0
 22 23  2  0  0  0  0
M  END
>  <Pose>
1

>  <Score>
-8.182

$$$$
