/Users/jonathanwahrer/Desktop/Msc/3_Semester/Drug_Design_Praktikum/waehrer_HTS_screening/HTS_experiment/out/docking_results/vina_output/3elj/0152_docked.pdbqt
 OpenBabel03192217203D

 27 30  0  0  0  0  0  0  0  0999 V2000
   21.3300    5.5030   31.7250 C   0  0  0  0  0  3  0  0  0  0  0  0
   20.9360    6.7230   32.1080 C   0  0  0  0  0  0  0  0  0  0  0  0
   21.5690    7.8700   31.8640 O   0  0  0  0  0  0  0  0  0  0  0  0
   20.8290    8.9530   32.4020 C   0  0  0  0  0  0  0  0  0  0  0  0
   19.6970    8.5160   33.0020 C   0  0  0  0  0  0  0  0  0  0  0  0
   18.8190    9.4660   33.5170 C   0  0  0  0  0  3  0  0  0  0  0  0
   19.1100   10.7920   33.4350 C   0  0  0  0  0  3  0  0  0  0  0  0
   20.2880   11.2050   32.8440 C   0  0  0  0  0  0  0  0  0  0  0  0
   21.1970   10.3240   32.3090 C   0  0  0  0  0  0  0  0  0  0  0  0
   20.5480   12.5760   32.7930 O   0  0  0  0  0  1  0  0  0  0  0  0
   19.7110    7.0410   32.8540 C   0  0  0  0  0  0  0  0  0  0  0  0
   18.8590    6.2400   33.2810 O   0  0  0  0  0  0  0  0  0  0  0  0
   22.5810    5.3400   30.9360 C   0  0  0  0  0  0  0  0  0  0  0  0
   23.5800    4.4770   31.4130 C   0  0  0  0  0  3  0  0  0  0  0  0
   24.8970    4.5440   30.9400 C   0  0  0  0  0  0  0  0  0  0  0  0
   26.1720    3.3350   31.6850 Br  0  0  0  0  0  0  0  0  0  0  0  0
   25.2470    5.4430   30.0000 C   0  0  0  0  0  3  0  0  0  0  0  0
   24.2670    6.3320   29.4860 C   0  0  0  0  0  3  0  0  0  0  0  0
   22.9470    6.2430   29.9800 C   0  0  0  0  0  3  0  0  0  0  0  0
   22.6160   10.5240   32.0920 C   0  0  0  0  0  2  0  0  0  0  0  0
   23.5110   11.4650   31.7310 N   0  0  0  0  0  4  0  0  0  0  0  0
   24.8760   11.2890   31.4910 C   0  0  0  0  0  2  0  0  0  0  0  0
   25.2290   11.0860   30.0010 C   0  0  0  0  0  2  0  0  0  0  0  0
   24.9760   12.1920   29.2250 O   0  0  0  0  0  0  0  0  0  0  0  0
   23.7850   12.7950   29.6430 C   0  0  0  0  0  2  0  0  0  0  0  0
   22.9170   11.9040   30.3620 C   0  0  0  0  0  2  0  0  0  0  0  0
   23.3700   12.3530   32.3440 H   0  0  0  0  0  0  0  0  0  0  0  0
  1  2  2  0  0  0  0
  2 11  1  0  0  0  0
  3  2  1  0  0  0  0
  3  4  1  0  0  0  0
  4  5  1  0  0  0  0
  5  6  2  0  0  0  0
  7  6  1  0  0  0  0
  8  7  2  0  0  0  0
  9  4  2  0  0  0  0
  9  8  1  0  0  0  0
 10  8  1  0  0  0  0
 11  5  1  0  0  0  0
 11 12  2  0  0  0  0
 13 14  1  0  0  0  0
 13  1  1  0  0  0  0
 15 14  2  0  0  0  0
 15 16  1  0  0  0  0
 17 15  1  0  0  0  0
 18 19  1  0  0  0  0
 18 17  2  0  0  0  0
 19 13  2  0  0  0  0
 20  9  1  0  0  0  0
 21 20  1  0  0  0  0
 21 27  1  0  0  0  0
 22 21  1  0  0  0  0
 23 22  1  0  0  0  0
 24 25  1  0  0  0  0
 24 23  1  0  0  0  0
 25 26  1  0  0  0  0
 26 21  1  0  0  0  0
M  END
>  <Pose>
1

>  <Score>
-9.872

$$$$
