/Users/jonathanwahrer/Desktop/Msc/3_Semester/Drug_Design_Praktikum/waehrer_HTS_screening/HTS_experiment/out/docking_results/vina_output/3elj/0169_docked.pdbqt
 OpenBabel03192217223D

 37 40  0  0  1  0  0  0  0  0999 V2000
   22.3950   11.0290   32.2000 C   0  0  2  0  0  3  0  0  0  0  0  0
   22.0100   12.1290   31.3370 N   0  0  0  0  0  0  0  0  0  0  0  0
   21.7820   11.5660   30.0530 C   0  0  0  0  0  0  0  0  0  0  0  0
   21.0470   12.0130   29.1460 O   0  0  0  0  0  0  0  0  0  0  0  0
   22.5870   10.3260   29.9810 C   0  0  0  0  0  0  0  0  0  0  0  0
   22.6750    9.5330   29.0190 O   0  0  0  0  0  0  0  0  0  0  0  0
   23.2620   10.2250   31.2680 C   0  0  0  0  0  0  0  0  0  0  0  0
   24.3810    9.6090   31.4940 C   0  0  0  0  0  0  0  0  0  0  0  0
   24.9210    9.6700   32.7960 O   0  0  0  0  0  1  0  0  0  0  0  0
   21.1750   10.2650   32.5550 C   0  0  0  0  0  0  0  0  0  0  0  0
   21.0960    8.8910   32.3730 C   0  0  0  0  0  3  0  0  0  0  0  0
   19.9620    8.1750   32.6930 C   0  0  0  0  0  0  0  0  0  0  0  0
   19.9220    6.2890   32.4170 Br  0  0  0  0  0  0  0  0  0  0  0  0
   18.8470    8.7970   33.2110 C   0  0  0  0  0  3  0  0  0  0  0  0
   18.9010   10.1600   33.4010 C   0  0  0  0  0  3  0  0  0  0  0  0
   20.0400   10.8670   33.0780 C   0  0  0  0  0  3  0  0  0  0  0  0
   25.1430    8.8450   30.5170 C   0  0  0  0  0  0  0  0  0  0  0  0
   26.1600    9.1530   29.6780 C   0  0  0  0  0  0  0  0  0  0  0  0
   26.5230    8.0290   29.0240 N   0  0  0  0  0  0  0  0  0  0  0  0
   26.7810   10.4980   29.4370 C   0  0  0  0  0  1  0  0  0  0  0  0
   25.7750    6.9850   29.4020 C   0  0  0  0  0  0  0  0  0  0  0  0
   27.3010    7.9890   28.3040 H   0  0  0  0  0  0  0  0  0  0  0  0
   24.9000    7.4680   30.3380 C   0  0  0  0  0  0  0  0  0  0  0  0
   23.8620    6.6600   31.0480 C   0  0  0  0  0  1  0  0  0  0  0  0
   25.8720    5.5960   28.9100 C   0  0  0  0  0  0  0  0  0  0  0  0
   25.2840    5.2820   27.8640 O   0  0  0  0  0  0  0  0  0  0  0  0
   26.6070    4.6530   29.6010 O   0  0  0  0  0  0  0  0  0  0  0  0
   26.0480    3.5020   30.1910 C   0  0  0  0  0  1  0  0  0  0  0  0
   21.8810   13.5420   31.7010 C   0  0  0  0  0  2  0  0  0  0  0  0
   23.1980   14.2690   31.5400 C   0  0  0  0  0  2  0  0  0  0  0  0
   23.2150   15.2050   30.4640 N   0  0  0  0  0  4  0  0  0  0  0  0
   21.9540   15.9120   30.2760 C   0  0  0  0  0  2  0  0  0  0  0  0
   22.2410   17.1420   29.4580 C   0  0  0  0  0  2  0  0  0  0  0  0
   23.3920   16.9490   28.7340 O   0  0  0  0  0  0  0  0  0  0  0  0
   23.4950   15.7000   28.1480 C   0  0  0  0  0  2  0  0  0  0  0  0
   23.4960   14.5740   29.1800 C   0  0  0  0  0  2  0  0  0  0  0  0
   23.9830   15.8850   30.6120 H   0  0  0  0  0  0  0  0  0  0  0  0
  1 10  1  6  0  0  0
  2 29  1  0  0  0  0
  2  1  1  0  0  0  0
  3  2  1  0  0  0  0
  4  3  2  0  0  0  0
  5  3  1  0  0  0  0
  5  7  1  0  0  0  0
  6  5  2  0  0  0  0
  7  8  2  0  0  0  0
  7  1  1  0  0  0  0
  8  9  1  0  0  0  0
 10 16  1  0  0  0  0
 11 10  2  0  0  0  0
 11 12  1  0  0  0  0
 12 14  2  0  0  0  0
 13 12  1  0  0  0  0
 14 15  1  0  0  0  0
 16 15  2  0  0  0  0
 17  8  1  0  0  0  0
 18 17  2  0  0  0  0
 19 21  1  0  0  0  0
 19 18  1  0  0  0  0
 20 18  1  0  0  0  0
 21 23  2  0  0  0  0
 22 19  1  0  0  0  0
 23 17  1  0  0  0  0
 23 24  1  0  0  0  0
 25 21  1  0  0  0  0
 25 27  1  0  0  0  0
 26 25  2  0  0  0  0
 27 28  1  0  0  0  0
 30 29  1  0  0  0  0
 31 37  1  0  0  0  0
 31 30  1  0  0  0  0
 32 31  1  0  0  0  0
 33 32  1  0  0  0  0
 34 33  1  0  0  0  0
 35 34  1  0  0  0  0
 35 36  1  0  0  0  0
 36 31  1  0  0  0  0
M  END
>  <Pose>
1

>  <Score>
-8.303

$$$$
