/Users/jonathanwahrer/Desktop/Msc/3_Semester/Drug_Design_Praktikum/waehrer_HTS_screening/HTS_experiment/out/docking_results/vina_output/3elj/0170_docked.pdbqt
 OpenBabel03192217223D

 35 38  0  0  1  0  0  0  0  0999 V2000
   22.2470    9.6460   30.4130 C   0  0  1  0  0  3  0  0  0  0  0  0
   23.0350   10.8630   30.4150 N   0  0  0  0  0  0  0  0  0  0  0  0
   24.2400   10.6780   31.1240 C   0  0  0  0  0  0  0  0  0  0  0  0
   25.0430   11.5090   31.6220 O   0  0  0  0  0  0  0  0  0  0  0  0
   24.4370    9.2090   31.2030 C   0  0  0  0  0  0  0  0  0  0  0  0
   25.4140    8.6730   31.7640 O   0  0  0  0  0  0  0  0  0  0  0  0
   23.3120    8.5900   30.5260 C   0  0  0  0  0  0  0  0  0  0  0  0
   23.2740    7.3670   30.0630 C   0  0  0  0  0  0  0  0  0  0  0  0
   22.1340    6.9340   29.3640 O   0  0  0  0  0  1  0  0  0  0  0  0
   21.2870    9.5750   31.5280 C   0  0  0  0  0  0  0  0  0  0  0  0
   20.4300    8.5100   31.6880 C   0  0  0  0  0  3  0  0  0  0  0  0
   19.5310    8.4620   32.7470 C   0  0  0  0  0  0  0  0  0  0  0  0
   18.3520    6.9790   32.9470 Br  0  0  0  0  0  0  0  0  0  0  0  0
   19.4910    9.4990   33.6650 C   0  0  0  0  0  3  0  0  0  0  0  0
   20.3530   10.5610   33.4970 C   0  0  0  0  0  3  0  0  0  0  0  0
   21.2440   10.6030   32.4430 C   0  0  0  0  0  3  0  0  0  0  0  0
   24.3570    6.4390   30.2470 C   0  0  0  0  0  0  0  0  0  0  0  0
   25.3780    6.4610   29.2860 C   0  0  0  0  0  3  0  0  0  0  0  0
   26.4260    5.5860   29.3590 C   0  0  0  0  0  0  0  0  0  0  0  0
   26.5280    4.6450   30.3770 C   0  0  0  0  0  0  0  0  0  0  0  0
   27.5080    5.6230   28.3240 C   0  0  0  0  0  1  0  0  0  0  0  0
   25.5270    4.6420   31.2970 C   0  0  0  0  0  3  0  0  0  0  0  0
   24.4610    5.5170   31.2380 C   0  0  0  0  0  3  0  0  0  0  0  0
   27.6170    3.7990   30.3800 O   0  0  0  0  0  0  0  0  0  0  0  0
   27.5180    2.4870   30.9140 C   0  0  0  0  0  1  0  0  0  0  0  0
   22.6630   12.1320   29.7680 C   0  0  0  0  0  2  0  0  0  0  0  0
   22.5150   13.2090   30.8060 C   0  0  0  0  0  2  0  0  0  0  0  0
   21.1430   13.7790   30.9340 C   0  0  0  0  0  2  0  0  0  0  0  0
   21.1210   15.1340   31.4410 N   0  0  0  0  0  4  0  0  0  0  0  0
   21.5990   15.2050   32.8070 C   0  0  0  0  0  2  0  0  0  0  0  0
   22.8700   16.0070   32.8890 C   0  0  0  0  0  2  0  0  0  0  0  0
   22.5810   17.3140   32.4470 O   0  0  0  0  0  0  0  0  0  0  0  0
   22.2140   17.3050   31.1030 C   0  0  0  0  0  2  0  0  0  0  0  0
   21.9660   15.9380   30.5520 C   0  0  0  0  0  2  0  0  0  0  0  0
   20.1810   15.5790   31.3940 H   0  0  0  0  0  0  0  0  0  0  0  0
  1  2  1  0  0  0  0
  1  7  1  0  0  0  0
  1 10  1  1  0  0  0
  2  3  1  0  0  0  0
  3  5  1  0  0  0  0
  3  4  2  0  0  0  0
  5  6  2  0  0  0  0
  7  5  1  0  0  0  0
  8 17  1  0  0  0  0
  8  7  2  0  0  0  0
  9  8  1  0  0  0  0
 10 11  2  0  0  0  0
 10 16  1  0  0  0  0
 11 12  1  0  0  0  0
 12 13  1  0  0  0  0
 12 14  2  0  0  0  0
 15 14  1  0  0  0  0
 16 15  2  0  0  0  0
 17 23  1  0  0  0  0
 18 19  1  0  0  0  0
 18 17  2  0  0  0  0
 19 20  2  0  0  0  0
 20 24  1  0  0  0  0
 20 22  1  0  0  0  0
 21 19  1  0  0  0  0
 23 22  2  0  0  0  0
 24 25  1  0  0  0  0
 26  2  1  0  0  0  0
 26 27  1  0  0  0  0
 27 28  1  0  0  0  0
 28 29  1  0  0  0  0
 29 30  1  0  0  0  0
 30 31  1  0  0  0  0
 32 31  1  0  0  0  0
 33 32  1  0  0  0  0
 34 33  1  0  0  0  0
 34 29  1  0  0  0  0
 35 29  1  0  0  0  0
M  END
>  <Pose>
1

>  <Score>
-8.216

$$$$
