/Users/jonathanwahrer/Desktop/Msc/3_Semester/Drug_Design_Praktikum/waehrer_HTS_screening/HTS_experiment/out/docking_results/vina_output/3elj/0175_docked.pdbqt
 OpenBabel03192217233D

 32 35  0  0  1  0  0  0  0  0999 V2000
   22.4000   10.7530   32.1190 C   0  0  2  0  0  3  0  0  0  0  0  0
   21.7580   11.9000   31.5500 N   0  0  0  0  0  0  0  0  0  0  0  0
   21.9100   11.7850   30.1440 C   0  0  0  0  0  0  0  0  0  0  0  0
   21.2230   12.3840   29.2790 O   0  0  0  0  0  0  0  0  0  0  0  0
   23.0130   10.8410   29.8470 C   0  0  0  0  0  0  0  0  0  0  0  0
   23.4380   10.4920   28.7330 O   0  0  0  0  0  0  0  0  0  0  0  0
   23.4970   10.4090   31.1450 C   0  0  0  0  0  0  0  0  0  0  0  0
   24.6630    9.8760   31.4380 C   0  0  0  0  0  0  0  0  0  0  0  0
   24.9760    9.5880   32.7490 O   0  0  0  0  0  1  0  0  0  0  0  0
   21.0650   13.0000   32.2490 C   0  0  0  0  0  2  0  0  0  0  0  0
   21.0250   14.1720   31.3090 C   0  0  0  0  0  2  0  0  0  0  0  0
   22.2630   14.8340   31.1130 N   0  0  0  0  0  4  0  0  0  0  0  0
   22.2110   16.0660   30.3820 C   0  0  0  0  0  2  0  0  0  0  0  0
   22.0370   17.2890   31.2410 C   0  0  0  0  0  2  0  0  0  0  0  0
   22.7890   17.2700   32.3940 O   0  0  0  0  0  0  0  0  0  0  0  0
   22.5380   16.1590   33.1640 C   0  0  0  0  0  2  0  0  0  0  0  0
   22.9540   14.9470   32.3740 C   0  0  0  0  0  2  0  0  0  0  0  0
   22.8700   14.1740   30.5400 H   0  0  0  0  0  0  0  0  0  0  0  0
   21.4770    9.5950   32.2820 C   0  0  0  0  0  0  0  0  0  0  0  0
   21.7860    8.3330   31.8190 C   0  0  0  0  0  3  0  0  0  0  0  0
   20.9260    7.2500   31.9700 C   0  0  0  0  0  0  0  0  0  0  0  0
   21.3930    5.5180   31.3130 Br  0  0  0  0  0  0  0  0  0  0  0  0
   19.7360    7.4400   32.5990 C   0  0  0  0  0  3  0  0  0  0  0  0
   19.3850    8.6760   33.0770 C   0  0  0  0  0  3  0  0  0  0  0  0
   20.2510    9.7360   32.9170 C   0  0  0  0  0  3  0  0  0  0  0  0
   25.6350    9.5740   30.4190 C   0  0  0  0  0  0  0  0  0  0  0  0
   26.5420   10.4380   29.8770 C   0  0  0  0  0  3  0  0  0  0  0  0
   27.4480    9.9990   28.9300 C   0  0  0  0  0  3  0  0  0  0  0  0
   27.5030    8.7010   28.4750 C   0  0  0  0  0  0  0  0  0  0  0  0
   26.5850    7.8290   29.0220 C   0  0  0  0  0  3  0  0  0  0  0  0
   28.4900    8.2540   27.4520 C   0  0  0  0  0  1  0  0  0  0  0  0
   25.6770    8.2450   29.9630 C   0  0  0  0  0  3  0  0  0  0  0  0
  1 19  1  6  0  0  0
  2  1  1  0  0  0  0
  2 10  1  0  0  0  0
  3  2  1  0  0  0  0
  4  3  2  0  0  0  0
  5  3  1  0  0  0  0
  5  7  1  0  0  0  0
  6  5  2  0  0  0  0
  7  8  2  0  0  0  0
  7  1  1  0  0  0  0
  8  9  1  0  0  0  0
 11 10  1  0  0  0  0
 12 11  1  0  0  0  0
 12 17  1  0  0  0  0
 13 12  1  0  0  0  0
 13 14  1  0  0  0  0
 14 15  1  0  0  0  0
 15 16  1  0  0  0  0
 17 16  1  0  0  0  0
 18 12  1  0  0  0  0
 19 25  1  0  0  0  0
 20 21  1  0  0  0  0
 20 19  2  0  0  0  0
 21 23  2  0  0  0  0
 22 21  1  0  0  0  0
 23 24  1  0  0  0  0
 25 24  2  0  0  0  0
 26  8  1  0  0  0  0
 27 26  2  0  0  0  0
 28 27  1  0  0  0  0
 29 28  2  0  0  0  0
 29 30  1  0  0  0  0
 30 32  2  0  0  0  0
 31 29  1  0  0  0  0
 32 26  1  0  0  0  0
M  END
>  <Pose>
1

>  <Score>
-8.762

$$$$
