/Users/jonathanwahrer/Desktop/Msc/3_Semester/Drug_Design_Praktikum/waehrer_HTS_screening/HTS_experiment/out/docking_results/vina_output/3elj/0182_docked.pdbqt
 OpenBabel03192217233D

 36 40  0  0  1  0  0  0  0  0999 V2000
   25.6080    8.1540   30.0320 C   0  0  2  0  0  3  0  0  0  0  0  0
   25.4510    9.5000   29.6050 N   0  0  0  0  0  0  0  0  0  0  0  0
   26.8320    9.9700   29.4560 C   0  0  0  0  0  0  0  0  0  0  0  0
   27.2240   11.1420   29.5680 O   0  0  0  0  0  0  0  0  0  0  0  0
   27.6400    8.7780   29.1500 C   0  0  0  0  0  0  0  0  0  0  0  0
   28.8730    8.7130   28.9390 O   0  0  0  0  0  0  0  0  0  0  0  0
   26.6970    7.6620   29.1380 C   0  0  0  0  0  0  0  0  0  0  0  0
   26.8030    6.5500   28.4580 C   0  0  0  0  0  0  0  0  0  0  0  0
   25.7320    5.6360   28.5500 O   0  0  0  0  0  1  0  0  0  0  0  0
   24.4730    7.2970   30.2030 C   0  0  0  0  0  0  0  0  0  0  0  0
   24.5860    6.1570   31.0220 C   0  0  0  0  0  3  0  0  0  0  0  0
   23.5570    5.2770   31.2320 C   0  0  0  0  0  0  0  0  0  0  0  0
   23.7850    3.7470   32.3620 Br  0  0  0  0  0  0  0  0  0  0  0  0
   22.3360    5.4650   30.6410 C   0  0  0  0  0  3  0  0  0  0  0  0
   22.1760    6.5660   29.8310 C   0  0  0  0  0  3  0  0  0  0  0  0
   23.2260    7.4370   29.6340 C   0  0  0  0  0  3  0  0  0  0  0  0
   27.9620    6.2290   27.6380 C   0  0  0  0  0  0  0  0  0  0  0  0
   28.3870    6.7120   26.4610 N   0  0  0  0  0  0  0  0  0  0  0  0
   29.4920    6.0650   26.0820 C   0  0  0  0  0  0  0  0  0  0  0  0
   27.8400    7.7170   25.7210 C   0  0  0  0  0  3  0  0  0  0  0  0
   29.7740    5.1490   27.0450 N   0  0  0  0  0  0  0  0  0  0  0  0
   30.1540    6.3790   24.8970 C   0  0  0  0  0  0  0  0  0  0  0  0
   28.8580    5.2180   28.0200 C   0  0  0  0  0  0  0  0  0  0  0  0
   28.7990    4.3900   29.2580 C   0  0  0  0  0  1  0  0  0  0  0  0
   29.6210    7.3940   24.1270 C   0  0  0  0  0  3  0  0  0  0  0  0
   31.3770    5.6250   24.5250 C   0  0  0  0  0  1  0  0  0  0  0  0
   28.4770    8.0450   24.5490 C   0  0  0  0  0  3  0  0  0  0  0  0
   24.3120   10.3730   29.3770 C   0  0  0  0  0  2  0  0  0  0  0  0
   23.8630   11.1540   30.5630 C   0  0  0  0  0  2  0  0  0  0  0  0
   24.5170   12.4430   30.6710 N   0  0  0  0  0  4  0  0  0  0  0  0
   24.3510   13.2240   29.4660 C   0  0  0  0  0  2  0  0  0  0  0  0
   22.9070   13.7290   29.3760 C   0  0  0  0  0  2  0  0  0  0  0  0
   22.7480   14.6160   30.4460 O   0  0  0  0  0  0  0  0  0  0  0  0
   22.7310   13.8130   31.6050 C   0  0  0  0  0  2  0  0  0  0  0  0
   24.0750   13.1670   31.8470 C   0  0  0  0  0  2  0  0  0  0  0  0
   25.5490   12.2920   30.7860 H   0  0  0  0  0  0  0  0  0  0  0  0
  1 10  1  6  0  0  0
  2  1  1  0  0  0  0
  3  4  2  0  0  0  0
  3  2  1  0  0  0  0
  5  3  1  0  0  0  0
  6  5  2  0  0  0  0
  7  5  1  0  0  0  0
  7  1  1  0  0  0  0
  8  9  1  0  0  0  0
  8  7  2  0  0  0  0
 10 11  1  0  0  0  0
 11 12  2  0  0  0  0
 12 13  1  0  0  0  0
 14 12  1  0  0  0  0
 15 14  2  0  0  0  0
 16 15  1  0  0  0  0
 16 10  2  0  0  0  0
 17 23  2  0  0  0  0
 17  8  1  0  0  0  0
 18 17  1  0  0  0  0
 19 18  1  0  0  0  0
 19 21  2  0  0  0  0
 20 18  1  0  0  0  0
 21 23  1  0  0  0  0
 22 19  1  0  0  0  0
 23 24  1  0  0  0  0
 25 27  1  0  0  0  0
 25 22  2  0  0  0  0
 26 22  1  0  0  0  0
 27 20  2  0  0  0  0
 28  2  1  0  0  0  0
 28 29  1  0  0  0  0
 29 30  1  0  0  0  0
 30 36  1  0  0  0  0
 30 35  1  0  0  0  0
 31 30  1  0  0  0  0
 32 31  1  0  0  0  0
 32 33  1  0  0  0  0
 33 34  1  0  0  0  0
 34 35  1  0  0  0  0
M  END
>  <Pose>
1

>  <Score>
-7.166

$$$$
