/Users/jonathanwahrer/Desktop/Msc/3_Semester/Drug_Design_Praktikum/waehrer_HTS_screening/HTS_experiment/out/docking_results/vina_output/3elj/0184_docked.pdbqt
 OpenBabel03192217243D

 33 36  0  0  1  0  0  0  0  0999 V2000
   22.0730    8.0540   30.8580 C   0  0  2  0  0  3  0  0  0  0  0  0
   21.2290    7.7610   32.0000 N   0  0  0  0  0  0  0  0  0  0  0  0
   20.7900    6.4100   31.8030 C   0  0  0  0  0  0  0  0  0  0  0  0
   19.7610    5.8730   32.2490 O   0  0  0  0  0  0  0  0  0  0  0  0
   21.7910    5.7570   30.9670 C   0  0  0  0  0  0  0  0  0  0  0  0
   21.8450    4.5720   30.5220 O   0  0  0  0  0  0  0  0  0  0  0  0
   22.8070    6.7610   30.6920 C   0  0  0  0  0  0  0  0  0  0  0  0
   24.0550    6.5230   30.3380 C   0  0  0  0  0  0  0  0  0  0  0  0
   24.8410    7.6500   30.0610 O   0  0  0  0  0  1  0  0  0  0  0  0
   22.9990    9.1770   31.0490 C   0  0  0  0  0  0  0  0  0  0  0  0
   23.1920   10.1690   30.1470 C   0  0  0  0  0  3  0  0  0  0  0  0
   24.0980   11.1980   30.4050 C   0  0  0  0  0  0  0  0  0  0  0  0
   24.3400   12.5700   29.1140 Br  0  0  0  0  0  0  0  0  0  0  0  0
   24.8280   11.2440   31.5840 C   0  0  0  0  0  3  0  0  0  0  0  0
   24.6170   10.2260   32.4880 C   0  0  0  0  0  3  0  0  0  0  0  0
   23.7320    9.2190   32.2400 C   0  0  0  0  0  3  0  0  0  0  0  0
   24.6580    5.2040   30.2250 C   0  0  0  0  0  0  0  0  0  0  0  0
   25.3420    4.7030   29.1860 N   0  0  0  0  0  0  0  0  0  0  0  0
   25.7920    3.4520   29.4610 C   0  0  0  0  0  0  0  0  0  0  0  0
   25.6350    5.2090   27.9510 C   0  0  0  0  0  3  0  0  0  0  0  0
   25.3540    3.1910   30.7240 N   0  0  0  0  0  0  0  0  0  0  0  0
   26.5190    2.6960   28.5540 C   0  0  0  0  0  3  0  0  0  0  0  0
   24.6730    4.2110   31.2160 C   0  0  0  0  0  0  0  0  0  0  0  0
   24.0090    4.4020   32.5250 C   0  0  0  0  0  1  0  0  0  0  0  0
   26.8120    3.2150   27.3100 C   0  0  0  0  0  3  0  0  0  0  0  0
   26.3460    4.4960   27.0360 C   0  0  0  0  0  3  0  0  0  0  0  0
   20.8700    8.6380   33.1170 C   0  0  0  0  0  2  0  0  0  0  0  0
   20.0230    9.7910   32.7190 C   0  0  0  0  0  2  0  0  0  0  0  0
   19.6460   10.7760   33.7480 C   0  0  0  0  0  2  0  0  0  0  0  0
   19.9280   12.1380   33.4610 N   0  0  0  0  0  4  0  0  0  0  0  0
   18.7340   12.8070   33.0040 C   0  0  0  0  0  1  0  0  0  0  0  0
   20.8820   12.2110   32.3370 C   0  0  0  0  0  1  0  0  0  0  0  0
   20.4110   12.6520   34.2300 H   0  0  0  0  0  0  0  0  0  0  0  0
  1 10  1  1  0  0  0
  1  2  1  0  0  0  0
  2 27  1  0  0  0  0
  3  2  1  0  0  0  0
  3  4  2  0  0  0  0
  5  3  1  0  0  0  0
  6  5  2  0  0  0  0
  7  1  1  0  0  0  0
  7  5  1  0  0  0  0
  8  7  2  0  0  0  0
  9  8  1  0  0  0  0
 10 16  1  0  0  0  0
 11 12  1  0  0  0  0
 11 10  2  0  0  0  0
 12 14  2  0  0  0  0
 13 12  1  0  0  0  0
 14 15  1  0  0  0  0
 16 15  2  0  0  0  0
 17  8  1  0  0  0  0
 17 23  2  0  0  0  0
 18 19  1  0  0  0  0
 18 17  1  0  0  0  0
 19 21  2  0  0  0  0
 20 18  1  0  0  0  0
 21 23  1  0  0  0  0
 22 19  1  0  0  0  0
 23 24  1  0  0  0  0
 25 22  2  0  0  0  0
 26 25  1  0  0  0  0
 26 20  2  0  0  0  0
 28 27  1  0  0  0  0
 28 29  1  0  0  0  0
 30 29  1  0  0  0  0
 30 33  1  0  0  0  0
 31 30  1  0  0  0  0
 32 30  1  0  0  0  0
M  END
>  <Pose>
1

>  <Score>
-8.458

$$$$
