/Users/jonathanwahrer/Desktop/Msc/3_Semester/Drug_Design_Praktikum/waehrer_HTS_screening/HTS_experiment/out/docking_results/vina_output/3elj/0188_docked.pdbqt
 OpenBabel03192217243D

 31 34  0  0  1  0  0  0  0  0999 V2000
   22.4990   10.9720   32.1440 C   0  0  2  0  0  3  0  0  0  0  0  0
   22.1040   12.0610   31.2640 N   0  0  0  0  0  0  0  0  0  0  0  0
   21.8570   11.3920   30.0050 C   0  0  0  0  0  0  0  0  0  0  0  0
   21.1120   11.7910   29.0840 O   0  0  0  0  0  0  0  0  0  0  0  0
   22.6230   10.1540   29.9750 C   0  0  0  0  0  0  0  0  0  0  0  0
   22.7160    9.2600   29.0950 O   0  0  0  0  0  0  0  0  0  0  0  0
   23.3400   10.0970   31.2480 C   0  0  0  0  0  0  0  0  0  0  0  0
   24.4200    9.4420   31.5630 C   0  0  0  0  0  0  0  0  0  0  0  0
   24.8880    9.5330   32.8910 O   0  0  0  0  0  1  0  0  0  0  0  0
   21.9500   13.4720   31.5030 C   0  0  0  0  0  2  0  0  0  0  0  0
   22.7940   14.3410   30.6000 C   0  0  0  0  0  2  0  0  0  0  0  0
   23.9460   13.5640   30.0980 C   0  0  0  0  0  2  0  0  0  0  0  0
   23.9910   13.3880   28.6640 N   0  0  0  0  0  4  0  0  0  0  0  0
   24.1830   14.6330   27.9590 C   0  0  0  0  0  2  0  0  0  0  0  0
   25.5930   14.9340   27.5930 C   0  0  0  0  0  2  0  0  0  0  0  0
   26.3280   13.8650   27.1260 O   0  0  0  0  0  0  0  0  0  0  0  0
   26.2490   12.7380   27.9340 C   0  0  0  0  0  2  0  0  0  0  0  0
   24.8230   12.3300   28.2000 C   0  0  0  0  0  2  0  0  0  0  0  0
   22.9920   13.0980   28.4130 H   0  0  0  0  0  0  0  0  0  0  0  0
   21.3230   10.1400   32.5380 C   0  0  0  0  0  0  0  0  0  0  0  0
   21.3460    8.7730   32.3700 C   0  0  0  0  0  3  0  0  0  0  0  0
   20.2820    7.9550   32.7180 C   0  0  0  0  0  0  0  0  0  0  0  0
   20.3580    6.0550   32.4680 Br  0  0  0  0  0  0  0  0  0  0  0  0
   19.1430    8.5160   33.2590 C   0  0  0  0  0  3  0  0  0  0  0  0
   19.1000    9.8860   33.4360 C   0  0  0  0  0  3  0  0  0  0  0  0
   20.1800   10.6960   33.0800 C   0  0  0  0  0  3  0  0  0  0  0  0
   25.1200    8.6460   30.5710 C   0  0  0  0  0  0  0  0  0  0  0  0
   24.8600    7.3850   30.3470 O   0  0  0  0  0  0  0  0  0  0  0  0
   25.6300    6.9020   29.4110 C   0  0  0  0  0  3  0  0  0  0  0  0
   26.4540    7.8990   28.9840 C   0  0  0  0  0  3  0  0  0  0  0  0
   26.1290    9.0350   29.7340 C   0  0  0  0  0  3  0  0  0  0  0  0
  1 20  1  6  0  0  0
  2 10  1  0  0  0  0
  2  1  1  0  0  0  0
  3  2  1  0  0  0  0
  4  3  2  0  0  0  0
  5  3  1  0  0  0  0
  5  7  1  0  0  0  0
  6  5  2  0  0  0  0
  7  8  2  0  0  0  0
  7  1  1  0  0  0  0
  8  9  1  0  0  0  0
 11 10  1  0  0  0  0
 12 11  1  0  0  0  0
 13 12  1  0  0  0  0
 14 13  1  0  0  0  0
 15 14  1  0  0  0  0
 16 15  1  0  0  0  0
 16 17  1  0  0  0  0
 17 18  1  0  0  0  0
 18 13  1  0  0  0  0
 19 13  1  0  0  0  0
 20 26  1  0  0  0  0
 21 20  2  0  0  0  0
 21 22  1  0  0  0  0
 22 24  2  0  0  0  0
 23 22  1  0  0  0  0
 24 25  1  0  0  0  0
 26 25  2  0  0  0  0
 27  8  1  0  0  0  0
 28 27  1  0  0  0  0
 29 28  1  0  0  0  0
 30 29  2  0  0  0  0
 30 31  1  0  0  0  0
 31 27  2  0  0  0  0
M  END
>  <Pose>
1

>  <Score>
-7.463

$$$$
