/Users/jonathanwahrer/Desktop/Msc/3_Semester/Drug_Design_Praktikum/waehrer_HTS_screening/HTS_experiment/out/docking_results/vina_output/3elj/0191_docked.pdbqt
 OpenBabel03192217243D

 34 37  0  0  1  0  0  0  0  0999 V2000
   24.4970    5.0610   29.7160 C   0  0  2  0  0  3  0  0  0  0  0  0
   25.4110    5.7560   28.8320 N   0  0  0  0  0  0  0  0  0  0  0  0
   25.7760    6.9690   29.5250 C   0  0  0  0  0  0  0  0  0  0  0  0
   26.8140    7.6430   29.3150 O   0  0  0  0  0  0  0  0  0  0  0  0
   24.7090    7.2380   30.4940 C   0  0  0  0  0  0  0  0  0  0  0  0
   24.6140    8.1910   31.3090 O   0  0  0  0  0  0  0  0  0  0  0  0
   23.7160    6.1770   30.3680 C   0  0  0  0  0  0  0  0  0  0  0  0
   22.4520    6.2030   30.7520 C   0  0  0  0  0  0  0  0  0  0  0  0
   21.6700    5.0900   30.5660 O   0  0  0  0  0  1  0  0  0  0  0  0
   25.1830    4.2320   30.7400 C   0  0  0  0  0  0  0  0  0  0  0  0
   24.4620    3.5030   31.6880 C   0  0  0  0  0  3  0  0  0  0  0  0
   25.0500    2.7330   32.6480 C   0  0  0  0  0  0  0  0  0  0  0  0
   23.9720    1.7600   33.9120 Br  0  0  0  0  0  0  0  0  0  0  0  0
   26.4090    2.6480   32.7140 C   0  0  0  0  0  3  0  0  0  0  0  0
   27.1650    3.3410   31.8120 C   0  0  0  0  0  3  0  0  0  0  0  0
   26.5530    4.1240   30.8360 C   0  0  0  0  0  3  0  0  0  0  0  0
   21.8620    7.4030   31.3740 C   0  0  0  0  0  0  0  0  0  0  0  0
   22.1930    8.6370   31.1040 O   0  0  0  0  0  0  0  0  0  0  0  0
   21.5290    9.5120   31.7840 C   0  0  0  0  0  0  0  0  0  0  0  0
   20.6660    8.8130   32.5930 C   0  0  0  0  0  0  0  0  0  0  0  0
   21.5920   10.8990   31.7820 C   0  0  0  0  0  0  0  0  0  0  0  0
   20.8780    7.4760   32.3310 C   0  0  0  0  0  3  0  0  0  0  0  0
   19.8360    9.5260   33.4300 C   0  0  0  0  0  3  0  0  0  0  0  0
   19.8560   10.9060   33.4700 C   0  0  0  0  0  3  0  0  0  0  0  0
   20.7510   11.5760   32.6290 C   0  0  0  0  0  3  0  0  0  0  0  0
   22.4530   11.5940   30.9720 O   0  0  0  0  0  0  0  0  0  0  0  0
   23.6910   12.1220   31.3270 C   0  0  0  0  0  1  0  0  0  0  0  0
   25.8970    5.3470   27.5370 C   0  0  0  0  0  2  0  0  0  0  0  0
   27.3200    4.8480   27.6110 C   0  0  0  0  0  3  0  0  0  0  0  0
   28.3100    5.6450   26.8410 C   0  0  0  0  0  3  0  0  0  0  0  0
   27.7470    6.5580   25.8940 N   0  0  0  0  0  4  0  0  0  0  0  0
   28.1070    6.1720   24.5270 C   0  0  0  0  0  1  0  0  0  0  0  0
   28.1410    7.9130   26.1270 C   0  0  0  0  0  1  0  0  0  0  0  0
   26.6870    6.5370   25.8950 H   0  0  0  0  0  0  0  0  0  0  0  0
  1  7  1  0  0  0  0
  1 10  1  1  0  0  0
  2  3  1  0  0  0  0
  2  1  1  0  0  0  0
  3  5  1  0  0  0  0
  4  3  2  0  0  0  0
  5  6  2  0  0  0  0
  7  5  1  0  0  0  0
  7  8  2  0  0  0  0
  8 17  1  0  0  0  0
  9  8  1  0  0  0  0
 10 16  2  0  0  0  0
 10 11  1  0  0  0  0
 11 12  2  0  0  0  0
 12 14  1  0  0  0  0
 12 13  1  0  0  0  0
 15 14  2  0  0  0  0
 16 15  1  0  0  0  0
 17 22  2  0  0  0  0
 18 17  1  0  0  0  0
 18 19  1  0  0  0  0
 19 20  1  0  0  0  0
 20 23  2  0  0  0  0
 21 19  2  0  0  0  0
 21 25  1  0  0  0  0
 22 20  1  0  0  0  0
 23 24  1  0  0  0  0
 25 24  2  0  0  0  0
 26 27  1  0  0  0  0
 26 21  1  0  0  0  0
 28 29  1  0  0  0  0
 28  2  1  0  0  0  0
 30 29  2  0  0  0  0
 31 34  1  0  0  0  0
 31 33  1  0  0  0  0
 31 30  1  0  0  0  0
 32 31  1  0  0  0  0
M  END
>  <Pose>
1

>  <Score>
-8.649

$$$$
