/Users/jonathanwahrer/Desktop/Msc/3_Semester/Drug_Design_Praktikum/waehrer_HTS_screening/HTS_experiment/out/docking_results/vina_output/3elj/0200_docked.pdbqt
 OpenBabel03192217253D

 21 24  0  0  1  0  0  0  0  0999 V2000
   20.6190   11.7230   32.7930 C   0  0  1  0  0  3  0  0  0  0  0  0
   21.8500   11.6260   32.3040 N   0  0  0  0  0  0  0  0  0  0  0  0
   22.4310   12.5190   31.4850 C   0  0  0  0  0  0  0  0  0  0  0  0
   23.6220   12.6480   30.8740 N   0  0  0  0  0  2  0  0  0  0  0  0
   23.6740   13.7340   30.1690 O   0  0  0  0  0  0  0  0  0  0  0  0
   22.5440   14.3330   30.2960 N   0  0  0  0  0  0  0  0  0  0  0  0
   21.7160   13.6440   31.0980 C   0  0  0  0  0  0  0  0  0  0  0  0
   20.4670   13.7850   31.5660 N   0  0  0  0  0  0  0  0  0  0  0  0
   19.5930   14.7630   31.3420 N   0  0  0  0  0  0  0  0  0  0  0  0
   18.4780   14.4620   32.0260 N   0  0  0  0  0  0  0  0  0  0  0  0
   18.6840   13.3060   32.6600 N   0  0  0  0  0  0  0  0  0  0  0  0
   19.9170   12.8730   32.3830 C   0  0  0  0  0  0  0  0  0  0  0  0
   19.9670   10.8110   33.6550 N   0  0  0  0  0  0  0  0  0  0  0  0
   19.7630   11.0920   34.6560 H   0  0  0  0  0  0  0  0  0  0  0  0
   19.5510    9.5140   33.2860 C   0  0  0  0  0  0  0  0  0  0  0  0
   20.3430    8.5030   32.8120 C   0  0  0  0  0  3  0  0  0  0  0  0
   19.8930    7.2410   32.4590 C   0  0  0  0  0  0  0  0  0  0  0  0
   21.0820    5.9010   31.8060 Br  0  0  0  0  0  0  0  0  0  0  0  0
   18.5580    6.9600   32.5860 C   0  0  0  0  0  3  0  0  0  0  0  0
   17.7060    7.9340   33.0590 C   0  0  0  0  0  3  0  0  0  0  0  0
   18.1860    9.1740   33.3990 C   0  0  0  0  0  3  0  0  0  0  0  0
  1 13  1  6  0  0  0
  2  1  1  0  0  0  0
  3  2  2  0  0  0  0
  4  3  1  0  0  0  0
  5  6  1  0  0  0  0
  5  4  1  0  0  0  0
  6  7  2  0  0  0  0
  7  3  1  0  0  0  0
  7  8  1  0  0  0  0
  8 12  1  0  0  0  0
  9  8  1  0  0  0  0
  9 10  2  0  0  0  0
 10 11  1  0  0  0  0
 12 11  2  0  0  0  0
 12  1  1  0  0  0  0
 13 14  1  0  0  0  0
 15 21  1  0  0  0  0
 15 13  1  0  0  0  0
 16 15  2  0  0  0  0
 17 19  2  0  0  0  0
 17 16  1  0  0  0  0
 18 17  1  0  0  0  0
 19 20  1  0  0  0  0
 20 21  2  0  0  0  0
M  END
>  <Pose>
1

>  <Score>
-8.560

$$$$
