/Users/jonathanwahrer/Desktop/Msc/3_Semester/Drug_Design_Praktikum/waehrer_HTS_screening/HTS_experiment/out/docking_results/vina_output/3elj/0205_docked.pdbqt
 OpenBabel03192217253D

 25 28  0  0  1  0  0  0  0  0999 V2000
   22.4470    9.1670   31.6610 N   0  0  0  0  0  0  0  0  0  0  0  0
   21.3350    8.5220   32.3130 C   0  0  0  0  0  0  0  0  0  0  0  0
   20.6990    9.0300   33.2800 O   0  0  0  0  0  0  0  0  0  0  0  0
   21.0880    7.2300   31.6760 C   0  0  2  0  0  3  0  0  0  0  0  0
   20.6840    6.1890   32.4650 O   0  0  0  0  0  0  0  0  0  0  0  0
   21.2920    5.0990   31.8470 N   0  0  0  0  0  0  0  0  0  0  0  0
   22.5760    5.4930   31.4270 C   0  0  0  0  0  0  0  0  0  0  0  0
   22.4980    6.8270   31.3130 C   0  0  0  0  0  0  0  0  0  0  0  0
   23.1690    8.0910   31.0360 C   0  0  0  0  0  0  0  0  0  0  0  0
   24.2120    8.2210   30.3620 O   0  0  0  0  0  0  0  0  0  0  0  0
   20.8740    4.1680   31.7200 H   0  0  0  0  0  0  0  0  0  0  0  0
   22.7930   10.5360   31.6260 C   0  0  0  0  0  0  0  0  0  0  0  0
   21.8330   11.5380   31.4990 C   0  0  0  0  0  3  0  0  0  0  0  0
   22.1250   12.8780   31.4620 C   0  0  0  0  0  0  0  0  0  0  0  0
   20.7820   14.2200   31.2830 Br  0  0  0  0  0  0  0  0  0  0  0  0
   23.4340   13.3040   31.5520 C   0  0  0  0  0  3  0  0  0  0  0  0
   24.4080   12.3180   31.6810 C   0  0  0  0  0  3  0  0  0  0  0  0
   24.1040   10.9790   31.7160 C   0  0  0  0  0  3  0  0  0  0  0  0
   23.7370    4.6730   31.1190 C   0  0  0  0  0  0  0  0  0  0  0  0
   24.1980    3.6180   31.9140 C   0  0  0  0  0  0  0  0  0  0  0  0
   25.2470    3.0810   31.3240 N   0  0  0  0  0  0  0  0  0  0  0  0
   23.6270    3.1890   33.2120 C   0  0  0  0  0  1  0  0  0  0  0  0
   25.4790    3.7430   30.1930 N   0  0  0  0  0  0  0  0  0  0  0  0
   26.0450    1.9560   31.8100 C   0  0  0  0  0  1  0  0  0  0  0  0
   24.5850    4.7070   30.0480 C   0  0  0  0  0  3  0  0  0  0  0  0
  1  2  1  0  0  0  0
  2  3  2  0  0  0  0
  4  8  1  1  0  0  0
  4  2  1  0  0  0  0
  4  5  1  0  0  0  0
  6  5  1  0  0  0  0
  7  6  1  0  0  0  0
  8  7  2  0  0  0  0
  9  8  1  0  0  0  0
  9  1  1  0  0  0  0
 10  9  2  0  0  0  0
 11  6  1  0  0  0  0
 12  1  1  0  0  0  0
 12 18  1  0  0  0  0
 13 12  2  0  0  0  0
 14 13  1  0  0  0  0
 14 16  2  0  0  0  0
 15 14  1  0  0  0  0
 16 17  1  0  0  0  0
 17 18  2  0  0  0  0
 19  7  1  0  0  0  0
 19 20  2  0  0  0  0
 20 22  1  0  0  0  0
 21 24  1  0  0  0  0
 21 20  1  0  0  0  0
 23 21  1  0  0  0  0
 25 23  2  0  0  0  0
 25 19  1  0  0  0  0
M  END
>  <Pose>
1

>  <Score>
-8.573

$$$$
