/Users/jonathanwahrer/Desktop/Msc/3_Semester/Drug_Design_Praktikum/waehrer_HTS_screening/HTS_experiment/out/docking_results/vina_output/3elj/0213_docked.pdbqt
 OpenBabel03192217253D

 25 28  0  0  1  0  0  0  0  0999 V2000
   22.2470    9.5720   31.3600 N   0  0  0  0  0  0  0  0  0  0  0  0
   23.2990    9.9590   30.4480 C   0  0  0  0  0  0  0  0  0  0  0  0
   23.7040    9.3540   29.4500 O   0  0  0  0  0  0  0  0  0  0  0  0
   23.8420   11.2650   30.9200 C   0  0  1  0  0  3  0  0  0  0  0  0
   24.2220   12.1250   29.9050 O   0  0  0  0  0  0  0  0  0  0  0  0
   23.9820   13.3510   30.4770 N   0  0  0  0  0  0  0  0  0  0  0  0
   22.6950   13.2060   31.1050 C   0  0  0  0  0  0  0  0  0  0  0  0
   22.5670   11.9340   31.3940 C   0  0  0  0  0  0  0  0  0  0  0  0
   21.7970   10.8130   31.9470 C   0  0  0  0  0  0  0  0  0  0  0  0
   20.9050   10.9680   32.7880 O   0  0  0  0  0  0  0  0  0  0  0  0
   24.5650   14.1950   30.4740 H   0  0  0  0  0  0  0  0  0  0  0  0
   21.7940    8.2530   31.5940 C   0  0  0  0  0  0  0  0  0  0  0  0
   22.6330    7.1840   31.3760 C   0  0  0  0  0  3  0  0  0  0  0  0
   22.2080    5.8700   31.5940 C   0  0  0  0  0  0  0  0  0  0  0  0
   23.3890    4.4100   31.2830 Br  0  0  0  0  0  0  0  0  0  0  0  0
   20.9340    5.5970   32.0350 C   0  0  0  0  0  3  0  0  0  0  0  0
   20.0930    6.6660   32.2540 C   0  0  0  0  0  3  0  0  0  0  0  0
   20.5230    7.9830   32.0340 C   0  0  0  0  0  3  0  0  0  0  0  0
   21.7080   14.2170   31.3730 C   0  0  0  0  0  0  0  0  0  0  0  0
   20.4300   14.1820   30.8180 C   0  0  0  0  0  3  0  0  0  0  0  0
   19.7230   15.2400   31.2530 N   0  0  0  0  0  0  0  0  0  0  0  0
   20.5340   15.9110   32.0520 N   0  0  0  0  0  0  0  0  0  0  0  0
   18.3320   15.5700   30.9010 C   0  0  0  0  0  1  0  0  0  0  0  0
   21.7340   15.3450   32.1600 C   0  0  0  0  0  0  0  0  0  0  0  0
   22.9080   15.8070   32.9760 C   0  0  0  0  0  1  0  0  0  0  0  0
  1 12  1  0  0  0  0
  1  9  1  0  0  0  0
  2  4  1  0  0  0  0
  2  1  1  0  0  0  0
  3  2  2  0  0  0  0
  4  5  1  6  0  0  0
  4  8  1  0  0  0  0
  5  6  1  0  0  0  0
  6  7  1  0  0  0  0
  7 19  1  0  0  0  0
  7  8  2  0  0  0  0
  8  9  1  0  0  0  0
  9 10  2  0  0  0  0
 11  6  1  0  0  0  0
 12 18  1  0  0  0  0
 13 14  1  0  0  0  0
 13 12  2  0  0  0  0
 14 16  2  0  0  0  0
 15 14  1  0  0  0  0
 16 17  1  0  0  0  0
 18 17  2  0  0  0  0
 19 24  1  0  0  0  0
 20 21  1  0  0  0  0
 20 19  2  0  0  0  0
 21 22  1  0  0  0  0
 22 24  2  0  0  0  0
 23 21  1  0  0  0  0
 24 25  1  0  0  0  0
M  END
>  <Pose>
1

>  <Score>
-9.677

$$$$
