/Users/jonathanwahrer/Desktop/Msc/3_Semester/Drug_Design_Praktikum/waehrer_HTS_screening/HTS_experiment/out/docking_results/vina_output/3elj/0219_docked.pdbqt
 OpenBabel03192217263D

 27 30  0  0  1  0  0  0  0  0999 V2000
   23.4650    7.2040   30.7330 N   0  0  0  0  0  0  0  0  0  0  0  0
   24.5180    7.5220   29.8320 C   0  0  0  0  0  0  0  0  0  0  0  0
   24.5490    6.8150   28.7650 O   0  0  0  0  0  0  0  0  0  0  0  0
   23.3890    7.7520   31.6160 H   0  0  0  0  0  0  0  0  0  0  0  0
   25.5330    8.5730   30.0510 C   0  0  0  0  0  2  0  0  0  0  0  0
   24.9970    9.8690   30.3680 N   0  0  0  0  0  0  0  0  0  0  0  0
   24.7840   10.2950   31.7240 C   0  0  0  0  0  0  0  0  0  0  0  0
   24.7290    9.5800   32.7560 O   0  0  0  0  0  0  0  0  0  0  0  0
   24.6350   11.7500   31.7130 C   0  0  1  0  0  3  0  0  0  0  0  0
   24.7770   12.2040   30.2460 C   0  0  2  0  0  3  0  0  0  0  0  0
   23.2480   12.2480   32.0140 C   0  0  1  0  0  3  0  0  0  0  0  0
   23.6120   13.0880   29.9710 C   0  0  2  0  0  3  0  0  0  0  0  0
   24.6090   10.9350   29.4910 C   0  0  0  0  0  0  0  0  0  0  0  0
   23.3370   13.6510   31.3810 C   0  0  0  0  0  2  0  0  0  0  0  0
   22.4130   12.2210   29.8530 C   0  0  0  0  0  2  0  0  0  0  0  0
   22.3000   11.6200   31.0330 C   0  0  0  0  0  2  0  0  0  0  0  0
   24.2080   10.7900   28.3230 O   0  0  0  0  0  0  0  0  0  0  0  0
   22.5110    6.1690   30.4750 C   0  0  0  0  0  2  0  0  0  0  0  0
   21.8480    5.7110   31.7840 C   0  0  0  0  0  2  0  0  0  0  0  0
   20.8670    6.4820   32.1230 O   0  0  0  0  0  0  0  0  0  0  0  0
   19.9520    7.2840   32.5250 C   0  0  0  0  0  0  0  0  0  0  0  0
   20.2560    8.6340   32.7770 C   0  0  0  0  0  3  0  0  0  0  0  0
   19.3290    9.5430   33.2090 C   0  0  0  0  0  0  0  0  0  0  0  0
   19.7800   11.3690   33.5400 Br  0  0  0  0  0  0  0  0  0  0  0  0
   18.0330    9.1550   33.4160 C   0  0  0  0  0  3  0  0  0  0  0  0
   17.6730    7.8420   33.1860 C   0  0  0  0  0  3  0  0  0  0  0  0
   18.6060    6.9310   32.7530 C   0  0  0  0  0  3  0  0  0  0  0  0
  1  4  1  0  0  0  0
  2  5  1  0  0  0  0
  2  1  1  0  0  0  0
  3  2  2  0  0  0  0
  5  6  1  0  0  0  0
  6  7  1  0  0  0  0
  7  8  2  0  0  0  0
  9  7  1  6  0  0  0
  9 11  1  0  0  0  0
 10 13  1  6  0  0  0
 10  9  1  0  0  0  0
 11 16  1  6  0  0  0
 12 15  1  1  0  0  0
 12 10  1  0  0  0  0
 12 14  1  0  0  0  0
 13  6  1  0  0  0  0
 14 11  1  0  0  0  0
 15 16  1  0  0  0  0
 17 13  2  0  0  0  0
 18  1  1  0  0  0  0
 18 19  1  0  0  0  0
 19 20  1  0  0  0  0
 20 21  1  0  0  0  0
 21 27  2  0  0  0  0
 21 22  1  0  0  0  0
 22 23  2  0  0  0  0
 23 25  1  0  0  0  0
 23 24  1  0  0  0  0
 26 25  2  0  0  0  0
 27 26  1  0  0  0  0
M  END
>  <Pose>
1

>  <Score>
-8.177

$$$$
