/Users/jonathanwahrer/Desktop/Msc/3_Semester/Drug_Design_Praktikum/waehrer_HTS_screening/HTS_experiment/out/docking_results/vina_output/3elj/0247_docked.pdbqt
 OpenBabel03192217273D

 23 26  0  0  1  0  0  0  0  0999 V2000
   23.4980    7.3330   30.8340 N   0  0  0  0  0  0  0  0  0  0  0  0
   22.2640    8.0080   31.0460 C   0  0  0  0  0  0  0  0  0  0  0  0
   21.3780    7.5450   31.8420 O   0  0  0  0  0  0  0  0  0  0  0  0
   22.2010    9.2510   30.2330 C   0  0  2  0  0  3  0  0  0  0  0  0
   23.6000    9.3160   29.6510 C   0  0  1  0  0  3  0  0  0  0  0  0
   24.2510   10.3040   30.5940 C   0  0  1  0  0  3  0  0  0  0  0  0
   23.1640   11.3960   30.5140 C   0  0  0  0  0  2  0  0  0  0  0  0
   22.0860   10.4690   31.1060 C   0  0  2  0  0  3  0  0  0  0  0  0
   22.7990   10.1260   32.3880 C   0  0  0  0  0  2  0  0  0  0  0  0
   24.0530    9.9030   32.0150 C   0  0  0  0  0  2  0  0  0  0  0  0
   24.1770    7.9650   29.7670 C   0  0  0  0  0  0  0  0  0  0  0  0
   25.0860    7.4960   29.0490 O   0  0  0  0  0  0  0  0  0  0  0  0
   24.0370    6.2160   31.5240 N   0  0  0  0  0  0  0  0  0  0  0  0
   23.4920    4.9240   31.3700 C   0  0  0  0  0  0  0  0  0  0  0  0
   22.4980    4.7030   30.6030 O   0  0  0  0  0  0  0  0  0  0  0  0
   24.8510    6.3650   32.1470 H   0  0  0  0  0  0  0  0  0  0  0  0
   24.0520    3.8000   32.0810 C   0  0  0  0  0  0  0  0  0  0  0  0
   23.3510    3.2680   33.1590 C   0  0  0  0  0  3  0  0  0  0  0  0
   23.8520    2.2010   33.8770 C   0  0  0  0  0  3  0  0  0  0  0  0
   25.0520    1.6440   33.5420 C   0  0  0  0  0  0  0  0  0  0  0  0
   25.7280    0.1690   34.5540 Br  0  0  0  0  0  0  0  0  0  0  0  0
   25.7670    2.1660   32.4640 C   0  0  0  0  0  3  0  0  0  0  0  0
   25.2600    3.2260   31.7590 C   0  0  0  0  0  3  0  0  0  0  0  0
  1  2  1  0  0  0  0
  1 13  1  0  0  0  0
  2  3  2  0  0  0  0
  4  2  1  1  0  0  0
  4  8  1  0  0  0  0
  5 11  1  1  0  0  0
  5  4  1  0  0  0  0
  5  6  1  0  0  0  0
  6  7  1  1  0  0  0
  6 10  1  0  0  0  0
  8  7  1  6  0  0  0
  8  9  1  0  0  0  0
 10  9  1  0  0  0  0
 11  1  1  0  0  0  0
 12 11  2  0  0  0  0
 13 16  1  0  0  0  0
 14 13  1  0  0  0  0
 14 17  1  0  0  0  0
 15 14  2  0  0  0  0
 17 18  1  0  0  0  0
 18 19  2  0  0  0  0
 20 19  1  0  0  0  0
 20 21  1  0  0  0  0
 22 20  2  0  0  0  0
 23 17  2  0  0  0  0
 23 22  1  0  0  0  0
M  END
>  <Pose>
1

>  <Score>
-7.708

$$$$
