/Users/jonathanwahrer/Desktop/Msc/3_Semester/Drug_Design_Praktikum/waehrer_HTS_screening/HTS_experiment/out/docking_results/vina_output/3elj/0257_docked.pdbqt
 OpenBabel03192217273D

 31 34  0  0  1  0  0  0  0  0999 V2000
   23.9590   10.9940   30.4050 C   0  0  2  0  0  3  0  0  0  0  0  0
   23.2920   12.1270   29.6890 C   0  0  2  0  0  3  0  0  0  0  0  0
   24.4210   12.6920   28.9590 N   0  0  0  0  0  0  0  0  0  0  0  0
   25.1650   11.5420   28.5090 C   0  0  0  0  0  0  0  0  0  0  0  0
   25.9070   11.5320   27.5130 O   0  0  0  0  0  0  0  0  0  0  0  0
   24.8800   10.4300   29.4290 C   0  0  0  0  0  0  0  0  0  0  0  0
   25.3260    9.2540   29.3850 O   0  0  0  0  0  0  0  0  0  0  0  0
   23.7500   10.5630   31.6230 C   0  0  2  0  0  3  0  0  0  0  0  0
   24.7040   10.8580   32.6160 O   0  0  0  0  0  1  0  0  0  0  0  0
   22.5540    9.7970   31.9290 C   0  0  0  0  0  0  0  0  0  0  0  0
   22.4850    8.4480   31.5570 C   0  0  0  0  0  3  0  0  0  0  0  0
   21.3530    7.7040   31.8090 C   0  0  0  0  0  3  0  0  0  0  0  0
   20.2430    8.2350   32.4290 C   0  0  0  0  0  0  0  0  0  0  0  0
   18.6660    7.2270   32.7880 Br  0  0  0  0  0  0  0  0  0  0  0  0
   20.2910    9.5610   32.8040 C   0  0  0  0  0  3  0  0  0  0  0  0
   21.4360   10.3130   32.5490 C   0  0  0  0  0  3  0  0  0  0  0  0
   22.6910   13.0800   30.6550 C   0  0  0  0  0  0  0  0  0  0  0  0
   23.5140   13.7190   31.5020 N   0  0  0  0  0  0  0  0  0  0  0  0
   23.0910   14.6050   32.4060 C   0  0  0  0  0  3  0  0  0  0  0  0
   21.7430   14.8720   32.4690 C   0  0  0  0  0  3  0  0  0  0  0  0
   20.8630   14.2410   31.6200 C   0  0  0  0  0  3  0  0  0  0  0  0
   21.3500   13.3390   30.7090 C   0  0  0  0  0  3  0  0  0  0  0  0
   24.7050   14.0800   28.7390 C   0  0  0  0  0  2  0  0  0  0  0  0
   23.6130   14.7660   27.9320 C   0  0  0  0  0  2  0  0  0  0  0  0
   23.2490   16.0630   28.6540 C   0  0  0  0  0  2  0  0  0  0  0  0
   23.1120   17.1700   27.7280 N   0  0  0  0  0  0  0  0  0  0  0  0
   23.5950   17.2510   26.4660 C   0  0  0  0  0  2  0  0  0  0  0  0
   23.2510   18.4410   25.9440 N   0  0  0  0  0  0  0  0  0  0  0  0
   22.5480   19.1410   26.8470 C   0  0  0  0  0  3  0  0  0  0  0  0
   23.4860   18.7920   24.9740 H   0  0  0  0  0  0  0  0  0  0  0  0
   22.4720   18.3260   27.9580 C   0  0  0  0  0  3  0  0  0  0  0  0
  1  8  1  6  0  0  0
  2  1  1  0  0  0  0
  2 17  1  1  0  0  0
  3  2  1  0  0  0  0
  4  3  1  0  0  0  0
  4  6  1  0  0  0  0
  5  4  2  0  0  0  0
  6  1  1  0  0  0  0
  7  6  2  0  0  0  0
  8 10  1  0  0  0  0
  8  9  1  6  0  0  0
 10 16  1  0  0  0  0
 11 12  1  0  0  0  0
 11 10  2  0  0  0  0
 12 13  2  0  0  0  0
 13 14  1  0  0  0  0
 13 15  1  0  0  0  0
 16 15  2  0  0  0  0
 17 22  2  0  0  0  0
 17 18  1  0  0  0  0
 18 19  2  0  0  0  0
 19 20  1  0  0  0  0
 21 20  2  0  0  0  0
 22 21  1  0  0  0  0
 23  3  1  0  0  0  0
 24 25  1  0  0  0  0
 24 23  1  0  0  0  0
 26 31  1  0  0  0  0
 26 25  1  0  0  0  0
 27 26  1  0  0  0  0
 28 27  1  0  0  0  0
 28 29  1  0  0  0  0
 29 31  2  0  0  0  0
 30 28  1  0  0  0  0
M  END
>  <Pose>
1

>  <Score>
-8.530

$$$$
