/Users/jonathanwahrer/Desktop/Msc/3_Semester/Drug_Design_Praktikum/waehrer_HTS_screening/HTS_experiment/out/docking_results/vina_output/3elj/0265_docked.pdbqt
 OpenBabel03192217283D

 35 38  0  0  1  0  0  0  0  0999 V2000
   26.5200    5.5370   27.5510 C   0  0  0  0  0  0  0  0  0  0  0  0
   26.2340    6.5300   28.3640 C   0  0  0  0  0  0  0  0  0  0  0  0
   24.9810    6.6610   29.1930 C   0  0  2  0  0  3  0  0  0  0  0  0
   25.0690    7.9220   29.8440 N   0  0  0  0  0  0  0  0  0  0  0  0
   26.3470    8.5450   29.6000 C   0  0  0  0  0  0  0  0  0  0  0  0
   26.7910    9.6070   30.0590 O   0  0  0  0  0  0  0  0  0  0  0  0
   27.0800    7.6610   28.6660 C   0  0  0  0  0  0  0  0  0  0  0  0
   28.2540    7.8820   28.2240 O   0  0  0  0  0  0  0  0  0  0  0  0
   25.5490    4.5110   27.4730 O   0  0  0  0  0  1  0  0  0  0  0  0
   25.0610    5.5310   30.1690 C   0  0  0  0  0  0  0  0  0  0  0  0
   23.8990    5.0050   30.6390 C   0  0  0  0  0  3  0  0  0  0  0  0
   23.9140    3.9650   31.5460 C   0  0  0  0  0  3  0  0  0  0  0  0
   25.1070    3.4530   31.9790 C   0  0  0  0  0  0  0  0  0  0  0  0
   26.2770    3.9850   31.5020 C   0  0  0  0  0  3  0  0  0  0  0  0
   26.2690    5.0290   30.5920 C   0  0  0  0  0  3  0  0  0  0  0  0
   25.1360    2.3520   32.9440 C   0  0  0  0  0  0  0  0  0  0  0  0
   26.0940    1.5380   32.9240 O   0  0  0  0  0  0  0  0  0  0  0  0
   24.1590    2.1540   33.8810 O   0  0  0  0  0  0  0  0  0  0  0  0
   24.3810    1.4540   35.0860 C   0  0  0  0  0  1  0  0  0  0  0  0
   24.0780    8.5670   30.6620 C   0  0  0  0  0  2  0  0  0  0  0  0
   22.7080    8.6230   30.0790 C   0  0  0  0  0  2  0  0  0  0  0  0
   21.6440    8.7950   31.0230 N   0  0  0  0  0  4  0  0  0  0  0  0
   21.8900    9.8290   32.0060 C   0  0  0  0  0  2  0  0  0  0  0  0
   20.6070   10.0120   32.7900 C   0  0  0  0  0  2  0  0  0  0  0  0
   20.4380    8.8190   33.5320 O   0  0  0  0  0  0  0  0  0  0  0  0
   20.1430    7.8280   32.5910 C   0  0  0  0  0  2  0  0  0  0  0  0
   21.4100    7.5590   31.7950 C   0  0  0  0  0  2  0  0  0  0  0  0
   20.7160    8.9520   30.5470 H   0  0  0  0  0  0  0  0  0  0  0  0
   27.7430    5.4600   26.7660 C   0  0  0  0  0  0  0  0  0  0  0  0
   27.8160    6.0770   25.5110 C   0  0  0  0  0  3  0  0  0  0  0  0
   28.9570    6.0680   24.7380 C   0  0  0  0  0  3  0  0  0  0  0  0
   30.0980    5.4340   25.1810 C   0  0  0  0  0  0  0  0  0  0  0  0
   31.6670    5.4310   24.0870 Br  0  0  0  0  0  0  0  0  0  0  0  0
   30.0530    4.8200   26.4100 C   0  0  0  0  0  3  0  0  0  0  0  0
   28.8910    4.8330   27.1920 C   0  0  0  0  0  3  0  0  0  0  0  0
  1  2  2  0  0  0  0
  2  7  1  0  0  0  0
  2  3  1  0  0  0  0
  3  4  1  0  0  0  0
  3 10  1  1  0  0  0
  4 20  1  0  0  0  0
  5  4  1  0  0  0  0
  5  6  2  0  0  0  0
  7  5  1  0  0  0  0
  8  7  2  0  0  0  0
  9  1  1  0  0  0  0
 10 15  2  0  0  0  0
 10 11  1  0  0  0  0
 11 12  2  0  0  0  0
 12 13  1  0  0  0  0
 13 16  1  0  0  0  0
 14 13  2  0  0  0  0
 15 14  1  0  0  0  0
 16 18  1  0  0  0  0
 17 16  2  0  0  0  0
 18 19  1  0  0  0  0
 21 20  1  0  0  0  0
 21 22  1  0  0  0  0
 22 27  1  0  0  0  0
 22 23  1  0  0  0  0
 23 24  1  0  0  0  0
 24 25  1  0  0  0  0
 26 25  1  0  0  0  0
 27 26  1  0  0  0  0
 28 22  1  0  0  0  0
 29 35  1  0  0  0  0
 29  1  1  0  0  0  0
 30 29  2  0  0  0  0
 31 32  2  0  0  0  0
 31 30  1  0  0  0  0
 32 34  1  0  0  0  0
 33 32  1  0  0  0  0
 34 35  2  0  0  0  0
M  END
>  <Pose>
1

>  <Score>
-7.204

$$$$
