/Users/jonathanwahrer/Desktop/Msc/3_Semester/Drug_Design_Praktikum/waehrer_HTS_screening/HTS_experiment/out/docking_results/vina_output/3elj/0274_docked.pdbqt
 OpenBabel03192217283D

 31 34  0  0  1  0  0  0  0  0999 V2000
   24.7500    9.7250   31.3210 C   0  0  0  0  0  0  0  0  0  0  0  0
   23.5200   10.1590   31.1290 C   0  0  0  0  0  0  0  0  0  0  0  0
   22.3930   10.3040   32.0940 C   0  0  1  0  0  3  0  0  0  0  0  0
   21.6840   11.4940   31.5950 N   0  0  0  0  0  0  0  0  0  0  0  0
   21.8010   11.4200   30.1870 C   0  0  0  0  0  0  0  0  0  0  0  0
   21.0440   11.9810   29.3840 O   0  0  0  0  0  0  0  0  0  0  0  0
   22.9490   10.5840   29.8530 C   0  0  0  0  0  0  0  0  0  0  0  0
   23.4160   10.2470   28.7370 O   0  0  0  0  0  0  0  0  0  0  0  0
   25.0980    9.3210   32.6260 O   0  0  0  0  0  1  0  0  0  0  0  0
   25.7710    9.6350   30.2910 C   0  0  0  0  0  0  0  0  0  0  0  0
   26.1360    8.4240   29.7460 C   0  0  0  0  0  3  0  0  0  0  0  0
   27.1300    8.3290   28.7830 C   0  0  0  0  0  3  0  0  0  0  0  0
   27.7890    9.4500   28.3350 C   0  0  0  0  0  0  0  0  0  0  0  0
   29.1640    9.3290   27.0030 Br  0  0  0  0  0  0  0  0  0  0  0  0
   27.4350   10.6650   28.8720 C   0  0  0  0  0  3  0  0  0  0  0  0
   26.4330   10.7540   29.8430 C   0  0  0  0  0  3  0  0  0  0  0  0
   21.5310    9.1240   32.1940 C   0  0  0  0  0  0  0  0  0  0  0  0
   20.2620    9.2090   32.7790 C   0  0  0  0  0  3  0  0  0  0  0  0
   19.4140    8.1520   32.9010 C   0  0  0  0  0  3  0  0  0  0  0  0
   19.7930    6.9080   32.4320 C   0  0  0  0  0  3  0  0  0  0  0  0
   21.0260    6.7940   31.8560 C   0  0  0  0  0  3  0  0  0  0  0  0
   21.8960    7.8800   31.7310 C   0  0  0  0  0  3  0  0  0  0  0  0
   21.0560   12.4280   32.4560 C   0  0  0  0  0  2  0  0  0  0  0  0
   21.0710   13.8540   32.0880 C   0  0  0  0  0  2  0  0  0  0  0  0
   22.3550   14.4820   32.0230 N   0  0  0  0  0  4  0  0  0  0  0  0
   22.6000   15.4990   32.9850 C   0  0  0  0  0  2  0  0  0  0  0  0
   22.5480   16.8460   32.2970 C   0  0  0  0  0  2  0  0  0  0  0  0
   21.5280   16.9180   31.3520 O   0  0  0  0  0  0  0  0  0  0  0  0
   21.7510   16.0900   30.2680 C   0  0  0  0  0  2  0  0  0  0  0  0
   22.6790   14.9780   30.7040 C   0  0  0  0  0  2  0  0  0  0  0  0
   23.0530   13.6980   32.2110 H   0  0  0  0  0  0  0  0  0  0  0  0
  1  9  1  0  0  0  0
  2  1  2  0  0  0  0
  2  3  1  0  0  0  0
  3 17  1  6  0  0  0
  4  3  1  0  0  0  0
  4 23  1  0  0  0  0
  5  4  1  0  0  0  0
  6  5  2  0  0  0  0
  7  5  1  0  0  0  0
  7  2  1  0  0  0  0
  8  7  2  0  0  0  0
 10  1  1  0  0  0  0
 11 10  2  0  0  0  0
 12 11  1  0  0  0  0
 13 12  2  0  0  0  0
 13 15  1  0  0  0  0
 14 13  1  0  0  0  0
 15 16  2  0  0  0  0
 16 10  1  0  0  0  0
 17 18  1  0  0  0  0
 18 19  2  0  0  0  0
 20 19  1  0  0  0  0
 21 20  2  0  0  0  0
 22 21  1  0  0  0  0
 22 17  2  0  0  0  0
 24 23  1  0  0  0  0
 25 24  1  0  0  0  0
 25 31  1  0  0  0  0
 25 26  1  0  0  0  0
 27 26  1  0  0  0  0
 28 27  1  0  0  0  0
 29 30  1  0  0  0  0
 29 28  1  0  0  0  0
 30 25  1  0  0  0  0
M  END
>  <Pose>
1

>  <Score>
-7.517

$$$$
