/Users/jonathanwahrer/Desktop/Msc/3_Semester/Drug_Design_Praktikum/waehrer_HTS_screening/HTS_experiment/out/docking_results/vina_output/3elj/0278_docked.pdbqt
 OpenBabel03192217293D

 30 33  0  0  1  0  0  0  0  0999 V2000
   23.6640    8.8620   31.6600 N   0  0  0  0  0  0  0  0  0  0  0  0
   22.3790    8.7170   32.0620 C   0  0  0  0  0  0  0  0  0  0  0  0
   21.9860    7.4530   31.6530 C   0  0  0  0  0  0  0  0  0  0  0  0
   20.6970    7.0360   31.9290 C   0  0  0  0  0  3  0  0  0  0  0  0
   19.7850    7.8530   32.6090 C   0  0  0  0  0  3  0  0  0  0  0  0
   20.2260    9.1110   32.9980 C   0  0  0  0  0  3  0  0  0  0  0  0
   21.5000    9.5500   32.7360 C   0  0  0  0  0  3  0  0  0  0  0  0
   23.0180    6.8290   31.0100 N   0  0  0  0  0  0  0  0  0  0  0  0
   24.0370    7.7310   31.0320 C   0  0  2  0  0  3  0  0  0  0  0  0
   24.4100   10.0590   31.9150 C   0  0  0  0  0  2  0  0  0  0  0  0
   24.4860   10.9780   30.7330 C   0  0  1  0  0  3  0  0  0  0  0  0
   23.4950   12.1100   30.8740 C   0  0  0  0  0  0  0  0  0  0  0  0
   22.2880   12.0560   30.2230 C   0  0  0  0  0  3  0  0  0  0  0  0
   21.3870   13.0790   30.3520 C   0  0  0  0  0  3  0  0  0  0  0  0
   21.7120   14.1580   31.1420 C   0  0  0  0  0  0  0  0  0  0  0  0
   20.4590   15.5930   31.3280 Br  0  0  0  0  0  0  0  0  0  0  0  0
   22.9060   14.2630   31.8160 C   0  0  0  0  0  3  0  0  0  0  0  0
   23.7850   13.2040   31.6540 C   0  0  0  0  0  3  0  0  0  0  0  0
   25.7280   11.5500   30.5380 O   0  0  0  0  0  0  0  0  0  0  0  0
   25.8780   12.3560   31.0690 H   0  0  0  0  0  0  0  0  0  0  0  0
   25.1950    7.5010   30.5110 N   0  0  0  0  0  0  0  0  0  0  0  0
   25.8330    8.3240   30.2940 H   0  0  0  0  0  0  0  0  0  0  0  0
   25.5850    6.5870   30.2680 H   0  0  0  0  0  0  0  0  0  0  0  0
   22.9470    5.5030   30.4750 C   0  0  0  0  0  2  0  0  0  0  0  0
   23.6200    4.4700   31.3360 C   0  0  0  0  0  0  0  0  0  0  0  0
   24.8710    4.0040   30.9690 C   0  0  0  0  0  3  0  0  0  0  0  0
   25.5550    3.0570   31.7070 C   0  0  0  0  0  3  0  0  0  0  0  0
   24.9470    2.5810   32.8420 C   0  0  0  0  0  3  0  0  0  0  0  0
   23.7100    3.0240   33.2280 C   0  0  0  0  0  3  0  0  0  0  0  0
   23.0580    3.9630   32.4740 C   0  0  0  0  0  3  0  0  0  0  0  0
  1 10  1  0  0  0  0
  1  2  1  0  0  0  0
  2  7  1  0  0  0  0
  3  4  1  0  0  0  0
  3  2  2  0  0  0  0
  4  5  2  0  0  0  0
  5  6  1  0  0  0  0
  7  6  2  0  0  0  0
  8  9  1  0  0  0  0
  8  3  1  0  0  0  0
  9 21  1  1  0  0  0
  9  1  1  0  0  0  0
 11 12  1  0  0  0  0
 11 10  1  1  0  0  0
 12 18  1  0  0  0  0
 13 14  1  0  0  0  0
 13 12  2  0  0  0  0
 14 15  2  0  0  0  0
 15 16  1  0  0  0  0
 15 17  1  0  0  0  0
 18 17  2  0  0  0  0
 19 11  1  0  0  0  0
 19 20  1  0  0  0  0
 22 21  1  0  0  0  0
 23 21  1  0  0  0  0
 24  8  1  0  0  0  0
 24 25  1  0  0  0  0
 25 30  1  0  0  0  0
 26 25  2  0  0  0  0
 26 27  1  0  0  0  0
 27 28  2  0  0  0  0
 28 29  1  0  0  0  0
 30 29  2  0  0  0  0
M  END
>  <Pose>
1

>  <Score>
-8.964

$$$$
