/Users/jonathanwahrer/Desktop/Msc/3_Semester/Drug_Design_Praktikum/waehrer_HTS_screening/HTS_experiment/out/docking_results/vina_output/3elj/0289_docked.pdbqt
 OpenBabel03192217293D

 31 34  0  0  0  0  0  0  0  0999 V2000
   23.1310    8.7950   30.4730 C   0  0  0  0  0  0  0  0  0  0  0  0
   23.0610    7.4640   30.3040 N   0  0  0  0  0  0  0  0  0  0  0  0
   22.0730    6.9670   31.0850 C   0  0  0  0  0  0  0  0  0  0  0  0
   21.4940    8.0080   31.7770 C   0  0  0  0  0  0  0  0  0  0  0  0
   22.1520    9.1010   31.3900 N   0  0  0  0  0  0  0  0  0  0  0  0
   20.4780    7.7580   32.6230 N   0  0  0  0  0  0  0  0  0  0  0  0
   20.0080    6.5180   32.8170 C   0  0  0  0  0  0  0  0  0  0  0  0
   19.0440    6.3220   33.6250 O   0  0  0  0  0  0  0  0  0  0  0  0
   20.5580    5.4890   32.1510 N   0  0  0  0  0  0  0  0  0  0  0  0
   21.5720    5.7030   31.3010 C   0  0  0  0  0  0  0  0  0  0  0  0
   22.0840    4.7400   30.6800 O   0  0  0  0  0  0  0  0  0  0  0  0
   19.8830    8.8920   33.3380 C   0  0  0  0  0  1  0  0  0  0  0  0
   20.1910    4.5050   32.3000 H   0  0  0  0  0  0  0  0  0  0  0  0
   23.9810    9.7100   29.8280 N   0  0  0  0  0  0  0  0  0  0  0  0
   25.3590    9.8630   30.1440 C   0  0  0  0  0  2  0  0  0  0  0  0
   25.5510   11.2940   30.6350 C   0  0  0  0  0  2  0  0  0  0  0  0
   24.3850   12.0630   30.5230 N   0  0  0  0  0  0  0  0  0  0  0  0
   23.5670   11.9860   29.3830 C   0  0  0  0  0  2  0  0  0  0  0  0
   23.4590   10.5730   28.7960 C   0  0  0  0  0  2  0  0  0  0  0  0
   23.7870   12.4820   31.7470 C   0  0  0  0  0  2  0  0  0  0  0  0
   22.4970   13.1810   31.5930 C   0  0  0  0  0  0  0  0  0  0  0  0
   22.5110   14.4710   31.1270 C   0  0  0  0  0  3  0  0  0  0  0  0
   21.3230   15.1630   30.9540 C   0  0  0  0  0  3  0  0  0  0  0  0
   20.1120   14.5710   31.2470 C   0  0  0  0  0  0  0  0  0  0  0  0
   18.4660   15.5330   31.0030 Br  0  0  0  0  0  0  0  0  0  0  0  0
   20.1200   13.2760   31.7150 C   0  0  0  0  0  3  0  0  0  0  0  0
   21.2950   12.5740   31.8930 C   0  0  0  0  0  3  0  0  0  0  0  0
   23.8910    6.6210   29.4860 C   0  0  0  0  0  2  0  0  0  0  0  0
   25.1700    6.2250   30.1900 C   0  0  0  0  0  2  0  0  0  0  0  0
   26.2830    6.2300   29.3750 O   0  0  0  0  0  0  0  0  0  0  0  0
   25.9220    5.4860   28.2270 C   0  0  0  0  0  1  0  0  0  0  0  0
  1  5  2  0  0  0  0
  2  1  1  0  0  0  0
  2  3  1  0  0  0  0
  3 10  1  0  0  0  0
  3  4  2  0  0  0  0
  4  6  1  0  0  0  0
  5  4  1  0  0  0  0
  6  7  1  0  0  0  0
  6 12  1  0  0  0  0
  7  8  2  0  0  0  0
  9 13  1  0  0  0  0
  9  7  1  0  0  0  0
 10  9  1  0  0  0  0
 11 10  2  0  0  0  0
 14 15  1  0  0  0  0
 14  1  1  0  0  0  0
 15 16  1  0  0  0  0
 17 16  1  0  0  0  0
 17 20  1  0  0  0  0
 18 17  1  0  0  0  0
 19 18  1  0  0  0  0
 19 14  1  0  0  0  0
 21 20  1  0  0  0  0
 21 27  1  0  0  0  0
 22 21  2  0  0  0  0
 23 22  1  0  0  0  0
 23 24  2  0  0  0  0
 24 26  1  0  0  0  0
 25 24  1  0  0  0  0
 26 27  2  0  0  0  0
 28 29  1  0  0  0  0
 28  2  1  0  0  0  0
 30 29  1  0  0  0  0
 31 30  1  0  0  0  0
M  END
>  <Pose>
1

>  <Score>
-7.949

$$$$
