/Users/jonathanwahrer/Desktop/Msc/3_Semester/Drug_Design_Praktikum/waehrer_HTS_screening/HTS_experiment/out/docking_results/vina_output/3elj/0293_docked.pdbqt
 OpenBabel03192217293D

 27 30  0  0  0  0  0  0  0  0999 V2000
   21.0850    5.4360   31.8940 C   0  0  0  0  0  3  0  0  0  0  0  0
   20.6830    6.6740   32.2060 C   0  0  0  0  0  0  0  0  0  0  0  0
   21.4800    7.7970   32.0550 O   0  0  0  0  0  0  0  0  0  0  0  0
   20.8170    8.9540   32.4520 C   0  0  0  0  0  0  0  0  0  0  0  0
   19.5700    8.6020   32.8730 C   0  0  0  0  0  0  0  0  0  0  0  0
   18.6960    9.5680   33.3250 C   0  0  0  0  0  3  0  0  0  0  0  0
   19.1340   10.8660   33.3300 C   0  0  0  0  0  3  0  0  0  0  0  0
   20.4150   11.2310   32.8980 C   0  0  0  0  0  0  0  0  0  0  0  0
   21.3000   10.2850   32.4460 C   0  0  0  0  0  0  0  0  0  0  0  0
   20.7830   12.5770   32.9360 O   0  0  0  0  0  1  0  0  0  0  0  0
   19.4320    7.1450   32.7360 C   0  0  0  0  0  0  0  0  0  0  0  0
   18.4410    6.4220   33.0120 O   0  0  0  0  0  0  0  0  0  0  0  0
   22.4290    5.2280   31.3650 C   0  0  0  0  0  0  0  0  0  0  0  0
   23.2840    4.3180   31.9640 C   0  0  0  0  0  3  0  0  0  0  0  0
   24.5640    4.0990   31.4910 C   0  0  0  0  0  3  0  0  0  0  0  0
   25.0430    4.7810   30.3960 C   0  0  0  0  0  0  0  0  0  0  0  0
   26.8220    4.4730   29.7360 Br  0  0  0  0  0  0  0  0  0  0  0  0
   24.2060    5.6920   29.7870 C   0  0  0  0  0  3  0  0  0  0  0  0
   22.9130    5.9090   30.2710 C   0  0  0  0  0  3  0  0  0  0  0  0
   22.6680   10.5120   31.9660 C   0  0  0  0  0  2  0  0  0  0  0  0
   23.2070    9.6140   31.0190 N   0  0  0  0  0  4  0  0  0  0  0  0
   23.0940   10.1080   29.6620 C   0  0  0  0  0  2  0  0  0  0  0  0
   24.2890   10.9870   29.3420 C   0  0  0  0  0  2  0  0  0  0  0  0
   25.3680   10.1600   29.0710 O   0  0  0  0  0  0  0  0  0  0  0  0
   25.2670    9.0370   29.9000 C   0  0  0  0  0  2  0  0  0  0  0  0
   24.6530    9.4300   31.2340 C   0  0  0  0  0  2  0  0  0  0  0  0
   22.8100    8.6580   31.1130 H   0  0  0  0  0  0  0  0  0  0  0  0
  1  2  2  0  0  0  0
  2 11  1  0  0  0  0
  3  2  1  0  0  0  0
  3  4  1  0  0  0  0
  4  5  1  0  0  0  0
  5  6  2  0  0  0  0
  6  7  1  0  0  0  0
  8 10  1  0  0  0  0
  8  7  2  0  0  0  0
  9  4  2  0  0  0  0
  9  8  1  0  0  0  0
 11  5  1  0  0  0  0
 11 12  2  0  0  0  0
 13  1  1  0  0  0  0
 13 14  1  0  0  0  0
 15 14  2  0  0  0  0
 16 15  1  0  0  0  0
 17 16  1  0  0  0  0
 18 19  1  0  0  0  0
 18 16  2  0  0  0  0
 19 13  2  0  0  0  0
 20  9  1  0  0  0  0
 21 27  1  0  0  0  0
 21 26  1  0  0  0  0
 21 20  1  0  0  0  0
 22 21  1  0  0  0  0
 23 22  1  0  0  0  0
 24 23  1  0  0  0  0
 24 25  1  0  0  0  0
 25 26  1  0  0  0  0
M  END
>  <Pose>
1

>  <Score>
-9.957

$$$$
