/Users/jonathanwahrer/Desktop/Msc/3_Semester/Drug_Design_Praktikum/waehrer_HTS_screening/HTS_experiment/out/docking_results/vina_output/3elj/0294_docked.pdbqt
 OpenBabel03192217293D

 35 38  0  0  0  0  0  0  0  0999 V2000
   26.0180   14.7640   26.9010 N   0  0  0  0  0  0  0  0  0  0  0  0
   25.0400   15.2110   27.7470 N   0  0  0  0  0  0  0  0  0  0  0  0
   24.4970   16.3220   27.2300 C   0  0  0  0  0  0  0  0  0  0  0  0
   25.1430   16.5380   26.0850 N   0  0  0  0  0  0  0  0  0  0  0  0
   26.1030   15.5620   25.8690 C   0  0  0  0  0  0  0  0  0  0  0  0
   26.7500   13.5560   27.2260 C   0  0  0  0  0  2  0  0  0  0  0  0
   25.8490   12.5090   27.7770 C   0  0  0  0  0  0  0  0  0  0  0  0
   25.2730   12.6470   29.0630 N   0  0  0  0  0  0  0  0  0  0  0  0
   25.4730   13.5040   29.6640 H   0  0  0  0  0  0  0  0  0  0  0  0
   25.5920   11.4900   27.0980 O   0  0  0  0  0  0  0  0  0  0  0  0
   24.4420   11.6590   29.5430 N   0  0  0  0  0  0  0  0  0  0  0  0
   23.7700   11.7130   30.6250 C   0  0  0  0  0  3  0  0  0  0  0  0
   22.9020   10.6340   31.0860 C   0  0  0  0  0  0  0  0  0  0  0  0
   21.9220   10.8500   32.0320 C   0  0  0  0  0  3  0  0  0  0  0  0
   21.1110    9.8110   32.4540 C   0  0  0  0  0  3  0  0  0  0  0  0
   21.2440    8.5250   31.9520 C   0  0  0  0  0  0  0  0  0  0  0  0
   20.1090    7.1130   32.5540 Br  0  0  0  0  0  0  0  0  0  0  0  0
   22.2250    8.3090   31.0060 C   0  0  0  0  0  3  0  0  0  0  0  0
   23.0270    9.3520   30.5930 C   0  0  0  0  0  3  0  0  0  0  0  0
   26.9520   15.5570   24.6960 C   0  0  0  0  0  0  0  0  0  0  0  0
   26.4590   15.2430   23.4330 N   0  0  0  0  0  0  0  0  0  0  0  0
   27.3970   15.3260   22.5730 O   0  0  0  0  0  0  0  0  0  0  0  0
   28.4840   15.6700   23.1430 N   0  0  0  0  0  0  0  0  0  0  0  0
   28.2430   15.8240   24.4800 C   0  0  0  0  0  0  0  0  0  0  0  0
   29.2700   16.2140   25.3480 N   0  0  0  0  0  0  0  0  0  0  0  0
   29.5560   15.5720   26.1230 H   0  0  0  0  0  0  0  0  0  0  0  0
   29.7920   17.1120   25.2760 H   0  0  0  0  0  0  0  0  0  0  0  0
   23.4240   17.1310   27.7950 C   0  0  0  0  0  0  0  0  0  0  0  0
   22.8390   16.9790   28.9860 N   0  0  0  0  0  0  0  0  0  0  0  0
   21.9100   17.9070   29.1360 O   0  0  0  0  0  0  0  0  0  0  0  0
   21.8590   18.6710   28.0820 N   0  0  0  0  0  0  0  0  0  0  0  0
   22.8060   18.2070   27.2100 C   0  0  0  0  0  0  0  0  0  0  0  0
   23.0560   18.7840   25.9380 N   0  0  0  0  0  0  0  0  0  0  0  0
   22.2690   19.2600   25.4140 H   0  0  0  0  0  0  0  0  0  0  0  0
   23.9820   18.7740   25.4700 H   0  0  0  0  0  0  0  0  0  0  0  0
  1  6  1  0  0  0  0
  1  2  1  0  0  0  0
  3  2  2  0  0  0  0
  3 28  1  0  0  0  0
  4  3  1  0  0  0  0
  5  4  2  0  0  0  0
  5  1  1  0  0  0  0
  6  7  1  0  0  0  0
  7  8  1  0  0  0  0
  8 11  1  0  0  0  0
  8  9  1  0  0  0  0
 10  7  2  0  0  0  0
 11 12  2  0  0  0  0
 12 13  1  0  0  0  0
 13 14  1  0  0  0  0
 14 15  2  0  0  0  0
 16 15  1  0  0  0  0
 16 17  1  0  0  0  0
 18 16  2  0  0  0  0
 19 18  1  0  0  0  0
 19 13  2  0  0  0  0
 20  5  1  0  0  0  0
 21 20  2  0  0  0  0
 22 23  1  0  0  0  0
 22 21  1  0  0  0  0
 23 24  2  0  0  0  0
 24 20  1  0  0  0  0
 24 25  1  0  0  0  0
 25 26  1  0  0  0  0
 27 25  1  0  0  0  0
 28 29  2  0  0  0  0
 29 30  1  0  0  0  0
 31 30  1  0  0  0  0
 32 28  1  0  0  0  0
 32 31  2  0  0  0  0
 33 32  1  0  0  0  0
 34 33  1  0  0  0  0
 35 33  1  0  0  0  0
M  END
>  <Pose>
1

>  <Score>
-9.126

$$$$
