/Users/jonathanwahrer/Desktop/Msc/3_Semester/Drug_Design_Praktikum/waehrer_HTS_screening/HTS_experiment/out/docking_results/vina_output/3elj/0302_docked.pdbqt
 OpenBabel03192217303D

 29 33  0  0  1  0  0  0  0  0999 V2000
   23.1260    6.5180   30.7960 C   0  0  0  0  0  0  0  0  0  0  0  0
   23.2000    7.8300   31.0990 N   0  0  0  0  0  0  0  0  0  0  0  0
   22.0470    8.2380   31.6860 C   0  0  1  0  0  3  0  0  0  0  0  0
   21.2190    7.1820   31.7660 N   0  0  0  0  0  0  0  0  0  0  0  0
   21.8730    6.1290   31.2230 C   0  0  0  0  0  3  0  0  0  0  0  0
   20.0950    7.6350   32.3530 C   0  0  0  0  0  0  0  0  0  0  0  0
   20.2180    8.9770   32.6420 C   0  0  0  0  0  0  0  0  0  0  0  0
   19.1990    9.6990   33.2520 C   0  0  0  0  0  3  0  0  0  0  0  0
   18.0230    9.0660   33.5860 C   0  0  0  0  0  3  0  0  0  0  0  0
   17.9100    7.7240   33.2930 C   0  0  0  0  0  3  0  0  0  0  0  0
   18.9030    6.9850   32.6880 C   0  0  0  0  0  3  0  0  0  0  0  0
   21.4590    9.3250   32.2090 N   0  0  0  0  0  0  0  0  0  0  0  0
   24.0090    8.4590   30.9180 H   0  0  0  0  0  0  0  0  0  0  0  0
   21.9760   10.6720   32.3330 C   0  0  0  0  0  2  0  0  0  0  0  0
   22.1800   11.3210   30.9820 C   0  0  0  0  0  2  0  0  0  0  0  0
   21.7070   12.6750   31.0010 N   0  0  0  0  0  4  0  0  0  0  0  0
   22.8220   13.5990   31.0280 C   0  0  0  0  0  2  0  0  0  0  0  0
   22.6330   14.7120   32.0300 C   0  0  0  0  0  2  0  0  0  0  0  0
   21.3850   15.3010   31.8180 O   0  0  0  0  0  0  0  0  0  0  0  0
   20.3520   14.3970   31.9410 C   0  0  0  0  0  2  0  0  0  0  0  0
   20.8500   12.9850   32.1060 C   0  0  0  0  0  2  0  0  0  0  0  0
   21.1700   12.8890   30.1230 H   0  0  0  0  0  0  0  0  0  0  0  0
   24.1610    5.7100   30.1570 C   0  0  0  0  0  0  0  0  0  0  0  0
   24.5140    4.4700   30.6390 C   0  0  0  0  0  3  0  0  0  0  0  0
   25.5010    3.7000   30.0270 C   0  0  0  0  0  3  0  0  0  0  0  0
   26.1560    4.1710   28.9060 C   0  0  0  0  0  0  0  0  0  0  0  0
   27.5010    3.1250   28.0710 Br  0  0  0  0  0  0  0  0  0  0  0  0
   25.8110    5.4130   28.4130 C   0  0  0  0  0  3  0  0  0  0  0  0
   24.8190    6.1720   29.0400 C   0  0  0  0  0  3  0  0  0  0  0  0
  1  2  1  0  0  0  0
  1  5  2  0  0  0  0
  3  2  1  1  0  0  0
  3  4  1  0  0  0  0
  3 12  1  0  0  0  0
  4  6  1  0  0  0  0
  5  4  1  0  0  0  0
  6  7  2  0  0  0  0
  6 11  1  0  0  0  0
  7  8  1  0  0  0  0
  8  9  2  0  0  0  0
 10  9  1  0  0  0  0
 11 10  2  0  0  0  0
 12 14  1  0  0  0  0
 12  7  1  0  0  0  0
 13  2  1  0  0  0  0
 15 16  1  0  0  0  0
 15 14  1  0  0  0  0
 16 17  1  0  0  0  0
 16 21  1  0  0  0  0
 17 18  1  0  0  0  0
 19 20  1  0  0  0  0
 19 18  1  0  0  0  0
 20 21  1  0  0  0  0
 22 16  1  0  0  0  0
 23 24  1  0  0  0  0
 23  1  1  0  0  0  0
 25 24  2  0  0  0  0
 26 25  1  0  0  0  0
 27 26  1  0  0  0  0
 28 26  2  0  0  0  0
 28 29  1  0  0  0  0
 29 23  2  0  0  0  0
M  END
>  <Pose>
1

>  <Score>
-9.318

$$$$
