/Users/jonathanwahrer/Desktop/Msc/3_Semester/Drug_Design_Praktikum/waehrer_HTS_screening/HTS_experiment/out/docking_results/vina_output/3elj/0309_docked.pdbqt
 OpenBabel03192217303D

 33 36  0  0  0  0  0  0  0  0999 V2000
   22.9280    7.0910   31.1710 C   0  0  0  0  0  0  0  0  0  0  0  0
   23.0540    8.4000   31.5680 C   0  0  0  0  0  0  0  0  0  0  0  0
   22.0790    9.0670   32.1560 O   0  0  0  0  0  0  0  0  0  0  0  0
   20.9190    8.5130   32.4000 C   0  0  0  0  0  0  0  0  0  0  0  0
   20.7330    7.2280   32.0320 C   0  0  0  0  0  0  0  0  0  0  0  0
   19.5230    6.6160   32.2780 C   0  0  0  0  0  3  0  0  0  0  0  0
   18.5380    7.3420   32.8960 C   0  0  0  0  0  3  0  0  0  0  0  0
   18.7430    8.6820   33.2760 C   0  0  0  0  0  0  0  0  0  0  0  0
   19.9300    9.3080   33.0420 C   0  0  0  0  0  0  0  0  0  0  0  0
   17.6380    9.2520   33.8870 O   0  0  0  0  0  1  0  0  0  0  0  0
   21.7040    6.4650   31.4120 C   0  0  0  0  0  0  0  0  0  0  0  0
   21.5310    5.2890   31.0770 O   0  0  0  0  0  0  0  0  0  0  0  0
   20.2820   10.6730   33.3510 C   0  0  0  0  0  2  0  0  0  0  0  0
   20.1980   11.7250   32.4220 N   0  0  0  0  0  4  0  0  0  0  0  0
   21.4380   11.9840   31.7810 C   0  0  0  0  0  2  0  0  0  0  0  0
   21.7190   13.3460   31.2800 C   0  0  0  0  0  2  0  0  0  0  0  0
   20.9160   14.3360   31.8540 N   0  0  0  0  0  0  0  0  0  0  0  0
   19.5470   14.0920   31.9950 C   0  0  0  0  0  2  0  0  0  0  0  0
   21.4770   15.5460   32.2880 C   0  0  0  0  0  1  0  0  0  0  0  0
   19.2990   12.7890   32.6870 C   0  0  0  0  0  2  0  0  0  0  0  0
   19.6420   11.2040   31.5770 H   0  0  0  0  0  0  0  0  0  0  0  0
   24.3360    9.0790   31.3210 C   0  0  0  0  0  0  0  0  0  0  0  0
   25.1050    9.2560   32.2990 O   0  0  0  0  0  0  0  0  0  0  0  0
   24.7320    9.5230   30.0980 O   0  0  0  0  0  0  0  0  0  0  0  0
   23.9910   10.5080   29.4190 C   0  0  0  0  0  2  0  0  0  0  0  0
   24.6940   11.8310   29.5540 C   0  0  0  0  0  1  0  0  0  0  0  0
   24.0320    6.3980   30.5600 C   0  0  0  0  0  0  0  0  0  0  0  0
   24.3480    6.5090   29.2090 C   0  0  0  0  0  3  0  0  0  0  0  0
   25.4130    5.8580   28.6250 C   0  0  0  0  0  3  0  0  0  0  0  0
   26.2070    5.0600   29.3950 C   0  0  0  0  0  0  0  0  0  0  0  0
   27.6830    4.1670   28.5680 Br  0  0  0  0  0  0  0  0  0  0  0  0
   25.9360    4.9160   30.7390 C   0  0  0  0  0  3  0  0  0  0  0  0
   24.8450    5.5900   31.3110 C   0  0  0  0  0  3  0  0  0  0  0  0
  1 11  1  0  0  0  0
  1  2  2  0  0  0  0
  2  3  1  0  0  0  0
  3  4  1  0  0  0  0
  4  9  1  0  0  0  0
  5  6  1  0  0  0  0
  5  4  2  0  0  0  0
  6  7  2  0  0  0  0
  7  8  1  0  0  0  0
  8 10  1  0  0  0  0
  9  8  2  0  0  0  0
  9 13  1  0  0  0  0
 11  5  1  0  0  0  0
 12 11  2  0  0  0  0
 14 20  1  0  0  0  0
 14 13  1  0  0  0  0
 15 14  1  0  0  0  0
 16 15  1  0  0  0  0
 16 17  1  0  0  0  0
 17 18  1  0  0  0  0
 17 19  1  0  0  0  0
 18 20  1  0  0  0  0
 21 14  1  0  0  0  0
 22  2  1  0  0  0  0
 22 23  2  0  0  0  0
 24 22  1  0  0  0  0
 25 26  1  0  0  0  0
 25 24  1  0  0  0  0
 27  1  1  0  0  0  0
 27 33  1  0  0  0  0
 28 27  2  0  0  0  0
 29 28  1  0  0  0  0
 29 30  2  0  0  0  0
 30 32  1  0  0  0  0
 31 30  1  0  0  0  0
 32 33  2  0  0  0  0
M  END
>  <Pose>
1

>  <Score>
-9.168

$$$$
