/Users/jonathanwahrer/Desktop/Msc/3_Semester/Drug_Design_Praktikum/waehrer_HTS_screening/HTS_experiment/out/docking_results/vina_output/3elj/0324_docked.pdbqt
 OpenBabel03192217313D

 34 38  0  0  1  0  0  0  0  0999 V2000
   23.2850    6.7030   30.9220 C   0  0  0  0  0  0  0  0  0  0  0  0
   21.9460    6.3460   31.1690 C   0  0  0  0  0  3  0  0  0  0  0  0
   21.3020    7.3260   31.8120 N   0  0  0  0  0  0  0  0  0  0  0  0
   20.1100    7.6910   32.3450 C   0  0  0  0  0  0  0  0  0  0  0  0
   20.2930    8.9500   32.8630 C   0  0  0  0  0  0  0  0  0  0  0  0
   21.5840    9.3160   32.6330 N   0  0  0  0  0  0  0  0  0  0  0  0
   22.1880    8.3020   31.9840 C   0  0  1  0  0  3  0  0  0  0  0  0
   23.4020    7.9270   31.4430 N   0  0  0  0  0  0  0  0  0  0  0  0
   19.2180    9.5620   33.4730 C   0  0  0  0  0  3  0  0  0  0  0  0
   17.9800    8.9390   33.5710 C   0  0  0  0  0  3  0  0  0  0  0  0
   17.8000    7.6810   33.0540 C   0  0  0  0  0  3  0  0  0  0  0  0
   18.8920    7.0610   32.4340 C   0  0  0  0  0  3  0  0  0  0  0  0
   22.0010   10.2280   32.9210 H   0  0  0  0  0  0  0  0  0  0  0  0
   24.5750    8.7730   31.4930 C   0  0  0  0  0  2  0  0  0  0  0  0
   24.7420    9.6650   30.2860 C   0  0  0  0  0  2  0  0  0  0  0  0
   24.5410   11.1160   30.6470 C   0  0  0  0  0  2  0  0  0  0  0  0
   23.6020   11.8210   29.8200 N   0  0  0  0  0  0  0  0  0  0  0  0
   24.1190   13.1750   29.6960 C   0  0  0  0  0  2  0  0  0  0  0  0
   23.1100   14.2450   29.8820 C   0  0  0  0  0  2  0  0  0  0  0  0
   22.2130   14.0810   30.9930 N   0  0  0  0  0  4  0  0  0  0  0  0
   22.0990   12.7110   31.4480 C   0  0  0  0  0  2  0  0  0  0  0  0
   21.2420   14.3150   30.6150 H   0  0  0  0  0  0  0  0  0  0  0  0
   22.2430   11.7980   30.2480 C   0  0  0  0  0  2  0  0  0  0  0  0
   22.4550   15.0370   32.0260 C   0  0  0  0  0  2  0  0  0  0  0  0
   21.7600   16.3480   31.8820 C   0  0  0  0  0  2  0  0  0  0  0  0
   22.5420   17.4420   32.2500 O   0  0  0  0  0  0  0  0  0  0  0  0
   22.0410   18.0170   32.8540 H   0  0  0  0  0  0  0  0  0  0  0  0
   24.2490    5.8210   30.2660 C   0  0  0  0  0  0  0  0  0  0  0  0
   24.6710    4.6140   30.7230 C   0  0  0  0  0  3  0  0  0  0  0  0
   25.5680    3.8000   30.0120 C   0  0  0  0  0  3  0  0  0  0  0  0
   26.0690    4.1980   28.7990 C   0  0  0  0  0  0  0  0  0  0  0  0
   27.2940    3.0870   27.8270 Br  0  0  0  0  0  0  0  0  0  0  0  0
   25.6580    5.4100   28.3220 C   0  0  0  0  0  3  0  0  0  0  0  0
   24.7720    6.2060   29.0310 C   0  0  0  0  0  3  0  0  0  0  0  0
  1  2  2  0  0  0  0
  1  8  1  0  0  0  0
  2  3  1  0  0  0  0
  3  7  1  0  0  0  0
  3  4  1  0  0  0  0
  4 12  2  0  0  0  0
  4  5  1  0  0  0  0
  5  9  2  0  0  0  0
  6  5  1  0  0  0  0
  6 13  1  0  0  0  0
  7  8  1  1  0  0  0
  7  6  1  0  0  0  0
  8 14  1  0  0  0  0
  9 10  1  0  0  0  0
 11 10  2  0  0  0  0
 12 11  1  0  0  0  0
 15 16  1  0  0  0  0
 15 14  1  0  0  0  0
 17 23  1  0  0  0  0
 17 16  1  0  0  0  0
 18 17  1  0  0  0  0
 18 19  1  0  0  0  0
 19 20  1  0  0  0  0
 20 21  1  0  0  0  0
 20 24  1  0  0  0  0
 22 20  1  0  0  0  0
 23 21  1  0  0  0  0
 25 24  1  0  0  0  0
 25 26  1  0  0  0  0
 26 27  1  0  0  0  0
 28 29  1  0  0  0  0
 28  1  1  0  0  0  0
 30 29  2  0  0  0  0
 31 30  1  0  0  0  0
 32 31  1  0  0  0  0
 33 31  2  0  0  0  0
 33 34  1  0  0  0  0
 34 28  2  0  0  0  0
M  END
>  <Pose>
1

>  <Score>
-9.495

$$$$
