/Users/jonathanwahrer/Desktop/Msc/3_Semester/Drug_Design_Praktikum/waehrer_HTS_screening/HTS_experiment/out/docking_results/vina_output/3elj/0347_docked.pdbqt
 OpenBabel03192217323D

 34 37  0  0  1  0  0  0  0  0999 V2000
   24.0910   11.3120   29.4760 C   0  0  2  0  0  3  0  0  0  0  0  0
   24.0950   12.3760   30.4600 N   0  0  0  0  0  0  0  0  0  0  0  0
   24.4020   11.7620   31.7130 C   0  0  0  0  0  0  0  0  0  0  0  0
   24.9300   12.3110   32.7120 O   0  0  0  0  0  0  0  0  0  0  0  0
   23.9740   10.3730   31.5910 C   0  0  0  0  0  0  0  0  0  0  0  0
   24.0390    9.4410   32.4320 O   0  0  0  0  0  0  0  0  0  0  0  0
   23.4210   10.2040   30.2520 C   0  0  0  0  0  0  0  0  0  0  0  0
   22.5820    9.2800   29.8520 C   0  0  0  0  0  0  0  0  0  0  0  0
   22.2410    9.3020   28.4880 O   0  0  0  0  0  1  0  0  0  0  0  0
   23.8370   13.8090   30.2370 C   0  0  0  0  0  2  0  0  0  0  0  0
   22.4360   14.0110   29.6400 C   0  0  0  0  0  2  0  0  0  0  0  0
   21.4200   13.3630   30.5360 C   0  0  0  0  0  2  0  0  0  0  0  0
   21.1500   14.2370   31.6520 N   0  0  0  0  0  4  0  0  0  0  0  0
   20.6570   13.5670   32.8140 C   0  0  0  0  0  2  0  0  0  0  0  0
   19.2500   13.0950   32.6670 C   0  0  0  0  0  2  0  0  0  0  0  0
   18.4100   14.1420   32.3320 O   0  0  0  0  0  0  0  0  0  0  0  0
   18.8350   14.6490   31.1030 C   0  0  0  0  0  2  0  0  0  0  0  0
   20.1980   15.2790   31.3110 C   0  0  0  0  0  2  0  0  0  0  0  0
   22.0400   14.7280   31.9030 H   0  0  0  0  0  0  0  0  0  0  0  0
   25.4450   10.9500   29.0820 C   0  0  0  0  0  0  0  0  0  0  0  0
   26.1850   11.7790   28.2750 C   0  0  0  0  0  3  0  0  0  0  0  0
   27.4810   11.4380   27.8780 C   0  0  0  0  0  3  0  0  0  0  0  0
   28.0420   10.2530   28.2930 C   0  0  0  0  0  0  0  0  0  0  0  0
   29.8100    9.7910   27.7470 Br  0  0  0  0  0  0  0  0  0  0  0  0
   27.3140    9.4170   29.0980 C   0  0  0  0  0  3  0  0  0  0  0  0
   26.0330    9.7710   29.4810 C   0  0  0  0  0  3  0  0  0  0  0  0
   22.0090    8.2750   30.7420 C   0  0  0  0  0  0  0  0  0  0  0  0
   20.9830    8.5200   31.6250 C   0  0  0  0  0  3  0  0  0  0  0  0
   20.4490    7.5780   32.4860 C   0  0  0  0  0  0  0  0  0  0  0  0
   20.9660    6.3140   32.4680 C   0  0  0  0  0  3  0  0  0  0  0  0
   22.0050    6.0210   31.5900 C   0  0  0  0  0  3  0  0  0  0  0  0
   22.5120    6.9860   30.7460 C   0  0  0  0  0  3  0  0  0  0  0  0
   19.4230    7.9980   33.3020 O   0  0  0  0  0  0  0  0  0  0  0  0
   18.9020    9.2770   33.4240 C   0  0  0  0  0  1  0  0  0  0  0  0
  1 20  1  1  0  0  0
  1  7  1  0  0  0  0
  1  2  1  0  0  0  0
  2  3  1  0  0  0  0
  3  4  2  0  0  0  0
  5  3  1  0  0  0  0
  5  6  2  0  0  0  0
  7  5  1  0  0  0  0
  8  7  2  0  0  0  0
  8 27  1  0  0  0  0
  9  8  1  0  0  0  0
 10  2  1  0  0  0  0
 11 10  1  0  0  0  0
 11 12  1  0  0  0  0
 12 13  1  0  0  0  0
 13 19  1  0  0  0  0
 13 14  1  0  0  0  0
 15 14  1  0  0  0  0
 16 15  1  0  0  0  0
 17 18  1  0  0  0  0
 17 16  1  0  0  0  0
 18 13  1  0  0  0  0
 20 26  1  0  0  0  0
 21 20  2  0  0  0  0
 22 21  1  0  0  0  0
 22 23  2  0  0  0  0
 23 25  1  0  0  0  0
 24 23  1  0  0  0  0
 25 26  2  0  0  0  0
 27 32  2  0  0  0  0
 27 28  1  0  0  0  0
 28 29  2  0  0  0  0
 29 33  1  0  0  0  0
 30 29  1  0  0  0  0
 31 30  2  0  0  0  0
 32 31  1  0  0  0  0
 33 34  1  0  0  0  0
M  END
>  <Pose>
1

>  <Score>
-7.598

$$$$
