/Users/jonathanwahrer/Desktop/Msc/3_Semester/Drug_Design_Praktikum/waehrer_HTS_screening/HTS_experiment/out/docking_results/vina_output/3elj/0349_docked.pdbqt
 OpenBabel03192217323D

 32 35  0  0  1  0  0  0  0  0999 V2000
   23.8290    6.9250   31.2890 C   0  0  1  0  0  3  0  0  0  0  0  0
   22.8770    5.9000   31.3080 N   0  0  0  0  0  0  0  0  0  0  0  0
   23.6730    4.6980   31.6300 C   0  0  0  0  0  0  0  0  0  0  0  0
   23.2860    3.6730   32.2570 O   0  0  0  0  0  0  0  0  0  0  0  0
   24.9950    4.9720   31.0560 C   0  0  0  0  0  0  0  0  0  0  0  0
   26.0230    4.2290   31.0620 O   0  0  0  0  0  0  0  0  0  0  0  0
   24.8950    6.3120   30.4470 C   0  0  0  0  0  0  0  0  0  0  0  0
   25.5520    6.7740   29.4070 C   0  0  0  0  0  0  0  0  0  0  0  0
   25.2860    8.0460   28.9140 O   0  0  0  0  0  1  0  0  0  0  0  0
   21.4400    5.7450   31.1450 C   0  0  0  0  0  2  0  0  0  0  0  0
   20.6490    5.9930   32.4040 C   0  0  0  0  0  2  0  0  0  0  0  0
   19.9090    7.2120   32.3910 N   0  0  0  0  0  4  0  0  0  0  0  0
   20.5650    8.2050   33.2210 C   0  0  0  0  0  2  0  0  0  0  0  0
   19.7790    9.4880   33.1480 C   0  0  0  0  0  2  0  0  0  0  0  0
   18.5710    9.2490   33.8220 O   0  0  0  0  0  0  0  0  0  0  0  0
   17.8780    8.2930   33.1160 C   0  0  0  0  0  2  0  0  0  0  0  0
   18.6060    6.9750   33.0430 C   0  0  0  0  0  2  0  0  0  0  0  0
   19.7370    7.5750   31.4420 H   0  0  0  0  0  0  0  0  0  0  0  0
   23.6140    8.3200   31.2230 C   0  0  0  0  0  0  0  0  0  0  0  0
   24.4310    9.1360   32.0190 C   0  0  0  0  0  3  0  0  0  0  0  0
   24.3040   10.4960   32.0430 C   0  0  0  0  0  3  0  0  0  0  0  0
   23.3520   11.1270   31.2720 C   0  0  0  0  0  0  0  0  0  0  0  0
   23.1490   13.0320   31.2810 Br  0  0  0  0  0  0  0  0  0  0  0  0
   22.5490   10.3320   30.4900 C   0  0  0  0  0  3  0  0  0  0  0  0
   22.6830    8.9430   30.4700 C   0  0  0  0  0  3  0  0  0  0  0  0
   26.5850    6.0150   28.7210 C   0  0  0  0  0  0  0  0  0  0  0  0
   26.3860    5.0930   27.7410 C   0  0  0  0  0  3  0  0  0  0  0  0
   27.4660    4.4690   27.1330 C   0  0  0  0  0  3  0  0  0  0  0  0
   28.7530    4.7740   27.5140 C   0  0  0  0  0  0  0  0  0  0  0  0
   28.9970    5.6990   28.5010 C   0  0  0  0  0  3  0  0  0  0  0  0
   29.9400    4.1230   26.8830 C   0  0  0  0  0  1  0  0  0  0  0  0
   27.9010    6.3110   29.0940 C   0  0  0  0  0  3  0  0  0  0  0  0
  1 19  1  6  0  0  0
  1  2  1  0  0  0  0
  2  3  1  0  0  0  0
  3  4  2  0  0  0  0
  5  6  2  0  0  0  0
  5  3  1  0  0  0  0
  7  5  1  0  0  0  0
  7  1  1  0  0  0  0
  8  7  2  0  0  0  0
  9  8  1  0  0  0  0
 10  2  1  0  0  0  0
 10 11  1  0  0  0  0
 12 11  1  0  0  0  0
 12 17  1  0  0  0  0
 12 13  1  0  0  0  0
 14 13  1  0  0  0  0
 14 15  1  0  0  0  0
 16 15  1  0  0  0  0
 17 16  1  0  0  0  0
 18 12  1  0  0  0  0
 19 20  1  0  0  0  0
 20 21  2  0  0  0  0
 22 23  1  0  0  0  0
 22 21  1  0  0  0  0
 24 22  2  0  0  0  0
 25 24  1  0  0  0  0
 25 19  2  0  0  0  0
 26 32  1  0  0  0  0
 26  8  1  0  0  0  0
 27 26  2  0  0  0  0
 28 29  2  0  0  0  0
 28 27  1  0  0  0  0
 29 30  1  0  0  0  0
 30 32  2  0  0  0  0
 31 29  1  0  0  0  0
M  END
>  <Pose>
1

>  <Score>
-8.618

$$$$
