/Users/jonathanwahrer/Desktop/Msc/3_Semester/Drug_Design_Praktikum/waehrer_HTS_screening/HTS_experiment/out/docking_results/vina_output/3elj/0351_docked.pdbqt
 OpenBabel03192217323D

 32 35  0  0  1  0  0  0  0  0999 V2000
   23.7390    6.8970   31.3420 C   0  0  1  0  0  3  0  0  0  0  0  0
   22.7460    5.8900   31.4310 N   0  0  0  0  0  0  0  0  0  0  0  0
   23.5170    4.6780   31.6880 C   0  0  0  0  0  0  0  0  0  0  0  0
   23.1160    3.6610   32.3170 O   0  0  0  0  0  0  0  0  0  0  0  0
   24.8230    4.8980   31.0680 C   0  0  0  0  0  0  0  0  0  0  0  0
   25.8100    4.1200   31.0300 O   0  0  0  0  0  0  0  0  0  0  0  0
   24.7630    6.2370   30.4770 C   0  0  0  0  0  0  0  0  0  0  0  0
   25.4230    6.6870   29.4250 C   0  0  0  0  0  0  0  0  0  0  0  0
   25.2000    7.9710   28.9550 O   0  0  0  0  0  1  0  0  0  0  0  0
   21.2810    5.8990   31.3690 C   0  0  0  0  0  2  0  0  0  0  0  0
   20.6240    6.7610   32.4020 C   0  0  0  0  0  2  0  0  0  0  0  0
   19.8170    7.8120   31.8230 N   0  0  0  0  0  4  0  0  0  0  0  0
   20.0580    9.0960   32.4200 C   0  0  0  0  0  2  0  0  0  0  0  0
   19.5510    9.2180   33.8270 C   0  0  0  0  0  2  0  0  0  0  0  0
   18.2110    8.8440   33.9380 O   0  0  0  0  0  0  0  0  0  0  0  0
   18.1450    7.5020   33.5340 C   0  0  0  0  0  2  0  0  0  0  0  0
   18.4220    7.4770   32.0460 C   0  0  0  0  0  2  0  0  0  0  0  0
   19.9490    7.8990   30.7970 H   0  0  0  0  0  0  0  0  0  0  0  0
   23.4430    8.2490   31.0570 C   0  0  0  0  0  0  0  0  0  0  0  0
   22.7030    8.6420   29.9770 C   0  0  0  0  0  3  0  0  0  0  0  0
   22.4250    9.9980   29.7500 C   0  0  0  0  0  3  0  0  0  0  0  0
   22.8830   10.9790   30.5990 C   0  0  0  0  0  0  0  0  0  0  0  0
   22.5350   12.8290   30.3350 Br  0  0  0  0  0  0  0  0  0  0  0  0
   23.6260   10.5880   31.6820 C   0  0  0  0  0  3  0  0  0  0  0  0
   23.8890    9.2540   31.8900 C   0  0  0  0  0  3  0  0  0  0  0  0
   26.4120    5.9030   28.6990 C   0  0  0  0  0  0  0  0  0  0  0  0
   27.7400    6.1530   29.0690 C   0  0  0  0  0  3  0  0  0  0  0  0
   28.7940    5.4690   28.5100 C   0  0  0  0  0  3  0  0  0  0  0  0
   28.5150    4.5030   27.5490 C   0  0  0  0  0  0  0  0  0  0  0  0
   27.2070    4.2620   27.1900 C   0  0  0  0  0  3  0  0  0  0  0  0
   29.8630    3.6400   26.8430 Cl  0  0  0  0  0  0  0  0  0  0  0  0
   26.1570    4.9530   27.7580 C   0  0  0  0  0  3  0  0  0  0  0  0
  1 19  1  6  0  0  0
  1  2  1  0  0  0  0
  2  3  1  0  0  0  0
  3  4  2  0  0  0  0
  5  3  1  0  0  0  0
  6  5  2  0  0  0  0
  7  5  1  0  0  0  0
  7  1  1  0  0  0  0
  8  7  2  0  0  0  0
  9  8  1  0  0  0  0
 10  2  1  0  0  0  0
 10 11  1  0  0  0  0
 12 17  1  0  0  0  0
 12 11  1  0  0  0  0
 12 13  1  0  0  0  0
 13 14  1  0  0  0  0
 14 15  1  0  0  0  0
 16 15  1  0  0  0  0
 17 16  1  0  0  0  0
 18 12  1  0  0  0  0
 19 25  1  0  0  0  0
 20 19  2  0  0  0  0
 21 20  1  0  0  0  0
 21 22  2  0  0  0  0
 22 24  1  0  0  0  0
 23 22  1  0  0  0  0
 24 25  2  0  0  0  0
 26 27  1  0  0  0  0
 26  8  1  0  0  0  0
 28 27  2  0  0  0  0
 29 28  1  0  0  0  0
 30 29  2  0  0  0  0
 30 32  1  0  0  0  0
 31 29  1  0  0  0  0
 32 26  2  0  0  0  0
M  END
>  <Pose>
1

>  <Score>
-7.936

$$$$
