/Users/jonathanwahrer/Desktop/Msc/3_Semester/Drug_Design_Praktikum/waehrer_HTS_screening/HTS_experiment/out/docking_results/vina_output/3elj/0361_docked.pdbqt
 OpenBabel03192217333D

 33 36  0  0  1  0  0  0  0  0999 V2000
   24.1820   11.9980   31.0910 C   0  0  1  0  0  3  0  0  0  0  0  0
   23.0570   12.9460   30.9900 N   0  0  0  0  0  0  0  0  0  0  0  0
   22.1450   12.3210   30.0940 C   0  0  0  0  0  0  0  0  0  0  0  0
   21.2960   12.9440   29.3940 O   0  0  0  0  0  0  0  0  0  0  0  0
   22.3620   10.8780   30.1320 C   0  0  0  0  0  0  0  0  0  0  0  0
   21.7440   10.0090   29.4830 O   0  0  0  0  0  0  0  0  0  0  0  0
   23.4400   10.6840   31.0830 C   0  0  0  0  0  0  0  0  0  0  0  0
   23.7000    9.6260   31.8080 C   0  0  0  0  0  0  0  0  0  0  0  0
   24.7500    9.6200   32.7150 O   0  0  0  0  0  1  0  0  0  0  0  0
   25.0080   12.0320   29.8640 C   0  0  0  0  0  0  0  0  0  0  0  0
   25.9840   11.0920   29.6320 C   0  0  0  0  0  3  0  0  0  0  0  0
   26.7630   11.1000   28.4760 C   0  0  0  0  0  3  0  0  0  0  0  0
   26.5660   12.0740   27.5140 C   0  0  0  0  0  0  0  0  0  0  0  0
   27.6290   12.1020   25.9140 Br  0  0  0  0  0  0  0  0  0  0  0  0
   25.5910   13.0100   27.7490 C   0  0  0  0  0  3  0  0  0  0  0  0
   24.8280   12.9930   28.8930 C   0  0  0  0  0  3  0  0  0  0  0  0
   22.9120    8.4120   31.6980 C   0  0  0  0  0  0  0  0  0  0  0  0
   21.6700    8.1090   32.1300 N   0  0  0  0  0  0  0  0  0  0  0  0
   21.3590    6.8390   31.8330 C   0  0  0  0  0  0  0  0  0  0  0  0
   20.7240    8.8480   32.7630 C   0  0  0  0  0  3  0  0  0  0  0  0
   22.4360    6.3300   31.1970 N   0  0  0  0  0  0  0  0  0  0  0  0
   20.1280    6.2630   32.1470 C   0  0  0  0  0  3  0  0  0  0  0  0
   23.3920    7.2320   31.0910 C   0  0  0  0  0  0  0  0  0  0  0  0
   24.7490    7.1180   30.4650 C   0  0  0  0  0  1  0  0  0  0  0  0
   19.1650    7.0070   32.7900 C   0  0  0  0  0  3  0  0  0  0  0  0
   19.5010    8.3090   33.0840 C   0  0  0  0  0  3  0  0  0  0  0  0
   22.9510   14.2190   31.6540 C   0  0  0  0  0  2  0  0  0  0  0  0
   21.6880   14.5830   32.3290 C   0  0  0  0  0  2  0  0  0  0  0  0
   20.6550   15.3700   31.6240 C   0  0  0  0  0  2  0  0  0  0  0  0
   19.5600   14.6660   31.0290 N   0  0  0  0  0  4  0  0  0  0  0  0
   19.0780   13.6910   32.0490 C   0  0  0  0  0  1  0  0  0  0  0  0
   18.4390   15.5640   30.8430 C   0  0  0  0  0  1  0  0  0  0  0  0
   19.7510   14.1590   30.1660 H   0  0  0  0  0  0  0  0  0  0  0  0
  1 10  1  6  0  0  0
  2  1  1  0  0  0  0
  2 27  1  0  0  0  0
  3  5  1  0  0  0  0
  3  2  1  0  0  0  0
  4  3  2  0  0  0  0
  5  7  1  0  0  0  0
  6  5  2  0  0  0  0
  7  1  1  0  0  0  0
  7  8  2  0  0  0  0
  8  9  1  0  0  0  0
 11 10  1  0  0  0  0
 12 11  2  0  0  0  0
 13 15  2  0  0  0  0
 13 12  1  0  0  0  0
 14 13  1  0  0  0  0
 15 16  1  0  0  0  0
 16 10  2  0  0  0  0
 17  8  1  0  0  0  0
 17 18  1  0  0  0  0
 18 20  1  0  0  0  0
 19 18  1  0  0  0  0
 19 22  1  0  0  0  0
 20 26  2  0  0  0  0
 21 19  2  0  0  0  0
 22 25  2  0  0  0  0
 23 21  1  0  0  0  0
 23 17  2  0  0  0  0
 24 23  1  0  0  0  0
 25 26  1  0  0  0  0
 27 28  1  0  0  0  0
 29 28  1  0  0  0  0
 30 29  1  0  0  0  0
 30 31  1  0  0  0  0
 32 30  1  0  0  0  0
 33 30  1  0  0  0  0
M  END
>  <Pose>
1

>  <Score>
-8.692

$$$$
