/Users/jonathanwahrer/Desktop/Msc/3_Semester/Drug_Design_Praktikum/waehrer_HTS_screening/HTS_experiment/out/docking_results/vina_output/3elj/0362_docked.pdbqt
 OpenBabel03192217333D

 36 40  0  0  1  0  0  0  0  0999 V2000
   25.4900    9.7270   30.1400 C   0  0  2  0  0  3  0  0  0  0  0  0
   25.7770   10.7920   29.2730 N   0  0  0  0  0  0  0  0  0  0  0  0
   27.2080   10.6530   29.0600 C   0  0  0  0  0  0  0  0  0  0  0  0
   28.0500   11.5640   28.7520 O   0  0  0  0  0  0  0  0  0  0  0  0
   27.5490    9.2490   29.2610 C   0  0  0  0  0  0  0  0  0  0  0  0
   28.6680    8.6460   29.1890 O   0  0  0  0  0  0  0  0  0  0  0  0
   26.2830    8.5980   29.5900 C   0  0  0  0  0  0  0  0  0  0  0  0
   25.9580    7.3250   29.4660 C   0  0  0  0  0  0  0  0  0  0  0  0
   24.7120    6.8830   29.8880 O   0  0  0  0  0  1  0  0  0  0  0  0
   24.1660    9.4010   30.5710 C   0  0  0  0  0  0  0  0  0  0  0  0
   23.1250    9.2410   29.7010 C   0  0  0  0  0  3  0  0  0  0  0  0
   21.8650    8.9430   30.1730 C   0  0  0  0  0  3  0  0  0  0  0  0
   21.6020    8.7930   31.5220 C   0  0  0  0  0  0  0  0  0  0  0  0
   19.8570    8.3800   32.1750 Br  0  0  0  0  0  0  0  0  0  0  0  0
   22.6600    8.9560   32.3950 C   0  0  0  0  0  3  0  0  0  0  0  0
   23.9110    9.2540   31.9050 C   0  0  0  0  0  3  0  0  0  0  0  0
   26.8580    6.3360   28.8940 C   0  0  0  0  0  0  0  0  0  0  0  0
   27.4770    6.3740   27.7020 N   0  0  0  0  0  0  0  0  0  0  0  0
   28.2620    5.2820   27.5510 C   0  0  0  0  0  0  0  0  0  0  0  0
   27.4710    7.2380   26.6450 C   0  0  0  0  0  3  0  0  0  0  0  0
   28.1220    4.5590   28.6740 N   0  0  0  0  0  0  0  0  0  0  0  0
   29.0070    5.0570   26.4130 C   0  0  0  0  0  3  0  0  0  0  0  0
   27.2820    5.1590   29.5130 C   0  0  0  0  0  0  0  0  0  0  0  0
   26.8240    4.7380   30.8640 C   0  0  0  0  0  1  0  0  0  0  0  0
   28.9810    5.9470   25.3650 C   0  0  0  0  0  3  0  0  0  0  0  0
   28.1860    7.0630   25.5010 C   0  0  0  0  0  3  0  0  0  0  0  0
   25.1180   11.8840   28.6330 C   0  0  0  0  0  2  0  0  0  0  0  0
   24.5060   12.9780   29.3550 C   0  0  0  0  0  2  0  0  0  0  0  0
   23.0560   12.8390   29.7530 C   0  0  0  0  0  2  0  0  0  0  0  0
   22.9020   12.8270   31.2050 N   0  0  0  0  0  4  0  0  0  0  0  0
   21.5860   12.4750   31.6490 C   0  0  0  0  0  2  0  0  0  0  0  0
   20.6330   13.6270   31.7640 C   0  0  0  0  0  2  0  0  0  0  0  0
   21.0680   14.7680   31.1430 O   0  0  0  0  0  0  0  0  0  0  0  0
   22.3270   15.1830   31.4890 C   0  0  0  0  0  2  0  0  0  0  0  0
   23.2770   14.0740   31.7990 C   0  0  0  0  0  2  0  0  0  0  0  0
   23.5520   12.0820   31.5590 H   0  0  0  0  0  0  0  0  0  0  0  0
  1 10  1  6  0  0  0
  2  1  1  0  0  0  0
  3  5  1  0  0  0  0
  3  2  1  0  0  0  0
  4  3  2  0  0  0  0
  5  7  1  0  0  0  0
  6  5  2  0  0  0  0
  7  1  1  0  0  0  0
  8  7  2  0  0  0  0
  8  9  1  0  0  0  0
 10 16  1  0  0  0  0
 11 12  1  0  0  0  0
 11 10  2  0  0  0  0
 12 13  2  0  0  0  0
 13 14  1  0  0  0  0
 13 15  1  0  0  0  0
 16 15  2  0  0  0  0
 17  8  1  0  0  0  0
 17 23  2  0  0  0  0
 18 17  1  0  0  0  0
 19 18  1  0  0  0  0
 19 21  2  0  0  0  0
 20 18  1  0  0  0  0
 21 23  1  0  0  0  0
 22 19  1  0  0  0  0
 23 24  1  0  0  0  0
 25 26  1  0  0  0  0
 25 22  2  0  0  0  0
 26 20  2  0  0  0  0
 27  2  1  0  0  0  0
 27 28  1  0  0  0  0
 28 29  1  0  0  0  0
 29 30  1  0  0  0  0
 30 36  1  0  0  0  0
 30 31  1  0  0  0  0
 30 35  1  0  0  0  0
 31 32  1  0  0  0  0
 33 34  1  0  0  0  0
 33 32  1  0  0  0  0
 34 35  1  0  0  0  0
M  END
>  <Pose>
1

>  <Score>
-7.324

$$$$
