/Users/jonathanwahrer/Desktop/Msc/3_Semester/Drug_Design_Praktikum/waehrer_HTS_screening/HTS_experiment/out/docking_results/vina_output/3elj/0364_docked.pdbqt
 OpenBabel03192217333D

 32 35  0  0  1  0  0  0  0  0999 V2000
   22.3450   11.0700   31.9620 C   0  0  1  0  0  3  0  0  0  0  0  0
   21.7640    9.7590   32.0410 N   0  0  0  0  0  0  0  0  0  0  0  0
   21.9890    9.1190   30.7970 C   0  0  0  0  0  0  0  0  0  0  0  0
   21.4550    8.0370   30.4180 O   0  0  0  0  0  0  0  0  0  0  0  0
   22.9410    9.9110   30.0140 C   0  0  0  0  0  0  0  0  0  0  0  0
   23.3850    9.6610   28.8660 O   0  0  0  0  0  0  0  0  0  0  0  0
   23.2890   11.0640   30.8240 C   0  0  0  0  0  0  0  0  0  0  0  0
   24.2960   11.8920   30.5960 C   0  0  0  0  0  0  0  0  0  0  0  0
   24.5180   12.9100   31.5450 O   0  0  0  0  0  1  0  0  0  0  0  0
   21.3130   12.1330   31.8200 C   0  0  0  0  0  0  0  0  0  0  0  0
   21.2360   12.9520   30.7160 C   0  0  0  0  0  3  0  0  0  0  0  0
   20.2970   13.9430   30.5520 C   0  0  0  0  0  3  0  0  0  0  0  0
   19.3660   14.1530   31.5290 C   0  0  0  0  0  0  0  0  0  0  0  0
   18.0690   15.5340   31.2830 Br  0  0  0  0  0  0  0  0  0  0  0  0
   19.4010   13.3610   32.6510 C   0  0  0  0  0  3  0  0  0  0  0  0
   20.3480   12.3750   32.7990 C   0  0  0  0  0  3  0  0  0  0  0  0
   25.1870   11.8630   29.4630 C   0  0  0  0  0  0  0  0  0  0  0  0
   26.1990   11.0590   29.1150 N   0  0  0  0  0  0  0  0  0  0  0  0
   26.7640   11.4680   27.9660 C   0  0  0  0  0  0  0  0  0  0  0  0
   26.6960    9.9500   29.7040 C   0  0  0  0  0  3  0  0  0  0  0  0
   26.0930   12.5620   27.5670 N   0  0  0  0  0  0  0  0  0  0  0  0
   27.8280   10.8120   27.3560 C   0  0  0  0  0  3  0  0  0  0  0  0
   25.1300   12.8300   28.4510 C   0  0  0  0  0  0  0  0  0  0  0  0
   24.1720   13.9670   28.3570 C   0  0  0  0  0  1  0  0  0  0  0  0
   28.3270    9.6900   27.9580 C   0  0  0  0  0  3  0  0  0  0  0  0
   27.7470    9.2660   29.1400 C   0  0  0  0  0  3  0  0  0  0  0  0
   21.0600    9.1720   33.2020 C   0  0  0  0  0  2  0  0  0  0  0  0
   19.5870    9.0220   32.8910 C   0  0  0  0  0  2  0  0  0  0  0  0
   19.2270    7.7120   32.4720 N   0  0  0  0  0  4  0  0  0  0  0  0
   20.0240    6.7630   33.2490 C   0  0  0  0  0  1  0  0  0  0  0  0
   17.8440    7.3810   32.6230 C   0  0  0  0  0  1  0  0  0  0  0  0
   19.4810    7.5370   31.4590 H   0  0  0  0  0  0  0  0  0  0  0  0
  1 10  1  6  0  0  0
  1  2  1  0  0  0  0
  2 27  1  0  0  0  0
  3  2  1  0  0  0  0
  4  3  2  0  0  0  0
  5  3  1  0  0  0  0
  5  7  1  0  0  0  0
  6  5  2  0  0  0  0
  7  1  1  0  0  0  0
  8  7  2  0  0  0  0
  8  9  1  0  0  0  0
 10 16  1  0  0  0  0
 11 10  2  0  0  0  0
 12 11  1  0  0  0  0
 12 13  2  0  0  0  0
 13 15  1  0  0  0  0
 14 13  1  0  0  0  0
 15 16  2  0  0  0  0
 17  8  1  0  0  0  0
 18 17  1  0  0  0  0
 18 20  1  0  0  0  0
 19 18  1  0  0  0  0
 21 19  2  0  0  0  0
 21 23  1  0  0  0  0
 22 25  2  0  0  0  0
 22 19  1  0  0  0  0
 23 17  2  0  0  0  0
 24 23  1  0  0  0  0
 25 26  1  0  0  0  0
 26 20  2  0  0  0  0
 28 27  1  0  0  0  0
 29 31  1  0  0  0  0
 29 28  1  0  0  0  0
 29 30  1  0  0  0  0
 32 29  1  0  0  0  0
M  END
>  <Pose>
1

>  <Score>
-7.828

$$$$
