/Users/jonathanwahrer/Desktop/Msc/3_Semester/Drug_Design_Praktikum/waehrer_HTS_screening/HTS_experiment/out/docking_results/vina_output/3elj/0382_docked.pdbqt
 OpenBabel03192217343D

 31 34  0  0  0  0  0  0  0  0999 V2000
   25.4310    6.5470   29.8310 N   0  0  0  0  0  0  0  0  0  0  0  0
   26.2810    7.5620   29.6750 N   0  0  0  0  0  0  0  0  0  0  0  0
   25.7390    8.6620   30.1430 N   0  0  0  0  0  0  0  0  0  0  0  0
   24.5060    8.3630   30.6200 C   0  0  0  0  0  0  0  0  0  0  0  0
   24.3320    7.0510   30.4190 C   0  0  0  0  0  0  0  0  0  0  0  0
   23.0720    6.7880   30.9150 C   0  0  0  0  0  0  0  0  0  0  0  0
   22.5600    5.6300   30.8940 O   0  0  0  0  0  0  0  0  0  0  0  0
   22.4830    7.8900   31.4050 N   0  0  0  0  0  0  0  0  0  0  0  0
   23.3880    8.8930   31.2200 C   0  0  0  0  0  0  0  0  0  0  0  0
   23.1680   10.0850   31.5680 O   0  0  0  0  0  0  0  0  0  0  0  0
   27.2210    7.4530   29.2420 H   0  0  0  0  0  0  0  0  0  0  0  0
   26.1430    9.6310   30.1710 H   0  0  0  0  0  0  0  0  0  0  0  0
   25.6990    5.1820   29.4240 C   0  0  0  0  0  2  0  0  0  0  0  0
   25.8270    4.3220   30.6700 C   0  0  0  0  0  0  0  0  0  0  0  0
   24.7720    3.4840   31.0530 N   0  0  0  0  0  0  0  0  0  0  0  0
   23.8880    3.4720   30.4520 H   0  0  0  0  0  0  0  0  0  0  0  0
   26.8800    4.3800   31.3390 O   0  0  0  0  0  0  0  0  0  0  0  0
   24.7560    2.6280   32.1780 C   0  0  0  0  0  0  0  0  0  0  0  0
   25.5800    1.5390   32.3660 C   0  0  0  0  0  3  0  0  0  0  0  0
   25.5410    0.7440   33.5030 C   0  0  0  0  0  3  0  0  0  0  0  0
   24.6550    1.0200   34.5130 C   0  0  0  0  0  0  0  0  0  0  0  0
   24.5490   -0.0230   36.0980 Br  0  0  0  0  0  0  0  0  0  0  0  0
   23.8210    2.1040   34.3480 C   0  0  0  0  0  3  0  0  0  0  0  0
   23.8610    2.8800   33.2340 C   0  0  0  0  0  3  0  0  0  0  0  0
   21.1870    8.0280   32.0040 C   0  0  0  0  0  0  0  0  0  0  0  0
   20.7960    9.2160   32.5830 C   0  0  0  0  0  3  0  0  0  0  0  0
   19.5460    9.3610   33.1510 C   0  0  0  0  0  3  0  0  0  0  0  0
   18.6260    8.3280   33.1720 C   0  0  0  0  0  0  0  0  0  0  0  0
   19.0140    7.1380   32.5930 C   0  0  0  0  0  3  0  0  0  0  0  0
   17.2860    8.5180   33.7880 C   0  0  0  0  0  1  0  0  0  0  0  0
   20.2690    6.9990   32.0240 C   0  0  0  0  0  3  0  0  0  0  0  0
  1  5  1  0  0  0  0
  2  1  1  0  0  0  0
  2  3  1  0  0  0  0
  3 12  1  0  0  0  0
  3  4  1  0  0  0  0
  4  9  1  0  0  0  0
  5  4  2  0  0  0  0
  5  6  1  0  0  0  0
  6  8  1  0  0  0  0
  7  6  2  0  0  0  0
  8 25  1  0  0  0  0
  9  8  1  0  0  0  0
  9 10  2  0  0  0  0
 11  2  1  0  0  0  0
 13  1  1  0  0  0  0
 13 14  1  0  0  0  0
 14 15  1  0  0  0  0
 14 17  2  0  0  0  0
 15 18  1  0  0  0  0
 16 15  1  0  0  0  0
 18 19  2  0  0  0  0
 18 24  1  0  0  0  0
 19 20  1  0  0  0  0
 20 21  2  0  0  0  0
 21 22  1  0  0  0  0
 23 21  1  0  0  0  0
 24 23  2  0  0  0  0
 25 31  2  0  0  0  0
 25 26  1  0  0  0  0
 26 27  2  0  0  0  0
 27 28  1  0  0  0  0
 28 30  1  0  0  0  0
 29 28  2  0  0  0  0
 31 29  1  0  0  0  0
M  END
>  <Pose>
1

>  <Score>
-9.325

$$$$
