/Users/jonathanwahrer/Desktop/Msc/3_Semester/Drug_Design_Praktikum/waehrer_HTS_screening/HTS_experiment/out/docking_results/vina_output/3elj/0385_docked.pdbqt
 OpenBabel03192217343D

 32 35  0  0  1  0  0  0  0  0999 V2000
   23.0700   13.4800   30.7040 C   0  0  2  0  0  3  0  0  0  0  0  0
   22.6710   14.0220   32.0450 C   0  0  0  0  0  2  0  0  0  0  0  0
   21.9140   15.2790   31.9940 C   0  0  0  0  0  0  0  0  0  0  0  0
   21.0710   15.4970   32.9060 O   0  0  0  0  0  0  0  0  0  0  0  0
   22.1350   16.2040   30.9450 N   0  0  0  0  0  0  0  0  0  0  0  0
   22.8220   15.7990   29.7790 C   0  0  0  0  0  0  0  0  0  0  0  0
   23.0360   16.7140   28.7830 N   0  0  0  0  0  0  0  0  0  0  0  0
   23.6900   16.4040   27.6620 C   0  0  0  0  0  0  0  0  0  0  0  0
   24.1390   15.1490   27.5310 N   0  0  0  0  0  0  0  0  0  0  0  0
   23.9500   14.1980   28.4920 C   0  0  0  0  0  0  0  0  0  0  0  0
   23.2790   14.4940   29.6620 C   0  0  0  0  0  0  0  0  0  0  0  0
   21.7970   17.2080   31.0050 H   0  0  0  0  0  0  0  0  0  0  0  0
   21.9530   12.4850   30.3220 C   0  0  0  0  0  0  0  0  0  0  0  0
   22.1620   11.1850   30.4420 N   0  0  0  0  0  0  0  0  0  0  0  0
   20.9790   10.9330   29.8140 H   0  0  0  0  0  0  0  0  0  0  0  0
   20.9130   13.1400   29.9130 O   0  0  0  0  0  0  0  0  0  0  0  0
   22.3770    9.8360   30.5650 C   0  0  0  0  0  0  0  0  0  0  0  0
   21.5990    9.1560   31.5540 C   0  0  0  0  0  3  0  0  0  0  0  0
   21.6720    7.8200   31.7150 C   0  0  0  0  0  3  0  0  0  0  0  0
   22.4980    7.0460   30.9390 C   0  0  0  0  0  0  0  0  0  0  0  0
   22.5850    5.1440   31.1780 Br  0  0  0  0  0  0  0  0  0  0  0  0
   23.2670    7.6620   29.9760 C   0  0  0  0  0  3  0  0  0  0  0  0
   23.1930    9.0230   29.8090 C   0  0  0  0  0  3  0  0  0  0  0  0
   24.4360   12.8740   28.3000 N   0  0  0  0  0  0  0  0  0  0  0  0
   25.0250   12.6000   27.5080 H   0  0  0  0  0  0  0  0  0  0  0  0
   24.1730   12.1370   29.0040 H   0  0  0  0  0  0  0  0  0  0  0  0
   23.9020   17.3870   26.6220 N   0  0  0  0  0  0  0  0  0  0  0  0
   23.2010   18.6170   26.7430 C   0  0  0  0  0  2  0  0  0  0  0  0
   23.7760   19.7380   25.9250 C   0  0  0  0  0  2  0  0  0  0  0  0
   24.9480   19.3740   25.2720 O   0  0  0  0  0  0  0  0  0  0  0  0
   24.7970   18.1940   24.5570 C   0  0  0  0  0  2  0  0  0  0  0  0
   24.8090   17.0540   25.5430 C   0  0  0  0  0  2  0  0  0  0  0  0
  1 13  1  6  0  0  0
  1  2  1  0  0  0  0
  3  2  1  0  0  0  0
  3  4  2  0  0  0  0
  5 12  1  0  0  0  0
  5  3  1  0  0  0  0
  6  5  1  0  0  0  0
  7  6  1  0  0  0  0
  8  7  2  0  0  0  0
  9  8  1  0  0  0  0
  9 10  2  0  0  0  0
 10 11  1  0  0  0  0
 11  6  2  0  0  0  0
 11  1  1  0  0  0  0
 13 14  1  0  0  0  0
 14 17  1  0  0  0  0
 15 14  1  0  0  0  0
 16 13  2  0  0  0  0
 17 18  1  0  0  0  0
 18 19  2  0  0  0  0
 20 21  1  0  0  0  0
 20 19  1  0  0  0  0
 22 20  2  0  0  0  0
 23 22  1  0  0  0  0
 23 17  2  0  0  0  0
 24 10  1  0  0  0  0
 24 26  1  0  0  0  0
 25 24  1  0  0  0  0
 27 28  1  0  0  0  0
 27  8  1  0  0  0  0
 29 28  1  0  0  0  0
 30 29  1  0  0  0  0
 31 30  1  0  0  0  0
 31 32  1  0  0  0  0
 32 27  1  0  0  0  0
M  END
>  <Pose>
1

>  <Score>
-9.060

$$$$
