/Users/jonathanwahrer/Desktop/Msc/3_Semester/Drug_Design_Praktikum/waehrer_HTS_screening/HTS_experiment/out/docking_results/vina_output/3elj/0386_docked.pdbqt
 OpenBabel03192217343D

 36 39  0  0  1  0  0  0  0  0999 V2000
   21.4250    6.3420   31.8690 C   0  0  2  0  0  3  0  0  0  0  0  0
   19.9240    6.5400   31.9780 C   0  0  0  0  0  2  0  0  0  0  0  0
   19.6830    7.7060   32.8820 C   0  0  0  0  0  0  0  0  0  0  0  0
   18.8850    7.6290   33.7990 O   0  0  0  0  0  0  0  0  0  0  0  0
   20.4160    8.8700   32.6100 N   0  0  0  0  0  0  0  0  0  0  0  0
   21.6190    8.8120   31.8690 C   0  0  0  0  0  0  0  0  0  0  0  0
   22.2810    9.9320   31.5170 N   0  0  0  0  0  0  0  0  0  0  0  0
   23.3670    9.9760   30.7450 C   0  0  0  0  0  0  0  0  0  0  0  0
   23.8050    8.7700   30.3000 N   0  0  0  0  0  0  0  0  0  0  0  0
   23.1910    7.6010   30.6160 C   0  0  0  0  0  0  0  0  0  0  0  0
   22.0840    7.5570   31.4080 C   0  0  0  0  0  0  0  0  0  0  0  0
   20.1110    9.8270   32.9330 H   0  0  0  0  0  0  0  0  0  0  0  0
   21.8230    5.0250   31.3010 C   0  0  0  0  0  0  0  0  0  0  0  0
   22.7800    4.2590   31.8600 N   0  0  0  0  0  0  0  0  0  0  0  0
   22.5070    3.2680   30.9880 H   0  0  0  0  0  0  0  0  0  0  0  0
   21.1110    4.7740   30.2370 O   0  0  0  0  0  0  0  0  0  0  0  0
   23.7550    3.4770   32.4270 C   0  0  0  0  0  0  0  0  0  0  0  0
   25.0280    3.5640   31.7770 C   0  0  0  0  0  3  0  0  0  0  0  0
   26.0240    2.7700   32.2380 C   0  0  0  0  0  3  0  0  0  0  0  0
   25.8690    1.8900   33.2950 C   0  0  0  0  0  0  0  0  0  0  0  0
   27.3310    0.8260   33.8560 Br  0  0  0  0  0  0  0  0  0  0  0  0
   24.6610    1.7950   33.9250 C   0  0  0  0  0  3  0  0  0  0  0  0
   23.6340    2.5940   33.4730 C   0  0  0  0  0  3  0  0  0  0  0  0
   23.7040    6.4080   30.1140 O   0  0  0  0  0  0  0  0  0  0  0  0
   23.1850    5.5330   30.1520 H   0  0  0  0  0  0  0  0  0  0  0  0
   24.0740   11.1610   30.4320 N   0  0  0  0  0  0  0  0  0  0  0  0
   24.1210   11.8200   29.1530 C   0  0  0  0  0  2  0  0  0  0  0  0
   24.0940   13.3270   29.3900 C   0  0  0  0  0  2  0  0  0  0  0  0
   23.3560   13.6910   30.6450 C   0  0  2  0  0  3  0  0  0  0  0  0
   23.9780   13.0700   31.8460 C   0  0  0  0  0  2  0  0  0  0  0  0
   24.8350   11.8320   31.4920 C   0  0  0  0  0  2  0  0  0  0  0  0
   21.9050   13.4130   30.5360 C   0  0  0  0  0  0  0  0  0  0  0  0
   21.2000   13.6010   31.5490 O   0  0  0  0  0  0  0  0  0  0  0  0
   21.2790   12.9470   29.3580 N   0  0  0  0  0  0  0  0  0  0  0  0
   21.5750   13.2460   28.4110 H   0  0  0  0  0  0  0  0  0  0  0  0
   20.4900   12.2730   29.4450 H   0  0  0  0  0  0  0  0  0  0  0  0
  1 13  1  6  0  0  0
  1  2  1  0  0  0  0
  2  3  1  0  0  0  0
  3  4  2  0  0  0  0
  5  3  1  0  0  0  0
  5 12  1  0  0  0  0
  6  5  1  0  0  0  0
  7  6  1  0  0  0  0
  8  7  2  0  0  0  0
  9 10  2  0  0  0  0
  9  8  1  0  0  0  0
 10 11  1  0  0  0  0
 11  1  1  0  0  0  0
 11  6  2  0  0  0  0
 13 14  1  0  0  0  0
 14 17  1  0  0  0  0
 15 14  1  0  0  0  0
 16 13  2  0  0  0  0
 17 23  1  0  0  0  0
 18 19  1  0  0  0  0
 18 17  2  0  0  0  0
 19 20  2  0  0  0  0
 20 21  1  0  0  0  0
 20 22  1  0  0  0  0
 23 22  2  0  0  0  0
 24 25  1  0  0  0  0
 24 10  1  0  0  0  0
 26  8  1  0  0  0  0
 26 31  1  0  0  0  0
 27 28  1  0  0  0  0
 27 26  1  0  0  0  0
 28 29  1  0  0  0  0
 29 32  1  6  0  0  0
 29 30  1  0  0  0  0
 31 30  1  0  0  0  0
 32 33  2  0  0  0  0
 34 36  1  0  0  0  0
 34 32  1  0  0  0  0
 35 34  1  0  0  0  0
M  END
>  <Pose>
1

>  <Score>
-9.203

$$$$
