/Users/jonathanwahrer/Desktop/Msc/3_Semester/Drug_Design_Praktikum/waehrer_HTS_screening/HTS_experiment/out/docking_results/vina_output/3elj/0393_docked.pdbqt
 OpenBabel03192217353D

 27 30  0  0  0  0  0  0  0  0999 V2000
   25.0910    7.8580   29.7320 N   0  0  0  0  0  0  0  0  0  0  0  0
   26.1980    8.0850   29.0690 N   0  0  0  0  0  0  0  0  0  0  0  0
   26.8030    6.9480   28.6710 C   0  0  0  0  0  3  0  0  0  0  0  0
   26.0120    5.9260   29.1220 C   0  0  0  0  0  0  0  0  0  0  0  0
   24.9530    6.5160   29.7790 C   0  0  0  0  0  0  0  0  0  0  0  0
   26.2770    4.5070   28.9230 C   0  0  0  0  0  0  0  0  0  0  0  0
   25.8560    4.0030   27.8530 O   0  0  0  0  0  0  0  0  0  0  0  0
   26.9660    3.7040   29.8580 N   0  0  0  0  0  0  0  0  0  0  0  0
   27.1750    2.3070   29.5630 C   0  0  0  0  0  2  0  0  0  0  0  0
   27.4960    4.1660   31.1200 C   0  0  0  0  0  2  0  0  0  0  0  0
   28.6460    2.0900   29.3690 C   0  0  0  0  0  2  0  0  0  0  0  0
   29.4450    3.1380   29.9940 N   0  0  0  0  0  0  0  0  0  0  0  0
   28.9580    3.9340   31.0690 C   0  0  0  0  0  0  0  0  0  0  0  0
   30.4260    3.2970   29.6150 H   0  0  0  0  0  0  0  0  0  0  0  0
   29.7610    4.4020   31.9130 O   0  0  0  0  0  0  0  0  0  0  0  0
   23.8580    5.8260   30.4230 N   0  0  0  0  0  0  0  0  0  0  0  0
   22.5670    5.8790   30.1310 C   0  0  0  0  0  3  0  0  0  0  0  0
   21.8470    5.0730   30.9810 C   0  0  0  0  0  3  0  0  0  0  0  0
   22.7760    4.5130   31.8250 C   0  0  0  0  0  3  0  0  0  0  0  0
   24.0150    4.9910   31.4630 C   0  0  0  0  0  3  0  0  0  0  0  0
   24.2290    8.8580   30.2810 C   0  0  0  0  0  0  0  0  0  0  0  0
   23.2260    9.4490   29.5360 C   0  0  0  0  0  3  0  0  0  0  0  0
   22.3810   10.4160   30.0440 C   0  0  0  0  0  3  0  0  0  0  0  0
   22.5230   10.8290   31.3520 C   0  0  0  0  0  0  0  0  0  0  0  0
   21.3650   12.1670   32.0770 Br  0  0  0  0  0  0  0  0  0  0  0  0
   23.5220   10.2500   32.1110 C   0  0  0  0  0  3  0  0  0  0  0  0
   24.3590    9.2830   31.5900 C   0  0  0  0  0  3  0  0  0  0  0  0
  1  5  1  0  0  0  0
  1 21  1  0  0  0  0
  2  1  1  0  0  0  0
  3  2  2  0  0  0  0
  3  4  1  0  0  0  0
  4  5  2  0  0  0  0
  5 16  1  0  0  0  0
  6  4  1  0  0  0  0
  6  8  1  0  0  0  0
  7  6  2  0  0  0  0
  8 10  1  0  0  0  0
  9  8  1  0  0  0  0
 11  9  1  0  0  0  0
 11 12  1  0  0  0  0
 12 13  1  0  0  0  0
 13 10  1  0  0  0  0
 13 15  2  0  0  0  0
 14 12  1  0  0  0  0
 16 20  1  0  0  0  0
 17 16  1  0  0  0  0
 17 18  2  0  0  0  0
 18 19  1  0  0  0  0
 20 19  2  0  0  0  0
 21 27  1  0  0  0  0
 22 23  1  0  0  0  0
 22 21  2  0  0  0  0
 23 24  2  0  0  0  0
 24 25  1  0  0  0  0
 24 26  1  0  0  0  0
 27 26  2  0  0  0  0
M  END
>  <Pose>
1

>  <Score>
-7.046

$$$$
