/Users/jonathanwahrer/Desktop/Msc/3_Semester/Drug_Design_Praktikum/waehrer_HTS_screening/HTS_experiment/out/docking_results/vina_output/3elj/0395_docked.pdbqt
 OpenBabel03192217353D

 28 31  0  0  1  0  0  0  0  0999 V2000
   20.7360   10.3660   32.6560 N   0  0  0  0  0  0  0  0  0  0  0  0
   19.9310    9.9150   33.6020 N   0  0  0  0  0  0  0  0  0  0  0  0
   19.8600    8.5950   33.5880 N   0  0  0  0  0  0  0  0  0  0  0  0
   20.6530    8.1280   32.5860 C   0  0  0  0  0  0  0  0  0  0  0  0
   21.1880    9.2710   32.0200 C   0  0  0  0  0  0  0  0  0  0  0  0
   22.0240    9.1030   30.9880 N   0  0  0  0  0  0  0  0  0  0  0  0
   22.3200    7.8730   30.5340 C   0  0  0  0  0  3  0  0  0  0  0  0
   21.8000    6.7510   31.0820 N   0  0  0  0  0  0  0  0  0  0  0  0
   20.9590    6.8740   32.1160 C   0  0  0  0  0  0  0  0  0  0  0  0
   20.4760    5.8380   32.6250 O   0  0  0  0  0  0  0  0  0  0  0  0
   22.1780    5.4680   30.5200 C   0  0  0  0  0  2  0  0  0  0  0  0
   23.6790    5.3250   30.5160 C   0  0  0  0  0  0  0  0  0  0  0  0
   24.3890    6.0370   29.7560 O   0  0  0  0  0  0  0  0  0  0  0  0
   24.3210    4.3910   31.3630 N   0  0  0  0  0  0  0  0  0  0  0  0
   25.7570    4.2450   31.3670 C   0  0  0  0  0  2  0  0  0  0  0  0
   23.5430    3.5560   32.2480 C   0  0  0  0  0  2  0  0  0  0  0  0
   26.0490    2.7550   31.3560 C   0  0  2  0  0  3  0  0  0  0  0  0
   25.4450    2.0700   32.3790 O   0  0  0  0  0  0  0  0  0  0  0  0
   27.5620    2.6160   31.5550 C   0  0  0  0  0  1  0  0  0  0  0  0
   24.5350    2.7980   33.1050 C   0  0  2  0  0  3  0  0  0  0  0  0
   23.8000    1.9850   34.1300 C   0  0  0  0  0  1  0  0  0  0  0  0
   21.0700   11.7220   32.3510 C   0  0  0  0  0  0  0  0  0  0  0  0
   20.2210   12.7450   32.7180 C   0  0  0  0  0  3  0  0  0  0  0  0
   20.5380   14.0640   32.4270 C   0  0  0  0  0  3  0  0  0  0  0  0
   21.6990   14.4080   31.7670 C   0  0  0  0  0  0  0  0  0  0  0  0
   22.1150   16.2360   31.3760 Br  0  0  0  0  0  0  0  0  0  0  0  0
   22.5480   13.3850   31.4000 C   0  0  0  0  0  3  0  0  0  0  0  0
   22.2300   12.0740   31.6910 C   0  0  0  0  0  3  0  0  0  0  0  0
  1  2  1  0  0  0  0
  3  2  2  0  0  0  0
  4  3  1  0  0  0  0
  5  4  2  0  0  0  0
  5  1  1  0  0  0  0
  6  5  1  0  0  0  0
  7  6  2  0  0  0  0
  7  8  1  0  0  0  0
  8  9  1  0  0  0  0
  9  4  1  0  0  0  0
  9 10  2  0  0  0  0
 11  8  1  0  0  0  0
 12 11  1  0  0  0  0
 12 14  1  0  0  0  0
 13 12  2  0  0  0  0
 14 15  1  0  0  0  0
 14 16  1  0  0  0  0
 16 20  1  0  0  0  0
 17 15  1  0  0  0  0
 17 19  1  1  0  0  0
 17 18  1  0  0  0  0
 18 20  1  0  0  0  0
 20 21  1  1  0  0  0
 22  1  1  0  0  0  0
 22 23  1  0  0  0  0
 24 23  2  0  0  0  0
 25 24  1  0  0  0  0
 26 25  1  0  0  0  0
 27 28  1  0  0  0  0
 27 25  2  0  0  0  0
 28 22  2  0  0  0  0
M  END
>  <Pose>
1

>  <Score>
-8.990

$$$$
