/Users/jonathanwahrer/Desktop/Msc/3_Semester/Drug_Design_Praktikum/waehrer_HTS_screening/HTS_experiment/out/docking_results/vina_output/3elj/0400_docked.pdbqt
 OpenBabel03192217353D

 31 34  0  0  1  0  0  0  0  0999 V2000
   24.1390   12.4890   30.3770 N   0  0  2  0  0  0  0  0  0  0  0  0
   23.5530   12.6690   31.6430 C   0  0  0  0  0  2  0  0  0  0  0  0
   23.2240   14.1570   31.8240 C   0  0  0  0  0  2  0  0  0  0  0  0
   22.1280   14.5930   30.8770 C   0  0  1  0  0  0  0  0  0  0  0  0
   22.3410   13.9750   29.5540 C   0  0  0  0  0  2  0  0  0  0  0  0
   23.7400   13.4310   29.4010 C   0  0  0  0  0  2  0  0  0  0  0  0
   24.4240   11.1880   29.9250 C   0  0  2  0  0  3  0  0  0  0  0  0
   23.1630   10.4090   29.8170 C   0  0  0  0  0  0  0  0  0  0  0  0
   23.1880    9.4000   30.8320 N   0  0  0  0  0  0  0  0  0  0  0  0
   22.2600   10.6260   28.9730 O   0  0  0  0  0  0  0  0  0  0  0  0
   24.5660    9.1570   31.0820 C   0  0  0  0  0  0  0  0  0  0  0  0
   25.3420   10.4020   30.8360 C   0  0  0  0  0  2  0  0  0  0  0  0
   25.0450    8.0310   31.4620 O   0  0  0  0  0  0  0  0  0  0  0  0
   22.0570    8.7780   31.4480 C   0  0  0  0  0  0  0  0  0  0  0  0
   21.1560    9.5370   32.1470 C   0  0  0  0  0  3  0  0  0  0  0  0
   20.0420    8.9470   32.7560 C   0  0  0  0  0  3  0  0  0  0  0  0
   19.8070    7.5930   32.6810 C   0  0  0  0  0  0  0  0  0  0  0  0
   18.2890    6.7760   33.5090 Br  0  0  0  0  0  0  0  0  0  0  0  0
   20.7140    6.8300   31.9780 C   0  0  0  0  0  3  0  0  0  0  0  0
   21.8120    7.4250   31.3780 C   0  0  0  0  0  3  0  0  0  0  0  0
   20.8890   14.3590   31.4940 N   0  0  0  0  0  0  0  0  0  0  0  0
   20.8470   14.1900   32.8860 C   0  0  0  0  0  2  0  0  0  0  0  0
   20.1510   12.8430   33.1490 C   0  0  0  0  0  2  0  0  0  0  0  0
   18.7270   13.0150   32.6620 C   0  0  0  0  0  2  0  0  0  0  0  0
   18.5440   14.1910   31.7620 C   0  0  0  0  0  2  0  0  0  0  0  0
   19.7080   14.3750   30.7770 C   0  0  0  0  0  2  0  0  0  0  0  0
   22.2950   16.0830   30.7340 C   0  0  0  0  0  0  0  0  0  0  0  0
   22.5260   16.7930   31.7590 O   0  0  0  0  0  0  0  0  0  0  0  0
   22.2050   16.7500   29.4900 N   0  0  0  0  0  0  0  0  0  0  0  0
   21.4660   17.4470   29.3380 H   0  0  0  0  0  0  0  0  0  0  0  0
   22.8780   16.5480   28.7260 H   0  0  0  0  0  0  0  0  0  0  0  0
  1  6  1  6  0  0  0
  1  2  1  0  0  0  0
  2  3  1  0  0  0  0
  4 27  1  6  0  0  0
  4 21  1  0  0  0  0
  4  3  1  0  0  0  0
  5  4  1  0  0  0  0
  6  5  1  0  0  0  0
  7  1  1  0  0  0  0
  7 12  1  1  0  0  0
  8  7  1  0  0  0  0
  8  9  1  0  0  0  0
  9 11  1  0  0  0  0
  9 14  1  0  0  0  0
 10  8  2  0  0  0  0
 11 13  2  0  0  0  0
 12 11  1  0  0  0  0
 14 15  1  0  0  0  0
 15 16  2  0  0  0  0
 17 16  1  0  0  0  0
 17 18  1  0  0  0  0
 19 17  2  0  0  0  0
 20 14  2  0  0  0  0
 20 19  1  0  0  0  0
 21 22  1  0  0  0  0
 22 23  1  0  0  0  0
 24 23  1  0  0  0  0
 25 24  1  0  0  0  0
 26 21  1  0  0  0  0
 26 25  1  0  0  0  0
 27 28  2  0  0  0  0
 29 27  1  0  0  0  0
 30 29  1  0  0  0  0
 31 29  1  0  0  0  0
M  END
>  <Pose>
1

>  <Score>
-8.468

$$$$
