/Users/jonathanwahrer/Desktop/Msc/3_Semester/Drug_Design_Praktikum/waehrer_HTS_screening/HTS_experiment/out/docking_results/vina_output/3elj/0412_docked.pdbqt
 OpenBabel03192217363D

 34 37  0  0  0  0  0  0  0  0999 V2000
   26.5160   11.3170   28.7020 N   0  0  0  0  0  0  0  0  0  0  0  0
   25.5840   11.1250   29.6380 C   0  0  0  0  0  0  0  0  0  0  0  0
   25.6600   10.2360   30.5510 O   0  0  0  0  0  0  0  0  0  0  0  0
   24.5120   11.9800   29.5280 C   0  0  0  0  0  0  0  0  0  0  0  0
   24.8120   12.7430   28.4590 C   0  0  0  0  0  0  0  0  0  0  0  0
   23.7690   13.5990   28.3290 N   0  0  0  0  0  0  0  0  0  0  0  0
   22.8750   13.3720   29.2740 N   0  0  0  0  0  0  0  0  0  0  0  0
   23.3260   12.3800   30.0140 N   0  0  0  0  0  0  0  0  0  0  0  0
   26.0270   12.3500   27.9480 C   0  0  0  0  0  0  0  0  0  0  0  0
   26.6450   12.8130   26.9600 O   0  0  0  0  0  0  0  0  0  0  0  0
   23.7060   14.3240   27.5760 H   0  0  0  0  0  0  0  0  0  0  0  0
   21.9790   13.9230   29.3620 H   0  0  0  0  0  0  0  0  0  0  0  0
   22.6450   11.8330   31.1510 C   0  0  0  0  0  2  0  0  0  0  0  0
   22.1760   10.4630   30.9560 C   0  0  0  0  0  0  0  0  0  0  0  0
   21.8010   10.0260   29.8290 O   0  0  0  0  0  0  0  0  0  0  0  0
   22.1400    9.6050   32.0780 N   0  0  0  0  0  0  0  0  0  0  0  0
   22.4460    9.9540   33.0380 H   0  0  0  0  0  0  0  0  0  0  0  0
   21.6880    8.2720   31.9070 C   0  0  0  0  0  0  0  0  0  0  0  0
   20.4490    7.9740   32.4190 C   0  0  0  0  0  3  0  0  0  0  0  0
   19.9430    6.6720   32.3180 C   0  0  0  0  0  0  0  0  0  0  0  0
   20.6880    5.6970   31.7100 C   0  0  0  0  0  3  0  0  0  0  0  0
   21.9470    5.9840   31.1860 C   0  0  0  0  0  0  0  0  0  0  0  0
   22.4180    7.2820   31.3010 C   0  0  0  0  0  3  0  0  0  0  0  0
   18.6940    6.4890   32.8610 O   0  0  0  0  0  0  0  0  0  0  0  0
   17.6450    7.3770   32.7320 C   0  0  0  0  0  1  0  0  0  0  0  0
   22.6400    4.9510   30.5920 O   0  0  0  0  0  0  0  0  0  0  0  0
   24.0110    4.7090   30.6600 C   0  0  0  0  0  1  0  0  0  0  0  0
   27.7580   10.6400   28.4890 C   0  0  0  0  0  0  0  0  0  0  0  0
   27.8270    9.5350   27.6770 C   0  0  0  0  0  3  0  0  0  0  0  0
   29.0500    8.8760   27.4710 C   0  0  0  0  0  3  0  0  0  0  0  0
   30.2030    9.3190   28.0730 C   0  0  0  0  0  0  0  0  0  0  0  0
   31.8850    8.4190   27.7890 Br  0  0  0  0  0  0  0  0  0  0  0  0
   30.1300   10.4270   28.8860 C   0  0  0  0  0  3  0  0  0  0  0  0
   28.9280   11.0640   29.0830 C   0  0  0  0  0  3  0  0  0  0  0  0
  1  2  1  0  0  0  0
  2  3  2  0  0  0  0
  4  2  1  0  0  0  0
  4  8  1  0  0  0  0
  5  4  2  0  0  0  0
  6  5  1  0  0  0  0
  6  7  1  0  0  0  0
  7 12  1  0  0  0  0
  7  8  1  0  0  0  0
  8 13  1  0  0  0  0
  9  5  1  0  0  0  0
  9  1  1  0  0  0  0
 10  9  2  0  0  0  0
 11  6  1  0  0  0  0
 14 13  1  0  0  0  0
 14 16  1  0  0  0  0
 15 14  2  0  0  0  0
 16 17  1  0  0  0  0
 18 16  1  0  0  0  0
 18 19  1  0  0  0  0
 20 19  2  0  0  0  0
 20 24  1  0  0  0  0
 21 20  1  0  0  0  0
 22 23  1  0  0  0  0
 22 21  2  0  0  0  0
 23 18  2  0  0  0  0
 25 24  1  0  0  0  0
 26 27  1  0  0  0  0
 26 22  1  0  0  0  0
 28  1  1  0  0  0  0
 28 34  1  0  0  0  0
 29 28  2  0  0  0  0
 30 29  1  0  0  0  0
 30 31  2  0  0  0  0
 31 33  1  0  0  0  0
 32 31  1  0  0  0  0
 33 34  2  0  0  0  0
M  END
>  <Pose>
1

>  <Score>
-8.194

$$$$
