/Users/jonathanwahrer/Desktop/Msc/3_Semester/Drug_Design_Praktikum/waehrer_HTS_screening/HTS_experiment/out/docking_results/vina_output/3elj/0414_docked.pdbqt
 OpenBabel03192217363D

 35 38  0  0  0  0  0  0  0  0999 V2000
   24.1550    7.7040   30.2500 N   0  0  0  0  0  0  0  0  0  0  0  0
   23.3150    8.0430   31.2600 C   0  0  0  0  0  0  0  0  0  0  0  0
   23.3970    9.0810   31.9870 O   0  0  0  0  0  0  0  0  0  0  0  0
   22.3330    7.0760   31.3900 C   0  0  0  0  0  0  0  0  0  0  0  0
   22.5980    6.1680   30.4540 C   0  0  0  0  0  0  0  0  0  0  0  0
   21.6490    5.2080   30.5610 N   0  0  0  0  0  0  0  0  0  0  0  0
   20.8370    5.5590   31.5530 N   0  0  0  0  0  0  0  0  0  0  0  0
   21.2260    6.7010   32.0870 N   0  0  0  0  0  0  0  0  0  0  0  0
   23.7160    6.5420   29.7470 C   0  0  0  0  0  0  0  0  0  0  0  0
   24.2500    5.9260   28.7970 O   0  0  0  0  0  0  0  0  0  0  0  0
   21.5800    4.3570   29.9660 H   0  0  0  0  0  0  0  0  0  0  0  0
   20.0160    5.0080   31.8600 H   0  0  0  0  0  0  0  0  0  0  0  0
   20.6390    7.4530   33.1890 C   0  0  0  0  0  2  0  0  0  0  0  0
   20.2460    8.8240   32.6950 C   0  0  0  0  0  0  0  0  0  0  0  0
   19.2210    8.7990   31.9690 O   0  0  0  0  0  0  0  0  0  0  0  0
   21.0010    9.9370   33.0580 N   0  0  0  0  0  0  0  0  0  0  0  0
   21.8420    9.7380   33.6880 H   0  0  0  0  0  0  0  0  0  0  0  0
   20.7760   11.2860   32.6860 C   0  0  0  0  0  0  0  0  0  0  0  0
   19.7780   12.0890   33.1850 C   0  0  0  0  0  3  0  0  0  0  0  0
   19.6200   13.4170   32.7640 C   0  0  0  0  0  3  0  0  0  0  0  0
   20.4600   13.9770   31.8320 C   0  0  0  0  0  0  0  0  0  0  0  0
   21.4610   13.1830   31.3270 C   0  0  0  0  0  3  0  0  0  0  0  0
   21.6150   11.8750   31.7430 C   0  0  0  0  0  3  0  0  0  0  0  0
   20.2580   15.3630   31.4240 C   0  0  0  0  0  0  0  0  0  0  0  0
   19.0990   15.8420   31.5100 O   0  0  0  0  0  0  0  0  0  0  0  0
   21.2450   16.1820   30.9520 O   0  0  0  0  0  0  0  0  0  0  0  0
   21.9580   17.1310   31.6920 C   0  0  0  0  0  2  0  0  0  0  0  0
   22.6720   16.3640   32.8130 C   0  0  0  0  0  1  0  0  0  0  0  0
   25.2770    8.4910   29.8580 C   0  0  0  0  0  0  0  0  0  0  0  0
   25.1850    9.8740   29.8830 C   0  0  0  0  0  3  0  0  0  0  0  0
   26.2350   10.6560   29.5160 C   0  0  0  0  0  3  0  0  0  0  0  0
   27.4340   10.1140   29.1030 C   0  0  0  0  0  0  0  0  0  0  0  0
   28.9270   11.1700   28.5820 Br  0  0  0  0  0  0  0  0  0  0  0  0
   27.5130    8.7390   29.0840 C   0  0  0  0  0  3  0  0  0  0  0  0
   26.4650    7.9390   29.4500 C   0  0  0  0  0  3  0  0  0  0  0  0
  1  2  1  0  0  0  0
  2  4  1  0  0  0  0
  2  3  2  0  0  0  0
  4  8  1  0  0  0  0
  5  6  1  0  0  0  0
  5  4  2  0  0  0  0
  6  7  1  0  0  0  0
  7 12  1  0  0  0  0
  7  8  1  0  0  0  0
  8 13  1  0  0  0  0
  9  1  1  0  0  0  0
  9  5  1  0  0  0  0
 10  9  2  0  0  0  0
 11  6  1  0  0  0  0
 14 16  1  0  0  0  0
 14 13  1  0  0  0  0
 15 14  2  0  0  0  0
 16 17  1  0  0  0  0
 18 16  1  0  0  0  0
 18 19  1  0  0  0  0
 20 19  2  0  0  0  0
 21 20  1  0  0  0  0
 22 23  1  0  0  0  0
 22 21  2  0  0  0  0
 23 18  2  0  0  0  0
 24 25  2  0  0  0  0
 24 21  1  0  0  0  0
 26 24  1  0  0  0  0
 26 27  1  0  0  0  0
 27 28  1  0  0  0  0
 29 30  1  0  0  0  0
 29  1  1  0  0  0  0
 31 30  2  0  0  0  0
 32 31  1  0  0  0  0
 33 32  1  0  0  0  0
 34 32  2  0  0  0  0
 34 35  1  0  0  0  0
 35 29  2  0  0  0  0
M  END
>  <Pose>
1

>  <Score>
-9.120

$$$$
