/Users/jonathanwahrer/Desktop/Msc/3_Semester/Drug_Design_Praktikum/waehrer_HTS_screening/HTS_experiment/out/docking_results/vina_output/3elj/0416_docked.pdbqt
 OpenBabel03192217373D

 33 36  0  0  0  0  0  0  0  0999 V2000
   24.2370    7.6640   30.2040 N   0  0  0  0  0  0  0  0  0  0  0  0
   23.3400    7.9110   31.1990 C   0  0  0  0  0  0  0  0  0  0  0  0
   23.3800    8.9260   31.9360 O   0  0  0  0  0  0  0  0  0  0  0  0
   22.4020    6.9050   31.2780 C   0  0  0  0  0  0  0  0  0  0  0  0
   22.7220    6.0370   30.3300 C   0  0  0  0  0  0  0  0  0  0  0  0
   21.8210    5.0390   30.3830 N   0  0  0  0  0  0  0  0  0  0  0  0
   20.9670    5.3100   31.3590 N   0  0  0  0  0  0  0  0  0  0  0  0
   21.2950    6.4530   31.9320 N   0  0  0  0  0  0  0  0  0  0  0  0
   23.8410    6.4980   29.6730 C   0  0  0  0  0  0  0  0  0  0  0  0
   24.4390    5.9340   28.7040 O   0  0  0  0  0  0  0  0  0  0  0  0
   21.7700    4.1970   29.7850 H   0  0  0  0  0  0  0  0  0  0  0  0
   20.1450    4.6950   31.6300 H   0  0  0  0  0  0  0  0  0  0  0  0
   20.6520    7.1110   33.0310 C   0  0  0  0  0  2  0  0  0  0  0  0
   20.1870    8.5110   32.7040 C   0  0  0  0  0  0  0  0  0  0  0  0
   19.0880    8.5920   32.1140 O   0  0  0  0  0  0  0  0  0  0  0  0
   20.9390    9.6340   33.0440 N   0  0  0  0  0  0  0  0  0  0  0  0
   21.8730    9.4270   33.5440 H   0  0  0  0  0  0  0  0  0  0  0  0
   20.6730   10.9980   32.8350 C   0  0  0  0  0  0  0  0  0  0  0  0
   21.4310   11.7260   31.9190 C   0  0  0  0  0  3  0  0  0  0  0  0
   21.2180   13.0600   31.6980 C   0  0  0  0  0  3  0  0  0  0  0  0
   20.2200   13.7390   32.3970 C   0  0  0  0  0  0  0  0  0  0  0  0
   19.4900   12.9950   33.2910 C   0  0  0  0  0  3  0  0  0  0  0  0
   19.6980   11.6540   33.5160 C   0  0  0  0  0  3  0  0  0  0  0  0
   20.0430   15.0800   32.1470 O   0  0  0  0  0  0  0  0  0  0  0  0
   20.9260   15.9300   31.4900 C   0  0  0  0  0  2  0  0  0  0  0  0
   22.0880   16.3680   32.3130 C   0  0  0  0  0  1  0  0  0  0  0  0
   25.3520    8.4610   29.8160 C   0  0  0  0  0  0  0  0  0  0  0  0
   26.5540    7.9370   29.3860 C   0  0  0  0  0  3  0  0  0  0  0  0
   27.6190    8.7470   29.0210 C   0  0  0  0  0  3  0  0  0  0  0  0
   27.5270   10.1220   29.0700 C   0  0  0  0  0  0  0  0  0  0  0  0
   28.9800   11.2560   28.5760 Br  0  0  0  0  0  0  0  0  0  0  0  0
   26.3140   10.6460   29.5010 C   0  0  0  0  0  3  0  0  0  0  0  0
   25.2560    9.8400   29.8650 C   0  0  0  0  0  3  0  0  0  0  0  0
  1  2  1  0  0  0  0
  2  4  1  0  0  0  0
  2  3  2  0  0  0  0
  4  8  1  0  0  0  0
  5  6  1  0  0  0  0
  5  4  2  0  0  0  0
  6  7  1  0  0  0  0
  7 12  1  0  0  0  0
  7  8  1  0  0  0  0
  8 13  1  0  0  0  0
  9  1  1  0  0  0  0
  9  5  1  0  0  0  0
 10  9  2  0  0  0  0
 11  6  1  0  0  0  0
 14 13  1  0  0  0  0
 14 16  1  0  0  0  0
 15 14  2  0  0  0  0
 16 17  1  0  0  0  0
 18 16  1  0  0  0  0
 18 23  1  0  0  0  0
 19 18  2  0  0  0  0
 20 19  1  0  0  0  0
 20 21  2  0  0  0  0
 21 22  1  0  0  0  0
 22 23  2  0  0  0  0
 24 21  1  0  0  0  0
 25 24  1  0  0  0  0
 25 26  1  0  0  0  0
 27 33  1  0  0  0  0
 27  1  1  0  0  0  0
 28 27  2  0  0  0  0
 29 30  2  0  0  0  0
 29 28  1  0  0  0  0
 30 32  1  0  0  0  0
 31 30  1  0  0  0  0
 32 33  2  0  0  0  0
M  END
>  <Pose>
1

>  <Score>
-8.843

$$$$
