/Users/jonathanwahrer/Desktop/Msc/3_Semester/Drug_Design_Praktikum/waehrer_HTS_screening/HTS_experiment/out/docking_results/vina_output/3elj/0421_docked.pdbqt
 OpenBabel03192217373D

 28 31  0  0  0  0  0  0  0  0999 V2000
   21.8520    8.7500   31.9050 N   0  0  0  0  0  0  0  0  0  0  0  0
   21.9210   10.0790   31.6740 C   0  0  0  0  0  0  0  0  0  0  0  0
   22.7270   10.6920   30.9030 O   0  0  0  0  0  0  0  0  0  0  0  0
   20.9640   10.7560   32.4080 C   0  0  0  0  0  0  0  0  0  0  0  0
   20.3150    9.8080   33.0880 C   0  0  0  0  0  0  0  0  0  0  0  0
   19.3760   10.4680   33.8080 N   0  0  0  0  0  0  0  0  0  0  0  0
   19.4800   11.7610   33.5510 N   0  0  0  0  0  0  0  0  0  0  0  0
   20.4580   11.9700   32.6850 N   0  0  0  0  0  0  0  0  0  0  0  0
   20.8530    8.5750   32.7860 C   0  0  0  0  0  0  0  0  0  0  0  0
   20.5100    7.4500   33.2260 O   0  0  0  0  0  0  0  0  0  0  0  0
   18.6900   10.0020   34.4570 H   0  0  0  0  0  0  0  0  0  0  0  0
   18.8970   12.5420   33.9500 H   0  0  0  0  0  0  0  0  0  0  0  0
   20.8810   13.2330   32.1570 C   0  0  0  0  0  0  0  0  0  0  0  0
   22.2200   13.5550   32.0670 C   0  0  0  0  0  3  0  0  0  0  0  0
   22.6610   14.7700   31.5590 C   0  0  0  0  0  3  0  0  0  0  0  0
   21.7490   15.7080   31.1230 C   0  0  0  0  0  0  0  0  0  0  0  0
   20.4100   15.3890   31.2120 C   0  0  0  0  0  3  0  0  0  0  0  0
   19.9740   14.1750   31.7190 C   0  0  0  0  0  3  0  0  0  0  0  0
   22.1700   16.9630   30.5980 N   0  0  0  0  0  0  0  0  0  0  0  0
   22.5690   17.0920   29.4250 O   0  0  0  0  0  0  0  0  0  0  0  0
   22.1390   18.0620   31.3970 O   0  0  0  0  0  0  0  0  0  0  0  0
   22.6910    7.7470   31.3150 C   0  0  0  0  0  0  0  0  0  0  0  0
   22.1850    6.5890   30.7640 C   0  0  0  0  0  3  0  0  0  0  0  0
   23.0260    5.6340   30.1990 C   0  0  0  0  0  3  0  0  0  0  0  0
   24.3930    5.8170   30.1720 C   0  0  0  0  0  0  0  0  0  0  0  0
   25.5660    4.5160   29.4000 Br  0  0  0  0  0  0  0  0  0  0  0  0
   24.9020    6.9750   30.7220 C   0  0  0  0  0  3  0  0  0  0  0  0
   24.0600    7.9170   31.2810 C   0  0  0  0  0  3  0  0  0  0  0  0
  1  9  1  0  0  0  0
  2  1  1  0  0  0  0
  2  4  1  0  0  0  0
  3  2  2  0  0  0  0
  4  8  1  0  0  0  0
  4  5  2  0  0  0  0
  5  6  1  0  0  0  0
  6 11  1  0  0  0  0
  7  6  1  0  0  0  0
  7 12  1  0  0  0  0
  8  7  1  0  0  0  0
  9  5  1  0  0  0  0
  9 10  2  0  0  0  0
 13  8  1  0  0  0  0
 14 13  1  0  0  0  0
 15 14  2  0  0  0  0
 16 17  2  0  0  0  0
 16 15  1  0  0  0  0
 17 18  1  0  0  0  0
 18 13  2  0  0  0  0
 19 16  1  0  0  0  0
 19 21  2  0  0  0  0
 20 19  2  0  0  0  0
 22  1  1  0  0  0  0
 23 22  2  0  0  0  0
 24 23  1  0  0  0  0
 25 24  2  0  0  0  0
 25 27  1  0  0  0  0
 26 25  1  0  0  0  0
 27 28  2  0  0  0  0
 28 22  1  0  0  0  0
M  END
>  <Pose>
1

>  <Score>
-9.333

$$$$
