/Users/jonathanwahrer/Desktop/Msc/3_Semester/Drug_Design_Praktikum/waehrer_HTS_screening/HTS_experiment/out/docking_results/vina_output/3elj/0426_docked.pdbqt
 OpenBabel03192217373D

 29 32  0  0  1  0  0  0  0  0999 V2000
   23.5420   10.1480   30.3640 N   0  0  0  0  0  0  0  0  0  0  0  0
   24.8650    9.5880   30.2560 C   0  0  0  0  0  0  0  0  0  0  0  0
   25.9300   10.0940   30.7120 O   0  0  0  0  0  0  0  0  0  0  0  0
   24.7310    8.3130   29.5140 C   0  0  1  0  0  3  0  0  0  0  0  0
   25.6570    7.2780   29.9280 N   0  0  0  0  0  0  0  0  0  0  0  0
   24.7970    6.1460   29.7770 N   0  0  0  0  0  0  0  0  0  0  0  0
   23.4980    6.4970   30.2520 C   0  0  0  0  0  0  0  0  0  0  0  0
   23.4320    7.8150   30.1040 C   0  0  0  0  0  0  0  0  0  0  0  0
   22.6480    9.0330   30.2680 C   0  0  0  0  0  0  0  0  0  0  0  0
   21.3870    9.0070   30.3080 O   0  0  0  0  0  0  0  0  0  0  0  0
   25.7530    7.3990   30.9760 H   0  0  0  0  0  0  0  0  0  0  0  0
   25.0620    5.2200   29.3890 H   0  0  0  0  0  0  0  0  0  0  0  0
   22.4600    5.6170   30.7800 C   0  0  0  0  0  0  0  0  0  0  0  0
   22.6570    4.3910   30.9470 O   0  0  0  0  0  0  0  0  0  0  0  0
   21.2010    6.0850   31.1260 O   0  0  0  0  0  0  0  0  0  0  0  0
   20.6560    5.8730   32.4210 C   0  0  0  0  0  2  0  0  0  0  0  0
   19.8340    7.0670   32.8130 C   0  0  0  0  0  0  0  0  0  0  0  0
   20.4540    8.2550   33.1930 C   0  0  0  0  0  3  0  0  0  0  0  0
   19.7430    9.3680   33.5530 C   0  0  0  0  0  3  0  0  0  0  0  0
   18.3510    9.3110   33.5410 C   0  0  0  0  0  3  0  0  0  0  0  0
   17.7420    8.1340   33.1660 C   0  0  0  0  0  3  0  0  0  0  0  0
   18.4790    7.0050   32.7990 C   0  0  0  0  0  3  0  0  0  0  0  0
   23.1720   11.5010   30.5340 C   0  0  0  0  0  0  0  0  0  0  0  0
   22.2130   11.8540   31.4910 C   0  0  0  0  0  3  0  0  0  0  0  0
   21.8000   13.1280   31.7170 C   0  0  0  0  0  3  0  0  0  0  0  0
   22.3450   14.1410   30.9710 C   0  0  0  0  0  0  0  0  0  0  0  0
   21.7770   15.9580   31.2730 Br  0  0  0  0  0  0  0  0  0  0  0  0
   23.2940   13.8330   30.0150 C   0  0  0  0  0  3  0  0  0  0  0  0
   23.7000   12.5290   29.8010 C   0  0  0  0  0  3  0  0  0  0  0  0
  1 23  1  0  0  0  0
  2  1  1  0  0  0  0
  2  3  2  0  0  0  0
  4  5  1  0  0  0  0
  4  8  1  1  0  0  0
  4  2  1  0  0  0  0
  5 11  1  0  0  0  0
  6  5  1  0  0  0  0
  6  7  1  0  0  0  0
  7 13  1  0  0  0  0
  8  7  2  0  0  0  0
  8  9  1  0  0  0  0
  9 10  2  0  0  0  0
  9  1  1  0  0  0  0
 12  6  1  0  0  0  0
 13 14  2  0  0  0  0
 13 15  1  0  0  0  0
 15 16  1  0  0  0  0
 16 17  1  0  0  0  0
 17 18  1  0  0  0  0
 18 19  2  0  0  0  0
 20 19  1  0  0  0  0
 21 20  2  0  0  0  0
 22 17  2  0  0  0  0
 22 21  1  0  0  0  0
 23 24  1  0  0  0  0
 24 25  2  0  0  0  0
 26 27  1  0  0  0  0
 26 25  1  0  0  0  0
 28 26  2  0  0  0  0
 29 28  1  0  0  0  0
 29 23  2  0  0  0  0
M  END
>  <Pose>
1

>  <Score>
-8.951

$$$$
