/Users/jonathanwahrer/Desktop/Msc/3_Semester/Drug_Design_Praktikum/waehrer_HTS_screening/HTS_experiment/out/docking_results/vina_output/3elj/0428_docked.pdbqt
 OpenBabel03192217373D

 28 31  0  0  1  0  0  0  0  0999 V2000
   25.8880    9.1310   29.6020 N   0  0  0  0  0  0  0  0  0  0  0  0
   26.7740   10.2650   29.5750 C   0  0  0  0  0  0  0  0  0  0  0  0
   26.4140   11.3480   30.1160 O   0  0  0  0  0  0  0  0  0  0  0  0
   28.0180   10.0950   28.9340 N   0  0  0  0  0  2  0  0  0  0  0  0
   28.4000    9.0170   28.3860 C   0  0  0  0  0  0  0  0  0  0  0  0
   27.6280    7.7520   28.3150 C   0  0  1  0  0  0  0  0  0  0  0  0
   27.5260    7.3490   26.8840 C   0  0  0  0  0  2  0  0  0  0  0  0
   27.4030    5.9630   26.6100 N   0  0  0  0  0  4  0  0  0  0  0  0
   27.1440    5.1350   27.7210 C   0  0  0  0  0  0  0  0  0  0  0  0
   27.6640    5.4550   28.9810 C   0  0  0  0  0  0  0  0  0  0  0  0
   27.4020    4.6400   30.0460 C   0  0  0  0  0  3  0  0  0  0  0  0
   26.6410    3.4960   29.9630 C   0  0  0  0  0  0  0  0  0  0  0  0
   26.1300    3.1860   28.7200 C   0  0  0  0  0  3  0  0  0  0  0  0
   26.3790    3.9940   27.6180 C   0  0  0  0  0  3  0  0  0  0  0  0
   26.3760    2.6380   31.1410 C   0  0  0  0  0  1  0  0  0  0  0  0
   28.4780    6.6970   29.0270 C   0  0  0  0  0  2  0  0  0  0  0  0
   28.5440    5.4430   25.8380 C   0  0  0  0  0  1  0  0  0  0  0  0
   26.3210    7.9230   28.9850 C   0  0  0  0  0  0  0  0  0  0  0  0
   25.4890    6.9590   29.0420 O   0  0  0  0  0  0  0  0  0  0  0  0
   29.6740    8.9860   27.7790 O   0  0  0  0  0  0  0  0  0  0  0  0
   26.5760    5.8410   25.9520 H   0  0  0  0  0  0  0  0  0  0  0  0
   24.6190    9.2250   30.2310 C   0  0  0  0  0  0  0  0  0  0  0  0
   24.5670    9.0980   31.6010 C   0  0  0  0  0  3  0  0  0  0  0  0
   23.3680    9.1750   32.3000 C   0  0  0  0  0  3  0  0  0  0  0  0
   22.2020    9.3830   31.6140 C   0  0  0  0  0  0  0  0  0  0  0  0
   20.5620    9.4870   32.5810 Br  0  0  0  0  0  0  0  0  0  0  0  0
   22.2260    9.5140   30.2340 C   0  0  0  0  0  3  0  0  0  0  0  0
   23.4340    9.4340   29.5610 C   0  0  0  0  0  3  0  0  0  0  0  0
  1 22  1  0  0  0  0
  2  1  1  0  0  0  0
  2  3  2  0  0  0  0
  4  2  1  0  0  0  0
  5  4  1  0  0  0  0
  6  7  1  6  0  0  0
  6  5  1  0  0  0  0
  6 18  1  0  0  0  0
  6 16  1  0  0  0  0
  8  7  1  0  0  0  0
  8  9  1  0  0  0  0
  9 10  1  0  0  0  0
 10 16  1  0  0  0  0
 10 11  2  0  0  0  0
 12 11  1  0  0  0  0
 12 15  1  0  0  0  0
 13 12  2  0  0  0  0
 14  9  2  0  0  0  0
 14 13  1  0  0  0  0
 17  8  1  0  0  0  0
 18 19  2  0  0  0  0
 18  1  1  0  0  0  0
 20  5  2  0  0  0  0
 21  8  1  0  0  0  0
 22 23  1  0  0  0  0
 23 24  2  0  0  0  0
 25 24  1  0  0  0  0
 25 26  1  0  0  0  0
 27 25  2  0  0  0  0
 28 22  2  0  0  0  0
 28 27  1  0  0  0  0
M  END
>  <Pose>
1

>  <Score>
-7.251

$$$$
