/Users/jonathanwahrer/Desktop/Msc/3_Semester/Drug_Design_Praktikum/waehrer_HTS_screening/HTS_experiment/out/docking_results/vina_output/3elj/0459_docked.pdbqt
 OpenBabel03192217393D

 29 32  0  0  0  0  0  0  0  0999 V2000
   21.4960   11.6720   32.2450 C   0  0  0  0  0  0  0  0  0  0  0  0
   20.6880   12.7830   32.5200 C   0  0  0  0  0  3  0  0  0  0  0  0
   20.8850   14.0130   31.9340 C   0  0  0  0  0  3  0  0  0  0  0  0
   21.9120   14.2030   31.0350 C   0  0  0  0  0  0  0  0  0  0  0  0
   22.7180   13.1210   30.7540 C   0  0  0  0  0  3  0  0  0  0  0  0
   22.5190   11.8720   31.3460 C   0  0  0  0  0  3  0  0  0  0  0  0
   21.2560   10.4580   32.8650 O   0  0  0  0  0  0  0  0  0  0  0  0
   20.3010    9.5360   32.4320 C   0  0  0  0  0  2  0  0  0  0  0  0
   20.8520    8.2140   32.0860 C   0  0  0  0  0  0  0  0  0  0  0  0
   20.0490    7.0690   32.1680 C   0  0  0  0  0  0  0  0  0  0  0  0
   18.2530    7.3050   32.7920 Br  0  0  0  0  0  0  0  0  0  0  0  0
   20.5320    5.8340   31.8150 C   0  0  0  0  0  3  0  0  0  0  0  0
   21.8280    5.6830   31.3680 C   0  0  0  0  0  0  0  0  0  0  0  0
   22.6400    6.7930   31.2770 C   0  0  0  0  0  0  0  0  0  0  0  0
   22.5860    4.5880   30.9470 O   0  0  0  0  0  0  0  0  0  0  0  0
   22.1410    8.0440   31.6360 C   0  0  0  0  0  3  0  0  0  0  0  0
   23.8650    6.3590   30.8090 O   0  0  0  0  0  0  0  0  0  0  0  0
   23.7630    5.0370   30.3110 C   0  0  0  0  0  2  0  0  0  0  0  0
   22.1340   15.5070   30.4040 C   0  0  0  0  0  0  0  0  0  0  0  0
   22.7840   15.7890   29.2630 N   0  0  0  0  0  0  0  0  0  0  0  0
   22.7450   17.1110   29.0640 N   0  0  0  0  0  0  0  0  0  0  0  0
   22.0800   17.6650   30.0670 N   0  0  0  0  0  0  0  0  0  0  0  0
   21.7110   16.6890   30.8790 N   0  0  0  0  0  0  0  0  0  0  0  0
   23.3110   17.8690   27.9670 C   0  0  0  0  0  2  0  0  0  0  0  0
   23.5750   16.9800   26.8140 C   0  0  0  0  0  0  0  0  0  0  0  0
   22.8210   17.0130   25.8290 O   0  0  0  0  0  0  0  0  0  0  0  0
   24.6830   16.1070   26.8550 N   0  0  0  0  0  0  0  0  0  0  0  0
   25.0560   15.7000   27.7570 H   0  0  0  0  0  0  0  0  0  0  0  0
   25.1670   15.8390   25.9720 H   0  0  0  0  0  0  0  0  0  0  0  0
  1  2  1  0  0  0  0
  1  7  1  0  0  0  0
  3  2  2  0  0  0  0
  4  3  1  0  0  0  0
  5  4  2  0  0  0  0
  5  6  1  0  0  0  0
  6  1  2  0  0  0  0
  8  7  1  0  0  0  0
  9 10  1  0  0  0  0
  9  8  1  0  0  0  0
 10 11  1  0  0  0  0
 12 10  2  0  0  0  0
 13 12  1  0  0  0  0
 14 13  2  0  0  0  0
 14 16  1  0  0  0  0
 15 13  1  0  0  0  0
 16  9  2  0  0  0  0
 17 14  1  0  0  0  0
 18 17  1  0  0  0  0
 18 15  1  0  0  0  0
 19 23  1  0  0  0  0
 19  4  1  0  0  0  0
 20 19  2  0  0  0  0
 21 20  1  0  0  0  0
 21 22  1  0  0  0  0
 22 23  2  0  0  0  0
 24 21  1  0  0  0  0
 25 27  1  0  0  0  0
 25 24  1  0  0  0  0
 26 25  2  0  0  0  0
 27 28  1  0  0  0  0
 29 27  1  0  0  0  0
M  END
>  <Pose>
1

>  <Score>
-9.276

$$$$
