/Users/jonathanwahrer/Desktop/Msc/3_Semester/Drug_Design_Praktikum/waehrer_HTS_screening/HTS_experiment/out/docking_results/vina_output/3elj/0467_docked.pdbqt
 OpenBabel03192217393D

 28 31  0  0  1  0  0  0  0  0999 V2000
   24.0780   11.5410   29.3020 C   0  0  1  0  0  3  0  0  0  0  0  0
   23.2530   12.2190   30.1170 N   0  0  0  0  0  0  0  0  0  0  0  0
   23.1810   13.5780   30.1240 C   0  0  0  0  0  0  0  0  0  0  0  0
   23.9830   14.2070   29.2670 N   0  0  0  0  0  0  0  0  0  0  0  0
   24.8210   13.5950   28.4350 C   0  0  0  0  0  0  0  0  0  0  0  0
   24.8550   12.2290   28.4670 N   0  0  0  0  0  0  0  0  0  0  0  0
   24.0700   10.1350   29.4290 N   0  0  0  0  0  0  0  0  0  0  0  0
   24.8780    9.5940   29.0520 H   0  0  0  0  0  0  0  0  0  0  0  0
   23.0350    9.4450   30.0300 N   0  0  0  0  0  0  0  0  0  0  0  0
   23.0920    8.6240   30.9900 C   0  0  0  0  0  3  0  0  0  0  0  0
   21.9060    7.9750   31.5110 C   0  0  0  0  0  0  0  0  0  0  0  0
   21.7700    6.6050   31.5230 C   0  0  0  0  0  0  0  0  0  0  0  0
   23.1740    5.5290   30.8440 Br  0  0  0  0  0  0  0  0  0  0  0  0
   20.6240    6.0160   32.0230 C   0  0  0  0  0  3  0  0  0  0  0  0
   19.5630    6.7680   32.5320 C   0  0  0  0  0  0  0  0  0  0  0  0
   19.6910    8.1550   32.5250 C   0  0  0  0  0  0  0  0  0  0  0  0
   18.3280    6.4620   33.0800 O   0  0  0  0  0  0  0  0  0  0  0  0
   20.8450    8.7200   32.0210 C   0  0  0  0  0  3  0  0  0  0  0  0
   18.5310    8.6570   33.0690 O   0  0  0  0  0  0  0  0  0  0  0  0
   17.5760    7.6320   33.2620 C   0  0  0  0  0  2  0  0  0  0  0  0
   22.2880   14.2050   30.9970 N   0  0  0  0  0  0  0  0  0  0  0  0
   22.0700   15.6310   30.9520 C   0  0  0  0  0  2  0  0  0  0  0  0
   20.8010   16.0120   31.6840 C   0  0  0  0  0  2  0  0  0  0  0  0
   19.7890   15.1120   31.6190 O   0  0  0  0  0  0  0  0  0  0  0  0
   20.0760   13.7830   31.6650 C   0  0  0  0  0  2  0  0  0  0  0  0
   21.5340   13.4500   31.9650 C   0  0  0  0  0  2  0  0  0  0  0  0
   25.6430   14.2790   27.5550 O   0  0  0  0  0  0  0  0  0  0  0  0
   26.7310   13.6370   26.9460 C   0  0  0  0  0  1  0  0  0  0  0  0
  1  7  1  1  0  0  0
  1  2  1  0  0  0  0
  2  3  2  0  0  0  0
  3 21  1  0  0  0  0
  4  3  1  0  0  0  0
  5  6  2  0  0  0  0
  5  4  2  0  0  0  0
  6  1  1  0  0  0  0
  7  9  1  0  0  0  0
  8  7  1  0  0  0  0
  9 10  2  0  0  0  0
 10 11  1  0  0  0  0
 11 12  2  0  0  0  0
 11 18  1  0  0  0  0
 12 14  1  0  0  0  0
 13 12  1  0  0  0  0
 14 15  2  0  0  0  0
 15 17  1  0  0  0  0
 16 15  1  0  0  0  0
 16 19  1  0  0  0  0
 17 20  1  0  0  0  0
 18 16  2  0  0  0  0
 19 20  1  0  0  0  0
 21 26  1  0  0  0  0
 22 21  1  0  0  0  0
 22 23  1  0  0  0  0
 24 25  1  0  0  0  0
 24 23  1  0  0  0  0
 25 26  1  0  0  0  0
 27  5  1  0  0  0  0
 28 27  1  0  0  0  0
M  END
>  <Pose>
1

>  <Score>
-8.553

$$$$
