/Users/jonathanwahrer/Desktop/Msc/3_Semester/Drug_Design_Praktikum/waehrer_HTS_screening/HTS_experiment/out/docking_results/vina_output/3elj/0469_docked.pdbqt
 OpenBabel03192217403D

 32 36  0  0  0  0  0  0  0  0999 V2000
   21.2260   13.4440   32.0140 N   0  0  0  0  0  0  0  0  0  0  0  0
   21.9710   14.3850   32.7050 C   0  0  0  0  0  2  0  0  0  0  0  0
   21.9910   15.8000   32.2710 C   0  0  0  0  0  2  0  0  0  0  0  0
   21.5470   15.8750   30.9090 N   0  0  0  0  0  0  0  0  0  0  0  0
   20.2580   15.2730   30.6770 C   0  0  0  0  0  2  0  0  0  0  0  0
   20.4300   13.7930   30.9030 C   0  0  0  0  0  2  0  0  0  0  0  0
   20.7140   12.3400   32.7920 C   0  0  0  0  0  2  0  0  0  0  0  0
   21.3370   11.0280   32.3710 C   0  0  0  0  0  0  0  0  0  0  0  0
   20.5220    9.8780   32.4140 N   0  0  0  0  0  0  0  0  0  0  0  0
   19.5130   10.0060   32.7410 H   0  0  0  0  0  0  0  0  0  0  0  0
   22.5270   11.0620   32.0160 O   0  0  0  0  0  0  0  0  0  0  0  0
   20.9310    8.5700   32.0600 C   0  0  0  0  0  0  0  0  0  0  0  0
   20.0250    7.5200   32.2700 C   0  0  0  0  0  0  0  0  0  0  0  0
   18.3240    7.9220   33.0100 Br  0  0  0  0  0  0  0  0  0  0  0  0
   20.3850    6.2350   31.9410 C   0  0  0  0  0  3  0  0  0  0  0  0
   21.6010    5.9350   31.4110 C   0  0  0  0  0  0  0  0  0  0  0  0
   22.5110    6.9450   31.1920 C   0  0  0  0  0  0  0  0  0  0  0  0
   22.0050    4.6530   31.0640 O   0  0  0  0  0  0  0  0  0  0  0  0
   22.1670    8.2610   31.5190 C   0  0  0  0  0  3  0  0  0  0  0  0
   23.7310    6.6190   30.6550 O   0  0  0  0  0  0  0  0  0  0  0  0
   24.3230    5.3470   30.7510 C   0  0  0  0  0  2  0  0  0  0  0  0
   23.3820    4.2920   31.2390 C   0  0  0  0  0  2  0  0  0  0  0  0
   22.2360   16.4600   29.8340 C   0  0  0  0  0  0  0  0  0  0  0  0
   22.0190   17.7270   29.3960 N   0  0  0  0  0  0  0  0  0  0  0  0
   22.6970   18.2600   28.3640 C   0  0  0  0  0  3  0  0  0  0  0  0
   23.6360   17.5530   27.7110 N   0  0  0  0  0  0  0  0  0  0  0  0
   23.9180   16.2870   28.0770 C   0  0  0  0  0  0  0  0  0  0  0  0
   24.7930   15.3580   27.6110 N   0  0  0  0  0  0  0  0  0  0  0  0
   23.2180   15.7560   29.1310 C   0  0  0  0  0  0  0  0  0  0  0  0
   24.6280   14.2860   28.3650 N   0  0  0  0  0  0  0  0  0  0  0  0
   25.7190   15.5400   26.4920 C   0  0  0  0  0  1  0  0  0  0  0  0
   23.6910   14.4730   29.2960 C   0  0  0  0  0  3  0  0  0  0  0  0
  1  2  1  0  0  0  0
  1  7  1  0  0  0  0
  3  2  1  0  0  0  0
  4  3  1  0  0  0  0
  5  6  1  0  0  0  0
  5  4  1  0  0  0  0
  6  1  1  0  0  0  0
  8  9  1  0  0  0  0
  8  7  1  0  0  0  0
  9 10  1  0  0  0  0
 11  8  2  0  0  0  0
 12 13  1  0  0  0  0
 12  9  1  0  0  0  0
 13 14  1  0  0  0  0
 15 13  2  0  0  0  0
 16 15  1  0  0  0  0
 17 16  2  0  0  0  0
 17 19  1  0  0  0  0
 18 22  1  0  0  0  0
 18 16  1  0  0  0  0
 19 12  2  0  0  0  0
 20 21  1  0  0  0  0
 20 17  1  0  0  0  0
 21 22  1  0  0  0  0
 23  4  1  0  0  0  0
 24 23  1  0  0  0  0
 25 24  2  0  0  0  0
 26 27  2  0  0  0  0
 26 25  1  0  0  0  0
 27 29  1  0  0  0  0
 28 27  1  0  0  0  0
 28 30  1  0  0  0  0
 29 32  1  0  0  0  0
 29 23  2  0  0  0  0
 30 32  2  0  0  0  0
 31 28  1  0  0  0  0
M  END
>  <Pose>
1

>  <Score>
-9.002

$$$$
