/Users/jonathanwahrer/Desktop/Msc/3_Semester/Drug_Design_Praktikum/waehrer_HTS_screening/HTS_experiment/out/docking_results/vina_output/3elj/0471_docked.pdbqt
 OpenBabel03192217403D

 27 30  0  0  0  0  0  0  0  0999 V2000
   23.9460    9.3780   30.0830 C   0  0  0  0  0  0  0  0  0  0  0  0
   24.4750    8.9870   29.0020 O   0  0  0  0  0  0  0  0  0  0  0  0
   24.3080   10.6320   30.6150 N   0  0  0  0  0  0  0  0  0  0  0  0
   25.2730   11.4360   29.9090 C   0  0  0  0  0  2  0  0  0  0  0  0
   24.7640   12.8270   29.5970 C   0  0  0  0  0  2  0  0  0  0  0  0
   23.8590   13.2130   30.6140 N   0  0  0  0  0  0  0  0  0  0  0  0
   24.1870   12.6750   31.8760 C   0  0  0  0  0  2  0  0  0  0  0  0
   23.7790   11.1910   31.8350 C   0  0  0  0  0  2  0  0  0  0  0  0
   22.9730    8.4910   30.7310 C   0  0  0  0  0  0  0  0  0  0  0  0
   23.2160    7.1390   30.8000 C   0  0  0  0  0  3  0  0  0  0  0  0
   22.3310    6.2670   31.3990 C   0  0  0  0  0  0  0  0  0  0  0  0
   21.1640    6.7700   31.9460 C   0  0  0  0  0  0  0  0  0  0  0  0
   22.5650    5.0150   31.4580 O   0  0  0  0  0  0  0  0  0  0  0  0
   20.9770    8.1350   31.8450 C   0  0  0  0  0  0  0  0  0  0  0  0
   20.2640    5.9260   32.5490 C   0  0  0  0  0  3  0  0  0  0  0  0
   19.8050    8.6340   32.3950 C   0  0  0  0  0  3  0  0  0  0  0  0
   21.8550    8.9160   31.2640 O   0  0  0  0  0  0  0  0  0  0  0  0
   18.8810    7.8060   33.0090 C   0  0  0  0  0  0  0  0  0  0  0  0
   17.2810    8.5310   33.7530 Br  0  0  0  0  0  0  0  0  0  0  0  0
   19.1120    6.4460   33.0860 C   0  0  0  0  0  3  0  0  0  0  0  0
   22.4970   13.2940   30.2690 C   0  0  0  0  0  2  0  0  0  0  0  0
   21.7500   14.3860   30.8870 C   0  0  0  0  0  0  0  0  0  0  0  0
   21.8790   15.6880   30.5850 N   0  0  0  0  0  0  0  0  0  0  0  0
   21.0610   16.3370   31.3350 O   0  0  0  0  0  0  0  0  0  0  0  0
   20.3930   15.5310   32.1210 N   0  0  0  0  0  0  0  0  0  0  0  0
   20.8040   14.2690   31.8680 C   0  0  0  0  0  0  0  0  0  0  0  0
   20.3200   13.0180   32.5250 C   0  0  0  0  0  1  0  0  0  0  0  0
  1  3  1  0  0  0  0
  1  9  1  0  0  0  0
  2  1  2  0  0  0  0
  3  8  1  0  0  0  0
  4  3  1  0  0  0  0
  5  4  1  0  0  0  0
  5  6  1  0  0  0  0
  6  7  1  0  0  0  0
  8  7  1  0  0  0  0
  9 10  2  0  0  0  0
  9 17  1  0  0  0  0
 10 11  1  0  0  0  0
 11 13  2  0  0  0  0
 11 12  1  0  0  0  0
 12 15  1  0  0  0  0
 14 12  2  0  0  0  0
 14 16  1  0  0  0  0
 15 20  2  0  0  0  0
 16 18  2  0  0  0  0
 17 14  1  0  0  0  0
 18 20  1  0  0  0  0
 18 19  1  0  0  0  0
 21  6  1  0  0  0  0
 21 22  1  0  0  0  0
 22 26  1  0  0  0  0
 23 22  2  0  0  0  0
 23 24  1  0  0  0  0
 24 25  1  0  0  0  0
 26 25  2  0  0  0  0
 26 27  1  0  0  0  0
M  END
>  <Pose>
1

>  <Score>
-9.517

$$$$
