/Users/jonathanwahrer/Desktop/Msc/3_Semester/Drug_Design_Praktikum/waehrer_HTS_screening/HTS_experiment/out/docking_results/vina_output/3elj/0483_docked.pdbqt
 OpenBabel03192217403D

 31 34  0  0  0  0  0  0  0  0999 V2000
   20.9420   14.9450   31.8930 C   0  0  0  0  0  2  0  0  0  0  0  0
   22.0280   15.5910   32.6130 C   0  0  0  0  0  0  0  0  0  0  0  0
   22.9280   16.1370   33.1970 C   0  0  0  0  0  3  0  0  0  0  0  0
   20.9340   13.5210   32.1600 N   0  0  0  0  0  0  0  0  0  0  0  0
   21.9150   12.5350   31.8590 C   0  0  0  0  0  0  0  0  0  0  0  0
   21.4940   11.2740   32.3000 C   0  0  0  0  0  0  0  0  0  0  0  0
   23.1490   12.6350   31.2320 C   0  0  0  0  0  3  0  0  0  0  0  0
   22.3130   10.1840   32.0970 C   0  0  0  0  0  3  0  0  0  0  0  0
   20.1840   11.4130   32.9200 C   0  0  0  0  0  0  0  0  0  0  0  0
   23.5560   10.2980   31.4640 C   0  0  0  0  0  0  0  0  0  0  0  0
   24.6800    8.7910   31.1880 Br  0  0  0  0  0  0  0  0  0  0  0  0
   23.9510   11.5360   31.0390 C   0  0  0  0  0  3  0  0  0  0  0  0
   19.8640   12.8530   32.8110 C   0  0  0  0  0  0  0  0  0  0  0  0
   19.4530   10.4940   33.4510 N   0  0  0  0  0  0  0  0  0  0  0  0
   18.7790   13.3120   33.2620 O   0  0  0  0  0  0  0  0  0  0  0  0
   19.8560    9.1570   33.4990 N   0  0  0  0  0  0  0  0  0  0  0  0
   18.9880    8.0870   33.1700 C   0  0  0  0  0  0  0  0  0  0  0  0
   17.8120    8.3410   32.8200 O   0  0  0  0  0  0  0  0  0  0  0  0
   20.8290    8.9470   33.7990 H   0  0  0  0  0  0  0  0  0  0  0  0
   19.4590    6.7110   33.2380 C   0  0  0  0  0  2  0  0  0  0  0  0
   20.6090    6.4620   32.3900 N   0  0  0  0  0  0  0  0  0  0  0  0
   20.9960    7.1650   31.3390 N   0  0  0  0  0  2  0  0  0  0  0  0
   22.0900    6.6420   30.8120 N   0  0  0  0  0  0  0  0  0  0  0  0
   22.4270    5.5640   31.5410 C   0  0  0  0  0  0  0  0  0  0  0  0
   21.4970    5.4830   32.5010 N   0  0  0  0  0  2  0  0  0  0  0  0
   23.5760    4.6990   31.2930 C   0  0  0  0  0  0  0  0  0  0  0  0
   24.3360    4.8690   30.1560 C   0  0  0  0  0  3  0  0  0  0  0  0
   25.4370    4.0430   29.9150 C   0  0  0  0  0  3  0  0  0  0  0  0
   25.7950    3.0440   30.7920 C   0  0  0  0  0  3  0  0  0  0  0  0
   25.0330    2.8720   31.9350 C   0  0  0  0  0  3  0  0  0  0  0  0
   23.9410    3.6970   32.1660 C   0  0  0  0  0  3  0  0  0  0  0  0
  1  4  1  0  0  0  0
  1  2  1  0  0  0  0
  2  3  3  0  0  0  0
  4 13  1  0  0  0  0
  5  4  1  0  0  0  0
  5  6  1  0  0  0  0
  6  9  1  0  0  0  0
  7  5  2  0  0  0  0
  8  6  2  0  0  0  0
  9 14  2  0  0  0  0
 10  8  1  0  0  0  0
 11 10  1  0  0  0  0
 12  7  1  0  0  0  0
 12 10  2  0  0  0  0
 13  9  1  0  0  0  0
 13 15  2  0  0  0  0
 14 16  1  0  0  0  0
 16 19  1  0  0  0  0
 17 20  1  0  0  0  0
 17 16  1  0  0  0  0
 18 17  2  0  0  0  0
 21 25  1  0  0  0  0
 21 20  1  0  0  0  0
 22 21  1  0  0  0  0
 23 22  1  0  0  0  0
 23 24  2  0  0  0  0
 24 25  1  0  0  0  0
 26 24  1  0  0  0  0
 26 31  1  0  0  0  0
 27 26  2  0  0  0  0
 28 27  1  0  0  0  0
 28 29  2  0  0  0  0
 29 30  1  0  0  0  0
 30 31  2  0  0  0  0
M  END
>  <Pose>
1

>  <Score>
-9.343

$$$$
