/Users/jonathanwahrer/Desktop/Msc/3_Semester/Drug_Design_Praktikum/waehrer_HTS_screening/HTS_experiment/out/docking_results/vina_output/3elj/0500_docked.pdbqt
 OpenBabel03192217413D

 32 35  0  0  1  0  0  0  0  0999 V2000
   28.1660   10.1000   26.6020 Br  0  0  0  0  0  0  0  0  0  0  0  0
   28.8020   11.5480   25.5040 C   0  0  0  0  0  0  0  0  0  0  0  0
   27.9770   12.3990   24.8280 C   0  0  0  0  0  3  0  0  0  0  0  0
   28.4710   13.4000   24.0320 C   0  0  0  0  0  0  0  0  0  0  0  0
   29.8290   13.5160   23.9420 C   0  0  0  0  0  0  0  0  0  0  0  0
   30.6990   12.6580   24.6290 C   0  0  0  0  0  3  0  0  0  0  0  0
   30.1900   11.6540   25.4260 C   0  0  0  0  0  3  0  0  0  0  0  0
   30.1990   14.5580   23.0610 N   0  0  0  0  0  0  0  0  0  0  0  0
   29.0240   15.1240   22.5700 C   0  0  0  0  0  0  0  0  0  0  0  0
   28.9980   16.0700   21.7400 O   0  0  0  0  0  0  0  0  0  0  0  0
   27.8370   14.4270   23.1870 C   0  0  2  0  0  0  0  0  0  0  0  0
   27.1030   15.4790   23.8730 C   0  0  0  0  0  0  0  0  0  0  0  0
   25.8630   15.8410   23.4430 C   0  0  0  0  0  0  0  0  0  0  0  0
   25.4430   16.8420   24.2660 N   0  0  0  0  0  0  0  0  0  0  0  0
   26.3690   17.0890   25.1560 N   0  0  0  0  0  0  0  0  0  0  0  0
   27.4380   16.2790   24.9770 C   0  0  0  0  0  0  0  0  0  0  0  0
   25.2280   15.2340   22.3410 O   0  0  0  0  0  0  0  0  0  0  0  0
   25.9290   14.2340   21.6940 C   0  0  0  0  0  0  0  0  0  0  0  0
   27.1190   13.8490   22.0600 C   0  0  0  0  0  0  0  0  0  0  0  0
   27.7840   12.7830   21.3040 C   0  0  0  0  0  0  0  0  0  0  0  0
   28.2970   11.9370   20.7260 N   0  0  0  0  0  0  0  0  0  0  0  0
   31.5770   14.9720   22.7260 C   0  0  0  0  0  1  0  0  0  0  0  0
   26.3350   17.8120   25.9320 H   0  0  0  0  0  0  0  0  0  0  0  0
   25.2800   13.6090   20.5620 N   0  0  0  0  0  0  0  0  0  0  0  0
   25.7300   13.4940   19.6370 H   0  0  0  0  0  0  0  0  0  0  0  0
   24.3170   13.2620   20.6940 H   0  0  0  0  0  0  0  0  0  0  0  0
   28.6580   16.2780   25.8240 C   0  0  0  0  0  2  0  0  0  0  0  0
   28.4460   15.5240   27.0790 C   0  0  0  0  0  0  0  0  0  0  0  0
   27.5080   15.7150   27.8940 O   0  0  0  0  0  0  0  0  0  0  0  0
   29.3500   14.5290   27.3780 O   0  0  0  0  0  0  0  0  0  0  0  0
   30.3070   14.5570   28.4040 C   0  0  0  0  0  2  0  0  0  0  0  0
   30.5420   13.1560   28.9190 C   0  0  0  0  0  1  0  0  0  0  0  0
  2  1  1  0  0  0  0
  3  2  2  0  0  0  0
  4  3  1  0  0  0  0
  5  4  2  0  0  0  0
  5  6  1  0  0  0  0
  6  7  2  0  0  0  0
  7  2  1  0  0  0  0
  8  5  1  0  0  0  0
  9  8  1  0  0  0  0
  9 11  1  0  0  0  0
 10  9  2  0  0  0  0
 11 19  1  6  0  0  0
 11 12  1  0  0  0  0
 11  4  1  0  0  0  0
 12 16  2  0  0  0  0
 13 12  1  0  0  0  0
 13 14  2  0  0  0  0
 14 15  1  0  0  0  0
 15 23  1  0  0  0  0
 16 15  1  0  0  0  0
 16 27  1  0  0  0  0
 17 13  1  0  0  0  0
 18 19  2  0  0  0  0
 18 17  1  0  0  0  0
 20 19  1  0  0  0  0
 21 20  3  0  0  0  0
 22  8  1  0  0  0  0
 24 26  1  0  0  0  0
 24 18  1  0  0  0  0
 25 24  1  0  0  0  0
 27 28  1  0  0  0  0
 28 30  1  0  0  0  0
 28 29  2  0  0  0  0
 30 31  1  0  0  0  0
 31 32  1  0  0  0  0
M  END
>  <Pose>
1

>  <Score>
-5.629

$$$$
