/Users/jonathanwahrer/Desktop/Msc/3_Semester/Drug_Design_Praktikum/waehrer_HTS_screening/HTS_experiment/out/docking_results/vina_output/3elj/0502_docked.pdbqt
 OpenBabel03192217423D

 27 30  0  0  1  0  0  0  0  0999 V2000
   28.1740   10.2730   26.6890 Br  0  0  0  0  0  0  0  0  0  0  0  0
   28.8480   11.6440   25.5150 C   0  0  0  0  0  0  0  0  0  0  0  0
   27.9970   12.4620   24.8210 C   0  0  0  0  0  3  0  0  0  0  0  0
   28.5030   13.4370   23.9870 C   0  0  0  0  0  0  0  0  0  0  0  0
   29.8640   13.5450   23.8880 C   0  0  0  0  0  0  0  0  0  0  0  0
   30.7390   12.7030   24.6040 C   0  0  0  0  0  3  0  0  0  0  0  0
   30.2190   11.7400   25.4270 C   0  0  0  0  0  3  0  0  0  0  0  0
   30.2310   14.5910   22.9940 N   0  0  0  0  0  0  0  0  0  0  0  0
   29.0550   15.1710   22.5030 C   0  0  0  0  0  0  0  0  0  0  0  0
   29.0040   16.1350   21.6800 O   0  0  0  0  0  0  0  0  0  0  0  0
   27.8770   14.4610   23.1150 C   0  0  2  0  0  0  0  0  0  0  0  0
   27.1410   15.4760   23.8610 C   0  0  0  0  0  0  0  0  0  0  0  0
   25.8710   15.8210   23.5190 C   0  0  0  0  0  0  0  0  0  0  0  0
   25.4770   16.7830   24.4040 N   0  0  0  0  0  0  0  0  0  0  0  0
   26.4440   17.0370   25.2610 N   0  0  0  0  0  0  0  0  0  0  0  0
   27.4830   16.2590   24.9670 C   0  0  0  0  0  0  0  0  0  0  0  0
   28.8170   16.1680   25.6390 C   0  0  0  0  0  1  0  0  0  0  0  0
   25.1900   15.2360   22.4460 O   0  0  0  0  0  0  0  0  0  0  0  0
   25.8950   14.2690   21.7360 C   0  0  0  0  0  0  0  0  0  0  0  0
   27.1160   13.8950   22.0160 C   0  0  0  0  0  0  0  0  0  0  0  0
   27.7070   12.8550   21.1570 C   0  0  0  0  0  0  0  0  0  0  0  0
   28.1950   12.0310   20.4880 N   0  0  0  0  0  0  0  0  0  0  0  0
   31.5990   14.9990   22.6390 C   0  0  0  0  0  1  0  0  0  0  0  0
   26.4490   17.7230   26.0590 H   0  0  0  0  0  0  0  0  0  0  0  0
   25.2370   13.6250   20.6090 N   0  0  0  0  0  0  0  0  0  0  0  0
   24.2260   13.8450   20.5130 H   0  0  0  0  0  0  0  0  0  0  0  0
   25.7160   13.0050   19.9580 H   0  0  0  0  0  0  0  0  0  0  0  0
  2  1  1  0  0  0  0
  3  2  2  0  0  0  0
  4  3  1  0  0  0  0
  5  4  2  0  0  0  0
  5  6  1  0  0  0  0
  6  7  2  0  0  0  0
  7  2  1  0  0  0  0
  8  5  1  0  0  0  0
  9  8  1  0  0  0  0
  9 11  1  0  0  0  0
 10  9  2  0  0  0  0
 11 20  1  6  0  0  0
 11 12  1  0  0  0  0
 11  4  1  0  0  0  0
 12 16  2  0  0  0  0
 13 12  1  0  0  0  0
 13 14  2  0  0  0  0
 14 15  1  0  0  0  0
 15 24  1  0  0  0  0
 16 15  1  0  0  0  0
 16 17  1  0  0  0  0
 18 13  1  0  0  0  0
 19 20  2  0  0  0  0
 19 18  1  0  0  0  0
 21 20  1  0  0  0  0
 22 21  3  0  0  0  0
 23  8  1  0  0  0  0
 25 19  1  0  0  0  0
 26 25  1  0  0  0  0
 27 25  1  0  0  0  0
M  END
>  <Pose>
1

>  <Score>
-5.786

$$$$
