/Users/jonathanwahrer/Desktop/Msc/3_Semester/Drug_Design_Praktikum/waehrer_HTS_screening/HTS_experiment/out/docking_results/vina_output/3elj/0504_docked.pdbqt
 OpenBabel03192217423D

 29 32  0  0  1  0  0  0  0  0999 V2000
   31.2200   19.0750   26.4270 Br  0  0  0  0  0  0  0  0  0  0  0  0
   30.3850   17.8340   25.2560 C   0  0  0  0  0  0  0  0  0  0  0  0
   29.5780   16.8130   25.6970 C   0  0  0  0  0  3  0  0  0  0  0  0
   29.0020   15.9430   24.7720 C   0  0  0  0  0  0  0  0  0  0  0  0
   29.1930   16.0480   23.4360 C   0  0  0  0  0  0  0  0  0  0  0  0
   30.0120   17.0870   22.9870 C   0  0  0  0  0  3  0  0  0  0  0  0
   30.5910   17.9550   23.8860 C   0  0  0  0  0  3  0  0  0  0  0  0
   28.4990   15.0470   22.7160 N   0  0  0  0  0  0  0  0  0  0  0  0
   27.8180   14.2460   23.6540 C   0  0  0  0  0  0  0  0  0  0  0  0
   27.0890   13.2500   23.3910 O   0  0  0  0  0  0  0  0  0  0  0  0
   28.0990   14.7720   25.0190 C   0  0  1  0  0  0  0  0  0  0  0  0
   28.8120   13.7540   25.8300 C   0  0  0  0  0  0  0  0  0  0  0  0
   28.4050   13.3830   26.9890 C   0  0  0  0  0  0  0  0  0  0  0  0
   27.2080   13.9260   27.6130 N   0  0  0  0  0  0  0  0  0  0  0  0
   26.5200   14.8970   26.8520 C   0  0  0  0  0  0  0  0  0  0  0  0
   26.9160   15.2880   25.6720 C   0  0  0  0  0  0  0  0  0  0  0  0
   26.1030   16.2970   25.0050 C   0  0  0  0  0  0  0  0  0  0  0  0
   25.4700   17.0990   24.4580 N   0  0  0  0  0  0  0  0  0  0  0  0
   29.3480   12.3520   27.5220 C   0  0  0  0  0  0  0  0  0  0  0  0
   30.3090   12.1950   26.5460 O   0  0  0  0  0  0  0  0  0  0  0  0
   30.0640   13.0070   25.4810 C   0  0  0  0  0  0  0  0  0  0  0  0
   30.7090   13.1510   24.3980 O   0  0  0  0  0  0  0  0  0  0  0  0
   28.5940   11.0750   27.8410 C   0  0  0  0  0  1  0  0  0  0  0  0
   30.0330   12.8530   28.7810 C   0  0  0  0  0  1  0  0  0  0  0  0
   28.4690   14.8430   21.2600 C   0  0  0  0  0  1  0  0  0  0  0  0
   26.9250   13.5910   28.5500 H   0  0  0  0  0  0  0  0  0  0  0  0
   25.3160   15.4750   27.4260 N   0  0  0  0  0  0  0  0  0  0  0  0
   25.3160   16.5040   27.5800 H   0  0  0  0  0  0  0  0  0  0  0  0
   24.5020   14.8930   27.6710 H   0  0  0  0  0  0  0  0  0  0  0  0
  2  3  1  0  0  0  0
  2  1  1  0  0  0  0
  4 11  1  0  0  0  0
  4  3  2  0  0  0  0
  5  4  1  0  0  0  0
  6  5  2  0  0  0  0
  6  7  1  0  0  0  0
  7  2  2  0  0  0  0
  8  5  1  0  0  0  0
  8  9  1  0  0  0  0
 10  9  2  0  0  0  0
 11  9  1  6  0  0  0
 11 16  1  0  0  0  0
 11 12  1  0  0  0  0
 12 13  2  0  0  0  0
 13 19  1  0  0  0  0
 13 14  1  0  0  0  0
 14 26  1  0  0  0  0
 15 27  1  0  0  0  0
 15 14  1  0  0  0  0
 16 15  2  0  0  0  0
 17 16  1  0  0  0  0
 18 17  3  0  0  0  0
 19 23  1  0  0  0  0
 19 24  1  0  0  0  0
 20 19  1  0  0  0  0
 21 12  1  0  0  0  0
 21 20  1  0  0  0  0
 22 21  2  0  0  0  0
 25  8  1  0  0  0  0
 27 28  1  0  0  0  0
 27 29  1  0  0  0  0
M  END
>  <Pose>
1

>  <Score>
-6.290

$$$$
