/Users/jonathanwahrer/Desktop/Msc/3_Semester/Drug_Design_Praktikum/waehrer_HTS_screening/HTS_experiment/out/docking_results/vina_output/3elj/0513_docked.pdbqt
 OpenBabel03192217423D

 33 36  0  0  0  0  0  0  0  0999 V2000
   23.2620   11.3880   29.8940 N   0  0  0  0  0  0  0  0  0  0  0  0
   22.7600   12.4970   30.6250 C   0  0  0  0  0  0  0  0  0  0  0  0
   21.5830   12.4330   31.0160 O   0  0  0  0  0  0  0  0  0  0  0  0
   24.2470   11.4500   29.5550 H   0  0  0  0  0  0  0  0  0  0  0  0
   22.5210   10.2550   29.6130 N   0  0  0  0  0  0  0  0  0  0  0  0
   21.4690   10.3220   29.5420 H   0  0  0  0  0  0  0  0  0  0  0  0
   23.0710    8.9820   29.4060 C   0  0  0  0  0  3  0  0  0  0  0  0
   22.7180    7.8890   30.0460 C   0  0  0  0  0  0  0  0  0  0  0  0
   21.7070    7.7140   31.0940 C   0  0  0  0  0  0  0  0  0  0  0  0
   23.2860    6.5460   29.8430 C   0  0  0  0  0  0  0  0  0  0  0  0
   20.8420    8.5910   31.7120 C   0  0  0  0  0  3  0  0  0  0  0  0
   21.6520    6.4000   31.4970 C   0  0  0  0  0  0  0  0  0  0  0  0
   19.9390    8.2020   32.7010 C   0  0  0  0  0  0  0  0  0  0  0  0
   18.7680    9.4840   33.5060 Br  0  0  0  0  0  0  0  0  0  0  0  0
   19.9160    6.8840   33.0760 C   0  0  0  0  0  3  0  0  0  0  0  0
   20.7580    5.9740   32.4900 C   0  0  0  0  0  3  0  0  0  0  0  0
   22.6130    5.6800   30.7380 N   0  0  0  0  0  0  0  0  0  0  0  0
   22.8090    4.6540   30.8190 H   0  0  0  0  0  0  0  0  0  0  0  0
   24.1930    6.2730   29.0210 O   0  0  0  0  0  0  0  0  0  0  0  0
   23.5680   13.6980   30.9350 C   0  0  0  0  0  2  0  0  0  0  0  0
   23.0000   14.8630   30.4380 N   0  0  0  0  0  0  0  0  0  0  0  0
   23.2330   15.5690   29.3330 C   0  0  0  0  0  0  0  0  0  0  0  0
   22.4240   16.6980   29.3430 C   0  0  0  0  0  0  0  0  0  0  0  0
   24.0760   15.3140   28.3120 N   0  0  0  0  0  0  0  0  0  0  0  0
   21.7030   16.6460   30.4800 N   0  0  0  0  0  0  0  0  0  0  0  0
   22.4730   17.5920   28.2930 C   0  0  0  0  0  0  0  0  0  0  0  0
   22.0430   15.5570   31.1310 C   0  0  0  0  0  3  0  0  0  0  0  0
   21.7300   18.6070   28.3320 O   0  0  0  0  0  0  0  0  0  0  0  0
   23.3090   17.3250   27.3010 N   0  0  0  0  0  0  0  0  0  0  0  0
   24.0860   16.2280   27.3000 C   0  0  0  0  0  0  0  0  0  0  0  0
   23.4030   18.2480   26.1570 C   0  0  0  0  0  1  0  0  0  0  0  0
   24.8630   16.0120   26.3400 O   0  0  0  0  0  0  0  0  0  0  0  0
   24.8910   14.1340   28.2640 C   0  0  0  0  0  1  0  0  0  0  0  0
  1  2  1  0  0  0  0
  2 20  1  0  0  0  0
  2  3  2  0  0  0  0
  4  1  1  0  0  0  0
  5  1  1  0  0  0  0
  6  5  1  0  0  0  0
  7  5  1  0  0  0  0
  7  8  2  0  0  0  0
  8  9  1  0  0  0  0
  9 12  2  0  0  0  0
  9 11  1  0  0  0  0
 10  8  1  0  0  0  0
 10 17  1  0  0  0  0
 11 13  2  0  0  0  0
 12 16  1  0  0  0  0
 13 15  1  0  0  0  0
 13 14  1  0  0  0  0
 16 15  2  0  0  0  0
 17 18  1  0  0  0  0
 17 12  1  0  0  0  0
 19 10  2  0  0  0  0
 21 20  1  0  0  0  0
 21 27  1  0  0  0  0
 22 23  2  0  0  0  0
 22 21  1  0  0  0  0
 23 25  1  0  0  0  0
 24 22  1  0  0  0  0
 25 27  2  0  0  0  0
 26 28  2  0  0  0  0
 26 23  1  0  0  0  0
 29 26  1  0  0  0  0
 30 29  1  0  0  0  0
 30 24  1  0  0  0  0
 31 29  1  0  0  0  0
 32 30  2  0  0  0  0
 33 24  1  0  0  0  0
M  END
>  <Pose>
1

>  <Score>
-10.333

$$$$
