/Users/jonathanwahrer/Desktop/Msc/3_Semester/Drug_Design_Praktikum/waehrer_HTS_screening/HTS_experiment/out/docking_results/vina_output/3elj/0526_docked.pdbqt
 OpenBabel03192217423D

 31 34  0  0  0  0  0  0  0  0999 V2000
   22.2370   12.4070   32.1720 N   0  0  0  0  0  0  0  0  0  0  0  0
   21.7860   13.2880   31.1720 C   0  0  0  0  0  0  0  0  0  0  0  0
   21.0710   12.8080   30.2220 O   0  0  0  0  0  0  0  0  0  0  0  0
   22.8380   12.7850   32.9550 H   0  0  0  0  0  0  0  0  0  0  0  0
   22.0280   14.7300   31.0780 C   0  0  0  0  0  2  0  0  0  0  0  0
   22.5140   15.2130   29.8160 N   0  0  0  0  0  0  0  0  0  0  0  0
   22.5220   16.6010   29.5000 C   0  0  0  0  0  0  0  0  0  0  0  0
   22.0620   17.3860   30.4170 O   0  0  0  0  0  0  0  0  0  0  0  0
   22.8600   14.5770   29.0810 H   0  0  0  0  0  0  0  0  0  0  0  0
   22.9820   17.1920   28.2810 C   0  0  0  0  0  0  0  0  0  0  0  0
   23.9360   16.6490   27.4330 C   0  0  0  0  0  3  0  0  0  0  0  0
   24.3210   17.2580   26.2870 C   0  0  0  0  0  0  0  0  0  0  0  0
   23.7750   18.4660   25.9030 C   0  0  0  0  0  0  0  0  0  0  0  0
   25.2550   16.9400   25.2320 O   0  0  0  0  0  0  0  0  0  0  0  0
   22.8390   19.0380   26.7060 C   0  0  0  0  0  3  0  0  0  0  0  0
   24.3530   18.8480   24.6820 O   0  0  0  0  0  0  0  0  0  0  0  0
   22.4240   18.4200   27.8960 C   0  0  0  0  0  3  0  0  0  0  0  0
   24.6200   17.5670   24.0610 C   0  0  0  0  0  2  0  0  0  0  0  0
   21.9080   11.0990   32.1310 N   0  0  0  0  0  0  0  0  0  0  0  0
   21.0690   10.3280   32.4770 C   0  0  0  0  0  0  0  0  0  0  0  0
   20.9350    8.8770   32.3010 C   0  0  0  0  0  0  0  0  0  0  0  0
   19.8630   10.7980   33.2220 C   0  0  0  0  0  0  0  0  0  0  0  0
   21.7680    7.9670   31.6880 C   0  0  0  0  0  3  0  0  0  0  0  0
   19.7640    8.5110   32.8860 C   0  0  0  0  0  0  0  0  0  0  0  0
   21.4590    6.6370   31.6380 C   0  0  0  0  0  0  0  0  0  0  0  0
   22.5970    5.3700   30.8020 Br  0  0  0  0  0  0  0  0  0  0  0  0
   20.2650    6.2410   32.2300 C   0  0  0  0  0  3  0  0  0  0  0  0
   19.4390    7.1520   32.8390 C   0  0  0  0  0  3  0  0  0  0  0  0
   19.0890    9.6170   33.4460 N   0  0  0  0  0  0  0  0  0  0  0  0
   18.1730    9.6160   33.9560 H   0  0  0  0  0  0  0  0  0  0  0  0
   19.6560   11.9720   33.5380 O   0  0  0  0  0  0  0  0  0  0  0  0
  1  4  1  0  0  0  0
  2  1  1  0  0  0  0
  3  2  2  0  0  0  0
  5  2  1  0  0  0  0
  6  5  1  0  0  0  0
  7  6  1  0  0  0  0
  7  8  2  0  0  0  0
  9  6  1  0  0  0  0
 10  7  1  0  0  0  0
 11 10  2  0  0  0  0
 12 11  1  0  0  0  0
 13 12  2  0  0  0  0
 13 15  1  0  0  0  0
 14 12  1  0  0  0  0
 15 17  2  0  0  0  0
 16 13  1  0  0  0  0
 17 10  1  0  0  0  0
 18 16  1  0  0  0  0
 18 14  1  0  0  0  0
 19  1  1  0  0  0  0
 19 20  2  0  0  0  0
 20 22  1  0  0  0  0
 21 20  1  0  0  0  0
 21 24  1  0  0  0  0
 22 29  1  0  0  0  0
 22 31  2  0  0  0  0
 23 21  2  0  0  0  0
 24 29  1  0  0  0  0
 25 23  1  0  0  0  0
 25 27  2  0  0  0  0
 26 25  1  0  0  0  0
 27 28  1  0  0  0  0
 28 24  2  0  0  0  0
 29 30  1  0  0  0  0
M  END
>  <Pose>
1

>  <Score>
-9.580

$$$$
