/Users/jonathanwahrer/Desktop/Msc/3_Semester/Drug_Design_Praktikum/waehrer_HTS_screening/HTS_experiment/out/docking_results/vina_output/3elj/0550_docked.pdbqt
 OpenBabel03192217423D

 30 35  0  0  1  0  0  0  0  0999 V2000
   24.5190    3.0760   32.4450 Br  0  0  0  0  0  0  0  0  0  0  0  0
   24.1930    4.6090   31.3570 C   0  0  0  0  0  0  0  0  0  0  0  0
   23.3770    5.6530   31.7760 C   0  0  0  0  0  3  0  0  0  0  0  0
   23.1480    6.7500   30.9910 C   0  0  0  0  0  0  0  0  0  0  0  0
   23.7650    6.7820   29.7490 C   0  0  0  0  0  0  0  0  0  0  0  0
   24.5760    5.7490   29.3260 C   0  0  0  0  0  3  0  0  0  0  0  0
   24.7980    4.6520   30.1250 C   0  0  0  0  0  3  0  0  0  0  0  0
   23.4270    7.9890   29.0620 N   0  0  0  0  0  0  0  0  0  0  0  0
   22.5700    8.7520   29.8850 C   0  0  0  0  0  0  0  0  0  0  0  0
   22.1040    9.8570   29.5740 O   0  0  0  0  0  0  0  0  0  0  0  0
   22.3680    7.9770   31.1280 C   0  0  1  0  0  0  0  0  0  0  0  0
   20.9560    7.8100   31.2980 N   0  0  2  0  0  0  0  0  0  0  0  0
   20.4980    9.1170   31.7660 C   0  0  2  0  0  3  0  0  0  0  0  0
   21.6140    9.6880   32.5780 C   0  0  1  0  0  3  0  0  0  0  0  0
   22.7540    8.7540   32.3620 C   0  0  2  0  0  3  0  0  0  0  0  0
   23.9160    9.6160   32.1700 C   0  0  0  0  0  0  0  0  0  0  0  0
   25.1090    9.2460   32.0990 O   0  0  0  0  0  0  0  0  0  0  0  0
   23.4940   10.9530   32.0710 N   0  0  0  0  0  0  0  0  0  0  0  0
   22.0600   11.0260   32.0740 C   0  0  0  0  0  0  0  0  0  0  0  0
   21.3160   11.9800   31.7350 O   0  0  0  0  0  0  0  0  0  0  0  0
   19.3310    8.8290   32.6980 C   0  0  0  0  0  2  0  0  0  0  0  0
   19.1480    7.3250   32.6850 C   0  0  0  0  0  2  0  0  0  0  0  0
   20.5760    6.8800   32.3410 C   0  0  0  0  0  2  0  0  0  0  0  0
   23.7750    8.2480   28.0920 H   0  0  0  0  0  0  0  0  0  0  0  0
   24.3430   12.0990   31.9800 C   0  0  0  0  0  2  0  0  0  0  0  0
   24.6870   12.5260   30.6000 C   0  0  2  0  0  3  0  0  0  0  0  0
   23.6650   13.2080   29.9510 O   0  0  0  0  0  0  0  0  0  0  0  0
   24.1060   13.2890   28.6370 C   0  0  0  0  0  2  0  0  0  0  0  0
   24.8280   12.0190   28.3080 C   0  0  0  0  0  2  0  0  0  0  0  0
   25.1490   11.4420   29.6860 C   0  0  0  0  0  2  0  0  0  0  0  0
  2  3  1  0  0  0  0
  2  1  1  0  0  0  0
  4 11  1  0  0  0  0
  4  3  2  0  0  0  0
  5  4  1  0  0  0  0
  6  5  2  0  0  0  0
  6  7  1  0  0  0  0
  7  2  2  0  0  0  0
  8  5  1  0  0  0  0
  8  9  1  0  0  0  0
 10  9  2  0  0  0  0
 11  9  1  6  0  0  0
 11 12  1  0  0  0  0
 11 15  1  0  0  0  0
 12 13  1  0  0  0  0
 12 23  1  1  0  0  0
 13 14  1  0  0  0  0
 13 21  1  1  0  0  0
 14 19  1  6  0  0  0
 15 16  1  6  0  0  0
 15 14  1  0  0  0  0
 17 16  2  0  0  0  0
 18 19  1  0  0  0  0
 18 16  1  0  0  0  0
 20 19  2  0  0  0  0
 22 21  1  0  0  0  0
 23 22  1  0  0  0  0
 24  8  1  0  0  0  0
 25 18  1  0  0  0  0
 26 25  1  1  0  0  0
 27 26  1  0  0  0  0
 28 27  1  0  0  0  0
 29 28  1  0  0  0  0
 29 30  1  0  0  0  0
 30 26  1  0  0  0  0
M  END
>  <Pose>
1

>  <Score>
-8.451

$$$$
