/Users/jonathanwahrer/Desktop/Msc/3_Semester/Drug_Design_Praktikum/waehrer_HTS_screening/HTS_experiment/out/docking_results/vina_output/3elj/0558_docked.pdbqt
 OpenBabel03192217433D

 29 32  0  0  1  0  0  0  0  0999 V2000
   31.5090   18.8640   26.8080 Br  0  0  0  0  0  0  0  0  0  0  0  0
   30.5800   17.8760   25.4790 C   0  0  0  0  0  0  0  0  0  0  0  0
   29.6350   16.8980   25.8040 C   0  0  0  0  0  3  0  0  0  0  0  0
   28.9680   16.1910   24.8390 C   0  0  0  0  0  0  0  0  0  0  0  0
   29.2320   16.4430   23.5250 C   0  0  0  0  0  0  0  0  0  0  0  0
   30.1710   17.4130   23.1470 C   0  0  0  0  0  3  0  0  0  0  0  0
   30.8230   18.1070   24.1380 C   0  0  0  0  0  3  0  0  0  0  0  0
   28.4470   15.6140   22.6840 N   0  0  0  0  0  0  0  0  0  0  0  0
   27.6540   14.8030   23.5150 C   0  0  0  0  0  0  0  0  0  0  0  0
   26.8170   13.9270   23.1720 O   0  0  0  0  0  0  0  0  0  0  0  0
   27.9480   15.1310   24.9280 C   0  0  1  0  0  0  0  0  0  0  0  0
   28.4980   13.9190   25.6180 C   0  0  0  0  0  0  0  0  0  0  0  0
   28.0070   13.3760   26.7010 C   0  0  0  0  0  0  0  0  0  0  0  0
   26.8620   13.9670   27.2860 N   0  0  0  0  0  0  0  0  0  0  0  0
   26.2710   15.1170   26.7030 C   0  0  0  0  0  0  0  0  0  0  0  0
   26.7600   15.6640   25.6170 C   0  0  0  0  0  0  0  0  0  0  0  0
   26.0900   16.8520   25.0790 C   0  0  0  0  0  0  0  0  0  0  0  0
   25.5700   17.7850   24.6360 N   0  0  0  0  0  0  0  0  0  0  0  0
   28.8390   12.2010   27.0570 C   0  0  0  0  0  0  0  0  0  0  0  0
   29.8540   12.1070   26.0900 O   0  0  0  0  0  0  0  0  0  0  0  0
   29.6750   13.1420   25.1940 C   0  0  0  0  0  0  0  0  0  0  0  0
   30.4160   13.3710   24.1770 O   0  0  0  0  0  0  0  0  0  0  0  0
   28.0260   10.9090   26.9520 C   0  0  0  0  0  1  0  0  0  0  0  0
   29.4140   12.3410   28.4590 C   0  0  0  0  0  1  0  0  0  0  0  0
   28.4700   15.6200   21.6170 H   0  0  0  0  0  0  0  0  0  0  0  0
   26.4240   13.5730   28.1580 H   0  0  0  0  0  0  0  0  0  0  0  0
   25.0950   15.7060   27.3220 N   0  0  0  0  0  0  0  0  0  0  0  0
   25.0340   15.9280   28.3290 H   0  0  0  0  0  0  0  0  0  0  0  0
   24.2850   15.9100   26.7150 H   0  0  0  0  0  0  0  0  0  0  0  0
  2  3  1  0  0  0  0
  2  1  1  0  0  0  0
  4 11  1  0  0  0  0
  4  3  2  0  0  0  0
  5  4  1  0  0  0  0
  6  5  2  0  0  0  0
  6  7  1  0  0  0  0
  7  2  2  0  0  0  0
  8  9  1  0  0  0  0
  8  5  1  0  0  0  0
 10  9  2  0  0  0  0
 11  9  1  6  0  0  0
 11 16  1  0  0  0  0
 11 12  1  0  0  0  0
 12 13  2  0  0  0  0
 13 19  1  0  0  0  0
 13 14  1  0  0  0  0
 14 26  1  0  0  0  0
 15 14  1  0  0  0  0
 15 27  1  0  0  0  0
 16 15  2  0  0  0  0
 17 16  1  0  0  0  0
 18 17  3  0  0  0  0
 19 24  1  0  0  0  0
 20 19  1  0  0  0  0
 21 12  1  0  0  0  0
 21 20  1  0  0  0  0
 22 21  2  0  0  0  0
 23 19  1  0  0  0  0
 25  8  1  0  0  0  0
 27 28  1  0  0  0  0
 29 27  1  0  0  0  0
M  END
>  <Pose>
1

>  <Score>
-6.180

$$$$
