/Users/jonathanwahrer/Desktop/Msc/3_Semester/Drug_Design_Praktikum/waehrer_HTS_screening/HTS_experiment/out/docking_results/vina_output/3elj/0571_docked.pdbqt
 OpenBabel03192217433D

 34 38  0  0  1  0  0  0  0  0999 V2000
   30.8000    5.8360   31.9210 Br  0  0  0  0  0  0  0  0  0  0  0  0
   30.2890    6.2060   30.1190 C   0  0  0  0  0  0  0  0  0  0  0  0
   29.3100    5.4930   29.4640 C   0  0  0  0  0  3  0  0  0  0  0  0
   28.9430    5.7650   28.1370 C   0  0  0  0  0  0  0  0  0  0  0  0
   29.6030    6.7860   27.4980 C   0  0  0  0  0  0  0  0  0  0  0  0
   30.5900    7.5090   28.1520 C   0  0  0  0  0  3  0  0  0  0  0  0
   30.9420    7.2330   29.4540 C   0  0  0  0  0  3  0  0  0  0  0  0
   29.1410    6.9340   26.1690 N   0  0  0  0  0  0  0  0  0  0  0  0
   28.1420    5.9610   25.9570 C   0  0  0  0  0  0  0  0  0  0  0  0
   27.5350    5.8400   24.8560 O   0  0  0  0  0  0  0  0  0  0  0  0
   27.9800    5.1820   27.2020 C   0  0  1  0  0  0  0  0  0  0  0  0
   28.2740    3.7660   26.9620 N   0  0  0  0  0  0  0  0  0  0  0  0
   27.4070    3.0320   27.8550 C   0  0  1  0  0  3  0  0  0  0  0  0
   26.2250    3.8720   28.1430 C   0  0  2  0  0  3  0  0  0  0  0  0
   26.5500    5.2470   27.5900 C   0  0  1  0  0  3  0  0  0  0  0  0
   26.1680    6.1900   28.6350 C   0  0  0  0  0  0  0  0  0  0  0  0
   26.3830    7.4270   28.6400 O   0  0  0  0  0  0  0  0  0  0  0  0
   25.4870    5.4980   29.7040 N   0  0  0  0  0  0  0  0  0  0  0  0
   25.9400    4.1350   29.5680 C   0  0  0  0  0  0  0  0  0  0  0  0
   26.0610    3.3330   30.5070 O   0  0  0  0  0  0  0  0  0  0  0  0
   29.4830    7.6470   25.4670 H   0  0  0  0  0  0  0  0  0  0  0  0
   29.2810    3.5490   27.1430 H   0  0  0  0  0  0  0  0  0  0  0  0
   27.0690    1.6830   27.2660 C   0  0  2  0  0  3  0  0  0  0  0  0
   26.3070    0.8090   28.2310 C   0  0  0  0  0  1  0  0  0  0  0  0
   28.2160    1.0750   26.7920 O   0  0  0  0  0  0  0  0  0  0  0  0
   28.8720    1.7170   26.4630 H   0  0  0  0  0  0  0  0  0  0  0  0
   24.5550    6.0030   30.6600 C   0  0  0  0  0  2  0  0  0  0  0  0
   23.1380    5.5280   30.5180 C   0  0  0  0  0  2  0  0  0  0  0  0
   22.1340    6.3460   31.2200 C   0  0  0  0  0  0  0  0  0  0  0  0
   22.2860    7.7260   31.2600 C   0  0  0  0  0  3  0  0  0  0  0  0
   21.3560    8.4910   31.8800 C   0  0  0  0  0  3  0  0  0  0  0  0
   20.2510    7.9620   32.4820 C   0  0  0  0  0  3  0  0  0  0  0  0
   20.1080    6.5840   32.4350 C   0  0  0  0  0  3  0  0  0  0  0  0
   21.0320    5.7920   31.8170 C   0  0  0  0  0  3  0  0  0  0  0  0
  2  1  1  0  0  0  0
  3  2  1  0  0  0  0
  4  3  2  0  0  0  0
  5  4  1  0  0  0  0
  5  6  2  0  0  0  0
  6  7  1  0  0  0  0
  7  2  2  0  0  0  0
  8  5  1  0  0  0  0
  9  8  1  0  0  0  0
 10  9  2  0  0  0  0
 11  9  1  6  0  0  0
 11 15  1  0  0  0  0
 11  4  1  0  0  0  0
 12 22  1  0  0  0  0
 12 11  1  0  0  0  0
 12 13  1  0  0  0  0
 13 23  1  6  0  0  0
 13 14  1  0  0  0  0
 14 19  1  1  0  0  0
 15 14  1  0  0  0  0
 15 16  1  1  0  0  0
 16 17  2  0  0  0  0
 16 18  1  0  0  0  0
 18 27  1  0  0  0  0
 19 18  1  0  0  0  0
 19 20  2  0  0  0  0
 21  8  1  0  0  0  0
 23 24  1  1  0  0  0
 25 23  1  0  0  0  0
 26 25  1  0  0  0  0
 28 27  1  0  0  0  0
 28 29  1  0  0  0  0
 29 30  2  0  0  0  0
 29 34  1  0  0  0  0
 30 31  1  0  0  0  0
 31 32  2  0  0  0  0
 33 32  1  0  0  0  0
 34 33  2  0  0  0  0
M  END
>  <Pose>
1

>  <Score>
-7.738

$$$$
