/Users/jonathanwahrer/Desktop/Msc/3_Semester/Drug_Design_Praktikum/waehrer_HTS_screening/HTS_experiment/out/docking_results/vina_output/3elj/0578_docked.pdbqt
 OpenBabel03192217433D

 27 30  0  0  1  0  0  0  0  0999 V2000
   20.8260    8.2070   32.1640 Br  0  0  0  0  0  0  0  0  0  0  0  0
   20.8930   10.1110   32.2890 C   0  0  0  0  0  0  0  0  0  0  0  0
   21.7310   10.8670   31.5090 C   0  0  0  0  0  3  0  0  0  0  0  0
   21.8070   12.2700   31.5730 C   0  0  0  0  0  0  0  0  0  0  0  0
   20.9890   12.8870   32.4710 C   0  0  0  0  0  0  0  0  0  0  0  0
   20.1220   12.1280   33.2800 C   0  0  0  0  0  3  0  0  0  0  0  0
   20.0720   10.7560   33.1930 C   0  0  0  0  0  3  0  0  0  0  0  0
   21.1600   14.2970   32.4230 N   0  0  0  0  0  0  0  0  0  0  0  0
   22.1360   14.5660   31.4440 C   0  0  0  0  0  0  0  0  0  0  0  0
   22.5520   15.7340   31.1040 O   0  0  0  0  0  0  0  0  0  0  0  0
   22.5870   13.2780   30.8870 C   0  0  2  0  0  0  0  0  0  0  0  0
   22.1860   13.3570   29.4710 N   0  0  0  0  0  0  0  0  0  0  0  0
   23.3380   13.6830   28.6890 C   0  0  2  0  0  3  0  0  0  0  0  0
   24.4780   13.1300   29.4630 C   0  0  1  0  0  3  0  0  0  0  0  0
   24.0620   13.1150   30.9090 C   0  0  2  0  0  3  0  0  0  0  0  0
   24.6090   11.8750   31.4100 C   0  0  0  0  0  0  0  0  0  0  0  0
   24.7310   11.5760   32.6340 O   0  0  0  0  0  0  0  0  0  0  0  0
   24.9870   11.0560   30.3120 N   0  0  0  0  0  0  0  0  0  0  0  0
   24.6330   11.6880   29.0910 C   0  0  0  0  0  0  0  0  0  0  0  0
   24.5010   11.1090   27.9950 O   0  0  0  0  0  0  0  0  0  0  0  0
   23.4920   15.1520   28.3700 C   0  0  0  0  0  1  0  0  0  0  0  0
   20.6570   15.0270   33.0080 H   0  0  0  0  0  0  0  0  0  0  0  0
   21.7420   12.4650   29.1600 H   0  0  0  0  0  0  0  0  0  0  0  0
   25.6370    9.7630   30.4800 C   0  0  0  0  0  2  0  0  0  0  0  0
   24.6750    8.7030   30.9240 C   0  0  0  0  0  2  0  0  0  0  0  0
   23.7610    8.2340   29.8250 C   0  0  0  0  0  2  0  0  0  0  0  0
   23.6930    6.7070   29.9390 C   0  0  0  0  0  1  0  0  0  0  0  0
  1  2  1  0  0  0  0
  2  7  1  0  0  0  0
  3  4  1  0  0  0  0
  3  2  2  0  0  0  0
  4  5  2  0  0  0  0
  5  6  1  0  0  0  0
  7  6  2  0  0  0  0
  8  5  1  0  0  0  0
  8 22  1  0  0  0  0
  9  8  1  0  0  0  0
 10  9  2  0  0  0  0
 11 15  1  0  0  0  0
 11  9  1  1  0  0  0
 11  4  1  0  0  0  0
 12 11  1  0  0  0  0
 13 21  1  1  0  0  0
 13 14  1  0  0  0  0
 13 12  1  0  0  0  0
 14 19  1  6  0  0  0
 14 15  1  0  0  0  0
 15 16  1  6  0  0  0
 16 17  2  0  0  0  0
 18 24  1  0  0  0  0
 18 16  1  0  0  0  0
 19 18  1  0  0  0  0
 20 19  2  0  0  0  0
 23 12  1  0  0  0  0
 24 25  1  0  0  0  0
 26 27  1  0  0  0  0
 26 25  1  0  0  0  0
M  END
>  <Pose>
1

>  <Score>
-8.218

$$$$
