/Users/jonathanwahrer/Desktop/Msc/3_Semester/Drug_Design_Praktikum/waehrer_HTS_screening/HTS_experiment/out/docking_results/vina_output/3elj/0579_docked.pdbqt
 OpenBabel03192217433D

 32 35  0  0  1  0  0  0  0  0999 V2000
   22.5880   15.4470   33.1270 Br  0  0  0  0  0  0  0  0  0  0  0  0
   22.8090   14.1790   31.7190 C   0  0  0  0  0  0  0  0  0  0  0  0
   22.6030   12.8280   31.8900 C   0  0  0  0  0  3  0  0  0  0  0  0
   22.7660   11.9070   30.8560 C   0  0  0  0  0  0  0  0  0  0  0  0
   23.1470   12.3530   29.6150 C   0  0  0  0  0  0  0  0  0  0  0  0
   23.3620   13.7060   29.4130 C   0  0  0  0  0  3  0  0  0  0  0  0
   23.1910   14.6100   30.4680 C   0  0  0  0  0  3  0  0  0  0  0  0
   23.2490   11.2520   28.7070 N   0  0  0  0  0  0  0  0  0  0  0  0
   22.9180   10.0660   29.4090 C   0  0  0  0  0  0  0  0  0  0  0  0
   22.9060    8.9380   28.8800 O   0  0  0  0  0  0  0  0  0  0  0  0
   22.6150   10.4250   30.7860 C   0  0  2  0  0  0  0  0  0  0  0  0
   21.2280   10.0370   31.0380 N   0  0  0  0  0  0  0  0  0  0  0  0
   21.2030    9.5380   32.3810 C   0  0  2  0  0  3  0  0  0  0  0  0
   22.4990    8.8260   32.5210 C   0  0  2  0  0  3  0  0  0  0  0  0
   23.4640    9.7600   31.8280 C   0  0  1  0  0  3  0  0  0  0  0  0
   24.5220    8.8930   31.3280 C   0  0  0  0  0  0  0  0  0  0  0  0
   25.6610    9.2590   30.9670 O   0  0  0  0  0  0  0  0  0  0  0  0
   24.0260    7.5600   31.3240 N   0  0  0  0  0  0  0  0  0  0  0  0
   22.6320    7.5900   31.7110 C   0  0  0  0  0  0  0  0  0  0  0  0
   21.8230    6.7100   31.3730 O   0  0  0  0  0  0  0  0  0  0  0  0
   23.5280   11.3400   27.6900 H   0  0  0  0  0  0  0  0  0  0  0  0
   20.9460    9.2550   30.4000 H   0  0  0  0  0  0  0  0  0  0  0  0
   19.9920    8.7320   32.7020 C   0  0  0  0  0  2  0  0  0  0  0  0
   18.9470    9.6010   33.2550 C   0  0  0  0  0  0  0  0  0  0  0  0
   19.1130   10.8530   33.2590 O   0  0  0  0  0  0  0  0  0  0  0  0
   17.7430    9.0510   33.7870 N   0  0  0  0  0  0  0  0  0  0  0  0
   16.8560    9.5930   33.7480 H   0  0  0  0  0  0  0  0  0  0  0  0
   17.7600    8.1030   34.2160 H   0  0  0  0  0  0  0  0  0  0  0  0
   24.8100    6.4060   30.9900 C   0  0  0  0  0  2  0  0  0  0  0  0
   24.7360    5.9740   29.5630 C   0  0  0  0  0  2  0  0  0  0  0  0
   25.4550    6.7900   28.7050 O   0  0  0  0  0  0  0  0  0  0  0  0
   26.8130    6.4800   28.7170 C   0  0  0  0  0  1  0  0  0  0  0  0
  2  3  1  0  0  0  0
  2  1  1  0  0  0  0
  4  3  2  0  0  0  0
  5  4  1  0  0  0  0
  6  5  2  0  0  0  0
  6  7  1  0  0  0  0
  7  2  2  0  0  0  0
  8  9  1  0  0  0  0
  8  5  1  0  0  0  0
 10  9  2  0  0  0  0
 11  9  1  6  0  0  0
 11  4  1  0  0  0  0
 11 12  1  0  0  0  0
 11 15  1  0  0  0  0
 12 13  1  0  0  0  0
 13 14  1  0  0  0  0
 13 23  1  6  0  0  0
 14 19  1  6  0  0  0
 15 16  1  6  0  0  0
 15 14  1  0  0  0  0
 17 16  2  0  0  0  0
 18 16  1  0  0  0  0
 18 19  1  0  0  0  0
 20 19  2  0  0  0  0
 21  8  1  0  0  0  0
 22 12  1  0  0  0  0
 23 24  1  0  0  0  0
 24 25  2  0  0  0  0
 24 26  1  0  0  0  0
 26 28  1  0  0  0  0
 27 26  1  0  0  0  0
 29 18  1  0  0  0  0
 30 29  1  0  0  0  0
 31 32  1  0  0  0  0
 31 30  1  0  0  0  0
M  END
>  <Pose>
1

>  <Score>
-6.971

$$$$
