/Users/jonathanwahrer/Desktop/Msc/3_Semester/Drug_Design_Praktikum/waehrer_HTS_screening/HTS_experiment/out/docking_results/vina_output/3elj/0592_docked.pdbqt
 OpenBabel03192217443D

 27 30  0  0  1  0  0  0  0  0999 V2000
   19.2190    6.9670   32.8690 Br  0  0  0  0  0  0  0  0  0  0  0  0
   19.8380    8.7590   32.7590 C   0  0  0  0  0  0  0  0  0  0  0  0
   20.8040    9.0710   31.8430 C   0  0  0  0  0  3  0  0  0  0  0  0
   21.2600   10.3910   31.7630 C   0  0  0  0  0  0  0  0  0  0  0  0
   20.7280   11.3190   32.5960 C   0  0  0  0  0  0  0  0  0  0  0  0
   19.7320   10.9940   33.5400 C   0  0  0  0  0  3  0  0  0  0  0  0
   19.2880    9.6960   33.6160 C   0  0  0  0  0  3  0  0  0  0  0  0
   21.1440   12.6380   32.5560 O   0  0  0  0  0  0  0  0  0  0  0  0
   22.1170   12.9950   31.6470 C   0  0  0  0  0  0  0  0  0  0  0  0
   22.6760   12.1530   30.8100 C   0  0  0  0  0  0  0  0  0  0  0  0
   22.3040   10.7460   30.7790 C   0  0  1  0  0  0  0  0  0  0  0  0
   23.4720    9.8380   30.8780 C   0  0  0  0  0  0  0  0  0  0  0  0
   23.5610    9.1160   29.7200 C   0  0  0  0  0  0  0  0  0  0  0  0
   24.6380    8.2820   29.8150 N   0  0  0  0  0  0  0  0  0  0  0  0
   25.1790    8.5020   31.0000 N   0  0  0  0  0  0  0  0  0  0  0  0
   24.5040    9.4390   31.6790 C   0  0  0  0  0  0  0  0  0  0  0  0
   24.8670    9.9090   33.0500 C   0  0  0  0  0  1  0  0  0  0  0  0
   22.5290    9.4630   28.8220 N   0  0  0  0  0  0  0  0  0  0  0  0
   21.7470   10.4530   29.4400 C   0  0  0  0  0  0  0  0  0  0  0  0
   20.7290   11.0240   28.9650 O   0  0  0  0  0  0  0  0  0  0  0  0
   23.6900   12.6040   29.8870 C   0  0  0  0  0  0  0  0  0  0  0  0
   24.4900   12.9640   29.1310 N   0  0  0  0  0  0  0  0  0  0  0  0
   26.0350    7.9770   31.3200 H   0  0  0  0  0  0  0  0  0  0  0  0
   22.3880    9.0330   27.8490 H   0  0  0  0  0  0  0  0  0  0  0  0
   22.5390   14.3680   31.6180 N   0  0  0  0  0  0  0  0  0  0  0  0
   23.4880   14.6060   31.2590 H   0  0  0  0  0  0  0  0  0  0  0  0
   21.9270   15.1480   31.9460 H   0  0  0  0  0  0  0  0  0  0  0  0
  2  1  1  0  0  0  0
  2  7  1  0  0  0  0
  3  2  2  0  0  0  0
  4  3  1  0  0  0  0
  4  5  2  0  0  0  0
  5  6  1  0  0  0  0
  6  7  2  0  0  0  0
  8  5  1  0  0  0  0
  9  8  1  0  0  0  0
 10  9  2  0  0  0  0
 11 19  1  6  0  0  0
 11 10  1  0  0  0  0
 11 12  1  0  0  0  0
 11  4  1  0  0  0  0
 12 16  2  0  0  0  0
 13 14  2  0  0  0  0
 13 12  1  0  0  0  0
 14 15  1  0  0  0  0
 15 23  1  0  0  0  0
 15 16  1  0  0  0  0
 16 17  1  0  0  0  0
 18 19  1  0  0  0  0
 18 13  1  0  0  0  0
 20 19  2  0  0  0  0
 21 10  1  0  0  0  0
 22 21  3  0  0  0  0
 24 18  1  0  0  0  0
 25  9  1  0  0  0  0
 25 27  1  0  0  0  0
 26 25  1  0  0  0  0
M  END
>  <Pose>
1

>  <Score>
-6.241

$$$$
