/Users/jonathanwahrer/Desktop/Msc/3_Semester/Drug_Design_Praktikum/waehrer_HTS_screening/HTS_experiment/out/docking_results/vina_output/3elj/0596_docked.pdbqt
 OpenBabel03192217443D

 29 32  0  0  0  0  0  0  0  0999 V2000
   23.3660    9.8870   30.6870 C   0  0  0  0  0  0  0  0  0  0  0  0
   24.4820    9.5250   29.9500 C   0  0  0  0  0  3  0  0  0  0  0  0
   24.7670    8.1950   29.7260 C   0  0  0  0  0  0  0  0  0  0  0  0
   25.8090    7.9420   29.0420 O   0  0  0  0  0  0  0  0  0  0  0  0
   23.9980    7.2620   30.1970 O   0  0  0  0  0  0  0  0  0  0  0  0
   22.9540    7.5280   30.8830 C   0  0  0  0  0  0  0  0  0  0  0  0
   22.5890    8.8590   31.1600 C   0  0  0  0  0  0  0  0  0  0  0  0
   21.4610    9.1120   31.8860 C   0  0  0  0  0  3  0  0  0  0  0  0
   20.7110    8.0190   32.3320 C   0  0  0  0  0  3  0  0  0  0  0  0
   21.0990    6.7250   32.0470 C   0  0  0  0  0  0  0  0  0  0  0  0
   22.2290    6.4330   31.3160 C   0  0  0  0  0  0  0  0  0  0  0  0
   20.2750    5.6950   32.5490 O   0  0  0  0  0  1  0  0  0  0  0  0
   23.0820   11.2900   30.9860 C   0  0  0  0  0  0  0  0  0  0  0  0
   24.0550   12.1110   31.5150 C   0  0  0  0  0  0  0  0  0  0  0  0
   23.7940   13.3370   31.8050 O   0  0  0  0  0  0  0  0  0  0  0  0
   25.1930   11.5740   31.6860 O   0  0  0  0  0  0  0  0  0  0  0  0
   22.5960   13.8930   31.6200 C   0  0  0  0  0  0  0  0  0  0  0  0
   21.5790   13.1240   31.0920 C   0  0  0  0  0  0  0  0  0  0  0  0
   22.3970   15.2230   31.9620 C   0  0  0  0  0  3  0  0  0  0  0  0
   20.3470   13.7270   30.9110 C   0  0  0  0  0  3  0  0  0  0  0  0
   21.8260   11.8120   30.7750 C   0  0  0  0  0  3  0  0  0  0  0  0
   20.0890   15.0470   31.2320 C   0  0  0  0  0  0  0  0  0  0  0  0
   18.3830   15.8200   30.9460 Br  0  0  0  0  0  0  0  0  0  0  0  0
   21.1560   15.7830   31.7670 C   0  0  0  0  0  3  0  0  0  0  0  0
   22.6210    5.0600   31.1450 C   0  0  0  0  0  2  0  0  0  0  0  0
   23.7840    4.4970   31.6990 N   0  0  0  0  0  4  0  0  0  0  0  0
   23.6190    3.5190   32.7380 C   0  0  0  0  0  1  0  0  0  0  0  0
   24.7530    4.0660   30.6580 C   0  0  0  0  0  1  0  0  0  0  0  0
   24.3040    5.2830   32.1870 H   0  0  0  0  0  0  0  0  0  0  0  0
  1 13  1  0  0  0  0
  1  7  1  0  0  0  0
  2  1  2  0  0  0  0
  3  2  1  0  0  0  0
  3  5  1  0  0  0  0
  4  3  2  0  0  0  0
  5  6  1  0  0  0  0
  6  7  2  0  0  0  0
  6 11  1  0  0  0  0
  7  8  1  0  0  0  0
  8  9  2  0  0  0  0
 10  9  1  0  0  0  0
 10 12  1  0  0  0  0
 11 10  2  0  0  0  0
 13 14  1  0  0  0  0
 14 16  2  0  0  0  0
 14 15  1  0  0  0  0
 17 15  1  0  0  0  0
 17 19  1  0  0  0  0
 18 17  2  0  0  0  0
 20 18  1  0  0  0  0
 20 22  2  0  0  0  0
 21 13  2  0  0  0  0
 21 18  1  0  0  0  0
 22 24  1  0  0  0  0
 23 22  1  0  0  0  0
 24 19  2  0  0  0  0
 25 11  1  0  0  0  0
 25 26  1  0  0  0  0
 26 29  1  0  0  0  0
 26 27  1  0  0  0  0
 28 26  1  0  0  0  0
M  END
>  <Pose>
1

>  <Score>
-10.055

$$$$
