/Users/jonathanwahrer/Desktop/Msc/3_Semester/Drug_Design_Praktikum/waehrer_HTS_screening/HTS_experiment/out/docking_results/vina_output/3elj/0610_docked.pdbqt
 OpenBabel03192217443D

 32 35  0  0  0  0  0  0  0  0999 V2000
   19.7990    7.2600   33.1880 Br  0  0  0  0  0  0  0  0  0  0  0  0
   21.1990    6.7430   32.0000 C   0  0  0  0  0  0  0  0  0  0  0  0
   22.1310    7.6750   31.5510 C   0  0  0  0  0  3  0  0  0  0  0  0
   23.1510    7.2990   30.6870 C   0  0  0  0  0  0  0  0  0  0  0  0
   23.2480    5.9910   30.2640 C   0  0  0  0  0  0  0  0  0  0  0  0
   24.2470    5.6210   29.4230 N   0  0  0  0  0  0  0  0  0  0  0  0
   25.1620    6.5020   28.9790 C   0  0  0  0  0  0  0  0  0  0  0  0
   25.0510    7.7670   29.4000 N   0  0  0  0  0  0  0  0  0  0  0  0
   24.0870    8.2040   30.2320 C   0  0  0  0  0  0  0  0  0  0  0  0
   22.3070    5.0800   30.7250 C   0  0  0  0  0  3  0  0  0  0  0  0
   21.2870    5.4310   31.5830 C   0  0  0  0  0  3  0  0  0  0  0  0
   26.2040    6.0740   28.0930 N   0  0  0  0  0  4  0  0  0  0  0  0
   25.9000    4.7700   27.5690 C   0  0  0  0  0  2  0  0  0  0  0  0
   26.1050    3.6530   28.5340 C   0  0  0  0  0  2  0  0  0  0  0  0
   26.8600    4.0580   29.6990 N   0  0  0  0  0  0  0  0  0  0  0  0
   27.9380    4.9980   29.4810 C   0  0  0  0  0  2  0  0  0  0  0  0
   26.5070    3.5210   30.9600 C   0  0  0  0  0  0  0  0  0  0  0  0
   27.5110    6.1790   28.6650 C   0  0  0  0  0  2  0  0  0  0  0  0
   25.5600    2.7120   31.0720 O   0  0  0  0  0  0  0  0  0  0  0  0
   26.1340    6.7380   27.2660 H   0  0  0  0  0  0  0  0  0  0  0  0
   27.3190    3.9710   32.1280 C   0  0  0  0  0  2  0  0  0  0  0  0
   28.1020    2.8400   32.7230 C   0  0  0  0  0  2  0  0  0  0  0  0
   29.0210    3.2650   33.7890 C   0  0  0  0  0  0  0  0  0  0  0  0
   30.0010    4.0000   33.5510 O   0  0  0  0  0  0  0  0  0  0  0  0
   28.7960    2.8440   35.0840 O   0  0  0  0  0  1  0  0  0  0  0  0
   24.0570    9.6020   30.6310 C   0  0  0  0  0  0  0  0  0  0  0  0
   23.1870   10.4890   30.0120 C   0  0  0  0  0  0  0  0  0  0  0  0
   23.1190   11.8180   30.3720 C   0  0  0  0  0  3  0  0  0  0  0  0
   22.1470    9.8690   28.7270 Cl  0  0  0  0  0  0  0  0  0  0  0  0
   23.9220   12.3250   31.3730 C   0  0  0  0  0  3  0  0  0  0  0  0
   24.7920   11.4360   31.9910 C   0  0  0  0  0  3  0  0  0  0  0  0
   24.8530   10.1090   31.6250 C   0  0  0  0  0  3  0  0  0  0  0  0
  2  1  1  0  0  0  0
  3  2  2  0  0  0  0
  4  3  1  0  0  0  0
  5  4  2  0  0  0  0
  5 10  1  0  0  0  0
  6  5  1  0  0  0  0
  7  8  1  0  0  0  0
  7  6  2  0  0  0  0
  8  9  2  0  0  0  0
  9 26  1  0  0  0  0
  9  4  1  0  0  0  0
 10 11  2  0  0  0  0
 11  2  1  0  0  0  0
 12 18  1  0  0  0  0
 12  7  1  0  0  0  0
 13 12  1  0  0  0  0
 13 14  1  0  0  0  0
 14 15  1  0  0  0  0
 15 17  1  0  0  0  0
 16 15  1  0  0  0  0
 17 19  2  0  0  0  0
 17 21  1  0  0  0  0
 18 16  1  0  0  0  0
 20 12  1  0  0  0  0
 21 22  1  0  0  0  0
 22 23  1  0  0  0  0
 23 25  1  0  0  0  0
 24 23  2  0  0  0  0
 26 32  1  0  0  0  0
 27 28  1  0  0  0  0
 27 26  2  0  0  0  0
 28 30  2  0  0  0  0
 29 27  1  0  0  0  0
 30 31  1  0  0  0  0
 32 31  2  0  0  0  0
M  END
>  <Pose>
1

>  <Score>
-8.102

$$$$
