/Users/jonathanwahrer/Desktop/Msc/3_Semester/Drug_Design_Praktikum/waehrer_HTS_screening/HTS_experiment/out/docking_results/vina_output/3elj/0617_docked.pdbqt
 OpenBabel03192217453D

 25 28  0  0  0  0  0  0  0  0999 V2000
   19.7650   12.2910   33.5600 Br  0  0  0  0  0  0  0  0  0  0  0  0
   19.9410   10.4530   33.1020 C   0  0  0  0  0  0  0  0  0  0  0  0
   21.0970    9.9620   32.5310 C   0  0  0  0  0  3  0  0  0  0  0  0
   21.2410    8.6320   32.1930 C   0  0  0  0  0  0  0  0  0  0  0  0
   20.1820    7.7800   32.4420 C   0  0  0  0  0  0  0  0  0  0  0  0
   20.5880    6.5680   32.0220 N   0  0  0  0  0  0  0  0  0  0  0  0
   21.8490    6.6230   31.5240 C   0  0  0  0  0  0  0  0  0  0  0  0
   22.2810    7.9280   31.6250 C   0  0  0  0  0  0  0  0  0  0  0  0
   23.5190    8.2300   31.1880 N   0  0  0  0  0  0  0  0  0  0  0  0
   24.3380    7.2990   30.6620 C   0  0  0  0  0  3  0  0  0  0  0  0
   23.9450    6.0230   30.5520 N   0  0  0  0  0  0  0  0  0  0  0  0
   22.7160    5.7020   30.9800 C   0  0  0  0  0  0  0  0  0  0  0  0
   22.3300    4.5100   30.8850 O   0  0  0  0  0  0  0  0  0  0  0  0
   19.0290    8.2840   33.0140 C   0  0  0  0  0  3  0  0  0  0  0  0
   18.8760    9.6130   33.3540 C   0  0  0  0  0  3  0  0  0  0  0  0
   20.0330    5.6940   32.0610 H   0  0  0  0  0  0  0  0  0  0  0  0
   24.8340    5.0000   29.9750 C   0  0  0  0  0  2  0  0  0  0  0  0
   26.0520    5.6290   29.4160 C   0  0  0  0  0  2  0  0  0  0  0  0
   26.1920    5.6120   28.0060 N   0  0  0  0  0  0  0  0  0  0  0  0
   26.0130    4.3430   27.3890 C   0  0  0  0  0  2  0  0  0  0  0  0
   27.3010    3.6170   27.1240 C   0  0  0  0  0  2  0  0  0  0  0  0
   28.3700    4.5090   26.7260 N   0  0  0  0  0  0  0  0  0  0  0  0
   27.8490    5.7950   26.2950 C   0  0  0  0  0  2  0  0  0  0  0  0
   29.0860    4.6300   27.4780 H   0  0  0  0  0  0  0  0  0  0  0  0
   27.2360    6.4380   27.5140 C   0  0  0  0  0  2  0  0  0  0  0  0
  2 15  1  0  0  0  0
  2  1  1  0  0  0  0
  3  2  2  0  0  0  0
  4  5  2  0  0  0  0
  4  3  1  0  0  0  0
  5 14  1  0  0  0  0
  6 16  1  0  0  0  0
  6  5  1  0  0  0  0
  7  8  2  0  0  0  0
  7  6  1  0  0  0  0
  8  4  1  0  0  0  0
  9  8  1  0  0  0  0
 10  9  2  0  0  0  0
 11 10  1  0  0  0  0
 11 12  1  0  0  0  0
 12  7  1  0  0  0  0
 13 12  2  0  0  0  0
 14 15  2  0  0  0  0
 17 11  1  0  0  0  0
 18 17  1  0  0  0  0
 19 18  1  0  0  0  0
 20 19  1  0  0  0  0
 21 20  1  0  0  0  0
 22 21  1  0  0  0  0
 22 24  1  0  0  0  0
 23 22  1  0  0  0  0
 23 25  1  0  0  0  0
 25 19  1  0  0  0  0
M  END
>  <Pose>
1

>  <Score>
-8.192

$$$$
