/Users/jonathanwahrer/Desktop/Msc/3_Semester/Drug_Design_Praktikum/waehrer_HTS_screening/HTS_experiment/out/docking_results/vina_output/3elj/0624_docked.pdbqt
 OpenBabel03192217453D

 22 25  0  0  0  0  0  0  0  0999 V2000
   22.4160    5.1160   30.9320 Br  0  0  0  0  0  0  0  0  0  0  0  0
   21.8020    6.8250   31.5050 C   0  0  0  0  0  0  0  0  0  0  0  0
   20.6610    6.9000   32.2760 C   0  0  0  0  0  3  0  0  0  0  0  0
   20.1830    8.1420   32.7120 C   0  0  0  0  0  0  0  0  0  0  0  0
   20.8740    9.2560   32.3570 C   0  0  0  0  0  0  0  0  0  0  0  0
   22.0180    9.2310   31.5900 C   0  0  0  0  0  0  0  0  0  0  0  0
   22.4660    8.0040   31.1740 C   0  0  0  0  0  3  0  0  0  0  0  0
   22.6150   10.4310   31.3050 C   0  0  0  0  0  0  0  0  0  0  0  0
   23.6470   10.4230   30.6150 O   0  0  0  0  0  0  0  0  0  0  0  0
   22.1130   11.6430   31.7560 C   0  0  0  0  0  0  0  0  0  0  0  0
   20.9660   11.5970   32.5180 C   0  0  0  0  0  3  0  0  0  0  0  0
   20.3610   10.4010   32.8080 N   0  0  0  0  0  0  0  0  0  0  0  0
   19.1760   10.0710   33.5690 C   0  0  0  0  0  3  0  0  0  0  0  0
   19.0310    8.5740   33.5220 C   0  0  0  0  0  3  0  0  0  0  0  0
   22.7620   12.9120   31.4440 C   0  0  0  0  0  0  0  0  0  0  0  0
   23.9850   13.0460   31.6770 O   0  0  0  0  0  0  0  0  0  0  0  0
   22.0150   13.9980   30.8780 N   0  0  0  0  0  0  0  0  0  0  0  0
   22.6340   15.2670   30.5600 C   0  0  0  0  0  2  0  0  0  0  0  0
   20.5990   13.8660   30.6000 C   0  0  0  0  0  2  0  0  0  0  0  0
   21.7990   16.3370   31.2760 C   0  0  0  0  0  2  0  0  0  0  0  0
   20.4770   16.1870   30.9320 O   0  0  0  0  0  0  0  0  0  0  0  0
   19.9110   15.0050   31.3600 C   0  0  0  0  0  2  0  0  0  0  0  0
  1  2  1  0  0  0  0
  2  3  1  0  0  0  0
  3  4  2  0  0  0  0
  4 14  1  0  0  0  0
  5  4  1  0  0  0  0
  5 12  1  0  0  0  0
  6  5  2  0  0  0  0
  7  2  2  0  0  0  0
  7  6  1  0  0  0  0
  8  6  1  0  0  0  0
  8 10  1  0  0  0  0
  9  8  2  0  0  0  0
 10 11  2  0  0  0  0
 11 12  1  0  0  0  0
 12 13  1  0  0  0  0
 14 13  2  0  0  0  0
 15 16  2  0  0  0  0
 15 10  1  0  0  0  0
 17 15  1  0  0  0  0
 18 17  1  0  0  0  0
 18 20  1  0  0  0  0
 19 17  1  0  0  0  0
 19 22  1  0  0  0  0
 21 20  1  0  0  0  0
 21 22  1  0  0  0  0
M  END
>  <Pose>
1

>  <Score>
-9.040

$$$$
