/Users/jonathanwahrer/Desktop/Msc/3_Semester/Drug_Design_Praktikum/waehrer_HTS_screening/HTS_experiment/out/docking_results/vina_output/3elj/0625_docked.pdbqt
 OpenBabel03192217453D

 31 34  0  0  0  0  0  0  0  0999 V2000
   24.0430    1.5790   34.1960 Br  0  0  0  0  0  0  0  0  0  0  0  0
   24.2310    2.8790   32.8450 C   0  0  0  0  0  0  0  0  0  0  0  0
   23.1810    3.7150   32.4990 C   0  0  0  0  0  3  0  0  0  0  0  0
   23.2860    4.6530   31.5130 C   0  0  0  0  0  0  0  0  0  0  0  0
   22.3900    5.5900   31.0820 N   0  0  0  0  0  0  0  0  0  0  0  0
   23.0060    6.3260   30.1400 C   0  0  0  0  0  0  0  0  0  0  0  0
   24.3210    5.8240   29.9450 C   0  0  0  0  0  0  0  0  0  0  0  0
   24.4460    4.7870   30.8340 C   0  0  0  0  0  0  0  0  0  0  0  0
   25.5200    3.9570   31.1650 C   0  0  0  0  0  3  0  0  0  0  0  0
   25.4290    3.0010   32.1660 C   0  0  0  0  0  0  0  0  0  0  0  0
   20.9560    5.4850   31.4170 C   0  0  0  0  0  2  0  0  0  0  0  0
   20.5960    6.8350   32.0790 C   0  0  0  0  0  0  0  0  0  0  0  0
   19.2770    7.1790   32.0250 C   0  0  0  0  0  3  0  0  0  0  0  0
   18.8720    8.3880   32.6160 C   0  0  0  0  0  3  0  0  0  0  0  0
   19.7400    9.2260   33.2490 C   0  0  0  0  0  3  0  0  0  0  0  0
   21.0770    8.8280   33.2820 C   0  0  0  0  0  3  0  0  0  0  0  0
   21.4950    7.6290   32.6920 C   0  0  0  0  0  3  0  0  0  0  0  0
   22.5330    7.5120   29.4260 C   0  0  0  0  0  2  0  0  0  0  0  0
   23.0530    8.7930   29.7910 N   0  0  0  0  0  4  0  0  0  0  0  0
   23.9460    9.1450   30.7480 C   0  0  0  0  0  2  0  0  0  0  0  0
   23.5430   10.5430   31.2760 C   0  0  0  0  0  2  0  0  0  0  0  0
   22.8060   11.0860   30.0540 C   0  0  0  0  0  2  0  0  0  0  0  0
   22.0180    9.8350   29.6900 C   0  0  0  0  0  2  0  0  0  0  0  0
   23.5870    9.0540   28.7720 H   0  0  0  0  0  0  0  0  0  0  0  0
   25.2810    6.1870   28.8950 C   0  0  0  0  0  0  0  0  0  0  0  0
   25.8700    7.2960   29.0100 O   0  0  0  0  0  0  0  0  0  0  0  0
   25.6000    5.4290   27.8180 O   0  0  0  0  0  0  0  0  0  0  0  0
   26.7620    4.7690   27.4650 C   0  0  0  0  0  2  0  0  0  0  0  0
   26.6360    3.2520   27.4010 C   0  0  0  0  0  1  0  0  0  0  0  0
   26.4940    2.1580   32.5290 O   0  0  0  0  0  0  0  0  0  0  0  0
   26.3360    1.1410   32.5650 H   0  0  0  0  0  0  0  0  0  0  0  0
  2  1  1  0  0  0  0
  3  2  1  0  0  0  0
  4  3  2  0  0  0  0
  5 11  1  0  0  0  0
  5  4  1  0  0  0  0
  6  5  1  0  0  0  0
  7  6  2  0  0  0  0
  7  8  1  0  0  0  0
  8  9  2  0  0  0  0
  8  4  1  0  0  0  0
  9 10  1  0  0  0  0
 10 30  1  0  0  0  0
 10  2  2  0  0  0  0
 11 12  1  0  0  0  0
 12 17  1  0  0  0  0
 13 12  2  0  0  0  0
 13 14  1  0  0  0  0
 14 15  2  0  0  0  0
 15 16  1  0  0  0  0
 17 16  2  0  0  0  0
 18 19  1  0  0  0  0
 18  6  1  0  0  0  0
 19 20  1  0  0  0  0
 20 21  1  0  0  0  0
 22 21  1  0  0  0  0
 23 19  1  0  0  0  0
 23 22  1  0  0  0  0
 24 19  1  0  0  0  0
 25 26  2  0  0  0  0
 25  7  1  0  0  0  0
 27 25  1  0  0  0  0
 28 27  1  0  0  0  0
 29 28  1  0  0  0  0
 30 31  1  0  0  0  0
M  END
>  <Pose>
1

>  <Score>
-7.967

$$$$
