/Users/jonathanwahrer/Desktop/Msc/3_Semester/Drug_Design_Praktikum/waehrer_HTS_screening/HTS_experiment/out/docking_results/vina_output/3elj/0626_docked.pdbqt
 OpenBabel03192217453D

 32 35  0  0  0  0  0  0  0  0999 V2000
   23.0430    9.5450   31.3400 N   0  0  0  0  0  0  0  0  0  0  0  0
   23.2990    9.0130   30.0690 C   0  0  0  0  0  0  0  0  0  0  0  0
   22.8000    9.5490   29.0470 O   0  0  0  0  0  0  0  0  0  0  0  0
   23.5240    9.0340   32.1420 H   0  0  0  0  0  0  0  0  0  0  0  0
   24.1380    7.8340   29.8290 C   0  0  0  0  0  2  0  0  0  0  0  0
   23.8740    6.6670   30.5730 N   0  0  0  0  0  0  0  0  0  0  0  0
   22.6540    5.9830   30.3410 C   0  0  0  0  0  2  0  0  0  0  0  0
   22.2880    5.0490   31.4950 C   0  0  0  0  0  2  0  0  0  0  0  0
   23.3740    4.1950   31.7230 N   0  0  0  0  0  0  0  0  0  0  0  0
   24.5750    4.4200   31.0180 C   0  0  0  0  0  2  0  0  0  0  0  0
   25.0030    5.8490   30.8600 C   0  0  0  0  0  2  0  0  0  0  0  0
   23.3840    3.5000   32.9290 C   0  0  0  0  0  2  0  0  0  0  0  0
   23.9290    2.1420   32.9530 C   0  0  0  0  0  0  0  0  0  0  0  0
   25.2130    2.0700   33.0840 O   0  0  0  0  0  0  0  0  0  0  0  0
   23.2410    0.9380   32.8550 N   0  0  0  0  0  0  0  0  0  0  0  0
   22.2050    0.9300   32.7580 H   0  0  0  0  0  0  0  0  0  0  0  0
   23.8970   -0.3650   32.8930 C   0  0  0  0  0  3  0  0  0  0  0  0
   23.1660   -1.5680   33.3220 C   0  0  0  0  0  2  0  0  0  0  0  0
   23.4900   -1.3850   31.8510 C   0  0  0  0  0  2  0  0  0  0  0  0
   22.2500   10.6700   31.6580 C   0  0  0  0  0  0  0  0  0  0  0  0
   21.1300   10.4980   32.4560 C   0  0  0  0  0  0  0  0  0  0  0  0
   20.7250    8.7190   33.0460 Br  0  0  0  0  0  0  0  0  0  0  0  0
   20.2990   11.5290   32.8340 C   0  0  0  0  0  3  0  0  0  0  0  0
   20.5510   12.8140   32.4220 C   0  0  0  0  0  0  0  0  0  0  0  0
   19.9720   14.0170   32.5980 N   0  0  0  0  0  0  0  0  0  0  0  0
   21.6510   13.0050   31.6350 C   0  0  0  0  0  0  0  0  0  0  0  0
   20.6650   14.9710   31.9480 C   0  0  0  0  0  0  0  0  0  0  0  0
   21.6910   14.3260   31.3650 N   0  0  0  0  0  0  0  0  0  0  0  0
   22.4370   14.7830   30.7700 H   0  0  0  0  0  0  0  0  0  0  0  0
   22.5010   11.9590   31.2480 C   0  0  0  0  0  3  0  0  0  0  0  0
   20.3650   16.3470   31.9020 O   0  0  0  0  0  0  0  0  0  0  0  0
   21.1810   16.9730   31.9430 H   0  0  0  0  0  0  0  0  0  0  0  0
  1 20  1  0  0  0  0
  1  4  1  0  0  0  0
  2  1  1  0  0  0  0
  3  2  2  0  0  0  0
  5  2  1  0  0  0  0
  5  6  1  0  0  0  0
  6 11  1  0  0  0  0
  7  6  1  0  0  0  0
  7  8  1  0  0  0  0
  8  9  1  0  0  0  0
  9 12  1  0  0  0  0
 10  9  1  0  0  0  0
 11 10  1  0  0  0  0
 12 13  1  0  0  0  0
 13 14  2  0  0  0  0
 15 17  1  0  0  0  0
 15 13  1  0  0  0  0
 16 15  1  0  0  0  0
 17 18  1  0  0  0  0
 19 17  1  0  0  0  0
 19 18  1  0  0  0  0
 20 21  1  0  0  0  0
 21 23  2  0  0  0  0
 21 22  1  0  0  0  0
 24 25  1  0  0  0  0
 24 23  1  0  0  0  0
 26 24  2  0  0  0  0
 27 25  2  0  0  0  0
 28 26  1  0  0  0  0
 28 27  1  0  0  0  0
 29 28  1  0  0  0  0
 30 26  1  0  0  0  0
 30 20  2  0  0  0  0
 31 32  1  0  0  0  0
 31 27  1  0  0  0  0
M  END
>  <Pose>
1

>  <Score>
-8.312

$$$$
