/Users/jonathanwahrer/Desktop/Msc/3_Semester/Drug_Design_Praktikum/waehrer_HTS_screening/HTS_experiment/out/docking_results/vina_output/3elj/0648_docked.pdbqt
 OpenBabel03192217463D

 32 35  0  0  0  0  0  0  0  0999 V2000
   28.8370   15.3210   27.2660 C   0  0  0  0  0  0  0  0  0  0  0  0
   27.6910   15.8980   27.2590 O   0  0  0  0  0  0  0  0  0  0  0  0
   28.9340   14.0930   26.6670 N   0  0  0  0  0  0  0  0  0  0  0  0
   30.1150   13.2900   26.5870 C   0  0  0  0  0  2  0  0  0  0  0  0
   29.9610   12.1180   27.5000 C   0  0  0  0  0  2  0  0  0  0  0  0
   28.5610   11.7660   27.6870 N   0  0  0  0  0  0  0  0  0  0  0  0
   27.5320   12.1290   26.7700 C   0  0  0  0  0  2  0  0  0  0  0  0
   27.7660   13.4450   26.0350 C   0  0  0  0  0  2  0  0  0  0  0  0
   28.3040   11.0700   28.9160 C   0  0  0  0  0  0  0  0  0  0  0  0
   29.3110   10.9260   29.7270 O   0  0  0  0  0  0  0  0  0  0  0  0
   27.0440   10.5370   29.3020 C   0  0  0  0  0  0  0  0  0  0  0  0
   26.7100    9.1960   29.1550 N   0  0  0  0  0  0  0  0  0  0  0  0
   25.4880    9.0050   29.5300 N   0  0  0  0  0  0  0  0  0  0  0  0
   27.5900    8.1620   28.6630 C   0  0  0  0  0  1  0  0  0  0  0  0
   24.9240   10.1390   29.9380 C   0  0  0  0  0  0  0  0  0  0  0  0
   25.9260   11.1180   29.7890 C   0  0  0  0  0  3  0  0  0  0  0  0
   23.5880   10.3750   30.4550 C   0  0  0  0  0  0  0  0  0  0  0  0
   22.7080    9.4820   30.1860 O   0  0  0  0  0  0  0  0  0  0  0  0
   23.1970   11.4730   31.2050 N   0  0  0  0  0  0  0  0  0  0  0  0
   21.8050   11.5330   31.6650 C   0  0  0  0  0  2  0  0  0  0  0  0
   24.0450   12.5710   31.5500 C   0  0  0  0  0  2  0  0  0  0  0  0
   21.2780   12.8770   31.2070 C   0  0  0  0  0  2  0  0  0  0  0  0
   22.0030   13.8310   31.9440 O   0  0  0  0  0  0  0  0  0  0  0  0
   23.2900   13.8930   31.4880 C   0  0  0  0  0  2  0  0  0  0  0  0
   29.8960   16.0500   27.9170 C   0  0  0  0  0  0  0  0  0  0  0  0
   30.7200   17.0340   27.3620 C   0  0  0  0  0  0  0  0  0  0  0  0
   30.6030   17.6410   25.5410 Br  0  0  0  0  0  0  0  0  0  0  0  0
   31.5930   17.4690   28.3220 C   0  0  0  0  0  3  0  0  0  0  0  0
   31.3260   16.7820   29.4380 N   0  0  0  0  0  0  0  0  0  0  0  0
   30.3410   15.9570   29.2040 N   0  0  0  0  0  0  0  0  0  0  0  0
   32.0800   16.9910   30.6680 C   0  0  0  0  0  2  0  0  0  0  0  0
   31.4160   17.9640   31.6050 C   0  0  0  0  0  1  0  0  0  0  0  0
  1 25  1  0  0  0  0
  2  1  2  0  0  0  0
  3  1  1  0  0  0  0
  4  3  1  0  0  0  0
  4  5  1  0  0  0  0
  5  6  1  0  0  0  0
  6  9  1  0  0  0  0
  7  6  1  0  0  0  0
  8  3  1  0  0  0  0
  8  7  1  0  0  0  0
  9 11  1  0  0  0  0
  9 10  2  0  0  0  0
 11 16  2  0  0  0  0
 12 11  1  0  0  0  0
 12 13  1  0  0  0  0
 13 15  2  0  0  0  0
 14 12  1  0  0  0  0
 15 17  1  0  0  0  0
 16 15  1  0  0  0  0
 17 19  1  0  0  0  0
 18 17  2  0  0  0  0
 19 21  1  0  0  0  0
 19 20  1  0  0  0  0
 22 20  1  0  0  0  0
 22 23  1  0  0  0  0
 24 21  1  0  0  0  0
 24 23  1  0  0  0  0
 25 30  2  0  0  0  0
 26 25  1  0  0  0  0
 26 28  2  0  0  0  0
 27 26  1  0  0  0  0
 28 29  1  0  0  0  0
 29 31  1  0  0  0  0
 30 29  1  0  0  0  0
 31 32  1  0  0  0  0
M  END
>  <Pose>
1

>  <Score>
-7.153

$$$$
