/Users/jonathanwahrer/Desktop/Msc/3_Semester/Drug_Design_Praktikum/waehrer_HTS_screening/HTS_experiment/out/docking_results/vina_output/3elj/0653_docked.pdbqt
 OpenBabel03192217463D

 29 32  0  0  0  0  0  0  0  0999 V2000
   22.0000   10.8470   32.0100 C   0  0  0  0  0  0  0  0  0  0  0  0
   20.9200   10.3320   32.6830 C   0  0  0  0  0  0  0  0  0  0  0  0
   19.8600   11.1360   33.0590 C   0  0  0  0  0  0  0  0  0  0  0  0
   19.8550   12.4830   32.7720 C   0  0  0  0  0  0  0  0  0  0  0  0
   20.9570   13.0240   32.0830 C   0  0  0  0  0  0  0  0  0  0  0  0
   22.0070   12.2270   31.7090 C   0  0  0  0  0  0  0  0  0  0  0  0
   23.1430   12.8010   30.9840 C   0  0  0  0  0  2  0  0  0  0  0  0
   23.3580   14.2580   31.0920 C   0  0  0  0  0  2  0  0  0  0  0  0
   22.1270   15.0310   31.1980 N   0  0  0  0  0  0  0  0  0  0  0  0
   20.9900   14.4610   31.8320 C   0  0  0  0  0  0  0  0  0  0  0  0
   20.0280   15.2170   32.1660 O   0  0  0  0  0  0  0  0  0  0  0  0
   22.1490   16.3690   30.6540 C   0  0  0  0  0  1  0  0  0  0  0  0
   18.9550   10.3150   33.7030 O   0  0  0  0  0  0  0  0  0  0  0  0
   19.3370    8.9680   33.5830 C   0  0  0  0  0  2  0  0  0  0  0  0
   20.6760    9.0030   33.0970 O   0  0  0  0  0  0  0  0  0  0  0  0
   23.1670   10.0220   31.6330 C   0  0  0  0  0  2  0  0  0  0  0  0
   22.8060    8.7420   31.0500 N   0  0  0  0  0  0  0  0  0  0  0  0
   23.4020    8.0530   30.0170 C   0  0  0  0  0  0  0  0  0  0  0  0
   24.4230    8.5110   29.4100 O   0  0  0  0  0  0  0  0  0  0  0  0
   21.9540    8.2990   31.5200 H   0  0  0  0  0  0  0  0  0  0  0  0
   22.8720    6.7380   29.5650 C   0  0  0  0  0  2  0  0  0  0  0  0
   23.5360    5.7080   30.3880 N   0  0  0  0  0  0  0  0  0  0  0  0
   22.9780    4.9230   31.3030 C   0  0  0  0  0  3  0  0  0  0  0  0
   23.9570    4.1110   31.8250 C   0  0  0  0  0  0  0  0  0  0  0  0
   23.7700    2.7780   33.1790 Br  0  0  0  0  0  0  0  0  0  0  0  0
   25.1410    4.4250   31.1980 C   0  0  0  0  0  3  0  0  0  0  0  0
   24.8300    5.4010   30.3330 N   0  0  0  0  0  0  0  0  0  0  0  0
   18.8110   13.3170   33.1310 O   0  0  0  0  0  0  0  0  0  0  0  0
   17.4860   13.0490   32.7220 C   0  0  0  0  0  1  0  0  0  0  0  0
  1  2  1  0  0  0  0
  2  3  2  0  0  0  0
  2 15  1  0  0  0  0
  3 13  1  0  0  0  0
  4  3  1  0  0  0  0
  4 28  1  0  0  0  0
  5  4  2  0  0  0  0
  6  1  2  0  0  0  0
  6  5  1  0  0  0  0
  7  8  1  0  0  0  0
  7  6  1  0  0  0  0
  8  9  1  0  0  0  0
  9 10  1  0  0  0  0
 10  5  1  0  0  0  0
 10 11  2  0  0  0  0
 12  9  1  0  0  0  0
 14 13  1  0  0  0  0
 15 14  1  0  0  0  0
 16  1  1  0  0  0  0
 17 20  1  0  0  0  0
 17 16  1  0  0  0  0
 18 17  1  0  0  0  0
 19 18  2  0  0  0  0
 21 18  1  0  0  0  0
 21 22  1  0  0  0  0
 22 23  1  0  0  0  0
 23 24  2  0  0  0  0
 24 25  1  0  0  0  0
 26 24  1  0  0  0  0
 27 22  1  0  0  0  0
 27 26  2  0  0  0  0
 29 28  1  0  0  0  0
M  END
>  <Pose>
1

>  <Score>
-8.671

$$$$
