/Users/jonathanwahrer/Desktop/Msc/3_Semester/Drug_Design_Praktikum/waehrer_HTS_screening/HTS_experiment/out/docking_results/vina_output/3elj/0662_docked.pdbqt
 OpenBabel03192217463D

 25 29  0  0  0  0  0  0  0  0999 V2000
   21.8730    9.9850   31.8640 C   0  0  0  0  0  0  0  0  0  0  0  0
   23.0960   10.4790   31.6160 N   0  0  0  0  0  0  0  0  0  0  0  0
   23.0630   11.8120   31.6220 N   0  0  0  0  0  0  0  0  0  0  0  0
   21.7780   12.1870   31.8830 C   0  0  0  0  0  0  0  0  0  0  0  0
   21.0700   11.0490   32.0260 N   0  0  0  0  0  0  0  0  0  0  0  0
   21.4870   13.5330   31.9420 C   0  0  0  0  0  0  0  0  0  0  0  0
   22.4450   14.5120   31.7470 C   0  0  0  0  0  0  0  0  0  0  0  0
   21.8700   15.7210   31.8640 N   0  0  0  0  0  0  0  0  0  0  0  0
   20.5880   15.5200   32.1240 N   0  0  0  0  0  0  0  0  0  0  0  0
   20.3150   14.1990   32.1790 C   0  0  0  0  0  3  0  0  0  0  0  0
   23.6960   14.0960   31.4930 N   0  0  0  0  0  0  0  0  0  0  0  0
   23.9750   12.7840   31.4380 C   0  0  0  0  0  3  0  0  0  0  0  0
   22.3210   16.6560   31.7720 H   0  0  0  0  0  0  0  0  0  0  0  0
   21.5100    8.5710   31.9380 C   0  0  0  0  0  0  0  0  0  0  0  0
   21.9300    7.5630   31.1550 N   0  0  0  0  0  0  0  0  0  0  0  0
   21.3850    6.4160   31.5220 N   0  0  0  0  0  0  0  0  0  0  0  0
   20.5780    6.6320   32.5740 C   0  0  0  0  0  3  0  0  0  0  0  0
   20.6470    7.9940   32.8470 C   0  0  0  0  0  3  0  0  0  0  0  0
   21.6270    5.1200   30.8820 C   0  0  0  0  0  2  0  0  0  0  0  0
   22.9310    4.5940   31.2270 N   0  0  0  0  0  0  0  0  0  0  0  0
   24.0780    4.8160   30.5630 C   0  0  0  0  0  3  0  0  0  0  0  0
   25.0900    4.1380   31.2120 C   0  0  0  0  0  0  0  0  0  0  0  0
   26.9150    4.0920   30.7180 Br  0  0  0  0  0  0  0  0  0  0  0  0
   24.5090    3.5050   32.2870 C   0  0  0  0  0  3  0  0  0  0  0  0
   23.1910    3.8110   32.2580 N   0  0  0  0  0  0  0  0  0  0  0  0
  1 14  1  0  0  0  0
  1  5  1  0  0  0  0
  2  3  1  0  0  0  0
  2  1  2  0  0  0  0
  3  4  1  0  0  0  0
  4  6  1  0  0  0  0
  4  5  2  0  0  0  0
  6 10  1  0  0  0  0
  7  8  1  0  0  0  0
  7  6  2  0  0  0  0
  8  9  1  0  0  0  0
  9 10  2  0  0  0  0
 11  7  1  0  0  0  0
 12 11  2  0  0  0  0
 12  3  1  0  0  0  0
 13  8  1  0  0  0  0
 14 18  1  0  0  0  0
 15 16  1  0  0  0  0
 15 14  2  0  0  0  0
 16 17  1  0  0  0  0
 17 18  2  0  0  0  0
 19 20  1  0  0  0  0
 19 16  1  0  0  0  0
 20 25  1  0  0  0  0
 21 22  2  0  0  0  0
 21 20  1  0  0  0  0
 22 24  1  0  0  0  0
 23 22  1  0  0  0  0
 25 24  2  0  0  0  0
M  END
>  <Pose>
1

>  <Score>
-8.156

$$$$
