/Users/jonathanwahrer/Desktop/Msc/3_Semester/Drug_Design_Praktikum/waehrer_HTS_screening/HTS_experiment/out/docking_results/vina_output/3elj/0663_docked.pdbqt
 OpenBabel03192217463D

 28 31  0  0  1  0  0  0  0  0999 V2000
   26.3360    4.3560   30.2910 C   0  0  0  0  0  0  0  0  0  0  0  0
   27.2290    4.3620   31.2300 O   0  0  0  0  0  0  0  0  0  0  0  0
   26.7170    3.7550   29.1040 N   0  0  0  0  0  0  0  0  0  0  0  0
   25.9960    3.5130   27.8840 C   0  0  0  0  0  2  0  0  0  0  0  0
   26.4130    4.5880   26.8990 C   0  0  0  0  0  2  0  0  0  0  0  0
   27.8890    4.8960   27.0490 C   0  0  1  0  0  0  0  0  0  0  0  0
   28.4180    5.1110   25.7190 N   0  0  0  0  0  0  0  0  0  0  0  0
   28.1870    6.4690   25.3730 C   0  0  0  0  0  0  0  0  0  0  0  0
   28.1660    6.9890   24.2100 O   0  0  0  0  0  0  0  0  0  0  0  0
   27.9760    7.1770   26.6040 N   0  0  0  0  0  0  0  0  0  0  0  0
   28.0850    6.2160   27.6770 C   0  0  0  0  0  0  0  0  0  0  0  0
   28.3030    6.5160   28.8700 O   0  0  0  0  0  0  0  0  0  0  0  0
   28.6660    3.7950   27.6950 C   0  0  0  0  0  2  0  0  0  0  0  0
   28.1390    3.2980   28.9980 C   0  0  0  0  0  2  0  0  0  0  0  0
   28.8880    4.4270   25.0950 H   0  0  0  0  0  0  0  0  0  0  0  0
   27.7780    8.1900   26.7550 H   0  0  0  0  0  0  0  0  0  0  0  0
   25.0870    4.9860   30.6550 C   0  0  0  0  0  0  0  0  0  0  0  0
   24.0770    4.2130   31.2630 C   0  0  0  0  0  3  0  0  0  0  0  0
   22.8820    4.7440   31.6710 C   0  0  0  0  0  3  0  0  0  0  0  0
   22.5890    6.0770   31.5150 C   0  0  0  0  0  0  0  0  0  0  0  0
   23.5530    6.8500   30.9270 C   0  0  0  0  0  3  0  0  0  0  0  0
   24.7820    6.3180   30.5060 C   0  0  0  0  0  3  0  0  0  0  0  0
   21.3420    6.6000   31.9480 N   0  0  0  0  0  0  0  0  0  0  0  0
   21.0470    7.8540   32.3360 C   0  0  0  0  0  3  0  0  0  0  0  0
   19.7140    7.9260   32.6760 C   0  0  0  0  0  0  0  0  0  0  0  0
   18.7490    9.4710   33.2990 Br  0  0  0  0  0  0  0  0  0  0  0  0
   19.2170    6.6580   32.4750 C   0  0  0  0  0  3  0  0  0  0  0  0
   20.2270    5.9070   32.0420 N   0  0  0  0  0  0  0  0  0  0  0  0
  1 17  1  0  0  0  0
  1  2  2  0  0  0  0
  3  1  1  0  0  0  0
  4  3  1  0  0  0  0
  5  4  1  0  0  0  0
  6  5  1  6  0  0  0
  6 11  1  0  0  0  0
  6 13  1  0  0  0  0
  7  6  1  0  0  0  0
  8  7  1  0  0  0  0
  8 10  1  0  0  0  0
  9  8  2  0  0  0  0
 10 16  1  0  0  0  0
 10 11  1  0  0  0  0
 11 12  2  0  0  0  0
 13 14  1  0  0  0  0
 14  3  1  0  0  0  0
 15  7  1  0  0  0  0
 17 18  1  0  0  0  0
 18 19  2  0  0  0  0
 20 19  1  0  0  0  0
 20 23  1  0  0  0  0
 21 20  2  0  0  0  0
 22 17  2  0  0  0  0
 22 21  1  0  0  0  0
 23 28  1  0  0  0  0
 23 24  1  0  0  0  0
 24 25  2  0  0  0  0
 25 26  1  0  0  0  0
 27 25  1  0  0  0  0
 28 27  2  0  0  0  0
M  END
>  <Pose>
1

>  <Score>
-7.860

$$$$
