/Users/jonathanwahrer/Desktop/Msc/3_Semester/Drug_Design_Praktikum/waehrer_HTS_screening/HTS_experiment/out/docking_results/vina_output/3elj/0666_docked.pdbqt
 OpenBabel03192217463D

 28 31  0  0  0  0  0  0  0  0999 V2000
   22.8170   11.5640   30.0540 C   0  0  0  0  0  0  0  0  0  0  0  0
   22.2140   12.0630   31.0920 C   0  0  0  0  0  0  0  0  0  0  0  0
   21.6190   10.9360   31.8110 C   0  0  0  0  0  0  0  0  0  0  0  0
   20.9460   11.0550   32.8830 O   0  0  0  0  0  0  0  0  0  0  0  0
   21.8950    9.6950   31.1450 N   0  0  0  0  0  0  0  0  0  0  0  0
   22.6680   10.0890   30.0120 C   0  0  0  0  0  0  0  0  0  0  0  0
   23.1390    9.3190   29.1340 O   0  0  0  0  0  0  0  0  0  0  0  0
   23.5450   12.2320   29.0410 N   0  0  0  0  0  0  0  0  0  0  0  0
   23.1200   12.9880   28.5040 H   0  0  0  0  0  0  0  0  0  0  0  0
   24.8750   11.8200   28.7930 C   0  0  0  0  0  0  0  0  0  0  0  0
   25.4270   11.9130   27.5540 N   0  0  0  0  0  0  0  0  0  0  0  0
   26.6740   11.5230   27.2650 C   0  0  0  0  0  3  0  0  0  0  0  0
   27.4880   10.9920   28.2310 C   0  0  0  0  0  0  0  0  0  0  0  0
   29.2700   10.4150   27.8500 Br  0  0  0  0  0  0  0  0  0  0  0  0
   26.9940   10.8690   29.5090 C   0  0  0  0  0  3  0  0  0  0  0  0
   25.7150   11.2790   29.7730 C   0  0  0  0  0  3  0  0  0  0  0  0
   22.1280   13.4290   31.5030 N   0  0  0  0  0  0  0  0  0  0  0  0
   23.1560   13.9990   32.1570 C   0  0  0  0  0  2  0  0  0  0  0  0
   23.1010   15.3380   32.5820 C   0  0  0  0  0  3  0  0  0  0  0  0
   21.9720   16.0940   32.3300 C   0  0  0  0  0  3  0  0  0  0  0  0
   20.9320   15.4880   31.6580 C   0  0  0  0  0  3  0  0  0  0  0  0
   21.0270   14.1800   31.2600 C   0  0  0  0  0  3  0  0  0  0  0  0
   21.4810    8.3940   31.5300 C   0  0  0  0  0  0  0  0  0  0  0  0
   22.2640    7.2780   31.3840 C   0  0  0  0  0  3  0  0  0  0  0  0
   21.8260    6.0020   31.7940 C   0  0  0  0  0  3  0  0  0  0  0  0
   20.5820    5.8410   32.3610 C   0  0  0  0  0  3  0  0  0  0  0  0
   19.7950    6.9540   32.5100 C   0  0  0  0  0  3  0  0  0  0  0  0
   20.2450    8.2100   32.0980 C   0  0  0  0  0  3  0  0  0  0  0  0
  1  2  2  0  0  0  0
  2 17  1  0  0  0  0
  2  3  1  0  0  0  0
  3  4  2  0  0  0  0
  5 23  1  0  0  0  0
  5  3  1  0  0  0  0
  6  1  1  0  0  0  0
  6  5  1  0  0  0  0
  7  6  2  0  0  0  0
  8  1  1  0  0  0  0
  9  8  1  0  0  0  0
 10  8  1  0  0  0  0
 10 16  1  0  0  0  0
 11 10  2  0  0  0  0
 12 11  1  0  0  0  0
 12 13  2  0  0  0  0
 13 15  1  0  0  0  0
 14 13  1  0  0  0  0
 15 16  2  0  0  0  0
 17 18  1  0  0  0  0
 18 19  1  0  0  0  0
 20 19  2  0  0  0  0
 21 20  1  0  0  0  0
 22 17  1  0  0  0  0
 22 21  2  0  0  0  0
 23 28  1  0  0  0  0
 24 23  2  0  0  0  0
 24 25  1  0  0  0  0
 25 26  2  0  0  0  0
 26 27  1  0  0  0  0
 28 27  2  0  0  0  0
M  END
>  <Pose>
1

>  <Score>
-8.723

$$$$
