/Users/jonathanwahrer/Desktop/Msc/3_Semester/Drug_Design_Praktikum/waehrer_HTS_screening/HTS_experiment/out/docking_results/vina_output/3elj/0680_docked.pdbqt
 OpenBabel03192217473D

 24 27  0  0  1  0  0  0  0  0999 V2000
   23.0870    5.4160   30.9280 C   0  0  0  0  0  0  0  0  0  0  0  0
   21.8890    5.1090   30.5740 O   0  0  0  0  0  0  0  0  0  0  0  0
   23.4520    6.7740   30.8670 N   0  0  0  0  0  0  0  0  0  0  0  0
   24.5870    7.6090   31.1080 C   0  0  0  0  0  2  0  0  0  0  0  0
   24.0050    8.5810   30.0660 C   0  0  1  0  0  3  0  0  0  0  0  0
   22.7160    8.0060   30.5170 C   0  0  0  0  0  2  0  0  0  0  0  0
   24.2750    9.9510   30.4050 N   0  0  0  0  0  0  0  0  0  0  0  0
   24.4730   10.5270   31.7090 C   0  0  0  0  0  0  0  0  0  0  0  0
   24.8720    9.9030   32.7080 O   0  0  0  0  0  0  0  0  0  0  0  0
   24.1030   11.9780   31.5690 C   0  0  1  0  0  3  0  0  0  0  0  0
   24.6790   12.2670   30.2030 C   0  0  2  0  0  3  0  0  0  0  0  0
   22.6160   12.0570   31.6340 C   0  0  0  0  0  2  0  0  0  0  0  0
   24.0380   13.4780   29.5850 C   0  0  0  0  0  2  0  0  0  0  0  0
   24.3990   11.0170   29.4700 C   0  0  0  0  0  0  0  0  0  0  0  0
   22.5720   13.2610   29.4650 C   0  0  0  0  0  3  0  0  0  0  0  0
   21.9680   12.6030   30.4330 C   0  0  0  0  0  3  0  0  0  0  0  0
   24.2960   10.9610   28.2190 O   0  0  0  0  0  0  0  0  0  0  0  0
   23.9070    4.3040   31.3490 C   0  0  0  0  0  0  0  0  0  0  0  0
   25.0260    3.9230   30.5950 C   0  0  0  0  0  3  0  0  0  0  0  0
   25.8090    2.8930   30.9330 N   0  0  0  0  0  0  0  0  0  0  0  0
   25.5560    2.1540   32.0430 C   0  0  0  0  0  3  0  0  0  0  0  0
   24.4780    2.4580   32.8390 C   0  0  0  0  0  0  0  0  0  0  0  0
   24.1420    1.4060   34.3900 Br  0  0  0  0  0  0  0  0  0  0  0  0
   23.6830    3.5300   32.4640 C   0  0  0  0  0  3  0  0  0  0  0  0
  1 18  1  0  0  0  0
  2  1  2  0  0  0  0
  3  1  1  0  0  0  0
  3  4  1  0  0  0  0
  5  7  1  1  0  0  0
  5  6  1  0  0  0  0
  5  4  1  0  0  0  0
  6  3  1  0  0  0  0
  7  8  1  0  0  0  0
  8  9  2  0  0  0  0
 10 12  1  6  0  0  0
 10  8  1  0  0  0  0
 11 13  1  6  0  0  0
 11 10  1  0  0  0  0
 14 11  1  0  0  0  0
 14  7  1  0  0  0  0
 15 13  1  0  0  0  0
 15 16  2  0  0  0  0
 16 12  1  0  0  0  0
 17 14  2  0  0  0  0
 18 24  1  0  0  0  0
 19 20  1  0  0  0  0
 19 18  2  0  0  0  0
 20 21  2  0  0  0  0
 21 22  1  0  0  0  0
 22 23  1  0  0  0  0
 24 22  2  0  0  0  0
M  END
>  <Pose>
1

>  <Score>
-7.866

$$$$
