/Users/jonathanwahrer/Desktop/Msc/3_Semester/Drug_Design_Praktikum/waehrer_HTS_screening/HTS_experiment/out/docking_results/vina_output/3elj/0681_docked.pdbqt
 OpenBabel03192217473D

 25 28  0  0  1  0  0  0  0  0999 V2000
   22.4590   16.4190   30.0250 C   0  0  0  0  0  0  0  0  0  0  0  0
   22.1560   17.2980   30.8900 O   0  0  0  0  0  0  0  0  0  0  0  0
   22.3610   15.0680   30.3790 N   0  0  0  0  0  0  0  0  0  0  0  0
   22.5520   13.7540   29.8270 C   0  0  0  0  0  2  0  0  0  0  0  0
   21.9320   13.0820   31.0430 C   0  0  2  0  0  3  0  0  0  0  0  0
   21.9820   14.4460   31.6630 C   0  0  0  0  0  2  0  0  0  0  0  0
   22.6840   12.0910   31.6690 O   0  0  0  0  0  0  0  0  0  0  0  0
   22.3950   10.7420   31.6930 C   0  0  2  0  0  3  0  0  0  0  0  0
   23.1660    9.8900   31.0230 C   0  0  0  0  0  3  0  0  0  0  0  0
   22.9130    8.4550   31.0100 C   0  0  0  0  0  0  0  0  0  0  0  0
   23.7010    7.6360   30.3350 C   0  0  0  0  0  1  0  0  0  0  0  0
   21.7940    7.9780   31.7440 N   0  0  0  0  0  0  0  0  0  0  0  0
   20.9790    8.9220   32.4560 C   0  0  0  0  0  0  0  0  0  0  0  0
   21.6050    6.9620   31.7420 H   0  0  0  0  0  0  0  0  0  0  0  0
   21.2660   10.2320   32.4290 N   0  0  0  0  0  0  0  0  0  0  0  0
   19.8870    8.7640   33.2100 N   0  0  0  0  0  0  0  0  0  0  0  0
   20.3580   10.8860   33.1620 N   0  0  0  0  0  0  0  0  0  0  0  0
   19.5080    9.9710   33.6420 C   0  0  0  0  0  3  0  0  0  0  0  0
   22.8890   16.8690   28.7240 C   0  0  0  0  0  0  0  0  0  0  0  0
   23.6840   16.1820   27.8420 C   0  0  0  0  0  3  0  0  0  0  0  0
   24.0390   16.6770   26.6210 N   0  0  0  0  0  0  0  0  0  0  0  0
   23.6350   17.8770   26.1900 C   0  0  0  0  0  3  0  0  0  0  0  0
   22.8340   18.6150   27.0310 C   0  0  0  0  0  0  0  0  0  0  0  0
   22.2340   20.3440   26.4430 Br  0  0  0  0  0  0  0  0  0  0  0  0
   22.4690   18.1300   28.2610 C   0  0  0  0  0  3  0  0  0  0  0  0
  1  3  1  0  0  0  0
  1  2  2  0  0  0  0
  3  6  1  0  0  0  0
  4  3  1  0  0  0  0
  4  5  1  0  0  0  0
  5  6  1  0  0  0  0
  5  7  1  1  0  0  0
  8  7  1  6  0  0  0
  8 15  1  0  0  0  0
  9  8  1  0  0  0  0
 10  9  2  0  0  0  0
 10 12  1  0  0  0  0
 11 10  1  0  0  0  0
 12 13  1  0  0  0  0
 13 16  2  0  0  0  0
 14 12  1  0  0  0  0
 15 13  1  0  0  0  0
 15 17  1  0  0  0  0
 16 18  1  0  0  0  0
 17 18  2  0  0  0  0
 19  1  1  0  0  0  0
 20 19  2  0  0  0  0
 21 20  1  0  0  0  0
 22 21  2  0  0  0  0
 22 23  1  0  0  0  0
 23 25  2  0  0  0  0
 24 23  1  0  0  0  0
 25 19  1  0  0  0  0
M  END
>  <Pose>
1

>  <Score>
-8.897

$$$$
