/Users/jonathanwahrer/Desktop/Msc/3_Semester/Drug_Design_Praktikum/waehrer_HTS_screening/HTS_experiment/out/docking_results/vina_output/3elj/0684_docked.pdbqt
 OpenBabel03192217473D

 10 10  0  0  0  0  0  0  0  0999 V2000
   19.8520   11.8520   33.5230 Br  0  0  0  0  0  0  0  0  0  0  0  0
   20.6030   10.2490   32.8190 C   0  0  0  0  0  0  0  0  0  0  0  0
   21.7760   10.2460   32.0940 C   0  0  0  0  0  3  0  0  0  0  0  0
   22.3110    9.1180   31.5940 N   0  0  0  0  0  0  0  0  0  0  0  0
   21.6800    7.9540   31.8110 C   0  0  0  0  0  3  0  0  0  0  0  0
   20.5060    7.8730   32.5240 C   0  0  0  0  0  0  0  0  0  0  0  0
   19.9820    9.0370   33.0220 C   0  0  0  0  0  3  0  0  0  0  0  0
   19.8320    6.6000   32.7510 C   0  0  0  0  0  0  0  0  0  0  0  0
   20.4480    5.5270   32.5420 O   0  0  0  0  0  0  0  0  0  0  0  0
   18.5190    6.6210   33.1970 O   0  0  0  0  0  1  0  0  0  0  0  0
  2  7  1  0  0  0  0
  2  1  1  0  0  0  0
  3  2  2  0  0  0  0
  4  5  2  0  0  0  0
  4  3  1  0  0  0  0
  5  6  1  0  0  0  0
  6  8  1  0  0  0  0
  6  7  2  0  0  0  0
  8 10  1  0  0  0  0
  9  8  2  0  0  0  0
M  END
>  <Pose>
1

>  <Score>
-5.256

$$$$
