/Users/jonathanwahrer/Desktop/Msc/3_Semester/Drug_Design_Praktikum/waehrer_HTS_screening/HTS_experiment/out/docking_results/vina_output/3elj/0696_docked.pdbqt
 OpenBabel03192217483D

 28 31  0  0  1  0  0  0  0  0999 V2000
   20.1700    8.4810   32.2790 Br  0  0  0  0  0  0  0  0  0  0  0  0
   21.9880    8.5650   31.7380 C   0  0  0  0  0  0  0  0  0  0  0  0
   22.5860    9.8170   31.5430 C   0  0  0  0  0  0  0  0  0  0  0  0
   23.8880    9.9390   31.1640 C   0  0  0  0  0  0  0  0  0  0  0  0
   24.6310    8.7880   30.9670 C   0  0  0  0  0  3  0  0  0  0  0  0
   24.0450    7.5420   31.1580 C   0  0  0  0  0  0  0  0  0  0  0  0
   22.7300    7.4210   31.5420 C   0  0  0  0  0  3  0  0  0  0  0  0
   24.8110    6.2790   30.9570 C   0  0  0  0  0  1  0  0  0  0  0  0
   24.5140   11.2800   31.0040 C   0  0  1  0  0  3  0  0  0  0  0  0
   23.6190   12.3860   30.5720 C   0  0  0  0  0  0  0  0  0  0  0  0
   22.1310   11.9760   30.6840 C   0  0  0  0  0  2  0  0  0  0  0  0
   21.9190   11.0220   31.7120 O   0  0  0  0  0  0  0  0  0  0  0  0
   23.7600   12.7210   29.0990 C   0  0  0  0  0  2  0  0  0  0  0  0
   25.0420   13.2810   28.7280 N   0  0  0  0  0  4  0  0  0  0  0  0
   24.8370   14.5460   28.0220 C   0  0  0  0  0  2  0  0  0  0  0  0
   26.0310   14.7890   27.1750 C   0  0  0  0  0  2  0  0  0  0  0  0
   26.8000   13.5140   27.2550 C   0  0  0  0  0  2  0  0  0  0  0  0
   25.7070   12.5250   27.6800 C   0  0  0  0  0  2  0  0  0  0  0  0
   25.7210   13.3820   29.4960 H   0  0  0  0  0  0  0  0  0  0  0  0
   23.7190   13.5750   31.4510 C   0  0  0  0  0  2  0  0  0  0  0  0
   22.7360   14.4000   31.9300 N   0  0  0  0  0  4  0  0  0  0  0  0
   23.2250   15.1460   33.1120 C   0  0  0  0  0  2  0  0  0  0  0  0
   22.5800   16.4770   33.0690 C   0  0  0  0  0  2  0  0  0  0  0  0
   22.2200   16.7290   31.6550 C   0  0  0  0  0  2  0  0  0  0  0  0
   22.1250   15.3230   31.0650 C   0  0  0  0  0  2  0  0  0  0  0  0
   21.9320   13.8180   32.4340 H   0  0  0  0  0  0  0  0  0  0  0  0
   25.1050   11.4940   32.2800 O   0  0  0  0  0  0  0  0  0  0  0  0
   26.0060   11.8510   32.1960 H   0  0  0  0  0  0  0  0  0  0  0  0
  2  1  1  0  0  0  0
  3 12  1  0  0  0  0
  3  2  1  0  0  0  0
  4  3  2  0  0  0  0
  5  6  2  0  0  0  0
  5  4  1  0  0  0  0
  6  7  1  0  0  0  0
  7  2  2  0  0  0  0
  8  6  1  0  0  0  0
  9  4  1  0  0  0  0
  9 27  1  1  0  0  0
 10 11  1  0  0  0  0
 10  9  1  0  0  0  0
 10 20  1  0  0  0  0
 11 12  1  0  0  0  0
 13 10  1  0  0  0  0
 14 13  1  0  0  0  0
 14 19  1  0  0  0  0
 15 14  1  0  0  0  0
 16 17  1  0  0  0  0
 16 15  1  0  0  0  0
 17 18  1  0  0  0  0
 18 14  1  0  0  0  0
 20 21  1  0  0  0  0
 21 26  1  0  0  0  0
 21 22  1  0  0  0  0
 23 22  1  0  0  0  0
 24 23  1  0  0  0  0
 25 24  1  0  0  0  0
 25 21  1  0  0  0  0
 28 27  1  0  0  0  0
M  END
>  <Pose>
1

>  <Score>
-7.601

$$$$
