/Users/jonathanwahrer/Desktop/Msc/3_Semester/Drug_Design_Praktikum/waehrer_HTS_screening/HTS_experiment/out/docking_results/vina_output/3elj/0699_docked.pdbqt
 OpenBabel03192217483D

 32 35  0  0  1  0  0  0  0  0999 V2000
   25.3080    8.0330   29.8090 C   0  0  2  0  0  3  0  0  0  0  0  0
   24.7470    7.5750   31.1310 C   0  0  0  0  0  2  0  0  0  0  0  0
   23.4800    6.9620   30.9880 O   0  0  0  0  0  0  0  0  0  0  0  0
   22.3940    7.5660   31.6190 C   0  0  0  0  0  0  0  0  0  0  0  0
   21.1490    6.9690   31.6550 C   0  0  0  0  0  0  0  0  0  0  0  0
   20.9460    5.2770   30.8100 Br  0  0  0  0  0  0  0  0  0  0  0  0
   20.0600    7.5500   32.2750 C   0  0  0  0  0  0  0  0  0  0  0  0
   20.1780    8.7760   32.8960 C   0  0  0  0  0  0  0  0  0  0  0  0
   18.8150    6.9470   32.3080 C   0  0  0  0  0  3  0  0  0  0  0  0
   21.4190    9.3800   32.8650 C   0  0  0  0  0  3  0  0  0  0  0  0
   19.0860    9.3580   33.5180 C   0  0  0  0  0  3  0  0  0  0  0  0
   22.5020    8.7920   32.2430 C   0  0  0  0  0  3  0  0  0  0  0  0
   17.8450    8.7550   33.5500 C   0  0  0  0  0  3  0  0  0  0  0  0
   17.7260    7.5280   32.9280 C   0  0  0  0  0  3  0  0  0  0  0  0
   26.5300    7.4820   29.5230 O   0  0  0  0  0  0  0  0  0  0  0  0
   26.9390    6.9800   30.2520 H   0  0  0  0  0  0  0  0  0  0  0  0
   25.3220    9.5200   29.7240 C   0  0  0  0  0  2  0  0  0  0  0  0
   24.2350   10.1570   30.4330 N   0  0  0  0  0  4  0  0  0  0  0  0
   23.2700   10.5810   29.4340 C   0  0  0  0  0  2  0  0  0  0  0  0
   22.1890   11.4950   30.0290 C   0  0  0  0  0  2  0  0  0  0  0  0
   22.8190   12.6190   30.6240 N   0  0  0  0  0  0  0  0  0  0  0  0
   24.2960   12.5970   30.5810 C   0  0  0  0  0  2  0  0  0  0  0  0
   22.1540   13.6970   31.2180 C   0  0  0  0  0  0  0  0  0  0  0  0
   24.7630   11.3030   31.1590 C   0  0  0  0  0  2  0  0  0  0  0  0
   22.9760   14.6150   31.7000 O   0  0  0  0  0  0  0  0  0  0  0  0
   23.7410    9.5280   31.1010 H   0  0  0  0  0  0  0  0  0  0  0  0
   20.7690   13.9890   31.4030 C   0  0  0  0  0  0  0  0  0  0  0  0
   20.0360   14.9340   30.7440 C   0  0  0  0  0  3  0  0  0  0  0  0
   18.6870   15.1680   30.9730 C   0  0  0  0  0  3  0  0  0  0  0  0
   18.0160   14.4360   31.8990 C   0  0  0  0  0  3  0  0  0  0  0  0
   18.7290   13.4720   32.5820 C   0  0  0  0  0  3  0  0  0  0  0  0
   20.0620   13.2410   32.3570 C   0  0  0  0  0  3  0  0  0  0  0  0
  1 17  1  1  0  0  0
  1  2  1  0  0  0  0
  3  2  1  0  0  0  0
  3  4  1  0  0  0  0
  4  5  2  0  0  0  0
  4 12  1  0  0  0  0
  5  7  1  0  0  0  0
  6  5  1  0  0  0  0
  7  9  2  0  0  0  0
  7  8  1  0  0  0  0
  8 11  2  0  0  0  0
  9 14  1  0  0  0  0
 10  8  1  0  0  0  0
 11 13  1  0  0  0  0
 12 10  2  0  0  0  0
 14 13  2  0  0  0  0
 15  1  1  0  0  0  0
 15 16  1  0  0  0  0
 17 18  1  0  0  0  0
 18 26  1  0  0  0  0
 18 24  1  0  0  0  0
 19 20  1  0  0  0  0
 19 18  1  0  0  0  0
 20 21  1  0  0  0  0
 21 23  1  0  0  0  0
 22 21  1  0  0  0  0
 22 24  1  0  0  0  0
 23 27  1  0  0  0  0
 23 25  2  0  0  0  0
 27 32  1  0  0  0  0
 28 29  1  0  0  0  0
 28 27  2  0  0  0  0
 29 30  2  0  0  0  0
 30 31  1  0  0  0  0
 32 31  2  0  0  0  0
M  END
>  <Pose>
1

>  <Score>
-9.218

$$$$
