/Users/jonathanwahrer/Desktop/Msc/3_Semester/Drug_Design_Praktikum/waehrer_HTS_screening/HTS_experiment/out/docking_results/vina_output/3elj/0708_docked.pdbqt
 OpenBabel03192217493D

 31 34  0  0  0  0  0  0  0  0999 V2000
   22.9400   11.8010   30.8680 C   0  0  0  0  0  2  0  0  0  0  0  0
   23.3010   10.7180   31.8420 C   0  0  0  0  0  2  0  0  0  0  0  0
   22.3280    9.6480   31.9180 N   0  0  0  0  0  0  0  0  0  0  0  0
   22.5150    8.3850   31.4260 C   0  0  0  0  0  0  0  0  0  0  0  0
   24.1260    7.8370   30.5730 Br  0  0  0  0  0  0  0  0  0  0  0  0
   21.4220    7.6380   31.6390 N   0  0  0  0  0  0  0  0  0  0  0  0
   20.4950    8.3890   32.2720 C   0  0  0  0  0  0  0  0  0  0  0  0
   21.0820    9.6330   32.4330 C   0  0  0  0  0  0  0  0  0  0  0  0
   19.2530    8.0790   32.6830 N   0  0  0  0  0  0  0  0  0  0  0  0
   20.3470   10.6020   33.0450 C   0  0  0  0  0  0  0  0  0  0  0  0
   19.0890   10.2850   33.4600 N   0  0  0  0  0  0  0  0  0  0  0  0
   20.8240   11.7430   33.2130 O   0  0  0  0  0  0  0  0  0  0  0  0
   18.5580    9.0610   33.2840 C   0  0  0  0  0  0  0  0  0  0  0  0
   18.5630   11.0560   33.9240 H   0  0  0  0  0  0  0  0  0  0  0  0
   17.3730    8.8170   33.6940 O   0  0  0  0  0  0  0  0  0  0  0  0
   18.6490    6.7760   32.5120 C   0  0  0  0  0  1  0  0  0  0  0  0
   23.5690   13.1340   31.1520 C   0  0  0  0  0  2  0  0  0  0  0  0
   23.6920   13.9010   29.9200 N   0  0  0  0  0  0  0  0  0  0  0  0
   23.1760   15.1180   29.6330 C   0  0  0  0  0  0  0  0  0  0  0  0
   23.5250   15.4940   28.3560 C   0  0  0  0  0  0  0  0  0  0  0  0
   22.4080   15.9820   30.3670 C   0  0  0  0  0  0  0  0  0  0  0  0
   24.2640   14.4800   27.8700 N   0  0  0  0  0  0  0  0  0  0  0  0
   23.1530   16.6590   27.7940 N   0  0  0  0  0  0  0  0  0  0  0  0
   24.3600   13.5240   28.8180 C   0  0  0  0  0  0  0  0  0  0  0  0
   25.2930   11.8630   28.6770 Br  0  0  0  0  0  0  0  0  0  0  0  0
   22.3930   17.4830   28.5570 C   0  0  0  0  0  0  0  0  0  0  0  0
   23.5470   17.0160   26.4330 C   0  0  0  0  0  1  0  0  0  0  0  0
   22.0420   18.5830   28.0310 O   0  0  0  0  0  0  0  0  0  0  0  0
   22.0300   17.1530   29.8140 N   0  0  0  0  0  0  0  0  0  0  0  0
   21.4480   17.8250   30.3520 H   0  0  0  0  0  0  0  0  0  0  0  0
   22.0870   15.6460   31.5330 O   0  0  0  0  0  0  0  0  0  0  0  0
  1 17  1  0  0  0  0
  1  2  1  0  0  0  0
  2  3  1  0  0  0  0
  3  8  1  0  0  0  0
  4  6  2  0  0  0  0
  4  3  1  0  0  0  0
  5  4  1  0  0  0  0
  6  7  1  0  0  0  0
  7  8  2  0  0  0  0
  7  9  1  0  0  0  0
  8 10  1  0  0  0  0
  9 13  1  0  0  0  0
 10 12  2  0  0  0  0
 10 11  1  0  0  0  0
 11 14  1  0  0  0  0
 13 11  1  0  0  0  0
 13 15  2  0  0  0  0
 16  9  1  0  0  0  0
 18 17  1  0  0  0  0
 19 18  1  0  0  0  0
 19 21  1  0  0  0  0
 20 19  2  0  0  0  0
 21 31  2  0  0  0  0
 22 20  1  0  0  0  0
 22 24  2  0  0  0  0
 23 20  1  0  0  0  0
 23 26  1  0  0  0  0
 24 18  1  0  0  0  0
 25 24  1  0  0  0  0
 26 29  1  0  0  0  0
 27 23  1  0  0  0  0
 28 26  2  0  0  0  0
 29 30  1  0  0  0  0
 29 21  1  0  0  0  0
M  END
>  <Pose>
1

>  <Score>
-9.148

$$$$
