/Users/jonathanwahrer/Desktop/Msc/3_Semester/Drug_Design_Praktikum/waehrer_HTS_screening/HTS_experiment/out/docking_results/vina_output/3elj/0727_docked.pdbqt
 OpenBabel03192217493D

 21 24  0  0  0  0  0  0  0  0999 V2000
   21.2660   15.9290   31.6280 Br  0  0  0  0  0  0  0  0  0  0  0  0
   22.1760   16.4200   30.0300 C   0  0  0  0  0  0  0  0  0  0  0  0
   22.1070   17.6350   29.4110 N   0  0  0  0  0  0  0  0  0  0  0  0
   22.8820   17.6110   28.3530 N   0  0  0  0  0  0  0  0  0  0  0  0
   23.4720   16.4100   28.2440 C   0  0  0  0  0  0  0  0  0  0  0  0
   24.3440   15.8770   27.3730 N   0  0  0  0  0  0  0  0  0  0  0  0
   24.7940   14.6320   27.5010 C   0  0  0  0  0  3  0  0  0  0  0  0
   24.3780   13.8810   28.5150 N   0  0  0  0  0  0  0  0  0  0  0  0
   23.4870   14.3260   29.4630 C   0  0  0  0  0  0  0  0  0  0  0  0
   23.0350   15.6130   29.3160 C   0  0  0  0  0  0  0  0  0  0  0  0
   23.1250   18.6900   27.3830 C   0  0  0  0  0  1  0  0  0  0  0  0
   23.0490   13.4860   30.4870 N   0  0  0  0  0  0  0  0  0  0  0  0
   21.7490   12.8550   30.4350 C   0  0  0  0  0  2  0  0  0  0  0  0
   21.9810   11.3550   30.1560 C   0  0  0  0  0  2  0  0  0  0  0  0
   23.1880   10.9050   30.8830 C   0  0  0  0  0  0  0  0  0  0  0  0
   23.6410    9.6350   30.9970 N   0  0  0  0  0  0  0  0  0  0  0  0
   24.0640   11.6860   31.5740 C   0  0  0  0  0  0  0  0  0  0  0  0
   24.7610    9.6640   31.7390 C   0  0  0  0  0  3  0  0  0  0  0  0
   23.0710    8.4320   30.4470 C   0  0  0  0  0  1  0  0  0  0  0  0
   25.0390   10.9150   32.1030 N   0  0  0  0  0  0  0  0  0  0  0  0
   23.8440   13.1510   31.6410 C   0  0  0  0  0  2  0  0  0  0  0  0
  2  1  1  0  0  0  0
  3  2  2  0  0  0  0
  4  3  1  0  0  0  0
  5  4  1  0  0  0  0
  5 10  1  0  0  0  0
  6  7  1  0  0  0  0
  6  5  2  0  0  0  0
  7  8  2  0  0  0  0
  8  9  1  0  0  0  0
  9 12  1  0  0  0  0
 10  9  2  0  0  0  0
 10  2  1  0  0  0  0
 11  4  1  0  0  0  0
 12 21  1  0  0  0  0
 13 12  1  0  0  0  0
 14 13  1  0  0  0  0
 14 15  1  0  0  0  0
 15 16  1  0  0  0  0
 15 17  2  0  0  0  0
 16 18  1  0  0  0  0
 17 21  1  0  0  0  0
 17 20  1  0  0  0  0
 18 20  2  0  0  0  0
 19 16  1  0  0  0  0
M  END
>  <Pose>
1

>  <Score>
-7.099

$$$$
