/Users/jonathanwahrer/Desktop/Msc/3_Semester/Drug_Design_Praktikum/waehrer_HTS_screening/HTS_experiment/out/docking_results/vina_output/3elj/0729_docked.pdbqt
 OpenBabel03192217493D

 27 30  0  0  1  0  0  0  0  0999 V2000
   23.6300   10.7050   30.5040 N   0  0  0  0  0  0  0  0  0  0  0  0
   23.3190    9.8830   29.3690 C   0  0  0  0  0  2  0  0  0  0  0  0
   22.5860    8.6690   29.9460 C   0  0  0  0  0  2  0  0  0  0  0  0
   22.8710    8.5190   31.3780 N   0  0  0  0  0  0  0  0  0  0  0  0
   24.3000    8.7390   31.6180 C   0  0  0  0  0  2  0  0  0  0  0  0
   24.6450   10.2000   31.3960 C   0  0  0  0  0  2  0  0  0  0  0  0
   22.9620   11.9100   30.7450 C   0  0  0  0  0  0  0  0  0  0  0  0
   21.9790   11.9970   31.6720 N   0  0  0  0  0  0  0  0  0  0  0  0
   21.3050   13.1180   31.9010 C   0  0  0  0  0  3  0  0  0  0  0  0
   21.5970   14.2110   31.1910 N   0  0  0  0  0  0  0  0  0  0  0  0
   22.5560   14.2230   30.2490 C   0  0  0  0  0  0  0  0  0  0  0  0
   23.0290   15.1820   29.4290 N   0  0  0  0  0  0  0  0  0  0  0  0
   23.2650   13.0500   30.0090 C   0  0  0  0  0  0  0  0  0  0  0  0
   23.9810   14.6480   28.7130 N   0  0  0  0  0  0  0  0  0  0  0  0
   22.5060   16.5410   29.4190 C   0  0  0  0  0  1  0  0  0  0  0  0
   24.1730   13.3530   29.0210 C   0  0  0  0  0  0  0  0  0  0  0  0
   25.4370   12.1420   28.2930 Br  0  0  0  0  0  0  0  0  0  0  0  0
   22.5600    7.1390   31.7160 C   0  0  2  0  0  3  0  0  0  0  0  0
   23.1650    6.2550   30.5900 C   0  0  0  0  0  1  0  0  0  0  0  0
   21.1040    6.9140   31.7530 C   0  0  0  0  0  0  0  0  0  0  0  0
   20.7590    5.7050   31.4150 O   0  0  0  0  0  0  0  0  0  0  0  0
   20.0830    7.8160   32.0910 N   0  0  0  0  0  0  0  0  0  0  0  0
   20.1960    9.1960   32.4580 C   0  0  0  0  0  2  0  0  0  0  0  0
   18.6960    7.2980   32.0600 C   0  0  0  0  0  2  0  0  0  0  0  0
   19.3620    9.5920   33.6580 C   0  0  0  0  0  2  0  0  0  0  0  0
   18.0550    8.8850   33.7630 C   0  0  0  0  0  2  0  0  0  0  0  0
   18.1750    7.4050   33.4690 C   0  0  0  0  0  2  0  0  0  0  0  0
  1  7  1  0  0  0  0
  1  6  1  0  0  0  0
  2  3  1  0  0  0  0
  2  1  1  0  0  0  0
  3  4  1  0  0  0  0
  4  5  1  0  0  0  0
  4 18  1  0  0  0  0
  6  5  1  0  0  0  0
  7  8  1  0  0  0  0
  8  9  2  0  0  0  0
 10  9  1  0  0  0  0
 11 10  2  0  0  0  0
 12 11  1  0  0  0  0
 13 11  1  0  0  0  0
 13  7  2  0  0  0  0
 14 16  2  0  0  0  0
 14 12  1  0  0  0  0
 15 12  1  0  0  0  0
 16 13  1  0  0  0  0
 17 16  1  0  0  0  0
 18 19  1  6  0  0  0
 18 20  1  0  0  0  0
 20 22  1  0  0  0  0
 21 20  2  0  0  0  0
 22 23  1  0  0  0  0
 23 25  1  0  0  0  0
 24 22  1  0  0  0  0
 24 27  1  0  0  0  0
 25 26  1  0  0  0  0
 27 26  1  0  0  0  0
M  END
>  <Pose>
1

>  <Score>
-8.333

$$$$
