/Users/jonathanwahrer/Desktop/Msc/3_Semester/Drug_Design_Praktikum/waehrer_HTS_screening/HTS_experiment/out/docking_results/vina_output/3elj/0737_docked.pdbqt
 OpenBabel03192217493D

 21 24  0  0  1  0  0  0  0  0999 V2000
   23.5580    4.9450   31.2140 C   0  0  2  0  0  3  0  0  0  0  0  0
   23.6610    3.9990   32.1200 C   0  0  0  0  0  3  0  0  0  0  0  0
   24.6720    2.9360   32.0160 C   0  0  0  0  0  0  0  0  0  0  0  0
   24.7870    1.9780   32.9180 C   0  0  0  0  0  1  0  0  0  0  0  0
   25.5150    3.0100   30.8760 N   0  0  0  0  0  0  0  0  0  0  0  0
   25.3870    4.0510   29.8980 C   0  0  0  0  0  0  0  0  0  0  0  0
   24.4180    4.9840   30.0930 N   0  0  0  0  0  0  0  0  0  0  0  0
   24.5130    5.8240   29.0560 N   0  0  0  0  0  0  0  0  0  0  0  0
   25.4970    5.4550   28.2240 C   0  0  0  0  0  3  0  0  0  0  0  0
   26.0370    4.3470   28.7590 N   0  0  0  0  0  0  0  0  0  0  0  0
   26.2520    2.2840   30.7450 H   0  0  0  0  0  0  0  0  0  0  0  0
   22.5720    5.9400   31.3640 N   0  0  2  0  0  0  0  0  0  0  0  0
   21.1890    5.5300   31.3300 C   0  0  0  0  0  2  0  0  0  0  0  0
   20.3400    6.5080   32.0730 C   0  0  0  0  0  0  0  0  0  0  0  0
   20.6800    7.7940   32.1340 N   0  0  0  0  0  0  0  0  0  0  0  0
   19.1810    6.3680   32.7690 N   0  0  0  0  0  0  0  0  0  0  0  0
   19.7680    8.4640   32.8480 C   0  0  0  0  0  0  0  0  0  0  0  0
   21.8770    8.2950   31.4890 C   0  0  0  0  0  2  0  0  0  0  0  0
   19.7310   10.3340   33.2710 Br  0  0  0  0  0  0  0  0  0  0  0  0
   18.8070    7.5630   33.2590 C   0  0  0  0  0  3  0  0  0  0  0  0
   23.0040    7.3060   31.5400 C   0  0  0  0  0  2  0  0  0  0  0  0
  1 12  1  0  0  0  0
  1  2  1  1  0  0  0
  3  2  2  0  0  0  0
  3  4  1  0  0  0  0
  5  3  1  0  0  0  0
  6  7  1  0  0  0  0
  6  5  1  0  0  0  0
  7  1  1  0  0  0  0
  8  7  1  0  0  0  0
  9 10  1  0  0  0  0
  9  8  2  0  0  0  0
 10  6  2  0  0  0  0
 11  5  1  0  0  0  0
 12 13  1  6  0  0  0
 12 21  1  0  0  0  0
 13 14  1  0  0  0  0
 14 15  1  0  0  0  0
 14 16  2  0  0  0  0
 15 17  1  0  0  0  0
 16 20  1  0  0  0  0
 17 20  2  0  0  0  0
 17 19  1  0  0  0  0
 18 21  1  0  0  0  0
 18 15  1  0  0  0  0
M  END
>  <Pose>
1

>  <Score>
-7.593

$$$$
