/Users/jonathanwahrer/Desktop/Msc/3_Semester/Drug_Design_Praktikum/waehrer_HTS_screening/HTS_experiment/out/docking_results/vina_output/3elj/0743_docked.pdbqt
 OpenBabel03192217503D

 30 33  0  0  1  0  0  0  0  0999 V2000
   20.5030    8.8870   32.5780 C   0  0  0  0  0  0  0  0  0  0  0  0
   19.4880    8.1940   32.2310 O   0  0  0  0  0  0  0  0  0  0  0  0
   21.7570    8.6930   31.9380 N   0  0  0  0  0  0  0  0  0  0  0  0
   21.8780    7.7120   30.8950 C   0  0  0  0  0  2  0  0  0  0  0  0
   22.8610    8.0750   29.8250 C   0  0  0  0  0  2  0  0  0  0  0  0
   23.9180    9.0370   30.2820 C   0  0  1  0  0  0  0  0  0  0  0  0
   25.1320    8.8450   29.5470 N   0  0  0  0  0  0  0  0  0  0  0  0
   26.2040    9.6910   29.9490 C   0  0  0  0  0  2  0  0  0  0  0  0
   25.8400   11.1200   30.1830 C   0  0  0  0  0  2  0  0  0  0  0  0
   24.4000   11.4000   29.9550 C   0  0  0  0  0  0  0  0  0  0  0  0
   23.7490   12.5340   29.6870 N   0  0  0  0  0  0  0  0  0  0  0  0
   22.4400   12.2750   29.5640 C   0  0  0  0  0  3  0  0  0  0  0  0
   22.2390   10.9640   29.7540 N   0  0  0  0  0  0  0  0  0  0  0  0
   23.4380   10.4200   29.9950 C   0  0  0  0  0  0  0  0  0  0  0  0
   24.1110    8.9270   31.7860 C   0  0  0  0  0  2  0  0  0  0  0  0
   22.8620    9.5280   32.3970 C   0  0  0  0  0  2  0  0  0  0  0  0
   25.4270    7.8510   29.6620 H   0  0  0  0  0  0  0  0  0  0  0  0
   21.3020   10.4470   29.7200 H   0  0  0  0  0  0  0  0  0  0  0  0
   20.2930    9.8690   33.6530 C   0  0  0  0  0  2  0  0  0  0  0  0
   19.6110   11.1180   33.1850 C   0  0  0  0  0  2  0  0  0  0  0  0
   20.5190   12.1510   32.7930 N   0  0  0  0  0  0  0  0  0  0  0  0
   20.0900   13.4720   32.4940 C   0  0  0  0  0  0  0  0  0  0  0  0
   18.8520   13.7240   32.5830 O   0  0  0  0  0  0  0  0  0  0  0  0
   21.5330   11.9410   32.7210 H   0  0  0  0  0  0  0  0  0  0  0  0
   20.9860   14.5300   32.0980 C   0  0  0  0  0  0  0  0  0  0  0  0
   21.0670   15.0800   30.9330 O   0  0  0  0  0  0  0  0  0  0  0  0
   21.9740   16.0100   30.8840 C   0  0  0  0  0  0  0  0  0  0  0  0
   22.4860   17.1200   29.3980 Br  0  0  0  0  0  0  0  0  0  0  0  0
   22.5480   16.0810   32.1330 C   0  0  0  0  0  3  0  0  0  0  0  0
   21.9310   15.1410   32.9310 C   0  0  0  0  0  3  0  0  0  0  0  0
  1 19  1  0  0  0  0
  2  1  2  0  0  0  0
  3 16  1  0  0  0  0
  3  1  1  0  0  0  0
  4  3  1  0  0  0  0
  5  4  1  0  0  0  0
  6  5  1  6  0  0  0
  6 15  1  0  0  0  0
  7 17  1  0  0  0  0
  7  8  1  0  0  0  0
  7  6  1  0  0  0  0
  8  9  1  0  0  0  0
 10 14  2  0  0  0  0
 10  9  1  0  0  0  0
 11 10  1  0  0  0  0
 12 11  2  0  0  0  0
 12 13  1  0  0  0  0
 13 14  1  0  0  0  0
 14  6  1  0  0  0  0
 15 16  1  0  0  0  0
 18 13  1  0  0  0  0
 20 19  1  0  0  0  0
 21 20  1  0  0  0  0
 22 23  2  0  0  0  0
 22 21  1  0  0  0  0
 24 21  1  0  0  0  0
 25 22  1  0  0  0  0
 25 30  2  0  0  0  0
 26 25  1  0  0  0  0
 27 26  1  0  0  0  0
 27 29  2  0  0  0  0
 28 27  1  0  0  0  0
 29 30  1  0  0  0  0
M  END
>  <Pose>
1

>  <Score>
-7.676

$$$$
