/Users/jonathanwahrer/Desktop/Msc/3_Semester/Drug_Design_Praktikum/waehrer_HTS_screening/HTS_experiment/out/docking_results/vina_output/3elj/0746_docked.pdbqt
 OpenBabel03192217503D

 30 33  0  0  1  0  0  0  0  0999 V2000
   22.4880    8.5800   32.0270 C   0  0  0  0  0  0  0  0  0  0  0  0
   21.9510    8.7930   33.1700 O   0  0  0  0  0  0  0  0  0  0  0  0
   23.4970    9.4630   31.6260 N   0  0  0  0  0  0  0  0  0  0  0  0
   24.1940    9.3390   30.3620 C   0  0  0  0  0  2  0  0  0  0  0  0
   23.9200   10.5750   29.5620 C   0  0  0  0  0  2  0  0  0  0  0  0
   24.2180   11.8230   30.3310 C   0  0  1  0  0  0  0  0  0  0  0  0
   25.1780   12.6100   29.5760 N   0  0  0  0  0  0  0  0  0  0  0  0
   24.5360   13.0360   28.3470 C   0  0  0  0  0  2  0  0  0  0  0  0
   23.6950   14.2650   28.7110 C   0  0  0  0  0  2  0  0  0  0  0  0
   22.7710   13.8170   29.7800 C   0  0  0  0  0  0  0  0  0  0  0  0
   21.6150   14.3670   30.2000 N   0  0  0  0  0  0  0  0  0  0  0  0
   21.1440   13.5950   31.1920 C   0  0  0  0  0  3  0  0  0  0  0  0
   22.0070   12.5800   31.3780 N   0  0  0  0  0  0  0  0  0  0  0  0
   23.0310   12.6870   30.5150 C   0  0  0  0  0  0  0  0  0  0  0  0
   24.8390   11.4600   31.6800 C   0  0  0  0  0  2  0  0  0  0  0  0
   23.9260   10.5710   32.4600 C   0  0  0  0  0  2  0  0  0  0  0  0
   26.0070   12.0210   29.2820 H   0  0  0  0  0  0  0  0  0  0  0  0
   21.1260   15.2310   29.8560 H   0  0  0  0  0  0  0  0  0  0  0  0
   21.9690    7.4230   31.2790 C   0  0  2  0  0  3  0  0  0  0  0  0
   20.6190    6.9540   31.6870 C   0  0  0  0  0  1  0  0  0  0  0  0
   22.8830    6.2980   31.3060 N   0  0  0  0  0  0  0  0  0  0  0  0
   23.6250    5.8770   30.1880 C   0  0  0  0  0  0  0  0  0  0  0  0
   23.5070    6.4860   29.1050 O   0  0  0  0  0  0  0  0  0  0  0  0
   22.9880    5.7830   32.2040 H   0  0  0  0  0  0  0  0  0  0  0  0
   24.5260    4.7390   30.2810 C   0  0  0  0  0  0  0  0  0  0  0  0
   25.2400    4.2470   29.2670 O   0  0  0  0  0  0  0  0  0  0  0  0
   25.9520    3.2240   29.6630 C   0  0  0  0  0  0  0  0  0  0  0  0
   27.1400    2.1890   28.5560 Br  0  0  0  0  0  0  0  0  0  0  0  0
   25.7200    3.0010   31.0110 C   0  0  0  0  0  3  0  0  0  0  0  0
   24.8180    3.9650   31.3820 C   0  0  0  0  0  3  0  0  0  0  0  0
  1  2  2  0  0  0  0
  3  1  1  0  0  0  0
  3 16  1  0  0  0  0
  4  3  1  0  0  0  0
  5  4  1  0  0  0  0
  6  5  1  6  0  0  0
  6 14  1  0  0  0  0
  6 15  1  0  0  0  0
  7  6  1  0  0  0  0
  8  9  1  0  0  0  0
  8  7  1  0  0  0  0
  9 10  1  0  0  0  0
 10 11  1  0  0  0  0
 10 14  2  0  0  0  0
 11 12  1  0  0  0  0
 12 13  2  0  0  0  0
 14 13  1  0  0  0  0
 15 16  1  0  0  0  0
 17  7  1  0  0  0  0
 18 11  1  0  0  0  0
 19 21  1  0  0  0  0
 19 20  1  1  0  0  0
 19  1  1  0  0  0  0
 21 24  1  0  0  0  0
 22 25  1  0  0  0  0
 22 21  1  0  0  0  0
 23 22  2  0  0  0  0
 25 30  2  0  0  0  0
 26 27  1  0  0  0  0
 26 25  1  0  0  0  0
 27 29  2  0  0  0  0
 28 27  1  0  0  0  0
 29 30  1  0  0  0  0
M  END
>  <Pose>
1

>  <Score>
-7.296

$$$$
