/Users/jonathanwahrer/Desktop/Msc/3_Semester/Drug_Design_Praktikum/waehrer_HTS_screening/HTS_experiment/out/docking_results/vina_output/3elj/0754_docked.pdbqt
 OpenBabel03192217503D

 27 30  0  0  0  0  0  0  0  0999 V2000
   23.0310   13.2230   29.8650 C   0  0  0  0  0  0  0  0  0  0  0  0
   23.0570   13.4110   28.6400 O   0  0  0  0  0  0  0  0  0  0  0  0
   24.0570   12.4660   30.4830 N   0  0  0  0  0  0  0  0  0  0  0  0
   25.1310   11.9170   29.6810 C   0  0  0  0  0  2  0  0  0  0  0  0
   25.1900   10.4110   29.7600 C   0  0  0  0  0  2  0  0  0  0  0  0
   24.6670   10.0440   31.0860 N   0  0  0  0  0  0  0  0  0  0  0  0
   24.9810   10.9340   32.1510 C   0  0  0  0  0  2  0  0  0  0  0  0
   24.1190   12.1870   31.9050 C   0  0  0  0  0  2  0  0  0  0  0  0
   23.9120    8.8490   31.1670 C   0  0  0  0  0  0  0  0  0  0  0  0
   22.7280    8.7990   31.8390 N   0  0  0  0  0  0  0  0  0  0  0  0
   22.0030    7.6730   31.9250 C   0  0  0  0  0  0  0  0  0  0  0  0
   22.4400    6.5390   31.3350 N   0  0  0  0  0  0  0  0  0  0  0  0
   23.5950    6.4940   30.6500 C   0  0  0  0  0  0  0  0  0  0  0  0
   24.3280    7.6890   30.5810 C   0  0  0  0  0  3  0  0  0  0  0  0
   24.0950    5.2570   29.9910 C   0  0  0  0  0  1  0  0  0  0  0  0
   20.7770    7.6720   32.6360 N   0  0  0  0  0  0  0  0  0  0  0  0
   20.3370    8.7740   33.4560 C   0  0  0  0  0  2  0  0  0  0  0  0
   18.9530    9.1910   33.0580 C   0  0  0  0  0  2  0  0  0  0  0  0
   18.3430    8.2940   32.1830 O   0  0  0  0  0  0  0  0  0  0  0  0
   18.4790    6.9880   32.6440 C   0  0  0  0  0  2  0  0  0  0  0  0
   19.9090    6.5170   32.5470 C   0  0  0  0  0  2  0  0  0  0  0  0
   21.9230   13.8010   30.6470 C   0  0  0  0  0  0  0  0  0  0  0  0
   20.8280   13.2240   31.0400 O   0  0  0  0  0  0  0  0  0  0  0  0
   20.0740   14.0220   31.7050 C   0  0  0  0  0  0  0  0  0  0  0  0
   18.3510   13.6530   32.5010 Br  0  0  0  0  0  0  0  0  0  0  0  0
   20.6970   15.2440   31.7750 C   0  0  0  0  0  3  0  0  0  0  0  0
   21.8800   15.1000   31.0970 C   0  0  0  0  0  3  0  0  0  0  0  0
  1  3  1  0  0  0  0
  1 22  1  0  0  0  0
  2  1  2  0  0  0  0
  3  8  1  0  0  0  0
  4  5  1  0  0  0  0
  4  3  1  0  0  0  0
  5  6  1  0  0  0  0
  6  9  1  0  0  0  0
  6  7  1  0  0  0  0
  8  7  1  0  0  0  0
  9 10  1  0  0  0  0
 10 11  2  0  0  0  0
 11 16  1  0  0  0  0
 12 11  1  0  0  0  0
 13 12  2  0  0  0  0
 14 13  1  0  0  0  0
 14  9  2  0  0  0  0
 15 13  1  0  0  0  0
 16 17  1  0  0  0  0
 18 17  1  0  0  0  0
 19 20  1  0  0  0  0
 19 18  1  0  0  0  0
 21 16  1  0  0  0  0
 21 20  1  0  0  0  0
 22 23  1  0  0  0  0
 22 27  2  0  0  0  0
 23 24  1  0  0  0  0
 24 26  2  0  0  0  0
 24 25  1  0  0  0  0
 27 26  1  0  0  0  0
M  END
>  <Pose>
1

>  <Score>
-7.545

$$$$
