/Users/jonathanwahrer/Desktop/Msc/3_Semester/Drug_Design_Praktikum/waehrer_HTS_screening/HTS_experiment/out/docking_results/vina_output/3elj/0755_docked.pdbqt
 OpenBabel03192217503D

 28 31  0  0  0  0  0  0  0  0999 V2000
   23.4340   12.9000   31.4960 C   0  0  0  0  0  0  0  0  0  0  0  0
   24.3830   13.4750   32.0500 O   0  0  0  0  0  0  0  0  0  0  0  0
   23.6330   11.6960   30.7700 N   0  0  0  0  0  0  0  0  0  0  0  0
   22.5090   11.0260   30.1200 C   0  0  0  0  0  2  0  0  0  0  0  0
   22.9830    9.7280   29.4700 C   0  0  0  0  0  2  0  0  0  0  0  0
   23.7390    8.9980   30.4690 N   0  0  0  0  0  0  0  0  0  0  0  0
   24.8790    9.6340   31.0710 C   0  0  0  0  0  2  0  0  0  0  0  0
   24.9350   11.0750   30.6350 C   0  0  0  0  0  2  0  0  0  0  0  0
   23.3720    7.6680   30.8590 C   0  0  0  0  0  0  0  0  0  0  0  0
   22.1210    7.3650   31.2330 N   0  0  0  0  0  0  0  0  0  0  0  0
   21.8090    6.1150   31.5940 C   0  0  0  0  0  0  0  0  0  0  0  0
   22.7250    5.1270   31.5960 N   0  0  0  0  0  0  0  0  0  0  0  0
   20.4210    5.7890   32.0060 C   0  0  0  0  0  1  0  0  0  0  0  0
   23.9970    5.3640   31.2310 C   0  0  0  0  0  0  0  0  0  0  0  0
   24.2990    6.6580   30.8630 C   0  0  0  0  0  3  0  0  0  0  0  0
   24.9960    4.3590   31.2160 N   0  0  0  0  0  0  0  0  0  0  0  0
   24.8580    3.1780   32.0430 C   0  0  0  0  0  2  0  0  0  0  0  0
   25.8980    2.1800   31.5780 C   0  0  0  0  0  2  0  0  0  0  0  0
   27.2040    2.7500   31.7680 N   0  0  0  0  0  0  0  0  0  0  0  0
   27.3550    4.0880   31.2890 C   0  0  0  0  0  2  0  0  0  0  0  0
   27.6370    2.5470   33.1270 C   0  0  0  0  0  1  0  0  0  0  0  0
   26.1880    4.4480   30.3950 C   0  0  0  0  0  2  0  0  0  0  0  0
   22.0720   13.4740   31.5920 C   0  0  0  0  0  0  0  0  0  0  0  0
   21.0260   12.9210   32.1540 O   0  0  0  0  0  0  0  0  0  0  0  0
   19.9620   13.6800   32.0770 C   0  0  0  0  0  0  0  0  0  0  0  0
   18.2320   13.2540   32.7660 Br  0  0  0  0  0  0  0  0  0  0  0  0
   20.3220   14.8310   31.4090 C   0  0  0  0  0  3  0  0  0  0  0  0
   21.6530   14.6910   31.1090 C   0  0  0  0  0  3  0  0  0  0  0  0
  1 23  1  0  0  0  0
  1  2  2  0  0  0  0
  3  1  1  0  0  0  0
  4  3  1  0  0  0  0
  5  4  1  0  0  0  0
  5  6  1  0  0  0  0
  6  9  1  0  0  0  0
  6  7  1  0  0  0  0
  8  3  1  0  0  0  0
  8  7  1  0  0  0  0
  9 15  2  0  0  0  0
  9 10  1  0  0  0  0
 10 11  2  0  0  0  0
 11 12  1  0  0  0  0
 11 13  1  0  0  0  0
 14 12  2  0  0  0  0
 15 14  1  0  0  0  0
 16 14  1  0  0  0  0
 16 17  1  0  0  0  0
 18 19  1  0  0  0  0
 18 17  1  0  0  0  0
 19 21  1  0  0  0  0
 20 19  1  0  0  0  0
 22 16  1  0  0  0  0
 22 20  1  0  0  0  0
 23 24  1  0  0  0  0
 25 24  1  0  0  0  0
 25 26  1  0  0  0  0
 27 25  2  0  0  0  0
 28 27  1  0  0  0  0
 28 23  2  0  0  0  0
M  END
>  <Pose>
1

>  <Score>
-8.310

$$$$
