/Users/jonathanwahrer/Desktop/Msc/3_Semester/Drug_Design_Praktikum/waehrer_HTS_screening/HTS_experiment/out/docking_results/vina_output/3elj/0769_docked.pdbqt
 OpenBabel03192217513D

 26 29  0  0  0  0  0  0  0  0999 V2000
   22.4990   16.3920   29.9620 C   0  0  0  0  0  0  0  0  0  0  0  0
   21.9220   17.2640   30.7680 O   0  0  0  0  0  0  0  0  0  0  0  0
   22.6540   15.1140   30.4780 N   0  0  0  0  0  0  0  0  0  0  0  0
   22.1730   14.8340   31.8550 C   0  0  0  0  0  2  0  0  0  0  0  0
   21.2010   13.6790   31.8030 C   0  0  0  0  0  2  0  0  0  0  0  0
   21.8300   12.5550   31.2310 N   0  0  0  0  0  0  0  0  0  0  0  0
   23.1730   12.8250   30.8440 C   0  0  0  0  0  2  0  0  0  0  0  0
   23.2330   13.9980   29.8350 C   0  0  0  0  0  2  0  0  0  0  0  0
   22.8490   16.9790   28.6830 C   0  0  0  0  0  0  0  0  0  0  0  0
   22.4260   18.2150   28.2740 C   0  0  0  0  0  3  0  0  0  0  0  0
   22.8180   18.6960   27.0220 C   0  0  0  0  0  0  0  0  0  0  0  0
   22.2710   20.3880   26.3980 Br  0  0  0  0  0  0  0  0  0  0  0  0
   23.6220   17.9100   26.2330 C   0  0  0  0  0  0  0  0  0  0  0  0
   24.0020   16.7540   26.6490 O   0  0  0  0  0  0  0  0  0  0  0  0
   24.0030   18.2980   25.0980 O   0  0  0  0  0  0  0  0  0  0  0  0
   23.6650   16.2650   27.8000 C   0  0  0  0  0  3  0  0  0  0  0  0
   21.7040   11.3260   31.9480 C   0  0  0  0  0  2  0  0  0  0  0  0
   22.5670   10.2260   31.4820 C   0  0  0  0  0  0  0  0  0  0  0  0
   22.2160    9.3090   30.5460 C   0  0  0  0  0  3  0  0  0  0  0  0
   23.0900    8.3150   30.1790 C   0  0  0  0  0  0  0  0  0  0  0  0
   24.3240    8.2500   30.7650 C   0  0  0  0  0  0  0  0  0  0  0  0
   23.0230    7.2500   29.2670 O   0  0  0  0  0  0  0  0  0  0  0  0
   24.7030    9.1690   31.7180 C   0  0  0  0  0  3  0  0  0  0  0  0
   25.0270    7.1760   30.2460 O   0  0  0  0  0  0  0  0  0  0  0  0
   23.8200   10.1410   32.0610 C   0  0  0  0  0  3  0  0  0  0  0  0
   24.0690    6.3550   29.5940 C   0  0  0  0  0  2  0  0  0  0  0  0
  1  3  1  0  0  0  0
  1  2  2  0  0  0  0
  3  4  1  0  0  0  0
  5  4  1  0  0  0  0
  6  5  1  0  0  0  0
  6 17  1  0  0  0  0
  7  6  1  0  0  0  0
  8  3  1  0  0  0  0
  8  7  1  0  0  0  0
  9  1  1  0  0  0  0
 10  9  1  0  0  0  0
 11 10  2  0  0  0  0
 12 11  1  0  0  0  0
 13 14  1  0  0  0  0
 13 11  1  0  0  0  0
 14 16  1  0  0  0  0
 15 13  2  0  0  0  0
 16  9  2  0  0  0  0
 18 17  1  0  0  0  0
 18 25  1  0  0  0  0
 19 18  2  0  0  0  0
 20 19  1  0  0  0  0
 20 21  2  0  0  0  0
 21 23  1  0  0  0  0
 22 26  1  0  0  0  0
 22 20  1  0  0  0  0
 23 25  2  0  0  0  0
 24 21  1  0  0  0  0
 26 24  1  0  0  0  0
M  END
>  <Pose>
1

>  <Score>
-9.538

$$$$
