/Users/jonathanwahrer/Desktop/Msc/3_Semester/Drug_Design_Praktikum/waehrer_HTS_screening/HTS_experiment/out/docking_results/vina_output/3elj/0776_docked.pdbqt
 OpenBabel03192217513D

 38 41  0  0  1  0  0  0  0  0999 V2000
   24.4090   11.6300   31.5630 C   0  0  2  0  0  3  0  0  0  0  0  0
   24.8300   11.4260   30.1020 C   0  0  1  0  0  0  0  0  0  0  0  0
   24.1040   10.2500   29.5440 C   0  0  0  0  0  2  0  0  0  0  0  0
   24.5190    9.0170   30.3150 C   0  0  1  0  0  0  0  0  0  0  0  0
   25.0780    9.3180   31.5420 O   0  0  0  0  0  0  0  0  0  0  0  0
   24.3900   10.3010   32.2410 C   0  0  0  0  0  2  0  0  0  0  0  0
   23.3430    8.1130   30.3890 C   0  0  0  0  0  2  0  0  0  0  0  0
   23.7610    6.8370   31.1370 C   0  0  0  0  0  2  0  0  0  0  0  0
   24.7010    6.1440   30.3190 N   0  0  0  0  0  0  0  0  0  0  0  0
   25.1740    6.9170   29.1220 C   0  0  0  0  0  2  0  0  0  0  0  0
   25.5770    8.3050   29.4990 C   0  0  0  0  0  2  0  0  0  0  0  0
   25.1950    4.8720   30.5330 C   0  0  0  0  0  0  0  0  0  0  0  0
   26.0420    4.4370   29.6230 O   0  0  0  0  0  0  0  0  0  0  0  0
   24.6620   12.6810   29.3090 C   0  0  0  0  0  1  0  0  0  0  0  0
   26.1920   11.1150   30.1270 O   0  0  0  0  0  0  0  0  0  0  0  0
   26.4100   10.3010   29.6060 H   0  0  0  0  0  0  0  0  0  0  0  0
   23.2180   12.4070   31.6850 N   0  0  0  0  0  0  0  0  0  0  0  0
   23.1720   13.7470   31.5750 C   0  0  0  0  0  3  0  0  0  0  0  0
   22.0100   14.4670   31.6980 C   0  0  0  0  0  0  0  0  0  0  0  0
   22.0940   16.3590   31.5190 Br  0  0  0  0  0  0  0  0  0  0  0  0
   20.8290   13.8110   31.9450 C   0  0  0  0  0  0  0  0  0  0  0  0
   20.8750   12.4720   32.0540 N   0  0  0  0  0  0  0  0  0  0  0  0
   19.7710   14.4770   32.0570 O   0  0  0  0  0  0  0  0  0  0  0  0
   22.0140   11.8080   31.9310 C   0  0  0  0  0  0  0  0  0  0  0  0
   19.9720   11.9880   32.2420 H   0  0  0  0  0  0  0  0  0  0  0  0
   21.9740   10.5490   32.0480 O   0  0  0  0  0  0  0  0  0  0  0  0
   24.9490    3.9410   31.5760 C   0  0  0  0  0  0  0  0  0  0  0  0
   25.9770    3.0910   32.0230 C   0  0  0  0  0  3  0  0  0  0  0  0
   25.8710    2.1750   33.0200 C   0  0  0  0  0  0  0  0  0  0  0  0
   24.6150    2.0800   33.6560 C   0  0  0  0  0  3  0  0  0  0  0  0
   23.6110    2.8880   33.2440 C   0  0  0  0  0  3  0  0  0  0  0  0
   23.7530    3.8260   32.2070 C   0  0  0  0  0  3  0  0  0  0  0  0
   26.8910    1.3650   33.4220 O   0  0  0  0  0  0  0  0  0  0  0  0
   28.2300    1.5790   33.5590 C   0  0  0  0  0  2  0  0  0  0  0  0
   28.5670    2.4220   34.7410 C   0  0  0  0  0  2  0  0  0  0  0  0
   29.2780    3.6220   34.3000 N   0  0  0  0  0  0  0  0  0  0  0  0
   29.3460    4.3300   35.0450 H   0  0  0  0  0  0  0  0  0  0  0  0
   28.9490    3.9710   33.3940 H   0  0  0  0  0  0  0  0  0  0  0  0
  1 17  1  6  0  0  0
  1  6  1  0  0  0  0
  2 14  1  6  0  0  0
  2 15  1  0  0  0  0
  2  1  1  0  0  0  0
  3  2  1  0  0  0  0
  3  4  1  0  0  0  0
  4 11  1  6  0  0  0
  4  7  1  0  0  0  0
  4  5  1  0  0  0  0
  5  6  1  0  0  0  0
  7  8  1  0  0  0  0
  9 12  1  0  0  0  0
  9  8  1  0  0  0  0
 10 11  1  0  0  0  0
 10  9  1  0  0  0  0
 12 27  1  0  0  0  0
 13 12  2  0  0  0  0
 16 15  1  0  0  0  0
 17 24  1  0  0  0  0
 18 17  1  0  0  0  0
 18 19  2  0  0  0  0
 19 21  1  0  0  0  0
 20 19  1  0  0  0  0
 21 22  1  0  0  0  0
 21 23  2  0  0  0  0
 22 25  1  0  0  0  0
 24 26  2  0  0  0  0
 24 22  1  0  0  0  0
 27 28  2  0  0  0  0
 27 32  1  0  0  0  0
 28 29  1  0  0  0  0
 29 33  1  0  0  0  0
 29 30  2  0  0  0  0
 31 30  1  0  0  0  0
 32 31  2  0  0  0  0
 33 34  1  0  0  0  0
 34 35  1  0  0  0  0
 36 35  1  0  0  0  0
 36 37  1  0  0  0  0
 38 36  1  0  0  0  0
M  END
>  <Pose>
1

>  <Score>
-8.763

$$$$
