/Users/jonathanwahrer/Desktop/Msc/3_Semester/Drug_Design_Praktikum/waehrer_HTS_screening/HTS_experiment/out/docking_results/vina_output/3elj/0789_docked.pdbqt
 OpenBabel03192217523D

 21 24  0  0  1  0  0  0  0  0999 V2000
   20.4430   10.8890   32.8090 C   0  0  0  0  0  0  0  0  0  0  0  0
   19.3780   10.9530   33.4800 O   0  0  0  0  0  0  0  0  0  0  0  0
   21.0930   12.1030   32.4700 N   0  0  0  0  0  0  0  0  0  0  0  0
   20.5470   13.3420   32.8870 C   0  0  0  0  0  2  0  0  0  0  0  0
   20.8940   14.4810   32.0020 C   0  0  2  0  0  3  0  0  0  0  0  0
   21.7400   14.1730   30.8850 N   0  0  2  0  0  0  0  0  0  0  0  0
   22.8700   13.3550   31.2830 C   0  0  0  0  0  2  0  0  0  0  0  0
   22.3030   12.0110   31.6990 C   0  0  0  0  0  2  0  0  0  0  0  0
   22.0940   15.4590   30.3650 C   0  0  0  0  0  2  0  0  0  0  0  0
   22.2670   16.3470   31.5720 C   0  0  0  0  0  2  0  0  0  0  0  0
   21.6840   15.5590   32.7240 C   0  0  0  0  0  2  0  0  0  0  0  0
   20.9630    9.5720   32.4140 C   0  0  0  0  0  0  0  0  0  0  0  0
   22.1870    9.2180   31.9990 N   0  0  0  0  0  0  0  0  0  0  0  0
   22.2600    7.9230   31.7340 N   0  0  0  0  0  0  0  0  0  0  0  0
   23.2540    7.1060   31.2970 C   0  0  0  0  0  3  0  0  0  0  0  0
   21.0620    7.3550   31.9670 C   0  0  0  0  0  0  0  0  0  0  0  0
   23.0610    5.7570   31.0980 C   0  0  0  0  0  0  0  0  0  0  0  0
   24.4810    4.6200   30.4790 Br  0  0  0  0  0  0  0  0  0  0  0  0
   21.8260    5.1990   31.3420 C   0  0  0  0  0  3  0  0  0  0  0  0
   20.8610    6.0250   31.7720 N   0  0  0  0  0  0  0  0  0  0  0  0
   20.2400    8.3790   32.3930 C   0  0  0  0  0  3  0  0  0  0  0  0
  1  2  2  0  0  0  0
  3  1  1  0  0  0  0
  3  4  1  0  0  0  0
  5 11  1  1  0  0  0
  5  4  1  0  0  0  0
  6  9  1  1  0  0  0
  6  7  1  0  0  0  0
  6  5  1  0  0  0  0
  7  8  1  0  0  0  0
  8  3  1  0  0  0  0
  9 10  1  0  0  0  0
 10 11  1  0  0  0  0
 12  1  1  0  0  0  0
 13 12  2  0  0  0  0
 14 16  1  0  0  0  0
 14 13  1  0  0  0  0
 15 14  1  0  0  0  0
 16 21  2  0  0  0  0
 17 15  2  0  0  0  0
 17 19  1  0  0  0  0
 18 17  1  0  0  0  0
 19 20  2  0  0  0  0
 20 16  1  0  0  0  0
 21 12  1  0  0  0  0
M  END
>  <Pose>
1

>  <Score>
-7.793

$$$$
