/Users/jonathanwahrer/Desktop/Msc/3_Semester/Drug_Design_Praktikum/waehrer_HTS_screening/HTS_experiment/out/docking_results/vina_output/3elj/0790_docked.pdbqt
 OpenBabel03192217523D

 25 28  0  0  0  0  0  0  0  0999 V2000
   24.5570   11.9460   29.3210 C   0  0  0  0  0  0  0  0  0  0  0  0
   24.8020   11.8100   28.0880 O   0  0  0  0  0  0  0  0  0  0  0  0
   25.0370   11.0030   30.2670 N   0  0  0  0  0  0  0  0  0  0  0  0
   24.7070   11.2370   31.6820 C   0  0  0  0  0  2  0  0  0  0  0  0
   24.7430    9.8410   32.3040 C   0  0  0  0  0  2  0  0  0  0  0  0
   24.1770    8.9620   31.3250 N   0  0  0  0  0  0  0  0  0  0  0  0
   25.1790    8.5280   30.3080 C   0  0  0  0  0  2  0  0  0  0  0  0
   25.8240    9.8460   29.8700 C   0  0  0  0  0  2  0  0  0  0  0  0
   22.8650    8.5330   31.2030 C   0  0  0  0  0  0  0  0  0  0  0  0
   22.6060    7.6920   30.2450 O   0  0  0  0  0  0  0  0  0  0  0  0
   23.7790   13.0870   29.7350 C   0  0  0  0  0  0  0  0  0  0  0  0
   22.9620   13.2300   30.8320 C   0  0  0  0  0  3  0  0  0  0  0  0
   22.4300   14.4630   30.8310 N   0  0  0  0  0  0  0  0  0  0  0  0
   22.8870   15.1120   29.7590 N   0  0  0  0  0  0  0  0  0  0  0  0
   22.6660   16.3400   29.3090 C   0  0  0  0  0  3  0  0  0  0  0  0
   23.7110   14.3050   29.0680 C   0  0  0  0  0  0  0  0  0  0  0  0
   23.2560   16.7880   28.1690 C   0  0  0  0  0  0  0  0  0  0  0  0
   22.9330   18.5530   27.5310 Br  0  0  0  0  0  0  0  0  0  0  0  0
   24.0940   15.9640   27.4700 C   0  0  0  0  0  3  0  0  0  0  0  0
   24.3020   14.7320   27.9410 N   0  0  0  0  0  0  0  0  0  0  0  0
   21.6960    8.8800   31.9930 C   0  0  0  0  0  0  0  0  0  0  0  0
   20.8220    7.9920   32.4870 O   0  0  0  0  0  0  0  0  0  0  0  0
   19.8740    8.5630   33.1480 C   0  0  0  0  0  3  0  0  0  0  0  0
   20.0640    9.9220   33.1370 C   0  0  0  0  0  3  0  0  0  0  0  0
   21.2230   10.1040   32.4000 C   0  0  0  0  0  3  0  0  0  0  0  0
  1 11  1  0  0  0  0
  1  3  1  0  0  0  0
  2  1  2  0  0  0  0
  3  4  1  0  0  0  0
  4  5  1  0  0  0  0
  6  5  1  0  0  0  0
  7  6  1  0  0  0  0
  8  3  1  0  0  0  0
  8  7  1  0  0  0  0
  9  6  1  0  0  0  0
  9 21  1  0  0  0  0
 10  9  2  0  0  0  0
 11 12  1  0  0  0  0
 13 12  2  0  0  0  0
 14 13  1  0  0  0  0
 15 14  1  0  0  0  0
 16 11  2  0  0  0  0
 16 14  1  0  0  0  0
 17 15  2  0  0  0  0
 18 17  1  0  0  0  0
 19 20  2  0  0  0  0
 19 17  1  0  0  0  0
 20 16  1  0  0  0  0
 21 25  2  0  0  0  0
 21 22  1  0  0  0  0
 22 23  1  0  0  0  0
 24 23  2  0  0  0  0
 25 24  1  0  0  0  0
M  END
>  <Pose>
1

>  <Score>
-8.422

$$$$
