/Users/jonathanwahrer/Desktop/Msc/3_Semester/Drug_Design_Praktikum/waehrer_HTS_screening/HTS_experiment/out/docking_results/vina_output/3elj/0797_docked.pdbqt
 OpenBabel03192217523D

 28 31  0  0  0  0  0  0  0  0999 V2000
   23.8230   11.5810   30.3780 O   0  0  0  0  0  0  0  0  0  0  0  0
   23.5470   12.6060   31.2960 C   0  0  0  0  0  2  0  0  0  0  0  0
   23.2380   13.9110   30.6580 C   0  0  0  0  0  0  0  0  0  0  0  0
   23.6920   14.2240   29.4210 N   0  0  0  0  0  0  0  0  0  0  0  0
   23.4230   15.3960   28.8200 C   0  0  0  0  0  0  0  0  0  0  0  0
   22.6790   16.3500   29.4070 N   0  0  0  0  0  0  0  0  0  0  0  0
   23.9080   15.6830   27.5410 C   0  0  0  0  0  3  0  0  0  0  0  0
   22.4190   17.5220   28.7890 C   0  0  0  0  0  3  0  0  0  0  0  0
   22.2050   16.0830   30.6420 C   0  0  0  0  0  0  0  0  0  0  0  0
   22.8830   17.8340   27.5300 C   0  0  0  0  0  0  0  0  0  0  0  0
   22.4840   19.5150   26.6980 Br  0  0  0  0  0  0  0  0  0  0  0  0
   23.6490   16.8750   26.9010 C   0  0  0  0  0  3  0  0  0  0  0  0
   22.4730   14.8760   31.2800 C   0  0  0  0  0  3  0  0  0  0  0  0
   21.5180   16.9580   31.1920 O   0  0  0  0  0  0  0  0  0  0  0  0
   23.2290   10.3360   30.3640 C   0  0  0  0  0  0  0  0  0  0  0  0
   22.6590    9.9370   29.3280 O   0  0  0  0  0  0  0  0  0  0  0  0
   23.2890    9.5060   31.5890 C   0  0  0  0  0  2  0  0  0  0  0  0
   21.9770    9.0860   31.9910 N   0  0  0  0  0  0  0  0  0  0  0  0
   21.4500    7.7820   31.8790 C   0  0  0  0  0  0  0  0  0  0  0  0
   21.9870    6.7410   31.4210 O   0  0  0  0  0  0  0  0  0  0  0  0
   20.0700    7.7950   32.4120 C   0  0  0  0  0  0  0  0  0  0  0  0
   19.7980    9.0710   32.8250 C   0  0  0  0  0  0  0  0  0  0  0  0
   19.1250    6.7910   32.5320 C   0  0  0  0  0  3  0  0  0  0  0  0
   18.5920    9.4060   33.3700 C   0  0  0  0  0  3  0  0  0  0  0  0
   20.9810    9.8970   32.5700 C   0  0  0  0  0  0  0  0  0  0  0  0
   17.6370    8.4270   33.5000 C   0  0  0  0  0  3  0  0  0  0  0  0
   17.9110    7.1390   33.0830 C   0  0  0  0  0  3  0  0  0  0  0  0
   21.0610   11.1340   32.8390 O   0  0  0  0  0  0  0  0  0  0  0  0
  1  2  1  0  0  0  0
  3 13  2  0  0  0  0
  3  2  1  0  0  0  0
  4  3  1  0  0  0  0
  5  6  1  0  0  0  0
  5  4  2  0  0  0  0
  6  9  1  0  0  0  0
  7  5  1  0  0  0  0
  8  6  1  0  0  0  0
  9 14  2  0  0  0  0
  9 13  1  0  0  0  0
 10  8  2  0  0  0  0
 11 10  1  0  0  0  0
 12 10  1  0  0  0  0
 12  7  2  0  0  0  0
 15  1  1  0  0  0  0
 15 17  1  0  0  0  0
 16 15  2  0  0  0  0
 17 18  1  0  0  0  0
 18 25  1  0  0  0  0
 19 18  1  0  0  0  0
 19 21  1  0  0  0  0
 20 19  2  0  0  0  0
 21 23  2  0  0  0  0
 21 22  1  0  0  0  0
 22 24  2  0  0  0  0
 23 27  1  0  0  0  0
 24 26  1  0  0  0  0
 25 22  1  0  0  0  0
 25 28  2  0  0  0  0
 27 26  2  0  0  0  0
M  END
>  <Pose>
1

>  <Score>
-9.735

$$$$
