/Users/jonathanwahrer/Desktop/Msc/3_Semester/Drug_Design_Praktikum/waehrer_HTS_screening/HTS_experiment/out/docking_results/vina_output/3elj/0800_docked.pdbqt
 OpenBabel03192217533D

 29 32  0  0  1  0  0  0  0  0999 V2000
   26.6560    9.1570   29.1680 C   0  0  0  0  0  0  0  0  0  0  0  0
   27.7100    8.7600   28.6090 O   0  0  0  0  0  0  0  0  0  0  0  0
   25.5520    8.3390   29.1300 O   0  0  0  0  0  0  0  0  0  0  0  0
   25.4390    7.1610   29.9060 C   0  0  0  0  0  2  0  0  0  0  0  0
   24.0560    7.0710   30.4360 C   0  0  0  0  0  0  0  0  0  0  0  0
   23.4890    8.0910   31.1040 N   0  0  0  0  0  0  0  0  0  0  0  0
   22.2270    8.0210   31.5910 C   0  0  1  0  0  3  0  0  0  0  0  0
   21.4820    6.9090   31.4220 N   0  0  0  0  0  0  0  0  0  0  0  0
   21.6910    9.0970   32.2720 C   0  0  0  0  0  3  0  0  0  0  0  0
   20.2280    6.8180   31.8970 C   0  0  0  0  0  3  0  0  0  0  0  0
   22.0080    5.8570   30.7560 C   0  0  0  0  0  0  0  0  0  0  0  0
   19.6880    7.8880   32.5770 C   0  0  0  0  0  0  0  0  0  0  0  0
   17.9060    7.7540   33.2510 Br  0  0  0  0  0  0  0  0  0  0  0  0
   20.4120    9.0540   32.7790 C   0  0  0  0  0  3  0  0  0  0  0  0
   23.3110    5.9300   30.2520 C   0  0  0  0  0  2  0  0  0  0  0  0
   21.3280    4.8300   30.5960 O   0  0  0  0  0  0  0  0  0  0  0  0
   26.6950   10.4880   29.8280 C   0  0  0  0  0  2  0  0  0  0  0  0
   25.5180   11.2640   29.5710 N   0  0  0  0  0  0  0  0  0  0  0  0
   25.1180   11.8120   28.3160 C   0  0  0  0  0  0  0  0  0  0  0  0
   25.7600   11.6880   27.2330 O   0  0  0  0  0  0  0  0  0  0  0  0
   23.8920   12.5080   28.5090 N   0  0  0  0  0  0  0  0  0  0  0  0
   23.5920   12.5400   29.9180 C   0  0  0  0  0  0  0  0  0  0  0  0
   23.3330   12.9130   27.7380 H   0  0  0  0  0  0  0  0  0  0  0  0
   23.7570   13.9100   30.5210 C   0  0  0  0  0  2  0  0  0  0  0  0
   22.1760   12.2000   30.2400 C   0  0  0  0  0  2  0  0  0  0  0  0
   24.5370   11.6210   30.5480 C   0  0  0  0  0  0  0  0  0  0  0  0
   22.9560   13.8280   31.7830 C   0  0  0  0  0  2  0  0  0  0  0  0
   22.0690   12.6210   31.6890 C   0  0  0  0  0  2  0  0  0  0  0  0
   24.5380   11.1880   31.7240 O   0  0  0  0  0  0  0  0  0  0  0  0
  1 17  1  0  0  0  0
  2  1  2  0  0  0  0
  3  1  1  0  0  0  0
  3  4  1  0  0  0  0
  4  5  1  0  0  0  0
  5  6  2  0  0  0  0
  6  7  1  0  0  0  0
  7  9  1  1  0  0  0
  8  7  1  0  0  0  0
  8 10  1  0  0  0  0
  9 14  2  0  0  0  0
 10 12  2  0  0  0  0
 11  8  1  0  0  0  0
 12 14  1  0  0  0  0
 12 13  1  0  0  0  0
 15  5  1  0  0  0  0
 15 11  1  0  0  0  0
 16 11  2  0  0  0  0
 18 17  1  0  0  0  0
 18 26  1  0  0  0  0
 19 21  1  0  0  0  0
 19 18  1  0  0  0  0
 20 19  2  0  0  0  0
 21 22  1  0  0  0  0
 22 25  1  0  0  0  0
 22 24  1  0  0  0  0
 22 26  1  0  0  0  0
 23 21  1  0  0  0  0
 24 27  1  0  0  0  0
 25 28  1  0  0  0  0
 26 29  2  0  0  0  0
 28 27  1  0  0  0  0
M  END
>  <Pose>
1

>  <Score>
-8.418

$$$$
