/Users/jonathanwahrer/Desktop/Msc/3_Semester/Drug_Design_Praktikum/waehrer_HTS_screening/HTS_experiment/out/docking_results/vina_output/3elj/0803_docked.pdbqt
 OpenBabel03192217533D

 31 34  0  0  0  0  0  0  0  0999 V2000
   25.4160   12.1690   28.2970 Br  0  0  0  0  0  0  0  0  0  0  0  0
   24.0440   11.3520   29.3260 C   0  0  0  0  0  0  0  0  0  0  0  0
   23.9600   10.0190   29.5290 C   0  0  0  0  0  2  0  0  0  0  0  0
   23.0500    9.4460   30.3220 N   0  0  0  0  0  0  0  0  0  0  0  0
   22.1740   10.2300   30.9500 C   0  0  0  0  0  0  0  0  0  0  0  0
   21.2320    9.6680   31.7580 N   0  0  0  0  0  0  0  0  0  0  0  0
   21.1350    8.3610   31.9560 C   0  0  0  0  0  0  0  0  0  0  0  0
   22.0280    7.5290   31.3190 C   0  0  0  0  0  0  0  0  0  0  0  0
   21.9730    6.1590   31.4800 C   0  0  0  0  0  3  0  0  0  0  0  0
   21.0190    5.5430   32.2910 C   0  0  0  0  0  3  0  0  0  0  0  0
   20.1300    6.3850   32.9230 C   0  0  0  0  0  3  0  0  0  0  0  0
   20.1810    7.7590   32.7650 C   0  0  0  0  0  3  0  0  0  0  0  0
   22.9820    8.1220   30.5010 C   0  0  0  0  0  0  0  0  0  0  0  0
   23.7990    7.3780   29.9160 O   0  0  0  0  0  0  0  0  0  0  0  0
   22.2370   11.5690   30.7630 N   0  0  0  0  0  0  0  0  0  0  0  0
   23.1060   12.2090   29.9930 C   0  0  0  0  0  0  0  0  0  0  0  0
   21.4810   12.0840   31.3220 H   0  0  0  0  0  0  0  0  0  0  0  0
   23.1630   13.5290   29.6760 N   0  0  0  0  0  0  0  0  0  0  0  0
   24.5160   13.5670   29.8690 H   0  0  0  0  0  0  0  0  0  0  0  0
   23.2190   14.8300   29.3640 C   0  0  0  0  0  0  0  0  0  0  0  0
   22.5130   15.7580   30.1410 C   0  0  0  0  0  0  0  0  0  0  0  0
   22.3550   17.0370   29.7210 C   0  0  0  0  0  3  0  0  0  0  0  0
   22.8900   17.4500   28.5250 C   0  0  0  0  0  3  0  0  0  0  0  0
   23.6000   16.5890   27.7180 C   0  0  0  0  0  3  0  0  0  0  0  0
   23.7450   15.2960   28.1640 C   0  0  0  0  0  3  0  0  0  0  0  0
   22.0470   15.4360   31.4960 C   0  0  0  0  0  0  0  0  0  0  0  0
   22.9190   15.2390   32.3810 O   0  0  0  0  0  0  0  0  0  0  0  0
   20.7430   15.3240   31.8810 O   0  0  0  0  0  0  0  0  0  0  0  0
   19.9310   14.2200   31.5320 C   0  0  0  0  0  2  0  0  0  0  0  0
   19.8720   13.2190   32.6900 C   0  0  0  0  0  2  0  0  0  0  0  0
   18.4230   12.9500   33.0220 C   0  0  0  0  0  1  0  0  0  0  0  0
  1  2  1  0  0  0  0
  2  3  1  0  0  0  0
  2 16  2  0  0  0  0
  3  4  1  0  0  0  0
  4 13  1  0  0  0  0
  4  5  1  0  0  0  0
  5  6  2  0  0  0  0
  6  7  1  0  0  0  0
  7 12  1  0  0  0  0
  8  9  1  0  0  0  0
  8  7  2  0  0  0  0
  9 10  2  0  0  0  0
 10 11  1  0  0  0  0
 12 11  2  0  0  0  0
 13  8  1  0  0  0  0
 14 13  2  0  0  0  0
 15  5  1  0  0  0  0
 15 17  1  0  0  0  0
 16 15  1  0  0  0  0
 18 19  1  0  0  0  0
 18 16  1  0  0  0  0
 20 18  1  0  0  0  0
 20 21  1  0  0  0  0
 21 26  1  0  0  0  0
 22 21  2  0  0  0  0
 23 22  1  0  0  0  0
 24 25  1  0  0  0  0
 24 23  2  0  0  0  0
 25 20  2  0  0  0  0
 26 28  1  0  0  0  0
 26 27  2  0  0  0  0
 29 28  1  0  0  0  0
 29 30  1  0  0  0  0
 30 31  1  0  0  0  0
M  END
>  <Pose>
1

>  <Score>
-8.897

$$$$
