/Users/jonathanwahrer/Desktop/Msc/3_Semester/Drug_Design_Praktikum/waehrer_HTS_screening/HTS_experiment/out/docking_results/vina_output/3elj/0814_docked.pdbqt
 OpenBabel03192217533D

 31 34  0  0  1  0  0  0  0  0999 V2000
   21.8380    6.8090   31.3440 N   0  0  0  0  0  0  0  0  0  0  0  0
   22.6580    7.8250   31.1950 N   0  0  0  0  0  0  0  0  0  0  0  0
   22.2720    8.8570   31.9590 C   0  0  0  0  0  0  0  0  0  0  0  0
   21.1660    8.4690   32.6110 N   0  0  0  0  0  0  0  0  0  0  0  0
   20.9020    7.1870   32.2200 C   0  0  2  0  0  3  0  0  0  0  0  0
   19.7870    6.3610   32.6780 C   0  0  0  0  0  2  0  0  0  0  0  0
   18.4380    6.9810   32.4000 C   0  0  0  0  0  2  0  0  0  0  0  0
   18.1600    8.1600   33.3070 C   0  0  0  0  0  2  0  0  0  0  0  0
   18.9900    9.3630   32.9820 C   0  0  0  0  0  2  0  0  0  0  0  0
   20.3990    9.2620   33.5510 C   0  0  0  0  0  2  0  0  0  0  0  0
   22.9110   10.1740   32.0850 C   0  0  0  0  0  2  0  0  0  0  0  0
   22.6520   11.0220   30.9620 N   0  0  0  0  0  0  0  0  0  0  0  0
   22.7580   10.6570   30.0040 H   0  0  0  0  0  0  0  0  0  0  0  0
   22.2450   12.3800   31.0920 C   0  0  0  0  0  0  0  0  0  0  0  0
   21.2110   12.7620   31.9170 C   0  0  0  0  0  3  0  0  0  0  0  0
   20.8320   14.0740   32.0380 C   0  0  0  0  0  3  0  0  0  0  0  0
   21.4870   15.0310   31.3280 C   0  0  0  0  0  0  0  0  0  0  0  0
   22.5220   14.6530   30.5020 C   0  0  0  0  0  3  0  0  0  0  0  0
   22.9130   13.3360   30.3730 C   0  0  0  0  0  3  0  0  0  0  0  0
   21.1280   16.3540   31.4290 O   0  0  0  0  0  0  0  0  0  0  0  0
   22.0650   17.3920   31.5730 C   0  0  0  0  0  1  0  0  0  0  0  0
   21.9230    5.5350   30.6940 C   0  0  0  0  0  2  0  0  0  0  0  0
   23.3300    5.0660   30.5770 C   0  0  0  0  0  0  0  0  0  0  0  0
   24.0260    5.5410   29.6410 O   0  0  0  0  0  0  0  0  0  0  0  0
   23.9200    4.1030   31.4820 C   0  0  0  0  0  0  0  0  0  0  0  0
   23.2350    3.6090   32.5680 C   0  0  0  0  0  3  0  0  0  0  0  0
   23.8150    2.6830   33.4300 C   0  0  0  0  0  3  0  0  0  0  0  0
   25.1070    2.2390   33.2040 C   0  0  0  0  0  0  0  0  0  0  0  0
   25.9010    0.9580   34.4010 Br  0  0  0  0  0  0  0  0  0  0  0  0
   25.7980    2.7260   32.1210 C   0  0  0  0  0  3  0  0  0  0  0  0
   25.2010    3.6390   31.2870 C   0  0  0  0  0  3  0  0  0  0  0  0
  1  5  1  0  0  0  0
  2  1  1  0  0  0  0
  2  3  2  0  0  0  0
  3 11  1  0  0  0  0
  3  4  1  0  0  0  0
  4 10  1  0  0  0  0
  5  4  1  0  0  0  0
  5  6  1  1  0  0  0
  7  6  1  0  0  0  0
  7  8  1  0  0  0  0
  9  8  1  0  0  0  0
  9 10  1  0  0  0  0
 12 14  1  0  0  0  0
 12 11  1  0  0  0  0
 13 12  1  0  0  0  0
 14 15  1  0  0  0  0
 15 16  2  0  0  0  0
 17 20  1  0  0  0  0
 17 16  1  0  0  0  0
 18 17  2  0  0  0  0
 19 18  1  0  0  0  0
 19 14  2  0  0  0  0
 20 21  1  0  0  0  0
 22  1  1  0  0  0  0
 23 22  1  0  0  0  0
 23 25  1  0  0  0  0
 24 23  2  0  0  0  0
 25 26  1  0  0  0  0
 26 27  2  0  0  0  0
 28 27  1  0  0  0  0
 28 29  1  0  0  0  0
 30 28  2  0  0  0  0
 31 25  2  0  0  0  0
 31 30  1  0  0  0  0
M  END
>  <Pose>
1

>  <Score>
-9.246

$$$$
