/Users/jonathanwahrer/Desktop/Msc/3_Semester/Drug_Design_Praktikum/waehrer_HTS_screening/HTS_experiment/out/docking_results/vina_output/3elj/0834_docked.pdbqt
 OpenBabel03192217543D

 28 31  0  0  1  0  0  0  0  0999 V2000
   23.6000    8.0800   30.3680 C   0  0  2  0  0  0  0  0  0  0  0  0
   23.1440    6.7280   30.4310 N   0  0  0  0  0  0  0  0  0  0  0  0
   21.9190    6.1880   29.9280 C   0  0  0  0  0  3  0  0  0  0  0  0
   21.1580    5.2810   30.8160 C   0  0  0  0  0  3  0  0  0  0  0  0
   21.7530    4.9670   32.1410 C   0  0  0  0  0  2  0  0  0  0  0  0
   22.9530    4.0270   32.0260 C   0  0  0  0  0  2  0  0  0  0  0  0
   24.1490    4.8900   31.7740 C   0  0  0  0  0  3  0  0  0  0  0  0
   24.2250    6.0270   31.1020 C   0  0  0  0  0  0  0  0  0  0  0  0
   25.4230    6.7770   30.9400 N   0  0  0  0  0  4  0  0  0  0  0  0
   24.9250    8.1060   31.1370 C   0  0  0  0  0  2  0  0  0  0  0  0
   26.0920    6.4810   31.6950 H   0  0  0  0  0  0  0  0  0  0  0  0
   22.7810    9.1090   31.0030 C   0  0  0  0  0  0  0  0  0  0  0  0
   21.8770    8.9610   32.0020 C   0  0  0  0  0  3  0  0  0  0  0  0
   21.1630   10.0350   32.5200 C   0  0  0  0  0  3  0  0  0  0  0  0
   21.3600   11.3050   32.0220 C   0  0  0  0  0  0  0  0  0  0  0  0
   20.3940   12.8010   32.7200 Br  0  0  0  0  0  0  0  0  0  0  0  0
   22.2760   11.4590   31.0090 C   0  0  0  0  0  3  0  0  0  0  0  0
   22.9870   10.4070   30.4900 C   0  0  0  0  0  3  0  0  0  0  0  0
   23.8050    8.5140   29.0440 O   0  0  0  0  0  0  0  0  0  0  0  0
   24.0740    9.4650   29.1260 H   0  0  0  0  0  0  0  0  0  0  0  0
   25.9360    6.5530   29.6520 C   0  0  0  0  0  0  0  0  0  0  0  0
   25.5310    5.4350   28.9000 C   0  0  0  0  0  3  0  0  0  0  0  0
   26.0150    5.1860   27.6440 C   0  0  0  0  0  3  0  0  0  0  0  0
   26.9300    6.0350   27.0580 C   0  0  0  0  0  0  0  0  0  0  0  0
   27.3400    7.1320   27.7710 C   0  0  0  0  0  3  0  0  0  0  0  0
   26.8520    7.3810   29.0370 C   0  0  0  0  0  3  0  0  0  0  0  0
   27.4220    5.7710   25.7650 O   0  0  0  0  0  0  0  0  0  0  0  0
   28.0780    6.7800   25.0450 C   0  0  0  0  0  1  0  0  0  0  0  0
  1 19  1  6  0  0  0
  1  2  1  0  0  0  0
  1 12  1  0  0  0  0
  1 10  1  0  0  0  0
  2  8  1  0  0  0  0
  3  2  1  0  0  0  0
  3  4  2  0  0  0  0
  4  5  1  0  0  0  0
  6  5  1  0  0  0  0
  7  6  1  0  0  0  0
  8  7  2  0  0  0  0
  9  8  1  0  0  0  0
  9 10  1  0  0  0  0
  9 11  1  0  0  0  0
 12 13  1  0  0  0  0
 13 14  2  0  0  0  0
 15 14  1  0  0  0  0
 15 16  1  0  0  0  0
 17 15  2  0  0  0  0
 18 12  2  0  0  0  0
 18 17  1  0  0  0  0
 19 20  1  0  0  0  0
 21  9  1  0  0  0  0
 22 21  2  0  0  0  0
 23 22  1  0  0  0  0
 24 23  2  0  0  0  0
 24 25  1  0  0  0  0
 25 26  2  0  0  0  0
 26 21  1  0  0  0  0
 27 24  1  0  0  0  0
 28 27  1  0  0  0  0
M  END
>  <Pose>
1

>  <Score>
-7.173

$$$$
