/Users/jonathanwahrer/Desktop/Msc/3_Semester/Drug_Design_Praktikum/waehrer_HTS_screening/HTS_experiment/out/docking_results/vina_output/3elj/0835_docked.pdbqt
 OpenBabel03192217543D

 27 30  0  0  1  0  0  0  0  0999 V2000
   24.5550    8.1440   30.4180 C   0  0  2  0  0  0  0  0  0  0  0  0
   25.6670    7.9610   29.5100 N   0  0  0  0  0  0  0  0  0  0  0  0
   26.8180    8.7160   29.0600 C   0  0  0  0  0  2  0  0  0  0  0  0
   28.0180    7.8280   28.7980 C   0  0  0  0  0  2  0  0  0  0  0  0
   27.6330    6.8120   27.7760 C   0  0  0  0  0  2  0  0  0  0  0  0
   26.3810    6.1160   28.1430 C   0  0  0  0  0  3  0  0  0  0  0  0
   25.4710    6.6630   28.9540 C   0  0  0  0  0  0  0  0  0  0  0  0
   24.2340    6.1180   29.3570 N   0  0  0  0  0  4  0  0  0  0  0  0
   23.4800    7.3190   29.7710 C   0  0  0  0  0  2  0  0  0  0  0  0
   23.6690    5.7820   28.5100 H   0  0  0  0  0  0  0  0  0  0  0  0
   24.1560    9.5630   30.5750 C   0  0  0  0  0  0  0  0  0  0  0  0
   24.7900   10.3570   31.5070 C   0  0  0  0  0  3  0  0  0  0  0  0
   24.4660   11.7000   31.6960 C   0  0  0  0  0  3  0  0  0  0  0  0
   23.4750   12.2580   30.9200 C   0  0  0  0  0  0  0  0  0  0  0  0
   23.0130   14.1050   31.1730 Br  0  0  0  0  0  0  0  0  0  0  0  0
   22.8320   11.4770   29.9840 C   0  0  0  0  0  3  0  0  0  0  0  0
   23.1650   10.1470   29.8090 C   0  0  0  0  0  3  0  0  0  0  0  0
   24.8010    7.6170   31.6820 O   0  0  0  0  0  0  0  0  0  0  0  0
   23.9240    7.5310   32.1280 H   0  0  0  0  0  0  0  0  0  0  0  0
   24.2590    5.1660   30.3710 C   0  0  0  0  0  0  0  0  0  0  0  0
   23.1450    4.7610   31.0620 C   0  0  0  0  0  0  0  0  0  0  0  0
   23.2460    3.8130   32.0830 C   0  0  0  0  0  3  0  0  0  0  0  0
   24.4580    3.2660   32.4170 C   0  0  0  0  0  3  0  0  0  0  0  0
   25.5820    3.6650   31.7270 C   0  0  0  0  0  3  0  0  0  0  0  0
   25.4760    4.5960   30.7250 C   0  0  0  0  0  3  0  0  0  0  0  0
   21.8860    5.2570   30.7910 O   0  0  0  0  0  0  0  0  0  0  0  0
   21.0240    5.6350   31.8120 C   0  0  0  0  0  1  0  0  0  0  0  0
  1 11  1  0  0  0  0
  1 18  1  1  0  0  0
  2  1  1  0  0  0  0
  3  2  1  0  0  0  0
  4  3  1  0  0  0  0
  5  6  1  0  0  0  0
  5  4  1  0  0  0  0
  6  7  2  0  0  0  0
  7  8  1  0  0  0  0
  7  2  1  0  0  0  0
  8  9  1  0  0  0  0
  8 20  1  0  0  0  0
  9  1  1  0  0  0  0
 10  8  1  0  0  0  0
 11 12  1  0  0  0  0
 12 13  2  0  0  0  0
 14 15  1  0  0  0  0
 14 13  1  0  0  0  0
 16 14  2  0  0  0  0
 17 16  1  0  0  0  0
 17 11  2  0  0  0  0
 18 19  1  0  0  0  0
 20 25  2  0  0  0  0
 20 21  1  0  0  0  0
 21 22  2  0  0  0  0
 22 23  1  0  0  0  0
 24 23  2  0  0  0  0
 25 24  1  0  0  0  0
 26 21  1  0  0  0  0
 26 27  1  0  0  0  0
M  END
>  <Pose>
1

>  <Score>
-7.472

$$$$
