/Users/jonathanwahrer/Desktop/Msc/3_Semester/Drug_Design_Praktikum/waehrer_HTS_screening/HTS_experiment/out/docking_results/vina_output/3elj/0850_docked.pdbqt
 OpenBabel03192217553D

 29 32  0  0  1  0  0  0  0  0999 V2000
   22.7600   11.5270   30.1460 N   0  0  0  0  0  4  0  0  0  0  0  0
   22.6650   11.8670   31.5350 C   0  0  1  0  0  0  0  0  0  0  0  0
   23.9470   11.2170   32.0520 C   0  0  0  0  0  2  0  0  0  0  0  0
   24.0060    9.9570   31.2940 N   0  0  0  0  0  0  0  0  0  0  0  0
   24.8070    8.8740   31.7400 C   0  0  0  0  0  2  0  0  0  0  0  0
   24.7210    7.6350   30.9000 C   0  0  0  0  0  2  0  0  0  0  0  0
   23.2760    7.2870   30.6710 C   0  0  0  0  0  2  0  0  0  0  0  0
   22.9590    7.8090   29.2620 C   0  0  0  0  0  2  0  0  0  0  0  0
   22.6710    9.2540   29.3500 C   0  0  0  0  0  3  0  0  0  0  0  0
   23.1280   10.1580   30.1870 C   0  0  0  0  0  0  0  0  0  0  0  0
   21.7910   11.6800   29.7240 H   0  0  0  0  0  0  0  0  0  0  0  0
   22.5050   13.1780   31.8530 O   0  0  0  0  0  0  0  0  0  0  0  0
   22.6330   13.7820   31.0980 H   0  0  0  0  0  0  0  0  0  0  0  0
   21.5580   11.1330   32.2130 C   0  0  0  0  0  0  0  0  0  0  0  0
   21.5490    9.7950   32.4740 C   0  0  0  0  0  3  0  0  0  0  0  0
   20.4710    9.1620   33.1270 C   0  0  0  0  0  3  0  0  0  0  0  0
   19.3730    9.8810   33.5320 C   0  0  0  0  0  0  0  0  0  0  0  0
   19.3710   11.2310   33.2740 C   0  0  0  0  0  3  0  0  0  0  0  0
   20.4240   11.8450   32.6350 C   0  0  0  0  0  3  0  0  0  0  0  0
   18.2960    9.2610   34.1880 O   0  0  0  0  0  0  0  0  0  0  0  0
   17.2940    8.5770   33.4740 C   0  0  0  0  0  2  0  0  0  0  0  0
   17.8330    7.4220   32.6910 C   0  0  0  0  0  1  0  0  0  0  0  0
   23.6190   12.2610   29.3570 C   0  0  0  0  0  0  0  0  0  0  0  0
   23.3770   13.6200   29.1650 C   0  0  0  0  0  3  0  0  0  0  0  0
   24.2160   14.4210   28.4050 C   0  0  0  0  0  3  0  0  0  0  0  0
   25.3360   13.8950   27.8020 C   0  0  0  0  0  0  0  0  0  0  0  0
   26.5190   14.9890   26.7640 Br  0  0  0  0  0  0  0  0  0  0  0  0
   25.5990   12.5700   27.9700 C   0  0  0  0  0  3  0  0  0  0  0  0
   24.7390   11.7900   28.7390 C   0  0  0  0  0  3  0  0  0  0  0  0
  1 10  1  0  0  0  0
  1  2  1  0  0  0  0
  2 12  1  1  0  0  0
  2  3  1  0  0  0  0
  2 14  1  0  0  0  0
  4  5  1  0  0  0  0
  4  3  1  0  0  0  0
  6  5  1  0  0  0  0
  7  6  1  0  0  0  0
  8  9  1  0  0  0  0
  8  7  1  0  0  0  0
  9 10  2  0  0  0  0
 10  4  1  0  0  0  0
 11  1  1  0  0  0  0
 13 12  1  0  0  0  0
 14 15  2  0  0  0  0
 14 19  1  0  0  0  0
 15 16  1  0  0  0  0
 16 17  2  0  0  0  0
 17 20  1  0  0  0  0
 18 17  1  0  0  0  0
 19 18  2  0  0  0  0
 21 20  1  0  0  0  0
 22 21  1  0  0  0  0
 23  1  1  0  0  0  0
 24 23  1  0  0  0  0
 25 24  2  0  0  0  0
 26 28  2  0  0  0  0
 26 25  1  0  0  0  0
 27 26  1  0  0  0  0
 28 29  1  0  0  0  0
 29 23  2  0  0  0  0
M  END
>  <Pose>
1

>  <Score>
-7.902

$$$$
