/Users/jonathanwahrer/Desktop/Msc/3_Semester/Drug_Design_Praktikum/waehrer_HTS_screening/HTS_experiment/out/docking_results/vina_output/3elj/0862_docked.pdbqt
 OpenBabel03192217553D

 30 33  0  0  0  0  0  0  0  0999 V2000
   19.9310   10.3540   33.8870 Br  0  0  0  0  0  0  0  0  0  0  0  0
   20.4860   11.6940   32.6790 C   0  0  0  0  0  0  0  0  0  0  0  0
   21.7410   11.5870   32.1320 C   0  0  0  0  0  0  0  0  0  0  0  0
   22.2640   12.5210   31.2210 C   0  0  0  0  0  0  0  0  0  0  0  0
   21.4680   13.6130   30.8540 C   0  0  0  0  0  3  0  0  0  0  0  0
   20.2120   13.7080   31.4100 C   0  0  0  0  0  0  0  0  0  0  0  0
   19.7170   12.7770   32.3050 C   0  0  0  0  0  0  0  0  0  0  0  0
   18.3420   12.9090   32.8960 C   0  0  0  0  0  1  0  0  0  0  0  0
   19.1300   15.1950   30.9090 Br  0  0  0  0  0  0  0  0  0  0  0  0
   23.6000   12.3600   30.6810 C   0  0  0  0  0  0  0  0  0  0  0  0
   24.2250   13.4160   30.4140 O   0  0  0  0  0  0  0  0  0  0  0  0
   24.0940   10.9820   30.5000 C   0  0  0  0  0  0  0  0  0  0  0  0
   23.9200   10.4380   31.9890 C   0  0  0  0  0  2  0  0  0  0  0  0
   22.6120   10.5530   32.4220 O   0  0  0  0  0  0  0  0  0  0  0  0
   25.5010   10.8180   30.1910 C   0  0  0  0  0  2  0  0  0  0  0  0
   26.2820   11.5270   29.2920 N   0  0  0  0  0  4  0  0  0  0  0  0
   25.8740   11.8070   27.9720 C   0  0  0  0  0  2  0  0  0  0  0  0
   27.0300   11.9630   26.9920 C   0  0  0  0  0  2  0  0  0  0  0  0
   27.7770   10.6810   26.8050 C   0  0  0  0  0  2  0  0  0  0  0  0
   27.7690    9.9380   28.1050 C   0  0  0  0  0  2  0  0  0  0  0  0
   27.6260   10.9090   29.2300 C   0  0  0  0  0  2  0  0  0  0  0  0
   26.5720   12.5080   29.7090 H   0  0  0  0  0  0  0  0  0  0  0  0
   23.1570   10.2170   29.6450 C   0  0  0  0  0  2  0  0  0  0  0  0
   23.2150    8.8160   29.5840 N   0  0  0  0  0  4  0  0  0  0  0  0
   24.6000    8.4010   29.8420 C   0  0  0  0  0  2  0  0  0  0  0  0
   24.8290    6.9410   29.5110 C   0  0  0  0  0  2  0  0  0  0  0  0
   23.9660    6.1520   30.5080 C   0  0  0  0  0  2  0  0  0  0  0  0
   22.5520    6.5940   30.2080 C   0  0  0  0  0  2  0  0  0  0  0  0
   22.4440    8.0840   30.5750 C   0  0  0  0  0  2  0  0  0  0  0  0
   22.9870    8.3490   28.6830 H   0  0  0  0  0  0  0  0  0  0  0  0
  2  1  1  0  0  0  0
  3 14  1  0  0  0  0
  3  2  2  0  0  0  0
  4  3  1  0  0  0  0
  5  4  2  0  0  0  0
  5  6  1  0  0  0  0
  6  7  2  0  0  0  0
  7  2  1  0  0  0  0
  7  8  1  0  0  0  0
  9  6  1  0  0  0  0
 10  4  1  0  0  0  0
 11 10  2  0  0  0  0
 12 10  1  0  0  0  0
 12 13  1  0  0  0  0
 13 14  1  0  0  0  0
 15 12  1  0  0  0  0
 16 22  1  0  0  0  0
 16 15  1  0  0  0  0
 17 16  1  0  0  0  0
 18 17  1  0  0  0  0
 19 18  1  0  0  0  0
 19 20  1  0  0  0  0
 20 21  1  0  0  0  0
 21 16  1  0  0  0  0
 23 12  1  0  0  0  0
 24 23  1  0  0  0  0
 24 25  1  0  0  0  0
 24 29  1  0  0  0  0
 26 25  1  0  0  0  0
 26 27  1  0  0  0  0
 28 27  1  0  0  0  0
 28 29  1  0  0  0  0
 30 24  1  0  0  0  0
M  END
>  <Pose>
1

>  <Score>
-8.023

$$$$
