/Users/jonathanwahrer/Desktop/Msc/3_Semester/Drug_Design_Praktikum/waehrer_HTS_screening/HTS_experiment/out/docking_results/vina_output/3elj/0865_docked.pdbqt
 OpenBabel03192217563D

 30 33  0  0  0  0  0  0  0  0999 V2000
   23.1910   10.3490   31.7870 C   0  0  0  0  0  0  0  0  0  0  0  0
   22.2880    9.4390   32.2130 N   0  0  0  0  0  4  0  0  0  0  0  0
   21.0180    9.7680   32.5550 C   0  0  0  0  0  0  0  0  0  0  0  0
   20.6900   11.0580   32.4530 N   0  0  0  0  0  0  0  0  0  0  0  0
   21.5350   12.0180   32.0370 C   0  0  0  0  0  0  0  0  0  0  0  0
   22.7790   11.6270   31.7120 N   0  0  0  0  0  2  0  0  0  0  0  0
   24.4990    9.9350   31.4460 N   0  0  0  0  0  0  0  0  0  0  0  0
   25.2480   10.6420   31.3630 H   0  0  0  0  0  0  0  0  0  0  0  0
   24.7820    8.5950   31.2210 N   0  0  0  0  0  0  0  0  0  0  0  0
   24.6650    8.0210   30.0770 C   0  0  0  0  0  3  0  0  0  0  0  0
   24.9820    6.6080   29.9180 C   0  0  0  0  0  0  0  0  0  0  0  0
   24.7670    5.6850   30.9270 C   0  0  0  0  0  3  0  0  0  0  0  0
   25.0690    4.3480   30.7720 C   0  0  0  0  0  0  0  0  0  0  0  0
   25.6030    3.8770   29.5900 C   0  0  0  0  0  0  0  0  0  0  0  0
   24.7610    3.0970   32.1820 Br  0  0  0  0  0  0  0  0  0  0  0  0
   25.9080    2.5610   29.4150 F   0  0  0  0  0  0  0  0  0  0  0  0
   25.8220    4.7830   28.5790 C   0  0  0  0  0  3  0  0  0  0  0  0
   25.5170    6.1280   28.7410 C   0  0  0  0  0  3  0  0  0  0  0  0
   20.1070    8.7680   32.9980 N   0  0  0  0  0  0  0  0  0  0  0  0
   20.4650    7.3860   33.2170 C   0  0  0  0  0  2  0  0  0  0  0  0
   19.4610    6.6080   32.3680 C   0  0  0  0  0  2  0  0  0  0  0  0
   18.2320    6.7540   32.8980 O   0  0  0  0  0  0  0  0  0  0  0  0
   17.7940    7.9640   33.2670 C   0  0  0  0  0  3  0  0  0  0  0  0
   18.7280    9.1080   33.2580 C   0  0  0  0  0  3  0  0  0  0  0  0
   21.1140   13.3730   31.9540 N   0  0  0  0  0  0  0  0  0  0  0  0
   22.0530   14.3710   31.4800 C   0  0  0  0  0  2  0  0  0  0  0  0
   21.4010   15.7340   31.5180 C   0  0  0  0  0  2  0  0  0  0  0  0
   20.1630   15.7840   30.9430 O   0  0  0  0  0  0  0  0  0  0  0  0
   19.3220   14.7340   31.1950 C   0  0  0  0  0  2  0  0  0  0  0  0
   19.8030   13.8250   32.3140 C   0  0  0  0  0  2  0  0  0  0  0  0
  1  2  2  0  0  0  0
  2  3  2  0  0  0  0
  3 19  1  0  0  0  0
  4  3  1  0  0  0  0
  5  4  2  0  0  0  0
  6  1  1  0  0  0  0
  6  5  1  0  0  0  0
  7  1  1  0  0  0  0
  8  7  1  0  0  0  0
  9  7  1  0  0  0  0
 10  9  2  0  0  0  0
 11 10  1  0  0  0  0
 11 12  1  0  0  0  0
 13 12  2  0  0  0  0
 13 15  1  0  0  0  0
 14 13  1  0  0  0  0
 16 14  1  0  0  0  0
 17 18  1  0  0  0  0
 17 14  2  0  0  0  0
 18 11  2  0  0  0  0
 19 20  1  0  0  0  0
 19 24  1  0  0  0  0
 21 22  1  0  0  0  0
 21 20  1  0  0  0  0
 22 23  1  0  0  0  0
 24 23  2  0  0  0  0
 25  5  1  0  0  0  0
 25 30  1  0  0  0  0
 26 27  1  0  0  0  0
 26 25  1  0  0  0  0
 28 29  1  0  0  0  0
 28 27  1  0  0  0  0
 29 30  1  0  0  0  0
M  END
>  <Pose>
1

>  <Score>
-8.785

$$$$
