/Users/jonathanwahrer/Desktop/Msc/3_Semester/Drug_Design_Praktikum/waehrer_HTS_screening/HTS_experiment/out/docking_results/vina_output/3elj/0874_docked.pdbqt
 OpenBabel03192217563D

 31 34  0  0  0  0  0  0  0  0999 V2000
   24.1600   12.0100   29.1750 N   0  0  0  0  0  0  0  0  0  0  0  0
   23.0360   12.5710   29.5650 N   0  0  0  0  0  0  0  0  0  0  0  0
   22.9680   13.8190   29.1250 N   0  0  0  0  0  0  0  0  0  0  0  0
   24.0920   14.0780   28.4220 C   0  0  0  0  0  0  0  0  0  0  0  0
   24.8060   12.9710   28.4610 C   0  0  0  0  0  0  0  0  0  0  0  0
   25.9600   13.2340   27.7410 C   0  0  0  0  0  0  0  0  0  0  0  0
   26.8800   12.4070   27.5610 O   0  0  0  0  0  0  0  0  0  0  0  0
   25.9540   14.4920   27.2640 N   0  0  0  0  0  0  0  0  0  0  0  0
   24.7900   15.0180   27.6880 C   0  0  0  0  0  0  0  0  0  0  0  0
   24.3890   16.1800   27.4610 O   0  0  0  0  0  0  0  0  0  0  0  0
   22.3120   12.0710   30.1440 H   0  0  0  0  0  0  0  0  0  0  0  0
   22.1800   14.4920   29.2920 H   0  0  0  0  0  0  0  0  0  0  0  0
   24.6400   10.6650   29.4300 C   0  0  0  0  0  2  0  0  0  0  0  0
   23.4900    9.7760   29.7560 C   0  0  0  0  0  0  0  0  0  0  0  0
   23.3640    9.1850   31.0090 N   0  0  0  0  0  0  0  0  0  0  0  0
   24.1450    9.4140   31.7090 H   0  0  0  0  0  0  0  0  0  0  0  0
   22.6600    9.6000   28.8490 O   0  0  0  0  0  0  0  0  0  0  0  0
   22.3310    8.3200   31.4710 C   0  0  0  0  0  0  0  0  0  0  0  0
   21.2840    8.8480   32.2430 C   0  0  0  0  0  0  0  0  0  0  0  0
   21.2980   10.1840   32.5210 F   0  0  0  0  0  0  0  0  0  0  0  0
   20.2600    8.0690   32.7180 C   0  0  0  0  0  3  0  0  0  0  0  0
   20.2160    6.7200   32.4560 C   0  0  0  0  0  3  0  0  0  0  0  0
   21.2310    6.2020   31.7070 C   0  0  0  0  0  3  0  0  0  0  0  0
   22.2730    6.9730   31.2180 C   0  0  0  0  0  3  0  0  0  0  0  0
   26.9720   15.1120   26.4800 C   0  0  0  0  0  0  0  0  0  0  0  0
   28.1070   15.6370   27.0670 C   0  0  0  0  0  3  0  0  0  0  0  0
   29.1020   16.2400   26.3230 C   0  0  0  0  0  3  0  0  0  0  0  0
   29.0000   16.3440   24.9510 C   0  0  0  0  0  0  0  0  0  0  0  0
   27.8750   15.8270   24.3440 C   0  0  0  0  0  3  0  0  0  0  0  0
   30.3620   17.1740   23.8960 Br  0  0  0  0  0  0  0  0  0  0  0  0
   26.8920   15.2280   25.1060 C   0  0  0  0  0  3  0  0  0  0  0  0
  1 13  1  0  0  0  0
  1  2  1  0  0  0  0
  2 11  1  0  0  0  0
  3 12  1  0  0  0  0
  3  2  1  0  0  0  0
  4  5  2  0  0  0  0
  4  3  1  0  0  0  0
  5  1  1  0  0  0  0
  6  5  1  0  0  0  0
  7  6  2  0  0  0  0
  8  9  1  0  0  0  0
  8  6  1  0  0  0  0
  9  4  1  0  0  0  0
 10  9  2  0  0  0  0
 13 14  1  0  0  0  0
 14 15  1  0  0  0  0
 15 18  1  0  0  0  0
 15 16  1  0  0  0  0
 17 14  2  0  0  0  0
 18 19  1  0  0  0  0
 19 20  1  0  0  0  0
 19 21  2  0  0  0  0
 22 21  1  0  0  0  0
 23 22  2  0  0  0  0
 24 18  2  0  0  0  0
 24 23  1  0  0  0  0
 25 26  1  0  0  0  0
 25  8  1  0  0  0  0
 27 26  2  0  0  0  0
 28 27  1  0  0  0  0
 29 28  2  0  0  0  0
 29 31  1  0  0  0  0
 30 28  1  0  0  0  0
 31 25  2  0  0  0  0
M  END
>  <Pose>
1

>  <Score>
-8.678

$$$$
