/Users/jonathanwahrer/Desktop/Msc/3_Semester/Drug_Design_Praktikum/waehrer_HTS_screening/HTS_experiment/out/docking_results/vina_output/3elj/0886_docked.pdbqt
 OpenBabel03192217563D

 31 34  0  0  0  0  0  0  0  0999 V2000
   21.9870    7.9960   31.5880 N   0  0  0  0  0  0  0  0  0  0  0  0
   22.6210    6.9090   31.1150 C   0  0  0  0  0  0  0  0  0  0  0  0
   22.0750    5.7720   31.1240 O   0  0  0  0  0  0  0  0  0  0  0  0
   23.8860    7.2050   30.6450 C   0  0  0  0  0  0  0  0  0  0  0  0
   24.0240    8.5140   30.8400 C   0  0  0  0  0  0  0  0  0  0  0  0
   25.2410    8.8450   30.4000 N   0  0  0  0  0  0  0  0  0  0  0  0
   25.8330    7.7560   29.9470 N   0  0  0  0  0  0  0  0  0  0  0  0
   25.0190    6.7140   30.0830 N   0  0  0  0  0  0  0  0  0  0  0  0
   22.8730    9.0100   31.4140 C   0  0  0  0  0  0  0  0  0  0  0  0
   22.6010   10.1960   31.7540 O   0  0  0  0  0  0  0  0  0  0  0  0
   25.6270    9.8290   30.4280 H   0  0  0  0  0  0  0  0  0  0  0  0
   26.7790    7.6990   29.5450 H   0  0  0  0  0  0  0  0  0  0  0  0
   25.2340    5.3410   29.7280 C   0  0  0  0  0  2  0  0  0  0  0  0
   25.4890    4.4280   30.8470 C   0  0  0  0  0  0  0  0  0  0  0  0
   26.6330    4.4170   31.3260 O   0  0  0  0  0  0  0  0  0  0  0  0
   24.4720    3.6100   31.3460 N   0  0  0  0  0  0  0  0  0  0  0  0
   23.4960    3.6750   30.8790 H   0  0  0  0  0  0  0  0  0  0  0  0
   24.5170    2.6740   32.4060 C   0  0  0  0  0  0  0  0  0  0  0  0
   25.3400    1.5730   32.3730 C   0  0  0  0  0  3  0  0  0  0  0  0
   25.4110    0.6270   33.3990 C   0  0  0  0  0  3  0  0  0  0  0  0
   24.6000    0.8400   34.4850 C   0  0  0  0  0  0  0  0  0  0  0  0
   23.7690    1.9310   34.5430 C   0  0  0  0  0  3  0  0  0  0  0  0
   24.6480   -0.4250   35.9390 Br  0  0  0  0  0  0  0  0  0  0  0  0
   23.7180    2.8440   33.5230 C   0  0  0  0  0  3  0  0  0  0  0  0
   20.6820    8.0880   32.1570 C   0  0  0  0  0  0  0  0  0  0  0  0
   19.7110    7.1220   32.0250 C   0  0  0  0  0  3  0  0  0  0  0  0
   18.4450    7.2690   32.5980 C   0  0  0  0  0  3  0  0  0  0  0  0
   18.1390    8.3920   33.3130 C   0  0  0  0  0  0  0  0  0  0  0  0
   16.8980    8.5260   33.8690 F   0  0  0  0  0  0  0  0  0  0  0  0
   19.0960    9.3700   33.4580 C   0  0  0  0  0  3  0  0  0  0  0  0
   20.3390    9.2150   32.8880 C   0  0  0  0  0  3  0  0  0  0  0  0
  1 25  1  0  0  0  0
  2  3  2  0  0  0  0
  2  1  1  0  0  0  0
  4  5  2  0  0  0  0
  4  2  1  0  0  0  0
  5  9  1  0  0  0  0
  6 11  1  0  0  0  0
  6  5  1  0  0  0  0
  7  8  1  0  0  0  0
  7  6  1  0  0  0  0
  8  4  1  0  0  0  0
  9  1  1  0  0  0  0
  9 10  2  0  0  0  0
 12  7  1  0  0  0  0
 13  8  1  0  0  0  0
 13 14  1  0  0  0  0
 14 15  2  0  0  0  0
 14 16  1  0  0  0  0
 16 18  1  0  0  0  0
 17 16  1  0  0  0  0
 18 24  1  0  0  0  0
 19 18  2  0  0  0  0
 19 20  1  0  0  0  0
 20 21  2  0  0  0  0
 21 22  1  0  0  0  0
 21 23  1  0  0  0  0
 24 22  2  0  0  0  0
 25 31  1  0  0  0  0
 26 25  2  0  0  0  0
 26 27  1  0  0  0  0
 27 28  2  0  0  0  0
 28 30  1  0  0  0  0
 28 29  1  0  0  0  0
 31 30  2  0  0  0  0
M  END
>  <Pose>
1

>  <Score>
-9.167

$$$$
