/Users/jonathanwahrer/Desktop/Msc/3_Semester/Drug_Design_Praktikum/waehrer_HTS_screening/HTS_experiment/out/docking_results/vina_output/3elj/0895_docked.pdbqt
 OpenBabel03192217573D

 28 31  0  0  1  0  0  0  0  0999 V2000
   21.8340    5.6800   30.8700 C   0  0  2  0  0  3  0  0  0  0  0  0
   22.3880    4.8350   31.9280 N   0  0  0  0  0  0  0  0  0  0  0  0
   23.6190    4.0960   31.7240 C   0  0  0  0  0  0  0  0  0  0  0  0
   24.3680    2.8140   32.5900 S   0  0  0  0  0  0  0  0  0  0  0  0
   25.7460    2.6080   31.6250 C   0  0  0  0  0  0  0  0  0  0  0  0
   25.5920    3.5490   30.6430 C   0  0  0  0  0  0  0  0  0  0  0  0
   24.4830    4.3190   30.7010 C   0  0  0  0  0  0  0  0  0  0  0  0
   24.0860    5.4060   29.7600 C   0  0  0  0  0  0  0  0  0  0  0  0
   24.8040    5.7150   28.7620 O   0  0  0  0  0  0  0  0  0  0  0  0
   22.8840    6.1050   29.9850 N   0  0  0  0  0  0  0  0  0  0  0  0
   26.7490    3.5290   29.6510 C   0  0  0  0  0  2  0  0  0  0  0  0
   28.0510    3.5680   30.4060 C   0  0  0  0  0  2  0  0  0  0  0  0
   28.0980    2.6930   31.5300 N   0  0  0  0  0  4  0  0  0  0  0  0
   26.9850    1.7500   31.5550 C   0  0  0  0  0  2  0  0  0  0  0  0
   27.9300    3.5240   32.7330 C   0  0  0  0  0  1  0  0  0  0  0  0
   21.9240    4.7370   32.8490 H   0  0  0  0  0  0  0  0  0  0  0  0
   22.7240    7.0130   29.4740 H   0  0  0  0  0  0  0  0  0  0  0  0
   29.0070    2.1680   31.6230 H   0  0  0  0  0  0  0  0  0  0  0  0
   21.3100    6.8940   31.5530 C   0  0  0  0  0  0  0  0  0  0  0  0
   22.1390    8.0060   31.6390 C   0  0  0  0  0  3  0  0  0  0  0  0
   21.7680    9.1710   32.2390 C   0  0  0  0  0  0  0  0  0  0  0  0
   20.4890    9.2340   32.7920 C   0  0  0  0  0  0  0  0  0  0  0  0
   19.6460    8.1440   32.7200 C   0  0  0  0  0  0  0  0  0  0  0  0
   20.0760   10.3990   33.4100 O   0  0  0  0  0  1  0  0  0  0  0  0
   17.7150    8.2610   33.5620 I   0  0  0  0  0  0  0  0  0  0  0  0
   20.0600    6.9750   32.1010 C   0  0  0  0  0  3  0  0  0  0  0  0
   22.5730   10.2980   32.3410 O   0  0  0  0  0  0  0  0  0  0  0  0
   23.9350   10.1910   31.9710 C   0  0  0  0  0  1  0  0  0  0  0  0
  1 19  1  1  0  0  0
  1  2  1  0  0  0  0
  2 16  1  0  0  0  0
  3  2  1  0  0  0  0
  3  4  1  0  0  0  0
  5  4  1  0  0  0  0
  6  7  1  0  0  0  0
  6  5  2  0  0  0  0
  7  3  2  0  0  0  0
  8 10  1  0  0  0  0
  8  7  1  0  0  0  0
  9  8  2  0  0  0  0
 10  1  1  0  0  0  0
 11 12  1  0  0  0  0
 11  6  1  0  0  0  0
 12 13  1  0  0  0  0
 13 14  1  0  0  0  0
 13 18  1  0  0  0  0
 13 15  1  0  0  0  0
 14  5  1  0  0  0  0
 17 10  1  0  0  0  0
 19 20  2  0  0  0  0
 19 26  1  0  0  0  0
 20 21  1  0  0  0  0
 21 27  1  0  0  0  0
 21 22  2  0  0  0  0
 22 24  1  0  0  0  0
 23 22  1  0  0  0  0
 23 25  1  0  0  0  0
 26 23  2  0  0  0  0
 28 27  1  0  0  0  0
M  END
>  <Pose>
1

>  <Score>
-8.223

$$$$
