/Users/jonathanwahrer/Desktop/Msc/3_Semester/Drug_Design_Praktikum/waehrer_HTS_screening/HTS_experiment/out/docking_results/vina_output/3elj/0908_docked.pdbqt
 OpenBabel03192217573D

 25 28  0  0  0  0  0  0  0  0999 V2000
   24.9490    6.1970   29.6020 N   0  0  0  0  0  0  0  0  0  0  0  0
   23.7450    6.2900   30.1920 C   0  0  0  0  0  0  0  0  0  0  0  0
   22.8650    5.3780   30.2060 O   0  0  0  0  0  0  0  0  0  0  0  0
   23.5720    7.5200   30.7940 C   0  0  0  0  0  0  0  0  0  0  0  0
   24.6920    8.1860   30.5650 C   0  0  0  0  0  0  0  0  0  0  0  0
   24.5090    9.3880   31.1610 N   0  0  0  0  0  0  0  0  0  0  0  0
   23.3190    9.4470   31.7310 N   0  0  0  0  0  0  0  0  0  0  0  0
   22.7230    8.3030   31.5160 N   0  0  0  0  0  0  0  0  0  0  0  0
   25.5480    7.3790   29.8320 C   0  0  0  0  0  0  0  0  0  0  0  0
   26.7120    7.7270   29.4470 O   0  0  0  0  0  0  0  0  0  0  0  0
   25.1960   10.1710   31.1810 H   0  0  0  0  0  0  0  0  0  0  0  0
   22.9250   10.2550   32.2540 H   0  0  0  0  0  0  0  0  0  0  0  0
   25.5080    5.0990   28.8790 C   0  0  0  0  0  0  0  0  0  0  0  0
   25.8730    3.9280   29.5120 C   0  0  0  0  0  0  0  0  0  0  0  0
   25.5700    3.8200   31.6040 I   0  0  0  0  0  0  0  0  0  0  0  0
   26.4150    2.8550   28.8340 C   0  0  0  0  0  3  0  0  0  0  0  0
   26.6160    2.9130   27.4710 C   0  0  0  0  0  3  0  0  0  0  0  0
   26.2560    4.0780   26.8270 C   0  0  0  0  0  3  0  0  0  0  0  0
   25.7130    5.1490   27.5150 C   0  0  0  0  0  3  0  0  0  0  0  0
   21.4280    7.8910   31.9330 C   0  0  0  0  0  0  0  0  0  0  0  0
   21.1060    6.5660   32.1210 C   0  0  0  0  0  3  0  0  0  0  0  0
   19.8340    6.1970   32.5280 C   0  0  0  0  0  3  0  0  0  0  0  0
   18.8450    7.1300   32.7610 C   0  0  0  0  0  3  0  0  0  0  0  0
   19.1650    8.4570   32.5740 C   0  0  0  0  0  3  0  0  0  0  0  0
   20.4230    8.8320   32.1690 C   0  0  0  0  0  3  0  0  0  0  0  0
  1  9  1  0  0  0  0
  1  2  1  0  0  0  0
  2  3  2  0  0  0  0
  2  4  1  0  0  0  0
  4  8  1  0  0  0  0
  5  4  2  0  0  0  0
  5  6  1  0  0  0  0
  6 11  1  0  0  0  0
  6  7  1  0  0  0  0
  7 12  1  0  0  0  0
  8  7  1  0  0  0  0
  8 20  1  0  0  0  0
  9  5  1  0  0  0  0
 10  9  2  0  0  0  0
 13 14  1  0  0  0  0
 13  1  1  0  0  0  0
 14 15  1  0  0  0  0
 16 14  2  0  0  0  0
 17 16  1  0  0  0  0
 18 17  2  0  0  0  0
 18 19  1  0  0  0  0
 19 13  2  0  0  0  0
 20 21  2  0  0  0  0
 20 25  1  0  0  0  0
 21 22  1  0  0  0  0
 22 23  2  0  0  0  0
 24 23  1  0  0  0  0
 25 24  2  0  0  0  0
M  END
>  <Pose>
1

>  <Score>
-7.559

$$$$
