/Users/jonathanwahrer/Desktop/Msc/3_Semester/Drug_Design_Praktikum/waehrer_HTS_screening/HTS_experiment/out/docking_results/vina_output/3elj/0910_docked.pdbqt
 OpenBabel03192217573D

 26 29  0  0  0  0  0  0  0  0999 V2000
   21.3860    9.9810   32.3610 C   0  0  0  0  0  0  0  0  0  0  0  0
   20.5760    8.8220   32.3570 C   0  0  0  0  0  0  0  0  0  0  0  0
   19.3390    8.6140   32.7930 N   0  0  0  0  0  0  0  0  0  0  0  0
   19.0310    7.3720   32.5690 O   0  0  0  0  0  0  0  0  0  0  0  0
   20.0120    6.7610   32.0090 N   0  0  0  0  0  0  0  0  0  0  0  0
   21.0110    7.6400   31.8550 C   0  0  0  0  0  0  0  0  0  0  0  0
   22.2800    7.5460   31.3280 C   0  0  0  0  0  0  0  0  0  0  0  0
   23.0910    8.6510   31.3190 C   0  0  0  0  0  3  0  0  0  0  0  0
   22.6610    9.8610   31.8260 C   0  0  0  0  0  3  0  0  0  0  0  0
   20.7660   11.1210   32.8310 N   0  0  0  0  0  0  0  0  0  0  0  0
   20.1690   12.2220   33.2840 C   0  0  0  0  0  0  0  0  0  0  0  0
   19.9070   12.4440   34.5370 O   0  0  0  0  0  0  0  0  0  0  0  0
   20.6770   10.5460   34.0620 H   0  0  0  0  0  0  0  0  0  0  0  0
   19.7000   13.3680   32.4580 C   0  0  0  0  0  0  0  0  0  0  0  0
   20.5140   14.1810   31.7000 C   0  0  0  0  0  0  0  0  0  0  0  0
   22.6340   14.0670   31.5540 I   0  0  0  0  0  0  0  0  0  0  0  0
   19.7070   15.0810   31.0480 C   0  0  0  0  0  3  0  0  0  0  0  0
   18.4600   14.7960   31.4180 N   0  0  0  0  0  0  0  0  0  0  0  0
   18.4420   13.7710   32.2620 N   0  0  0  0  0  0  0  0  0  0  0  0
   17.1970   13.1970   32.8050 C   0  0  0  0  0  1  0  0  0  0  0  0
   22.6950    6.3030   30.8260 N   0  0  0  0  0  0  0  0  0  0  0  0
   22.2290    5.0310   31.3770 C   0  0  0  0  0  2  0  0  0  0  0  0
   23.4810    4.3630   31.9080 C   0  0  0  0  0  2  0  0  0  0  0  0
   24.6370    5.0950   31.6910 O   0  0  0  0  0  0  0  0  0  0  0  0
   24.8550    5.4770   30.3840 C   0  0  0  0  0  2  0  0  0  0  0  0
   23.6150    6.0660   29.7360 C   0  0  0  0  0  2  0  0  0  0  0  0
  1 10  1  0  0  0  0
  2  1  1  0  0  0  0
  2  3  2  0  0  0  0
  4  3  1  0  0  0  0
  5  4  1  0  0  0  0
  6  5  2  0  0  0  0
  6  2  1  0  0  0  0
  7  6  1  0  0  0  0
  8  7  2  0  0  0  0
  8  9  1  0  0  0  0
  9  1  2  0  0  0  0
 10 11  1  0  0  0  0
 10 13  1  0  0  0  0
 11 12  2  0  0  0  0
 14 11  1  0  0  0  0
 15 14  2  0  0  0  0
 16 15  1  0  0  0  0
 17 18  2  0  0  0  0
 17 15  1  0  0  0  0
 18 19  1  0  0  0  0
 19 14  1  0  0  0  0
 19 20  1  0  0  0  0
 21  7  1  0  0  0  0
 21 22  1  0  0  0  0
 22 23  1  0  0  0  0
 24 23  1  0  0  0  0
 25 24  1  0  0  0  0
 26 25  1  0  0  0  0
 26 21  1  0  0  0  0
M  END
>  <Pose>
1

>  <Score>
-8.347

$$$$
