/Users/jonathanwahrer/Desktop/Msc/3_Semester/Drug_Design_Praktikum/waehrer_HTS_screening/HTS_experiment/out/docking_results/vina_output/3elj/0920_docked.pdbqt
 OpenBabel03192217573D

 24 27  0  0  1  0  0  0  0  0999 V2000
   24.9040    7.7580   29.7700 N   0  0  0  0  0  0  0  0  0  0  0  0
   24.2570    8.4620   30.6450 C   0  0  1  0  0  3  0  0  0  0  0  0
   24.4420    9.9320   31.6670 S   0  0  0  0  0  0  0  0  0  0  0  0
   22.8280    9.7760   32.3960 C   0  0  0  0  0  3  0  0  0  0  0  0
   22.2370    8.7140   31.8950 C   0  0  0  0  0  0  0  0  0  0  0  0
   22.9810    7.9770   30.9410 N   0  0  0  0  0  0  0  0  0  0  0  0
   22.7970    6.7640   30.1040 C   0  0  0  0  0  3  0  0  0  0  0  0
   24.1010    6.6260   29.3980 C   0  0  0  0  0  3  0  0  0  0  0  0
   26.2060    8.0340   29.2910 C   0  0  0  0  0  2  0  0  0  0  0  0
   27.1400    6.9840   28.9790 C   0  0  1  0  0  3  0  0  0  0  0  0
   28.3690    7.4150   28.8820 O   0  0  0  0  0  1  0  0  0  0  0  0
   26.9970    5.5710   28.7550 C   0  0  0  0  0  0  0  0  0  0  0  0
   27.2070    4.6460   29.7320 C   0  0  0  0  0  3  0  0  0  0  0  0
   27.0790    3.3060   29.4800 C   0  0  0  0  0  3  0  0  0  0  0  0
   26.7340    2.8070   28.2390 C   0  0  0  0  0  0  0  0  0  0  0  0
   26.5290    0.7820   27.8050 I   0  0  0  0  0  0  0  0  0  0  0  0
   26.5200    3.7620   27.2440 C   0  0  0  0  0  3  0  0  0  0  0  0
   26.6480    5.0870   27.4960 C   0  0  0  0  0  3  0  0  0  0  0  0
   20.8630    8.3880   32.3780 C   0  0  0  0  0  0  0  0  0  0  0  0
   20.3810    7.1050   32.4030 C   0  0  0  0  0  3  0  0  0  0  0  0
   19.0870    6.8010   32.8680 C   0  0  0  0  0  3  0  0  0  0  0  0
   18.2600    7.8040   33.3170 C   0  0  0  0  0  3  0  0  0  0  0  0
   18.7370    9.0910   33.2940 C   0  0  0  0  0  3  0  0  0  0  0  0
   20.0150    9.3810   32.8340 C   0  0  0  0  0  3  0  0  0  0  0  0
  1  2  1  0  0  0  0
  2  6  1  0  0  0  0
  2  3  1  6  0  0  0
  3  4  1  0  0  0  0
  5 19  1  0  0  0  0
  5  4  2  0  0  0  0
  6  5  1  0  0  0  0
  7  6  1  0  0  0  0
  8  1  1  0  0  0  0
  8  7  2  0  0  0  0
  9  1  1  0  0  0  0
 10 11  1  1  0  0  0
 10  9  1  0  0  0  0
 12 10  1  0  0  0  0
 12 13  1  0  0  0  0
 14 13  2  0  0  0  0
 15 14  1  0  0  0  0
 16 15  1  0  0  0  0
 17 18  1  0  0  0  0
 17 15  2  0  0  0  0
 18 12  2  0  0  0  0
 19 20  2  0  0  0  0
 19 24  1  0  0  0  0
 20 21  1  0  0  0  0
 21 22  2  0  0  0  0
 23 22  1  0  0  0  0
 24 23  2  0  0  0  0
M  END
>  <Pose>
1

>  <Score>
-7.918

$$$$
