/Users/jonathanwahrer/Desktop/Msc/3_Semester/Drug_Design_Praktikum/waehrer_HTS_screening/HTS_experiment/out/docking_results/vina_output/3elj/0937_docked.pdbqt
 OpenBabel03192217583D

 26 29  0  0  1  0  0  0  0  0999 V2000
   23.7870    5.1500   30.8710 N   0  0  0  0  0  0  0  0  0  0  0  0
   24.5960    6.1700   30.3080 C   0  0  0  0  0  0  0  0  0  0  0  0
   25.8270    6.0410   30.0840 O   0  0  0  0  0  0  0  0  0  0  0  0
   23.7630    7.3750   30.0360 C   0  0  1  0  0  3  0  0  0  0  0  0
   22.4020    6.7510   29.7820 C   0  0  0  0  0  2  0  0  0  0  0  0
   22.4460    5.4610   30.4980 C   0  0  0  0  0  0  0  0  0  0  0  0
   21.4600    4.7120   30.7600 O   0  0  0  0  0  0  0  0  0  0  0  0
   23.8030    8.2070   31.1670 N   0  0  1  0  0  0  0  0  0  0  0  0
   24.8580    9.0930   31.3780 C   0  0  0  0  0  2  0  0  0  0  0  0
   24.3120   10.2460   32.2610 C   0  0  0  0  0  2  0  0  0  0  0  0
   23.0690   10.7140   31.6670 N   0  0  0  0  0  0  0  0  0  0  0  0
   22.0060    9.7460   31.5540 C   0  0  0  0  0  2  0  0  0  0  0  0
   22.6030    8.3800   31.8810 C   0  0  0  0  0  2  0  0  0  0  0  0
   22.9260   12.0450   31.2220 C   0  0  0  0  0  0  0  0  0  0  0  0
   21.8890   12.8140   31.6530 N   0  0  0  0  0  0  0  0  0  0  0  0
   21.7070   14.0780   31.2780 C   0  0  0  0  0  3  0  0  0  0  0  0
   22.5990   14.6800   30.4000 C   0  0  0  0  0  3  0  0  0  0  0  0
   23.6510   13.8930   29.9660 C   0  0  0  0  0  3  0  0  0  0  0  0
   23.7970   12.6240   30.3700 N   0  0  0  0  0  0  0  0  0  0  0  0
   24.2010    4.0200   31.6610 C   0  0  0  0  0  0  0  0  0  0  0  0
   23.4590    3.6530   32.7640 C   0  0  0  0  0  3  0  0  0  0  0  0
   23.8170    2.5780   33.5530 C   0  0  0  0  0  3  0  0  0  0  0  0
   24.9370    1.8290   33.2620 C   0  0  0  0  0  0  0  0  0  0  0  0
   25.5200    0.1750   34.4420 I   0  0  0  0  0  0  0  0  0  0  0  0
   25.6910    2.1810   32.1640 C   0  0  0  0  0  3  0  0  0  0  0  0
   25.3140    3.2600   31.3890 C   0  0  0  0  0  3  0  0  0  0  0  0
  1 20  1  0  0  0  0
  2  1  1  0  0  0  0
  3  2  2  0  0  0  0
  4  5  1  1  0  0  0
  4  2  1  0  0  0  0
  4  8  1  0  0  0  0
  5  6  1  0  0  0  0
  6  7  2  0  0  0  0
  6  1  1  0  0  0  0
  8  9  1  6  0  0  0
  8 13  1  0  0  0  0
  9 10  1  0  0  0  0
 11 10  1  0  0  0  0
 12 11  1  0  0  0  0
 12 13  1  0  0  0  0
 14 15  2  0  0  0  0
 14 11  1  0  0  0  0
 16 15  1  0  0  0  0
 17 16  2  0  0  0  0
 18 19  2  0  0  0  0
 18 17  1  0  0  0  0
 19 14  1  0  0  0  0
 20 21  1  0  0  0  0
 21 22  2  0  0  0  0
 23 22  1  0  0  0  0
 23 24  1  0  0  0  0
 25 23  2  0  0  0  0
 26 20  2  0  0  0  0
 26 25  1  0  0  0  0
M  END
>  <Pose>
1

>  <Score>
-7.828

$$$$
