/Users/jonathanwahrer/Desktop/Msc/3_Semester/Drug_Design_Praktikum/waehrer_HTS_screening/HTS_experiment/out/docking_results/vina_output/3elj/0950_docked.pdbqt
 OpenBabel03192217583D

 26 29  0  0  0  0  0  0  0  0999 V2000
   23.0830   10.6460   30.3490 C   0  0  0  0  0  0  0  0  0  0  0  0
   23.6640   11.7740   29.7600 C   0  0  0  0  0  0  0  0  0  0  0  0
   24.5430   11.8980   28.7510 N   0  0  0  0  0  0  0  0  0  0  0  0
   24.7840   13.1630   28.5680 O   0  0  0  0  0  0  0  0  0  0  0  0
   24.1040   13.8770   29.4100 N   0  0  0  0  0  0  0  0  0  0  0  0
   23.3820   13.0450   30.1850 C   0  0  0  0  0  0  0  0  0  0  0  0
   22.4990   13.2410   31.2250 C   0  0  0  0  0  0  0  0  0  0  0  0
   21.9330   12.1280   31.7950 C   0  0  0  0  0  3  0  0  0  0  0  0
   22.2160   10.8240   31.3690 C   0  0  0  0  0  3  0  0  0  0  0  0
   23.4480    9.3830   29.8290 N   0  0  0  0  0  0  0  0  0  0  0  0
   24.4910    8.5710   30.2520 C   0  0  0  0  0  0  0  0  0  0  0  0
   25.2460    8.9520   31.2120 O   0  0  0  0  0  0  0  0  0  0  0  0
   22.8790    8.9960   29.0120 H   0  0  0  0  0  0  0  0  0  0  0  0
   24.8250    7.2570   29.6720 C   0  0  0  0  0  0  0  0  0  0  0  0
   24.2600    6.0360   29.8000 C   0  0  0  0  0  0  0  0  0  0  0  0
   22.6350    5.4730   30.9780 I   0  0  0  0  0  0  0  0  0  0  0  0
   24.9830    5.1580   28.9930 C   0  0  0  0  0  3  0  0  0  0  0  0
   25.9600    5.8420   28.3960 N   0  0  0  0  0  0  0  0  0  0  0  0
   25.8710    7.0810   28.7950 N   0  0  0  0  0  0  0  0  0  0  0  0
   26.9400    5.2670   27.4650 C   0  0  0  0  0  1  0  0  0  0  0  0
   22.2190   14.5640   31.6500 N   0  0  0  0  0  0  0  0  0  0  0  0
   22.9310   15.1450   32.7700 C   0  0  0  0  0  2  0  0  0  0  0  0
   22.4970   16.5590   32.9390 C   0  0  0  0  0  2  0  0  0  0  0  0
   22.5080   17.3000   31.7740 O   0  0  0  0  0  0  0  0  0  0  0  0
   21.7580   16.7950   30.7600 C   0  0  0  0  0  2  0  0  0  0  0  0
   21.2280   15.4050   31.0080 C   0  0  0  0  0  2  0  0  0  0  0  0
  1  9  2  0  0  0  0
  2  6  1  0  0  0  0
  2  1  1  0  0  0  0
  3  2  2  0  0  0  0
  4  3  1  0  0  0  0
  4  5  1  0  0  0  0
  5  6  2  0  0  0  0
  6  7  1  0  0  0  0
  7 21  1  0  0  0  0
  7  8  2  0  0  0  0
  9  8  1  0  0  0  0
 10 11  1  0  0  0  0
 10  1  1  0  0  0  0
 11 12  2  0  0  0  0
 13 10  1  0  0  0  0
 14 15  1  0  0  0  0
 14 11  1  0  0  0  0
 15 16  1  0  0  0  0
 17 15  2  0  0  0  0
 18 19  1  0  0  0  0
 18 17  1  0  0  0  0
 19 14  2  0  0  0  0
 20 18  1  0  0  0  0
 21 22  1  0  0  0  0
 22 23  1  0  0  0  0
 24 23  1  0  0  0  0
 25 26  1  0  0  0  0
 25 24  1  0  0  0  0
 26 21  1  0  0  0  0
M  END
>  <Pose>
1

>  <Score>
-7.956

$$$$
