/Users/jonathanwahrer/Desktop/Msc/3_Semester/Drug_Design_Praktikum/waehrer_HTS_screening/HTS_experiment/out/docking_results/vina_output/3elj/0956_docked.pdbqt
 OpenBabel03192217583D

 30 33  0  0  1  0  0  0  0  0999 V2000
   22.7580    5.2320   31.0500 I   0  0  0  0  0  0  0  0  0  0  0  0
   24.3890    6.1720   30.1020 C   0  0  0  0  0  0  0  0  0  0  0  0
   24.7610    7.4770   30.2380 C   0  0  0  0  0  0  0  0  0  0  0  0
   25.8830    7.6080   29.4180 C   0  0  0  0  0  0  0  0  0  0  0  0
   26.1900    6.4590   28.8130 N   0  0  0  0  0  0  0  0  0  0  0  0
   25.2800    5.5760   29.2260 C   0  0  0  0  0  3  0  0  0  0  0  0
   26.4710    8.8140   29.3570 N   0  0  0  0  0  0  0  0  0  0  0  0
   25.9950    9.8550   30.0580 C   0  0  0  0  0  3  0  0  0  0  0  0
   24.9200    9.7260   30.8410 N   0  0  0  0  0  0  0  0  0  0  0  0
   24.2590    8.5330   30.9630 C   0  0  0  0  0  0  0  0  0  0  0  0
   27.2600    6.1820   27.9030 C   0  0  2  0  0  3  0  0  0  0  0  0
   27.3680    7.1050   26.8700 O   0  0  0  0  0  0  0  0  0  0  0  0
   28.3640    6.5470   26.0730 C   0  0  1  0  0  3  0  0  0  0  0  0
   28.1210    5.0560   26.0450 C   0  0  2  0  0  3  0  0  0  0  0  0
   27.0300    4.8930   27.1100 C   0  0  0  0  0  2  0  0  0  0  0  0
   28.2090    7.0360   24.6260 C   0  0  0  0  0  2  0  0  0  0  0  0
   28.2900    5.9320   23.7670 O   0  0  0  0  0  0  0  0  0  0  0  0
   28.8770    6.1390   22.9740 H   0  0  0  0  0  0  0  0  0  0  0  0
   29.2270    4.3430   26.5090 O   0  0  0  0  0  0  0  0  0  0  0  0
   28.8840    3.7940   27.2800 H   0  0  0  0  0  0  0  0  0  0  0  0
   23.1190    8.4540   31.8120 N   0  0  0  0  0  0  0  0  0  0  0  0
   21.8810    8.9810   31.3430 C   0  0  0  0  0  0  0  0  0  0  0  0
   21.8700    9.4900   30.1930 O   0  0  0  0  0  0  0  0  0  0  0  0
   23.1010    8.0460   32.7510 H   0  0  0  0  0  0  0  0  0  0  0  0
   20.6570    8.9680   32.0950 C   0  0  0  0  0  0  0  0  0  0  0  0
   19.7980    7.9050   32.0360 C   0  0  0  0  0  3  0  0  0  0  0  0
   18.6060    7.8750   32.7630 C   0  0  0  0  0  3  0  0  0  0  0  0
   18.2810    8.9340   33.5590 C   0  0  0  0  0  3  0  0  0  0  0  0
   19.1220   10.0130   33.6380 C   0  0  0  0  0  3  0  0  0  0  0  0
   20.3110   10.0220   32.9010 C   0  0  0  0  0  3  0  0  0  0  0  0
  2  3  1  0  0  0  0
  2  1  1  0  0  0  0
  3 10  1  0  0  0  0
  4  3  2  0  0  0  0
  5  6  1  0  0  0  0
  5  4  1  0  0  0  0
  6  2  2  0  0  0  0
  7  4  1  0  0  0  0
  7  8  2  0  0  0  0
  8  9  1  0  0  0  0
  9 10  2  0  0  0  0
 10 21  1  0  0  0  0
 11 15  1  6  0  0  0
 11  5  1  0  0  0  0
 12 11  1  0  0  0  0
 13 16  1  6  0  0  0
 13 12  1  0  0  0  0
 14 13  1  0  0  0  0
 14 19  1  1  0  0  0
 14 15  1  0  0  0  0
 17 16  1  0  0  0  0
 18 17  1  0  0  0  0
 19 20  1  0  0  0  0
 21 24  1  0  0  0  0
 22 21  1  0  0  0  0
 22 25  1  0  0  0  0
 23 22  2  0  0  0  0
 25 30  1  0  0  0  0
 26 25  2  0  0  0  0
 26 27  1  0  0  0  0
 27 28  2  0  0  0  0
 28 29  1  0  0  0  0
 30 29  2  0  0  0  0
M  END
>  <Pose>
1

>  <Score>
-8.608

$$$$
