/Users/jonathanwahrer/Desktop/Msc/3_Semester/Drug_Design_Praktikum/waehrer_HTS_screening/HTS_experiment/out/docking_results/vina_output/3elj/0978_docked.pdbqt
 OpenBabel03192217593D

 33 37  0  0  1  0  0  0  0  0999 V2000
   27.7500    4.4880   27.2790 I   0  0  0  0  0  0  0  0  0  0  0  0
   28.3910    6.4180   26.7080 C   0  0  0  0  0  0  0  0  0  0  0  0
   27.8290    7.4980   27.3810 C   0  0  0  0  0  0  0  0  0  0  0  0
   28.2210    8.7500   27.0370 C   0  0  0  0  0  0  0  0  0  0  0  0
   29.1690    8.9110   26.0220 C   0  0  0  0  0  3  0  0  0  0  0  0
   29.7300    7.8470   25.3500 C   0  0  0  0  0  0  0  0  0  0  0  0
   29.3270    6.5760   25.7070 C   0  0  0  0  0  0  0  0  0  0  0  0
   29.8780    5.4910   25.0430 O   0  0  0  0  0  1  0  0  0  0  0  0
   31.1650    8.1450   23.8180 I   0  0  0  0  0  0  0  0  0  0  0  0
   27.7000    9.9450   27.6740 C   0  0  2  0  0  0  0  0  0  0  0  0
   27.0590   10.8080   26.7230 O   0  0  0  0  0  0  0  0  0  0  0  0
   27.6240   12.0560   26.6950 C   0  0  0  0  0  0  0  0  0  0  0  0
   27.3230   13.0620   25.9890 O   0  0  0  0  0  0  0  0  0  0  0  0
   28.6990   12.0390   27.6750 C   0  0  0  0  0  0  0  0  0  0  0  0
   28.7470   10.8050   28.2500 C   0  0  0  0  0  0  0  0  0  0  0  0
   29.6970   10.5200   29.2310 C   0  0  0  0  0  0  0  0  0  0  0  0
   30.6040   11.4740   29.6410 C   0  0  0  0  0  0  0  0  0  0  0  0
   30.5530   12.7340   29.0520 C   0  0  0  0  0  0  0  0  0  0  0  0
   29.6200   13.0180   28.0870 C   0  0  0  0  0  0  0  0  0  0  0  0
   29.5710   14.5820   27.3680 Cl  0  0  0  0  0  0  0  0  0  0  0  0
   31.6700   13.9830   29.5260 Cl  0  0  0  0  0  0  0  0  0  0  0  0
   31.7800   11.0820   30.8740 Cl  0  0  0  0  0  0  0  0  0  0  0  0
   29.7010    8.9310   29.9200 Cl  0  0  0  0  0  0  0  0  0  0  0  0
   26.7030    9.6250   28.7310 C   0  0  0  0  0  0  0  0  0  0  0  0
   26.3350    8.3620   29.0500 C   0  0  0  0  0  0  0  0  0  0  0  0
   25.3900    8.2040   30.0610 C   0  0  0  0  0  0  0  0  0  0  0  0
   24.8290    9.2660   30.7330 C   0  0  0  0  0  0  0  0  0  0  0  0
   25.2290   10.5400   30.3810 C   0  0  0  0  0  0  0  0  0  0  0  0
   26.1560   10.7330   29.3900 C   0  0  0  0  0  3  0  0  0  0  0  0
   24.3880   12.1860   31.3920 I   0  0  0  0  0  0  0  0  0  0  0  0
   23.8990    9.1100   31.7290 O   0  0  0  0  0  1  0  0  0  0  0  0
   24.8110    6.2500   30.5650 I   0  0  0  0  0  0  0  0  0  0  0  0
   26.8780    7.2710   28.3950 O   0  0  0  0  0  0  0  0  0  0  0  0
  2  1  1  0  0  0  0
  2  3  1  0  0  0  0
  3 33  1  0  0  0  0
  4  3  2  0  0  0  0
  4 10  1  0  0  0  0
  5  4  1  0  0  0  0
  6  7  1  0  0  0  0
  6  5  2  0  0  0  0
  7  2  2  0  0  0  0
  8  7  1  0  0  0  0
  9  6  1  0  0  0  0
 10 11  1  6  0  0  0
 10 15  1  0  0  0  0
 10 24  1  0  0  0  0
 12 11  1  0  0  0  0
 12 14  1  0  0  0  0
 13 12  2  0  0  0  0
 14 19  2  0  0  0  0
 14 15  1  0  0  0  0
 15 16  2  0  0  0  0
 16 17  1  0  0  0  0
 16 23  1  0  0  0  0
 17 22  1  0  0  0  0
 18 21  1  0  0  0  0
 18 17  2  0  0  0  0
 19 18  1  0  0  0  0
 20 19  1  0  0  0  0
 24 25  2  0  0  0  0
 24 29  1  0  0  0  0
 25 26  1  0  0  0  0
 26 32  1  0  0  0  0
 26 27  2  0  0  0  0
 27 31  1  0  0  0  0
 28 27  1  0  0  0  0
 28 30  1  0  0  0  0
 29 28  2  0  0  0  0
 33 25  1  0  0  0  0
M  END
>  <Pose>
1

>  <Score>
-6.320

$$$$
