/Users/jonathanwahrer/Desktop/Msc/3_Semester/Drug_Design_Praktikum/waehrer_HTS_screening/HTS_experiment/out/docking_results/vina_output/3elj/0979_docked.pdbqt
 OpenBabel03192217593D

 29 33  0  0  1  0  0  0  0  0999 V2000
   23.2460    6.9770   30.0570 I   0  0  0  0  0  0  0  0  0  0  0  0
   24.3310    8.7960   30.0130 C   0  0  0  0  0  0  0  0  0  0  0  0
   25.6270    8.7320   29.4720 C   0  0  0  0  0  0  0  0  0  0  0  0
   26.3440    9.8860   29.4320 C   0  0  0  0  0  0  0  0  0  0  0  0
   25.7690   11.0710   29.9250 C   0  0  0  0  0  3  0  0  0  0  0  0
   24.5050   11.1310   30.4510 C   0  0  0  0  0  0  0  0  0  0  0  0
   23.7780    9.9610   30.4910 C   0  0  0  0  0  0  0  0  0  0  0  0
   22.4950    9.9860   31.0180 O   0  0  0  0  0  1  0  0  0  0  0  0
   23.6990   12.9520   31.1760 I   0  0  0  0  0  0  0  0  0  0  0  0
   27.7060    9.9220   28.8860 C   0  0  2  0  0  0  0  0  0  0  0  0
   28.6220   10.5020   29.7960 O   0  0  0  0  0  0  0  0  0  0  0  0
   29.2160   11.6290   29.2940 C   0  0  0  0  0  0  0  0  0  0  0  0
   30.0700   12.3810   29.8350 O   0  0  0  0  0  0  0  0  0  0  0  0
   28.6770   11.8380   27.9570 C   0  0  0  0  0  0  0  0  0  0  0  0
   27.7890   10.8420   27.7090 C   0  0  0  0  0  0  0  0  0  0  0  0
   27.1340   10.8300   26.4720 C   0  0  0  0  0  3  0  0  0  0  0  0
   27.3930   11.8090   25.5410 C   0  0  0  0  0  3  0  0  0  0  0  0
   28.2940   12.8220   25.7920 C   0  0  0  0  0  3  0  0  0  0  0  0
   28.9430   12.8440   27.0020 C   0  0  0  0  0  3  0  0  0  0  0  0
   28.1780    8.6110   28.4080 C   0  0  0  0  0  0  0  0  0  0  0  0
   27.4140    7.4970   28.4750 C   0  0  0  0  0  0  0  0  0  0  0  0
   27.9250    6.2920   28.0060 C   0  0  0  0  0  0  0  0  0  0  0  0
   29.1840    6.2250   27.4790 C   0  0  0  0  0  0  0  0  0  0  0  0
   29.9880    7.3380   27.3950 C   0  0  0  0  0  0  0  0  0  0  0  0
   29.4640    8.5110   27.8640 C   0  0  0  0  0  3  0  0  0  0  0  0
   31.9360    7.2290   26.5790 I   0  0  0  0  0  0  0  0  0  0  0  0
   29.6690    5.0090   27.0160 O   0  0  0  0  0  1  0  0  0  0  0  0
   26.7170    4.5450   28.1150 I   0  0  0  0  0  0  0  0  0  0  0  0
   26.1140    7.5080   29.0070 O   0  0  0  0  0  0  0  0  0  0  0  0
  2  1  1  0  0  0  0
  2  7  1  0  0  0  0
  3  2  2  0  0  0  0
  4  3  1  0  0  0  0
  4  5  2  0  0  0  0
  5  6  1  0  0  0  0
  6  7  2  0  0  0  0
  6  9  1  0  0  0  0
  7  8  1  0  0  0  0
 10 15  1  6  0  0  0
 10  4  1  0  0  0  0
 10 11  1  0  0  0  0
 12 11  1  0  0  0  0
 12 13  2  0  0  0  0
 14 12  1  0  0  0  0
 15 14  1  0  0  0  0
 16 15  2  0  0  0  0
 17 18  2  0  0  0  0
 17 16  1  0  0  0  0
 18 19  1  0  0  0  0
 19 14  2  0  0  0  0
 20 21  1  0  0  0  0
 20 10  1  0  0  0  0
 21 29  1  0  0  0  0
 22 28  1  0  0  0  0
 22 21  2  0  0  0  0
 23 22  1  0  0  0  0
 24 23  2  0  0  0  0
 24 25  1  0  0  0  0
 25 20  2  0  0  0  0
 26 24  1  0  0  0  0
 27 23  1  0  0  0  0
 29  3  1  0  0  0  0
M  END
>  <Pose>
1

>  <Score>
-6.880

$$$$
