/Users/jonathanwahrer/Desktop/Msc/3_Semester/Drug_Design_Praktikum/waehrer_HTS_screening/HTS_experiment/out/docking_results/vina_output/3elj/0985_docked.pdbqt
 OpenBabel03192217593D

 28 31  0  0  1  0  0  0  0  0999 V2000
   22.4630    9.5340   31.5160 N   0  0  0  0  0  0  0  0  0  0  0  0
   21.4620    8.7110   31.8500 C   0  0  0  0  0  0  0  0  0  0  0  0
   20.2050    8.9520   32.3120 N   0  0  0  0  0  0  0  0  0  0  0  0
   19.3330    7.9880   32.5940 C   0  0  0  0  0  0  0  0  0  0  0  0
   19.7120    6.7090   32.4150 N   0  0  0  0  0  0  0  0  0  0  0  0
   20.9430    6.3990   31.9590 C   0  0  0  0  0  0  0  0  0  0  0  0
   21.8480    7.3980   31.6660 C   0  0  0  0  0  0  0  0  0  0  0  0
   23.1090    7.4460   31.2120 N   0  0  0  0  0  0  0  0  0  0  0  0
   23.4790    8.7450   31.1230 C   0  0  0  0  0  0  0  0  0  0  0  0
   25.1810    9.3940   30.5300 Br  0  0  0  0  0  0  0  0  0  0  0  0
   22.3710   10.9710   31.5990 C   0  0  2  0  0  3  0  0  0  0  0  0
   21.2540   11.3850   32.3230 O   0  0  0  0  0  0  0  0  0  0  0  0
   21.3260   12.7480   32.1770 C   0  0  1  0  0  3  0  0  0  0  0  0
   21.4090   12.8920   30.6520 C   0  0  1  0  0  3  0  0  0  0  0  0
   20.1420   13.5040   32.6490 C   0  0  0  0  0  2  0  0  0  0  0  0
   22.2160   14.0030   30.4190 O   0  0  0  0  0  0  0  0  0  0  0  0
   22.0780   11.5990   30.2380 C   0  0  1  0  0  3  0  0  0  0  0  0
   21.7820   15.1650   31.5910 P   0  0  2  0  0  0  0  0  0  0  0  0
   22.8880   15.3490   32.6070 O   0  0  0  0  0  1  0  0  0  0  0  0
   20.2990   14.8440   32.2810 O   0  0  0  0  0  0  0  0  0  0  0  0
   21.6670   16.6490   30.7470 O   0  0  0  0  0  0  0  0  0  0  0  0
   23.2110   11.7880   29.4870 O   0  0  0  0  0  0  0  0  0  0  0  0
   23.4610   12.7660   29.4830 H   0  0  0  0  0  0  0  0  0  0  0  0
   18.0270    8.2910   33.0770 N   0  0  0  0  0  0  0  0  0  0  0  0
   17.7200    9.2840   32.9960 H   0  0  0  0  0  0  0  0  0  0  0  0
   17.3970    7.5620   33.4950 H   0  0  0  0  0  0  0  0  0  0  0  0
   21.3390    5.0780   31.7710 O   0  0  0  0  0  0  0  0  0  0  0  0
   22.2560    4.9440   31.3200 H   0  0  0  0  0  0  0  0  0  0  0  0
  1  2  1  0  0  0  0
  2  3  1  0  0  0  0
  3  4  2  0  0  0  0
  4 24  1  0  0  0  0
  5  4  1  0  0  0  0
  6  5  2  0  0  0  0
  7  2  2  0  0  0  0
  7  6  1  0  0  0  0
  8  7  1  0  0  0  0
  9  8  2  0  0  0  0
  9  1  1  0  0  0  0
 10  9  1  0  0  0  0
 11  1  1  6  0  0  0
 11 12  1  0  0  0  0
 13 12  1  0  0  0  0
 13 15  1  6  0  0  0
 14 16  1  1  0  0  0
 14 13  1  0  0  0  0
 16 18  1  0  0  0  0
 17 22  1  1  0  0  0
 17 14  1  0  0  0  0
 17 11  1  0  0  0  0
 18 21  2  6  0  0  0
 18 20  1  0  0  0  0
 18 19  1  0  0  0  0
 20 15  1  0  0  0  0
 23 22  1  0  0  0  0
 24 26  1  0  0  0  0
 25 24  1  0  0  0  0
 27  6  1  0  0  0  0
 28 27  1  0  0  0  0
M  END
>  <Pose>
1

>  <Score>
-8.783

$$$$
