/Users/jonathanwahrer/Desktop/Msc/3_Semester/Drug_Design_Praktikum/waehrer_HTS_screening/HTS_experiment/out/docking_results/vina_output/3elj/0991_docked.pdbqt
 OpenBabel03192218003D

 34 39  0  0  1  0  0  0  0  0999 V2000
   26.2990    5.3490   29.8340 N   0  0  0  0  0  0  0  0  0  0  0  0
   25.1920    6.0630   30.1580 C   0  0  0  0  0  0  0  0  0  0  0  0
   25.2110    7.2950   29.5390 C   0  0  0  0  0  0  0  0  0  0  0  0
   26.3570    7.3160   28.8290 N   0  0  0  0  0  0  0  0  0  0  0  0
   27.0040    6.1470   29.0120 C   0  0  0  0  0  0  0  0  0  0  0  0
   28.6770    5.6210   28.2490 Br  0  0  0  0  0  0  0  0  0  0  0  0
   24.1660    8.1750   29.7440 C   0  0  0  0  0  0  0  0  0  0  0  0
   24.1720    9.2950   29.1880 O   0  0  0  0  0  0  0  0  0  0  0  0
   23.1130    7.8710   30.5360 N   0  0  0  0  0  0  0  0  0  0  0  0
   23.1160    6.6640   31.1300 C   0  0  0  0  0  0  0  0  0  0  0  0
   21.9810    6.6090   31.8490 N   0  0  0  0  0  0  0  0  0  0  0  0
   21.2600    7.7380   31.7320 C   0  0  0  0  0  0  0  0  0  0  0  0
   21.9870    8.5510   30.8880 C   0  0  0  0  0  3  0  0  0  0  0  0
   24.1370    5.7820   30.9410 N   0  0  0  0  0  0  0  0  0  0  0  0
   24.1340    4.8450   31.4030 H   0  0  0  0  0  0  0  0  0  0  0  0
   26.6590    4.0040   30.2760 C   0  0  2  0  0  3  0  0  0  0  0  0
   25.5280    3.2830   30.6530 O   0  0  0  0  0  0  0  0  0  0  0  0
   25.9150    2.3230   31.5460 C   0  0  1  0  0  3  0  0  0  0  0  0
   27.0160    3.0000   32.3670 C   0  0  1  0  0  3  0  0  0  0  0  0
   24.8380    1.9270   32.5280 C   0  0  0  0  0  2  0  0  0  0  0  0
   27.9060    1.9900   32.7210 O   0  0  0  0  0  0  0  0  0  0  0  0
   27.6060    4.0060   31.4260 C   0  0  1  0  0  3  0  0  0  0  0  0
   26.9640    0.6620   33.2070 P   0  0  1  0  0  0  0  0  0  0  0  0
   27.6120    0.0670   34.7050 S   0  0  0  0  0  1  0  0  0  0  0  0
   25.3650    1.1160   33.5080 O   0  0  0  0  0  0  0  0  0  0  0  0
   26.9380   -0.5450   32.0250 O   0  0  0  0  0  0  0  0  0  0  0  0
   28.8900    3.6110   31.0280 O   0  0  0  0  0  0  0  0  0  0  0  0
   29.3390    3.0750   31.7120 H   0  0  0  0  0  0  0  0  0  0  0  0
   19.9710    8.0480   32.3670 C   0  0  0  0  0  0  0  0  0  0  0  0
   19.7970    9.2360   33.0390 C   0  0  0  0  0  3  0  0  0  0  0  0
   18.5900    9.5570   33.6480 C   0  0  0  0  0  3  0  0  0  0  0  0
   17.5510    8.6590   33.5720 C   0  0  0  0  0  3  0  0  0  0  0  0
   17.6860    7.4510   32.9060 C   0  0  0  0  0  3  0  0  0  0  0  0
   18.9040    7.1860   32.3190 C   0  0  0  0  0  3  0  0  0  0  0  0
  1  2  1  0  0  0  0
  2 14  1  0  0  0  0
  3  7  1  0  0  0  0
  3  2  2  0  0  0  0
  4  5  2  0  0  0  0
  4  3  1  0  0  0  0
  5  1  1  0  0  0  0
  6  5  1  0  0  0  0
  7  9  1  0  0  0  0
  8  7  2  0  0  0  0
  9 13  1  0  0  0  0
  9 10  1  0  0  0  0
 10 11  2  0  0  0  0
 12 11  1  0  0  0  0
 12 29  1  0  0  0  0
 13 12  2  0  0  0  0
 14 10  1  0  0  0  0
 14 15  1  0  0  0  0
 16  1  1  1  0  0  0
 16 17  1  0  0  0  0
 16 22  1  0  0  0  0
 17 18  1  0  0  0  0
 18 19  1  0  0  0  0
 18 20  1  1  0  0  0
 19 21  1  6  0  0  0
 20 25  1  0  0  0  0
 21 23  1  0  0  0  0
 22 27  1  6  0  0  0
 22 19  1  0  0  0  0
 23 26  2  6  0  0  0
 23 25  1  0  0  0  0
 23 24  1  0  0  0  0
 27 28  1  0  0  0  0
 29 30  1  0  0  0  0
 30 31  2  0  0  0  0
 32 31  1  0  0  0  0
 33 32  2  0  0  0  0
 34 29  2  0  0  0  0
 34 33  1  0  0  0  0
M  END
>  <Pose>
1

>  <Score>
-9.255

$$$$
