/Users/jonathanwahrer/Desktop/Msc/3_Semester/Drug_Design_Praktikum/waehrer_HTS_screening/HTS_experiment/out/docking_results/vina_output/3elj/1001_docked.pdbqt
 OpenBabel03192218003D

 26 29  0  0  1  0  0  0  0  0999 V2000
   24.8390   11.7400   29.3590 P   0  0  2  0  0  0  0  0  0  0  0  0
   24.7580   12.7410   28.2050 O   0  0  0  0  0  0  0  0  0  0  0  0
   24.0460   10.3430   28.8720 O   0  0  0  0  0  0  0  0  0  0  0  0
   23.1870    9.8810   29.8350 C   0  0  2  0  0  3  0  0  0  0  0  0
   23.8290   10.2100   31.1900 C   0  0  2  0  0  3  0  0  0  0  0  0
   23.3770    9.2680   32.0660 O   0  0  0  0  0  0  0  0  0  0  0  0
   23.0280    8.1310   31.3910 C   0  0  2  0  0  3  0  0  0  0  0  0
   23.1110    8.3800   29.9250 C   0  0  2  0  0  3  0  0  0  0  0  0
   23.4370   11.6180   31.5040 C   0  0  0  0  0  2  0  0  0  0  0  0
   24.1570   12.4660   30.6980 O   0  0  0  0  0  0  0  0  0  0  0  0
   26.5060   11.4240   29.5800 O   0  0  0  0  0  1  0  0  0  0  0  0
   21.6900    7.7510   31.8240 N   0  0  0  0  0  0  0  0  0  0  0  0
   20.7760    8.5750   32.3880 C   0  0  0  0  0  0  0  0  0  0  0  0
   20.8360    9.8830   32.6880 N   0  0  0  0  0  0  0  0  0  0  0  0
   19.6380    7.8430   32.6550 C   0  0  0  0  0  0  0  0  0  0  0  0
   19.7740   10.4790   33.2550 C   0  0  0  0  0  3  0  0  0  0  0  0
   18.6650    9.7630   33.5140 N   0  0  0  0  0  0  0  0  0  0  0  0
   18.5330    8.4560   33.2420 C   0  0  0  0  0  0  0  0  0  0  0  0
   19.8540    6.5920   32.2590 N   0  0  0  0  0  0  0  0  0  0  0  0
   21.1010    6.5460   31.7570 C   0  0  0  0  0  0  0  0  0  0  0  0
   21.9930    5.0020   31.0230 Br  0  0  0  0  0  0  0  0  0  0  0  0
   17.3680    7.6900   33.5110 N   0  0  0  0  0  0  0  0  0  0  0  0
   17.4270    6.6370   33.3830 H   0  0  0  0  0  0  0  0  0  0  0  0
   16.4740    8.0820   33.8210 H   0  0  0  0  0  0  0  0  0  0  0  0
   24.2130    7.8050   29.3230 O   0  0  0  0  0  0  0  0  0  0  0  0
   24.4430    8.1970   28.4650 H   0  0  0  0  0  0  0  0  0  0  0  0
  1  2  2  6  0  0  0
  1 11  1  0  0  0  0
  1 10  1  0  0  0  0
  3  1  1  0  0  0  0
  4  3  1  6  0  0  0
  4  8  1  0  0  0  0
  4  5  1  0  0  0  0
  5  9  1  1  0  0  0
  5  6  1  0  0  0  0
  7 12  1  6  0  0  0
  7  6  1  0  0  0  0
  8 25  1  1  0  0  0
  8  7  1  0  0  0  0
 10  9  1  0  0  0  0
 12 13  1  0  0  0  0
 13 15  2  0  0  0  0
 13 14  1  0  0  0  0
 14 16  2  0  0  0  0
 15 18  1  0  0  0  0
 16 17  1  0  0  0  0
 18 22  1  0  0  0  0
 18 17  2  0  0  0  0
 19 15  1  0  0  0  0
 20 12  1  0  0  0  0
 20 19  2  0  0  0  0
 21 20  1  0  0  0  0
 22 24  1  0  0  0  0
 23 22  1  0  0  0  0
 26 25  1  0  0  0  0
M  END
>  <Pose>
1

>  <Score>
-8.704

$$$$
