/Users/jonathanwahrer/Desktop/Msc/3_Semester/Drug_Design_Praktikum/waehrer_HTS_screening/HTS_experiment/out/docking_results/vina_output/3elj/1008_docked.pdbqt
 OpenBabel03192218013D

 29 32  0  0  1  0  0  0  0  0999 V2000
   23.4540    6.8270   29.8090 C   0  0  0  0  0  0  0  0  0  0  0  0
   22.3390    6.3130   29.5490 O   0  0  0  0  0  0  0  0  0  0  0  0
   23.5300    8.1850   30.2390 N   0  0  0  0  0  0  0  0  0  0  0  0
   22.3300    8.9830   30.3750 C   0  0  0  0  0  2  0  0  0  0  0  0
   22.3440    9.8670   31.5830 C   0  0  2  0  0  3  0  0  0  0  0  0
   23.4550    9.3480   32.4990 C   0  0  0  0  0  2  0  0  0  0  0  0
   24.7500    9.6520   31.7770 C   0  0  0  0  0  2  0  0  0  0  0  0
   24.8000    8.7910   30.5420 C   0  0  0  0  0  2  0  0  0  0  0  0
   24.6530    6.0240   29.6710 C   0  0  0  0  0  0  0  0  0  0  0  0
   25.6190    6.3270   28.7170 C   0  0  0  0  0  3  0  0  0  0  0  0
   26.7620    5.5750   28.5760 C   0  0  0  0  0  0  0  0  0  0  0  0
   26.9770    4.4810   29.3940 C   0  0  0  0  0  3  0  0  0  0  0  0
   26.0310    4.1660   30.3440 C   0  0  0  0  0  3  0  0  0  0  0  0
   24.8750    4.9330   30.4820 C   0  0  0  0  0  0  0  0  0  0  0  0
   23.6060    4.4560   31.8040 Br  0  0  0  0  0  0  0  0  0  0  0  0
   27.9310    6.0070   27.3630 S   0  0  0  0  0  0  0  0  0  0  0  0
   29.2810    6.1820   28.0270 O   0  0  0  0  0  0  0  0  0  0  0  0
   27.5570    7.3090   26.6990 O   0  0  0  0  0  0  0  0  0  0  0  0
   28.0930    4.7440   26.2140 N   0  0  0  0  0  0  0  0  0  0  0  0
   27.4210    3.9610   26.3990 H   0  0  0  0  0  0  0  0  0  0  0  0
   29.0790    4.3800   26.2110 H   0  0  0  0  0  0  0  0  0  0  0  0
   21.0320    9.8990   32.3040 C   0  0  0  0  0  0  0  0  0  0  0  0
   20.1700    8.8610   32.4620 N   0  0  0  0  0  0  0  0  0  0  0  0
   19.0990    9.2500   33.1600 C   0  0  0  0  0  0  0  0  0  0  0  0
   20.0560    7.4590   32.1020 C   0  0  0  0  0  2  0  0  0  0  0  0
   19.3200   10.5700   33.4360 N   0  0  0  0  0  0  0  0  0  0  0  0
   18.1190    8.1420   33.3590 C   0  0  0  0  0  2  0  0  0  0  0  0
   20.4730   10.9510   32.9230 N   0  0  0  0  0  0  0  0  0  0  0  0
   18.9260    6.9430   32.9670 C   0  0  0  0  0  2  0  0  0  0  0  0
  1  3  1  0  0  0  0
  2  1  2  0  0  0  0
  3  4  1  0  0  0  0
  3  8  1  0  0  0  0
  4  5  1  0  0  0  0
  5 22  1  1  0  0  0
  5  6  1  0  0  0  0
  7  6  1  0  0  0  0
  8  7  1  0  0  0  0
  9  1  1  0  0  0  0
  9 14  1  0  0  0  0
 10  9  2  0  0  0  0
 11 10  1  0  0  0  0
 11 12  2  0  0  0  0
 12 13  1  0  0  0  0
 13 14  2  0  0  0  0
 14 15  1  0  0  0  0
 16 17  2  0  0  0  0
 16 11  1  0  0  0  0
 18 16  2  0  0  0  0
 19 20  1  0  0  0  0
 19 16  1  0  0  0  0
 21 19  1  0  0  0  0
 22 23  1  0  0  0  0
 22 28  2  0  0  0  0
 23 24  1  0  0  0  0
 24 27  1  0  0  0  0
 24 26  2  0  0  0  0
 25 23  1  0  0  0  0
 25 29  1  0  0  0  0
 28 26  1  0  0  0  0
 29 27  1  0  0  0  0
M  END
>  <Pose>
1

>  <Score>
-8.822

$$$$
