/Users/jonathanwahrer/Desktop/Msc/3_Semester/Drug_Design_Praktikum/waehrer_HTS_screening/HTS_experiment/out/docking_results/vina_output/3elj/1027_docked.pdbqt
 OpenBabel03192218013D

 32 35  0  0  0  0  0  0  0  0999 V2000
   24.1600   12.3020   30.3830 N   0  0  0  0  0  0  0  0  0  0  0  0
   23.7360   11.4430   29.3730 C   0  0  0  0  0  2  0  0  0  0  0  0
   22.9830   10.2510   29.8230 C   0  0  0  0  0  0  0  0  0  0  0  0
   22.1470    9.6930   29.0720 O   0  0  0  0  0  0  0  0  0  0  0  0
   23.2640    9.7870   31.1380 N   0  0  0  0  0  0  0  0  0  0  0  0
   24.4160   10.3230   31.7680 C   0  0  0  0  0  0  0  0  0  0  0  0
   24.9880    9.6280   32.6540 O   0  0  0  0  0  0  0  0  0  0  0  0
   24.9530   11.6550   31.4180 C   0  0  0  0  0  2  0  0  0  0  0  0
   23.1690   13.5190   30.9730 S   0  0  0  0  0  0  0  0  0  0  0  0
   23.7580   13.9880   32.3030 O   0  0  0  0  0  0  0  0  0  0  0  0
   21.8130   12.9660   31.3430 O   0  0  0  0  0  0  0  0  0  0  0  0
   22.9960   14.9460   29.9870 C   0  0  0  0  0  0  0  0  0  0  0  0
   23.7450   15.0310   28.8060 C   0  0  0  0  0  3  0  0  0  0  0  0
   23.7460   16.1300   27.9770 C   0  0  0  0  0  0  0  0  0  0  0  0
   22.9790   17.2300   28.2940 C   0  0  0  0  0  0  0  0  0  0  0  0
   24.4300   16.4070   26.7530 N   0  0  0  0  0  0  0  0  0  0  0  0
   22.2370   17.1640   29.4470 C   0  0  0  0  0  3  0  0  0  0  0  0
   23.1310   18.2860   27.2630 C   0  0  0  0  0  2  0  0  0  0  0  0
   22.2380   16.0390   30.2890 C   0  0  0  0  0  0  0  0  0  0  0  0
   21.0820   16.0250   31.8180 Br  0  0  0  0  0  0  0  0  0  0  0  0
   23.7140   17.4920   26.0930 C   0  0  0  0  0  2  0  0  0  0  0  0
   25.5850   15.7850   26.2470 C   0  0  0  0  0  0  0  0  0  0  0  0
   26.0330   16.1630   25.1080 O   0  0  0  0  0  0  0  0  0  0  0  0
   26.3570   14.7110   26.9160 C   0  0  0  0  0  1  0  0  0  0  0  0
   22.4020    8.8120   31.7720 C   0  0  0  0  0  2  0  0  0  0  0  0
   21.4760    9.3710   32.7960 C   0  0  0  0  0  2  0  0  0  0  0  0
   20.1480    8.7650   32.8570 C   0  0  0  0  0  0  0  0  0  0  0  0
   19.8920    7.5170   32.3610 C   0  0  0  0  0  3  0  0  0  0  0  0
   18.6260    7.0100   32.4460 C   0  0  0  0  0  3  0  0  0  0  0  0
   17.5830    7.7270   33.0220 C   0  0  0  0  0  3  0  0  0  0  0  0
   17.8640    8.9730   33.5110 C   0  0  0  0  0  3  0  0  0  0  0  0
   19.1250    9.5130   33.4420 C   0  0  0  0  0  3  0  0  0  0  0  0
  1  9  1  0  0  0  0
  1  8  1  0  0  0  0
  2  3  1  0  0  0  0
  2  1  1  0  0  0  0
  3  5  1  0  0  0  0
  4  3  2  0  0  0  0
  5  6  1  0  0  0  0
  5 25  1  0  0  0  0
  6  7  2  0  0  0  0
  8  6  1  0  0  0  0
  9 11  2  0  0  0  0
  9 10  2  0  0  0  0
 12 19  1  0  0  0  0
 12  9  1  0  0  0  0
 13 12  2  0  0  0  0
 14 15  2  0  0  0  0
 14 13  1  0  0  0  0
 15 17  1  0  0  0  0
 16 14  1  0  0  0  0
 17 19  2  0  0  0  0
 18 15  1  0  0  0  0
 19 20  1  0  0  0  0
 21 16  1  0  0  0  0
 21 18  1  0  0  0  0
 22 16  1  0  0  0  0
 22 24  1  0  0  0  0
 23 22  2  0  0  0  0
 25 26  1  0  0  0  0
 26 27  1  0  0  0  0
 27 32  1  0  0  0  0
 28 29  1  0  0  0  0
 28 27  2  0  0  0  0
 29 30  2  0  0  0  0
 30 31  1  0  0  0  0
 32 31  2  0  0  0  0
M  END
>  <Pose>
1

>  <Score>
-10.072

$$$$
