/Users/jonathanwahrer/Desktop/Msc/3_Semester/Drug_Design_Praktikum/waehrer_HTS_screening/HTS_experiment/out/docking_results/vina_output/3elj/1028_docked.pdbqt
 OpenBabel03192218013D

 25 28  0  0  1  0  0  0  0  0999 V2000
   24.8560    7.8770   29.3120 N   0  0  0  0  0  0  0  0  0  0  0  0
   23.9770    8.3090   30.3380 C   0  0  0  0  0  2  0  0  0  0  0  0
   25.0280    9.1700   30.9220 C   0  0  1  0  0  3  0  0  0  0  0  0
   25.8260    8.8330   29.7120 C   0  0  0  0  0  2  0  0  0  0  0  0
   24.7250   10.5850   31.0190 N   0  0  0  0  0  0  0  0  0  0  0  0
   24.9700   11.4030   32.0090 N   0  0  0  0  0  0  0  0  0  0  0  0
   24.5360   12.6360   31.7130 N   0  0  0  0  0  0  0  0  0  0  0  0
   23.9880   12.6150   30.4850 C   0  0  0  0  0  0  0  0  0  0  0  0
   24.1170   11.3010   30.0590 C   0  0  0  0  0  3  0  0  0  0  0  0
   23.3700   13.7580   29.7320 C   0  0  0  0  0  2  0  0  0  0  0  0
   22.2420   14.2410   30.5080 N   0  0  0  0  0  0  0  0  0  0  0  0
   21.1900   13.4320   31.0450 C   0  0  0  0  0  2  0  0  0  0  0  0
   20.3090   14.3630   31.8280 C   0  0  0  0  0  2  0  0  0  0  0  0
   21.0060   15.6790   31.9530 C   0  0  0  0  0  2  0  0  0  0  0  0
   22.0240   15.6070   30.8480 C   0  0  0  0  0  0  0  0  0  0  0  0
   22.5600   16.6110   30.3450 O   0  0  0  0  0  0  0  0  0  0  0  0
   25.3850    6.2740   29.2870 S   0  0  0  0  0  0  0  0  0  0  0  0
   26.8610    6.2430   29.5660 O   0  0  0  0  0  0  0  0  0  0  0  0
   25.1940    5.6330   27.9330 O   0  0  0  0  0  0  0  0  0  0  0  0
   24.6170    5.2570   30.5040 C   0  0  0  0  0  0  0  0  0  0  0  0
   25.3420    4.0370   31.4660 S   0  0  0  0  0  0  0  0  0  0  0  0
   23.9720    3.5410   32.3580 C   0  0  0  0  0  0  0  0  0  0  0  0
   22.9820    4.3540   31.8690 C   0  0  0  0  0  3  0  0  0  0  0  0
   23.8210    2.1850   33.7170 Br  0  0  0  0  0  0  0  0  0  0  0  0
   23.3190    5.2300   30.9200 C   0  0  0  0  0  3  0  0  0  0  0  0
  1  4  1  0  0  0  0
  1  2  1  0  0  0  0
  2  3  1  0  0  0  0
  3  4  1  6  0  0  0
  3  5  1  0  0  0  0
  5  6  1  0  0  0  0
  7  6  2  0  0  0  0
  8  7  1  0  0  0  0
  9  8  2  0  0  0  0
  9  5  1  0  0  0  0
 10  8  1  0  0  0  0
 10 11  1  0  0  0  0
 11 15  1  0  0  0  0
 11 12  1  0  0  0  0
 12 13  1  0  0  0  0
 13 14  1  0  0  0  0
 15 14  1  0  0  0  0
 16 15  2  0  0  0  0
 17  1  1  0  0  0  0
 17 18  2  0  0  0  0
 17 20  1  0  0  0  0
 19 17  2  0  0  0  0
 20 25  2  0  0  0  0
 20 21  1  0  0  0  0
 21 22  1  0  0  0  0
 22 24  1  0  0  0  0
 23 22  2  0  0  0  0
 25 23  1  0  0  0  0
M  END
>  <Pose>
1

>  <Score>
-7.627

$$$$
