/Users/jonathanwahrer/Desktop/Msc/3_Semester/Drug_Design_Praktikum/waehrer_HTS_screening/HTS_experiment/out/docking_results/vina_output/3elj/1037_docked.pdbqt
 OpenBabel03192218023D

 31 34  0  0  0  0  0  0  0  0999 V2000
   24.0860   10.8590   29.6990 N   0  0  0  0  0  0  0  0  0  0  0  0
   25.4390   10.4300   29.6030 C   0  0  0  0  0  3  0  0  0  0  0  0
   25.7420    9.0190   29.8060 C   0  0  0  0  0  3  0  0  0  0  0  0
   24.6470    8.0680   29.7790 N   0  0  0  0  0  0  0  0  0  0  0  0
   23.2890    8.5150   29.8320 C   0  0  0  0  0  2  0  0  0  0  0  0
   23.1270    9.9150   29.2520 C   0  0  0  0  0  2  0  0  0  0  0  0
   24.9620    6.7120   29.6760 C   0  0  0  0  0  0  0  0  0  0  0  0
   26.2900    6.5460   29.5000 O   0  0  0  0  0  0  0  0  0  0  0  0
   23.6680   11.7140   31.1010 S   0  0  0  0  0  0  0  0  0  0  0  0
   24.8510   11.7540   32.0290 O   0  0  0  0  0  0  0  0  0  0  0  0
   22.5650   10.9910   31.8550 O   0  0  0  0  0  0  0  0  0  0  0  0
   23.2130   13.3820   30.8210 C   0  0  0  0  0  0  0  0  0  0  0  0
   23.5300   13.9970   29.6100 C   0  0  0  0  0  3  0  0  0  0  0  0
   23.2110   15.3090   29.3360 C   0  0  0  0  0  0  0  0  0  0  0  0
   22.5520   16.0840   30.2640 C   0  0  0  0  0  0  0  0  0  0  0  0
   23.5590   15.9270   28.0850 N   0  0  0  0  0  0  0  0  0  0  0  0
   22.2360   15.4830   31.4620 C   0  0  0  0  0  3  0  0  0  0  0  0
   22.2250   17.4270   29.9930 O   0  0  0  0  0  0  0  0  0  0  0  0
   22.5550   14.1600   31.7470 C   0  0  0  0  0  3  0  0  0  0  0  0
   22.0590   17.8540   28.6290 C   0  0  0  0  0  2  0  0  0  0  0  0
   23.2120   17.2850   27.8840 C   0  0  0  0  0  0  0  0  0  0  0  0
   23.8930   17.9640   27.0810 O   0  0  0  0  0  0  0  0  0  0  0  0
   24.0510   15.3390   27.3960 H   0  0  0  0  0  0  0  0  0  0  0  0
   24.1950    5.5010   29.7170 C   0  0  0  0  0  2  0  0  0  0  0  0
   24.2890    4.5750   30.8430 C   0  0  0  0  0  0  0  0  0  0  0  0
   23.2660    4.4440   31.7490 C   0  0  0  0  0  0  0  0  0  0  0  0
   23.3650    3.5510   32.8160 C   0  0  0  0  0  3  0  0  0  0  0  0
   21.6740    5.4970   31.5730 Br  0  0  0  0  0  0  0  0  0  0  0  0
   24.4930    2.7980   32.9580 C   0  0  0  0  0  3  0  0  0  0  0  0
   25.5360    2.9240   32.0390 C   0  0  0  0  0  3  0  0  0  0  0  0
   25.4360    3.7950   31.0010 C   0  0  0  0  0  3  0  0  0  0  0  0
  1  9  1  0  0  0  0
  2  1  1  0  0  0  0
  2  3  2  0  0  0  0
  4  3  1  0  0  0  0
  4  5  1  0  0  0  0
  6  1  1  0  0  0  0
  6  5  1  0  0  0  0
  7 24  1  0  0  0  0
  7  4  1  0  0  0  0
  8  7  2  0  0  0  0
  9 11  2  0  0  0  0
  9 10  2  0  0  0  0
 12  9  1  0  0  0  0
 12 19  1  0  0  0  0
 13 12  2  0  0  0  0
 14 13  1  0  0  0  0
 14 15  2  0  0  0  0
 15 17  1  0  0  0  0
 16 14  1  0  0  0  0
 17 19  2  0  0  0  0
 18 15  1  0  0  0  0
 20 18  1  0  0  0  0
 21 16  1  0  0  0  0
 21 20  1  0  0  0  0
 22 21  2  0  0  0  0
 23 16  1  0  0  0  0
 24 25  1  0  0  0  0
 25 31  2  0  0  0  0
 25 26  1  0  0  0  0
 26 27  2  0  0  0  0
 27 29  1  0  0  0  0
 28 26  1  0  0  0  0
 30 29  2  0  0  0  0
 31 30  1  0  0  0  0
M  END
>  <Pose>
1

>  <Score>
-9.402

$$$$
