/Users/jonathanwahrer/Desktop/Msc/3_Semester/Drug_Design_Praktikum/waehrer_HTS_screening/HTS_experiment/out/docking_results/vina_output/3elj/1040_docked.pdbqt
 OpenBabel03192218023D

 34 38  0  0  0  0  0  0  0  0999 V2000
   22.5990    6.9010   30.5560 S   0  0  0  0  0  0  0  0  0  0  0  0
   21.7840    5.6670   30.6180 O   0  0  0  0  0  0  0  0  0  0  0  0
   22.5840    7.3070   29.0770 O   0  0  0  0  0  0  0  0  0  0  0  0
   24.2630    6.6520   30.9160 N   0  0  0  0  0  0  0  0  0  0  0  0
   25.1550    7.1440   29.9240 C   0  0  0  0  0  2  0  0  0  0  0  0
   25.4590    6.1490   28.8110 C   0  0  0  0  0  2  0  0  0  0  0  0
   25.8700    4.9170   29.3940 N   0  0  0  0  0  0  0  0  0  0  0  0
   24.8090    4.3320   30.2760 C   0  0  0  0  0  2  0  0  0  0  0  0
   27.0420    4.1950   29.2890 C   0  0  0  0  0  0  0  0  0  0  0  0
   24.5600    5.3310   31.3550 C   0  0  0  0  0  2  0  0  0  0  0  0
   27.0700    3.0780   29.9890 O   0  0  0  0  0  0  0  0  0  0  0  0
   28.2450    4.4420   28.5490 C   0  0  0  0  0  2  0  0  0  0  0  0
   28.3480    5.5950   27.7300 N   0  0  0  0  0  0  0  0  0  0  0  0
   28.0000    5.7210   26.4510 N   0  0  0  0  0  0  0  0  0  0  0  0
   28.2050    6.9720   26.0210 C   0  0  0  0  0  3  0  0  0  0  0  0
   28.7110    7.6620   27.0950 C   0  0  0  0  0  0  0  0  0  0  0  0
   28.7980    6.8060   28.1510 C   0  0  0  0  0  3  0  0  0  0  0  0
   29.2130    9.5200   27.1100 Br  0  0  0  0  0  0  0  0  0  0  0  0
   21.9380    8.2600   31.4120 C   0  0  0  0  0  0  0  0  0  0  0  0
   22.3440    9.5750   31.1480 C   0  0  0  0  0  0  0  0  0  0  0  0
   21.8160   10.6500   31.8350 C   0  0  0  0  0  0  0  0  0  0  0  0
   23.2790   10.0270   30.2220 O   0  0  0  0  0  0  0  0  0  0  0  0
   20.8610   10.4710   32.8140 C   0  0  0  0  0  0  0  0  0  0  0  0
   22.4160   11.7890   31.3450 O   0  0  0  0  0  0  0  0  0  0  0  0
   20.4610    9.1900   33.0780 C   0  0  0  0  0  0  0  0  0  0  0  0
   21.0010    8.1160   32.3780 C   0  0  0  0  0  0  0  0  0  0  0  0
   19.4450    8.8340   34.0940 C   0  0  0  0  0  2  0  0  0  0  0  0
   20.4810    6.7980   32.7800 C   0  0  0  0  0  2  0  0  0  0  0  0
   18.9690    6.8080   32.8360 C   0  0  0  0  0  2  0  0  0  0  0  0
   18.4900    7.9840   33.4570 N   0  0  0  0  0  0  0  0  0  0  0  0
   17.4010    8.6460   32.8280 C   0  0  0  0  0  1  0  0  0  0  0  0
   23.4220   11.4210   30.4440 C   0  0  0  0  0  2  0  0  0  0  0  0
   20.3170   11.5640   33.5200 O   0  0  0  0  0  0  0  0  0  0  0  0
   19.3040   12.3550   32.8830 C   0  0  0  0  0  1  0  0  0  0  0  0
  1  2  2  0  0  0  0
  1  4  1  0  0  0  0
  1 19  1  0  0  0  0
  3  1  2  0  0  0  0
  4 10  1  0  0  0  0
  5  4  1  0  0  0  0
  6  7  1  0  0  0  0
  6  5  1  0  0  0  0
  7  8  1  0  0  0  0
  8 10  1  0  0  0  0
  9  7  1  0  0  0  0
  9 11  2  0  0  0  0
 12  9  1  0  0  0  0
 13 17  1  0  0  0  0
 13 12  1  0  0  0  0
 14 13  1  0  0  0  0
 15 14  2  0  0  0  0
 15 16  1  0  0  0  0
 16 18  1  0  0  0  0
 16 17  2  0  0  0  0
 19 26  1  0  0  0  0
 20 19  2  0  0  0  0
 20 21  1  0  0  0  0
 21 23  2  0  0  0  0
 22 32  1  0  0  0  0
 22 20  1  0  0  0  0
 23 25  1  0  0  0  0
 23 33  1  0  0  0  0
 24 21  1  0  0  0  0
 25 27  1  0  0  0  0
 26 28  1  0  0  0  0
 26 25  2  0  0  0  0
 28 29  1  0  0  0  0
 29 30  1  0  0  0  0
 30 27  1  0  0  0  0
 31 30  1  0  0  0  0
 32 24  1  0  0  0  0
 34 33  1  0  0  0  0
M  END
>  <Pose>
1

>  <Score>
-7.930

$$$$
