/Users/jonathanwahrer/Desktop/Msc/3_Semester/Drug_Design_Praktikum/waehrer_HTS_screening/HTS_experiment/out/docking_results/vina_output/3elj/1042_docked.pdbqt
 OpenBabel03192218023D

 31 34  0  0  0  0  0  0  0  0999 V2000
   24.4430   12.0180   29.9110 N   0  0  0  0  0  0  0  0  0  0  0  0
   23.7590   13.2220   29.9600 C   0  0  0  0  0  2  0  0  0  0  0  0
   23.6900   13.7970   28.5190 C   0  0  0  0  0  2  0  0  0  0  0  0
   25.0070   13.8260   27.9470 N   0  0  0  0  0  0  0  0  0  0  0  0
   25.7040   12.5630   27.8540 C   0  0  0  0  0  2  0  0  0  0  0  0
   24.8860   11.5510   28.6260 C   0  0  0  0  0  2  0  0  0  0  0  0
   25.6330   14.9990   27.4850 C   0  0  0  0  0  0  0  0  0  0  0  0
   25.0240   16.0890   27.5680 O   0  0  0  0  0  0  0  0  0  0  0  0
   26.9790   14.9620   26.9110 C   0  0  0  0  0  2  0  0  0  0  0  0
   26.9180   15.0180   25.4530 N   0  0  0  0  0  0  0  0  0  0  0  0
   26.5350   16.0810   24.6050 C   0  0  0  0  0  0  0  0  0  0  0  0
   26.1590   17.2330   25.0000 O   0  0  0  0  0  0  0  0  0  0  0  0
   26.6510   15.6210   23.2640 N   0  0  0  0  0  0  0  0  0  0  0  0
   27.5370   14.4860   23.2830 C   0  0  0  0  0  0  0  0  0  0  0  0
   26.1470   16.0830   22.4670 H   0  0  0  0  0  0  0  0  0  0  0  0
   28.9740   14.8390   23.0780 C   0  0  0  0  0  2  0  0  0  0  0  0
   27.2380   13.5100   22.1690 C   0  0  0  0  0  2  0  0  0  0  0  0
   27.2700   13.8970   24.6170 C   0  0  0  0  0  0  0  0  0  0  0  0
   29.5850   13.4710   22.7500 C   0  0  0  0  0  2  0  0  0  0  0  0
   28.5240   12.7900   21.9290 C   0  0  0  0  0  2  0  0  0  0  0  0
   27.3400   12.6880   24.9350 O   0  0  0  0  0  0  0  0  0  0  0  0
   24.4980   10.9320   31.1600 S   0  0  0  0  0  0  0  0  0  0  0  0
   25.6200    9.9250   30.8710 O   0  0  0  0  0  0  0  0  0  0  0  0
   24.9550   11.5840   32.4690 O   0  0  0  0  0  0  0  0  0  0  0  0
   23.0880    9.9700   31.4760 C   0  0  0  0  0  0  0  0  0  0  0  0
   21.8780   10.4260   31.9290 C   0  0  0  0  0  0  0  0  0  0  0  0
   20.8160    9.5570   32.2020 C   0  0  0  0  0  3  0  0  0  0  0  0
   21.6080   12.2930   32.1290 Br  0  0  0  0  0  0  0  0  0  0  0  0
   20.9290    8.2130   32.0310 C   0  0  0  0  0  3  0  0  0  0  0  0
   22.1250    7.7260   31.5770 C   0  0  0  0  0  3  0  0  0  0  0  0
   23.1720    8.5750   31.3080 C   0  0  0  0  0  3  0  0  0  0  0  0
  1  2  1  0  0  0  0
  1 22  1  0  0  0  0
  3  2  1  0  0  0  0
  4  3  1  0  0  0  0
  5  4  1  0  0  0  0
  5  6  1  0  0  0  0
  6  1  1  0  0  0  0
  7  8  2  0  0  0  0
  7  4  1  0  0  0  0
  9  7  1  0  0  0  0
 10  9  1  0  0  0  0
 11 12  2  0  0  0  0
 11 10  1  0  0  0  0
 13 14  1  0  0  0  0
 13 11  1  0  0  0  0
 14 18  1  0  0  0  0
 15 13  1  0  0  0  0
 16 14  1  0  0  0  0
 17 14  1  0  0  0  0
 18 21  2  0  0  0  0
 18 10  1  0  0  0  0
 19 16  1  0  0  0  0
 20 17  1  0  0  0  0
 20 19  1  0  0  0  0
 22 25  1  0  0  0  0
 22 24  2  0  0  0  0
 23 22  2  0  0  0  0
 25 26  1  0  0  0  0
 26 28  1  0  0  0  0
 26 27  2  0  0  0  0
 29 27  1  0  0  0  0
 30 29  2  0  0  0  0
 31 25  2  0  0  0  0
 31 30  1  0  0  0  0
M  END
>  <Pose>
1

>  <Score>
-8.073

$$$$
