/Users/jonathanwahrer/Desktop/Msc/3_Semester/Drug_Design_Praktikum/waehrer_HTS_screening/HTS_experiment/out/docking_results/vina_output/3elj/1073_docked.pdbqt
 OpenBabel03192218043D

 28 31  0  0  0  0  0  0  0  0999 V2000
   23.8520    9.4810   30.6800 N   0  0  0  0  0  0  0  0  0  0  0  0
   23.9510   10.1330   29.4380 C   0  0  0  0  0  2  0  0  0  0  0  0
   24.3380   11.5810   29.5520 C   0  0  0  0  0  2  0  0  0  0  0  0
   24.0940   12.1550   30.8270 N   0  0  0  0  0  0  0  0  0  0  0  0
   24.7560   11.4320   31.8530 C   0  0  0  0  0  2  0  0  0  0  0  0
   24.6450    9.9560   31.7490 C   0  0  0  0  0  2  0  0  0  0  0  0
   22.7290   12.4800   31.0150 C   0  0  0  0  0  2  0  0  0  0  0  0
   22.3740   13.8560   30.9410 N   0  0  0  0  0  0  0  0  0  0  0  0
   22.7660   14.5990   29.9270 N   0  0  0  0  0  0  0  0  0  0  0  0
   22.4810   15.9030   29.7840 C   0  0  0  0  0  0  0  0  0  0  0  0
   21.7250   16.4830   30.7760 C   0  0  0  0  0  3  0  0  0  0  0  0
   21.2840   15.7590   31.8630 C   0  0  0  0  0  3  0  0  0  0  0  0
   21.6360   14.4160   31.9120 C   0  0  0  0  0  0  0  0  0  0  0  0
   21.2240   13.7470   32.9230 O   0  0  0  0  0  0  0  0  0  0  0  0
   22.9230   16.6850   28.6690 N   0  0  0  0  0  0  0  0  0  0  0  0
   23.8100   16.3620   27.7220 C   0  0  0  0  0  3  0  0  0  0  0  0
   23.9230   17.3960   26.8690 N   0  0  0  0  0  0  0  0  0  0  0  0
   23.1060   18.3890   27.2650 C   0  0  0  0  0  3  0  0  0  0  0  0
   22.4820   17.9240   28.4040 C   0  0  0  0  0  3  0  0  0  0  0  0
   23.3800    7.8890   30.7190 S   0  0  0  0  0  0  0  0  0  0  0  0
   23.2150    7.3020   29.3570 O   0  0  0  0  0  0  0  0  0  0  0  0
   24.3670    7.0650   31.4820 O   0  0  0  0  0  0  0  0  0  0  0  0
   21.8080    7.7680   31.5360 C   0  0  0  0  0  0  0  0  0  0  0  0
   20.8330    9.0090   32.1810 S   0  0  0  0  0  0  0  0  0  0  0  0
   19.5400    8.0640   32.7630 C   0  0  0  0  0  0  0  0  0  0  0  0
   19.9120    6.7840   32.4340 C   0  0  0  0  0  3  0  0  0  0  0  0
   17.9450    8.6240   33.6630 Br  0  0  0  0  0  0  0  0  0  0  0  0
   21.0850    6.6390   31.7990 C   0  0  0  0  0  3  0  0  0  0  0  0
  1 20  1  0  0  0  0
  1  6  1  0  0  0  0
  2  3  1  0  0  0  0
  2  1  1  0  0  0  0
  3  4  1  0  0  0  0
  4  7  1  0  0  0  0
  4  5  1  0  0  0  0
  6  5  1  0  0  0  0
  8  7  1  0  0  0  0
  8 13  1  0  0  0  0
  9  8  1  0  0  0  0
 10  9  2  0  0  0  0
 10 11  1  0  0  0  0
 11 12  2  0  0  0  0
 12 13  1  0  0  0  0
 13 14  2  0  0  0  0
 15 10  1  0  0  0  0
 16 15  1  0  0  0  0
 17 18  1  0  0  0  0
 17 16  2  0  0  0  0
 18 19  2  0  0  0  0
 19 15  1  0  0  0  0
 20 22  2  0  0  0  0
 20 23  1  0  0  0  0
 21 20  2  0  0  0  0
 23 28  2  0  0  0  0
 23 24  1  0  0  0  0
 24 25  1  0  0  0  0
 25 27  1  0  0  0  0
 26 25  2  0  0  0  0
 28 26  1  0  0  0  0
M  END
>  <Pose>
1

>  <Score>
-8.561

$$$$
