/Users/jonathanwahrer/Desktop/Msc/3_Semester/Drug_Design_Praktikum/waehrer_HTS_screening/HTS_experiment/out/docking_results/vina_output/3elj/1076_docked.pdbqt
 OpenBabel03192218043D

 29 32  0  0  0  0  0  0  0  0999 V2000
   23.7030   11.3090   30.6730 N   0  0  0  0  0  0  0  0  0  0  0  0
   23.3420   10.8860   29.3570 C   0  0  0  0  0  2  0  0  0  0  0  0
   23.3930    9.3480   29.3820 C   0  0  0  0  0  2  0  0  0  0  0  0
   24.3580    8.8770   30.2770 N   0  0  0  0  0  0  0  0  0  0  0  0
   25.5180    9.7070   30.4570 C   0  0  0  0  0  2  0  0  0  0  0  0
   25.1670   11.1490   30.7430 C   0  0  0  0  0  2  0  0  0  0  0  0
   24.0040    8.0850   31.3780 C   0  0  0  0  0  2  0  0  0  0  0  0
   22.6310    8.0240   31.7620 N   0  0  0  0  0  0  0  0  0  0  0  0
   22.0040    9.1160   32.4150 N   0  0  0  0  0  0  0  0  0  0  0  0
   20.6540    8.7130   32.6300 C   0  0  0  0  0  0  0  0  0  0  0  0
   22.4420   10.0280   32.6850 H   0  0  0  0  0  0  0  0  0  0  0  0
   19.7550    9.4880   33.2240 C   0  0  0  0  0  3  0  0  0  0  0  0
   20.4230    7.4050   32.1300 N   0  0  0  0  0  0  0  0  0  0  0  0
   18.3240    9.3330   33.5680 C   0  0  0  0  0  2  0  0  0  0  0  0
   17.9700    7.8790   33.7660 C   0  0  0  0  0  2  0  0  0  0  0  0
   17.9780    7.2520   32.3830 C   0  0  0  0  0  2  0  0  0  0  0  0
   19.2730    6.5550   32.0950 C   0  0  0  0  0  2  0  0  0  0  0  0
   21.6740    6.9880   31.5910 C   0  0  0  0  0  0  0  0  0  0  0  0
   21.8570    5.8670   31.0550 O   0  0  0  0  0  0  0  0  0  0  0  0
   23.3740   12.9580   30.9900 S   0  0  0  0  0  0  0  0  0  0  0  0
   23.6840   13.8350   29.8060 O   0  0  0  0  0  0  0  0  0  0  0  0
   24.3050   13.3960   32.0970 O   0  0  0  0  0  0  0  0  0  0  0  0
   21.7590   13.2610   31.5050 C   0  0  0  0  0  0  0  0  0  0  0  0
   20.8900   14.1490   30.9450 C   0  0  0  0  0  3  0  0  0  0  0  0
   19.6040   14.3170   31.4390 C   0  0  0  0  0  0  0  0  0  0  0  0
   19.1540   13.6000   32.5080 C   0  0  0  0  0  3  0  0  0  0  0  0
   18.3960   15.5750   30.6330 Br  0  0  0  0  0  0  0  0  0  0  0  0
   20.0160   12.6880   33.0980 C   0  0  0  0  0  3  0  0  0  0  0  0
   21.2850   12.5320   32.6010 C   0  0  0  0  0  3  0  0  0  0  0  0
  1  6  1  0  0  0  0
  1 20  1  0  0  0  0
  2  3  1  0  0  0  0
  2  1  1  0  0  0  0
  3  4  1  0  0  0  0
  4  5  1  0  0  0  0
  4  7  1  0  0  0  0
  5  6  1  0  0  0  0
  7  8  1  0  0  0  0
  8  9  1  0  0  0  0
  9 10  1  0  0  0  0
  9 11  1  0  0  0  0
 10 12  2  0  0  0  0
 12 14  1  0  0  0  0
 13 10  1  0  0  0  0
 14 15  1  0  0  0  0
 16 15  1  0  0  0  0
 17 13  1  0  0  0  0
 17 16  1  0  0  0  0
 18  8  1  0  0  0  0
 18 13  1  0  0  0  0
 19 18  2  0  0  0  0
 20 23  1  0  0  0  0
 20 22  2  0  0  0  0
 21 20  2  0  0  0  0
 23 29  1  0  0  0  0
 24 25  1  0  0  0  0
 24 23  2  0  0  0  0
 25 26  2  0  0  0  0
 26 28  1  0  0  0  0
 27 25  1  0  0  0  0
 29 28  2  0  0  0  0
M  END
>  <Pose>
1

>  <Score>
-9.246

$$$$
