/Users/jonathanwahrer/Desktop/Msc/3_Semester/Drug_Design_Praktikum/waehrer_HTS_screening/HTS_experiment/out/docking_results/vina_output/3elj/1101_docked.pdbqt
 OpenBabel03192218053D

 26 29  0  0  0  0  0  0  0  0999 V2000
   24.8410    8.6190   30.8560 N   0  0  0  0  0  0  0  0  0  0  0  0
   24.9860    9.4560   29.7260 C   0  0  0  0  0  2  0  0  0  0  0  0
   23.9600   10.5210   29.5620 C   0  0  0  0  0  2  0  0  0  0  0  0
   23.6370   11.1610   30.8470 N   0  0  0  0  0  0  0  0  0  0  0  0
   24.5130   10.7930   31.9390 C   0  0  0  0  0  2  0  0  0  0  0  0
   24.4340    9.2830   32.0640 C   0  0  0  0  0  2  0  0  0  0  0  0
   24.0250    7.1500   30.5870 S   0  0  0  0  0  0  0  0  0  0  0  0
   24.7960    6.0600   31.3220 O   0  0  0  0  0  0  0  0  0  0  0  0
   24.0620    6.7770   29.1350 O   0  0  0  0  0  0  0  0  0  0  0  0
   22.4060    7.1290   31.2330 C   0  0  0  0  0  0  0  0  0  0  0  0
   21.7480    5.9400   31.5180 C   0  0  0  0  0  3  0  0  0  0  0  0
   20.4690    5.9240   32.0280 C   0  0  0  0  0  3  0  0  0  0  0  0
   19.8300    7.1320   32.2590 C   0  0  0  0  0  0  0  0  0  0  0  0
   20.4430    8.3410   31.9940 C   0  0  0  0  0  3  0  0  0  0  0  0
   18.0510    7.0920   32.9690 Br  0  0  0  0  0  0  0  0  0  0  0  0
   21.7200    8.3120   31.4850 C   0  0  0  0  0  3  0  0  0  0  0  0
   22.5500   12.0580   30.9580 C   0  0  0  0  0  0  0  0  0  0  0  0
   21.6330   11.8720   31.9850 C   0  0  0  0  0  3  0  0  0  0  0  0
   20.5660   12.7620   32.0850 C   0  0  0  0  0  0  0  0  0  0  0  0
   20.4150   13.7660   31.2310 N   0  0  0  0  0  0  0  0  0  0  0  0
   19.5620   12.7910   32.9780 N   0  0  0  0  0  0  0  0  0  0  0  0
   19.3070   14.4370   31.5870 C   0  0  0  0  0  0  0  0  0  0  0  0
   21.2680   13.9530   30.2640 N   0  0  0  0  0  0  0  0  0  0  0  0
   18.7930   13.8200   32.6680 N   0  0  0  0  0  0  0  0  0  0  0  0
   18.7410   15.6480   30.9110 C   0  0  0  0  0  1  0  0  0  0  0  0
   22.3270   13.1140   30.1210 C   0  0  0  0  0  3  0  0  0  0  0  0
  1  6  1  0  0  0  0
  2  1  1  0  0  0  0
  3  2  1  0  0  0  0
  3  4  1  0  0  0  0
  4 17  1  0  0  0  0
  4  5  1  0  0  0  0
  5  6  1  0  0  0  0
  7  1  1  0  0  0  0
  7 10  1  0  0  0  0
  7  8  2  0  0  0  0
  9  7  2  0  0  0  0
 10 16  2  0  0  0  0
 10 11  1  0  0  0  0
 11 12  2  0  0  0  0
 12 13  1  0  0  0  0
 13 15  1  0  0  0  0
 14 13  2  0  0  0  0
 16 14  1  0  0  0  0
 17 18  2  0  0  0  0
 18 19  1  0  0  0  0
 19 21  2  0  0  0  0
 20 22  1  0  0  0  0
 20 19  1  0  0  0  0
 22 24  2  0  0  0  0
 23 20  1  0  0  0  0
 24 21  1  0  0  0  0
 25 22  1  0  0  0  0
 26 23  2  0  0  0  0
 26 17  1  0  0  0  0
M  END
>  <Pose>
1

>  <Score>
-9.204

$$$$
