/Users/jonathanwahrer/Desktop/Msc/3_Semester/Drug_Design_Praktikum/waehrer_HTS_screening/HTS_experiment/out/docking_results/vina_output/3elj/1105_docked.pdbqt
 OpenBabel03192218053D

 33 36  0  0  1  0  0  0  0  0999 V2000
   27.5280    8.0170   27.4760 N   0  0  0  0  0  0  0  0  0  0  0  0
   28.0620    7.9420   26.1580 C   0  0  0  0  0  2  0  0  0  0  0  0
   29.0990    8.9930   25.8340 C   0  0  0  0  0  2  0  0  0  0  0  0
   30.0650    9.1240   26.9280 N   0  0  0  0  0  0  0  0  0  0  0  0
   29.4390    9.2090   28.2290 C   0  0  0  0  0  0  0  0  0  0  0  0
   30.0880    9.2800   29.2750 O   0  0  0  0  0  0  0  0  0  0  0  0
   27.9400    9.1980   28.1410 C   0  0  2  0  0  3  0  0  0  0  0  0
   31.0780    9.1560   26.8230 H   0  0  0  0  0  0  0  0  0  0  0  0
   27.2870    9.5320   29.4230 C   0  0  0  0  0  2  0  0  0  0  0  0
   25.9780   10.1770   29.1600 C   0  0  0  0  0  0  0  0  0  0  0  0
   25.8930   10.8740   28.1140 O   0  0  0  0  0  0  0  0  0  0  0  0
   24.8670   10.0210   30.0440 N   0  0  0  0  0  0  0  0  0  0  0  0
   24.9770    9.2230   31.2350 C   0  0  0  0  0  2  0  0  0  0  0  0
   23.6260   10.6760   29.7250 C   0  0  0  0  0  2  0  0  0  0  0  0
   24.0940    9.6720   32.3570 C   0  0  0  0  0  2  0  0  0  0  0  0
   22.8490   10.2800   31.9220 N   0  0  0  0  0  0  0  0  0  0  0  0
   23.0090   11.3400   30.9380 C   0  0  0  0  0  2  0  0  0  0  0  0
   21.5710    9.9350   32.3810 C   0  0  0  0  0  0  0  0  0  0  0  0
   21.1600    8.6220   32.3160 C   0  0  0  0  0  3  0  0  0  0  0  0
   19.8900    8.2860   32.7580 C   0  0  0  0  0  3  0  0  0  0  0  0
   19.0100    9.2110   33.2640 C   0  0  0  0  0  3  0  0  0  0  0  0
   19.4260   10.5210   33.3270 C   0  0  0  0  0  3  0  0  0  0  0  0
   20.6950   10.8650   32.8870 C   0  0  0  0  0  3  0  0  0  0  0  0
   27.8060    6.5590   28.3030 S   0  0  0  0  0  0  0  0  0  0  0  0
   28.9580    6.6030   29.2550 O   0  0  0  0  0  0  0  0  0  0  0  0
   28.1130    5.4340   27.3210 O   0  0  0  0  0  0  0  0  0  0  0  0
   26.3850    6.0340   29.1880 C   0  0  0  0  0  0  0  0  0  0  0  0
   25.1130    6.5210   28.9130 C   0  0  0  0  0  3  0  0  0  0  0  0
   23.9930    6.1300   29.5910 C   0  0  0  0  0  3  0  0  0  0  0  0
   24.0880    5.2100   30.6020 C   0  0  0  0  0  0  0  0  0  0  0  0
   25.3540    4.6960   30.9070 C   0  0  0  0  0  3  0  0  0  0  0  0
   22.5660    4.6250   31.5820 Br  0  0  0  0  0  0  0  0  0  0  0  0
   26.4590    5.1120   30.2050 C   0  0  0  0  0  3  0  0  0  0  0  0
  1  7  1  0  0  0  0
  1 24  1  0  0  0  0
  2  1  1  0  0  0  0
  3  2  1  0  0  0  0
  3  4  1  0  0  0  0
  4  5  1  0  0  0  0
  5  6  2  0  0  0  0
  7  5  1  0  0  0  0
  7  9  1  1  0  0  0
  8  4  1  0  0  0  0
 10  9  1  0  0  0  0
 10 12  1  0  0  0  0
 11 10  2  0  0  0  0
 12 13  1  0  0  0  0
 13 15  1  0  0  0  0
 14 12  1  0  0  0  0
 14 17  1  0  0  0  0
 16 15  1  0  0  0  0
 16 18  1  0  0  0  0
 17 16  1  0  0  0  0
 18 23  1  0  0  0  0
 19 18  2  0  0  0  0
 19 20  1  0  0  0  0
 20 21  2  0  0  0  0
 21 22  1  0  0  0  0
 23 22  2  0  0  0  0
 24 27  1  0  0  0  0
 24 25  2  0  0  0  0
 26 24  2  0  0  0  0
 27 33  1  0  0  0  0
 28 27  2  0  0  0  0
 28 29  1  0  0  0  0
 29 30  2  0  0  0  0
 30 31  1  0  0  0  0
 30 32  1  0  0  0  0
 33 31  2  0  0  0  0
M  END
>  <Pose>
1

>  <Score>
-8.260

$$$$
