/Users/jonathanwahrer/Desktop/Msc/3_Semester/Drug_Design_Praktikum/waehrer_HTS_screening/HTS_experiment/out/docking_results/vina_output/3elj/1112_docked.pdbqt
 OpenBabel03192218063D

 32 35  0  0  0  0  0  0  0  0999 V2000
   21.2630    5.4070   31.8370 C   0  0  0  0  0  2  0  0  0  0  0  0
   22.5290    5.4440   31.0660 C   0  0  0  0  0  0  0  0  0  0  0  0
   22.8530    6.4000   30.1500 C   0  0  0  0  0  3  0  0  0  0  0  0
   24.0620    6.3640   29.4620 C   0  0  0  0  0  3  0  0  0  0  0  0
   24.9750    5.3710   29.6750 C   0  0  0  0  0  0  0  0  0  0  0  0
   24.6510    4.4000   30.6040 C   0  0  0  0  0  3  0  0  0  0  0  0
   23.4490    4.4340   31.2880 C   0  0  0  0  0  3  0  0  0  0  0  0
   26.5110    5.2940   28.8250 S   0  0  0  0  0  0  0  0  0  0  0  0
   27.6460    5.0820   29.7670 O   0  0  0  0  0  0  0  0  0  0  0  0
   26.4390    4.0740   27.9290 O   0  0  0  0  0  0  0  0  0  0  0  0
   26.7680    6.6520   27.8210 N   0  0  0  0  0  0  0  0  0  0  0  0
   27.6300    6.3760   26.7020 C   0  0  0  0  0  2  0  0  0  0  0  0
   28.1440    7.7300   26.2030 C   0  0  0  0  0  2  0  0  0  0  0  0
   29.0940    8.2330   27.0650 O   0  0  0  0  0  0  0  0  0  0  0  0
   28.8800    7.6930   28.3460 C   0  0  0  0  0  2  0  0  0  0  0  0
   27.3780    7.7230   28.5870 C   0  0  0  0  0  2  0  0  0  0  0  0
   20.4390    6.5180   31.5630 O   0  0  0  0  0  0  0  0  0  0  0  0
   19.7820    7.2650   32.5100 C   0  0  0  0  0  0  0  0  0  0  0  0
   18.5350    7.2550   32.5370 O   0  0  0  0  0  0  0  0  0  0  0  0
   20.5210    8.0670   33.4810 C   0  0  0  0  0  2  0  0  0  0  0  0
   20.9540    9.3350   32.9710 N   0  0  0  0  0  0  0  0  0  0  0  0
   20.1670   10.5290   33.0720 C   0  0  0  0  0  0  0  0  0  0  0  0
   19.0260   10.6190   33.6070 O   0  0  0  0  0  0  0  0  0  0  0  0
   20.8960   11.6330   32.4580 C   0  0  0  0  0  0  0  0  0  0  0  0
   22.0920   11.1600   31.9860 C   0  0  0  0  0  0  0  0  0  0  0  0
   20.6160   12.9680   32.2780 C   0  0  0  0  0  3  0  0  0  0  0  0
   22.9810   12.0080   31.3530 C   0  0  0  0  0  3  0  0  0  0  0  0
   22.1420    9.7220   32.3010 C   0  0  0  0  0  0  0  0  0  0  0  0
   22.6860   13.3470   31.1810 C   0  0  0  0  0  3  0  0  0  0  0  0
   21.4860   13.8360   31.6500 C   0  0  0  0  0  0  0  0  0  0  0  0
   21.0340   15.6760   31.4360 Br  0  0  0  0  0  0  0  0  0  0  0  0
   23.0760    8.9350   32.0320 O   0  0  0  0  0  0  0  0  0  0  0  0
  2  7  1  0  0  0  0
  2  1  1  0  0  0  0
  3  2  2  0  0  0  0
  4  5  2  0  0  0  0
  4  3  1  0  0  0  0
  5  6  1  0  0  0  0
  6  7  2  0  0  0  0
  8  5  1  0  0  0  0
  8  9  2  0  0  0  0
 10  8  2  0  0  0  0
 11 16  1  0  0  0  0
 11  8  1  0  0  0  0
 12 11  1  0  0  0  0
 13 12  1  0  0  0  0
 13 14  1  0  0  0  0
 14 15  1  0  0  0  0
 15 16  1  0  0  0  0
 17  1  1  0  0  0  0
 17 18  1  0  0  0  0
 18 19  2  0  0  0  0
 18 20  1  0  0  0  0
 21 22  1  0  0  0  0
 21 20  1  0  0  0  0
 22 23  2  0  0  0  0
 24 22  1  0  0  0  0
 25 28  1  0  0  0  0
 25 24  2  0  0  0  0
 26 24  1  0  0  0  0
 27 25  1  0  0  0  0
 28 21  1  0  0  0  0
 29 27  2  0  0  0  0
 29 30  1  0  0  0  0
 30 26  2  0  0  0  0
 31 30  1  0  0  0  0
 32 28  2  0  0  0  0
M  END
>  <Pose>
1

>  <Score>
-8.524

$$$$
