/Users/jonathanwahrer/Desktop/Msc/3_Semester/Drug_Design_Praktikum/waehrer_HTS_screening/HTS_experiment/out/docking_results/vina_output/3elj/1113_docked.pdbqt
 OpenBabel03192218063D

 28 31  0  0  0  0  0  0  0  0999 V2000
   23.3200   14.1400   30.8320 C   0  0  0  0  0  0  0  0  0  0  0  0
   23.4690   14.1160   29.4960 N   0  0  0  0  0  0  0  0  0  0  0  0
   24.2050   13.0280   29.1560 C   0  0  0  0  0  3  0  0  0  0  0  0
   24.5310   12.3490   30.2690 N   0  0  0  0  0  0  0  0  0  0  0  0
   24.0030   13.0080   31.2890 C   0  0  0  0  0  3  0  0  0  0  0  0
   25.3130   11.1290   30.2940 C   0  0  0  0  0  2  0  0  0  0  0  0
   24.4540    9.9260   30.1920 C   0  0  0  0  0  0  0  0  0  0  0  0
   23.7950    9.5300   29.0710 N   0  0  0  0  0  0  0  0  0  0  0  0
   23.1450    8.4400   29.3500 O   0  0  0  0  0  0  0  0  0  0  0  0
   23.3290    8.0800   30.5950 C   0  0  0  0  0  0  0  0  0  0  0  0
   24.1540    9.0200   31.1240 N   0  0  0  0  0  0  0  0  0  0  0  0
   22.7650    6.8960   31.3110 C   0  0  0  0  0  2  0  0  0  0  0  0
   21.4670    7.3270   31.9000 C   0  0  0  0  0  0  0  0  0  0  0  0
   20.4780    6.3740   32.0850 C   0  0  0  0  0  3  0  0  0  0  0  0
   19.2540    6.6800   32.6200 C   0  0  0  0  0  3  0  0  0  0  0  0
   19.0130    7.9780   32.9810 C   0  0  0  0  0  0  0  0  0  0  0  0
   19.9500    8.9510   32.8180 C   0  0  0  0  0  3  0  0  0  0  0  0
   17.3200    8.4430   33.7280 Br  0  0  0  0  0  0  0  0  0  0  0  0
   21.1850    8.6110   32.2730 C   0  0  0  0  0  3  0  0  0  0  0  0
   22.4630   15.3180   31.7980 S   0  0  0  0  0  0  0  0  0  0  0  0
   23.2180   15.4780   33.1110 O   0  0  0  0  0  0  0  0  0  0  0  0
   22.5470   16.6750   31.1290 O   0  0  0  0  0  0  0  0  0  0  0  0
   20.8770   14.9090   32.1490 N   0  0  0  0  0  0  0  0  0  0  0  0
   19.8460   15.5910   31.4840 C   0  0  0  0  0  2  0  0  0  0  0  0
   18.7910   14.6390   31.0030 C   0  0  0  0  0  2  0  0  0  0  0  0
   18.3270   13.9380   32.1020 O   0  0  0  0  0  0  0  0  0  0  0  0
   19.2880   13.0910   32.6410 C   0  0  0  0  0  2  0  0  0  0  0  0
   20.6130   13.7200   32.8360 C   0  0  0  0  0  2  0  0  0  0  0  0
  1  5  2  0  0  0  0
  1 20  1  0  0  0  0
  2  1  1  0  0  0  0
  3  2  2  0  0  0  0
  3  4  1  0  0  0  0
  4  6  1  0  0  0  0
  4  5  1  0  0  0  0
  7  6  1  0  0  0  0
  7 11  1  0  0  0  0
  8  9  1  0  0  0  0
  8  7  2  0  0  0  0
  9 10  1  0  0  0  0
 10 11  2  0  0  0  0
 10 12  1  0  0  0  0
 12 13  1  0  0  0  0
 13 14  2  0  0  0  0
 13 19  1  0  0  0  0
 14 15  1  0  0  0  0
 15 16  2  0  0  0  0
 16 18  1  0  0  0  0
 17 16  1  0  0  0  0
 19 17  2  0  0  0  0
 20 23  1  0  0  0  0
 20 21  2  0  0  0  0
 22 20  2  0  0  0  0
 23 28  1  0  0  0  0
 24 23  1  0  0  0  0
 25 24  1  0  0  0  0
 25 26  1  0  0  0  0
 26 27  1  0  0  0  0
 27 28  1  0  0  0  0
M  END
>  <Pose>
1

>  <Score>
-9.366

$$$$
