/Users/jonathanwahrer/Desktop/Msc/3_Semester/Drug_Design_Praktikum/waehrer_HTS_screening/HTS_experiment/out/docking_results/vina_output/3elj/1114_docked.pdbqt
 OpenBabel03192218063D

 27 30  0  0  0  0  0  0  0  0999 V2000
   23.0810   14.5820   30.7300 C   0  0  0  0  0  0  0  0  0  0  0  0
   23.2890   14.5180   29.4030 N   0  0  0  0  0  0  0  0  0  0  0  0
   23.9820   13.3960   29.1320 C   0  0  0  0  0  3  0  0  0  0  0  0
   24.2350   12.7190   30.2620 N   0  0  0  0  0  0  0  0  0  0  0  0
   23.6820   13.4470   31.2460 C   0  0  0  0  0  3  0  0  0  0  0  0
   24.9530   11.4670   30.3820 C   0  0  0  0  0  2  0  0  0  0  0  0
   24.0530   10.2910   30.4060 C   0  0  0  0  0  0  0  0  0  0  0  0
   23.9930    9.3530   29.4420 N   0  0  0  0  0  0  0  0  0  0  0  0
   23.1010    8.4700   29.7790 O   0  0  0  0  0  0  0  0  0  0  0  0
   22.5580    8.7710   30.9270 C   0  0  0  0  0  0  0  0  0  0  0  0
   23.1510    9.9090   31.3220 N   0  0  0  0  0  0  0  0  0  0  0  0
   21.5190    7.9930   31.6030 C   0  0  0  0  0  0  0  0  0  0  0  0
   20.4150    8.5890   32.1750 C   0  0  0  0  0  3  0  0  0  0  0  0
   19.4340    7.8350   32.8150 C   0  0  0  0  0  0  0  0  0  0  0  0
   19.5340    6.4640   32.8970 C   0  0  0  0  0  3  0  0  0  0  0  0
   17.9110    8.6820   33.6020 Br  0  0  0  0  0  0  0  0  0  0  0  0
   20.6360    5.8650   32.3260 C   0  0  0  0  0  3  0  0  0  0  0  0
   21.6180    6.6240   31.6850 C   0  0  0  0  0  3  0  0  0  0  0  0
   22.2240   15.8460   31.6200 S   0  0  0  0  0  0  0  0  0  0  0  0
   23.0120   16.1190   32.8740 O   0  0  0  0  0  0  0  0  0  0  0  0
   22.1800   17.1160   30.8340 O   0  0  0  0  0  0  0  0  0  0  0  0
   20.6560   15.3300   32.0670 N   0  0  0  0  0  0  0  0  0  0  0  0
   20.6120   14.0700   32.7090 C   0  0  0  0  0  2  0  0  0  0  0  0
   19.4350   13.2030   32.4070 C   0  0  0  0  0  2  0  0  0  0  0  0
   18.3200   14.0570   32.2410 O   0  0  0  0  0  0  0  0  0  0  0  0
   18.5270   14.6570   30.9960 C   0  0  0  0  0  2  0  0  0  0  0  0
   19.6520   15.6240   31.1100 C   0  0  0  0  0  2  0  0  0  0  0  0
  1  5  2  0  0  0  0
  1 19  1  0  0  0  0
  2  1  1  0  0  0  0
  3  2  2  0  0  0  0
  3  4  1  0  0  0  0
  4  6  1  0  0  0  0
  4  5  1  0  0  0  0
  6  7  1  0  0  0  0
  7 11  1  0  0  0  0
  8  9  1  0  0  0  0
  8  7  2  0  0  0  0
  9 10  1  0  0  0  0
 10 11  2  0  0  0  0
 10 12  1  0  0  0  0
 12 18  2  0  0  0  0
 12 13  1  0  0  0  0
 13 14  2  0  0  0  0
 14 15  1  0  0  0  0
 14 16  1  0  0  0  0
 17 15  2  0  0  0  0
 18 17  1  0  0  0  0
 19 22  1  0  0  0  0
 19 20  2  0  0  0  0
 21 19  2  0  0  0  0
 22 23  1  0  0  0  0
 24 23  1  0  0  0  0
 25 24  1  0  0  0  0
 26 27  1  0  0  0  0
 26 25  1  0  0  0  0
 27 22  1  0  0  0  0
M  END
>  <Pose>
1

>  <Score>
-9.371

$$$$
