/Users/jonathanwahrer/Desktop/Msc/3_Semester/Drug_Design_Praktikum/waehrer_HTS_screening/HTS_experiment/out/docking_results/vina_output/3elj/1143_docked.pdbqt
 OpenBabel03192218073D

 33 37  0  0  1  0  0  0  0  0999 V2000
   28.8350    5.6190   27.9780 C   0  0  1  0  0  3  0  0  0  0  0  0
   30.2410    5.2410   28.0120 N   0  0  0  0  0  4  0  0  0  0  0  0
   30.9320    5.9810   29.0540 C   0  0  0  0  0  2  0  0  0  0  0  0
   30.1500    7.1450   29.6040 C   0  0  0  0  0  2  0  0  0  0  0  0
   29.4960    7.8560   28.4480 C   0  0  0  0  0  0  0  0  0  0  0  0
   28.7990    7.0080   27.5540 C   0  0  0  0  0  0  0  0  0  0  0  0
   28.1900    7.5490   26.4570 C   0  0  0  0  0  0  0  0  0  0  0  0
   28.2840    8.9270   26.2740 C   0  0  0  0  0  0  0  0  0  0  0  0
   28.9660    9.7300   27.1570 C   0  0  0  0  0  0  0  0  0  0  0  0
   29.5890    9.1980   28.2710 C   0  0  0  0  0  3  0  0  0  0  0  0
   28.8830   11.0340   26.7130 O   0  0  0  0  0  0  0  0  0  0  0  0
   28.3940   11.0310   25.3950 C   0  0  0  0  0  2  0  0  0  0  0  0
   27.7890    9.7420   25.2930 O   0  0  0  0  0  0  0  0  0  0  0  0
   30.9400    5.4280   26.7870 C   0  0  0  0  0  1  0  0  0  0  0  0
   30.2730    4.2330   28.2710 H   0  0  0  0  0  0  0  0  0  0  0  0
   27.9780    4.5910   27.4020 C   0  0  1  0  0  3  0  0  0  0  0  0
   28.4500    3.2740   28.0570 C   0  0  0  0  0  0  0  0  0  0  0  0
   28.2400    3.2230   29.4580 N   0  0  0  0  0  2  0  0  0  0  0  0
   28.9590    2.3640   27.3970 O   0  0  0  0  0  0  0  0  0  0  0  0
   27.2780    3.7900   30.0910 C   0  0  0  0  0  0  0  0  0  0  0  0
   27.0930    3.6710   31.8640 S   0  0  0  0  0  0  0  0  0  0  0  0
   26.3590    4.5420   29.2650 N   0  0  0  0  0  0  0  0  0  0  0  0
   26.5560    4.6120   27.8610 C   0  0  0  0  0  0  0  0  0  0  0  0
   25.5590    4.6830   27.1400 O   0  0  0  0  0  0  0  0  0  0  0  0
   25.2670    5.2010   29.8380 C   0  0  0  0  0  0  0  0  0  0  0  0
   25.3060    6.6000   29.8830 C   0  0  0  0  0  3  0  0  0  0  0  0
   24.2660    7.3190   30.4320 C   0  0  0  0  0  3  0  0  0  0  0  0
   23.1660    6.6410   30.9480 C   0  0  0  0  0  0  0  0  0  0  0  0
   23.1360    5.2410   30.8980 C   0  0  0  0  0  3  0  0  0  0  0  0
   21.7220    7.5880   31.7080 Br  0  0  0  0  0  0  0  0  0  0  0  0
   24.1830    4.5410   30.3470 C   0  0  0  0  0  3  0  0  0  0  0  0
   27.5010    6.7640   25.5430 O   0  0  0  0  0  0  0  0  0  0  0  0
   28.1590    6.3660   24.3450 C   0  0  0  0  0  1  0  0  0  0  0  0
  1  6  1  6  0  0  0
  1  2  1  0  0  0  0
  2 15  1  0  0  0  0
  2  3  1  0  0  0  0
  3  4  1  0  0  0  0
  5  4  1  0  0  0  0
  6  5  2  0  0  0  0
  7  6  1  0  0  0  0
  8  7  2  0  0  0  0
  8  9  1  0  0  0  0
  9 10  2  0  0  0  0
 10  5  1  0  0  0  0
 11  9  1  0  0  0  0
 12 11  1  0  0  0  0
 13 12  1  0  0  0  0
 13  8  1  0  0  0  0
 14  2  1  0  0  0  0
 16 23  1  1  0  0  0
 16  1  1  0  0  0  0
 16 17  1  0  0  0  0
 17 18  1  0  0  0  0
 18 20  1  0  0  0  0
 19 17  2  0  0  0  0
 20 21  2  0  0  0  0
 22 25  1  0  0  0  0
 22 20  1  0  0  0  0
 23 22  1  0  0  0  0
 24 23  2  0  0  0  0
 25 26  2  0  0  0  0
 25 31  1  0  0  0  0
 26 27  1  0  0  0  0
 27 28  2  0  0  0  0
 28 30  1  0  0  0  0
 29 28  1  0  0  0  0
 31 29  2  0  0  0  0
 32  7  1  0  0  0  0
 33 32  1  0  0  0  0
M  END
>  <Pose>
1

>  <Score>
-6.307

$$$$
