/Users/jonathanwahrer/Desktop/Msc/3_Semester/Drug_Design_Praktikum/waehrer_HTS_screening/HTS_experiment/out/docking_results/vina_output/3elj/1157_docked.pdbqt
 OpenBabel03192218073D

 24 27  0  0  1  0  0  0  0  0999 V2000
   24.4690   10.4350   31.2810 C   0  0  2  0  0  3  0  0  0  0  0  0
   24.5570   11.8790   31.7060 C   0  0  0  0  0  2  0  0  0  0  0  0
   23.6740   12.5230   30.7450 N   0  0  0  0  0  0  0  0  0  0  0  0
   24.0460   11.9750   29.4630 C   0  0  0  0  0  2  0  0  0  0  0  0
   24.5190   10.5680   29.7740 C   0  0  0  0  0  2  0  0  0  0  0  0
   23.1790    9.8500   31.6180 N   0  0  0  0  0  0  0  0  0  0  0  0
   22.9670    8.4530   31.6090 C   0  0  0  0  0  0  0  0  0  0  0  0
   23.8640    7.6260   31.3150 O   0  0  0  0  0  0  0  0  0  0  0  0
   22.3760   10.4660   31.8760 H   0  0  0  0  0  0  0  0  0  0  0  0
   21.6480    7.8770   31.9550 C   0  0  0  0  0  0  0  0  0  0  0  0
   21.0850    6.2750   31.7870 S   0  0  0  0  0  0  0  0  0  0  0  0
   19.5090    6.4700   32.4050 C   0  0  0  0  0  3  0  0  0  0  0  0
   19.4680    7.8020   32.7310 C   0  0  0  0  0  0  0  0  0  0  0  0
   20.5670    8.5220   32.4980 C   0  0  0  0  0  3  0  0  0  0  0  0
   17.8410    8.5330   33.4930 Br  0  0  0  0  0  0  0  0  0  0  0  0
   22.6640   13.4930   31.0660 C   0  0  0  0  0  0  0  0  0  0  0  0
   22.7840   14.7760   30.6750 N   0  0  0  0  0  0  0  0  0  0  0  0
   21.8230   15.6610   30.9910 C   0  0  0  0  0  3  0  0  0  0  0  0
   20.7090   15.3030   31.7070 C   0  0  0  0  0  3  0  0  0  0  0  0
   20.5740   14.0270   32.1040 N   0  0  0  0  0  0  0  0  0  0  0  0
   21.5440   13.1480   31.7820 C   0  0  0  0  0  0  0  0  0  0  0  0
   19.6040   13.3960   32.8080 C   0  0  0  0  0  3  0  0  0  0  0  0
   21.1360   11.9760   32.3070 N   0  0  0  0  0  0  0  0  0  0  0  0
   19.9750   12.1100   32.9240 N   0  0  0  0  0  0  0  0  0  0  0  0
  1  6  1  6  0  0  0
  1  2  1  0  0  0  0
  3 16  1  0  0  0  0
  3  2  1  0  0  0  0
  4  5  1  0  0  0  0
  4  3  1  0  0  0  0
  5  1  1  0  0  0  0
  6  9  1  0  0  0  0
  7  6  1  0  0  0  0
  7 10  1  0  0  0  0
  8  7  2  0  0  0  0
 10 14  2  0  0  0  0
 11 10  1  0  0  0  0
 11 12  1  0  0  0  0
 12 13  2  0  0  0  0
 13 15  1  0  0  0  0
 14 13  1  0  0  0  0
 16 21  1  0  0  0  0
 17 18  1  0  0  0  0
 17 16  2  0  0  0  0
 18 19  2  0  0  0  0
 19 20  1  0  0  0  0
 20 22  1  0  0  0  0
 21 20  1  0  0  0  0
 21 23  2  0  0  0  0
 22 24  2  0  0  0  0
 23 24  1  0  0  0  0
M  END
>  <Pose>
1

>  <Score>
-7.939

$$$$
