/Users/jonathanwahrer/Desktop/Msc/3_Semester/Drug_Design_Praktikum/waehrer_HTS_screening/HTS_experiment/out/docking_results/vina_output/3elj/1160_docked.pdbqt
 OpenBabel03192218073D

 25 28  0  0  1  0  0  0  0  0999 V2000
   23.8590   12.8340   30.1560 C   0  0  0  0  0  0  0  0  0  0  0  0
   23.3430   14.0580   29.9410 N   0  0  0  0  0  0  0  0  0  0  0  0
   23.8630   14.5910   28.8220 C   0  0  0  0  0  0  0  0  0  0  0  0
   24.7120   13.6600   28.3560 N   0  0  0  0  0  0  0  0  0  0  0  0
   24.6930   12.6250   29.1650 O   0  0  0  0  0  0  0  0  0  0  0  0
   23.5850   15.8950   28.2190 C   0  0  0  0  0  0  0  0  0  0  0  0
   23.8390   16.2520   26.9490 N   0  0  0  0  0  0  0  0  0  0  0  0
   23.4560   17.5170   26.7430 N   0  0  0  0  0  0  0  0  0  0  0  0
   22.9430   17.9920   27.9000 C   0  0  0  0  0  3  0  0  0  0  0  0
   23.0340   16.9780   28.7910 N   0  0  0  0  0  0  0  0  0  0  0  0
   23.5680   18.2590   25.4980 C   0  0  0  0  0  2  0  0  0  0  0  0
   24.9150   18.0310   24.9330 C   0  0  0  0  0  0  0  0  0  0  0  0
   25.7440   18.9670   24.9640 O   0  0  0  0  0  0  0  0  0  0  0  0
   25.2450   16.7750   24.3730 N   0  0  0  0  0  0  0  0  0  0  0  0
   26.1740   16.3080   24.5640 H   0  0  0  0  0  0  0  0  0  0  0  0
   24.6080   16.2300   23.7430 H   0  0  0  0  0  0  0  0  0  0  0  0
   23.5510   11.8950   31.2910 C   0  0  1  0  0  3  0  0  0  0  0  0
   22.9270   10.5700   30.8310 C   0  0  1  0  0  3  0  0  0  0  0  0
   24.2810   10.6090   31.3870 C   0  0  0  0  0  2  0  0  0  0  0  0
   21.8070   10.1060   31.7440 C   0  0  0  0  0  0  0  0  0  0  0  0
   21.4830    8.7980   31.8630 C   0  0  0  0  0  3  0  0  0  0  0  0
   20.4580    8.4930   32.7210 C   0  0  0  0  0  0  0  0  0  0  0  0
   19.9850   10.0090   33.3260 S   0  0  0  0  0  0  0  0  0  0  0  0
   19.7530    6.7400   33.1180 Br  0  0  0  0  0  0  0  0  0  0  0  0
   21.0870   10.9970   32.4870 C   0  0  0  0  0  3  0  0  0  0  0  0
  2  1  2  0  0  0  0
  3  2  1  0  0  0  0
  4  3  2  0  0  0  0
  4  5  1  0  0  0  0
  5  1  1  0  0  0  0
  6 10  1  0  0  0  0
  6  3  1  0  0  0  0
  7  6  2  0  0  0  0
  8  7  1  0  0  0  0
  8  9  1  0  0  0  0
  9 10  2  0  0  0  0
 11  8  1  0  0  0  0
 12 13  2  0  0  0  0
 12 11  1  0  0  0  0
 14 15  1  0  0  0  0
 14 12  1  0  0  0  0
 16 14  1  0  0  0  0
 17  1  1  6  0  0  0
 17 19  1  0  0  0  0
 18 17  1  0  0  0  0
 18 19  1  0  0  0  0
 18 20  1  1  0  0  0
 20 21  1  0  0  0  0
 20 25  2  0  0  0  0
 21 22  2  0  0  0  0
 22 24  1  0  0  0  0
 22 23  1  0  0  0  0
 25 23  1  0  0  0  0
M  END
>  <Pose>
1

>  <Score>
-8.389

$$$$
