/Users/jonathanwahrer/Desktop/Msc/3_Semester/Drug_Design_Praktikum/waehrer_HTS_screening/HTS_experiment/out/docking_results/vina_output/3elj/1161_docked.pdbqt
 OpenBabel03192218083D

 29 32  0  0  1  0  0  0  0  0999 V2000
   22.6630    8.6530   30.2190 N   0  0  0  0  0  0  0  0  0  0  0  0
   21.8060    8.6960   31.2660 C   0  0  0  0  0  0  0  0  0  0  0  0
   21.8100    9.9440   31.8130 C   0  0  0  0  0  0  0  0  0  0  0  0
   21.0070   10.2360   32.9000 C   0  0  0  0  0  3  0  0  0  0  0  0
   20.2030    9.2480   33.4220 C   0  0  0  0  0  3  0  0  0  0  0  0
   20.1800    7.9840   32.8900 C   0  0  0  0  0  3  0  0  0  0  0  0
   20.9920    7.7260   31.8070 C   0  0  0  0  0  3  0  0  0  0  0  0
   22.6760   10.6700   31.1000 N   0  0  0  0  0  0  0  0  0  0  0  0
   23.1980    9.8730   30.1240 C   0  0  1  0  0  3  0  0  0  0  0  0
   22.9040    7.4830   29.4110 C   0  0  0  0  0  2  0  0  0  0  0  0
   24.2350    6.8860   29.6820 C   0  0  0  0  0  0  0  0  0  0  0  0
   25.2790    7.3820   29.1910 O   0  0  0  0  0  0  0  0  0  0  0  0
   24.3940    5.6990   30.5280 C   0  0  0  0  0  0  0  0  0  0  0  0
   23.2180    4.7840   31.3730 S   0  0  0  0  0  0  0  0  0  0  0  0
   24.2260    3.6200   32.0930 C   0  0  0  0  0  0  0  0  0  0  0  0
   25.4680    3.9800   31.6490 C   0  0  0  0  0  3  0  0  0  0  0  0
   23.7170    2.1770   33.2320 Br  0  0  0  0  0  0  0  0  0  0  0  0
   25.5570    5.0440   30.8480 C   0  0  0  0  0  3  0  0  0  0  0  0
   24.0690   10.3380   29.3080 N   0  0  0  0  0  2  0  0  0  0  0  0
   24.7890    9.8400   28.7880 H   0  0  0  0  0  0  0  0  0  0  0  0
   22.9760   12.0750   31.3430 C   0  0  0  0  0  2  0  0  0  0  0  0
   21.6630   12.8670   31.2490 C   0  0  0  0  0  2  0  0  0  0  0  0
   21.4340   13.6680   32.4170 N   0  0  0  0  0  4  0  0  0  0  0  0
   21.6230   15.0890   32.2050 C   0  0  0  0  0  2  0  0  0  0  0  0
   20.8420   15.5900   31.0230 C   0  0  0  0  0  2  0  0  0  0  0  0
   19.4200   15.1390   31.0190 C   0  0  0  0  0  2  0  0  0  0  0  0
   19.1420   13.8560   31.7180 C   0  0  0  0  0  2  0  0  0  0  0  0
   20.0620   13.4960   32.8280 C   0  0  0  0  0  2  0  0  0  0  0  0
   22.0990   13.4030   33.1760 H   0  0  0  0  0  0  0  0  0  0  0  0
  1  2  1  0  0  0  0
  2  7  2  0  0  0  0
  2  3  1  0  0  0  0
  3  4  2  0  0  0  0
  4  5  1  0  0  0  0
  6  5  2  0  0  0  0
  7  6  1  0  0  0  0
  8 21  1  0  0  0  0
  8  3  1  0  0  0  0
  9 19  1  1  0  0  0
  9  1  1  0  0  0  0
  9  8  1  0  0  0  0
 10 11  1  0  0  0  0
 10  1  1  0  0  0  0
 11 13  1  0  0  0  0
 12 11  2  0  0  0  0
 13 18  2  0  0  0  0
 13 14  1  0  0  0  0
 14 15  1  0  0  0  0
 15 17  1  0  0  0  0
 16 15  2  0  0  0  0
 18 16  1  0  0  0  0
 20 19  1  0  0  0  0
 22 21  1  0  0  0  0
 22 23  1  0  0  0  0
 23 28  1  0  0  0  0
 23 29  1  0  0  0  0
 24 23  1  0  0  0  0
 25 24  1  0  0  0  0
 26 25  1  0  0  0  0
 26 27  1  0  0  0  0
 27 28  1  0  0  0  0
M  END
>  <Pose>
1

>  <Score>
-8.161

$$$$
