/Users/jonathanwahrer/Desktop/Msc/3_Semester/Drug_Design_Praktikum/waehrer_HTS_screening/HTS_experiment/out/docking_results/vina_output/3elj/1178_docked.pdbqt
 OpenBabel03192218093D

 33 36  0  0  1  0  0  0  0  0999 V2000
   24.1590    8.2780   30.4830 C   0  0  1  0  0  3  0  0  0  0  0  0
   23.7910    9.1140   31.6680 C   0  0  1  0  0  3  0  0  0  0  0  0
   24.1900   10.4340   31.2560 N   0  0  0  0  0  0  0  0  0  0  0  0
   25.3720   10.2430   30.4660 C   0  0  0  0  0  0  0  0  0  0  0  0
   26.2500   11.0960   30.2450 O   0  0  0  0  0  0  0  0  0  0  0  0
   25.3810    8.8770   29.9620 C   0  0  0  0  0  0  0  0  0  0  0  0
   26.2150    8.2680   29.2390 O   0  0  0  0  0  0  0  0  0  0  0  0
   23.5240   11.6510   31.6110 C   0  0  0  0  0  2  0  0  0  0  0  0
   22.8370   12.3440   30.5090 C   0  0  0  0  0  2  0  0  0  0  0  0
   21.5710   12.9760   30.7770 C   0  0  0  0  0  2  0  0  0  0  0  0
   21.1370   13.6450   31.9090 N   0  0  0  0  0  4  0  0  0  0  0  0
   19.6350   13.8040   31.8920 C   0  0  0  0  0  2  0  0  0  0  0  0
   19.2750   14.9460   31.0010 C   0  0  0  0  0  2  0  0  0  0  0  0
   19.7180   16.1090   31.6200 O   0  0  0  0  0  0  0  0  0  0  0  0
   21.1280   16.0670   31.5260 C   0  0  0  0  0  2  0  0  0  0  0  0
   21.6790   14.9000   32.2980 C   0  0  0  0  0  2  0  0  0  0  0  0
   21.2420   13.0270   32.7500 H   0  0  0  0  0  0  0  0  0  0  0  0
   22.3690    8.9530   32.0050 C   0  0  0  0  0  0  0  0  0  0  0  0
   21.3010    9.2540   31.2040 C   0  0  0  0  0  3  0  0  0  0  0  0
   19.9820    9.0910   31.5600 C   0  0  0  0  0  3  0  0  0  0  0  0
   19.6960    8.5920   32.8060 C   0  0  0  0  0  0  0  0  0  0  0  0
   20.7220    8.2720   33.6550 C   0  0  0  0  0  3  0  0  0  0  0  0
   17.8580    8.3650   33.2980 Br  0  0  0  0  0  0  0  0  0  0  0  0
   22.0300    8.4470   33.2670 C   0  0  0  0  0  3  0  0  0  0  0  0
   23.5150    7.2230   30.0790 C   0  0  2  0  0  3  0  0  0  0  0  0
   22.6370    7.3280   28.9880 O   0  0  0  0  0  1  0  0  0  0  0  0
   23.6990    5.9200   30.7570 C   0  0  0  0  0  0  0  0  0  0  0  0
   25.1470    5.0850   31.1280 S   0  0  0  0  0  0  0  0  0  0  0  0
   24.4750    3.7480   31.9420 C   0  0  0  0  0  0  0  0  0  0  0  0
   23.1830    4.0050   31.8920 N   0  0  0  0  0  0  0  0  0  0  0  0
   25.1460    2.5580   32.5730 C   0  0  0  0  0  1  0  0  0  0  0  0
   22.7590    5.0830   31.3070 C   0  0  0  0  0  0  0  0  0  0  0  0
   21.2740    5.4340   31.2680 C   0  0  0  0  0  1  0  0  0  0  0  0
  1 25  1  1  0  0  0
  1  2  1  0  0  0  0
  2 18  1  6  0  0  0
  3  8  1  0  0  0  0
  3  2  1  0  0  0  0
  4  3  1  0  0  0  0
  5  4  2  0  0  0  0
  6  4  1  0  0  0  0
  6  1  1  0  0  0  0
  7  6  2  0  0  0  0
  9 10  1  0  0  0  0
  9  8  1  0  0  0  0
 10 11  1  0  0  0  0
 11 16  1  0  0  0  0
 11 17  1  0  0  0  0
 12 11  1  0  0  0  0
 13 14  1  0  0  0  0
 13 12  1  0  0  0  0
 15 14  1  0  0  0  0
 15 16  1  0  0  0  0
 18 24  1  0  0  0  0
 19 20  1  0  0  0  0
 19 18  2  0  0  0  0
 20 21  2  0  0  0  0
 21 23  1  0  0  0  0
 21 22  1  0  0  0  0
 24 22  2  0  0  0  0
 25 26  1  1  0  0  0
 25 27  1  0  0  0  0
 27 28  1  0  0  0  0
 27 32  2  0  0  0  0
 28 29  1  0  0  0  0
 29 31  1  0  0  0  0
 30 29  2  0  0  0  0
 32 30  1  0  0  0  0
 33 32  1  0  0  0  0
M  END
>  <Pose>
1

>  <Score>
-7.800

$$$$
