/Users/jonathanwahrer/Desktop/Msc/3_Semester/Drug_Design_Praktikum/waehrer_HTS_screening/HTS_experiment/out/docking_results/vina_output/3elj/1180_docked.pdbqt
 OpenBabel03192218093D

 32 35  0  0  1  0  0  0  0  0999 V2000
   23.8720    8.3560   30.4320 C   0  0  1  0  0  3  0  0  0  0  0  0
   23.2320    9.3370   31.3600 C   0  0  1  0  0  3  0  0  0  0  0  0
   23.6010   10.5580   30.7560 N   0  0  0  0  0  0  0  0  0  0  0  0
   25.0490   10.3560   30.5140 C   0  0  0  0  0  0  0  0  0  0  0  0
   25.9450   11.2410   30.4940 O   0  0  0  0  0  0  0  0  0  0  0  0
   25.2150    8.9220   30.3030 C   0  0  0  0  0  0  0  0  0  0  0  0
   26.2610    8.2450   30.0600 O   0  0  0  0  0  0  0  0  0  0  0  0
   23.3740    7.2560   29.9090 C   0  0  2  0  0  3  0  0  0  0  0  0
   22.3420    7.3300   28.9900 O   0  0  0  0  0  1  0  0  0  0  0  0
   23.9640    5.9830   30.3490 C   0  0  0  0  0  0  0  0  0  0  0  0
   23.6140    5.0600   31.7620 S   0  0  0  0  0  0  0  0  0  0  0  0
   24.6600    3.7470   31.4850 C   0  0  0  0  0  0  0  0  0  0  0  0
   25.2210    4.0720   30.3370 N   0  0  0  0  0  0  0  0  0  0  0  0
   24.8920    2.5250   32.3320 C   0  0  0  0  0  1  0  0  0  0  0  0
   24.8990    5.1780   29.7420 C   0  0  0  0  0  0  0  0  0  0  0  0
   25.5020    5.5480   28.3950 C   0  0  0  0  0  1  0  0  0  0  0  0
   21.9430    9.0190   31.8690 C   0  0  0  0  0  0  0  0  0  0  0  0
   21.1720   10.0330   32.4440 C   0  0  0  0  0  3  0  0  0  0  0  0
   19.9270    9.8090   32.9730 C   0  0  0  0  0  3  0  0  0  0  0  0
   19.4270    8.5250   32.9280 C   0  0  0  0  0  0  0  0  0  0  0  0
   20.1720    7.5100   32.3650 C   0  0  0  0  0  3  0  0  0  0  0  0
   17.6980    8.1250   33.6430 Br  0  0  0  0  0  0  0  0  0  0  0  0
   21.4190    7.7590   31.8400 C   0  0  0  0  0  3  0  0  0  0  0  0
   23.0650   11.8320   30.4170 C   0  0  0  0  0  2  0  0  0  0  0  0
   23.2960   12.9890   31.2900 C   0  0  0  0  0  2  0  0  0  0  0  0
   22.2760   13.9000   31.6170 N   0  0  0  0  0  4  0  0  0  0  0  0
   22.4350   15.2200   31.0420 C   0  0  0  0  0  2  0  0  0  0  0  0
   21.3170   16.0770   31.6270 C   0  0  0  0  0  2  0  0  0  0  0  0
   20.3220   15.2800   32.1930 O   0  0  0  0  0  0  0  0  0  0  0  0
   19.9560   14.3630   31.1880 C   0  0  0  0  0  2  0  0  0  0  0  0
   21.0580   13.3800   30.9140 C   0  0  0  0  0  2  0  0  0  0  0  0
   22.0470   13.8840   32.6160 H   0  0  0  0  0  0  0  0  0  0  0  0
  1  8  1  1  0  0  0
  1  2  1  0  0  0  0
  2 17  1  6  0  0  0
  3  2  1  0  0  0  0
  4  3  1  0  0  0  0
  5  4  2  0  0  0  0
  6  1  1  0  0  0  0
  6  4  1  0  0  0  0
  7  6  2  0  0  0  0
  8  9  1  1  0  0  0
  8 10  1  0  0  0  0
 10 11  1  0  0  0  0
 12 11  1  0  0  0  0
 12 14  1  0  0  0  0
 13 12  2  0  0  0  0
 15 13  1  0  0  0  0
 15 10  2  0  0  0  0
 16 15  1  0  0  0  0
 17 18  1  0  0  0  0
 18 19  2  0  0  0  0
 20 19  1  0  0  0  0
 20 22  1  0  0  0  0
 21 20  2  0  0  0  0
 23 17  2  0  0  0  0
 23 21  1  0  0  0  0
 24  3  1  0  0  0  0
 24 25  1  0  0  0  0
 25 26  1  0  0  0  0
 26 32  1  0  0  0  0
 27 26  1  0  0  0  0
 27 28  1  0  0  0  0
 28 29  1  0  0  0  0
 30 29  1  0  0  0  0
 31 30  1  0  0  0  0
 31 26  1  0  0  0  0
M  END
>  <Pose>
1

>  <Score>
-8.608

$$$$
