/Users/jonathanwahrer/Desktop/Msc/3_Semester/Drug_Design_Praktikum/waehrer_HTS_screening/HTS_experiment/out/docking_results/vina_output/3elj/1193_docked.pdbqt
 OpenBabel03192218093D

 29 32  0  0  1  0  0  0  0  0999 V2000
   25.8410    1.7460   32.0850 S   0  0  0  0  0  0  0  0  0  0  0  0
   26.2160    2.7460   30.7540 C   0  0  0  0  0  0  0  0  0  0  0  0
   27.3500    3.3910   31.1630 C   0  0  0  0  0  0  0  0  0  0  0  0
   27.8200    3.0860   32.3980 C   0  0  0  0  0  0  0  0  0  0  0  0
   27.1140    2.1590   33.1240 C   0  0  0  0  0  0  0  0  0  0  0  0
   27.5270    1.7410   34.4960 C   0  0  0  0  0  2  0  0  0  0  0  0
   28.9330    1.7650   34.7130 N   0  0  0  0  0  4  0  0  0  0  0  0
   29.7140    2.4630   33.7490 C   0  0  0  0  0  2  0  0  0  0  0  0
   29.0580    3.6460   33.1090 C   0  0  0  0  0  2  0  0  0  0  0  0
   29.2460    2.1910   36.0720 C   0  0  0  0  0  1  0  0  0  0  0  0
   27.8970    4.3420   30.1470 C   0  0  0  0  0  0  0  0  0  0  0  0
   28.9520    5.0050   30.4120 O   0  0  0  0  0  0  0  0  0  0  0  0
   27.2410    4.4990   28.9050 N   0  0  0  0  0  0  0  0  0  0  0  0
   25.8190    4.2610   28.7840 C   0  0  1  0  0  3  0  0  0  0  0  0
   25.6040    2.9800   29.4560 N   0  0  0  0  0  0  0  0  0  0  0  0
   29.2590    0.7490   34.6800 H   0  0  0  0  0  0  0  0  0  0  0  0
   27.7840    4.7890   28.0620 H   0  0  0  0  0  0  0  0  0  0  0  0
   25.0360    2.2060   29.0750 H   0  0  0  0  0  0  0  0  0  0  0  0
   25.1250    5.3450   29.5270 C   0  0  0  0  0  0  0  0  0  0  0  0
   25.5570    6.6510   29.4340 C   0  0  0  0  0  3  0  0  0  0  0  0
   24.9280    7.6710   30.1140 C   0  0  0  0  0  0  0  0  0  0  0  0
   23.8310    7.3820   30.9150 C   0  0  0  0  0  0  0  0  0  0  0  0
   25.5140    9.4800   29.9950 Br  0  0  0  0  0  0  0  0  0  0  0  0
   23.3760    6.0850   31.0260 C   0  0  0  0  0  0  0  0  0  0  0  0
   23.1780    8.3960   31.6120 O   0  0  0  0  0  1  0  0  0  0  0  0
   24.0190    5.1010   30.3430 C   0  0  0  0  0  3  0  0  0  0  0  0
   22.2810    5.8500   31.8360 O   0  0  0  0  0  0  0  0  0  0  0  0
   20.9710    5.6520   31.4040 C   0  0  0  0  0  2  0  0  0  0  0  0
   19.9820    6.3990   32.2710 C   0  0  0  0  0  1  0  0  0  0  0  0
  1  5  1  0  0  0  0
  2  3  2  0  0  0  0
  2  1  1  0  0  0  0
  3  4  1  0  0  0  0
  4  9  1  0  0  0  0
  4  5  2  0  0  0  0
  5  6  1  0  0  0  0
  6  7  1  0  0  0  0
  7 10  1  0  0  0  0
  8  7  1  0  0  0  0
  9  8  1  0  0  0  0
 11 12  2  0  0  0  0
 11  3  1  0  0  0  0
 13 11  1  0  0  0  0
 14 13  1  0  0  0  0
 14 15  1  0  0  0  0
 14 19  1  1  0  0  0
 15  2  1  0  0  0  0
 16  7  1  0  0  0  0
 17 13  1  0  0  0  0
 18 15  1  0  0  0  0
 19 26  1  0  0  0  0
 20 19  2  0  0  0  0
 20 21  1  0  0  0  0
 21 22  2  0  0  0  0
 22 24  1  0  0  0  0
 22 25  1  0  0  0  0
 23 21  1  0  0  0  0
 24 27  1  0  0  0  0
 26 24  2  0  0  0  0
 28 27  1  0  0  0  0
 28 29  1  0  0  0  0
M  END
>  <Pose>
1

>  <Score>
-6.275

$$$$
