/Users/jonathanwahrer/Desktop/Msc/3_Semester/Drug_Design_Praktikum/waehrer_HTS_screening/HTS_experiment/out/docking_results/vina_output/3elj/1211_docked.pdbqt
 OpenBabel03192218103D

 26 29  0  0  1  0  0  0  0  0999 V2000
   22.1720    8.9510   29.6750 S   0  0  0  0  0  0  0  0  0  0  0  0
   22.7510    7.2110   29.7570 C   0  0  0  0  0  2  0  0  0  0  0  0
   23.4200    7.0980   31.1290 C   0  0  0  0  0  2  0  0  0  0  0  0
   24.6700    7.9720   31.1070 C   0  0  0  0  0  2  0  0  0  0  0  0
   24.2550    9.3200   31.4110 N   0  0  1  0  0  0  0  0  0  0  0  0
   23.1930    9.8340   30.8490 C   0  0  2  0  0  3  0  0  0  0  0  0
   23.0380   11.1800   31.3730 N   0  0  0  0  0  0  0  0  0  0  0  0
   24.4170   11.5990   31.4930 C   0  0  2  0  0  0  0  0  0  0  0  0
   24.8210   10.3220   32.3200 C   0  0  0  0  0  2  0  0  0  0  0  0
   24.6340   12.7410   32.1980 O   0  0  0  0  0  0  0  0  0  0  0  0
   25.3310   13.2840   31.7160 H   0  0  0  0  0  0  0  0  0  0  0  0
   25.0740   11.5190   30.1840 C   0  0  0  0  0  0  0  0  0  0  0  0
   26.2580   10.8340   29.9730 C   0  0  0  0  0  3  0  0  0  0  0  0
   26.8430   10.8310   28.6970 C   0  0  0  0  0  3  0  0  0  0  0  0
   26.2980   11.4760   27.6530 C   0  0  0  0  0  0  0  0  0  0  0  0
   25.0900   12.1820   27.8320 C   0  0  0  0  0  3  0  0  0  0  0  0
   24.5450   12.1600   29.1040 C   0  0  0  0  0  3  0  0  0  0  0  0
   26.8590   11.5000   26.3490 O   0  0  0  0  0  0  0  0  0  0  0  0
   27.9770   10.6950   26.0400 C   0  0  0  0  0  1  0  0  0  0  0  0
   21.8330   11.8190   31.7290 C   0  0  0  0  0  0  0  0  0  0  0  0
   20.9860   11.1580   32.6520 C   0  0  0  0  0  3  0  0  0  0  0  0
   19.7590   11.6820   33.0200 C   0  0  0  0  0  3  0  0  0  0  0  0
   19.3120   12.8670   32.5020 C   0  0  0  0  0  0  0  0  0  0  0  0
   20.1150   13.5340   31.6000 C   0  0  0  0  0  3  0  0  0  0  0  0
   17.6190   13.6190   32.9640 Br  0  0  0  0  0  0  0  0  0  0  0  0
   21.3630   12.9960   31.2320 C   0  0  0  0  0  3  0  0  0  0  0  0
  1  2  1  0  0  0  0
  2  3  1  0  0  0  0
  4  3  1  0  0  0  0
  5  4  1  1  0  0  0
  5  9  1  0  0  0  0
  6  1  1  1  0  0  0
  6  7  1  0  0  0  0
  6  5  1  0  0  0  0
  7  8  1  0  0  0  0
  7 20  1  0  0  0  0
  8 10  1  1  0  0  0
  8  9  1  0  0  0  0
 11 10  1  0  0  0  0
 12  8  1  0  0  0  0
 13 12  1  0  0  0  0
 14 13  2  0  0  0  0
 15 16  2  0  0  0  0
 15 14  1  0  0  0  0
 16 17  1  0  0  0  0
 17 12  2  0  0  0  0
 18 15  1  0  0  0  0
 19 18  1  0  0  0  0
 20 21  1  0  0  0  0
 21 22  2  0  0  0  0
 23 25  1  0  0  0  0
 23 22  1  0  0  0  0
 24 23  2  0  0  0  0
 26 24  1  0  0  0  0
 26 20  2  0  0  0  0
M  END
>  <Pose>
1

>  <Score>
-6.325

$$$$
