/Users/jonathanwahrer/Desktop/Msc/3_Semester/Drug_Design_Praktikum/waehrer_HTS_screening/HTS_experiment/out/docking_results/vina_output/3elj/1217_docked.pdbqt
 OpenBabel03192218103D

 28 31  0  0  1  0  0  0  0  0999 V2000
   26.8350    4.0540   31.3790 S   0  0  0  0  0  0  0  0  0  0  0  0
   28.1440    2.8600   31.4870 C   0  0  0  0  0  2  0  0  0  0  0  0
   29.0890    3.0340   30.3150 C   0  0  0  0  0  2  0  0  0  0  0  0
   28.3270    2.8170   29.0200 C   0  0  0  0  0  2  0  0  0  0  0  0
   27.4950    3.9650   28.7400 N   0  0  2  0  0  0  0  0  0  0  0  0
   27.4100    4.8280   27.6060 C   0  0  2  0  0  0  0  0  0  0  0  0
   25.9230    5.1440   27.6370 C   0  0  0  0  0  2  0  0  0  0  0  0
   25.6340    5.2080   29.0520 N   0  0  0  0  0  0  0  0  0  0  0  0
   26.5140    4.4870   29.6540 C   0  0  2  0  0  3  0  0  0  0  0  0
   24.6050    5.9500   29.6900 C   0  0  0  0  0  0  0  0  0  0  0  0
   24.8110    7.3150   29.8390 C   0  0  0  0  0  0  0  0  0  0  0  0
   23.8550    8.1100   30.4810 C   0  0  0  0  0  3  0  0  0  0  0  0
   22.6990    7.5290   30.9710 C   0  0  0  0  0  3  0  0  0  0  0  0
   22.4630    6.1810   30.8400 C   0  0  0  0  0  0  0  0  0  0  0  0
   23.4630    5.4370   30.1850 C   0  0  0  0  0  3  0  0  0  0  0  0
   25.9660    7.8890   29.3520 O   0  0  0  0  0  0  0  0  0  0  0  0
   26.3550    9.2280   29.5550 C   0  0  0  0  0  1  0  0  0  0  0  0
   21.3280    5.5410   31.3080 O   0  0  0  0  0  0  0  0  0  0  0  0
   20.5470    5.9430   32.3960 C   0  0  0  0  0  1  0  0  0  0  0  0
   27.7500    4.1370   26.4470 O   0  0  0  0  0  0  0  0  0  0  0  0
   27.3820    3.2240   26.4750 H   0  0  0  0  0  0  0  0  0  0  0  0
   28.1380    6.1070   27.7190 C   0  0  0  0  0  0  0  0  0  0  0  0
   28.9990    6.4590   28.7110 C   0  0  0  0  0  3  0  0  0  0  0  0
   29.6070    7.7160   28.7380 C   0  0  0  0  0  3  0  0  0  0  0  0
   29.3560    8.6520   27.7570 C   0  0  0  0  0  0  0  0  0  0  0  0
   28.4960    8.3100   26.7590 C   0  0  0  0  0  3  0  0  0  0  0  0
   30.1940   10.3760   27.8110 Br  0  0  0  0  0  0  0  0  0  0  0  0
   27.9010    7.0790   26.7330 C   0  0  0  0  0  3  0  0  0  0  0  0
  1  2  1  0  0  0  0
  3  2  1  0  0  0  0
  4  3  1  0  0  0  0
  5  4  1  1  0  0  0
  5  9  1  0  0  0  0
  6 20  1  6  0  0  0
  6  7  1  0  0  0  0
  6 22  1  0  0  0  0
  6  5  1  0  0  0  0
  7  8  1  0  0  0  0
  8  9  1  0  0  0  0
  8 10  1  0  0  0  0
  9  1  1  1  0  0  0
 10 11  2  0  0  0  0
 10 15  1  0  0  0  0
 11 12  1  0  0  0  0
 12 13  2  0  0  0  0
 14 13  1  0  0  0  0
 14 18  1  0  0  0  0
 15 14  2  0  0  0  0
 16 17  1  0  0  0  0
 16 11  1  0  0  0  0
 18 19  1  0  0  0  0
 20 21  1  0  0  0  0
 22 23  1  0  0  0  0
 23 24  2  0  0  0  0
 25 27  1  0  0  0  0
 25 24  1  0  0  0  0
 26 25  2  0  0  0  0
 28 26  1  0  0  0  0
 28 22  2  0  0  0  0
M  END
>  <Pose>
1

>  <Score>
-5.849

$$$$
