/Users/jonathanwahrer/Desktop/Msc/3_Semester/Drug_Design_Praktikum/waehrer_HTS_screening/HTS_experiment/out/docking_results/vina_output/3elj/1222_docked.pdbqt
 OpenBabel03192218103D

 24 27  0  0  1  0  0  0  0  0999 V2000
   24.4400    9.3100   32.1860 S   0  0  0  0  0  0  0  0  0  0  0  0
   25.2960   10.6150   31.1950 C   0  0  0  0  0  2  0  0  0  0  0  0
   25.7000   10.0690   29.8510 C   0  0  0  0  0  2  0  0  0  0  0  0
   25.9650    8.5780   29.8510 C   0  0  0  0  0  2  0  0  0  0  0  0
   24.8050    7.7840   29.9730 N   0  0  1  0  0  0  0  0  0  0  0  0
   24.2300    6.5220   29.4760 C   0  0  1  0  0  0  0  0  0  0  0  0
   22.7920    6.9730   29.3870 C   0  0  0  0  0  2  0  0  0  0  0  0
   22.6510    7.7280   30.6230 N   0  0  0  0  0  0  0  0  0  0  0  0
   23.7620    8.2350   30.8800 C   0  0  1  0  0  3  0  0  0  0  0  0
   24.6990    6.1650   28.2490 O   0  0  0  0  0  0  0  0  0  0  0  0
   25.6060    5.7700   28.2270 H   0  0  0  0  0  0  0  0  0  0  0  0
   24.3530    5.4420   30.5100 C   0  0  0  0  0  0  0  0  0  0  0  0
   23.2570    4.8250   31.0840 C   0  0  0  0  0  3  0  0  0  0  0  0
   23.4590    3.8290   32.0300 C   0  0  0  0  0  3  0  0  0  0  0  0
   24.7240    3.4170   32.4290 C   0  0  0  0  0  3  0  0  0  0  0  0
   25.8130    4.0220   31.8650 C   0  0  0  0  0  3  0  0  0  0  0  0
   25.6140    5.0250   30.9170 C   0  0  0  0  0  3  0  0  0  0  0  0
   21.4520    7.8040   31.4240 C   0  0  0  0  0  0  0  0  0  0  0  0
   20.6790    6.7450   31.7810 C   0  0  0  0  0  3  0  0  0  0  0  0
   19.5050    6.8680   32.5150 C   0  0  0  0  0  3  0  0  0  0  0  0
   19.0830    8.1090   32.9110 C   0  0  0  0  0  0  0  0  0  0  0  0
   19.8660    9.1890   32.5500 C   0  0  0  0  0  3  0  0  0  0  0  0
   17.4740    8.3770   33.9230 Br  0  0  0  0  0  0  0  0  0  0  0  0
   21.0210    9.0660   31.8280 C   0  0  0  0  0  3  0  0  0  0  0  0
  2  1  1  0  0  0  0
  3  2  1  0  0  0  0
  4  3  1  0  0  0  0
  5  4  1  1  0  0  0
  5  9  1  0  0  0  0
  6 10  1  6  0  0  0
  6  5  1  0  0  0  0
  6 12  1  0  0  0  0
  7  6  1  0  0  0  0
  7  8  1  0  0  0  0
  8  9  1  0  0  0  0
  8 18  1  0  0  0  0
  9  1  1  1  0  0  0
 11 10  1  0  0  0  0
 12 17  2  0  0  0  0
 12 13  1  0  0  0  0
 13 14  2  0  0  0  0
 14 15  1  0  0  0  0
 16 15  2  0  0  0  0
 17 16  1  0  0  0  0
 18 19  2  0  0  0  0
 18 24  1  0  0  0  0
 19 20  1  0  0  0  0
 20 21  2  0  0  0  0
 21 23  1  0  0  0  0
 22 21  1  0  0  0  0
 24 22  2  0  0  0  0
M  END
>  <Pose>
1

>  <Score>
-7.578

$$$$
