/Users/jonathanwahrer/Desktop/Msc/3_Semester/Drug_Design_Praktikum/waehrer_HTS_screening/HTS_experiment/out/docking_results/vina_output/3elj/1224_docked.pdbqt
 OpenBabel03192218113D

 26 29  0  0  1  0  0  0  0  0999 V2000
   27.1430    8.5590   29.0420 S   0  0  0  0  0  0  0  0  0  0  0  0
   28.1390    9.1710   27.6220 C   0  0  0  0  0  2  0  0  0  0  0  0
   29.1650    8.0790   27.3540 C   0  0  0  0  0  2  0  0  0  0  0  0
   28.5340    6.8430   26.7940 C   0  0  0  0  0  2  0  0  0  0  0  0
   27.6190    6.1840   27.6740 N   0  0  2  0  0  0  0  0  0  0  0  0
   27.3170    4.7920   28.0230 C   0  0  1  0  0  0  0  0  0  0  0  0
   25.7840    4.9380   28.0520 C   0  0  0  0  0  2  0  0  0  0  0  0
   25.6290    6.2050   28.7430 N   0  0  0  0  0  0  0  0  0  0  0  0
   26.6680    6.8990   28.5100 C   0  0  1  0  0  3  0  0  0  0  0  0
   27.7200    3.9580   27.0080 O   0  0  0  0  0  0  0  0  0  0  0  0
   28.5970    4.2050   26.6290 H   0  0  0  0  0  0  0  0  0  0  0  0
   27.8090    4.4190   29.3610 C   0  0  0  0  0  0  0  0  0  0  0  0
   29.0180    4.7930   29.9050 C   0  0  0  0  0  3  0  0  0  0  0  0
   29.3830    4.3950   31.1800 C   0  0  0  0  0  3  0  0  0  0  0  0
   28.5440    3.6190   31.9260 C   0  0  0  0  0  0  0  0  0  0  0  0
   27.3310    3.2350   31.3970 C   0  0  0  0  0  3  0  0  0  0  0  0
   28.9920    3.0320   33.7000 Br  0  0  0  0  0  0  0  0  0  0  0  0
   26.9810    3.6360   30.1330 C   0  0  0  0  0  3  0  0  0  0  0  0
   24.4610    6.5240   29.5320 C   0  0  0  0  0  0  0  0  0  0  0  0
   23.7700    5.5090   30.1880 C   0  0  0  0  0  3  0  0  0  0  0  0
   22.6520    5.7800   30.9450 C   0  0  0  0  0  3  0  0  0  0  0  0
   22.1530    7.0560   31.0980 C   0  0  0  0  0  0  0  0  0  0  0  0
   22.8280    8.0640   30.4540 C   0  0  0  0  0  3  0  0  0  0  0  0
   23.9670    7.7840   29.6830 C   0  0  0  0  0  3  0  0  0  0  0  0
   21.0220    7.2920   31.8720 O   0  0  0  0  0  0  0  0  0  0  0  0
   20.1210    6.3170   32.3150 C   0  0  0  0  0  1  0  0  0  0  0  0
  2  1  1  0  0  0  0
  3  2  1  0  0  0  0
  4  3  1  0  0  0  0
  5  4  1  6  0  0  0
  5  6  1  0  0  0  0
  5  9  1  0  0  0  0
  6 10  1  6  0  0  0
  6  7  1  0  0  0  0
  6 12  1  0  0  0  0
  7  8  1  0  0  0  0
  8 19  1  0  0  0  0
  9  8  1  0  0  0  0
  9  1  1  1  0  0  0
 11 10  1  0  0  0  0
 12 13  2  0  0  0  0
 12 18  1  0  0  0  0
 13 14  1  0  0  0  0
 14 15  2  0  0  0  0
 15 17  1  0  0  0  0
 16 15  1  0  0  0  0
 18 16  2  0  0  0  0
 19 24  2  0  0  0  0
 19 20  1  0  0  0  0
 20 21  2  0  0  0  0
 21 22  1  0  0  0  0
 22 25  1  0  0  0  0
 23 22  2  0  0  0  0
 24 23  1  0  0  0  0
 25 26  1  0  0  0  0
M  END
>  <Pose>
1

>  <Score>
-5.955

$$$$
