/Users/jonathanwahrer/Desktop/Msc/3_Semester/Drug_Design_Praktikum/waehrer_HTS_screening/HTS_experiment/out/docking_results/vina_output/3elj/1231_docked.pdbqt
 OpenBabel03192218113D

 37 40  0  0  0  0  0  0  0  0999 V2000
   22.7270   13.0340   31.3580 C   0  0  0  0  0  0  0  0  0  0  0  0
   21.9200   14.0390   31.7200 N   0  0  0  0  0  0  0  0  0  0  0  0
   20.8400   13.4530   32.2670 N   0  0  0  0  0  0  0  0  0  0  0  0
   20.9480   12.1730   32.2560 N   0  0  0  0  0  0  0  0  0  0  0  0
   22.1500   11.8020   31.6820 C   0  0  0  0  0  0  0  0  0  0  0  0
   22.5810   10.4370   31.5330 C   0  0  0  0  0  0  0  0  0  0  0  0
   23.4260    9.9980   32.4100 O   0  0  0  0  0  0  0  0  0  0  0  0
   22.2110    9.5110   30.5630 N   0  0  0  0  0  0  0  0  0  0  0  0
   21.5640    9.6330   29.7660 H   0  0  0  0  0  0  0  0  0  0  0  0
   22.7610    8.1820   30.5970 N   0  0  0  0  0  0  0  0  0  0  0  0
   23.7570    7.8480   29.8760 C   0  0  0  0  0  3  0  0  0  0  0  0
   24.3450    6.5150   29.8810 C   0  0  0  0  0  0  0  0  0  0  0  0
   25.0440    6.0280   28.8000 C   0  0  0  0  0  3  0  0  0  0  0  0
   25.6120    4.7710   28.7910 C   0  0  0  0  0  0  0  0  0  0  0  0
   25.4990    3.9420   29.8770 C   0  0  0  0  0  0  0  0  0  0  0  0
   26.5740    4.1400   27.2650 Br  0  0  0  0  0  0  0  0  0  0  0  0
   24.7930    4.4050   30.9980 C   0  0  0  0  0  0  0  0  0  0  0  0
   26.0770    2.6820   29.8470 O   0  0  0  0  0  1  0  0  0  0  0  0
   24.2370    5.6670   30.9750 C   0  0  0  0  0  3  0  0  0  0  0  0
   24.7180    3.5240   32.0510 O   0  0  0  0  0  0  0  0  0  0  0  0
   23.6020    3.3320   32.8850 C   0  0  0  0  0  1  0  0  0  0  0  0
   24.0560   13.1440   30.7340 C   0  0  0  0  0  2  0  0  0  0  0  0
   24.1470   12.9330   28.9690 S   0  0  0  0  0  0  0  0  0  0  0  0
   25.5290   11.9180   28.4640 C   0  0  0  0  0  0  0  0  0  0  0  0
   26.2830   10.7110   29.5550 S   0  0  0  0  0  0  0  0  0  0  0  0
   27.6710   10.3090   28.4500 C   0  0  0  0  0  2  0  0  0  0  0  0
   27.2070   10.9910   27.2030 C   0  0  0  0  0  2  0  0  0  0  0  0
   26.1560   11.8530   27.3990 N   0  0  0  0  0  0  0  0  0  0  0  0
   22.0570   15.4550   31.6410 C   0  0  0  0  0  0  0  0  0  0  0  0
   21.5910   16.2910   30.6900 N   0  0  0  0  0  0  0  0  0  0  0  0
   21.8730   17.5140   30.9420 O   0  0  0  0  0  0  0  0  0  0  0  0
   22.5300   17.5520   32.0580 N   0  0  0  0  0  0  0  0  0  0  0  0
   22.6780   16.2860   32.5500 C   0  0  0  0  0  0  0  0  0  0  0  0
   23.3200   15.9210   33.7550 N   0  0  0  0  0  4  0  0  0  0  0  0
   24.0390   16.6600   33.9760 H   0  0  0  0  0  0  0  0  0  0  0  0
   23.7610   14.9850   33.7440 H   0  0  0  0  0  0  0  0  0  0  0  0
   22.6150   15.9590   34.5400 H   0  0  0  0  0  0  0  0  0  0  0  0
  1  5  2  0  0  0  0
  1  2  1  0  0  0  0
  2  3  1  0  0  0  0
  4  3  2  0  0  0  0
  5  4  1  0  0  0  0
  6  5  1  0  0  0  0
  6  7  2  0  0  0  0
  8 10  1  0  0  0  0
  8  6  1  0  0  0  0
  9  8  1  0  0  0  0
 11 12  1  0  0  0  0
 11 10  2  0  0  0  0
 12 19  1  0  0  0  0
 13 12  2  0  0  0  0
 14 13  1  0  0  0  0
 14 15  2  0  0  0  0
 15 17  1  0  0  0  0
 16 14  1  0  0  0  0
 17 20  1  0  0  0  0
 18 15  1  0  0  0  0
 19 17  2  0  0  0  0
 20 21  1  0  0  0  0
 22  1  1  0  0  0  0
 23 22  1  0  0  0  0
 24 23  1  0  0  0  0
 24 25  1  0  0  0  0
 26 25  1  0  0  0  0
 27 28  1  0  0  0  0
 27 26  1  0  0  0  0
 28 24  2  0  0  0  0
 29  2  1  0  0  0  0
 29 33  1  0  0  0  0
 30 31  1  0  0  0  0
 30 29  2  0  0  0  0
 31 32  1  0  0  0  0
 32 33  2  0  0  0  0
 33 34  1  0  0  0  0
 34 35  1  0  0  0  0
 34 37  1  0  0  0  0
 36 34  1  0  0  0  0
M  END
>  <Pose>
1

>  <Score>
-8.607

$$$$
