/Users/jonathanwahrer/Desktop/Msc/3_Semester/Drug_Design_Praktikum/waehrer_HTS_screening/HTS_experiment/out/docking_results/vina_output/3elj/1248_docked.pdbqt
 OpenBabel03192218123D

 21 24  0  0  0  0  0  0  0  0999 V2000
   24.1420   11.7210   30.9350 S   0  0  0  0  0  0  0  0  0  0  0  0
   23.9080   10.0390   31.1960 C   0  0  0  0  0  0  0  0  0  0  0  0
   22.6120   10.0020   31.5010 N   0  0  0  0  0  0  0  0  0  0  0  0
   22.3600    8.6670   31.7230 C   0  0  0  0  0  0  0  0  0  0  0  0
   23.4810    7.9680   31.5500 N   0  0  0  0  0  0  0  0  0  0  0  0
   24.4620    8.7840   31.2220 N   0  0  0  0  0  0  0  0  0  0  0  0
   21.9490   11.0870   31.5210 N   0  0  0  0  0  0  0  0  0  0  0  0
   22.5260   12.2400   31.2450 C   0  0  0  0  0  0  0  0  0  0  0  0
   21.9650   13.5940   31.2090 C   0  0  0  0  0  0  0  0  0  0  0  0
   22.4370   14.6380   30.5160 N   0  0  0  0  0  0  0  0  0  0  0  0
   21.6530   15.7050   30.7370 N   0  0  0  0  0  0  0  0  0  0  0  0
   20.6640   15.3490   31.5810 C   0  0  0  0  0  3  0  0  0  0  0  0
   21.8020   16.6500   30.3150 H   0  0  0  0  0  0  0  0  0  0  0  0
   20.8650   13.9990   31.8810 C   0  0  0  0  0  0  0  0  0  0  0  0
   19.7510   13.0020   33.0300 Br  0  0  0  0  0  0  0  0  0  0  0  0
   21.0570    8.0790   32.0970 C   0  0  0  0  0  0  0  0  0  0  0  0
   20.0310    8.8560   32.4910 N   0  0  0  0  0  0  0  0  0  0  0  0
   18.8440    8.3060   32.8310 C   0  0  0  0  0  3  0  0  0  0  0  0
   18.6700    6.9510   32.7780 C   0  0  0  0  0  3  0  0  0  0  0  0
   19.6950    6.1940   32.3840 N   0  0  0  0  0  0  0  0  0  0  0  0
   20.8920    6.7170   32.0390 C   0  0  0  0  0  3  0  0  0  0  0  0
  1  2  1  0  0  0  0
  1  8  1  0  0  0  0
  2  6  2  0  0  0  0
  2  3  1  0  0  0  0
  3  7  1  0  0  0  0
  3  4  1  0  0  0  0
  4 16  1  0  0  0  0
  5  4  2  0  0  0  0
  6  5  1  0  0  0  0
  8  7  2  0  0  0  0
  9  8  1  0  0  0  0
  9 14  1  0  0  0  0
 10 11  1  0  0  0  0
 10  9  2  0  0  0  0
 11 12  1  0  0  0  0
 12 14  2  0  0  0  0
 13 11  1  0  0  0  0
 14 15  1  0  0  0  0
 16 17  1  0  0  0  0
 17 18  2  0  0  0  0
 19 18  1  0  0  0  0
 20 19  2  0  0  0  0
 21 16  2  0  0  0  0
 21 20  1  0  0  0  0
M  END
>  <Pose>
1

>  <Score>
-7.796

$$$$
