/Users/jonathanwahrer/Desktop/Msc/3_Semester/Drug_Design_Praktikum/waehrer_HTS_screening/HTS_experiment/out/docking_results/vina_output/3elj/1265_docked.pdbqt
 OpenBabel03192218133D

 24 27  0  0  1  0  0  0  0  0999 V2000
   23.7160    8.7770   31.3130 S   0  0  0  0  0  0  0  0  0  0  0  0
   23.4030    7.0170   31.2700 C   0  0  1  0  0  3  0  0  0  0  0  0
   23.9670    5.8830   31.0090 N   0  0  0  0  0  0  0  0  0  0  0  0
   23.0750    4.8010   31.1960 C   0  0  0  0  0  3  0  0  0  0  0  0
   21.7980    5.4360   31.6390 C   0  0  0  0  0  3  0  0  0  0  0  0
   22.0630    6.8940   31.6790 N   0  0  0  0  0  0  0  0  0  0  0  0
   21.3940    8.0850   31.9850 C   0  0  0  0  0  0  0  0  0  0  0  0
   22.0700    9.2050   31.8620 C   0  0  0  0  0  3  0  0  0  0  0  0
   25.3760    5.8060   30.5850 C   0  0  0  0  0  2  0  0  0  0  0  0
   25.3790    5.3520   29.1800 C   0  0  0  0  0  0  0  0  0  0  0  0
   24.8850    6.0500   28.2710 O   0  0  0  0  0  0  0  0  0  0  0  0
   25.9640    4.0660   28.8300 C   0  0  0  0  0  0  0  0  0  0  0  0
   26.1150    3.0600   29.7860 C   0  0  0  0  0  3  0  0  0  0  0  0
   26.6750    1.8330   29.4830 C   0  0  0  0  0  3  0  0  0  0  0  0
   27.0860    1.6250   28.1930 C   0  0  0  0  0  0  0  0  0  0  0  0
   26.9590    2.5880   27.2100 C   0  0  0  0  0  3  0  0  0  0  0  0
   27.8610   -0.0810   27.7830 Br  0  0  0  0  0  0  0  0  0  0  0  0
   26.3900    3.8200   27.5410 C   0  0  0  0  0  3  0  0  0  0  0  0
   19.9710    8.1620   32.4530 C   0  0  0  0  0  0  0  0  0  0  0  0
   19.5060    9.2460   33.1640 C   0  0  0  0  0  3  0  0  0  0  0  0
   18.2110    9.3660   33.6210 C   0  0  0  0  0  3  0  0  0  0  0  0
   17.2980    8.3670   33.3730 C   0  0  0  0  0  3  0  0  0  0  0  0
   17.7360    7.2800   32.6700 C   0  0  0  0  0  3  0  0  0  0  0  0
   19.0610    7.1670   32.2080 C   0  0  0  0  0  3  0  0  0  0  0  0
  1  8  1  0  0  0  0
  2  1  1  1  0  0  0
  2  6  1  0  0  0  0
  3  4  1  0  0  0  0
  3  2  1  0  0  0  0
  4  5  2  0  0  0  0
  5  6  1  0  0  0  0
  6  7  1  0  0  0  0
  7 19  1  0  0  0  0
  8  7  2  0  0  0  0
  9  3  1  0  0  0  0
 10  9  1  0  0  0  0
 11 10  2  0  0  0  0
 12 10  1  0  0  0  0
 12 13  1  0  0  0  0
 14 13  2  0  0  0  0
 15 14  1  0  0  0  0
 16 18  1  0  0  0  0
 16 15  2  0  0  0  0
 17 15  1  0  0  0  0
 18 12  2  0  0  0  0
 19 20  1  0  0  0  0
 20 21  2  0  0  0  0
 22 21  1  0  0  0  0
 23 22  2  0  0  0  0
 24 19  2  0  0  0  0
 24 23  1  0  0  0  0
M  END
>  <Pose>
1

>  <Score>
-8.070

$$$$
