/Users/jonathanwahrer/Desktop/Msc/3_Semester/Drug_Design_Praktikum/waehrer_HTS_screening/HTS_experiment/out/docking_results/vina_output/3elj/1266_docked.pdbqt
 OpenBabel03192218133D

 28 31  0  0  1  0  0  0  0  0999 V2000
   20.3720   12.8210   33.0410 C   0  0  2  0  0  3  0  0  0  0  0  0
   19.0520   12.9290   32.4310 N   0  0  0  0  0  0  0  0  0  0  0  0
   18.7460   14.0410   31.6620 C   0  0  0  0  0  2  0  0  0  0  0  0
   19.8640   14.8050   30.9830 C   0  0  0  0  0  2  0  0  0  0  0  0
   21.0930   14.7070   31.6420 N   0  0  0  0  0  0  0  0  0  0  0  0
   21.1320   14.0600   32.9190 C   0  0  0  0  0  2  0  0  0  0  0  0
   22.3400   15.1880   31.1680 C   0  0  0  0  0  0  0  0  0  0  0  0
   23.2820   15.0830   32.0770 O   0  0  0  0  0  0  0  0  0  0  0  0
   18.7850   12.0280   31.9840 H   0  0  0  0  0  0  0  0  0  0  0  0
   22.7660   15.7400   29.9330 C   0  0  0  0  0  0  0  0  0  0  0  0
   23.4190   14.8710   29.0260 C   0  0  0  0  0  3  0  0  0  0  0  0
   23.7330   15.2690   27.7930 N   0  0  0  0  0  0  0  0  0  0  0  0
   23.4500   16.4980   27.3570 C   0  0  0  0  0  0  0  0  0  0  0  0
   22.8190   17.3830   28.1890 C   0  0  0  0  0  0  0  0  0  0  0  0
   23.7900   16.8990   26.0600 O   0  0  0  0  0  0  0  0  0  0  0  0
   22.4750   17.0060   29.4850 C   0  0  0  0  0  3  0  0  0  0  0  0
   22.4790   18.6920   27.7210 N   0  0  0  0  0  0  0  0  0  0  0  0
   22.8130   19.0430   26.3770 C   0  0  0  0  0  0  0  0  0  0  0  0
   21.9980   19.3770   28.3230 H   0  0  0  0  0  0  0  0  0  0  0  0
   22.2300   19.9250   25.7140 O   0  0  0  0  0  0  0  0  0  0  0  0
   23.9370   18.2920   25.7370 C   0  0  0  0  0  2  0  0  0  0  0  0
   21.0050   11.6390   32.3570 C   0  0  0  0  0  0  0  0  0  0  0  0
   20.6100   10.3580   32.7740 C   0  0  0  0  0  0  0  0  0  0  0  0
   19.5220   10.2620   34.1740 Cl  0  0  0  0  0  0  0  0  0  0  0  0
   21.0280    9.2010   32.1530 C   0  0  0  0  0  3  0  0  0  0  0  0
   21.8830    9.2910   31.0600 C   0  0  0  0  0  3  0  0  0  0  0  0
   22.2710   10.5550   30.6500 C   0  0  0  0  0  3  0  0  0  0  0  0
   21.8440   11.7090   31.2830 C   0  0  0  0  0  3  0  0  0  0  0  0
  1 22  1  6  0  0  0
  2  1  1  0  0  0  0
  3  2  1  0  0  0  0
  4  5  1  0  0  0  0
  4  3  1  0  0  0  0
  5  6  1  0  0  0  0
  6  1  1  0  0  0  0
  7  5  1  0  0  0  0
  7  8  2  0  0  0  0
  9  2  1  0  0  0  0
 10  7  1  0  0  0  0
 11 10  2  0  0  0  0
 12 11  1  0  0  0  0
 13 12  2  0  0  0  0
 13 14  1  0  0  0  0
 14 16  2  0  0  0  0
 15 13  1  0  0  0  0
 16 10  1  0  0  0  0
 17 14  1  0  0  0  0
 17 19  1  0  0  0  0
 18 17  1  0  0  0  0
 20 18  2  0  0  0  0
 21 15  1  0  0  0  0
 21 18  1  0  0  0  0
 22 23  1  0  0  0  0
 23 24  1  0  0  0  0
 25 23  2  0  0  0  0
 26 25  1  0  0  0  0
 27 26  2  0  0  0  0
 27 28  1  0  0  0  0
 28 22  2  0  0  0  0
M  END
>  <Pose>
1

>  <Score>
-8.833

$$$$
