/Users/jonathanwahrer/Desktop/Msc/3_Semester/Drug_Design_Praktikum/waehrer_HTS_screening/HTS_experiment/out/docking_results/vina_output/3elj/1280_docked.pdbqt
 OpenBabel03192218143D

 35 38  0  0  1  0  0  0  0  0999 V2000
   22.4770   11.7040   30.4420 C   0  0  1  0  0  3  0  0  0  0  0  0
   23.6250   12.5640   30.6470 N   0  0  0  0  0  0  0  0  0  0  0  0
   24.4080   11.9700   31.6680 C   0  0  0  0  0  0  0  0  0  0  0  0
   25.1770   12.5730   32.4230 O   0  0  0  0  0  0  0  0  0  0  0  0
   24.1150   10.5260   31.6320 C   0  0  0  0  0  0  0  0  0  0  0  0
   24.5990    9.6270   32.3620 O   0  0  0  0  0  0  0  0  0  0  0  0
   23.1410   10.3630   30.5600 C   0  0  0  0  0  0  0  0  0  0  0  0
   22.9550    9.2580   29.8520 C   0  0  0  0  0  0  0  0  0  0  0  0
   21.9840    9.3500   28.8270 O   0  0  0  0  0  1  0  0  0  0  0  0
   21.4600   11.9510   31.4750 C   0  0  0  0  0  0  0  0  0  0  0  0
   20.8550   10.8860   32.1270 C   0  0  0  0  0  3  0  0  0  0  0  0
   19.9010   11.0910   33.1300 C   0  0  0  0  0  0  0  0  0  0  0  0
   19.0840    9.5920   34.0130 Br  0  0  0  0  0  0  0  0  0  0  0  0
   19.5430   12.3640   33.4910 C   0  0  0  0  0  3  0  0  0  0  0  0
   20.1340   13.4290   32.8540 C   0  0  0  0  0  3  0  0  0  0  0  0
   21.0790   13.2070   31.8610 C   0  0  0  0  0  3  0  0  0  0  0  0
   23.6770    8.0110   30.0770 C   0  0  0  0  0  0  0  0  0  0  0  0
   23.2420    7.0020   30.8840 C   0  0  0  0  0  0  0  0  0  0  0  0
   24.0270    5.8520   31.0850 C   0  0  0  0  0  3  0  0  0  0  0  0
   21.9090    7.0770   31.5270 C   0  0  0  0  0  1  0  0  0  0  0  0
   25.2490    5.6820   30.4930 C   0  0  0  0  0  0  0  0  0  0  0  0
   25.6900    6.7010   29.6750 C   0  0  0  0  0  3  0  0  0  0  0  0
   24.9340    7.8250   29.4720 C   0  0  0  0  0  3  0  0  0  0  0  0
   26.0310    4.5430   30.6870 O   0  0  0  0  0  0  0  0  0  0  0  0
   25.4760    3.3820   31.2500 C   0  0  0  0  0  1  0  0  0  0  0  0
   23.8670   13.7910   29.9180 C   0  0  0  0  0  2  0  0  0  0  0  0
   24.2490   13.5740   28.4870 C   0  0  0  0  0  2  0  0  0  0  0  0
   25.2700   12.5300   28.2390 C   0  0  0  0  0  2  0  0  0  0  0  0
   26.4900   12.9850   27.6750 N   0  0  0  0  0  4  0  0  0  0  0  0
   27.0440   12.0780   26.6560 C   0  0  0  0  0  2  0  0  0  0  0  0
   28.5390   12.3990   26.6010 C   0  0  0  0  0  2  0  0  0  0  0  0
   28.8440   13.5700   27.2720 O   0  0  0  0  0  0  0  0  0  0  0  0
   28.0130   14.6130   26.8600 C   0  0  0  0  0  2  0  0  0  0  0  0
   26.5310   14.2910   27.1250 C   0  0  0  0  0  2  0  0  0  0  0  0
   27.2140   12.9640   28.4570 H   0  0  0  0  0  0  0  0  0  0  0  0
  1  7  1  0  0  0  0
  1  2  1  0  0  0  0
  1 10  1  1  0  0  0
  2  3  1  0  0  0  0
  3  4  2  0  0  0  0
  5  3  1  0  0  0  0
  5  6  2  0  0  0  0
  7  5  1  0  0  0  0
  8 17  1  0  0  0  0
  8  7  2  0  0  0  0
  9  8  1  0  0  0  0
 10 16  2  0  0  0  0
 10 11  1  0  0  0  0
 11 12  2  0  0  0  0
 12 14  1  0  0  0  0
 12 13  1  0  0  0  0
 15 14  2  0  0  0  0
 16 15  1  0  0  0  0
 17 18  1  0  0  0  0
 18 19  2  0  0  0  0
 18 20  1  0  0  0  0
 21 24  1  0  0  0  0
 21 19  1  0  0  0  0
 22 21  2  0  0  0  0
 23 22  1  0  0  0  0
 23 17  2  0  0  0  0
 24 25  1  0  0  0  0
 26  2  1  0  0  0  0
 27 26  1  0  0  0  0
 28 27  1  0  0  0  0
 29 28  1  0  0  0  0
 29 35  1  0  0  0  0
 30 29  1  0  0  0  0
 31 30  1  0  0  0  0
 31 32  1  0  0  0  0
 33 34  1  0  0  0  0
 33 32  1  0  0  0  0
 34 29  1  0  0  0  0
M  END
>  <Pose>
1

>  <Score>
-7.894

$$$$
