/Users/jonathanwahrer/Desktop/Msc/3_Semester/Drug_Design_Praktikum/waehrer_HTS_screening/HTS_experiment/out/docking_results/vina_output/3elj/1284_docked.pdbqt
 OpenBabel03192218143D

 35 38  0  0  1  0  0  0  0  0999 V2000
   22.0240    8.6990   30.9490 C   0  0  1  0  0  3  0  0  0  0  0  0
   22.4450    9.8790   31.6060 N   0  0  0  0  0  0  0  0  0  0  0  0
   23.8330    9.8020   31.8850 C   0  0  0  0  0  0  0  0  0  0  0  0
   24.4910   10.6620   32.5490 O   0  0  0  0  0  0  0  0  0  0  0  0
   24.3570    8.5960   31.2830 C   0  0  0  0  0  0  0  0  0  0  0  0
   25.5740    8.2800   31.3830 O   0  0  0  0  0  0  0  0  0  0  0  0
   23.2520    7.9260   30.6250 C   0  0  0  0  0  0  0  0  0  0  0  0
   23.3590    6.8170   29.9300 C   0  0  0  0  0  0  0  0  0  0  0  0
   22.2240    6.2400   29.4080 O   0  0  0  0  0  1  0  0  0  0  0  0
   21.0960    7.9330   31.7870 C   0  0  0  0  0  0  0  0  0  0  0  0
   19.9420    8.5560   32.2290 C   0  0  0  0  0  3  0  0  0  0  0  0
   18.9740    7.9810   32.9950 C   0  0  0  0  0  0  0  0  0  0  0  0
   17.3970    8.8890   33.5750 Br  0  0  0  0  0  0  0  0  0  0  0  0
   19.1770    6.6410   33.3620 C   0  0  0  0  0  3  0  0  0  0  0  0
   20.3220    5.9900   32.9370 C   0  0  0  0  0  3  0  0  0  0  0  0
   21.2850    6.6040   32.1590 C   0  0  0  0  0  3  0  0  0  0  0  0
   24.6410    6.1990   29.6990 C   0  0  0  0  0  0  0  0  0  0  0  0
   25.1260    5.1000   30.4300 C   0  0  0  0  0  0  0  0  0  0  0  0
   26.3230    4.7470   29.9460 N   0  0  0  0  0  0  0  0  0  0  0  0
   24.3870    4.4600   31.5560 C   0  0  0  0  0  1  0  0  0  0  0  0
   26.6000    5.5730   28.9550 N   0  0  0  0  0  0  0  0  0  0  0  0
   25.6120    6.4620   28.7730 C   0  0  0  0  0  3  0  0  0  0  0  0
   27.1500    3.6790   30.3900 C   0  0  0  0  0  0  0  0  0  0  0  0
   27.9780    3.8860   31.4840 C   0  0  0  0  0  3  0  0  0  0  0  0
   28.7990    2.8910   31.9760 C   0  0  0  0  0  3  0  0  0  0  0  0
   28.8270    1.6270   31.3860 C   0  0  0  0  0  3  0  0  0  0  0  0
   28.0020    1.4210   30.2950 C   0  0  0  0  0  3  0  0  0  0  0  0
   27.1960    2.4260   29.8260 C   0  0  0  0  0  3  0  0  0  0  0  0
   21.6030   11.0600   31.9490 C   0  0  0  0  0  2  0  0  0  0  0  0
   21.8720   12.1740   30.9710 C   0  0  0  0  0  2  0  0  0  0  0  0
   21.7760   13.5380   31.5780 C   0  0  0  0  0  2  0  0  0  0  0  0
   20.9700   14.4840   30.8800 N   0  0  0  0  0  4  0  0  0  0  0  0
   19.5780   14.4810   31.1850 C   0  0  0  0  0  1  0  0  0  0  0  0
   21.4740   15.8480   31.1140 C   0  0  0  0  0  1  0  0  0  0  0  0
   21.0840   14.3420   29.8310 H   0  0  0  0  0  0  0  0  0  0  0  0
  1  2  1  0  0  0  0
  1 10  1  1  0  0  0
  2  3  1  0  0  0  0
  2 29  1  0  0  0  0
  3  4  2  0  0  0  0
  5  6  2  0  0  0  0
  5  3  1  0  0  0  0
  7  1  1  0  0  0  0
  7  5  1  0  0  0  0
  8  7  2  0  0  0  0
  9  8  1  0  0  0  0
 10 16  2  0  0  0  0
 10 11  1  0  0  0  0
 11 12  2  0  0  0  0
 12 14  1  0  0  0  0
 12 13  1  0  0  0  0
 15 14  2  0  0  0  0
 16 15  1  0  0  0  0
 17  8  1  0  0  0  0
 17 18  2  0  0  0  0
 18 20  1  0  0  0  0
 19 23  1  0  0  0  0
 19 18  1  0  0  0  0
 21 19  1  0  0  0  0
 22 21  2  0  0  0  0
 22 17  1  0  0  0  0
 23 24  1  0  0  0  0
 24 25  2  0  0  0  0
 26 25  1  0  0  0  0
 27 26  2  0  0  0  0
 28 27  1  0  0  0  0
 28 23  2  0  0  0  0
 30 31  1  0  0  0  0
 30 29  1  0  0  0  0
 32 34  1  0  0  0  0
 32 33  1  0  0  0  0
 32 31  1  0  0  0  0
 35 32  1  0  0  0  0
M  END
>  <Pose>
1

>  <Score>
-7.843

$$$$
