/Users/jonathanwahrer/Desktop/Msc/3_Semester/Drug_Design_Praktikum/waehrer_HTS_screening/HTS_experiment/out/docking_results/vina_output/3elj/1299_docked.pdbqt
 OpenBabel03192218153D

 36 39  0  0  0  0  0  0  0  0999 V2000
   20.7620   10.5490   32.5160 C   0  0  0  0  0  0  0  0  0  0  0  0
   19.7720    9.7310   32.9990 N   0  0  0  0  0  0  0  0  0  0  0  0
   18.8910   10.5340   33.5570 N   0  0  0  0  0  0  0  0  0  0  0  0
   19.2420   11.7750   33.4640 N   0  0  0  0  0  0  0  0  0  0  0  0
   20.4340   11.8460   32.8060 C   0  0  0  0  0  0  0  0  0  0  0  0
   21.9150    9.9850   31.8260 C   0  0  0  0  0  0  0  0  0  0  0  0
   21.9330    9.4090   30.5360 N   0  0  0  0  0  0  0  0  0  0  0  0
   21.1140    9.3090   29.8970 H   0  0  0  0  0  0  0  0  0  0  0  0
   23.0650    9.9880   32.4100 O   0  0  0  0  0  0  0  0  0  0  0  0
   23.2000    8.9200   30.0720 N   0  0  0  0  0  0  0  0  0  0  0  0
   23.4170    7.6730   29.9100 C   0  0  0  0  0  3  0  0  0  0  0  0
   24.7160    7.1730   29.4340 C   0  0  0  0  0  0  0  0  0  0  0  0
   24.8660    5.8850   29.0230 C   0  0  0  0  0  3  0  0  0  0  0  0
   26.0880    5.4160   28.5760 C   0  0  0  0  0  0  0  0  0  0  0  0
   27.1890    6.2330   28.5320 C   0  0  0  0  0  0  0  0  0  0  0  0
   26.2880    3.5930   27.9970 Br  0  0  0  0  0  0  0  0  0  0  0  0
   27.0400    7.5410   28.9480 C   0  0  0  0  0  0  0  0  0  0  0  0
   28.5650    8.6870   28.8920 Br  0  0  0  0  0  0  0  0  0  0  0  0
   25.8170    8.0000   29.3930 C   0  0  0  0  0  3  0  0  0  0  0  0
   28.3980    5.7270   28.0760 O   0  0  0  0  0  0  0  0  0  0  0  0
   28.7070    4.7880   28.2570 H   0  0  0  0  0  0  0  0  0  0  0  0
   19.7140    8.3220   32.9140 C   0  0  0  0  0  0  0  0  0  0  0  0
   20.6820    7.4350   32.5760 N   0  0  0  0  0  0  0  0  0  0  0  0
   20.1970    6.2460   32.6290 O   0  0  0  0  0  0  0  0  0  0  0  0
   18.9510    6.2380   32.9830 N   0  0  0  0  0  0  0  0  0  0  0  0
   18.6040    7.5390   33.1740 C   0  0  0  0  0  0  0  0  0  0  0  0
   17.3150    7.9720   33.5730 N   0  0  0  0  0  0  0  0  0  0  0  0
   16.5170    7.3260   33.4270 H   0  0  0  0  0  0  0  0  0  0  0  0
   17.1210    8.8950   34.0030 H   0  0  0  0  0  0  0  0  0  0  0  0
   21.2180   13.0360   32.4800 C   0  0  0  0  0  2  0  0  0  0  0  0
   20.9380   13.5910   31.1640 N   0  0  0  0  0  0  0  0  0  0  0  0
   20.8380   15.0430   31.2410 C   0  0  0  0  0  2  0  0  0  0  0  0
   22.1620   15.7080   30.9900 C   0  0  0  0  0  2  0  0  0  0  0  0
   23.2560   14.8970   31.2270 O   0  0  0  0  0  0  0  0  0  0  0  0
   23.2830   13.7320   30.4750 C   0  0  0  0  0  2  0  0  0  0  0  0
   21.9070   13.2080   30.1660 C   0  0  0  0  0  2  0  0  0  0  0  0
  1  5  2  0  0  0  0
  1  2  1  0  0  0  0
  2  3  1  0  0  0  0
  4  3  2  0  0  0  0
  5  4  1  0  0  0  0
  6  9  2  0  0  0  0
  6  1  1  0  0  0  0
  7  6  1  0  0  0  0
  8  7  1  0  0  0  0
 10  7  1  0  0  0  0
 11 10  2  0  0  0  0
 12 11  1  0  0  0  0
 13 12  2  0  0  0  0
 14 13  1  0  0  0  0
 15 14  2  0  0  0  0
 15 17  1  0  0  0  0
 16 14  1  0  0  0  0
 17 19  2  0  0  0  0
 18 17  1  0  0  0  0
 19 12  1  0  0  0  0
 20 21  1  0  0  0  0
 20 15  1  0  0  0  0
 22  2  1  0  0  0  0
 22 26  1  0  0  0  0
 23 24  1  0  0  0  0
 23 22  2  0  0  0  0
 24 25  1  0  0  0  0
 25 26  2  0  0  0  0
 26 27  1  0  0  0  0
 27 29  1  0  0  0  0
 28 27  1  0  0  0  0
 30  5  1  0  0  0  0
 31 32  1  0  0  0  0
 31 30  1  0  0  0  0
 33 34  1  0  0  0  0
 33 32  1  0  0  0  0
 35 34  1  0  0  0  0
 36 35  1  0  0  0  0
 36 31  1  0  0  0  0
M  END
>  <Pose>
1

>  <Score>
-8.117

$$$$
