/Users/jonathanwahrer/Desktop/Msc/3_Semester/Drug_Design_Praktikum/waehrer_HTS_screening/HTS_experiment/out/docking_results/vina_output/3elj/1300_docked.pdbqt
 OpenBabel03192218153D

 22 25  0  0  1  0  0  0  0  0999 V2000
   22.6170   10.2230   31.7640 N   0  0  0  0  0  0  0  0  0  0  0  0
   23.9740    9.9190   32.0260 C   0  0  0  0  0  0  0  0  0  0  0  0
   24.8200   10.6770   32.5450 O   0  0  0  0  0  0  0  0  0  0  0  0
   24.2870    8.5410   31.5930 C   0  0  2  0  0  3  0  0  0  0  0  0
   24.8720    8.6440   30.2010 C   0  0  2  0  0  3  0  0  0  0  0  0
   23.6930    8.9300   29.4620 O   0  0  0  0  0  0  0  0  0  0  0  0
   23.0050    7.7350   29.8050 C   0  0  2  0  0  3  0  0  0  0  0  0
   22.9360    7.8950   31.3000 C   0  0  2  0  0  3  0  0  0  0  0  0
   21.9580    8.9640   31.6050 C   0  0  0  0  0  0  0  0  0  0  0  0
   20.7010    8.7940   31.7110 O   0  0  0  0  0  0  0  0  0  0  0  0
   24.0140    6.7380   29.3920 C   0  0  0  0  0  2  0  0  0  0  0  0
   25.1900    7.2960   29.6680 C   0  0  0  0  0  2  0  0  0  0  0  0
   21.9480   11.4710   31.6620 C   0  0  0  0  0  0  0  0  0  0  0  0
   22.3150   12.4130   30.7280 C   0  0  0  0  0  0  0  0  0  0  0  0
   23.7660   11.9520   29.5660 Br  0  0  0  0  0  0  0  0  0  0  0  0
   21.6790   13.6460   30.6100 C   0  0  0  0  0  3  0  0  0  0  0  0
   20.6310   13.9780   31.4470 C   0  0  0  0  0  0  0  0  0  0  0  0
   20.2610   13.0310   32.3870 C   0  0  0  0  0  3  0  0  0  0  0  0
   20.8880   11.8130   32.5030 C   0  0  0  0  0  3  0  0  0  0  0  0
   19.9650   15.2310   31.3520 N   0  0  0  0  0  0  0  0  0  0  0  0
   20.6570   16.2590   31.2460 O   0  0  0  0  0  0  0  0  0  0  0  0
   18.6050   15.3840   31.3690 O   0  0  0  0  0  0  0  0  0  0  0  0
  1  2  1  0  0  0  0
  2  3  2  0  0  0  0
  4  2  1  6  0  0  0
  5 12  1  6  0  0  0
  5  4  1  0  0  0  0
  6  7  1  0  0  0  0
  6  5  1  0  0  0  0
  7 11  1  1  0  0  0
  7  8  1  0  0  0  0
  8  4  1  0  0  0  0
  8  9  1  6  0  0  0
  9 10  2  0  0  0  0
  9  1  1  0  0  0  0
 11 12  1  0  0  0  0
 13  1  1  0  0  0  0
 13 19  1  0  0  0  0
 14 13  2  0  0  0  0
 15 14  1  0  0  0  0
 16 14  1  0  0  0  0
 16 17  2  0  0  0  0
 17 18  1  0  0  0  0
 18 19  2  0  0  0  0
 20 22  2  0  0  0  0
 20 17  1  0  0  0  0
 21 20  2  0  0  0  0
M  END
>  <Pose>
1

>  <Score>
-8.432

$$$$
