/Users/jonathanwahrer/Desktop/Msc/3_Semester/Drug_Design_Praktikum/waehrer_HTS_screening/HTS_experiment/out/docking_results/vina_output/3elj/1301_docked.pdbqt
 OpenBabel03192218153D

 24 27  0  0  1  0  0  0  0  0999 V2000
   22.9920   10.9350   31.9790 N   0  0  0  0  0  0  0  0  0  0  0  0
   24.3190   10.4250   32.0440 C   0  0  0  0  0  0  0  0  0  0  0  0
   24.7480    9.5160   32.7880 O   0  0  0  0  0  0  0  0  0  0  0  0
   25.1790   11.1490   31.0600 C   0  0  1  0  0  3  0  0  0  0  0  0
   25.1350   10.5220   29.7070 C   0  0  1  0  0  0  0  0  0  0  0  0
   23.9010   10.9820   29.1820 O   0  0  0  0  0  0  0  0  0  0  0  0
   24.1770   12.3650   29.3310 C   0  0  1  0  0  0  0  0  0  0  0  0
   24.4080   12.4420   30.8050 C   0  0  1  0  0  3  0  0  0  0  0  0
   23.1310   12.2800   31.5390 C   0  0  0  0  0  0  0  0  0  0  0  0
   22.3020   13.1920   31.7390 O   0  0  0  0  0  0  0  0  0  0  0  0
   25.4720   12.4310   28.5890 C   0  0  0  0  0  2  0  0  0  0  0  0
   26.0770   11.2520   28.8170 C   0  0  0  0  0  2  0  0  0  0  0  0
   23.1160   13.2290   28.7960 C   0  0  0  0  0  1  0  0  0  0  0  0
   21.8150   10.2040   32.2910 C   0  0  0  0  0  0  0  0  0  0  0  0
   20.6930   10.7920   32.8380 C   0  0  0  0  0  3  0  0  0  0  0  0
   19.5340   10.0700   33.1440 C   0  0  0  0  0  3  0  0  0  0  0  0
   19.4680    8.7160   32.9070 C   0  0  0  0  0  0  0  0  0  0  0  0
   20.5780    8.1150   32.3620 C   0  0  0  0  0  0  0  0  0  0  0  0
   18.2310    7.9490   33.2370 C   0  0  0  0  0  1  0  0  0  0  0  0
   20.5240    6.2440   32.0200 Br  0  0  0  0  0  0  0  0  0  0  0  0
   21.7320    8.8420   32.0580 C   0  0  0  0  0  3  0  0  0  0  0  0
   25.2720    9.0550   29.6730 C   0  0  0  0  0  2  0  0  0  0  0  0
   24.0750    8.4250   29.3430 O   0  0  0  0  0  0  0  0  0  0  0  0
   23.3280    9.0670   29.1800 H   0  0  0  0  0  0  0  0  0  0  0  0
  1  2  1  0  0  0  0
  1 14  1  0  0  0  0
  2  3  2  0  0  0  0
  4  2  1  1  0  0  0
  5 22  1  6  0  0  0
  5  4  1  0  0  0  0
  6  7  1  0  0  0  0
  6  5  1  0  0  0  0
  7 13  1  6  0  0  0
  7  8  1  0  0  0  0
  8  4  1  0  0  0  0
  8  9  1  1  0  0  0
  9 10  2  0  0  0  0
  9  1  1  0  0  0  0
 11 12  1  0  0  0  0
 11  7  1  0  0  0  0
 12  5  1  0  0  0  0
 14 15  1  0  0  0  0
 15 16  2  0  0  0  0
 17 16  1  0  0  0  0
 17 19  1  0  0  0  0
 18 17  2  0  0  0  0
 20 18  1  0  0  0  0
 21 14  2  0  0  0  0
 21 18  1  0  0  0  0
 23 22  1  0  0  0  0
 24 23  1  0  0  0  0
M  END
>  <Pose>
1

>  <Score>
-7.841

$$$$
