/Users/jonathanwahrer/Desktop/Msc/3_Semester/Drug_Design_Praktikum/waehrer_HTS_screening/HTS_experiment/out/docking_results/vina_output/3elj/1325_docked.pdbqt
 OpenBabel03192218163D

 31 34  0  0  1  0  0  0  0  0999 V2000
   23.8980    7.3510   31.2050 C   0  0  1  0  0  3  0  0  0  0  0  0
   23.0560    6.2050   31.0300 N   0  0  0  0  0  0  0  0  0  0  0  0
   23.9980    5.0930   30.9880 C   0  0  0  0  0  0  0  0  0  0  0  0
   23.7520    3.9050   31.2920 O   0  0  0  0  0  0  0  0  0  0  0  0
   25.2710    5.6160   30.5280 C   0  0  0  0  0  0  0  0  0  0  0  0
   26.3670    5.0060   30.3460 O   0  0  0  0  0  0  0  0  0  0  0  0
   25.0480    7.0480   30.3040 C   0  0  0  0  0  0  0  0  0  0  0  0
   25.7510    7.8220   29.5240 C   0  0  0  0  0  0  0  0  0  0  0  0
   25.4310    9.1840   29.4740 O   0  0  0  0  0  1  0  0  0  0  0  0
   23.3290    8.6660   31.0470 C   0  0  0  0  0  0  0  0  0  0  0  0
   23.5960    9.6210   32.0450 C   0  0  0  0  0  3  0  0  0  0  0  0
   23.1250   10.9080   31.9940 C   0  0  0  0  0  3  0  0  0  0  0  0
   22.3530   11.3280   30.9390 C   0  0  0  0  0  0  0  0  0  0  0  0
   21.6760   13.1180   30.8350 Br  0  0  0  0  0  0  0  0  0  0  0  0
   22.0870   10.4000   29.9600 C   0  0  0  0  0  3  0  0  0  0  0  0
   22.5630    9.1040   30.0120 C   0  0  0  0  0  3  0  0  0  0  0  0
   26.8570    7.2940   28.7010 C   0  0  0  0  0  0  0  0  0  0  0  0
   26.7170    6.6010   27.5770 O   0  0  0  0  0  0  0  0  0  0  0  0
   27.8760    6.2670   27.0710 C   0  0  0  0  0  0  0  0  0  0  0  0
   28.8890    6.7440   27.8770 C   0  0  0  0  0  0  0  0  0  0  0  0
   28.2570    5.5530   25.9310 C   0  0  0  0  0  3  0  0  0  0  0  0
   28.2130    7.3890   28.8990 C   0  0  0  0  0  3  0  0  0  0  0  0
   30.2080    6.5190   27.5530 C   0  0  0  0  0  3  0  0  0  0  0  0
   30.5940    5.8180   26.4320 C   0  0  0  0  0  3  0  0  0  0  0  0
   29.5820    5.3370   25.6220 C   0  0  0  0  0  3  0  0  0  0  0  0
   21.6220    6.0280   30.9710 C   0  0  0  0  0  2  0  0  0  0  0  0
   20.8460    6.2250   32.2050 C   0  0  0  0  0  2  0  0  0  0  0  0
   19.9700    7.3670   32.2590 N   0  0  0  0  0  4  0  0  0  0  0  0
   18.5880    6.9970   32.3750 C   0  0  0  0  0  1  0  0  0  0  0  0
   20.3920    8.4110   33.1490 C   0  0  0  0  0  1  0  0  0  0  0  0
   20.0490    7.7920   31.2720 H   0  0  0  0  0  0  0  0  0  0  0  0
  1 10  1  6  0  0  0
  2  1  1  0  0  0  0
  3  2  1  0  0  0  0
  3  4  2  0  0  0  0
  5  3  1  0  0  0  0
  6  5  2  0  0  0  0
  7  5  1  0  0  0  0
  7  1  1  0  0  0  0
  8  7  2  0  0  0  0
  9  8  1  0  0  0  0
 10 11  1  0  0  0  0
 12 11  2  0  0  0  0
 13 12  1  0  0  0  0
 14 13  1  0  0  0  0
 15 16  1  0  0  0  0
 15 13  2  0  0  0  0
 16 10  2  0  0  0  0
 17 22  2  0  0  0  0
 17  8  1  0  0  0  0
 18 17  1  0  0  0  0
 19 18  1  0  0  0  0
 19 20  1  0  0  0  0
 20 22  1  0  0  0  0
 21 19  2  0  0  0  0
 23 20  2  0  0  0  0
 24 23  1  0  0  0  0
 25 21  1  0  0  0  0
 25 24  2  0  0  0  0
 26  2  1  0  0  0  0
 26 27  1  0  0  0  0
 27 28  1  0  0  0  0
 28 29  1  0  0  0  0
 28 30  1  0  0  0  0
 31 28  1  0  0  0  0
M  END
>  <Pose>
1

>  <Score>
-7.723

$$$$
