/Users/jonathanwahrer/Desktop/Msc/3_Semester/Drug_Design_Praktikum/waehrer_HTS_screening/HTS_experiment/out/docking_results/vina_output/3elj/1341_docked.pdbqt
 OpenBabel03192218173D

 28 31  0  0  0  0  0  0  0  0999 V2000
   21.9350   10.3190   31.4720 C   0  0  0  0  0  0  0  0  0  0  0  0
   21.1600    9.3920   32.0820 N   0  0  0  0  0  0  0  0  0  0  0  0
   21.4610    8.1790   31.5750 C   0  0  0  0  0  0  0  0  0  0  0  0
   22.4250    8.2900   30.6360 N   0  0  0  0  0  0  0  0  0  0  0  0
   22.7100    9.6110   30.5810 C   0  0  0  0  0  3  0  0  0  0  0  0
   20.6250    7.1400   32.2290 C   0  0  0  0  0  3  0  0  0  0  0  0
   19.7000    7.8650   33.1430 C   0  0  0  0  0  3  0  0  0  0  0  0
   20.1260    9.2850   33.0880 C   0  0  0  0  0  3  0  0  0  0  0  0
   23.0400    7.2420   29.8460 C   0  0  0  0  0  2  0  0  0  0  0  0
   23.7990    6.3170   30.7350 C   0  0  0  0  0  0  0  0  0  0  0  0
   24.7920    6.7590   31.3150 O   0  0  0  0  0  0  0  0  0  0  0  0
   23.3380    5.0040   30.8560 N   0  0  0  0  0  0  0  0  0  0  0  0
   22.4650    4.6730   30.3250 H   0  0  0  0  0  0  0  0  0  0  0  0
   23.9420    4.0070   31.6650 C   0  0  0  0  0  0  0  0  0  0  0  0
   23.2560    3.5500   32.7980 C   0  0  0  0  0  3  0  0  0  0  0  0
   23.8120    2.6100   33.6050 C   0  0  0  0  0  3  0  0  0  0  0  0
   25.0630    2.0790   33.3340 C   0  0  0  0  0  0  0  0  0  0  0  0
   25.7240    2.5310   32.2280 C   0  0  0  0  0  3  0  0  0  0  0  0
   25.1770    3.4990   31.3770 C   0  0  0  0  0  3  0  0  0  0  0  0
   25.6510    1.0510   34.2300 C   0  0  0  0  0  2  0  0  0  0  0  0
   24.8940    1.0920   35.5620 C   0  0  0  0  0  1  0  0  0  0  0  0
   21.9900   11.7670   31.6650 C   0  0  0  0  0  0  0  0  0  0  0  0
   23.1170   12.4870   31.3180 C   0  0  0  0  0  3  0  0  0  0  0  0
   23.1960   13.8570   31.4920 C   0  0  0  0  0  3  0  0  0  0  0  0
   22.1430   14.5710   32.0210 C   0  0  0  0  0  0  0  0  0  0  0  0
   22.2360   16.3130   32.2440 Cl  0  0  0  0  0  0  0  0  0  0  0  0
   21.0110   13.8660   32.3730 C   0  0  0  0  0  3  0  0  0  0  0  0
   20.9350   12.4800   32.1960 C   0  0  0  0  0  3  0  0  0  0  0  0
  1 22  1  0  0  0  0
  1  2  1  0  0  0  0
  2  8  1  0  0  0  0
  3  2  1  0  0  0  0
  3  6  2  0  0  0  0
  4  3  1  0  0  0  0
  5  4  1  0  0  0  0
  5  1  2  0  0  0  0
  6  7  1  0  0  0  0
  8  7  2  0  0  0  0
  9  4  1  0  0  0  0
  9 10  1  0  0  0  0
 10 12  1  0  0  0  0
 10 11  2  0  0  0  0
 12 14  1  0  0  0  0
 13 12  1  0  0  0  0
 14 15  1  0  0  0  0
 15 16  2  0  0  0  0
 17 16  1  0  0  0  0
 17 20  1  0  0  0  0
 18 17  2  0  0  0  0
 19 14  2  0  0  0  0
 19 18  1  0  0  0  0
 20 21  1  0  0  0  0
 22 28  1  0  0  0  0
 23 24  1  0  0  0  0
 23 22  2  0  0  0  0
 24 25  2  0  0  0  0
 25 26  1  0  0  0  0
 25 27  1  0  0  0  0
 28 27  2  0  0  0  0
M  END
>  <Pose>
1

>  <Score>
-8.901

$$$$
