/Users/jonathanwahrer/Desktop/Msc/3_Semester/Drug_Design_Praktikum/waehrer_HTS_screening/HTS_experiment/out/docking_results/vina_output/3elj/1343_docked.pdbqt
 OpenBabel03192218183D

 41 44  0  0  1  0  0  0  0  0999 V2000
   23.8790   13.5320   29.7550 C   0  0  0  0  0  0  0  0  0  0  0  0
   24.2840   14.1920   28.6400 N   0  0  0  0  0  0  0  0  0  0  0  0
   23.6920   15.4140   28.6190 C   0  0  0  0  0  0  0  0  0  0  0  0
   23.7290   16.4540   27.7780 N   0  0  0  0  0  0  0  0  0  0  0  0
   23.0260   17.5800   27.9990 C   0  0  0  0  0  0  0  0  0  0  0  0
   22.2580   17.6630   29.1080 N   0  0  0  0  0  0  0  0  0  0  0  0
   22.1730   16.6700   29.9860 C   0  0  0  0  0  0  0  0  0  0  0  0
   22.8970   15.5180   29.7540 C   0  0  0  0  0  0  0  0  0  0  0  0
   23.0410   14.3730   30.3980 N   0  0  0  0  0  0  0  0  0  0  0  0
   24.2730   12.2220   30.1460 N   0  0  0  0  0  0  0  0  0  0  0  0
   25.2760   11.9860   30.1900 H   0  0  0  0  0  0  0  0  0  0  0  0
   23.2530   11.3030   30.4610 N   0  0  0  0  0  0  0  0  0  0  0  0
   23.0500   10.8470   31.6280 C   0  0  0  0  0  3  0  0  0  0  0  0
   22.0030    9.8960   31.9830 C   0  0  0  0  0  0  0  0  0  0  0  0
   20.8290   10.3170   32.5690 C   0  0  0  0  0  0  0  0  0  0  0  0
   20.5960   12.1730   32.9100 Br  0  0  0  0  0  0  0  0  0  0  0  0
   19.8220    9.4110   32.9130 C   0  0  0  0  0  3  0  0  0  0  0  0
   19.9670    8.0600   32.6770 C   0  0  0  0  0  0  0  0  0  0  0  0
   21.1420    7.6390   32.0910 C   0  0  0  0  0  0  0  0  0  0  0  0
   22.1290    8.5420   31.7550 C   0  0  0  0  0  3  0  0  0  0  0  0
   18.9720    7.1410   33.0130 O   0  0  0  0  0  0  0  0  0  0  0  0
   17.6110    7.3740   32.8080 C   0  0  0  0  0  1  0  0  0  0  0  0
   21.2770    6.2740   31.8570 O   0  0  0  0  0  0  0  0  0  0  0  0
   22.2020    5.7080   30.9840 C   0  0  0  0  0  1  0  0  0  0  0  0
   25.1840   13.6810   27.6530 C   0  0  2  0  0  3  0  0  0  0  0  0
   25.5130   12.3440   27.8270 O   0  0  0  0  0  0  0  0  0  0  0  0
   26.6970   12.1000   27.1930 C   0  0  1  0  0  3  0  0  0  0  0  0
   27.3450   13.3890   26.8170 C   0  0  2  0  0  3  0  0  0  0  0  0
   26.5150   14.4040   27.6060 C   0  0  1  0  0  3  0  0  0  0  0  0
   27.6260   11.3810   28.1720 C   0  0  0  0  0  2  0  0  0  0  0  0
   27.1070   11.4620   29.4690 O   0  0  0  0  0  0  0  0  0  0  0  0
   27.7660   11.8530   30.0980 H   0  0  0  0  0  0  0  0  0  0  0  0
   27.0970   13.6830   25.4600 O   0  0  0  0  0  0  0  0  0  0  0  0
   27.9170   13.9580   24.9960 H   0  0  0  0  0  0  0  0  0  0  0  0
   26.4260   15.6110   26.9130 O   0  0  0  0  0  0  0  0  0  0  0  0
   25.6970   15.5630   26.2420 H   0  0  0  0  0  0  0  0  0  0  0  0
   21.3880   16.7270   31.1420 O   0  0  0  0  0  0  0  0  0  0  0  0
   21.4720   15.9410   31.7760 H   0  0  0  0  0  0  0  0  0  0  0  0
   23.0780   18.6860   27.0860 N   0  0  0  0  0  0  0  0  0  0  0  0
   23.8270   18.8380   26.4030 H   0  0  0  0  0  0  0  0  0  0  0  0
   22.2910   19.3670   27.1400 H   0  0  0  0  0  0  0  0  0  0  0  0
  1 10  1  0  0  0  0
  1  9  2  0  0  0  0
  2  1  1  0  0  0  0
  3  2  1  0  0  0  0
  3  8  2  0  0  0  0
  4  5  2  0  0  0  0
  4  3  1  0  0  0  0
  5  6  1  0  0  0  0
  6  7  2  0  0  0  0
  7 37  1  0  0  0  0
  8  7  1  0  0  0  0
  8  9  1  0  0  0  0
 10 11  1  0  0  0  0
 10 12  1  0  0  0  0
 12 13  2  0  0  0  0
 13 14  1  0  0  0  0
 14 15  1  0  0  0  0
 15 16  1  0  0  0  0
 15 17  2  0  0  0  0
 18 17  1  0  0  0  0
 18 21  1  0  0  0  0
 19 18  2  0  0  0  0
 20 14  2  0  0  0  0
 20 19  1  0  0  0  0
 22 21  1  0  0  0  0
 23 19  1  0  0  0  0
 24 23  1  0  0  0  0
 25 26  1  0  0  0  0
 25  2  1  1  0  0  0
 27 26  1  0  0  0  0
 27 30  1  1  0  0  0
 28 33  1  6  0  0  0
 28 27  1  0  0  0  0
 28 29  1  0  0  0  0
 29 35  1  6  0  0  0
 29 25  1  0  0  0  0
 30 31  1  0  0  0  0
 31 32  1  0  0  0  0
 34 33  1  0  0  0  0
 36 35  1  0  0  0  0
 37 38  1  0  0  0  0
 39 41  1  0  0  0  0
 39  5  1  0  0  0  0
 40 39  1  0  0  0  0
M  END
>  <Pose>
1

>  <Score>
-8.412

$$$$
