/Users/jonathanwahrer/Desktop/Msc/3_Semester/Drug_Design_Praktikum/waehrer_HTS_screening/HTS_experiment/out/docking_results/vina_output/3elj/1355_docked.pdbqt
 OpenBabel03192218183D

 27 30  0  0  1  0  0  0  0  0999 V2000
   25.7130   12.9760   28.1380 N   0  0  0  0  0  0  0  0  0  0  0  0
   26.6890   13.2610   27.1660 C   0  0  0  0  0  0  0  0  0  0  0  0
   27.1060   12.3440   26.4250 O   0  0  0  0  0  0  0  0  0  0  0  0
   25.3700   13.7430   28.7500 H   0  0  0  0  0  0  0  0  0  0  0  0
   25.1790   11.6370   28.3010 C   0  0  0  0  0  2  0  0  0  0  0  0
   24.6130   11.4660   29.6880 C   0  0  0  0  0  0  0  0  0  0  0  0
   25.2080   11.6960   30.8310 O   0  0  0  0  0  0  0  0  0  0  0  0
   24.3860   11.4290   31.8240 N   0  0  0  0  0  0  0  0  0  0  0  0
   23.2100   11.0080   31.3290 C   0  0  0  0  0  0  0  0  0  0  0  0
   23.3690   11.0380   29.9940 N   0  0  0  0  0  0  0  0  0  0  0  0
   22.0230   10.6070   32.0760 C   0  0  0  0  0  0  0  0  0  0  0  0
   21.0690   11.5130   32.4890 C   0  0  0  0  0  0  0  0  0  0  0  0
   21.3180   13.1950   32.0900 Cl  0  0  0  0  0  0  0  0  0  0  0  0
   19.9360   11.1360   33.2020 C   0  0  0  0  0  3  0  0  0  0  0  0
   19.7310    9.8170   33.5210 C   0  0  0  0  0  3  0  0  0  0  0  0
   20.6870    8.8810   33.1090 C   0  0  0  0  0  3  0  0  0  0  0  0
   21.7970    9.2920   32.4060 C   0  0  0  0  0  3  0  0  0  0  0  0
   27.2170   14.6260   27.0190 C   0  0  1  0  0  3  0  0  0  0  0  0
   28.6550   14.6330   26.5340 C   0  0  0  0  0  2  0  0  0  0  0  0
   29.1130   16.0150   26.2080 C   0  0  0  0  0  2  0  0  0  0  0  0
   28.9160   16.4280   24.7860 C   0  0  0  0  0  2  0  0  0  0  0  0
   27.7280   15.7230   24.1390 C   0  0  0  0  0  2  0  0  0  0  0  0
   26.5740   15.9710   24.9710 N   0  0  0  0  0  0  0  0  0  0  0  0
   25.5640   16.7140   24.6040 N   0  0  0  0  0  0  0  0  0  0  0  0
   26.3580   15.5000   26.2060 C   0  0  0  0  0  0  0  0  0  0  0  0
   24.6870   16.7400   25.5760 N   0  0  0  0  0  0  0  0  0  0  0  0
   25.1620   16.0010   26.5600 N   0  0  0  0  0  0  0  0  0  0  0  0
  1  5  1  0  0  0  0
  1  4  1  0  0  0  0
  2  1  1  0  0  0  0
  3  2  2  0  0  0  0
  5  6  1  0  0  0  0
  6 10  2  0  0  0  0
  6  7  1  0  0  0  0
  7  8  1  0  0  0  0
  9  8  2  0  0  0  0
  9 11  1  0  0  0  0
 10  9  1  0  0  0  0
 11 17  2  0  0  0  0
 11 12  1  0  0  0  0
 12 14  2  0  0  0  0
 13 12  1  0  0  0  0
 14 15  1  0  0  0  0
 16 15  2  0  0  0  0
 17 16  1  0  0  0  0
 18  2  1  6  0  0  0
 19 18  1  0  0  0  0
 20 19  1  0  0  0  0
 21 20  1  0  0  0  0
 22 21  1  0  0  0  0
 22 23  1  0  0  0  0
 23 25  1  0  0  0  0
 24 23  1  0  0  0  0
 24 26  2  0  0  0  0
 25 27  2  0  0  0  0
 25 18  1  0  0  0  0
 26 27  1  0  0  0  0
M  END
>  <Pose>
1

>  <Score>
-8.793

$$$$
