/Users/jonathanwahrer/Desktop/Msc/3_Semester/Drug_Design_Praktikum/waehrer_HTS_screening/HTS_experiment/out/docking_results/vina_output/3elj/1357_docked.pdbqt
 OpenBabel03192218183D

 24 27  0  0  1  0  0  0  0  0999 V2000
   23.0590   10.2510   31.6560 C   0  0  1  0  0  3  0  0  0  0  0  0
   24.1650   10.9690   31.1960 C   0  0  1  0  0  0  0  0  0  0  0  0
   24.8070   11.2770   29.8890 C   0  0  0  0  0  0  0  0  0  0  0  0
   24.1170   12.5820   29.7290 N   0  0  0  0  0  2  0  0  0  0  0  0
   22.8960   12.4370   30.1380 C   0  0  1  0  0  3  0  0  0  0  0  0
   22.7460   11.0790   30.5560 C   0  0  2  0  0  0  0  0  0  0  0  0
   22.4820   10.2610   29.3340 C   0  0  0  0  0  0  0  0  0  0  0  0
   22.2520    9.6030   28.3780 N   0  0  0  0  0  0  0  0  0  0  0  0
   26.1680   11.5050   30.1160 O   0  0  0  0  0  0  0  0  0  0  0  0
   26.8650   10.7240   29.2150 C   0  0  0  0  0  2  0  0  0  0  0  0
   25.8570   10.5470   28.0920 C   0  0  0  0  0  2  0  0  0  0  0  0
   24.6770   10.4250   28.8670 O   0  0  0  0  0  0  0  0  0  0  0  0
   24.5320   12.1050   32.1150 C   0  0  0  0  0  0  0  0  0  0  0  0
   24.8010   12.9920   32.8470 N   0  0  0  0  0  0  0  0  0  0  0  0
   23.1220    8.7700   31.5500 C   0  0  0  0  0  0  0  0  0  0  0  0
   22.0320    7.9740   31.7960 C   0  0  0  0  0  0  0  0  0  0  0  0
   20.3380    8.7100   32.2780 Br  0  0  0  0  0  0  0  0  0  0  0  0
   22.1740    6.5980   31.6810 C   0  0  0  0  0  3  0  0  0  0  0  0
   23.3950    6.0140   31.3230 C   0  0  0  0  0  3  0  0  0  0  0  0
   24.4730    6.8300   31.0820 C   0  0  0  0  0  3  0  0  0  0  0  0
   24.3240    8.2050   31.1980 C   0  0  0  0  0  3  0  0  0  0  0  0
   21.8860   13.4710   30.1600 N   0  0  0  0  0  0  0  0  0  0  0  0
   20.8870   13.2410   30.3190 H   0  0  0  0  0  0  0  0  0  0  0  0
   22.1440   14.4650   30.0180 H   0  0  0  0  0  0  0  0  0  0  0  0
  1 15  1  6  0  0  0
  2  1  1  0  0  0  0
  2 13  1  1  0  0  0
  3  9  1  0  0  0  0
  3  2  1  0  0  0  0
  4  3  1  0  0  0  0
  4  5  1  0  0  0  0
  5 22  1  1  0  0  0
  5  6  1  0  0  0  0
  6  7  1  6  0  0  0
  6  2  1  0  0  0  0
  6  1  1  0  0  0  0
  8  7  3  0  0  0  0
 10  9  1  0  0  0  0
 11 12  1  0  0  0  0
 11 10  1  0  0  0  0
 12  3  1  0  0  0  0
 13 14  3  0  0  0  0
 15 16  1  0  0  0  0
 16 17  1  0  0  0  0
 18 16  2  0  0  0  0
 19 18  1  0  0  0  0
 20 21  1  0  0  0  0
 20 19  2  0  0  0  0
 21 15  2  0  0  0  0
 22 23  1  0  0  0  0
 24 22  1  0  0  0  0
M  END
>  <Pose>
1

>  <Score>
-5.686

$$$$
