/Users/jonathanwahrer/Desktop/Msc/3_Semester/Drug_Design_Praktikum/waehrer_HTS_screening/HTS_experiment/out/docking_results/vina_output/3elj/1360_docked.pdbqt
 OpenBabel03192218183D

 34 37  0  0  1  0  0  0  0  0999 V2000
   24.2510    6.3320   31.2590 C   0  0  1  0  0  3  0  0  0  0  0  0
   24.8210    5.1740   30.6210 N   0  0  0  0  0  0  0  0  0  0  0  0
   24.9260    5.6360   29.2180 C   0  0  2  0  0  3  0  0  0  0  0  0
   25.6360    4.6380   28.5150 N   0  0  0  0  0  0  0  0  0  0  0  0
   25.8440    3.5400   29.4080 C   0  0  0  0  0  0  0  0  0  0  0  0
   25.3450    3.8860   30.6660 C   0  0  0  0  0  0  0  0  0  0  0  0
   25.4380    2.9680   31.6910 C   0  0  0  0  0  0  0  0  0  0  0  0
   24.9820    3.3030   32.8140 O   0  0  0  0  0  0  0  0  0  0  0  0
   25.9990    1.7750   31.4620 N   0  0  0  0  0  0  0  0  0  0  0  0
   26.4630    1.4750   30.2610 C   0  0  0  0  0  0  0  0  0  0  0  0
   26.9840    0.3390   30.0880 O   0  0  0  0  0  0  0  0  0  0  0  0
   26.4000    2.3420   29.2050 N   0  0  0  0  0  0  0  0  0  0  0  0
   26.9410    1.8900   27.9430 C   0  0  0  0  0  1  0  0  0  0  0  0
   26.0780    0.8300   32.5810 C   0  0  0  0  0  1  0  0  0  0  0  0
   26.0660    4.6500   27.1410 C   0  0  0  0  0  1  0  0  0  0  0  0
   25.4330    7.0120   29.3190 C   0  0  1  0  0  3  0  0  0  0  0  0
   25.2940    7.3670   30.8060 C   0  0  1  0  0  3  0  0  0  0  0  0
   22.9630    6.6800   30.7050 C   0  0  2  0  0  3  0  0  0  0  0  0
   22.9080    6.5860   29.4070 O   0  0  0  0  0  1  0  0  0  0  0  0
   21.7400    7.1110   31.3450 C   0  0  0  0  0  0  0  0  0  0  0  0
   21.4560    8.4310   31.6060 C   0  0  0  0  0  3  0  0  0  0  0  0
   20.2860    8.7570   32.2460 C   0  0  0  0  0  3  0  0  0  0  0  0
   19.3760    7.7870   32.6390 C   0  0  0  0  0  0  0  0  0  0  0  0
   17.7590    8.2690   33.5260 Br  0  0  0  0  0  0  0  0  0  0  0  0
   19.6670    6.4610   32.3740 C   0  0  0  0  0  3  0  0  0  0  0  0
   20.8340    6.1210   31.7350 C   0  0  0  0  0  3  0  0  0  0  0  0
   24.8560    8.7450   30.9980 C   0  0  0  0  0  0  0  0  0  0  0  0
   24.8790    9.2640   32.1640 O   0  0  0  0  0  0  0  0  0  0  0  0
   24.4120    9.5200   29.9600 O   0  0  0  0  0  0  0  0  0  0  0  0
   25.0070   10.7720   29.6120 C   0  0  0  0  0  1  0  0  0  0  0  0
   26.7740    7.3090   28.8310 C   0  0  0  0  0  0  0  0  0  0  0  0
   26.9410    8.2000   27.9580 O   0  0  0  0  0  0  0  0  0  0  0  0
   27.8840    6.6400   29.3000 O   0  0  0  0  0  0  0  0  0  0  0  0
   29.0270    6.4560   28.4940 C   0  0  0  0  0  1  0  0  0  0  0  0
  1 18  1  6  0  0  0
  2  6  1  0  0  0  0
  2  1  1  0  0  0  0
  3  4  1  6  0  0  0
  3 16  1  0  0  0  0
  3  2  1  0  0  0  0
  4  5  1  0  0  0  0
  5  6  2  0  0  0  0
  6  7  1  0  0  0  0
  7  8  2  0  0  0  0
  9  7  1  0  0  0  0
  9 14  1  0  0  0  0
 10  9  1  0  0  0  0
 11 10  2  0  0  0  0
 12  5  1  0  0  0  0
 12 10  1  0  0  0  0
 13 12  1  0  0  0  0
 15  4  1  0  0  0  0
 16 31  1  1  0  0  0
 16 17  1  0  0  0  0
 17 27  1  6  0  0  0
 17  1  1  0  0  0  0
 18 19  1  6  0  0  0
 18 20  1  0  0  0  0
 20 21  2  0  0  0  0
 20 26  1  0  0  0  0
 21 22  1  0  0  0  0
 22 23  2  0  0  0  0
 23 24  1  0  0  0  0
 25 23  1  0  0  0  0
 26 25  2  0  0  0  0
 27 28  2  0  0  0  0
 29 27  1  0  0  0  0
 30 29  1  0  0  0  0
 31 33  1  0  0  0  0
 32 31  2  0  0  0  0
 34 33  1  0  0  0  0
M  END
>  <Pose>
1

>  <Score>
-7.942

$$$$
