/Users/jonathanwahrer/Desktop/Msc/3_Semester/Drug_Design_Praktikum/waehrer_HTS_screening/HTS_experiment/out/docking_results/vina_output/3elj/1372_docked.pdbqt
 OpenBabel03192218183D

 31 34  0  0  1  0  0  0  0  0999 V2000
   25.7910    6.2830   28.8990 C   0  0  0  0  0  0  0  0  0  0  0  0
   25.9740    7.4800   29.2040 O   0  0  0  0  0  0  0  0  0  0  0  0
   26.4510    5.7300   27.7960 N   0  0  0  0  0  0  0  0  0  0  0  0
   27.5970    6.1790   27.0810 C   0  0  0  0  0  2  0  0  0  0  0  0
   28.2620    4.8870   26.5800 C   0  0  0  0  0  2  0  0  0  0  0  0
   28.0090    3.7250   27.5080 C   0  0  1  0  0  0  0  0  0  0  0  0
   28.6300    2.5230   27.0220 N   0  0  0  0  0  0  0  0  0  0  0  0
   28.2550    1.4300   27.9310 C   0  0  0  0  0  2  0  0  0  0  0  0
   28.8570    1.6060   29.2910 C   0  0  0  0  0  2  0  0  0  0  0  0
   28.9890    3.0280   29.6790 C   0  0  0  0  0  0  0  0  0  0  0  0
   29.4620    3.5780   30.8020 N   0  0  0  0  0  0  0  0  0  0  0  0
   29.3760    4.9190   30.6920 C   0  0  0  0  0  3  0  0  0  0  0  0
   28.8440    5.1860   29.4920 N   0  0  0  0  0  0  0  0  0  0  0  0
   28.5840    4.0560   28.8170 C   0  0  0  0  0  0  0  0  0  0  0  0
   26.5170    3.3700   27.6130 C   0  0  0  0  0  2  0  0  0  0  0  0
   25.8150    4.5570   27.1080 C   0  0  0  0  0  2  0  0  0  0  0  0
   28.2150    2.2700   26.0940 H   0  0  0  0  0  0  0  0  0  0  0  0
   29.8490    3.1250   31.6590 H   0  0  0  0  0  0  0  0  0  0  0  0
   24.8660    5.4810   29.7570 C   0  0  1  0  0  3  0  0  0  0  0  0
   25.7140    4.9570   30.9450 C   0  0  0  0  0  1  0  0  0  0  0  0
   23.8380    6.2640   30.3990 N   0  0  0  0  0  0  0  0  0  0  0  0
   22.6560    5.5910   30.9090 C   0  0  0  0  0  0  0  0  0  0  0  0
   22.5300    4.3620   30.8480 O   0  0  0  0  0  0  0  0  0  0  0  0
   23.9410    7.2720   30.4980 H   0  0  0  0  0  0  0  0  0  0  0  0
   21.6200    6.4640   31.4870 C   0  0  0  0  0  0  0  0  0  0  0  0
   21.8950    7.8390   31.5700 C   0  0  0  0  0  3  0  0  0  0  0  0
   21.0170    8.7490   32.1020 C   0  0  0  0  0  0  0  0  0  0  0  0
   21.4820   10.6210   32.1630 Br  0  0  0  0  0  0  0  0  0  0  0  0
   19.8090    8.2940   32.5780 C   0  0  0  0  0  3  0  0  0  0  0  0
   19.5220    6.9410   32.5070 C   0  0  0  0  0  3  0  0  0  0  0  0
   20.4220    6.0280   31.9670 C   0  0  0  0  0  3  0  0  0  0  0  0
  1  2  2  0  0  0  0
  1 19  1  0  0  0  0
  3  1  1  0  0  0  0
  4  3  1  0  0  0  0
  5  4  1  0  0  0  0
  6  5  1  6  0  0  0
  6 15  1  0  0  0  0
  6 14  1  0  0  0  0
  7  6  1  0  0  0  0
  7  8  1  0  0  0  0
  8  9  1  0  0  0  0
  9 10  1  0  0  0  0
 10 11  1  0  0  0  0
 11 18  1  0  0  0  0
 12 11  1  0  0  0  0
 13 12  2  0  0  0  0
 14 13  1  0  0  0  0
 14 10  2  0  0  0  0
 16 15  1  0  0  0  0
 16  3  1  0  0  0  0
 17  7  1  0  0  0  0
 19 21  1  0  0  0  0
 19 20  1  1  0  0  0
 21 24  1  0  0  0  0
 21 22  1  0  0  0  0
 22 25  1  0  0  0  0
 23 22  2  0  0  0  0
 25 26  2  0  0  0  0
 25 31  1  0  0  0  0
 26 27  1  0  0  0  0
 27 28  1  0  0  0  0
 27 29  2  0  0  0  0
 30 29  1  0  0  0  0
 31 30  2  0  0  0  0
M  END
>  <Pose>
1

>  <Score>
-8.253

$$$$
