/Users/jonathanwahrer/Desktop/Msc/3_Semester/Drug_Design_Praktikum/waehrer_HTS_screening/HTS_experiment/out/docking_results/vina_output/3elj/1386_docked.pdbqt
 OpenBabel03192218193D

 33 36  0  0  1  0  0  0  0  0999 V2000
   24.8510   10.6610   30.2370 C   0  0  0  0  0  0  0  0  0  0  0  0
   25.9180   11.1570   30.6630 O   0  0  0  0  0  0  0  0  0  0  0  0
   23.7250   11.5320   29.9960 N   0  0  0  0  0  0  0  0  0  0  0  0
   23.8670   12.9390   30.2530 C   0  0  0  0  0  2  0  0  0  0  0  0
   22.9780   13.2720   31.4330 C   0  0  2  0  0  3  0  0  0  0  0  0
   21.7500   12.4380   31.5070 C   0  0  2  0  0  0  0  0  0  0  0  0
   21.3480   11.7730   30.2420 C   0  0  0  0  0  2  0  0  0  0  0  0
   22.4500   11.0820   29.5090 C   0  0  0  0  0  2  0  0  0  0  0  0
   20.5980   13.3610   31.9260 C   0  0  0  0  0  1  0  0  0  0  0  0
   24.6990    9.2260   29.9730 C   0  0  0  0  0  2  0  0  0  0  0  0
   24.4890    8.3310   31.1210 C   0  0  0  0  0  2  0  0  0  0  0  0
   23.0850    8.0260   31.4950 C   0  0  0  0  0  0  0  0  0  0  0  0
   22.2480    8.9010   32.1540 N   0  0  0  0  0  0  0  0  0  0  0  0
   21.0750    8.2980   32.3930 C   0  0  0  0  0  0  0  0  0  0  0  0
   19.9010    8.7000   33.0090 C   0  0  0  0  0  3  0  0  0  0  0  0
   21.1330    7.0180   31.8930 C   0  0  0  0  0  0  0  0  0  0  0  0
   18.8280    7.8470   33.1150 C   0  0  0  0  0  0  0  0  0  0  0  0
   17.3500    8.4110   33.9100 Cl  0  0  0  0  0  0  0  0  0  0  0  0
   18.9030    6.5650   32.6050 C   0  0  0  0  0  3  0  0  0  0  0  0
   20.0620    6.1540   31.9930 C   0  0  0  0  0  3  0  0  0  0  0  0
   22.3830    6.9060   31.3570 N   0  0  0  0  0  0  0  0  0  0  0  0
   22.8230    5.6540   30.7680 C   0  0  0  0  0  1  0  0  0  0  0  0
   22.7150   14.6900   31.4010 N   0  0  0  0  0  0  0  0  0  0  0  0
   22.3900   15.2940   30.2420 C   0  0  0  0  0  3  0  0  0  0  0  0
   22.1320   16.6450   30.1650 C   0  0  0  0  0  3  0  0  0  0  0  0
   22.2090   17.3920   31.3180 C   0  0  0  0  0  0  0  0  0  0  0  0
   21.9800   18.6470   31.3130 O   0  0  0  0  0  0  0  0  0  0  0  0
   22.5340   16.7640   32.4580 N   0  0  0  0  0  0  0  0  0  0  0  0
   22.7810   15.4540   32.5050 C   0  0  0  0  0  0  0  0  0  0  0  0
   22.6060   17.3040   33.3720 H   0  0  0  0  0  0  0  0  0  0  0  0
   23.0830   14.9100   33.6060 O   0  0  0  0  0  0  0  0  0  0  0  0
   21.8180   11.4570   32.5080 O   0  0  0  0  0  0  0  0  0  0  0  0
   20.9610   11.4980   33.0370 H   0  0  0  0  0  0  0  0  0  0  0  0
  1  2  2  0  0  0  0
  3  1  1  0  0  0  0
  3  4  1  0  0  0  0
  5  4  1  6  0  0  0
  5  6  1  0  0  0  0
  6  9  1  1  0  0  0
  6 32  1  0  0  0  0
  7  6  1  0  0  0  0
  8  3  1  0  0  0  0
  8  7  1  0  0  0  0
 10  1  1  0  0  0  0
 10 11  1  0  0  0  0
 11 12  1  0  0  0  0
 12 13  2  0  0  0  0
 13 14  1  0  0  0  0
 14 15  1  0  0  0  0
 15 17  2  0  0  0  0
 16 20  1  0  0  0  0
 16 14  2  0  0  0  0
 17 18  1  0  0  0  0
 19 17  1  0  0  0  0
 20 19  2  0  0  0  0
 21 12  1  0  0  0  0
 21 16  1  0  0  0  0
 22 21  1  0  0  0  0
 23  5  1  0  0  0  0
 23 29  1  0  0  0  0
 24 23  1  0  0  0  0
 25 24  2  0  0  0  0
 25 26  1  0  0  0  0
 26 28  1  0  0  0  0
 27 26  2  0  0  0  0
 28 29  1  0  0  0  0
 28 30  1  0  0  0  0
 29 31  2  0  0  0  0
 32 33  1  0  0  0  0
M  END
>  <Pose>
1

>  <Score>
-9.008

$$$$
