/Users/jonathanwahrer/Desktop/Msc/3_Semester/Drug_Design_Praktikum/waehrer_HTS_screening/HTS_experiment/out/docking_results/vina_output/3elj/1388_docked.pdbqt
 OpenBabel03192218193D

 30 33  0  0  1  0  0  0  0  0999 V2000
   24.7450    7.9230   29.8230 C   0  0  0  0  0  0  0  0  0  0  0  0
   25.7930    8.2630   29.2200 O   0  0  0  0  0  0  0  0  0  0  0  0
   24.1800    8.7960   30.7650 N   0  0  0  0  0  0  0  0  0  0  0  0
   22.9800    8.4750   31.4970 C   0  0  0  0  0  2  0  0  0  0  0  0
   21.9270    9.4770   31.0750 C   0  0  0  0  0  2  0  0  0  0  0  0
   22.4810   10.8770   31.1940 C   0  0  1  0  0  0  0  0  0  0  0  0
   22.5020   11.4630   29.8710 N   0  0  0  0  0  0  0  0  0  0  0  0
   22.8830   12.8320   29.8280 C   0  0  0  0  0  2  0  0  0  0  0  0
   22.3730   13.7110   30.9110 C   0  0  0  0  0  2  0  0  0  0  0  0
   21.4400   13.0540   31.8510 C   0  0  0  0  0  0  0  0  0  0  0  0
   20.4650   13.5430   32.6770 N   0  0  0  0  0  0  0  0  0  0  0  0
   19.9340   12.4890   33.3080 C   0  0  0  0  0  3  0  0  0  0  0  0
   20.5510   11.3700   32.8960 N   0  0  0  0  0  0  0  0  0  0  0  0
   21.5030   11.6850   31.9820 C   0  0  0  0  0  0  0  0  0  0  0  0
   23.8320   10.9550   31.8280 C   0  0  0  0  0  2  0  0  0  0  0  0
   24.7980   10.0690   31.0350 C   0  0  0  0  0  2  0  0  0  0  0  0
   23.1820   10.9170   29.2790 H   0  0  0  0  0  0  0  0  0  0  0  0
   20.2150   14.5720   32.7640 H   0  0  0  0  0  0  0  0  0  0  0  0
   24.1740    6.5920   29.4840 C   0  0  0  0  0  2  0  0  0  0  0  0
   24.6770    5.5560   30.3600 N   0  0  0  0  0  0  0  0  0  0  0  0
   23.8140    4.7490   31.1360 C   0  0  0  0  0  0  0  0  0  0  0  0
   22.5780    4.9620   31.0400 O   0  0  0  0  0  0  0  0  0  0  0  0
   25.7020    5.4000   30.4230 H   0  0  0  0  0  0  0  0  0  0  0  0
   24.2940    3.7010   32.0260 C   0  0  0  0  0  0  0  0  0  0  0  0
   25.5510    3.1360   31.9240 C   0  0  0  0  0  3  0  0  0  0  0  0
   25.9810    2.1410   32.7840 C   0  0  0  0  0  0  0  0  0  0  0  0
   27.7200    1.4240   32.5720 Br  0  0  0  0  0  0  0  0  0  0  0  0
   25.1370    1.6760   33.7940 C   0  0  0  0  0  3  0  0  0  0  0  0
   23.8880    2.2490   33.8810 C   0  0  0  0  0  3  0  0  0  0  0  0
   23.4550    3.2380   33.0290 C   0  0  0  0  0  3  0  0  0  0  0  0
  1  3  1  0  0  0  0
  2  1  2  0  0  0  0
  3 16  1  0  0  0  0
  3  4  1  0  0  0  0
  5  4  1  0  0  0  0
  6  5  1  6  0  0  0
  6 15  1  0  0  0  0
  6 14  1  0  0  0  0
  7  6  1  0  0  0  0
  8  7  1  0  0  0  0
  8  9  1  0  0  0  0
  9 10  1  0  0  0  0
 10 14  2  0  0  0  0
 10 11  1  0  0  0  0
 11 18  1  0  0  0  0
 11 12  1  0  0  0  0
 13 12  2  0  0  0  0
 14 13  1  0  0  0  0
 16 15  1  0  0  0  0
 17  7  1  0  0  0  0
 19  1  1  0  0  0  0
 19 20  1  0  0  0  0
 20 23  1  0  0  0  0
 20 21  1  0  0  0  0
 21 24  1  0  0  0  0
 22 21  2  0  0  0  0
 24 30  1  0  0  0  0
 25 24  2  0  0  0  0
 25 26  1  0  0  0  0
 26 28  2  0  0  0  0
 27 26  1  0  0  0  0
 28 29  1  0  0  0  0
 30 29  2  0  0  0  0
M  END
>  <Pose>
1

>  <Score>
-8.925

$$$$
