/Users/jonathanwahrer/Desktop/Msc/3_Semester/Drug_Design_Praktikum/waehrer_HTS_screening/HTS_experiment/out/docking_results/vina_output/3elj/1404_docked.pdbqt
 OpenBabel03192218193D

 26 29  0  0  1  0  0  0  0  0999 V2000
   22.8960   10.1170   32.0620 Br  0  0  0  0  0  0  0  0  0  0  0  0
   23.3760    8.5180   31.1390 C   0  0  0  0  0  0  0  0  0  0  0  0
   24.5820    8.4110   30.4710 C   0  0  0  0  0  3  0  0  0  0  0  0
   24.9740    7.2780   29.7900 C   0  0  0  0  0  0  0  0  0  0  0  0
   24.0690    6.2130   29.8080 C   0  0  0  0  0  0  0  0  0  0  0  0
   22.8710    6.3200   30.4710 C   0  0  0  0  0  3  0  0  0  0  0  0
   22.4920    7.4600   31.1490 C   0  0  0  0  0  0  0  0  0  0  0  0
   21.1790    7.5210   31.8510 C   0  0  0  0  0  1  0  0  0  0  0  0
   24.4980    5.0900   29.1140 O   0  0  0  0  0  0  0  0  0  0  0  0
   25.6280    5.0600   28.2630 C   0  0  0  0  0  2  0  0  0  0  0  0
   26.8270    5.8210   28.9210 C   0  0  2  0  0  0  0  0  0  0  0  0
   26.2370    7.1730   29.0720 C   0  0  0  0  0  0  0  0  0  0  0  0
   26.6990    8.2460   28.6480 O   0  0  0  0  0  0  0  0  0  0  0  0
   27.9870    5.7260   28.2170 N   0  0  0  0  0  0  0  0  0  0  0  0
   29.1880    6.3410   28.5910 C   0  0  0  0  0  2  0  0  0  0  0  0
   29.4060    7.5950   27.7730 C   0  0  0  0  0  2  0  0  0  0  0  0
   29.6030    7.1500   26.4440 O   0  0  0  0  0  0  0  0  0  0  0  0
   28.3260    6.7360   26.0270 C   0  0  0  0  0  2  0  0  0  0  0  0
   27.9450    5.4970   26.8410 C   0  0  0  0  0  2  0  0  0  0  0  0
   26.9440    5.1690   30.2530 C   0  0  0  0  0  2  0  0  0  0  0  0
   27.5090    3.8580   30.3220 N   0  0  0  0  0  0  0  0  0  0  0  0
   28.7230    3.6820   31.0250 C   0  0  0  0  0  2  0  0  0  0  0  0
   28.4770    3.7060   32.5410 C   0  0  0  0  0  2  0  0  0  0  0  0
   27.7130    2.5670   32.8140 O   0  0  0  0  0  0  0  0  0  0  0  0
   26.4440    2.7910   32.2670 C   0  0  0  0  0  2  0  0  0  0  0  0
   26.4760    2.9250   30.7750 C   0  0  0  0  0  2  0  0  0  0  0  0
  2  7  1  0  0  0  0
  2  1  1  0  0  0  0
  3  2  2  0  0  0  0
  4  5  2  0  0  0  0
  4  3  1  0  0  0  0
  5  6  1  0  0  0  0
  6  7  2  0  0  0  0
  7  8  1  0  0  0  0
  9  5  1  0  0  0  0
 10 11  1  0  0  0  0
 10  9  1  0  0  0  0
 11 12  1  0  0  0  0
 11 20  1  1  0  0  0
 12  4  1  0  0  0  0
 13 12  2  0  0  0  0
 14 15  1  0  0  0  0
 14 11  1  0  0  0  0
 16 15  1  0  0  0  0
 17 16  1  0  0  0  0
 18 17  1  0  0  0  0
 18 19  1  0  0  0  0
 19 14  1  0  0  0  0
 20 21  1  0  0  0  0
 21 26  1  0  0  0  0
 21 22  1  0  0  0  0
 22 23  1  0  0  0  0
 23 24  1  0  0  0  0
 25 24  1  0  0  0  0
 26 25  1  0  0  0  0
M  END
>  <Pose>
1

>  <Score>
-6.151

$$$$
