/Users/jonathanwahrer/Desktop/Msc/3_Semester/Drug_Design_Praktikum/waehrer_HTS_screening/HTS_experiment/out/docking_results/vina_output/3elj/1415_docked.pdbqt
 OpenBabel03192218203D

 32 35  0  0  1  0  0  0  0  0999 V2000
   26.9490    1.2880   32.1250 Br  0  0  0  0  0  0  0  0  0  0  0  0
   26.7220    1.5260   30.2360 C   0  0  0  0  0  0  0  0  0  0  0  0
   26.7190    2.7920   29.7020 C   0  0  0  0  0  0  0  0  0  0  0  0
   26.5570    3.0100   28.3230 C   0  0  0  0  0  0  0  0  0  0  0  0
   26.4000    1.8890   27.5390 C   0  0  0  0  0  3  0  0  0  0  0  0
   26.3990    0.6080   28.0490 C   0  0  0  0  0  0  0  0  0  0  0  0
   26.5610    0.4200   29.4030 C   0  0  0  0  0  0  0  0  0  0  0  0
   26.5740   -0.9180   30.0480 C   0  0  0  0  0  1  0  0  0  0  0  0
   26.1810   -0.9270   26.9370 Br  0  0  0  0  0  0  0  0  0  0  0  0
   26.5570    4.3620   27.8030 C   0  0  0  0  0  0  0  0  0  0  0  0
   26.5180    4.5590   26.5840 O   0  0  0  0  0  0  0  0  0  0  0  0
   26.6030    5.4990   28.7400 C   0  0  1  0  0  0  0  0  0  0  0  0
   27.4270    5.0630   29.9310 C   0  0  0  0  0  2  0  0  0  0  0  0
   26.8810    3.9010   30.5270 O   0  0  0  0  0  0  0  0  0  0  0  0
   27.1370    6.7600   28.1300 C   0  0  0  0  0  2  0  0  0  0  0  0
   28.5050    7.0270   28.3550 N   0  0  0  0  0  4  0  0  0  0  0  0
   29.2520    6.8060   27.1520 C   0  0  0  0  0  2  0  0  0  0  0  0
   29.0330    7.8100   26.0770 C   0  0  2  0  0  3  0  0  0  0  0  0
   28.2570    9.0160   26.4390 C   0  0  0  0  0  2  0  0  0  0  0  0
   28.2930    7.1080   24.9320 C   0  0  0  0  0  1  0  0  0  0  0  0
   28.2170    9.3760   27.8730 C   0  0  0  0  0  2  0  0  0  0  0  0
   28.8170    8.3580   28.7980 C   0  0  0  0  0  2  0  0  0  0  0  0
   28.8850    6.3690   29.0810 H   0  0  0  0  0  0  0  0  0  0  0  0
   25.1780    5.7120   29.2070 C   0  0  0  0  0  2  0  0  0  0  0  0
   25.0400    6.1960   30.5380 N   0  0  0  0  0  4  0  0  0  0  0  0
   23.9110    5.5450   31.2000 C   0  0  0  0  0  2  0  0  0  0  0  0
   22.6860    6.4110   31.2350 C   0  0  1  0  0  3  0  0  0  0  0  0
   22.5240    7.1140   29.9060 C   0  0  0  0  0  2  0  0  0  0  0  0
   21.4790    5.4740   31.3770 C   0  0  0  0  0  1  0  0  0  0  0  0
   23.6580    8.0800   29.7590 C   0  0  0  0  0  2  0  0  0  0  0  0
   24.8000    7.6200   30.6310 C   0  0  0  0  0  2  0  0  0  0  0  0
   25.8700    5.9700   31.0930 H   0  0  0  0  0  0  0  0  0  0  0  0
  2  1  1  0  0  0  0
  3  2  1  0  0  0  0
  3 14  1  0  0  0  0
  4  3  2  0  0  0  0
  5  6  2  0  0  0  0
  5  4  1  0  0  0  0
  6  7  1  0  0  0  0
  7  8  1  0  0  0  0
  7  2  2  0  0  0  0
  9  6  1  0  0  0  0
 10  4  1  0  0  0  0
 10 12  1  0  0  0  0
 11 10  2  0  0  0  0
 12 15  1  6  0  0  0
 12 24  1  0  0  0  0
 12 13  1  0  0  0  0
 13 14  1  0  0  0  0
 15 16  1  0  0  0  0
 16 22  1  0  0  0  0
 16 23  1  0  0  0  0
 17 16  1  0  0  0  0
 18 20  1  6  0  0  0
 18 19  1  0  0  0  0
 18 17  1  0  0  0  0
 19 21  1  0  0  0  0
 21 22  1  0  0  0  0
 24 25  1  0  0  0  0
 25 31  1  0  0  0  0
 25 32  1  0  0  0  0
 25 26  1  0  0  0  0
 26 27  1  0  0  0  0
 27 29  1  6  0  0  0
 28 27  1  0  0  0  0
 30 28  1  0  0  0  0
 30 31  1  0  0  0  0
M  END
>  <Pose>
1

>  <Score>
-6.063

$$$$
