/Users/jonathanwahrer/Desktop/Msc/3_Semester/Drug_Design_Praktikum/waehrer_HTS_screening/HTS_experiment/out/docking_results/vina_output/3elj/1428_docked.pdbqt
 OpenBabel03192218203D

 37 40  0  0  1  0  0  0  0  0999 V2000
   20.3880   11.5650   33.5670 Cl  0  0  0  0  0  0  0  0  0  0  0  0
   20.3200    9.9090   32.9720 C   0  0  0  0  0  0  0  0  0  0  0  0
   21.3680    9.3320   32.3050 C   0  0  0  0  0  3  0  0  0  0  0  0
   21.2620    8.0340   31.8600 C   0  0  0  0  0  0  0  0  0  0  0  0
   20.0960    7.3570   32.1050 C   0  0  0  0  0  0  0  0  0  0  0  0
   19.0280    7.9480   32.7860 C   0  0  0  0  0  3  0  0  0  0  0  0
   19.1440    9.2350   33.2220 C   0  0  0  0  0  3  0  0  0  0  0  0
   20.1290    6.0260   31.6040 N   0  0  0  0  0  0  0  0  0  0  0  0
   21.3880    5.8620   31.0140 C   0  0  0  0  0  0  0  0  0  0  0  0
   21.7430    4.7610   30.4790 O   0  0  0  0  0  0  0  0  0  0  0  0
   22.1570    7.1100   31.1230 C   0  0  2  0  0  0  0  0  0  0  0  0
   23.3610    6.8230   31.8520 N   0  0  0  0  0  0  0  0  0  0  0  0
   24.4780    6.9410   30.9670 C   0  0  2  0  0  3  0  0  0  0  0  0
   23.9390    7.0060   29.5740 C   0  0  0  0  0  2  0  0  0  0  0  0
   22.5630    7.5710   29.7910 C   0  0  2  0  0  3  0  0  0  0  0  0
   19.3630    5.3030   31.6630 H   0  0  0  0  0  0  0  0  0  0  0  0
   23.4320    7.4100   32.7090 H   0  0  0  0  0  0  0  0  0  0  0  0
   22.4980    9.0350   29.5500 C   0  0  0  0  0  0  0  0  0  0  0  0
   21.5280    9.4370   28.8640 O   0  0  0  0  0  0  0  0  0  0  0  0
   23.4400    9.9470   30.0400 N   0  0  0  0  0  0  0  0  0  0  0  0
   24.2170    9.5050   30.6200 H   0  0  0  0  0  0  0  0  0  0  0  0
   23.4870   11.3320   29.8770 C   0  0  0  0  0  0  0  0  0  0  0  0
   24.4200   11.8830   29.0100 C   0  0  0  0  0  0  0  0  0  0  0  0
   24.5210   13.2430   28.8000 C   0  0  0  0  0  3  0  0  0  0  0  0
   23.6920   14.1250   29.4470 C   0  0  0  0  0  3  0  0  0  0  0  0
   22.7640   13.6130   30.3060 C   0  0  0  0  0  0  0  0  0  0  0  0
   22.6720   12.2380   30.5090 C   0  0  0  0  0  3  0  0  0  0  0  0
   25.2920   11.0580   28.3210 O   0  0  0  0  0  0  0  0  0  0  0  0
   26.6810   11.1230   28.4280 C   0  0  0  0  0  1  0  0  0  0  0  0
   21.9090   14.4680   30.9770 O   0  0  0  0  0  0  0  0  0  0  0  0
   22.0720   15.8750   30.9700 C   0  0  0  0  0  1  0  0  0  0  0  0
   25.4630    5.7970   31.1460 C   0  0  0  0  0  2  0  0  0  0  0  0
   24.7840    4.4990   31.2600 C   0  0  0  0  0  0  0  0  0  0  0  0
   24.2300    4.1720   32.3210 O   0  0  0  0  0  0  0  0  0  0  0  0
   24.7640    3.6220   30.1590 N   0  0  0  0  0  0  0  0  0  0  0  0
   23.8540    3.1880   29.8920 H   0  0  0  0  0  0  0  0  0  0  0  0
   25.6050    3.3720   29.5840 H   0  0  0  0  0  0  0  0  0  0  0  0
  2  7  1  0  0  0  0
  2  1  1  0  0  0  0
  3  2  2  0  0  0  0
  4  5  2  0  0  0  0
  4  3  1  0  0  0  0
  5  6  1  0  0  0  0
  6  7  2  0  0  0  0
  8 16  1  0  0  0  0
  8  5  1  0  0  0  0
  9  8  1  0  0  0  0
 10  9  2  0  0  0  0
 11  9  1  6  0  0  0
 11 12  1  0  0  0  0
 11  4  1  0  0  0  0
 12 17  1  0  0  0  0
 13 32  1  6  0  0  0
 13 12  1  0  0  0  0
 14 15  1  0  0  0  0
 14 13  1  0  0  0  0
 15 18  1  1  0  0  0
 15 11  1  0  0  0  0
 18 20  1  0  0  0  0
 19 18  2  0  0  0  0
 20 21  1  0  0  0  0
 22 20  1  0  0  0  0
 22 27  1  0  0  0  0
 23 22  2  0  0  0  0
 24 23  1  0  0  0  0
 24 25  2  0  0  0  0
 25 26  1  0  0  0  0
 26 27  2  0  0  0  0
 26 30  1  0  0  0  0
 28 29  1  0  0  0  0
 28 23  1  0  0  0  0
 31 30  1  0  0  0  0
 32 33  1  0  0  0  0
 33 34  2  0  0  0  0
 35 33  1  0  0  0  0
 36 35  1  0  0  0  0
 37 35  1  0  0  0  0
M  END
>  <Pose>
1

>  <Score>
-8.325

$$$$
