/Users/jonathanwahrer/Desktop/Msc/3_Semester/Drug_Design_Praktikum/waehrer_HTS_screening/HTS_experiment/out/docking_results/vina_output/3elj/1432_docked.pdbqt
 OpenBabel03192218203D

 21 24  0  0  0  0  0  0  0  0999 V2000
   20.5810   10.7810   32.9240 C   0  0  0  0  0  0  0  0  0  0  0  0
   20.2830    9.4750   33.0220 N   0  0  0  0  0  0  0  0  0  0  0  0
   21.1150    8.7430   32.2620 N   0  0  0  0  0  0  0  0  0  0  0  0
   21.9630    9.6010   31.6680 C   0  0  0  0  0  0  0  0  0  0  0  0
   21.6310   10.8400   32.0770 N   0  0  0  0  0  0  0  0  0  0  0  0
   22.9240    9.0750   30.8270 C   0  0  0  0  0  0  0  0  0  0  0  0
   23.0310    7.7170   30.5890 C   0  0  0  0  0  0  0  0  0  0  0  0
   24.0470    7.4710   29.7330 N   0  0  0  0  0  0  0  0  0  0  0  0
   24.5670    8.6490   29.4430 N   0  0  0  0  0  0  0  0  0  0  0  0
   23.9250    9.6460   30.0760 C   0  0  0  0  0  3  0  0  0  0  0  0
   24.4610    6.1560   29.2490 C   0  0  0  0  0  1  0  0  0  0  0  0
   22.1500    6.9190   31.2160 N   0  0  0  0  0  0  0  0  0  0  0  0
   21.2110    7.4190   32.0360 C   0  0  0  0  0  3  0  0  0  0  0  0
   19.9220   11.9380   33.5900 C   0  0  0  0  0  2  0  0  0  0  0  0
   19.9730   13.1350   32.7660 N   0  0  0  0  0  0  0  0  0  0  0  0
   21.0530   13.9060   32.5290 C   0  0  0  0  0  3  0  0  0  0  0  0
   20.6700   14.9500   31.6900 C   0  0  0  0  0  0  0  0  0  0  0  0
   21.7490   16.3630   31.0030 Br  0  0  0  0  0  0  0  0  0  0  0  0
   19.3270   14.7650   31.4400 C   0  0  0  0  0  0  0  0  0  0  0  0
   18.9400   13.6590   32.1060 N   0  0  0  0  0  0  0  0  0  0  0  0
   18.5200   15.6640   30.5820 C   0  0  0  0  0  1  0  0  0  0  0  0
  1  2  2  0  0  0  0
  1 14  1  0  0  0  0
  3  2  1  0  0  0  0
  4  5  2  0  0  0  0
  4  3  1  0  0  0  0
  5  1  1  0  0  0  0
  6  4  1  0  0  0  0
  7  6  2  0  0  0  0
  7 12  1  0  0  0  0
  8  7  1  0  0  0  0
  9  8  1  0  0  0  0
  9 10  2  0  0  0  0
 10  6  1  0  0  0  0
 11  8  1  0  0  0  0
 12 13  2  0  0  0  0
 13  3  1  0  0  0  0
 15 14  1  0  0  0  0
 16 15  1  0  0  0  0
 17 16  2  0  0  0  0
 18 17  1  0  0  0  0
 19 17  1  0  0  0  0
 19 20  2  0  0  0  0
 20 15  1  0  0  0  0
 21 19  1  0  0  0  0
M  END
>  <Pose>
1

>  <Score>
-7.821

$$$$
