/Users/jonathanwahrer/Desktop/Msc/3_Semester/Drug_Design_Praktikum/waehrer_HTS_screening/HTS_experiment/out/docking_results/vina_output/3elj/1434_docked.pdbqt
 OpenBabel03192218213D

 28 31  0  0  1  0  0  0  0  0999 V2000
   24.2630   11.0040   31.3520 C   0  0  0  0  0  0  0  0  0  0  0  0
   25.5440   11.3570   31.3250 O   0  0  0  0  0  0  0  0  0  0  0  0
   23.4660   11.6740   30.4380 N   0  0  0  0  0  0  0  0  0  0  0  0
   22.0700   11.5310   30.2210 C   0  0  0  0  0  2  0  0  0  0  0  0
   21.3340   12.7660   30.7410 C   0  0  0  0  0  2  0  0  0  0  0  0
   22.2150   13.9930   30.5700 C   0  0  1  0  0  0  0  0  0  0  0  0
   21.3080   15.0870   30.2690 N   0  0  0  0  0  0  0  0  0  0  0  0
   20.9220   15.6550   31.5380 C   0  0  0  0  0  0  0  0  0  0  0  0
   19.9260   16.3930   31.7440 O   0  0  0  0  0  0  0  0  0  0  0  0
   21.8870   15.2150   32.5120 N   0  0  0  0  0  0  0  0  0  0  0  0
   22.8410   14.3960   31.8470 C   0  0  0  0  0  0  0  0  0  0  0  0
   23.9750   14.1010   32.2900 O   0  0  0  0  0  0  0  0  0  0  0  0
   23.1840   13.8550   29.4390 C   0  0  0  0  0  2  0  0  0  0  0  0
   24.1040   12.6840   29.5590 C   0  0  0  0  0  2  0  0  0  0  0  0
   20.9910   15.4080   29.3310 H   0  0  0  0  0  0  0  0  0  0  0  0
   21.8820   15.4560   33.5130 H   0  0  0  0  0  0  0  0  0  0  0  0
   24.0070    9.9880   32.3530 C   0  0  0  0  0  2  0  0  0  0  0  0
   23.0550    8.9640   32.0970 N   0  0  0  0  0  0  0  0  0  0  0  0
   21.7420    9.0570   32.4630 C   0  0  0  0  0  0  0  0  0  0  0  0
   21.0830    7.9250   32.0580 C   0  0  0  0  0  0  0  0  0  0  0  0
   21.0370   10.0560   33.1350 C   0  0  0  0  0  3  0  0  0  0  0  0
   22.0100    7.1280   31.4350 C   0  0  0  0  0  0  0  0  0  0  0  0
   19.7280    7.7850   32.3190 C   0  0  0  0  0  3  0  0  0  0  0  0
   21.5840    5.4210   30.6860 Br  0  0  0  0  0  0  0  0  0  0  0  0
   23.2120    7.7770   31.4650 C   0  0  0  0  0  0  0  0  0  0  0  0
   24.4870    7.2760   30.9020 C   0  0  0  0  0  1  0  0  0  0  0  0
   19.0410    8.7750   32.9820 C   0  0  0  0  0  3  0  0  0  0  0  0
   19.6800    9.9110   33.3940 C   0  0  0  0  0  3  0  0  0  0  0  0
  1 17  1  0  0  0  0
  2  1  2  0  0  0  0
  3  1  1  0  0  0  0
  4  3  1  0  0  0  0
  4  5  1  0  0  0  0
  6 13  1  6  0  0  0
  6  5  1  0  0  0  0
  6 11  1  0  0  0  0
  7  6  1  0  0  0  0
  7  8  1  0  0  0  0
  8  9  2  0  0  0  0
  8 10  1  0  0  0  0
 10 16  1  0  0  0  0
 11 12  2  0  0  0  0
 11 10  1  0  0  0  0
 13 14  1  0  0  0  0
 14  3  1  0  0  0  0
 15  7  1  0  0  0  0
 18 17  1  0  0  0  0
 18 19  1  0  0  0  0
 19 21  1  0  0  0  0
 20 23  1  0  0  0  0
 20 19  2  0  0  0  0
 21 28  2  0  0  0  0
 22 25  2  0  0  0  0
 22 20  1  0  0  0  0
 23 27  2  0  0  0  0
 24 22  1  0  0  0  0
 25 18  1  0  0  0  0
 26 25  1  0  0  0  0
 27 28  1  0  0  0  0
M  END
>  <Pose>
1

>  <Score>
-9.867

$$$$
