/Users/jonathanwahrer/Desktop/Msc/3_Semester/Drug_Design_Praktikum/waehrer_HTS_screening/HTS_experiment/out/docking_results/vina_output/3elj/1435_docked.pdbqt
 OpenBabel03192218213D

 32 35  0  0  0  0  0  0  0  0999 V2000
   22.3520   12.7740   30.1850 C   0  0  0  0  0  2  0  0  0  0  0  0
   23.3930   13.8350   30.5160 C   0  0  0  0  0  2  0  0  0  0  0  0
   23.0010   15.1310   30.0170 N   0  0  0  0  0  0  0  0  0  0  0  0
   22.1730   16.0450   30.5800 C   0  0  0  0  0  0  0  0  0  0  0  0
   21.3040   15.7730   32.2590 Br  0  0  0  0  0  0  0  0  0  0  0  0
   22.0670   17.1310   29.7930 N   0  0  0  0  0  0  0  0  0  0  0  0
   22.8320   16.9430   28.6930 C   0  0  0  0  0  0  0  0  0  0  0  0
   23.4000   15.6960   28.8560 C   0  0  0  0  0  0  0  0  0  0  0  0
   23.0720   17.7170   27.6100 N   0  0  0  0  0  0  0  0  0  0  0  0
   24.2480   15.2350   27.8620 C   0  0  0  0  0  0  0  0  0  0  0  0
   24.4790   16.0090   26.7920 N   0  0  0  0  0  0  0  0  0  0  0  0
   24.7550   14.1030   28.0240 O   0  0  0  0  0  0  0  0  0  0  0  0
   23.9000   17.2350   26.6660 C   0  0  0  0  0  0  0  0  0  0  0  0
   25.1190   15.6690   26.0360 H   0  0  0  0  0  0  0  0  0  0  0  0
   24.1700   17.8990   25.6300 O   0  0  0  0  0  0  0  0  0  0  0  0
   22.4650   19.0250   27.4550 C   0  0  0  0  0  1  0  0  0  0  0  0
   22.9500   11.3930   30.2430 C   0  0  0  0  0  2  0  0  0  0  0  0
   23.1600   10.8570   31.6280 C   0  0  0  0  0  2  0  0  0  0  0  0
   22.2750    9.7690   31.8810 N   0  0  0  0  0  0  0  0  0  0  0  0
   21.0580    9.7430   32.4220 C   0  0  0  0  0  0  0  0  0  0  0  0
   20.5930    8.4330   32.4140 C   0  0  0  0  0  0  0  0  0  0  0  0
   20.2320   10.6960   32.9570 C   0  0  0  0  0  0  0  0  0  0  0  0
   21.5620    7.7090   31.8620 N   0  0  0  0  0  0  0  0  0  0  0  0
   19.3890    8.1320   32.9090 N   0  0  0  0  0  0  0  0  0  0  0  0
   22.5880    8.4960   31.5330 C   0  0  0  0  0  0  0  0  0  0  0  0
   24.1940    7.8740   30.7150 Br  0  0  0  0  0  0  0  0  0  0  0  0
   18.5950    9.0870   33.4290 C   0  0  0  0  0  0  0  0  0  0  0  0
   18.8750    6.7660   32.9120 C   0  0  0  0  0  1  0  0  0  0  0  0
   17.4640    8.7960   33.8920 O   0  0  0  0  0  0  0  0  0  0  0  0
   19.0300   10.3510   33.4440 N   0  0  0  0  0  0  0  0  0  0  0  0
   18.4370   11.1330   33.8440 H   0  0  0  0  0  0  0  0  0  0  0  0
   20.6220   11.8800   32.9820 O   0  0  0  0  0  0  0  0  0  0  0  0
  1 17  1  0  0  0  0
  1  2  1  0  0  0  0
  3  2  1  0  0  0  0
  3  4  1  0  0  0  0
  4  5  1  0  0  0  0
  6  4  2  0  0  0  0
  7  8  2  0  0  0  0
  7  6  1  0  0  0  0
  8  3  1  0  0  0  0
  9  7  1  0  0  0  0
 10 12  2  0  0  0  0
 10  8  1  0  0  0  0
 11 10  1  0  0  0  0
 13 11  1  0  0  0  0
 13  9  1  0  0  0  0
 14 11  1  0  0  0  0
 15 13  2  0  0  0  0
 16  9  1  0  0  0  0
 17 18  1  0  0  0  0
 18 19  1  0  0  0  0
 19 20  1  0  0  0  0
 20 22  1  0  0  0  0
 21 20  2  0  0  0  0
 21 24  1  0  0  0  0
 22 32  2  0  0  0  0
 22 30  1  0  0  0  0
 23 21  1  0  0  0  0
 24 28  1  0  0  0  0
 24 27  1  0  0  0  0
 25 23  2  0  0  0  0
 25 19  1  0  0  0  0
 26 25  1  0  0  0  0
 27 30  1  0  0  0  0
 27 29  2  0  0  0  0
 30 31  1  0  0  0  0
M  END
>  <Pose>
1

>  <Score>
-9.407

$$$$
