/Users/jonathanwahrer/Desktop/Msc/3_Semester/Drug_Design_Praktikum/waehrer_HTS_screening/HTS_experiment/out/docking_results/vina_output/3elj/1444_docked.pdbqt
 OpenBabel03192218223D

 33 36  0  0  0  0  0  0  0  0999 V2000
   24.3000   10.8550   31.5740 N   0  0  0  0  0  0  0  0  0  0  0  0
   24.2090   12.2010   31.4220 C   0  0  0  0  0  0  0  0  0  0  0  0
   24.9520   12.7850   32.4210 O   0  0  0  0  0  0  0  0  0  0  0  0
   24.9550   10.5740   32.4440 H   0  0  0  0  0  0  0  0  0  0  0  0
   23.6130   13.2290   30.5850 C   0  0  0  0  0  2  0  0  0  0  0  0
   22.3700   13.8420   30.7780 N   0  0  0  0  0  0  0  0  0  0  0  0
   21.1410   13.0810   31.1290 C   0  0  0  0  0  2  0  0  0  0  0  0
   20.0080   14.0570   30.8860 C   0  0  0  0  0  2  0  0  0  0  0  0
   20.1460   15.2050   31.8510 C   0  0  0  0  0  2  0  0  0  0  0  0
   21.3690   16.0210   31.4880 C   0  0  0  0  0  2  0  0  0  0  0  0
   22.2320   15.2510   30.5460 C   0  0  0  0  0  0  0  0  0  0  0  0
   22.7630   15.8510   29.4780 C   0  0  0  0  0  0  0  0  0  0  0  0
   22.6230   17.2670   29.2690 N   0  0  0  0  0  0  0  0  0  0  0  0
   23.4440   15.3660   28.3660 N   0  0  0  0  0  0  0  0  0  0  0  0
   23.2180   17.6180   28.0440 N   0  0  0  0  0  0  0  0  0  0  0  0
   22.1860   18.0080   29.8500 H   0  0  0  0  0  0  0  0  0  0  0  0
   23.7390   16.4450   27.4600 C   0  0  0  0  0  0  0  0  0  0  0  0
   23.2830   18.5710   27.6090 H   0  0  0  0  0  0  0  0  0  0  0  0
   24.3470   16.2970   26.3760 O   0  0  0  0  0  0  0  0  0  0  0  0
   23.6880   14.3790   28.1850 H   0  0  0  0  0  0  0  0  0  0  0  0
   23.7450    9.7070   31.0210 C   0  0  0  0  0  0  0  0  0  0  0  0
   22.7000    8.9810   31.5200 N   0  0  0  0  0  0  0  0  0  0  0  0
   22.4300    7.9950   30.6730 N   0  0  0  0  0  0  0  0  0  0  0  0
   23.2400    8.0220   29.6290 C   0  0  0  0  0  3  0  0  0  0  0  0
   24.0950    9.1150   29.8290 C   0  0  0  0  0  3  0  0  0  0  0  0
   22.0340    9.2510   32.7460 C   0  0  0  0  0  2  0  0  0  0  0  0
   20.6390    8.7760   32.8010 C   0  0  0  0  0  0  0  0  0  0  0  0
   19.5870    9.5530   33.1850 C   0  0  0  0  0  0  0  0  0  0  0  0
   19.8580   11.2170   33.6490 Cl  0  0  0  0  0  0  0  0  0  0  0  0
   18.3050    9.0550   33.2170 C   0  0  0  0  0  3  0  0  0  0  0  0
   18.0410    7.7520   32.8610 C   0  0  0  0  0  3  0  0  0  0  0  0
   19.0980    6.9570   32.4710 C   0  0  0  0  0  3  0  0  0  0  0  0
   20.3680    7.4740   32.4460 C   0  0  0  0  0  3  0  0  0  0  0  0
  1  4  1  0  0  0  0
  2  1  1  0  0  0  0
  2  3  2  0  0  0  0
  5  6  1  0  0  0  0
  5  2  1  0  0  0  0
  6  7  1  0  0  0  0
  8  7  1  0  0  0  0
  8  9  1  0  0  0  0
 10  9  1  0  0  0  0
 11  6  1  0  0  0  0
 11 10  1  0  0  0  0
 12 11  2  0  0  0  0
 13 12  1  0  0  0  0
 13 16  1  0  0  0  0
 14 12  1  0  0  0  0
 15 13  1  0  0  0  0
 17 15  1  0  0  0  0
 17 14  1  0  0  0  0
 18 15  1  0  0  0  0
 19 17  2  0  0  0  0
 20 14  1  0  0  0  0
 21 22  1  0  0  0  0
 21  1  1  0  0  0  0
 22 26  1  0  0  0  0
 23 22  1  0  0  0  0
 24 25  1  0  0  0  0
 24 23  2  0  0  0  0
 25 21  2  0  0  0  0
 26 27  1  0  0  0  0
 27 28  1  0  0  0  0
 28 30  2  0  0  0  0
 28 29  1  0  0  0  0
 31 30  1  0  0  0  0
 32 31  2  0  0  0  0
 33 32  1  0  0  0  0
 33 27  2  0  0  0  0
M  END
>  <Pose>
1

>  <Score>
-9.775

$$$$
