/Users/jonathanwahrer/Desktop/Msc/3_Semester/Drug_Design_Praktikum/waehrer_HTS_screening/HTS_experiment/out/docking_results/vina_output/3elj/1466_docked.pdbqt
 OpenBabel03192218223D

 29 32  0  0  0  0  0  0  0  0999 V2000
   24.2980    7.0950   30.5600 N   0  0  0  0  0  0  0  0  0  0  0  0
   24.7750    7.5180   29.4020 N   0  0  0  0  0  0  0  0  0  0  0  0
   24.8280    8.8430   29.3770 N   0  0  0  0  0  0  0  0  0  0  0  0
   24.3770    9.3260   30.5450 C   0  0  0  0  0  0  0  0  0  0  0  0
   24.0440    8.2170   31.2860 C   0  0  0  0  0  3  0  0  0  0  0  0
   24.0760    5.7130   31.0010 C   0  0  0  0  0  2  0  0  0  0  0  0
   22.6230    5.4100   30.7110 C   0  0  0  0  0  2  0  0  0  0  0  0
   21.7750    6.5260   31.1010 N   0  0  0  0  0  0  0  0  0  0  0  0
   20.8470    6.3220   32.1560 C   0  0  0  0  0  0  0  0  0  0  0  0
   20.7790    5.1830   32.7270 O   0  0  0  0  0  0  0  0  0  0  0  0
   21.8420    7.4480   30.6270 H   0  0  0  0  0  0  0  0  0  0  0  0
   19.9510    7.3680   32.6280 C   0  0  0  0  0  0  0  0  0  0  0  0
   18.6560    7.0680   32.9370 C   0  0  0  0  0  3  0  0  0  0  0  0
   17.7520    7.9610   33.3800 N   0  0  0  0  0  0  0  0  0  0  0  0
   18.1380    9.2490   33.5320 C   0  0  0  0  0  3  0  0  0  0  0  0
   19.4310    9.6200   33.2370 C   0  0  0  0  0  0  0  0  0  0  0  0
   19.9320   11.4480   33.4680 Br  0  0  0  0  0  0  0  0  0  0  0  0
   20.3550    8.6800   32.7800 C   0  0  0  0  0  3  0  0  0  0  0  0
   24.2620   10.7170   30.9440 C   0  0  0  0  0  0  0  0  0  0  0  0
   23.1500   11.4740   30.9430 N   0  0  0  0  0  0  0  0  0  0  0  0
   23.4510   12.7080   31.3810 C   0  0  0  0  0  0  0  0  0  0  0  0
   24.7670   12.6870   31.6480 N   0  0  0  0  0  0  0  0  0  0  0  0
   25.2140   11.4990   31.3800 O   0  0  0  0  0  0  0  0  0  0  0  0
   22.5270   13.8510   31.5360 C   0  0  0  0  0  0  0  0  0  0  0  0
   21.2730   13.7990   30.9720 C   0  0  0  0  0  3  0  0  0  0  0  0
   20.4230   14.8340   31.1070 N   0  0  0  0  0  0  0  0  0  0  0  0
   20.7350   15.9570   31.7840 C   0  0  0  0  0  3  0  0  0  0  0  0
   21.9950   16.0000   32.3480 C   0  0  0  0  0  3  0  0  0  0  0  0
   22.8910   14.9690   32.2350 C   0  0  0  0  0  3  0  0  0  0  0  0
  1  6  1  0  0  0  0
  1  5  1  0  0  0  0
  2  1  1  0  0  0  0
  3  2  2  0  0  0  0
  3  4  1  0  0  0  0
  4 19  1  0  0  0  0
  4  5  2  0  0  0  0
  7  6  1  0  0  0  0
  7  8  1  0  0  0  0
  8  9  1  0  0  0  0
  9 12  1  0  0  0  0
  9 10  2  0  0  0  0
 11  8  1  0  0  0  0
 12 18  2  0  0  0  0
 12 13  1  0  0  0  0
 13 14  2  0  0  0  0
 14 15  1  0  0  0  0
 16 17  1  0  0  0  0
 16 15  2  0  0  0  0
 18 16  1  0  0  0  0
 19 23  1  0  0  0  0
 20 19  2  0  0  0  0
 20 21  1  0  0  0  0
 21 24  1  0  0  0  0
 21 22  2  0  0  0  0
 23 22  1  0  0  0  0
 24 29  1  0  0  0  0
 25 26  1  0  0  0  0
 25 24  2  0  0  0  0
 26 27  2  0  0  0  0
 27 28  1  0  0  0  0
 29 28  2  0  0  0  0
M  END
>  <Pose>
1

>  <Score>
-8.913

$$$$
