/Users/jonathanwahrer/Desktop/Msc/3_Semester/Drug_Design_Praktikum/waehrer_HTS_screening/HTS_experiment/out/docking_results/vina_output/3elj/1477_docked.pdbqt
 OpenBabel03192218233D

 35 39  0  0  1  0  0  0  0  0999 V2000
   25.5370    5.2190   30.8200 C   0  0  2  0  0  3  0  0  0  0  0  0
   25.8070    4.1300   31.6520 N   0  0  0  0  0  0  0  0  0  0  0  0
   24.5190    3.5780   32.0630 C   0  0  0  0  0  0  0  0  0  0  0  0
   24.3080    2.5150   32.6990 O   0  0  0  0  0  0  0  0  0  0  0  0
   23.4470    4.4580   31.6250 C   0  0  0  0  0  0  0  0  0  0  0  0
   22.1970    4.2780   31.8090 O   0  0  0  0  0  0  0  0  0  0  0  0
   24.0820    5.5560   30.9460 C   0  0  2  0  0  3  0  0  0  0  0  0
   23.4690    6.6260   30.4840 C   0  0  2  0  0  3  0  0  0  0  0  0
   23.3230    6.6750   29.0770 O   0  0  0  0  0  1  0  0  0  0  0  0
   22.9520    7.7290   31.2720 C   0  0  0  0  0  0  0  0  0  0  0  0
   21.7670    7.9500   31.8620 N   0  0  0  0  0  0  0  0  0  0  0  0
   21.7040    9.1480   32.4620 C   0  0  0  0  0  0  0  0  0  0  0  0
   20.6910    7.1200   31.9210 C   0  0  0  0  0  3  0  0  0  0  0  0
   22.9060    9.7300   32.2510 N   0  0  0  0  0  0  0  0  0  0  0  0
   20.5810    9.5760   33.1440 C   0  0  0  0  0  3  0  0  0  0  0  0
   23.6820    8.9080   31.5410 C   0  0  0  0  0  0  0  0  0  0  0  0
   25.0610    9.1570   31.1000 C   0  0  0  0  0  1  0  0  0  0  0  0
   19.4920    8.7490   33.2090 C   0  0  0  0  0  3  0  0  0  0  0  0
   19.5570    7.5150   32.5920 C   0  0  0  0  0  3  0  0  0  0  0  0
   25.9990    5.3070   29.4490 C   0  0  0  0  0  0  0  0  0  0  0  0
   26.7390    6.4160   29.0190 C   0  0  0  0  0  3  0  0  0  0  0  0
   27.2280    6.4840   27.7320 C   0  0  0  0  0  0  0  0  0  0  0  0
   28.2330    7.9870   27.1560 Br  0  0  0  0  0  0  0  0  0  0  0  0
   27.0040    5.4650   26.8280 C   0  0  0  0  0  3  0  0  0  0  0  0
   26.2770    4.3540   27.2170 C   0  0  0  0  0  3  0  0  0  0  0  0
   25.8130    4.3260   28.4990 C   0  0  0  0  0  3  0  0  0  0  0  0
   27.0490    3.6540   32.1410 C   0  0  0  0  0  2  0  0  0  0  0  0
   28.2720    3.7560   31.3500 C   0  0  0  0  0  2  0  0  0  0  0  0
   29.1790    4.8510   31.5370 N   0  0  0  0  0  4  0  0  0  0  0  0
   29.9420    4.5600   32.7510 C   0  0  0  0  0  2  0  0  0  0  0  0
   31.1820    3.7700   32.4810 C   0  0  0  0  0  2  0  0  0  0  0  0
   31.1770    3.2570   31.1750 O   0  0  0  0  0  0  0  0  0  0  0  0
   31.2440    4.3570   30.3490 C   0  0  0  0  0  2  0  0  0  0  0  0
   29.9810    5.1350   30.3960 C   0  0  0  0  0  2  0  0  0  0  0  0
   28.6650    5.7450   31.7980 H   0  0  0  0  0  0  0  0  0  0  0  0
  1 20  1  6  0  0  0
  1  7  1  0  0  0  0
  1  2  1  0  0  0  0
  2  3  1  0  0  0  0
  2 27  1  0  0  0  0
  3  4  2  0  0  0  0
  5  6  2  0  0  0  0
  5  3  1  0  0  0  0
  7  8  1  6  0  0  0
  7  5  1  0  0  0  0
  8  9  1  6  0  0  0
  8 10  1  0  0  0  0
 10 16  2  0  0  0  0
 10 11  1  0  0  0  0
 11 13  1  0  0  0  0
 11 12  1  0  0  0  0
 12 15  1  0  0  0  0
 13 19  2  0  0  0  0
 14 12  2  0  0  0  0
 15 18  2  0  0  0  0
 16 14  1  0  0  0  0
 17 16  1  0  0  0  0
 19 18  1  0  0  0  0
 21 20  1  0  0  0  0
 22 21  2  0  0  0  0
 23 22  1  0  0  0  0
 24 25  2  0  0  0  0
 24 22  1  0  0  0  0
 25 26  1  0  0  0  0
 26 20  2  0  0  0  0
 28 29  1  0  0  0  0
 28 27  1  0  0  0  0
 29 35  1  0  0  0  0
 29 30  1  0  0  0  0
 31 30  1  0  0  0  0
 32 31  1  0  0  0  0
 33 34  1  0  0  0  0
 33 32  1  0  0  0  0
 34 29  1  0  0  0  0
M  END
>  <Pose>
1

>  <Score>
-7.936

$$$$
