/Users/jonathanwahrer/Desktop/Msc/3_Semester/Drug_Design_Praktikum/waehrer_HTS_screening/HTS_experiment/out/docking_results/vina_output/3elj/1487_docked.pdbqt
 OpenBabel03192218233D

 29 32  0  0  1  0  0  0  0  0999 V2000
   28.3990    5.8120   28.0990 N   0  0  0  0  0  4  0  0  0  0  0  0
   27.1170    6.4150   27.8310 C   0  0  0  0  0  2  0  0  0  0  0  0
   26.0250    5.6710   28.4770 C   0  0  2  0  0  0  0  0  0  0  0  0
   26.6970    4.5730   29.1110 N   0  0  0  0  0  0  0  0  0  0  0  0
   26.2400    3.2730   29.5450 C   0  0  0  0  0  3  0  0  0  0  0  0
   26.3920    3.0040   31.0080 C   0  0  0  0  0  3  0  0  0  0  0  0
   27.2010    4.0050   31.7570 C   0  0  0  0  0  2  0  0  0  0  0  0
   28.6890    3.7660   31.4160 C   0  0  0  0  0  2  0  0  0  0  0  0
   28.9300    4.6400   30.1980 C   0  0  0  0  0  3  0  0  0  0  0  0
   28.0910    4.9640   29.2410 C   0  0  0  0  0  0  0  0  0  0  0  0
   28.7900    5.2040   27.3880 H   0  0  0  0  0  0  0  0  0  0  0  0
   25.1840    5.1040   27.4790 O   0  0  0  0  0  0  0  0  0  0  0  0
   25.7680    5.0200   26.6550 H   0  0  0  0  0  0  0  0  0  0  0  0
   25.1390    6.4110   29.3430 C   0  0  0  0  0  0  0  0  0  0  0  0
   23.9290    5.9030   29.8170 C   0  0  0  0  0  3  0  0  0  0  0  0
   23.0910    6.6100   30.6690 C   0  0  0  0  0  0  0  0  0  0  0  0
   23.4760    7.8880   31.0740 C   0  0  0  0  0  3  0  0  0  0  0  0
   24.6520    8.4220   30.6330 C   0  0  0  0  0  3  0  0  0  0  0  0
   25.4720    7.6760   29.7710 C   0  0  0  0  0  3  0  0  0  0  0  0
   21.8790    6.0320   31.1100 N   0  0  0  0  0  0  0  0  0  0  0  0
   21.4790    4.9420   30.5950 O   0  0  0  0  0  0  0  0  0  0  0  0
   21.0990    6.5780   32.0600 O   0  0  0  0  0  0  0  0  0  0  0  0
   29.4060    6.7000   28.5640 C   0  0  0  0  0  0  0  0  0  0  0  0
   29.1440    7.9980   28.9270 C   0  0  0  0  0  3  0  0  0  0  0  0
   30.1510    8.8940   29.2770 C   0  0  0  0  0  0  0  0  0  0  0  0
   29.7560   10.5350   29.7660 Cl  0  0  0  0  0  0  0  0  0  0  0  0
   31.4700    8.4890   29.2660 C   0  0  0  0  0  3  0  0  0  0  0  0
   31.7740    7.2030   28.9060 C   0  0  0  0  0  3  0  0  0  0  0  0
   30.7540    6.3240   28.5600 C   0  0  0  0  0  3  0  0  0  0  0  0
  1 23  1  0  0  0  0
  1 10  1  0  0  0  0
  2  1  1  0  0  0  0
  2  3  1  0  0  0  0
  3 12  1  6  0  0  0
  3  4  1  0  0  0  0
  3 14  1  0  0  0  0
  4 10  1  0  0  0  0
  4  5  1  0  0  0  0
  5  6  2  0  0  0  0
  6  7  1  0  0  0  0
  8  7  1  0  0  0  0
  9  8  1  0  0  0  0
 10  9  2  0  0  0  0
 11  1  1  0  0  0  0
 13 12  1  0  0  0  0
 14 19  2  0  0  0  0
 14 15  1  0  0  0  0
 15 16  2  0  0  0  0
 16 17  1  0  0  0  0
 16 20  1  0  0  0  0
 18 17  2  0  0  0  0
 19 18  1  0  0  0  0
 20 22  2  0  0  0  0
 21 20  2  0  0  0  0
 23 24  1  0  0  0  0
 24 25  2  0  0  0  0
 25 26  1  0  0  0  0
 27 25  1  0  0  0  0
 28 27  2  0  0  0  0
 29 23  2  0  0  0  0
 29 28  1  0  0  0  0
M  END
>  <Pose>
1

>  <Score>
-6.088

$$$$
