/Users/jonathanwahrer/Desktop/Msc/3_Semester/Drug_Design_Praktikum/waehrer_HTS_screening/HTS_experiment/out/docking_results/vina_output/3elj/1491_docked.pdbqt
 OpenBabel03192218243D

 34 38  0  0  0  0  0  0  0  0999 V2000
   25.1700   11.6870   28.6140 F   0  0  0  0  0  0  0  0  0  0  0  0
   24.4220   12.6750   29.1380 C   0  0  0  0  0  0  0  0  0  0  0  0
   24.3830   13.8310   28.3640 C   0  0  0  0  0  3  0  0  0  0  0  0
   23.6490   14.9220   28.7740 C   0  0  0  0  0  0  0  0  0  0  0  0
   22.9610   14.8300   29.9610 C   0  0  0  0  0  0  0  0  0  0  0  0
   23.0110   13.6650   30.7190 C   0  0  0  0  0  3  0  0  0  0  0  0
   23.7380   12.5740   30.3240 C   0  0  0  0  0  0  0  0  0  0  0  0
   22.2480   15.9090   30.3410 N   0  0  0  0  0  0  0  0  0  0  0  0
   22.1960   17.0380   29.6100 C   0  0  0  0  0  3  0  0  0  0  0  0
   22.8740   17.1620   28.4180 C   0  0  0  0  0  0  0  0  0  0  0  0
   23.6140   16.0840   27.9920 C   0  0  0  0  0  0  0  0  0  0  0  0
   24.2540   16.1300   26.9150 O   0  0  0  0  0  0  0  0  0  0  0  0
   23.7720   11.4270   31.1170 N   0  0  0  0  0  4  0  0  0  0  0  0
   24.8160   10.4840   30.8070 C   0  0  0  0  0  2  0  0  0  0  0  0
   24.8220    9.3460   31.8540 C   0  0  0  0  0  2  0  0  0  0  0  0
   23.5820    8.6920   31.7080 N   0  0  0  0  0  0  0  0  0  0  0  0
   22.4580    9.5960   32.1710 C   0  0  0  0  0  2  0  0  0  0  0  0
   23.2160    7.4880   31.2080 C   0  0  0  0  0  0  0  0  0  0  0  0
   22.5280   10.7330   31.1980 C   0  0  0  0  0  2  0  0  0  0  0  0
   21.9410    7.1990   31.3160 O   0  0  0  0  0  0  0  0  0  0  0  0
   23.9840   11.7590   32.1080 H   0  0  0  0  0  0  0  0  0  0  0  0
   23.9810    6.4530   30.5710 C   0  0  0  0  0  0  0  0  0  0  0  0
   24.7590    6.6390   29.4740 C   0  0  0  0  0  3  0  0  0  0  0  0
   25.5260    5.6190   28.9250 C   0  0  0  0  0  0  0  0  0  0  0  0
   25.5010    4.3770   29.5040 C   0  0  0  0  0  3  0  0  0  0  0  0
   26.5240    5.9100   27.4990 Cl  0  0  0  0  0  0  0  0  0  0  0  0
   24.7340    4.1350   30.6090 C   0  0  0  0  0  3  0  0  0  0  0  0
   23.9940    5.1560   31.1250 C   0  0  0  0  0  3  0  0  0  0  0  0
   21.5210   15.7930   31.6100 C   0  0  0  0  0  3  0  0  0  0  0  0
   20.7280   14.5990   31.9200 C   0  0  0  0  0  2  0  0  0  0  0  0
   19.9660   15.7510   31.4360 C   0  0  0  0  0  2  0  0  0  0  0  0
   22.8060   18.4070   27.6290 C   0  0  0  0  0  0  0  0  0  0  0  0
   21.7370   18.9950   27.4020 O   0  0  0  0  0  1  0  0  0  0  0  0
   23.9820   18.9240   27.1360 O   0  0  0  0  0  0  0  0  0  0  0  0
  1  2  1  0  0  0  0
  2  7  1  0  0  0  0
  3  4  1  0  0  0  0
  3  2  2  0  0  0  0
  4  5  2  0  0  0  0
  5  8  1  0  0  0  0
  5  6  1  0  0  0  0
  7  6  2  0  0  0  0
  7 13  1  0  0  0  0
  8 29  1  0  0  0  0
  9  8  1  0  0  0  0
 10  9  2  0  0  0  0
 11 10  1  0  0  0  0
 11  4  1  0  0  0  0
 12 11  2  0  0  0  0
 13 19  1  0  0  0  0
 13 21  1  0  0  0  0
 14 13  1  0  0  0  0
 14 15  1  0  0  0  0
 16 15  1  0  0  0  0
 16 17  1  0  0  0  0
 18 20  2  0  0  0  0
 18 16  1  0  0  0  0
 19 17  1  0  0  0  0
 22 28  1  0  0  0  0
 22 18  1  0  0  0  0
 23 22  2  0  0  0  0
 24 23  1  0  0  0  0
 24 25  2  0  0  0  0
 25 27  1  0  0  0  0
 26 24  1  0  0  0  0
 27 28  2  0  0  0  0
 29 30  1  0  0  0  0
 31 29  1  0  0  0  0
 31 30  1  0  0  0  0
 32 10  1  0  0  0  0
 33 32  1  0  0  0  0
 34 32  2  0  0  0  0
M  END
>  <Pose>
1

>  <Score>
-10.227

$$$$
