/Users/jonathanwahrer/Desktop/Msc/3_Semester/Drug_Design_Praktikum/waehrer_HTS_screening/HTS_experiment/out/docking_results/vina_output/3elj/1506_docked.pdbqt
 OpenBabel03192218243D

 32 35  0  0  1  0  0  0  0  0999 V2000
   25.7310    8.4750   30.3020 N   0  0  0  0  0  0  0  0  0  0  0  0
   24.9810    9.6670   29.9910 C   0  0  0  0  0  0  0  0  0  0  0  0
   24.1710    9.6420   29.0520 O   0  0  0  0  0  0  0  0  0  0  0  0
   26.3540    8.5590   31.1010 H   0  0  0  0  0  0  0  0  0  0  0  0
   25.1570   10.9170   30.7670 C   0  0  2  0  0  3  0  0  0  0  0  0
   24.3260   10.8080   32.0260 C   0  0  0  0  0  2  0  0  0  0  0  0
   22.8750   10.9120   31.6140 C   0  0  0  0  0  2  0  0  0  0  0  0
   22.6820   12.2990   31.2020 N   0  0  0  0  0  0  0  0  0  0  0  0
   23.7300   12.9960   30.5370 C   0  0  0  0  0  2  0  0  0  0  0  0
   24.8250   12.1460   30.0040 C   0  0  0  0  0  2  0  0  0  0  0  0
   21.4330   12.8970   31.4880 C   0  0  0  0  0  0  0  0  0  0  0  0
   20.9850   13.9970   30.8540 N   0  0  0  0  0  0  0  0  0  0  0  0
   19.8240   14.5690   31.1110 N   0  0  0  0  0  0  0  0  0  0  0  0
   19.2270   15.6380   30.5960 N   0  0  0  0  0  0  0  0  0  0  0  0
   18.9820   14.0950   32.0360 C   0  0  0  0  0  0  0  0  0  0  0  0
   18.0670   15.8350   31.1630 N   0  0  0  0  0  0  0  0  0  0  0  0
   17.8910   14.8900   32.0620 N   0  0  0  0  0  0  0  0  0  0  0  0
   19.3850   12.9650   32.7250 C   0  0  0  0  0  3  0  0  0  0  0  0
   20.5990   12.3660   32.4570 C   0  0  0  0  0  3  0  0  0  0  0  0
   25.4900    7.3360   29.5070 C   0  0  0  0  0  2  0  0  0  0  0  0
   24.4710    6.3360   29.8620 C   0  0  0  0  0  2  0  0  0  0  0  0
   23.3110    6.7630   30.5480 N   0  0  0  0  0  0  0  0  0  0  0  0
   22.2500    6.0520   31.0880 C   0  0  0  0  0  0  0  0  0  0  0  0
   22.1950    4.8050   31.0370 O   0  0  0  0  0  0  0  0  0  0  0  0
   23.1900    7.8580   30.6920 H   0  0  0  0  0  0  0  0  0  0  0  0
   21.1080    6.7150   31.7620 C   0  0  0  0  0  0  0  0  0  0  0  0
   21.0830    8.0880   31.8690 C   0  0  0  0  0  3  0  0  0  0  0  0
   20.0410    8.7470   32.4780 C   0  0  0  0  0  3  0  0  0  0  0  0
   18.9870    8.0160   33.0000 C   0  0  0  0  0  0  0  0  0  0  0  0
   17.6520    8.8470   33.7810 Cl  0  0  0  0  0  0  0  0  0  0  0  0
   18.9800    6.6490   32.9100 C   0  0  0  0  0  3  0  0  0  0  0  0
   20.0550    6.0120   32.2840 C   0  0  0  0  0  3  0  0  0  0  0  0
  1  4  1  0  0  0  0
  2  1  1  0  0  0  0
  3  2  2  0  0  0  0
  5  2  1  6  0  0  0
  5  6  1  0  0  0  0
  7  6  1  0  0  0  0
  8 11  1  0  0  0  0
  8  7  1  0  0  0  0
  9  8  1  0  0  0  0
 10  9  1  0  0  0  0
 10  5  1  0  0  0  0
 11 19  1  0  0  0  0
 12 13  1  0  0  0  0
 12 11  2  0  0  0  0
 13 15  1  0  0  0  0
 14 13  1  0  0  0  0
 14 16  2  0  0  0  0
 15 17  2  0  0  0  0
 15 18  1  0  0  0  0
 16 17  1  0  0  0  0
 19 18  2  0  0  0  0
 20 21  1  0  0  0  0
 20  1  1  0  0  0  0
 21 22  1  0  0  0  0
 22 25  1  0  0  0  0
 22 23  1  0  0  0  0
 23 26  1  0  0  0  0
 24 23  2  0  0  0  0
 26 27  2  0  0  0  0
 26 32  1  0  0  0  0
 27 28  1  0  0  0  0
 28 29  2  0  0  0  0
 29 30  1  0  0  0  0
 31 29  1  0  0  0  0
 32 31  2  0  0  0  0
M  END
>  <Pose>
1

>  <Score>
-10.035

$$$$
