/Users/jonathanwahrer/Desktop/Msc/3_Semester/Drug_Design_Praktikum/waehrer_HTS_screening/HTS_experiment/out/docking_results/vina_output/3elj/1523_docked.pdbqt
 OpenBabel03192218253D

 25 28  0  0  0  0  0  0  0  0999 V2000
   25.2790    7.7270   29.7750 C   0  0  0  0  0  0  0  0  0  0  0  0
   26.0160    8.4670   29.0340 O   0  0  0  0  0  0  0  0  0  0  0  0
   25.2930    6.3390   29.6290 N   0  0  0  0  0  0  0  0  0  0  0  0
   26.1370    5.7370   28.6340 C   0  0  0  0  0  2  0  0  0  0  0  0
   27.2030    4.9410   29.3340 C   0  0  0  0  0  2  0  0  0  0  0  0
   26.6100    4.1720   30.3910 N   0  0  0  0  0  0  0  0  0  0  0  0
   25.1430    4.0280   30.3250 C   0  0  0  0  0  2  0  0  0  0  0  0
   24.5080    5.4100   30.4100 C   0  0  0  0  0  2  0  0  0  0  0  0
   27.2520    3.5580   31.4660 C   0  0  0  0  0  0  0  0  0  0  0  0
   26.4710    2.8900   32.2600 O   0  0  0  0  0  0  0  0  0  0  0  0
   24.4470    8.4560   30.7600 C   0  0  0  0  0  0  0  0  0  0  0  0
   24.8610    9.3130   31.7050 N   0  0  0  0  0  0  0  0  0  0  0  0
   23.8200    9.7500   32.3780 N   0  0  0  0  0  0  0  0  0  0  0  0
   22.6940    9.2020   31.9080 N   0  0  0  0  0  0  0  0  0  0  0  0
   23.0810    8.3990   30.9030 C   0  0  0  0  0  3  0  0  0  0  0  0
   21.3840    9.4430   32.3910 C   0  0  0  0  0  0  0  0  0  0  0  0
   20.4410    8.4440   32.3810 C   0  0  0  0  0  3  0  0  0  0  0  0
   19.1500    8.7010   32.8630 C   0  0  0  0  0  0  0  0  0  0  0  0
   17.8300    7.3260   32.8560 Br  0  0  0  0  0  0  0  0  0  0  0  0
   18.8150    9.9380   33.3450 C   0  0  0  0  0  3  0  0  0  0  0  0
   19.7500   10.9440   33.3590 C   0  0  0  0  0  3  0  0  0  0  0  0
   21.0370   10.6770   32.8760 C   0  0  0  0  0  3  0  0  0  0  0  0
   28.6600    3.5420   31.8440 C   0  0  0  0  0  3  0  0  0  0  0  0
   29.1900    4.1140   33.0820 C   0  0  0  0  0  2  0  0  0  0  0  0
   29.2510    2.6090   32.8340 C   0  0  0  0  0  2  0  0  0  0  0  0
  1 11  1  0  0  0  0
  2  1  2  0  0  0  0
  3  1  1  0  0  0  0
  3  8  1  0  0  0  0
  4  5  1  0  0  0  0
  4  3  1  0  0  0  0
  5  6  1  0  0  0  0
  6  9  1  0  0  0  0
  7  6  1  0  0  0  0
  7  8  1  0  0  0  0
  9 23  1  0  0  0  0
  9 10  2  0  0  0  0
 11 15  2  0  0  0  0
 11 12  1  0  0  0  0
 12 13  2  0  0  0  0
 14 13  1  0  0  0  0
 14 16  1  0  0  0  0
 15 14  1  0  0  0  0
 16 22  1  0  0  0  0
 17 16  2  0  0  0  0
 17 18  1  0  0  0  0
 18 20  2  0  0  0  0
 19 18  1  0  0  0  0
 20 21  1  0  0  0  0
 22 21  2  0  0  0  0
 23 25  1  0  0  0  0
 23 24  1  0  0  0  0
 25 24  1  0  0  0  0
M  END
>  <Pose>
1

>  <Score>
-7.822

$$$$
