/Users/jonathanwahrer/Desktop/Msc/3_Semester/Drug_Design_Praktikum/waehrer_HTS_screening/HTS_experiment/out/docking_results/vina_output/3elj/1525_docked.pdbqt
 OpenBabel03192218253D

 26 29  0  0  1  0  0  0  0  0999 V2000
   22.8770   10.3620   31.4790 N   0  0  0  0  0  0  0  0  0  0  0  0
   22.4560   11.3570   30.5540 C   0  0  0  0  0  0  0  0  0  0  0  0
   21.6330   11.1390   29.6320 O   0  0  0  0  0  0  0  0  0  0  0  0
   23.1560   12.5860   30.9080 C   0  0  2  0  0  3  0  0  0  0  0  0
   24.4510   12.0820   31.5100 C   0  0  0  0  0  2  0  0  0  0  0  0
   24.1430   10.7390   32.0350 C   0  0  0  0  0  0  0  0  0  0  0  0
   24.8410   10.0410   32.8180 O   0  0  0  0  0  0  0  0  0  0  0  0
   22.4700   13.4840   31.7480 N   0  0  2  0  0  0  0  0  0  0  0  0
   21.0870   13.6500   31.5530 C   0  0  0  0  0  2  0  0  0  0  0  0
   20.8610   14.8970   30.6860 C   0  0  0  0  0  2  0  0  0  0  0  0
   22.0610   15.7180   30.6840 N   0  0  0  0  0  0  0  0  0  0  0  0
   22.9090   15.8420   31.8540 C   0  0  0  0  0  2  0  0  0  0  0  0
   23.1550   14.4760   32.4500 C   0  0  0  0  0  2  0  0  0  0  0  0
   22.4670   16.4280   29.5060 C   0  0  0  0  0  0  0  0  0  0  0  0
   23.2560   15.8430   28.5800 N   0  0  0  0  0  0  0  0  0  0  0  0
   23.6200   16.5100   27.4670 C   0  0  0  0  0  3  0  0  0  0  0  0
   23.2000   17.8140   27.2310 C   0  0  0  0  0  3  0  0  0  0  0  0
   22.3910   18.4060   28.1850 C   0  0  0  0  0  3  0  0  0  0  0  0
   22.0620   17.6890   29.2740 N   0  0  0  0  0  0  0  0  0  0  0  0
   22.1270    9.1870   31.7900 C   0  0  0  0  0  0  0  0  0  0  0  0
   22.4440    7.9370   31.3030 C   0  0  0  0  0  3  0  0  0  0  0  0
   21.6820    6.8200   31.6370 C   0  0  0  0  0  0  0  0  0  0  0  0
   22.1110    5.0900   30.9700 Br  0  0  0  0  0  0  0  0  0  0  0  0
   20.5890    6.9390   32.4670 C   0  0  0  0  0  3  0  0  0  0  0  0
   20.2550    8.1760   32.9630 C   0  0  0  0  0  3  0  0  0  0  0  0
   21.0160    9.2610   32.6240 C   0  0  0  0  0  3  0  0  0  0  0  0
  1 20  1  0  0  0  0
  1  6  1  0  0  0  0
  2  4  1  0  0  0  0
  2  1  1  0  0  0  0
  3  2  2  0  0  0  0
  4  5  1  1  0  0  0
  4  8  1  0  0  0  0
  5  6  1  0  0  0  0
  6  7  2  0  0  0  0
  8  9  1  6  0  0  0
  8 13  1  0  0  0  0
 10  9  1  0  0  0  0
 11 10  1  0  0  0  0
 11 12  1  0  0  0  0
 12 13  1  0  0  0  0
 14 11  1  0  0  0  0
 15 14  2  0  0  0  0
 16 15  1  0  0  0  0
 17 16  2  0  0  0  0
 17 18  1  0  0  0  0
 18 19  2  0  0  0  0
 19 14  1  0  0  0  0
 20 26  1  0  0  0  0
 21 22  1  0  0  0  0
 21 20  2  0  0  0  0
 22 24  2  0  0  0  0
 23 22  1  0  0  0  0
 24 25  1  0  0  0  0
 26 25  2  0  0  0  0
M  END
>  <Pose>
1

>  <Score>
-8.327

$$$$
