/Users/jonathanwahrer/Desktop/Msc/3_Semester/Drug_Design_Praktikum/waehrer_HTS_screening/HTS_experiment/out/docking_results/vina_output/3elj/1533_docked.pdbqt
 OpenBabel03192218263D

 28 31  0  0  1  0  0  0  0  0999 V2000
   22.0480    8.9570   31.7200 C   0  0  0  0  0  0  0  0  0  0  0  0
   21.0790    8.0880   32.1090 N   0  0  0  0  0  0  0  0  0  0  0  0
   20.0950    8.7630   32.7120 C   0  0  2  0  0  3  0  0  0  0  0  0
   20.3900   10.0990   32.7330 N   0  0  0  0  0  0  0  0  0  0  0  0
   21.5830   10.2000   32.1250 C   0  0  0  0  0  3  0  0  0  0  0  0
   19.0220    7.8480   33.1630 C   0  0  0  0  0  2  0  0  0  0  0  0
   19.2480    6.6570   32.2740 C   0  0  0  0  0  2  0  0  0  0  0  0
   20.7470    6.6630   32.0820 C   0  0  0  0  0  2  0  0  0  0  0  0
   19.6080   11.1430   33.3290 C   0  0  0  0  0  3  0  0  0  0  0  0
   19.8240   12.5340   33.0370 C   0  0  0  0  0  0  0  0  0  0  0  0
   18.9860   13.3390   33.6850 O   0  0  0  0  0  1  0  0  0  0  0  0
   20.7480   13.2520   32.1970 C   0  0  0  0  0  0  0  0  0  0  0  0
   21.2090   14.5280   32.5930 C   0  0  0  0  0  3  0  0  0  0  0  0
   22.0880   15.2850   31.8630 C   0  0  0  0  0  0  0  0  0  0  0  0
   22.5330   14.7420   30.6750 C   0  0  0  0  0  3  0  0  0  0  0  0
   22.1000   13.5000   30.2680 C   0  0  0  0  0  3  0  0  0  0  0  0
   21.2030   12.7340   31.0150 C   0  0  0  0  0  3  0  0  0  0  0  0
   22.5360   16.5620   32.2780 N   0  0  0  0  0  0  0  0  0  0  0  0
   23.2420   16.6570   33.2880 O   0  0  0  0  0  0  0  0  0  0  0  0
   22.2120   17.6960   31.5920 O   0  0  0  0  0  0  0  0  0  0  0  0
   23.3130    8.7150   31.0280 C   0  0  0  0  0  0  0  0  0  0  0  0
   24.2900    9.6840   31.0850 C   0  0  0  0  0  3  0  0  0  0  0  0
   25.5280    9.5100   30.4600 C   0  0  0  0  0  3  0  0  0  0  0  0
   25.7720    8.3440   29.7730 C   0  0  0  0  0  0  0  0  0  0  0  0
   24.8080    7.3810   29.7110 C   0  0  0  0  0  0  0  0  0  0  0  0
   27.3410    8.1450   28.9910 Cl  0  0  0  0  0  0  0  0  0  0  0  0
   25.1530    5.9100   28.8280 Cl  0  0  0  0  0  0  0  0  0  0  0  0
   23.5810    7.5680   30.3390 C   0  0  0  0  0  3  0  0  0  0  0  0
  1  2  1  0  0  0  0
  1  5  2  0  0  0  0
  2  3  1  0  0  0  0
  3  4  1  0  0  0  0
  3  6  1  1  0  0  0
  4  9  1  0  0  0  0
  5  4  1  0  0  0  0
  7  6  1  0  0  0  0
  8  2  1  0  0  0  0
  8  7  1  0  0  0  0
 10  9  2  0  0  0  0
 10 11  1  0  0  0  0
 12 13  1  0  0  0  0
 12 10  1  0  0  0  0
 14 18  1  0  0  0  0
 14 13  2  0  0  0  0
 15 14  1  0  0  0  0
 16 15  2  0  0  0  0
 16 17  1  0  0  0  0
 17 12  2  0  0  0  0
 18 19  2  0  0  0  0
 20 18  2  0  0  0  0
 21 22  1  0  0  0  0
 21  1  1  0  0  0  0
 23 22  2  0  0  0  0
 24 23  1  0  0  0  0
 25 24  2  0  0  0  0
 25 28  1  0  0  0  0
 26 24  1  0  0  0  0
 27 25  1  0  0  0  0
 28 21  2  0  0  0  0
M  END
>  <Pose>
1

>  <Score>
-10.282

$$$$
