/Users/jonathanwahrer/Desktop/Msc/3_Semester/Drug_Design_Praktikum/waehrer_HTS_screening/HTS_experiment/out/docking_results/vina_output/3elj/1535_docked.pdbqt
 OpenBabel03192218263D

 28 31  0  0  1  0  0  0  0  0999 V2000
   21.0060    8.4200   32.0960 C   0  0  0  0  0  0  0  0  0  0  0  0
   19.7820    8.0820   32.5320 N   0  0  0  0  0  0  0  0  0  0  0  0
   19.2210    9.1360   33.1600 C   0  0  2  0  0  3  0  0  0  0  0  0
   20.0970   10.1560   33.1230 N   0  0  0  0  0  0  0  0  0  0  0  0
   21.2230    9.7560   32.4690 C   0  0  0  0  0  3  0  0  0  0  0  0
   17.8730    8.7720   33.6560 C   0  0  0  0  0  2  0  0  0  0  0  0
   17.4950    7.7380   32.6270 C   0  0  0  0  0  2  0  0  0  0  0  0
   18.8260    6.9690   32.5560 C   0  0  0  0  0  2  0  0  0  0  0  0
   19.9120   11.4350   33.7040 C   0  0  0  0  0  2  0  0  0  0  0  0
   19.7980   12.6430   32.9380 C   0  0  2  0  0  3  0  0  0  0  0  0
   18.5610   13.0970   32.9210 O   0  0  0  0  0  1  0  0  0  0  0  0
   20.7560   13.4330   32.2010 C   0  0  0  0  0  0  0  0  0  0  0  0
   21.2000   14.6750   32.5670 C   0  0  0  0  0  3  0  0  0  0  0  0
   22.1320   15.3820   31.8020 C   0  0  0  0  0  0  0  0  0  0  0  0
   22.6260   14.8420   30.6580 C   0  0  0  0  0  3  0  0  0  0  0  0
   22.1970   13.5930   30.2660 C   0  0  0  0  0  3  0  0  0  0  0  0
   21.2850   12.8920   31.0070 C   0  0  0  0  0  3  0  0  0  0  0  0
   22.5550   16.6740   32.2390 N   0  0  0  0  0  0  0  0  0  0  0  0
   23.2480   16.7750   33.2660 O   0  0  0  0  0  0  0  0  0  0  0  0
   22.2210   17.8050   31.5660 O   0  0  0  0  0  0  0  0  0  0  0  0
   22.0070    7.6400   31.3660 C   0  0  0  0  0  0  0  0  0  0  0  0
   22.7230    8.2200   30.3140 C   0  0  0  0  0  3  0  0  0  0  0  0
   23.6830    7.5430   29.6100 C   0  0  0  0  0  3  0  0  0  0  0  0
   23.9860    6.2380   29.9150 C   0  0  0  0  0  0  0  0  0  0  0  0
   23.3040    5.6390   30.9400 C   0  0  0  0  0  0  0  0  0  0  0  0
   25.2130    5.3820   29.0080 Cl  0  0  0  0  0  0  0  0  0  0  0  0
   23.6330    3.9940   31.3830 Cl  0  0  0  0  0  0  0  0  0  0  0  0
   22.3210    6.3530   31.6530 C   0  0  0  0  0  3  0  0  0  0  0  0
  1  5  2  0  0  0  0
  1  2  1  0  0  0  0
  2  8  1  0  0  0  0
  2  3  1  0  0  0  0
  3  6  1  1  0  0  0
  4  3  1  0  0  0  0
  4  9  1  0  0  0  0
  5  4  1  0  0  0  0
  7  6  1  0  0  0  0
  8  7  1  0  0  0  0
 10 11  1  6  0  0  0
 10  9  1  0  0  0  0
 12 13  1  0  0  0  0
 12 10  1  0  0  0  0
 14 18  1  0  0  0  0
 14 13  2  0  0  0  0
 15 14  1  0  0  0  0
 16 15  2  0  0  0  0
 16 17  1  0  0  0  0
 17 12  2  0  0  0  0
 18 19  2  0  0  0  0
 20 18  2  0  0  0  0
 21 28  1  0  0  0  0
 21  1  1  0  0  0  0
 22 21  2  0  0  0  0
 23 24  2  0  0  0  0
 23 22  1  0  0  0  0
 24 25  1  0  0  0  0
 25 27  1  0  0  0  0
 25 28  2  0  0  0  0
 26 24  1  0  0  0  0
M  END
>  <Pose>
1

>  <Score>
-10.671

$$$$
