/Users/jonathanwahrer/Desktop/Msc/3_Semester/Drug_Design_Praktikum/waehrer_HTS_screening/HTS_experiment/out/docking_results/vina_output/3elj/1548_docked.pdbqt
 OpenBabel03192218273D

 24 27  0  0  1  0  0  0  0  0999 V2000
   21.3010   14.0780   32.5060 Cl  0  0  0  0  0  0  0  0  0  0  0  0
   21.0200   12.3430   32.5350 C   0  0  0  0  0  0  0  0  0  0  0  0
   21.7420   11.4700   31.7500 C   0  0  0  0  0  2  0  0  0  0  0  0
   21.5210   10.1220   31.7740 N   0  0  0  0  0  0  0  0  0  0  0  0
   20.5820    9.5800   32.5710 C   0  0  0  0  0  0  0  0  0  0  0  0
   20.3610    8.2420   32.5970 N   0  0  0  0  0  0  0  0  0  0  0  0
   21.0720    7.3920   31.8250 C   0  0  0  0  0  0  0  0  0  0  0  0
   22.0320    7.9090   31.0050 C   0  0  2  0  0  3  0  0  0  0  0  0
   22.8510    7.0110   30.1280 C   0  0  0  0  0  2  0  0  0  0  0  0
   22.8770    5.7170   30.8320 N   0  0  0  0  0  0  0  0  0  0  0  0
   21.5830    5.1200   30.9990 C   0  0  0  0  0  2  0  0  0  0  0  0
   20.7330    5.9490   31.9460 C   0  0  0  0  0  2  0  0  0  0  0  0
   24.1130    5.2290   31.2470 C   0  0  0  0  0  0  0  0  0  0  0  0
   25.1600    5.9190   30.9920 O   0  0  0  0  0  0  0  0  0  0  0  0
   22.2330    9.2820   31.0030 C   0  0  0  0  0  0  0  0  0  0  0  0
   23.1080    9.7630   30.2560 O   0  0  0  0  0  0  0  0  0  0  0  0
   19.8520   10.4510   33.3640 C   0  0  0  0  0  3  0  0  0  0  0  0
   20.0520   11.8150   33.3610 C   0  0  0  0  0  3  0  0  0  0  0  0
   24.3410    3.9700   31.9650 C   0  0  0  0  0  0  0  0  0  0  0  0
   23.5400    3.5510   32.9490 N   0  0  0  0  0  0  0  0  0  0  0  0
   23.7560    2.4030   33.5980 C   0  0  0  0  0  3  0  0  0  0  0  0
   24.8200    1.5820   33.2880 C   0  0  0  0  0  3  0  0  0  0  0  0
   25.6150    2.0190   32.2960 N   0  0  0  0  0  0  0  0  0  0  0  0
   25.4220    3.1600   31.6340 C   0  0  0  0  0  3  0  0  0  0  0  0
  1  2  1  0  0  0  0
  2 18  2  0  0  0  0
  3  4  1  0  0  0  0
  3  2  1  0  0  0  0
  4  5  1  0  0  0  0
  5  6  1  0  0  0  0
  5 17  2  0  0  0  0
  7 12  1  0  0  0  0
  7  6  2  0  0  0  0
  8  9  1  1  0  0  0
  8  7  1  0  0  0  0
  9 10  1  0  0  0  0
 10 11  1  0  0  0  0
 10 13  1  0  0  0  0
 11 12  1  0  0  0  0
 13 19  1  0  0  0  0
 14 13  2  0  0  0  0
 15  8  1  0  0  0  0
 15  4  1  0  0  0  0
 16 15  2  0  0  0  0
 18 17  1  0  0  0  0
 19 20  1  0  0  0  0
 20 21  2  0  0  0  0
 22 21  1  0  0  0  0
 23 22  2  0  0  0  0
 24 19  2  0  0  0  0
 24 23  1  0  0  0  0
M  END
>  <Pose>
1

>  <Score>
-9.007

$$$$
