/Users/jonathanwahrer/Desktop/Msc/3_Semester/Drug_Design_Praktikum/waehrer_HTS_screening/HTS_experiment/out/docking_results/vina_output/3elj/1571_docked.pdbqt
 OpenBabel03192218273D

 28 31  0  0  1  0  0  0  0  0999 V2000
   21.0140    7.5880   32.0310 O   0  0  0  0  0  0  0  0  0  0  0  0
   20.3740    8.3270   33.0330 C   0  0  0  0  0  2  0  0  0  0  0  0
   20.5140    9.7910   32.8460 C   0  0  0  0  0  0  0  0  0  0  0  0
   21.5270   10.3520   32.1570 N   0  0  0  0  0  0  0  0  0  0  0  0
   21.6290   11.6750   32.0040 C   0  0  0  0  0  0  0  0  0  0  0  0
   20.7330   12.5530   32.5220 N   0  0  0  0  0  0  0  0  0  0  0  0
   22.7070   12.1770   31.2780 C   0  0  0  0  0  3  0  0  0  0  0  0
   20.8800   13.8730   32.3380 C   0  0  0  0  0  3  0  0  0  0  0  0
   19.7000   12.0190   33.2220 C   0  0  0  0  0  0  0  0  0  0  0  0
   21.9300   14.4060   31.6290 C   0  0  0  0  0  0  0  0  0  0  0  0
   22.1010   16.3110   31.3900 Br  0  0  0  0  0  0  0  0  0  0  0  0
   22.8470   13.5370   31.0970 C   0  0  0  0  0  3  0  0  0  0  0  0
   19.5830   10.6530   33.3870 C   0  0  0  0  0  3  0  0  0  0  0  0
   18.8700   12.8420   33.6990 O   0  0  0  0  0  0  0  0  0  0  0  0
   20.9070    6.2280   31.8480 C   0  0  0  0  0  0  0  0  0  0  0  0
   20.2760    5.5990   32.7440 O   0  0  0  0  0  0  0  0  0  0  0  0
   21.4910    5.5250   30.6740 C   0  0  0  0  0  2  0  0  0  0  0  0
   22.9530    5.5820   30.6880 N   0  0  0  0  0  0  0  0  0  0  0  0
   23.8480    4.6780   31.3310 C   0  0  0  0  0  0  0  0  0  0  0  0
   23.5450    3.5750   31.8490 O   0  0  0  0  0  0  0  0  0  0  0  0
   25.2050    5.2710   31.2810 C   0  0  2  0  0  3  0  0  0  0  0  0
   25.1210    6.0360   29.9800 C   0  0  1  0  0  3  0  0  0  0  0  0
   26.3090    4.2990   31.3630 C   0  0  0  0  0  2  0  0  0  0  0  0
   25.2260    5.1400   28.7620 C   0  0  0  0  0  2  0  0  0  0  0  0
   23.7440    6.5750   30.0570 C   0  0  0  0  0  0  0  0  0  0  0  0
   25.5710    3.7150   29.1040 C   0  0  0  0  0  2  0  0  0  0  0  0
   26.7080    3.6530   30.0840 C   0  0  0  0  0  2  0  0  0  0  0  0
   23.3270    7.7020   29.6450 O   0  0  0  0  0  0  0  0  0  0  0  0
  1  2  1  0  0  0  0
  3  2  1  0  0  0  0
  3 13  2  0  0  0  0
  4  3  1  0  0  0  0
  5  4  2  0  0  0  0
  5  6  1  0  0  0  0
  6  9  1  0  0  0  0
  7  5  1  0  0  0  0
  8  6  1  0  0  0  0
  9 13  1  0  0  0  0
  9 14  2  0  0  0  0
 10  8  2  0  0  0  0
 11 10  1  0  0  0  0
 12  7  2  0  0  0  0
 12 10  1  0  0  0  0
 15  1  1  0  0  0  0
 15 16  2  0  0  0  0
 17 18  1  0  0  0  0
 17 15  1  0  0  0  0
 18 19  1  0  0  0  0
 19 20  2  0  0  0  0
 21 19  1  0  0  0  0
 21 23  1  6  0  0  0
 22 24  1  6  0  0  0
 22 25  1  0  0  0  0
 22 21  1  0  0  0  0
 24 26  1  0  0  0  0
 25 18  1  0  0  0  0
 26 27  1  0  0  0  0
 27 23  1  0  0  0  0
 28 25  2  0  0  0  0
M  END
>  <Pose>
1

>  <Score>
-8.810

$$$$
