/Users/jonathanwahrer/Desktop/Msc/3_Semester/Drug_Design_Praktikum/waehrer_HTS_screening/HTS_experiment/out/docking_results/vina_output/3elj/1576_docked.pdbqt
 OpenBabel03192218273D

 30 33  0  0  0  0  0  0  0  0999 V2000
   22.6810   11.1860   31.0240 N   0  0  0  0  0  0  0  0  0  0  0  0
   24.0620   11.0170   31.4230 C   0  0  0  0  0  2  0  0  0  0  0  0
   24.7610   10.1430   30.3860 C   0  0  0  0  0  2  0  0  0  0  0  0
   23.8720    9.0650   29.9840 N   0  0  0  0  0  0  0  0  0  0  0  0
   22.5790    9.4070   29.4390 C   0  0  0  0  0  2  0  0  0  0  0  0
   22.3760   10.8930   29.6150 C   0  0  0  0  0  2  0  0  0  0  0  0
   24.2470    7.6980   30.1140 C   0  0  0  0  0  0  0  0  0  0  0  0
   25.3930    7.4340   30.5930 O   0  0  0  0  0  0  0  0  0  0  0  0
   23.3900    6.5710   29.7290 C   0  0  0  0  0  2  0  0  0  0  0  0
   23.4640    5.4420   30.6540 N   0  0  0  0  0  0  0  0  0  0  0  0
   24.4590    4.6070   30.8780 N   0  0  0  0  0  0  0  0  0  0  0  0
   24.1700    3.6890   31.8030 C   0  0  0  0  0  0  0  0  0  0  0  0
   22.8760    3.9510   32.2150 C   0  0  0  0  0  3  0  0  0  0  0  0
   22.4620    5.0440   31.4870 C   0  0  0  0  0  0  0  0  0  0  0  0
   21.1320    5.6780   31.5990 C   0  0  0  0  0  1  0  0  0  0  0  0
   25.0530    2.6140   32.2890 C   0  0  0  0  0  0  0  0  0  0  0  0
   24.5680    1.5390   32.6940 O   0  0  0  0  0  0  0  0  0  0  0  0
   26.4500    2.8230   32.2840 N   0  0  0  0  0  0  0  0  0  0  0  0
   27.0780    4.0330   31.8320 C   0  0  0  0  0  2  0  0  0  0  0  0
   27.3390    1.7610   32.7630 C   0  0  0  0  0  2  0  0  0  0  0  0
   28.5730    3.8830   32.1410 C   0  0  0  0  0  2  0  0  0  0  0  0
   28.7770    3.5580   33.4640 O   0  0  0  0  0  0  0  0  0  0  0  0
   28.2220    2.3570   33.8390 C   0  0  0  0  0  2  0  0  0  0  0  0
   21.6340   11.5950   31.8520 C   0  0  0  0  0  0  0  0  0  0  0  0
   20.9180   10.7580   32.6810 C   0  0  0  0  0  0  0  0  0  0  0  0
   21.3200    9.0790   32.7170 Cl  0  0  0  0  0  0  0  0  0  0  0  0
   19.8880   11.2030   33.4870 C   0  0  0  0  0  3  0  0  0  0  0  0
   19.5460   12.5190   33.4800 C   0  0  0  0  0  3  0  0  0  0  0  0
   20.2300   13.3890   32.6720 C   0  0  0  0  0  3  0  0  0  0  0  0
   21.2580   12.9360   31.8680 C   0  0  0  0  0  3  0  0  0  0  0  0
  1  2  1  0  0  0  0
  1 24  1  0  0  0  0
  3  2  1  0  0  0  0
  4  7  1  0  0  0  0
  4  3  1  0  0  0  0
  5  6  1  0  0  0  0
  5  4  1  0  0  0  0
  6  1  1  0  0  0  0
  7  8  2  0  0  0  0
  9  7  1  0  0  0  0
  9 10  1  0  0  0  0
 10 11  1  0  0  0  0
 10 14  1  0  0  0  0
 11 12  2  0  0  0  0
 12 13  1  0  0  0  0
 12 16  1  0  0  0  0
 14 15  1  0  0  0  0
 14 13  2  0  0  0  0
 16 17  2  0  0  0  0
 18 16  1  0  0  0  0
 18 20  1  0  0  0  0
 19 21  1  0  0  0  0
 19 18  1  0  0  0  0
 20 23  1  0  0  0  0
 21 22  1  0  0  0  0
 22 23  1  0  0  0  0
 24 30  2  0  0  0  0
 24 25  1  0  0  0  0
 25 26  1  0  0  0  0
 25 27  2  0  0  0  0
 28 27  1  0  0  0  0
 29 28  2  0  0  0  0
 30 29  1  0  0  0  0
M  END
>  <Pose>
1

>  <Score>
-8.568

$$$$
