/Users/jonathanwahrer/Desktop/Msc/3_Semester/Drug_Design_Praktikum/waehrer_HTS_screening/HTS_experiment/out/docking_results/vina_output/3elj/1586_docked.pdbqt
 OpenBabel03192218283D

 29 32  0  0  1  0  0  0  0  0999 V2000
   22.4560   16.2670   30.1280 C   0  0  0  0  0  0  0  0  0  0  0  0
   21.7850   17.2450   30.7140 O   0  0  0  0  0  0  0  0  0  0  0  0
   22.5770   15.0820   30.8730 N   0  0  0  0  0  0  0  0  0  0  0  0
   23.2780   13.9240   30.4450 C   0  0  0  0  0  2  0  0  0  0  0  0
   23.3710   12.9370   31.6210 C   0  0  1  0  0  3  0  0  0  0  0  0
   22.0100   12.6610   32.0010 N   0  0  0  0  0  0  0  0  0  0  0  0
   21.2150   13.7590   32.4400 C   0  0  0  0  0  2  0  0  0  0  0  0
   21.9070   15.0800   32.1730 C   0  0  0  0  0  2  0  0  0  0  0  0
   21.4910   11.3560   31.9370 C   0  0  0  0  0  0  0  0  0  0  0  0
   20.4840   11.0760   32.6110 O   0  0  0  0  0  0  0  0  0  0  0  0
   22.1610   10.3640   31.0710 C   0  0  1  0  0  3  0  0  0  0  0  0
   23.5660   10.4610   31.3380 N   0  0  0  0  0  0  0  0  0  0  0  0
   24.1570   11.7480   31.2970 C   0  0  0  0  0  0  0  0  0  0  0  0
   25.3780   11.9090   30.9830 O   0  0  0  0  0  0  0  0  0  0  0  0
   24.1590    9.6230   31.5570 H   0  0  0  0  0  0  0  0  0  0  0  0
   22.9320   16.6340   28.8230 C   0  0  0  0  0  0  0  0  0  0  0  0
   23.7550   15.9080   27.9980 C   0  0  0  0  0  3  0  0  0  0  0  0
   24.2040   16.3500   26.7520 C   0  0  0  0  0  3  0  0  0  0  0  0
   23.8200   17.5690   26.2960 C   0  0  0  0  0  0  0  0  0  0  0  0
   24.3670   18.1660   24.7220 Cl  0  0  0  0  0  0  0  0  0  0  0  0
   22.9970   18.3440   27.0710 C   0  0  0  0  0  3  0  0  0  0  0  0
   22.5660   17.8860   28.2990 C   0  0  0  0  0  3  0  0  0  0  0  0
   21.5940    8.9990   31.1650 C   0  0  0  0  0  2  0  0  0  0  0  0
   22.5520    8.0160   30.6340 C   0  0  0  0  0  0  0  0  0  0  0  0
   23.3860    8.1380   29.5980 N   0  0  0  0  0  0  0  0  0  0  0  0
   24.0970    6.9820   29.4540 C   0  0  0  0  0  3  0  0  0  0  0  0
   23.7110    6.1230   30.4010 N   0  0  0  0  0  0  0  0  0  0  0  0
   22.7710    6.7300   31.1310 C   0  0  0  0  0  3  0  0  0  0  0  0
   24.0660    5.1740   30.5440 H   0  0  0  0  0  0  0  0  0  0  0  0
  1  2  2  0  0  0  0
  1  3  1  0  0  0  0
  3  8  1  0  0  0  0
  4  3  1  0  0  0  0
  5  4  1  6  0  0  0
  5  6  1  0  0  0  0
  6  7  1  0  0  0  0
  8  7  1  0  0  0  0
  9  6  1  0  0  0  0
  9 10  2  0  0  0  0
 11 23  1  1  0  0  0
 11 12  1  0  0  0  0
 11  9  1  0  0  0  0
 12 15  1  0  0  0  0
 13 12  1  0  0  0  0
 13  5  1  0  0  0  0
 14 13  2  0  0  0  0
 16  1  1  0  0  0  0
 17 16  2  0  0  0  0
 18 17  1  0  0  0  0
 19 18  2  0  0  0  0
 19 21  1  0  0  0  0
 20 19  1  0  0  0  0
 21 22  2  0  0  0  0
 22 16  1  0  0  0  0
 24 28  2  0  0  0  0
 24 23  1  0  0  0  0
 25 24  1  0  0  0  0
 26 25  2  0  0  0  0
 26 27  1  0  0  0  0
 27 29  1  0  0  0  0
 27 28  1  0  0  0  0
M  END
>  <Pose>
1

>  <Score>
-8.242

$$$$
