/Users/jonathanwahrer/Desktop/Msc/3_Semester/Drug_Design_Praktikum/waehrer_HTS_screening/HTS_experiment/out/docking_results/vina_output/3elj/1591_docked.pdbqt
 OpenBabel03192218283D

 26 29  0  0  0  0  0  0  0  0999 V2000
   23.0620   12.9190   29.8580 Cl  0  0  0  0  0  0  0  0  0  0  0  0
   22.1280   12.0320   31.0400 C   0  0  0  0  0  0  0  0  0  0  0  0
   21.4600   12.6960   32.0300 C   0  0  0  0  0  0  0  0  0  0  0  0
   20.7600   11.8840   32.9260 C   0  0  0  0  0  3  0  0  0  0  0  0
   20.7640   10.5480   32.7920 N   0  0  0  0  0  0  0  0  0  0  0  0
   21.3980    9.8900   31.8480 N   0  0  0  0  0  0  0  0  0  0  0  0
   22.0840   10.6290   30.9650 C   0  0  0  0  0  0  0  0  0  0  0  0
   22.7230   10.0910   30.0250 O   0  0  0  0  0  0  0  0  0  0  0  0
   21.4430   14.1060   32.1510 N   0  0  0  0  0  0  0  0  0  0  0  0
   20.2370   14.8970   31.9740 C   0  0  0  0  0  2  0  0  0  0  0  0
   20.3530   15.8320   30.7980 C   0  0  0  0  0  2  0  0  0  0  0  0
   21.6920   16.3690   30.8240 N   0  0  0  0  0  0  0  0  0  0  0  0
   22.3940   16.3710   32.0810 C   0  0  0  0  0  2  0  0  0  0  0  0
   22.6400   14.8880   32.4370 C   0  0  0  0  0  2  0  0  0  0  0  0
   22.3000   16.8820   29.6530 C   0  0  0  0  0  0  0  0  0  0  0  0
   23.3890   16.3830   29.0000 N   0  0  0  0  0  0  0  0  0  0  0  0
   23.6500   17.1370   27.9510 N   0  0  0  0  0  0  0  0  0  0  0  0
   22.7500   18.1110   27.9170 C   0  0  0  0  0  0  0  0  0  0  0  0
   21.9560   17.9390   28.9410 O   0  0  0  0  0  0  0  0  0  0  0  0
   22.6100   19.2290   26.9280 C   0  0  0  0  0  1  0  0  0  0  0  0
   21.3510    8.4680   31.7770 C   0  0  0  0  0  0  0  0  0  0  0  0
   22.3890    7.7120   31.2710 C   0  0  0  0  0  3  0  0  0  0  0  0
   22.3320    6.3360   31.2080 C   0  0  0  0  0  3  0  0  0  0  0  0
   21.2160    5.6570   31.6550 C   0  0  0  0  0  3  0  0  0  0  0  0
   20.1760    6.4070   32.1620 C   0  0  0  0  0  3  0  0  0  0  0  0
   20.2370    7.7870   32.2230 C   0  0  0  0  0  3  0  0  0  0  0  0
  1  2  1  0  0  0  0
  2  3  2  0  0  0  0
  3  9  1  0  0  0  0
  3  4  1  0  0  0  0
  5  4  2  0  0  0  0
  6  5  1  0  0  0  0
  7  2  1  0  0  0  0
  7  6  1  0  0  0  0
  8  7  2  0  0  0  0
  9 14  1  0  0  0  0
 10  9  1  0  0  0  0
 11 12  1  0  0  0  0
 11 10  1  0  0  0  0
 12 13  1  0  0  0  0
 13 14  1  0  0  0  0
 15 12  1  0  0  0  0
 16 15  2  0  0  0  0
 17 16  1  0  0  0  0
 18 17  2  0  0  0  0
 18 19  1  0  0  0  0
 19 15  1  0  0  0  0
 20 18  1  0  0  0  0
 21  6  1  0  0  0  0
 21 26  1  0  0  0  0
 22 21  2  0  0  0  0
 23 22  1  0  0  0  0
 23 24  2  0  0  0  0
 24 25  1  0  0  0  0
 25 26  2  0  0  0  0
M  END
>  <Pose>
1

>  <Score>
-9.534

$$$$
