/Users/jonathanwahrer/Desktop/Msc/3_Semester/Drug_Design_Praktikum/waehrer_HTS_screening/HTS_experiment/out/docking_results/vina_output/3elj/1594_docked.pdbqt
 OpenBabel03192218283D

 27 30  0  0  0  0  0  0  0  0999 V2000
   21.4000   12.2930   31.9750 C   0  0  0  0  0  0  0  0  0  0  0  0
   20.3090   12.9290   32.2190 O   0  0  0  0  0  0  0  0  0  0  0  0
   22.5170   13.0610   31.7120 N   0  0  0  0  0  0  0  0  0  0  0  0
   23.8220   12.5140   31.4260 C   0  0  0  0  0  2  0  0  0  0  0  0
   24.2080   12.7620   29.9840 C   0  0  0  0  0  2  0  0  0  0  0  0
   23.7110   14.1150   29.5600 C   0  0  0  0  0  0  0  0  0  0  0  0
   22.9220   14.9310   30.3240 C   0  0  0  0  0  0  0  0  0  0  0  0
   22.7100   16.0400   29.5690 N   0  0  0  0  0  0  0  0  0  0  0  0
   23.3180   15.9400   28.4080 N   0  0  0  0  0  0  0  0  0  0  0  0
   23.9580   14.7660   28.3410 C   0  0  0  0  0  0  0  0  0  0  0  0
   24.6570   14.3020   27.3840 O   0  0  0  0  0  0  0  0  0  0  0  0
   22.4690   14.5430   31.6910 C   0  0  0  0  0  2  0  0  0  0  0  0
   22.1300   16.8420   29.9140 H   0  0  0  0  0  0  0  0  0  0  0  0
   21.3340   10.8420   32.0000 C   0  0  0  0  0  0  0  0  0  0  0  0
   20.5700   10.0540   32.7570 N   0  0  0  0  0  0  0  0  0  0  0  0
   20.8250    8.7700   32.4590 C   0  0  0  0  0  0  0  0  0  0  0  0
   21.7610    8.7290   31.5040 N   0  0  0  0  0  0  0  0  0  0  0  0
   20.2540    7.6090   33.0070 C   0  0  0  0  0  3  0  0  0  0  0  0
   22.1870    7.5230   31.0340 C   0  0  0  0  0  3  0  0  0  0  0  0
   22.1010    9.9870   31.1930 C   0  0  0  0  0  3  0  0  0  0  0  0
   21.6450    6.3700   31.5540 C   0  0  0  0  0  0  0  0  0  0  0  0
   22.1630    4.7960   30.9800 Cl  0  0  0  0  0  0  0  0  0  0  0  0
   20.6760    6.4020   32.5420 C   0  0  0  0  0  3  0  0  0  0  0  0
   23.3340   16.9200   27.3130 C   0  0  0  0  0  2  0  0  0  0  0  0
   22.8150   18.2590   27.7840 C   0  0  0  0  0  2  0  0  0  0  0  0
   21.4390   18.2510   27.9800 O   0  0  0  0  0  0  0  0  0  0  0  0
   21.0380   17.3490   27.8000 H   0  0  0  0  0  0  0  0  0  0  0  0
  1 14  1  0  0  0  0
  1  2  2  0  0  0  0
  3  1  1  0  0  0  0
  4  3  1  0  0  0  0
  5  4  1  0  0  0  0
  6  5  1  0  0  0  0
  6  7  2  0  0  0  0
  7 12  1  0  0  0  0
  8 13  1  0  0  0  0
  8  7  1  0  0  0  0
  9  8  1  0  0  0  0
 10  9  1  0  0  0  0
 10  6  1  0  0  0  0
 11 10  2  0  0  0  0
 12  3  1  0  0  0  0
 14 15  1  0  0  0  0
 16 15  2  0  0  0  0
 16 18  1  0  0  0  0
 17 16  1  0  0  0  0
 19 17  1  0  0  0  0
 19 21  2  0  0  0  0
 20 17  1  0  0  0  0
 20 14  2  0  0  0  0
 21 23  1  0  0  0  0
 22 21  1  0  0  0  0
 23 18  2  0  0  0  0
 24 25  1  0  0  0  0
 24  9  1  0  0  0  0
 25 26  1  0  0  0  0
 27 26  1  0  0  0  0
M  END
>  <Pose>
1

>  <Score>
-8.718

$$$$
