/Users/jonathanwahrer/Desktop/Msc/3_Semester/Drug_Design_Praktikum/waehrer_HTS_screening/HTS_experiment/out/docking_results/vina_output/3elj/1609_docked.pdbqt
 OpenBabel03192218283D

 26 29  0  0  1  0  0  0  0  0999 V2000
   24.0630   10.0880   30.7040 N   0  0  0  0  0  0  0  0  0  0  0  0
   23.5340   11.2210   29.9920 C   0  0  2  0  0  3  0  0  0  0  0  0
   24.4250   12.3370   30.4990 C   0  0  2  0  0  3  0  0  0  0  0  0
   24.4710   12.0280   31.8860 O   0  0  0  0  0  0  0  0  0  0  0  0
   24.6000   10.6250   31.9080 C   0  0  0  0  0  0  0  0  0  0  0  0
   25.1220    9.9900   32.8780 O   0  0  0  0  0  0  0  0  0  0  0  0
   23.5750   13.5060   30.1580 C   0  0  0  0  0  2  0  0  0  0  0  0
   22.2830   13.0990   30.7580 N   0  0  0  0  0  0  0  0  0  0  0  0
   22.1990   11.6800   30.6060 C   0  0  0  0  0  2  0  0  0  0  0  0
   21.4280   14.0490   31.3240 C   0  0  0  0  0  0  0  0  0  0  0  0
   21.7710   15.3020   31.3320 O   0  0  0  0  0  0  0  0  0  0  0  0
   24.0940    8.6820   30.3700 C   0  0  0  0  0  2  0  0  0  0  0  0
   22.7860    8.1570   29.8450 C   0  0  0  0  0  2  0  0  0  0  0  0
   21.9090    7.6530   30.9270 C   0  0  0  0  0  0  0  0  0  0  0  0
   21.0970    8.5260   31.6520 C   0  0  0  0  0  3  0  0  0  0  0  0
   20.2780    8.0720   32.6570 C   0  0  0  0  0  0  0  0  0  0  0  0
   19.2680    9.2150   33.5480 Cl  0  0  0  0  0  0  0  0  0  0  0  0
   20.2140    6.7380   33.0010 C   0  0  0  0  0  3  0  0  0  0  0  0
   21.0140    5.8720   32.2870 C   0  0  0  0  0  3  0  0  0  0  0  0
   21.8420    6.3190   31.2740 C   0  0  0  0  0  3  0  0  0  0  0  0
   20.1390   13.7880   31.9360 C   0  0  0  0  0  0  0  0  0  0  0  0
   18.9330   14.2800   31.5450 N   0  0  0  0  0  0  0  0  0  0  0  0
   17.9940   13.8020   32.3580 C   0  0  0  0  0  3  0  0  0  0  0  0
   18.7300   15.1710   30.4320 C   0  0  0  0  0  1  0  0  0  0  0  0
   18.5700   13.0110   33.2660 N   0  0  0  0  0  0  0  0  0  0  0  0
   19.8990   12.9920   33.0170 C   0  0  0  0  0  3  0  0  0  0  0  0
  1  5  1  0  0  0  0
  2  3  1  0  0  0  0
  2  9  1  1  0  0  0
  2  1  1  0  0  0  0
  3  7  1  1  0  0  0
  3  4  1  0  0  0  0
  4  5  1  0  0  0  0
  5  6  2  0  0  0  0
  7  8  1  0  0  0  0
  8 10  1  0  0  0  0
  9  8  1  0  0  0  0
 10 11  2  0  0  0  0
 10 21  1  0  0  0  0
 12  1  1  0  0  0  0
 13 12  1  0  0  0  0
 13 14  1  0  0  0  0
 14 20  2  0  0  0  0
 14 15  1  0  0  0  0
 15 16  2  0  0  0  0
 16 18  1  0  0  0  0
 16 17  1  0  0  0  0
 19 18  2  0  0  0  0
 20 19  1  0  0  0  0
 21 26  2  0  0  0  0
 22 21  1  0  0  0  0
 22 23  1  0  0  0  0
 23 25  2  0  0  0  0
 24 22  1  0  0  0  0
 26 25  1  0  0  0  0
M  END
>  <Pose>
1

>  <Score>
-8.726

$$$$
