/Users/jonathanwahrer/Desktop/Msc/3_Semester/Drug_Design_Praktikum/waehrer_HTS_screening/HTS_experiment/out/docking_results/vina_output/3elj/1624_docked.pdbqt
 OpenBabel03192218293D

 32 35  0  0  1  0  0  0  0  0999 V2000
   22.2270    9.5310   30.3160 C   0  0  1  0  0  3  0  0  0  0  0  0
   22.9430   10.8070   30.4940 N   0  0  0  0  0  0  0  0  0  0  0  0
   24.0210   10.5900   31.3950 C   0  0  0  0  0  0  0  0  0  0  0  0
   24.6200   11.4350   32.0640 O   0  0  0  0  0  0  0  0  0  0  0  0
   24.3080    9.1420   31.3920 C   0  0  0  0  0  0  0  0  0  0  0  0
   25.1940    8.5180   32.0610 O   0  0  0  0  0  0  0  0  0  0  0  0
   23.3590    8.5570   30.4590 C   0  0  0  0  0  0  0  0  0  0  0  0
   23.5030    7.3800   29.9030 C   0  0  0  0  0  0  0  0  0  0  0  0
   22.4910    6.9270   29.0620 O   0  0  0  0  0  1  0  0  0  0  0  0
   22.5310   12.0030   29.8050 C   0  0  0  0  0  2  0  0  0  0  0  0
   22.7250   13.2740   30.5410 C   0  0  0  0  0  2  0  0  0  0  0  0
   21.7510   14.2940   30.4140 N   0  0  0  0  0  4  0  0  0  0  0  0
   22.1130   15.5390   31.0580 C   0  0  0  0  0  2  0  0  0  0  0  0
   21.0930   16.0220   32.0620 C   0  0  0  0  0  2  0  0  0  0  0  0
   19.7990   16.0240   31.6120 O   0  0  0  0  0  0  0  0  0  0  0  0
   19.4320   14.8560   30.9710 C   0  0  0  0  0  2  0  0  0  0  0  0
   20.5290   13.8450   31.1150 C   0  0  0  0  0  2  0  0  0  0  0  0
   21.4340   14.4460   29.4430 H   0  0  0  0  0  0  0  0  0  0  0  0
   21.2150    9.3850   31.3550 C   0  0  0  0  0  0  0  0  0  0  0  0
   20.9050   10.3750   32.2320 C   0  0  0  0  0  3  0  0  0  0  0  0
   19.9370   10.2440   33.2170 C   0  0  0  0  0  3  0  0  0  0  0  0
   19.2540    9.0690   33.3280 C   0  0  0  0  0  0  0  0  0  0  0  0
   18.0260    8.8400   34.5430 Cl  0  0  0  0  0  0  0  0  0  0  0  0
   19.5500    8.0310   32.4420 C   0  0  0  0  0  3  0  0  0  0  0  0
   20.5140    8.1860   31.4720 C   0  0  0  0  0  3  0  0  0  0  0  0
   24.6410    6.4840   30.0780 C   0  0  0  0  0  0  0  0  0  0  0  0
   24.5120    5.5150   31.0670 C   0  0  0  0  0  3  0  0  0  0  0  0
   25.5280    4.6250   31.2700 C   0  0  0  0  0  3  0  0  0  0  0  0
   26.6830    4.6690   30.5130 C   0  0  0  0  0  0  0  0  0  0  0  0
   26.8060    5.6320   29.5340 C   0  0  0  0  0  3  0  0  0  0  0  0
   27.9460    3.5190   30.8070 Cl  0  0  0  0  0  0  0  0  0  0  0  0
   25.7720    6.5250   29.3380 C   0  0  0  0  0  3  0  0  0  0  0  0
  1  7  1  0  0  0  0
  1  2  1  0  0  0  0
  1 19  1  1  0  0  0
  2  3  1  0  0  0  0
  3  4  2  0  0  0  0
  5  3  1  0  0  0  0
  5  6  2  0  0  0  0
  7  5  1  0  0  0  0
  8 26  1  0  0  0  0
  8  7  2  0  0  0  0
  9  8  1  0  0  0  0
 10  2  1  0  0  0  0
 10 11  1  0  0  0  0
 12 11  1  0  0  0  0
 12 13  1  0  0  0  0
 12 17  1  0  0  0  0
 13 14  1  0  0  0  0
 15 14  1  0  0  0  0
 16 17  1  0  0  0  0
 16 15  1  0  0  0  0
 18 12  1  0  0  0  0
 19 25  2  0  0  0  0
 19 20  1  0  0  0  0
 20 21  2  0  0  0  0
 21 22  1  0  0  0  0
 22 23  1  0  0  0  0
 24 22  2  0  0  0  0
 25 24  1  0  0  0  0
 26 27  1  0  0  0  0
 27 28  2  0  0  0  0
 29 31  1  0  0  0  0
 29 28  1  0  0  0  0
 30 29  2  0  0  0  0
 32 30  1  0  0  0  0
 32 26  2  0  0  0  0
M  END
>  <Pose>
1

>  <Score>
-7.700

$$$$
