/Users/jonathanwahrer/Desktop/Msc/3_Semester/Drug_Design_Praktikum/waehrer_HTS_screening/HTS_experiment/out/docking_results/vina_output/3elj/1631_docked.pdbqt
 OpenBabel03192218303D

 29 32  0  0  1  0  0  0  0  0999 V2000
   23.6790   11.7500   29.2700 C   0  0  1  0  0  3  0  0  0  0  0  0
   25.0770   11.9720   29.0370 N   0  0  0  0  0  0  0  0  0  0  0  0
   25.8640   11.0830   29.8230 C   0  0  0  0  0  0  0  0  0  0  0  0
   27.1000   11.1740   30.0810 O   0  0  0  0  0  0  0  0  0  0  0  0
   24.9750   10.0050   30.3020 C   0  0  0  0  0  0  0  0  0  0  0  0
   25.3300    9.0470   31.0270 O   0  0  0  0  0  0  0  0  0  0  0  0
   23.6640   10.3260   29.7530 C   0  0  0  0  0  0  0  0  0  0  0  0
   22.6500    9.4870   29.7380 C   0  0  0  0  0  0  0  0  0  0  0  0
   21.4310    9.9680   29.2170 O   0  0  0  0  0  1  0  0  0  0  0  0
   23.0830   12.6760   30.2660 C   0  0  0  0  0  0  0  0  0  0  0  0
   21.7400   13.0300   30.2210 C   0  0  0  0  0  3  0  0  0  0  0  0
   21.1490   13.8830   31.1230 C   0  0  0  0  0  0  0  0  0  0  0  0
   19.4530   14.3050   31.0370 Cl  0  0  0  0  0  0  0  0  0  0  0  0
   21.9380   14.4100   32.1220 C   0  0  0  0  0  3  0  0  0  0  0  0
   23.2760   14.0870   32.2080 C   0  0  0  0  0  3  0  0  0  0  0  0
   23.8430   13.2310   31.2910 C   0  0  0  0  0  3  0  0  0  0  0  0
   22.7100    8.1120   30.2130 C   0  0  0  0  0  0  0  0  0  0  0  0
   21.9910    7.7440   31.3590 C   0  0  0  0  0  3  0  0  0  0  0  0
   22.0060    6.4450   31.8150 C   0  0  0  0  0  3  0  0  0  0  0  0
   22.7180    5.4490   31.1790 C   0  0  0  0  0  3  0  0  0  0  0  0
   23.4300    5.7890   30.0520 C   0  0  0  0  0  3  0  0  0  0  0  0
   23.4140    7.1060   29.5920 C   0  0  0  0  0  3  0  0  0  0  0  0
   25.6160   12.9360   28.1570 C   0  0  1  0  0  3  0  0  0  0  0  0
   26.7220   12.5560   27.4640 N   0  0  0  0  0  0  0  0  0  0  0  0
   27.3240   13.3740   26.6020 C   0  0  0  0  0  3  0  0  0  0  0  0
   27.1330   11.5910   27.5930 H   0  0  0  0  0  0  0  0  0  0  0  0
   26.7950   14.6310   26.4230 C   0  0  0  0  0  3  0  0  0  0  0  0
   25.6730   14.9950   27.1360 C   0  0  0  0  0  3  0  0  0  0  0  0
   25.0720   14.1630   28.0050 N   0  0  0  0  0  0  0  0  0  0  0  0
  1  7  1  0  0  0  0
  1 10  1  1  0  0  0
  2  1  1  0  0  0  0
  2  3  1  0  0  0  0
  3  4  2  0  0  0  0
  3  5  1  0  0  0  0
  5  6  2  0  0  0  0
  7  5  1  0  0  0  0
  8  7  2  0  0  0  0
  8 17  1  0  0  0  0
  9  8  1  0  0  0  0
 10 16  1  0  0  0  0
 11 10  2  0  0  0  0
 11 12  1  0  0  0  0
 12 14  2  0  0  0  0
 13 12  1  0  0  0  0
 14 15  1  0  0  0  0
 16 15  2  0  0  0  0
 17 18  1  0  0  0  0
 18 19  2  0  0  0  0
 20 19  1  0  0  0  0
 21 20  2  0  0  0  0
 22 21  1  0  0  0  0
 22 17  2  0  0  0  0
 23  2  1  6  0  0  0
 24 26  1  0  0  0  0
 24 23  1  0  0  0  0
 25 24  1  0  0  0  0
 27 25  2  0  0  0  0
 27 28  1  0  0  0  0
 28 29  2  0  0  0  0
 29 23  1  0  0  0  0
M  END
>  <Pose>
1

>  <Score>
-7.829

$$$$
