/Users/jonathanwahrer/Desktop/Msc/3_Semester/Drug_Design_Praktikum/waehrer_HTS_screening/HTS_experiment/out/docking_results/vina_output/3elj/1637_docked.pdbqt
 OpenBabel03192218303D

 29 32  0  0  0  0  0  0  0  0999 V2000
   29.6910    6.1770   29.7420 C   0  0  0  0  0  0  0  0  0  0  0  0
   29.0540    5.0030   29.8170 N   0  0  0  0  0  0  0  0  0  0  0  0
   27.9040    4.7320   29.2060 C   0  0  0  0  0  0  0  0  0  0  0  0
   27.3280    5.7610   28.4430 C   0  0  0  0  0  0  0  0  0  0  0  0
   27.9750    6.9430   28.3710 C   0  0  0  0  0  0  0  0  0  0  0  0
   29.1560    7.1440   29.0190 N   0  0  0  0  0  0  0  0  0  0  0  0
   25.9970    5.4620   27.9080 C   0  0  0  0  0  2  0  0  0  0  0  0
   25.2360    4.9790   29.0190 N   0  0  0  0  0  0  0  0  0  0  0  0
   25.6960    3.5240   29.1300 C   0  0  0  0  0  2  0  0  0  0  0  0
   27.1730    3.4400   29.2940 C   0  0  0  0  0  2  0  0  0  0  0  0
   25.6290    5.4770   30.3860 C   0  0  0  0  0  2  0  0  0  0  0  0
   24.3310    6.1990   30.7600 C   0  0  0  0  0  0  0  0  0  0  0  0
   23.2400    5.6290   31.2880 C   0  0  0  0  0  0  0  0  0  0  0  0
   22.0560    6.3410   31.6220 C   0  0  0  0  0  0  0  0  0  0  0  0
   23.2900    3.9350   31.6410 Cl  0  0  0  0  0  0  0  0  0  0  0  0
   22.1140    7.7130   31.3600 C   0  0  0  0  0  0  0  0  0  0  0  0
   20.9310    5.8080   32.1540 C   0  0  0  0  0  3  0  0  0  0  0  0
   21.0050    8.4490   31.6610 C   0  0  0  0  0  3  0  0  0  0  0  0
   23.1630    8.2720   30.8630 O   0  0  0  0  0  0  0  0  0  0  0  0
   19.8200    7.9140   32.2130 C   0  0  0  0  0  3  0  0  0  0  0  0
   19.8130    6.5290   32.4640 C   0  0  0  0  0  3  0  0  0  0  0  0
   24.2670    7.5750   30.5530 C   0  0  0  0  0  0  0  0  0  0  0  0
   25.3060    8.1480   30.0450 O   0  0  0  0  0  0  0  0  0  0  0  0
   27.4150    7.9560   27.6070 O   0  0  0  0  0  0  0  0  0  0  0  0
   27.1430    7.8470   26.6250 H   0  0  0  0  0  0  0  0  0  0  0  0
   31.1640    6.3980   30.7030 S   0  0  0  0  0  0  0  0  0  0  0  0
   32.3580    6.0310   29.9750 O   0  0  0  0  0  0  0  0  0  0  0  0
   30.9880    5.5760   31.9450 O   0  0  0  0  0  0  0  0  0  0  0  0
   31.1500    8.1370   31.2050 C   0  0  0  0  0  1  0  0  0  0  0  0
  1  2  2  0  0  0  0
  1 26  1  0  0  0  0
  3 10  1  0  0  0  0
  3  2  1  0  0  0  0
  4  3  2  0  0  0  0
  5  4  1  0  0  0  0
  5  6  2  0  0  0  0
  6  1  1  0  0  0  0
  7  4  1  0  0  0  0
  7  8  1  0  0  0  0
  8  9  1  0  0  0  0
  8 11  1  0  0  0  0
  9 10  1  0  0  0  0
 11 12  1  0  0  0  0
 12 13  2  0  0  0  0
 13 14  1  0  0  0  0
 13 15  1  0  0  0  0
 14 17  1  0  0  0  0
 16 14  2  0  0  0  0
 16 18  1  0  0  0  0
 17 21  2  0  0  0  0
 18 20  2  0  0  0  0
 19 16  1  0  0  0  0
 20 21  1  0  0  0  0
 22 12  1  0  0  0  0
 22 19  1  0  0  0  0
 23 22  2  0  0  0  0
 24  5  1  0  0  0  0
 25 24  1  0  0  0  0
 26 29  1  0  0  0  0
 26 28  2  0  0  0  0
 27 26  2  0  0  0  0
M  END
>  <Pose>
1

>  <Score>
-7.299

$$$$
