/Users/jonathanwahrer/Desktop/Msc/3_Semester/Drug_Design_Praktikum/waehrer_HTS_screening/HTS_experiment/out/docking_results/vina_output/3elj/1651_docked.pdbqt
 OpenBabel03192218303D

 23 26  0  0  1  0  0  0  0  0999 V2000
   30.0030   12.3940   29.2010 Cl  0  0  0  0  0  0  0  0  0  0  0  0
   29.5160   12.6150   27.5180 C   0  0  0  0  0  0  0  0  0  0  0  0
   28.9790   13.7980   27.0710 C   0  0  0  0  0  3  0  0  0  0  0  0
   28.6000   13.9490   25.7280 C   0  0  0  0  0  0  0  0  0  0  0  0
   28.7510   12.9330   24.8270 C   0  0  0  0  0  0  0  0  0  0  0  0
   29.3000   11.7190   25.2770 C   0  0  0  0  0  3  0  0  0  0  0  0
   29.6600   11.6050   26.5970 C   0  0  0  0  0  3  0  0  0  0  0  0
   28.3060   13.2970   23.5300 N   0  0  0  0  0  0  0  0  0  0  0  0
   27.8440   14.6330   23.6250 C   0  0  0  0  0  0  0  0  0  0  0  0
   27.3710   15.2860   22.6490 O   0  0  0  0  0  0  0  0  0  0  0  0
   28.0090   15.1080   25.0170 C   0  0  1  0  0  0  0  0  0  0  0  0
   26.6220   15.4290   25.5350 C   0  0  0  0  0  2  0  0  0  0  0  0
   26.2110   16.6750   24.8050 C   0  0  0  0  0  0  0  0  0  0  0  0
   25.1500   16.7700   24.1610 O   0  0  0  0  0  0  0  0  0  0  0  0
   27.1190   17.7800   24.8820 N   0  0  0  0  0  0  0  0  0  0  0  0
   28.5100   17.5330   25.0400 C   0  0  0  0  0  0  0  0  0  0  0  0
   29.5900   18.3530   25.1500 N   0  0  0  0  0  0  0  0  0  0  0  0
   30.6590   17.6070   25.2850 N   0  0  0  0  0  0  0  0  0  0  0  0
   30.3410   16.3030   25.2710 C   0  0  0  0  0  3  0  0  0  0  0  0
   28.9520   16.2360   25.1120 C   0  0  0  0  0  0  0  0  0  0  0  0
   28.3280   12.4420   22.3390 C   0  0  0  0  0  1  0  0  0  0  0  0
   26.7760   18.7640   24.8250 H   0  0  0  0  0  0  0  0  0  0  0  0
   29.5170   19.3970   25.1240 H   0  0  0  0  0  0  0  0  0  0  0  0
  2  1  1  0  0  0  0
  3  2  1  0  0  0  0
  4  3  2  0  0  0  0
  5  6  2  0  0  0  0
  5  4  1  0  0  0  0
  6  7  1  0  0  0  0
  7  2  2  0  0  0  0
  8  9  1  0  0  0  0
  8  5  1  0  0  0  0
  9 11  1  0  0  0  0
 10  9  2  0  0  0  0
 11 20  1  0  0  0  0
 11 12  1  1  0  0  0
 11  4  1  0  0  0  0
 13 15  1  0  0  0  0
 13 12  1  0  0  0  0
 14 13  2  0  0  0  0
 15 16  1  0  0  0  0
 16 20  2  0  0  0  0
 16 17  1  0  0  0  0
 17 18  1  0  0  0  0
 19 18  2  0  0  0  0
 20 19  1  0  0  0  0
 21  8  1  0  0  0  0
 22 15  1  0  0  0  0
 23 17  1  0  0  0  0
M  END
>  <Pose>
1

>  <Score>
-5.715

$$$$
