/Users/jonathanwahrer/Desktop/Msc/3_Semester/Drug_Design_Praktikum/waehrer_HTS_screening/HTS_experiment/out/docking_results/vina_output/3elj/1657_docked.pdbqt
 OpenBabel03192218313D

 33 36  0  0  1  0  0  0  0  0999 V2000
   19.9890   15.9520   31.2730 Cl  0  0  0  0  0  0  0  0  0  0  0  0
   20.9310   14.4620   31.4050 C   0  0  0  0  0  0  0  0  0  0  0  0
   20.4090   13.3660   32.0570 C   0  0  0  0  0  3  0  0  0  0  0  0
   21.1340   12.2230   32.1540 C   0  0  0  0  0  0  0  0  0  0  0  0
   22.4180   12.1480   31.5960 C   0  0  0  0  0  0  0  0  0  0  0  0
   22.9190   13.2530   30.9510 C   0  0  0  0  0  3  0  0  0  0  0  0
   22.1890   14.4300   30.8410 C   0  0  0  0  0  3  0  0  0  0  0  0
   23.1850   10.9530   31.6930 N   0  0  0  0  0  0  0  0  0  0  0  0
   22.4910    9.6810   31.8320 C   0  0  2  0  0  0  0  0  0  0  0  0
   21.5060    9.8660   32.8720 N   0  0  0  0  0  0  0  0  0  0  0  0
   20.6710   11.0110   32.8240 C   0  0  0  0  0  0  0  0  0  0  0  0
   19.5220   11.0450   33.3360 O   0  0  0  0  0  0  0  0  0  0  0  0
   23.4830    8.6430   32.2390 C   0  0  0  0  0  2  0  0  0  0  0  0
   24.1890    7.9960   31.0690 C   0  0  0  0  0  2  0  0  0  0  0  0
   24.6780    8.9760   30.1210 N   0  0  0  0  0  0  0  0  0  0  0  0
   23.8060    9.8880   29.4080 C   0  0  0  0  0  0  0  0  0  0  0  0
   24.3920   10.7660   28.7340 O   0  0  0  0  0  0  0  0  0  0  0  0
   22.3360    9.9460   29.3540 C   0  0  0  0  0  2  0  0  0  0  0  0
   21.7180    9.3360   30.5750 C   0  0  0  0  0  2  0  0  0  0  0  0
   24.2210   11.0510   31.6590 H   0  0  0  0  0  0  0  0  0  0  0  0
   21.3770    9.2000   33.6590 H   0  0  0  0  0  0  0  0  0  0  0  0
   26.0520    9.1080   29.8570 C   0  0  0  0  0  2  0  0  0  0  0  0
   26.8130    8.0780   29.1870 C   0  0  0  0  0  0  0  0  0  0  0  0
   28.0840    8.4500   29.0230 O   0  0  0  0  0  0  0  0  0  0  0  0
   26.4430    6.8360   28.7230 N   0  0  0  0  0  0  0  0  0  0  0  0
   27.4720    5.9900   28.0630 C   0  0  0  0  0  2  0  0  0  0  0  0
   25.1730    6.2310   28.8120 C   0  0  0  0  0  2  0  0  0  0  0  0
   27.2630    4.5990   28.6830 C   0  0  0  0  0  2  0  0  0  0  0  0
   26.5900    4.6840   29.9360 N   0  0  0  0  0  0  0  0  0  0  0  0
   25.2210    5.1050   29.8830 C   0  0  0  0  0  2  0  0  0  0  0  0
   26.8570    3.6380   30.8630 C   0  0  0  0  0  3  0  0  0  0  0  0
   28.0570    3.9010   31.7510 C   0  0  0  0  0  1  0  0  0  0  0  0
   25.6770    3.2790   31.7240 C   0  0  0  0  0  1  0  0  0  0  0  0
  1  2  1  0  0  0  0
  2  3  1  0  0  0  0
  3  4  2  0  0  0  0
  4 11  1  0  0  0  0
  5  8  1  0  0  0  0
  5  4  1  0  0  0  0
  6  5  2  0  0  0  0
  7  6  1  0  0  0  0
  7  2  2  0  0  0  0
  8  9  1  0  0  0  0
  9 19  1  6  0  0  0
  9 13  1  0  0  0  0
  9 10  1  0  0  0  0
 10 21  1  0  0  0  0
 11 10  1  0  0  0  0
 11 12  2  0  0  0  0
 14 13  1  0  0  0  0
 15 14  1  0  0  0  0
 16 15  1  0  0  0  0
 17 16  2  0  0  0  0
 18 16  1  0  0  0  0
 18 19  1  0  0  0  0
 20  8  1  0  0  0  0
 22 15  1  0  0  0  0
 23 22  1  0  0  0  0
 24 23  2  0  0  0  0
 25 27  1  0  0  0  0
 25 23  1  0  0  0  0
 26 28  1  0  0  0  0
 26 25  1  0  0  0  0
 27 30  1  0  0  0  0
 28 29  1  0  0  0  0
 29 31  1  0  0  0  0
 30 29  1  0  0  0  0
 31 33  1  0  0  0  0
 31 32  1  0  0  0  0
M  END
>  <Pose>
1

>  <Score>
-8.663

$$$$
