/Users/jonathanwahrer/Desktop/Msc/3_Semester/Drug_Design_Praktikum/waehrer_HTS_screening/HTS_experiment/out/docking_results/vina_output/3elj/1666_docked.pdbqt
 OpenBabel03192218313D

 30 34  0  0  1  0  0  0  0  0999 V2000
   27.0690    2.9940   30.2680 N   0  0  0  0  0  0  0  0  0  0  0  0
   26.7070    2.9610   31.6610 C   0  0  0  0  0  2  0  0  0  0  0  0
   25.2450    3.2850   31.8660 C   0  0  0  0  0  2  0  0  0  0  0  0
   24.9190    4.5850   31.2270 N   0  0  0  0  0  0  0  0  0  0  0  0
   25.1120    4.4270   29.7920 C   0  0  0  0  0  2  0  0  0  0  0  0
   25.9260    3.1970   29.4310 C   0  0  0  0  0  2  0  0  0  0  0  0
   23.5110    4.7620   31.5100 C   0  0  0  0  0  2  0  0  0  0  0  0
   22.7000    5.4960   30.5290 C   0  0  0  0  0  2  0  0  0  0  0  0
   22.5920    6.9130   30.6170 N   0  0  0  0  0  0  0  0  0  0  0  0
   23.2830    7.9420   29.9190 C   0  0  0  0  0  0  0  0  0  0  0  0
   24.4100    7.8350   29.4150 O   0  0  0  0  0  0  0  0  0  0  0  0
   22.4340    9.1580   29.8980 C   0  0  1  0  0  3  0  0  0  0  0  0
   21.6520    8.9740   31.2180 C   0  0  2  0  0  3  0  0  0  0  0  0
   23.2450   10.3590   30.2300 C   0  0  2  0  0  3  0  0  0  0  0  0
   22.3490    9.8220   32.2150 C   0  0  1  0  0  3  0  0  0  0  0  0
   21.6270    7.5440   31.4880 C   0  0  0  0  0  0  0  0  0  0  0  0
   23.7610    9.9320   31.6160 C   0  0  0  0  0  2  0  0  0  0  0  0
   21.9240   11.2480   31.9310 C   0  0  0  0  0  2  0  0  0  0  0  0
   22.2810   11.4260   30.6590 C   0  0  0  0  0  2  0  0  0  0  0  0
   20.8850    6.9890   32.3370 O   0  0  0  0  0  0  0  0  0  0  0  0
   28.4830    3.8080   29.8740 S   0  0  0  0  0  0  0  0  0  0  0  0
   29.0690    4.3790   31.1600 O   0  0  0  0  0  0  0  0  0  0  0  0
   29.5120    2.7640   29.4380 O   0  0  0  0  0  0  0  0  0  0  0  0
   28.3960    4.9890   28.6300 C   0  0  0  0  0  0  0  0  0  0  0  0
   28.1480    6.3070   28.9270 C   0  0  0  0  0  3  0  0  0  0  0  0
   28.0960    7.2320   27.9000 C   0  0  0  0  0  3  0  0  0  0  0  0
   28.2830    6.8830   26.5750 C   0  0  0  0  0  0  0  0  0  0  0  0
   28.5330    5.5590   26.2820 C   0  0  0  0  0  3  0  0  0  0  0  0
   28.2090    8.1560   25.1580 Br  0  0  0  0  0  0  0  0  0  0  0  0
   28.5850    4.6300   27.3150 C   0  0  0  0  0  3  0  0  0  0  0  0
  1  2  1  0  0  0  0
  2  3  1  0  0  0  0
  4  7  1  0  0  0  0
  4  3  1  0  0  0  0
  5  4  1  0  0  0  0
  6  5  1  0  0  0  0
  6  1  1  0  0  0  0
  8  9  1  0  0  0  0
  8  7  1  0  0  0  0
  9 16  1  0  0  0  0
 10  9  1  0  0  0  0
 11 10  2  0  0  0  0
 12 10  1  1  0  0  0
 12 14  1  0  0  0  0
 12 13  1  0  0  0  0
 13 16  1  1  0  0  0
 13 15  1  0  0  0  0
 14 19  1  1  0  0  0
 14 17  1  0  0  0  0
 15 17  1  6  0  0  0
 16 20  2  0  0  0  0
 18 15  1  0  0  0  0
 19 18  1  0  0  0  0
 21  1  1  0  0  0  0
 21 22  2  0  0  0  0
 23 21  2  0  0  0  0
 24 25  1  0  0  0  0
 24 21  1  0  0  0  0
 26 25  2  0  0  0  0
 27 26  1  0  0  0  0
 28 27  2  0  0  0  0
 28 30  1  0  0  0  0
 29 27  1  0  0  0  0
 30 24  2  0  0  0  0
M  END
>  <Pose>
1

>  <Score>
-7.404

$$$$
