/Users/jonathanwahrer/Desktop/Msc/3_Semester/Drug_Design_Praktikum/waehrer_HTS_screening/HTS_experiment/out/docking_results/vina_output/3elj/1673_docked.pdbqt
 OpenBabel03192218323D

 35 38  0  0  1  0  0  0  0  0999 V2000
   23.8220    6.3760   31.4650 C   0  0  2  0  0  3  0  0  0  0  0  0
   24.9210    7.2220   30.8800 C   0  0  1  0  0  3  0  0  0  0  0  0
   25.4720    6.5040   29.8190 N   0  0  0  0  0  0  0  0  0  0  0  0
   25.4860    5.1240   30.3630 C   0  0  0  0  0  0  0  0  0  0  0  0
   26.3330    4.2220   30.1230 O   0  0  0  0  0  0  0  0  0  0  0  0
   24.3260    5.0040   31.2310 C   0  0  0  0  0  0  0  0  0  0  0  0
   23.8590    3.9220   31.6880 O   0  0  0  0  0  0  0  0  0  0  0  0
   24.7180    8.6480   30.9410 C   0  0  0  0  0  0  0  0  0  0  0  0
   24.4130    9.4510   29.8880 C   0  0  0  0  0  3  0  0  0  0  0  0
   24.2180   10.8130   30.0560 C   0  0  0  0  0  0  0  0  0  0  0  0
   24.3410   11.3690   31.3390 C   0  0  0  0  0  0  0  0  0  0  0  0
   24.6480   10.5600   32.3950 C   0  0  0  0  0  3  0  0  0  0  0  0
   24.8370    9.2240   32.2300 C   0  0  0  0  0  3  0  0  0  0  0  0
   24.1580   12.7190   31.5600 O   0  0  0  0  0  1  0  0  0  0  0  0
   22.5060    6.5680   30.8560 C   0  0  0  0  0  0  0  0  0  0  0  0
   22.3490    6.3300   29.6080 O   0  0  0  0  0  0  0  0  0  0  0  0
   21.3040    7.0160   31.5440 C   0  0  0  0  0  0  0  0  0  0  0  0
   20.2930    6.1470   31.8870 C   0  0  0  0  0  3  0  0  0  0  0  0
   19.1640    6.6620   32.5140 C   0  0  0  0  0  3  0  0  0  0  0  0
   19.0020    7.9910   32.8130 C   0  0  0  0  0  0  0  0  0  0  0  0
   17.4080    8.6330   33.6860 Br  0  0  0  0  0  0  0  0  0  0  0  0
   20.0120    8.8650   32.4720 C   0  0  0  0  0  3  0  0  0  0  0  0
   21.1290    8.3560   31.8510 C   0  0  0  0  0  3  0  0  0  0  0  0
   26.0890    6.6800   28.5420 C   0  0  0  0  0  2  0  0  0  0  0  0
   27.5490    6.9330   28.5220 C   0  0  0  0  0  2  0  0  0  0  0  0
   28.1330    8.0230   29.1800 N   0  0  0  0  0  4  0  0  0  0  0  0
   29.5990    8.0180   29.1070 C   0  0  0  0  0  2  0  0  0  0  0  0
   30.1090    8.1520   27.7110 C   0  0  0  0  0  2  0  0  0  0  0  0
   29.0650    8.4370   26.8600 O   0  0  0  0  0  0  0  0  0  0  0  0
   28.4210    9.5870   27.3440 C   0  0  0  0  0  2  0  0  0  0  0  0
   27.6310    9.2810   28.5990 C   0  0  0  0  0  2  0  0  0  0  0  0
   27.8950    8.0610   30.1680 H   0  0  0  0  0  0  0  0  0  0  0  0
   23.9090   11.6410   29.0250 O   0  0  0  0  0  0  0  0  0  0  0  0
   24.8480   12.3370   28.2710 C   0  0  0  0  0  2  0  0  0  0  0  0
   24.6260   13.8390   28.2530 C   0  0  0  0  0  1  0  0  0  0  0  0
  1 15  1  6  0  0  0
  2  8  1  6  0  0  0
  2  1  1  0  0  0  0
  3  4  1  0  0  0  0
  3  2  1  0  0  0  0
  4  6  1  0  0  0  0
  5  4  2  0  0  0  0
  6  1  1  0  0  0  0
  6  7  2  0  0  0  0
  8 13  1  0  0  0  0
  9 10  1  0  0  0  0
  9  8  2  0  0  0  0
 10 11  2  0  0  0  0
 11 14  1  0  0  0  0
 11 12  1  0  0  0  0
 13 12  2  0  0  0  0
 15 17  1  0  0  0  0
 16 15  2  0  0  0  0
 17 23  2  0  0  0  0
 17 18  1  0  0  0  0
 18 19  2  0  0  0  0
 19 20  1  0  0  0  0
 20 21  1  0  0  0  0
 22 20  2  0  0  0  0
 23 22  1  0  0  0  0
 24  3  1  0  0  0  0
 25 24  1  0  0  0  0
 25 26  1  0  0  0  0
 26 32  1  0  0  0  0
 27 26  1  0  0  0  0
 28 27  1  0  0  0  0
 29 30  1  0  0  0  0
 29 28  1  0  0  0  0
 30 31  1  0  0  0  0
 31 26  1  0  0  0  0
 33 10  1  0  0  0  0
 34 33  1  0  0  0  0
 35 34  1  0  0  0  0
M  END
>  <Pose>
1

>  <Score>
-8.162

$$$$
