/Users/jonathanwahrer/Desktop/Msc/3_Semester/Drug_Design_Praktikum/waehrer_HTS_screening/HTS_experiment/out/docking_results/vina_output/3elj/1676_docked.pdbqt
 OpenBabel03192218323D

 25 28  0  0  0  0  0  0  0  0999 V2000
   20.3550   10.3280   33.0950 C   0  0  0  0  0  0  0  0  0  0  0  0
   19.5440   10.1220   34.0190 O   0  0  0  0  0  0  0  0  0  0  0  0
   20.5840   11.6610   32.6710 N   0  0  0  0  0  0  0  0  0  0  0  0
   21.2530   11.8450   31.9060 H   0  0  0  0  0  0  0  0  0  0  0  0
   21.0310    9.1850   32.4920 C   0  0  0  0  0  0  0  0  0  0  0  0
   20.4280    7.9420   32.5830 C   0  0  0  0  0  0  0  0  0  0  0  0
   21.0450    6.8500   32.0230 C   0  0  0  0  0  0  0  0  0  0  0  0
   19.2650    7.5160   33.1470 N   0  0  0  0  0  0  0  0  0  0  0  0
   22.2510    7.0120   31.3820 C   0  0  0  0  0  3  0  0  0  0  0  0
   20.2380    5.7890   32.2630 N   0  0  0  0  0  0  0  0  0  0  0  0
   22.8580    8.2460   31.2890 C   0  0  0  0  0  0  0  0  0  0  0  0
   24.5350    8.4400   30.3930 Br  0  0  0  0  0  0  0  0  0  0  0  0
   22.2480    9.3400   31.8450 C   0  0  0  0  0  3  0  0  0  0  0  0
   19.1900    6.2320   32.9340 N   0  0  0  0  0  0  0  0  0  0  0  0
   18.6260    8.1770   33.6340 H   0  0  0  0  0  0  0  0  0  0  0  0
   19.9000   12.7720   33.2860 C   0  0  0  0  0  2  0  0  0  0  0  0
   20.0420   13.9810   32.4020 C   0  0  0  0  0  0  0  0  0  0  0  0
   21.1830   14.5160   31.9400 N   0  0  0  0  0  0  0  0  0  0  0  0
   20.9270   15.5980   31.1740 C   0  0  0  0  0  0  0  0  0  0  0  0
   22.5750   14.1610   32.1070 C   0  0  0  0  0  2  0  0  0  0  0  0
   19.5960   15.7340   31.1630 N   0  0  0  0  0  0  0  0  0  0  0  0
   22.1100   16.2920   30.5950 C   0  0  0  0  0  2  0  0  0  0  0  0
   19.0570   14.7560   31.9070 N   0  0  0  0  0  0  0  0  0  0  0  0
   22.8840   15.1900   29.8570 C   0  0  0  0  0  2  0  0  0  0  0  0
   23.1990   14.0230   30.7350 C   0  0  0  0  0  2  0  0  0  0  0  0
  1  2  2  0  0  0  0
  3  1  1  0  0  0  0
  3 16  1  0  0  0  0
  4  3  1  0  0  0  0
  5  6  1  0  0  0  0
  5  1  1  0  0  0  0
  6  8  1  0  0  0  0
  7 10  1  0  0  0  0
  7  6  2  0  0  0  0
  8 15  1  0  0  0  0
  9  7  1  0  0  0  0
 10 14  2  0  0  0  0
 11  9  2  0  0  0  0
 11 13  1  0  0  0  0
 12 11  1  0  0  0  0
 13  5  2  0  0  0  0
 14  8  1  0  0  0  0
 17 16  1  0  0  0  0
 18 20  1  0  0  0  0
 18 17  1  0  0  0  0
 19 18  1  0  0  0  0
 21 19  2  0  0  0  0
 21 23  1  0  0  0  0
 22 19  1  0  0  0  0
 23 17  2  0  0  0  0
 24 22  1  0  0  0  0
 24 25  1  0  0  0  0
 25 20  1  0  0  0  0
M  END
>  <Pose>
1

>  <Score>
-9.031

$$$$
