/Users/jonathanwahrer/Desktop/Msc/3_Semester/Drug_Design_Praktikum/waehrer_HTS_screening/HTS_experiment/out/docking_results/vina_output/3elj/1687_docked.pdbqt
 OpenBabel03192218323D

 27 30  0  0  0  0  0  0  0  0999 V2000
   23.3610   13.1270   30.1160 N   0  0  0  0  0  0  0  0  0  0  0  0
   23.7490   13.8560   29.0460 C   0  0  0  0  0  2  0  0  0  0  0  0
   23.4030   15.1810   28.8970 C   0  0  0  0  0  0  0  0  0  0  0  0
   22.5920   15.8310   29.9190 C   0  0  0  0  0  0  0  0  0  0  0  0
   22.4170   17.0960   29.5110 N   0  0  0  0  0  2  0  0  0  0  0  0
   23.0380   17.2980   28.3380 N   0  0  0  0  0  0  0  0  0  0  0  0
   23.6350   16.1590   27.9540 C   0  0  0  0  0  0  0  0  0  0  0  0
   24.2940   16.0350   26.8970 O   0  0  0  0  0  0  0  0  0  0  0  0
   22.2120   15.0540   31.0010 C   0  0  0  0  0  0  0  0  0  0  0  0
   22.6160   13.7490   31.0410 C   0  0  0  0  0  3  0  0  0  0  0  0
   23.0220   18.2270   27.8460 H   0  0  0  0  0  0  0  0  0  0  0  0
   23.7460   11.7250   30.2410 C   0  0  0  0  0  2  0  0  0  0  0  0
   23.5190   11.3070   31.6780 C   0  0  0  0  0  2  0  0  0  0  0  0
   22.7140   10.1080   31.7670 N   0  0  0  0  0  0  0  0  0  0  0  0
   23.0700    8.8840   31.3210 C   0  0  0  0  0  3  0  0  0  0  0  0
   22.0870    8.0000   31.5650 N   0  0  0  0  0  0  0  0  0  0  0  0
   21.0580    8.6410   32.1830 C   0  0  0  0  0  0  0  0  0  0  0  0
   19.8270    8.2240   32.6480 C   0  0  0  0  0  3  0  0  0  0  0  0
   21.4850    9.9500   32.2910 C   0  0  0  0  0  0  0  0  0  0  0  0
   18.9810    9.1340   33.2450 C   0  0  0  0  0  0  0  0  0  0  0  0
   17.3950    8.6730   33.8620 Cl  0  0  0  0  0  0  0  0  0  0  0  0
   19.4190   10.4410   33.3470 C   0  0  0  0  0  3  0  0  0  0  0  0
   20.6480   10.8650   32.8850 C   0  0  0  0  0  3  0  0  0  0  0  0
   21.4000   15.6700   32.0440 C   0  0  0  0  0  0  0  0  0  0  0  0
   20.1610   15.4560   32.0600 O   0  0  0  0  0  0  0  0  0  0  0  0
   21.9510   16.4760   33.0050 O   0  0  0  0  0  0  0  0  0  0  0  0
   23.2050   16.1770   33.5970 C   0  0  0  0  0  1  0  0  0  0  0  0
  1 12  1  0  0  0  0
  1 10  1  0  0  0  0
  2  1  1  0  0  0  0
  3  2  1  0  0  0  0
  3  4  2  0  0  0  0
  4  9  1  0  0  0  0
  5  4  1  0  0  0  0
  6  5  1  0  0  0  0
  7  6  1  0  0  0  0
  7  3  1  0  0  0  0
  8  7  2  0  0  0  0
  9 10  2  0  0  0  0
  9 24  1  0  0  0  0
 11  6  1  0  0  0  0
 12 13  1  0  0  0  0
 13 14  1  0  0  0  0
 14 19  1  0  0  0  0
 15 16  2  0  0  0  0
 15 14  1  0  0  0  0
 16 17  1  0  0  0  0
 17 19  2  0  0  0  0
 17 18  1  0  0  0  0
 18 20  2  0  0  0  0
 19 23  1  0  0  0  0
 20 22  1  0  0  0  0
 20 21  1  0  0  0  0
 23 22  2  0  0  0  0
 24 25  2  0  0  0  0
 24 26  1  0  0  0  0
 26 27  1  0  0  0  0
M  END
>  <Pose>
1

>  <Score>
-9.127

$$$$
