/Users/jonathanwahrer/Desktop/Msc/3_Semester/Drug_Design_Praktikum/waehrer_HTS_screening/HTS_experiment/out/docking_results/vina_output/3elj/1689_docked.pdbqt
 OpenBabel03192218323D

 32 35  0  0  1  0  0  0  0  0999 V2000
   19.8340   13.2120   32.9290 C   0  0  0  0  0  0  0  0  0  0  0  0
   18.6050   13.4340   32.7950 O   0  0  0  0  0  0  0  0  0  0  0  0
   20.7460   14.1550   32.4110 N   0  0  0  0  0  0  0  0  0  0  0  0
   22.1950   14.1650   32.4060 C   0  0  0  0  0  2  0  0  0  0  0  0
   22.5270   14.6870   31.0810 C   0  0  2  0  0  3  0  0  0  0  0  0
   21.2350   15.2360   30.4730 C   0  0  1  0  0  3  0  0  0  0  0  0
   20.3740   15.3760   31.7460 C   0  0  0  0  0  2  0  0  0  0  0  0
   20.2510   11.9750   33.6210 C   0  0  0  0  0  2  0  0  0  0  0  0
   19.2280   10.8970   33.4300 C   0  0  0  0  0  2  0  0  0  0  0  0
   19.8390    9.6580   32.9130 C   0  0  0  0  0  0  0  0  0  0  0  0
   21.0240    9.5790   32.2470 N   0  0  0  0  0  0  0  0  0  0  0  0
   21.3010    8.3140   31.8960 C   0  0  0  0  0  0  0  0  0  0  0  0
   21.6760   10.3680   32.0110 H   0  0  0  0  0  0  0  0  0  0  0  0
   22.3430    7.6940   31.2270 C   0  0  0  0  0  3  0  0  0  0  0  0
   20.2550    7.5510   32.3560 C   0  0  0  0  0  0  0  0  0  0  0  0
   22.3360    6.3210   31.0180 C   0  0  0  0  0  0  0  0  0  0  0  0
   23.6590    5.5590   30.1690 Cl  0  0  0  0  0  0  0  0  0  0  0  0
   21.2890    5.5520   31.4770 C   0  0  0  0  0  3  0  0  0  0  0  0
   20.2530    6.1890   32.1460 C   0  0  0  0  0  3  0  0  0  0  0  0
   19.3900    8.3760   32.9600 N   0  0  0  0  0  0  0  0  0  0  0  0
   23.2550   13.9220   30.1440 N   0  0  0  0  0  0  0  0  0  0  0  0
   23.4480   12.6050   30.4250 C   0  0  0  0  0  3  0  0  0  0  0  0
   24.1410   11.7750   29.5730 C   0  0  0  0  0  0  0  0  0  0  0  0
   24.6620   12.2650   28.3990 C   0  0  0  0  0  0  0  0  0  0  0  0
   24.3450   10.3240   29.8960 C   0  0  0  0  0  1  0  0  0  0  0  0
   25.3050   11.5220   27.5970 O   0  0  0  0  0  0  0  0  0  0  0  0
   24.4710   13.5640   28.1220 N   0  0  0  0  0  0  0  0  0  0  0  0
   23.7900   14.3210   28.9860 C   0  0  0  0  0  0  0  0  0  0  0  0
   24.8670   13.9700   27.2180 H   0  0  0  0  0  0  0  0  0  0  0  0
   23.6410   15.5200   28.6760 O   0  0  0  0  0  0  0  0  0  0  0  0
   21.4010   16.4520   29.8580 O   0  0  0  0  0  0  0  0  0  0  0  0
   21.9220   16.3100   29.0280 H   0  0  0  0  0  0  0  0  0  0  0  0
  1  8  1  0  0  0  0
  2  1  2  0  0  0  0
  3  1  1  0  0  0  0
  4  3  1  0  0  0  0
  5 21  1  6  0  0  0
  5  4  1  0  0  0  0
  6 31  1  1  0  0  0
  6  5  1  0  0  0  0
  6  7  1  0  0  0  0
  7  3  1  0  0  0  0
  9  8  1  0  0  0  0
 10 20  2  0  0  0  0
 10  9  1  0  0  0  0
 11 10  1  0  0  0  0
 12 11  1  0  0  0  0
 12 15  1  0  0  0  0
 13 11  1  0  0  0  0
 14 12  2  0  0  0  0
 15 20  1  0  0  0  0
 16 14  1  0  0  0  0
 16 18  2  0  0  0  0
 17 16  1  0  0  0  0
 18 19  1  0  0  0  0
 19 15  2  0  0  0  0
 21 22  1  0  0  0  0
 23 25  1  0  0  0  0
 23 22  2  0  0  0  0
 24 23  1  0  0  0  0
 26 24  2  0  0  0  0
 27 24  1  0  0  0  0
 27 28  1  0  0  0  0
 28 21  1  0  0  0  0
 29 27  1  0  0  0  0
 30 28  2  0  0  0  0
 32 31  1  0  0  0  0
M  END
>  <Pose>
1

>  <Score>
-9.506

$$$$
