/Users/jonathanwahrer/Desktop/Msc/3_Semester/Drug_Design_Praktikum/waehrer_HTS_screening/HTS_experiment/out/docking_results/vina_output/3elj/1690_docked.pdbqt
 OpenBabel03192218323D

 34 37  0  0  1  0  0  0  0  0999 V2000
   27.7670    7.4850   27.3790 C   0  0  0  0  0  0  0  0  0  0  0  0
   27.4320    6.9140   26.3100 O   0  0  0  0  0  0  0  0  0  0  0  0
   28.4480    8.7390   27.3580 N   0  0  0  0  0  0  0  0  0  0  0  0
   28.8640    9.4520   28.5450 C   0  0  0  0  0  2  0  0  0  0  0  0
   28.6980   10.9680   28.3440 C   0  0  2  0  0  0  0  0  0  0  0  0
   27.6180   11.1430   27.3320 C   0  0  2  0  0  3  0  0  0  0  0  0
   28.1370   10.7310   25.9730 C   0  0  0  0  0  2  0  0  0  0  0  0
   28.7470    9.3490   26.0790 C   0  0  0  0  0  2  0  0  0  0  0  0
   30.0380   11.5040   27.9510 C   0  0  0  0  0  1  0  0  0  0  0  0
   27.4670    6.8730   28.6850 C   0  0  0  0  0  2  0  0  0  0  0  0
   26.1020    6.2490   28.6440 C   0  0  0  0  0  2  0  0  0  0  0  0
   25.1910    7.0300   29.5140 C   0  0  0  0  0  0  0  0  0  0  0  0
   23.9630    6.6120   29.9250 N   0  0  0  0  0  0  0  0  0  0  0  0
   23.3790    7.5440   30.6890 C   0  0  0  0  0  0  0  0  0  0  0  0
   23.5570    5.6730   29.6590 H   0  0  0  0  0  0  0  0  0  0  0  0
   22.1690    7.6120   31.3380 C   0  0  0  0  0  3  0  0  0  0  0  0
   24.2670    8.5890   30.7660 C   0  0  0  0  0  0  0  0  0  0  0  0
   21.7970    8.7190   32.0810 C   0  0  0  0  0  0  0  0  0  0  0  0
   20.2610    8.8180   32.9100 Cl  0  0  0  0  0  0  0  0  0  0  0  0
   22.6960    9.7680   32.1540 C   0  0  0  0  0  3  0  0  0  0  0  0
   23.9200    9.7010   31.5000 C   0  0  0  0  0  3  0  0  0  0  0  0
   25.3350    8.2350   30.0460 N   0  0  0  0  0  0  0  0  0  0  0  0
   28.3360   11.4670   29.6040 O   0  0  0  0  0  0  0  0  0  0  0  0
   29.1430   11.4320   30.2120 H   0  0  0  0  0  0  0  0  0  0  0  0
   26.9600   12.4020   27.3290 N   0  0  0  0  0  0  0  0  0  0  0  0
   27.3990   13.4690   26.6440 C   0  0  0  0  0  3  0  0  0  0  0  0
   26.7290   14.6860   26.6650 C   0  0  0  0  0  0  0  0  0  0  0  0
   25.5790   14.8030   27.4110 C   0  0  0  0  0  0  0  0  0  0  0  0
   27.2690   15.8460   25.8760 C   0  0  0  0  0  1  0  0  0  0  0  0
   24.9630   15.9130   27.4320 O   0  0  0  0  0  0  0  0  0  0  0  0
   25.1440   13.7350   28.0940 N   0  0  0  0  0  0  0  0  0  0  0  0
   25.8270   12.5790   28.0410 C   0  0  0  0  0  0  0  0  0  0  0  0
   24.2740   13.8100   28.6620 H   0  0  0  0  0  0  0  0  0  0  0  0
   25.4070   11.5610   28.6960 O   0  0  0  0  0  0  0  0  0  0  0  0
  1 10  1  0  0  0  0
  2  1  2  0  0  0  0
  3  1  1  0  0  0  0
  3  4  1  0  0  0  0
  5  9  1  6  0  0  0
  5  4  1  0  0  0  0
  5 23  1  0  0  0  0
  6  7  1  6  0  0  0
  6  5  1  0  0  0  0
  7  8  1  0  0  0  0
  8  3  1  0  0  0  0
 11 10  1  0  0  0  0
 11 12  1  0  0  0  0
 12 13  1  0  0  0  0
 12 22  2  0  0  0  0
 13 14  1  0  0  0  0
 14 17  2  0  0  0  0
 14 16  1  0  0  0  0
 15 13  1  0  0  0  0
 16 18  2  0  0  0  0
 17 21  1  0  0  0  0
 18 20  1  0  0  0  0
 18 19  1  0  0  0  0
 21 20  2  0  0  0  0
 22 17  1  0  0  0  0
 23 24  1  0  0  0  0
 25  6  1  0  0  0  0
 25 32  1  0  0  0  0
 26 27  2  0  0  0  0
 26 25  1  0  0  0  0
 27 28  1  0  0  0  0
 28 30  2  0  0  0  0
 28 31  1  0  0  0  0
 29 27  1  0  0  0  0
 31 33  1  0  0  0  0
 32 31  1  0  0  0  0
 32 34  2  0  0  0  0
M  END
>  <Pose>
1

>  <Score>
-7.807

$$$$
