/Users/jonathanwahrer/Desktop/Msc/3_Semester/Drug_Design_Praktikum/waehrer_HTS_screening/HTS_experiment/out/docking_results/vina_output/3elj/1691_docked.pdbqt
 OpenBabel03192218333D

 35 39  0  0  1  0  0  0  0  0999 V2000
   25.5810   11.7450   29.3700 C   0  0  0  0  0  0  0  0  0  0  0  0
   26.5310   11.1250   29.8840 O   0  0  0  0  0  0  0  0  0  0  0  0
   24.5320   12.2210   30.1730 N   0  0  0  0  0  0  0  0  0  0  0  0
   24.2950   12.1320   31.5790 C   0  0  0  0  0  2  0  0  0  0  0  0
   22.7800   11.8410   31.6980 C   0  0  1  0  0  3  0  0  0  0  0  0
   22.2810   12.6300   30.5400 C   0  0  2  0  0  3  0  0  0  0  0  0
   23.4180   12.9810   29.6400 C   0  0  0  0  0  2  0  0  0  0  0  0
   25.5690   11.9710   27.9160 C   0  0  0  0  0  2  0  0  0  0  0  0
   26.9620   11.8240   27.3470 C   0  0  0  0  0  2  0  0  0  0  0  0
   27.4250   13.1590   26.8420 C   0  0  0  0  0  0  0  0  0  0  0  0
   28.3340   13.9350   27.4580 N   0  0  0  0  0  0  0  0  0  0  0  0
   28.5440   15.0680   26.7670 C   0  0  0  0  0  0  0  0  0  0  0  0
   28.8340   13.7140   28.3600 H   0  0  0  0  0  0  0  0  0  0  0  0
   29.3680   16.1760   26.9720 C   0  0  0  0  0  3  0  0  0  0  0  0
   27.7230   14.9960   25.6630 C   0  0  0  0  0  0  0  0  0  0  0  0
   29.3640   17.2100   26.0660 C   0  0  0  0  0  0  0  0  0  0  0  0
   30.3830   18.6290   26.2780 Cl  0  0  0  0  0  0  0  0  0  0  0  0
   28.5490   17.1340   24.9710 C   0  0  0  0  0  3  0  0  0  0  0  0
   27.7210   16.0320   24.7540 C   0  0  0  0  0  3  0  0  0  0  0  0
   27.0620   13.8230   25.7440 N   0  0  0  0  0  0  0  0  0  0  0  0
   22.5760   10.4250   31.5840 N   0  0  0  0  0  0  0  0  0  0  0  0
   21.5580    9.6930   32.0680 C   0  0  0  0  0  0  0  0  0  0  0  0
   21.7670    8.3440   31.7170 C   0  0  0  0  0  0  0  0  0  0  0  0
   20.4610   10.0270   32.7770 N   0  0  0  0  0  0  0  0  0  0  0  0
   22.9190    8.3150   31.0280 N   0  0  0  0  0  0  0  0  0  0  0  0
   20.8740    7.3630   32.0860 C   0  0  0  0  0  0  0  0  0  0  0  0
   23.4140    9.5470   30.9390 C   0  0  0  0  0  3  0  0  0  0  0  0
   21.0890    6.1650   31.7570 O   0  0  0  0  0  0  0  0  0  0  0  0
   19.7980    7.7350   32.7880 N   0  0  0  0  0  0  0  0  0  0  0  0
   19.6070    9.0140   33.1160 C   0  0  0  0  0  0  0  0  0  0  0  0
   18.8290    6.7140   33.1950 C   0  0  0  0  0  1  0  0  0  0  0  0
   18.5890    9.3470   33.7780 O   0  0  0  0  0  0  0  0  0  0  0  0
   20.1950   11.3760   33.1630 C   0  0  0  0  0  1  0  0  0  0  0  0
   21.6720   13.8290   30.9100 O   0  0  0  0  0  0  0  0  0  0  0  0
   20.8980   14.0460   30.3180 H   0  0  0  0  0  0  0  0  0  0  0  0
  1  2  2  0  0  0  0
  1  3  1  0  0  0  0
  3  4  1  0  0  0  0
  5  4  1  6  0  0  0
  6 34  1  1  0  0  0
  6  5  1  0  0  0  0
  7  3  1  0  0  0  0
  7  6  1  0  0  0  0
  8  1  1  0  0  0  0
  9  8  1  0  0  0  0
 10  9  1  0  0  0  0
 10 11  1  0  0  0  0
 11 13  1  0  0  0  0
 12 14  1  0  0  0  0
 12 11  1  0  0  0  0
 15 20  1  0  0  0  0
 15 12  2  0  0  0  0
 16 17  1  0  0  0  0
 16 14  2  0  0  0  0
 18 16  1  0  0  0  0
 19 18  2  0  0  0  0
 19 15  1  0  0  0  0
 20 10  2  0  0  0  0
 21  5  1  0  0  0  0
 21 22  1  0  0  0  0
 22 24  1  0  0  0  0
 23 22  2  0  0  0  0
 23 26  1  0  0  0  0
 24 30  1  0  0  0  0
 24 33  1  0  0  0  0
 25 23  1  0  0  0  0
 26 29  1  0  0  0  0
 27 25  2  0  0  0  0
 27 21  1  0  0  0  0
 28 26  2  0  0  0  0
 29 30  1  0  0  0  0
 29 31  1  0  0  0  0
 30 32  2  0  0  0  0
 35 34  1  0  0  0  0
M  END
>  <Pose>
1

>  <Score>
-8.960

$$$$
