/Users/jonathanwahrer/Desktop/Msc/3_Semester/Drug_Design_Praktikum/waehrer_HTS_screening/HTS_experiment/out/docking_results/vina_output/3elj/1706_docked.pdbqt
 OpenBabel03192218333D

 25 28  0  0  1  0  0  0  0  0999 V2000
   19.6030   15.0740   31.4430 F   0  0  0  0  0  0  0  0  0  0  0  0
   20.1070   13.8150   31.6690 C   0  0  0  0  0  0  0  0  0  0  0  0
   21.3170   13.4590   31.0600 C   0  0  0  0  0  0  0  0  0  0  0  0
   21.8340   12.2170   31.2720 C   0  0  0  0  0  0  0  0  0  0  0  0
   21.1610   11.3020   32.0930 C   0  0  0  0  0  3  0  0  0  0  0  0
   19.9810   11.6760   32.6750 C   0  0  0  0  0  3  0  0  0  0  0  0
   19.4410   12.9240   32.4750 C   0  0  0  0  0  0  0  0  0  0  0  0
   17.9160   13.4030   33.2310 Cl  0  0  0  0  0  0  0  0  0  0  0  0
   23.1100   12.0990   30.5190 C   0  0  2  0  0  0  0  0  0  0  0  0
   23.0150   11.0150   29.5930 N   0  0  0  0  0  0  0  0  0  0  0  0
   23.3350    9.6970   29.9810 C   0  0  0  0  0  0  0  0  0  0  0  0
   22.9490    8.6170   29.2530 N   0  0  0  0  0  0  0  0  0  0  0  0
   23.2250    7.3490   29.5750 C   0  0  0  0  0  3  0  0  0  0  0  0
   23.9580    7.0880   30.7280 C   0  0  0  0  0  3  0  0  0  0  0  0
   24.3850    8.1190   31.5170 C   0  0  0  0  0  3  0  0  0  0  0  0
   24.0640    9.4000   31.1240 C   0  0  0  0  0  0  0  0  0  0  0  0
   24.4750   10.5740   31.9010 C   0  0  0  0  0  0  0  0  0  0  0  0
   25.1490   10.3480   32.9630 O   0  0  0  0  0  0  0  0  0  0  0  0
   24.1530   11.8850   31.5070 N   0  0  0  0  0  0  0  0  0  0  0  0
   23.2660   13.3990   29.8560 C   0  0  0  0  0  0  0  0  0  0  0  0
   24.2290   13.7680   29.0870 O   0  0  0  0  0  0  0  0  0  0  0  0
   22.1740   14.2140   30.1930 N   0  0  0  0  0  0  0  0  0  0  0  0
   22.7060   11.1680   28.6030 H   0  0  0  0  0  0  0  0  0  0  0  0
   24.6860   12.6670   31.9520 H   0  0  0  0  0  0  0  0  0  0  0  0
   21.9630   15.2040   29.8970 H   0  0  0  0  0  0  0  0  0  0  0  0
  1  2  1  0  0  0  0
  2  7  1  0  0  0  0
  3  4  1  0  0  0  0
  3  2  2  0  0  0  0
  4  5  2  0  0  0  0
  5  6  1  0  0  0  0
  7  6  2  0  0  0  0
  7  8  1  0  0  0  0
  9 20  1  6  0  0  0
  9  4  1  0  0  0  0
  9 19  1  0  0  0  0
 10 11  1  0  0  0  0
 10  9  1  0  0  0  0
 11 16  1  0  0  0  0
 12 13  1  0  0  0  0
 12 11  2  0  0  0  0
 13 14  2  0  0  0  0
 14 15  1  0  0  0  0
 16 15  2  0  0  0  0
 16 17  1  0  0  0  0
 17 18  2  0  0  0  0
 19 17  1  0  0  0  0
 19 24  1  0  0  0  0
 20 22  1  0  0  0  0
 21 20  2  0  0  0  0
 22  3  1  0  0  0  0
 23 10  1  0  0  0  0
 25 22  1  0  0  0  0
M  END
>  <Pose>
1

>  <Score>
-8.148

$$$$
