/Users/jonathanwahrer/Desktop/Msc/3_Semester/Drug_Design_Praktikum/waehrer_HTS_screening/HTS_experiment/out/docking_results/vina_output/3elj/1741_docked.pdbqt
 OpenBabel03192218353D

 28 31  0  0  0  0  0  0  0  0999 V2000
   23.8050    8.9350   29.8870 C   0  0  0  0  0  0  0  0  0  0  0  0
   23.0030    8.6740   28.9690 O   0  0  0  0  0  0  0  0  0  0  0  0
   24.4620   10.1740   29.9240 N   0  0  0  0  0  0  0  0  0  0  0  0
   24.2600   11.2110   28.9360 C   0  0  0  0  0  2  0  0  0  0  0  0
   23.9230   12.4840   29.6940 C   0  0  0  0  0  2  0  0  0  0  0  0
   23.7490   12.2420   31.0660 N   0  0  0  0  0  0  0  0  0  0  0  0
   24.7740   11.6340   31.8100 C   0  0  0  0  0  2  0  0  0  0  0  0
   25.4160   10.5230   30.9870 C   0  0  0  0  0  2  0  0  0  0  0  0
   24.0500    7.8980   30.9460 C   0  0  0  0  0  2  0  0  0  0  0  0
   22.8610    7.1210   31.2220 N   0  0  0  0  0  0  0  0  0  0  0  0
   21.7210    7.6020   31.7970 C   0  0  0  0  0  0  0  0  0  0  0  0
   20.7880    6.6000   31.9190 C   0  0  0  0  0  0  0  0  0  0  0  0
   21.4170    8.8710   32.2350 C   0  0  0  0  0  3  0  0  0  0  0  0
   19.5330    6.8260   32.4750 C   0  0  0  0  0  3  0  0  0  0  0  0
   21.3610    5.4570   31.4040 C   0  0  0  0  0  3  0  0  0  0  0  0
   19.2170    8.1110   32.9220 C   0  0  0  0  0  0  0  0  0  0  0  0
   17.4960    8.4560   33.6930 Br  0  0  0  0  0  0  0  0  0  0  0  0
   20.1650    9.1040   32.7920 C   0  0  0  0  0  3  0  0  0  0  0  0
   22.6260    5.8240   30.9910 C   0  0  0  0  0  3  0  0  0  0  0  0
   22.4910   12.4480   31.6540 C   0  0  0  0  0  2  0  0  0  0  0  0
   21.8680   13.7580   31.3310 C   0  0  0  0  0  0  0  0  0  0  0  0
   22.5250   14.5220   30.5810 O   0  0  0  0  0  0  0  0  0  0  0  0
   20.6150   14.1680   31.8130 N   0  0  0  0  0  0  0  0  0  0  0  0
   20.0830   15.4680   31.4560 C   0  0  0  0  0  2  0  0  0  0  0  0
   19.7760   13.3610   32.6760 C   0  0  0  0  0  2  0  0  0  0  0  0
   18.7050   15.2400   30.8700 C   0  0  0  0  0  2  0  0  0  0  0  0
   17.9280   14.7430   31.9270 O   0  0  0  0  0  0  0  0  0  0  0  0
   18.3370   13.4890   32.3120 C   0  0  0  0  0  2  0  0  0  0  0  0
  1  3  1  0  0  0  0
  1  9  1  0  0  0  0
  2  1  2  0  0  0  0
  3  8  1  0  0  0  0
  4  5  1  0  0  0  0
  4  3  1  0  0  0  0
  5  6  1  0  0  0  0
  6 20  1  0  0  0  0
  6  7  1  0  0  0  0
  8  7  1  0  0  0  0
  9 10  1  0  0  0  0
 10 11  1  0  0  0  0
 11 12  2  0  0  0  0
 11 13  1  0  0  0  0
 12 14  1  0  0  0  0
 13 18  2  0  0  0  0
 14 16  2  0  0  0  0
 15 12  1  0  0  0  0
 16 17  1  0  0  0  0
 18 16  1  0  0  0  0
 19 10  1  0  0  0  0
 19 15  2  0  0  0  0
 21 20  1  0  0  0  0
 21 23  1  0  0  0  0
 22 21  2  0  0  0  0
 23 25  1  0  0  0  0
 24 23  1  0  0  0  0
 26 24  1  0  0  0  0
 26 27  1  0  0  0  0
 27 28  1  0  0  0  0
 28 25  1  0  0  0  0
M  END
>  <Pose>
1

>  <Score>
-9.663

$$$$
