/Users/jonathanwahrer/Desktop/Msc/3_Semester/Drug_Design_Praktikum/waehrer_HTS_screening/HTS_experiment/out/docking_results/vina_output/3elj/1744_docked.pdbqt
 OpenBabel03192218353D

 34 37  0  0  1  0  0  0  0  0999 V2000
   23.8930   12.7490   30.5170 N   0  0  0  0  0  0  0  0  0  0  0  0
   23.9640   13.0170   29.1170 C   0  0  0  0  0  0  0  0  0  0  0  0
   23.2340   13.8540   28.5320 O   0  0  0  0  0  0  0  0  0  0  0  0
   24.9180   12.2960   28.3400 N   0  0  0  0  0  0  0  0  0  0  0  0
   25.7670   11.3330   28.9830 C   0  0  0  0  0  0  0  0  0  0  0  0
   26.7470   10.9050   28.2860 O   0  0  0  0  0  0  0  0  0  0  0  0
   25.5330   10.8600   30.3600 C   0  0  1  0  0  3  0  0  0  0  0  0
   24.7270   11.8040   31.1730 C   0  0  0  0  0  0  0  0  0  0  0  0
   24.8100   11.7320   32.4240 O   0  0  0  0  0  0  0  0  0  0  0  0
   25.0240   12.4440   27.3040 H   0  0  0  0  0  0  0  0  0  0  0  0
   24.8760    9.5000   30.3480 C   0  0  1  0  0  3  0  0  0  0  0  0
   24.0010    9.1080   29.4400 C   0  0  0  0  0  2  0  0  0  0  0  0
   23.6310    7.7280   29.8270 C   0  0  1  0  0  3  0  0  0  0  0  0
   24.8320    7.2760   30.5060 N   0  0  0  0  0  0  0  0  0  0  0  0
   25.1060    8.4360   31.2710 N   0  0  0  0  0  0  0  0  0  0  0  0
   24.7250    6.4240   31.0630 H   0  0  0  0  0  0  0  0  0  0  0  0
   25.3990    8.5670   32.2390 H   0  0  0  0  0  0  0  0  0  0  0  0
   22.4690    7.7350   30.7590 C   0  0  0  0  0  0  0  0  0  0  0  0
   21.8920    6.6220   31.3010 C   0  0  0  0  0  3  0  0  0  0  0  0
   20.8400    6.6840   32.1920 C   0  0  0  0  0  0  0  0  0  0  0  0
   20.3210    7.9070   32.5750 C   0  0  0  0  0  0  0  0  0  0  0  0
   20.9180    9.0480   32.0140 C   0  0  0  0  0  3  0  0  0  0  0  0
   21.9650    8.9670   31.1260 C   0  0  0  0  0  3  0  0  0  0  0  0
   20.2800    5.5070   32.7210 O   0  0  0  0  0  0  0  0  0  0  0  0
   20.2140    5.4220   33.7300 H   0  0  0  0  0  0  0  0  0  0  0  0
   19.2770    8.0090   33.4630 O   0  0  0  0  0  0  0  0  0  0  0  0
   18.4040    9.1190   33.4650 C   0  0  0  0  0  1  0  0  0  0  0  0
   22.9220   13.4670   31.2690 C   0  0  0  0  0  0  0  0  0  0  0  0
   21.7200   12.8860   31.6350 C   0  0  0  0  0  3  0  0  0  0  0  0
   20.7690   13.5460   32.3730 C   0  0  0  0  0  0  0  0  0  0  0  0
   19.2660   12.7740   32.8060 Cl  0  0  0  0  0  0  0  0  0  0  0  0
   21.0430   14.8460   32.7570 C   0  0  0  0  0  3  0  0  0  0  0  0
   22.2290   15.4620   32.4120 C   0  0  0  0  0  3  0  0  0  0  0  0
   23.1600   14.7490   31.6620 C   0  0  0  0  0  3  0  0  0  0  0  0
  1  8  1  0  0  0  0
  1 28  1  0  0  0  0
  2  1  1  0  0  0  0
  3  2  2  0  0  0  0
  4  5  1  0  0  0  0
  4  2  1  0  0  0  0
  6  5  2  0  0  0  0
  7  5  1  6  0  0  0
  7  8  1  0  0  0  0
  8  9  2  0  0  0  0
 10  4  1  0  0  0  0
 11 12  1  6  0  0  0
 11  7  1  0  0  0  0
 11 15  1  0  0  0  0
 12 13  1  0  0  0  0
 13 14  1  0  0  0  0
 13 18  1  1  0  0  0
 14 16  1  0  0  0  0
 14 15  1  0  0  0  0
 15 17  1  0  0  0  0
 18 23  2  0  0  0  0
 18 19  1  0  0  0  0
 19 20  2  0  0  0  0
 20 21  1  0  0  0  0
 20 24  1  0  0  0  0
 21 26  1  0  0  0  0
 22 21  2  0  0  0  0
 23 22  1  0  0  0  0
 24 25  1  0  0  0  0
 26 27  1  0  0  0  0
 28 29  2  0  0  0  0
 28 34  1  0  0  0  0
 29 30  1  0  0  0  0
 30 32  2  0  0  0  0
 30 31  1  0  0  0  0
 33 32  1  0  0  0  0
 34 33  2  0  0  0  0
M  END
>  <Pose>
1

>  <Score>
-9.496

$$$$
