/Users/jonathanwahrer/Desktop/Msc/3_Semester/Drug_Design_Praktikum/waehrer_HTS_screening/HTS_experiment/out/docking_results/vina_output/3elj/1745_docked.pdbqt
 OpenBabel03192218363D

 34 37  0  0  1  0  0  0  0  0999 V2000
   23.1480    9.4480   31.0260 N   0  0  0  0  0  0  0  0  0  0  0  0
   24.3570    9.7580   31.6990 C   0  0  0  0  0  0  0  0  0  0  0  0
   24.5830    9.3490   32.8460 O   0  0  0  0  0  0  0  0  0  0  0  0
   25.3510   10.5650   31.0500 N   0  0  0  0  0  0  0  0  0  0  0  0
   25.1460   11.0620   29.7290 C   0  0  0  0  0  0  0  0  0  0  0  0
   26.0890   11.3800   28.9850 O   0  0  0  0  0  0  0  0  0  0  0  0
   23.7310   11.2020   29.2330 C   0  0  1  0  0  3  0  0  0  0  0  0
   23.0140    9.9940   29.6950 C   0  0  0  0  0  0  0  0  0  0  0  0
   22.2190    9.3590   28.9130 O   0  0  0  0  0  0  0  0  0  0  0  0
   26.2200   10.7790   31.5560 H   0  0  0  0  0  0  0  0  0  0  0  0
   23.1480   12.4700   29.7650 C   0  0  2  0  0  3  0  0  0  0  0  0
   23.6600   13.3200   30.6310 C   0  0  0  0  0  2  0  0  0  0  0  0
   22.6900   14.4310   30.8360 C   0  0  2  0  0  3  0  0  0  0  0  0
   21.4210   13.7600   30.4550 N   0  0  0  0  0  0  0  0  0  0  0  0
   21.8490   12.9510   29.3940 N   0  0  0  0  0  0  0  0  0  0  0  0
   21.0600   13.2100   31.2590 H   0  0  0  0  0  0  0  0  0  0  0  0
   21.3610   12.7340   28.5320 H   0  0  0  0  0  0  0  0  0  0  0  0
   22.9170   15.4710   29.7970 C   0  0  0  0  0  0  0  0  0  0  0  0
   23.8010   15.2540   28.7180 C   0  0  0  0  0  3  0  0  0  0  0  0
   24.0140   16.1610   27.7260 C   0  0  0  0  0  0  0  0  0  0  0  0
   23.3420   17.3680   27.7530 C   0  0  0  0  0  0  0  0  0  0  0  0
   22.4730   17.6140   28.7910 C   0  0  0  0  0  3  0  0  0  0  0  0
   22.2670   16.6870   29.7880 C   0  0  0  0  0  3  0  0  0  0  0  0
   24.9070   15.8960   26.6780 O   0  0  0  0  0  0  0  0  0  0  0  0
   26.0770   15.1510   26.9360 C   0  0  0  0  0  1  0  0  0  0  0  0
   23.5460   18.3060   26.7460 O   0  0  0  0  0  0  0  0  0  0  0  0
   23.9440   18.0030   25.8670 H   0  0  0  0  0  0  0  0  0  0  0  0
   22.1140    8.6310   31.5570 C   0  0  0  0  0  0  0  0  0  0  0  0
   21.0460    9.2700   32.1990 C   0  0  0  0  0  3  0  0  0  0  0  0
   20.0030    8.5670   32.7600 C   0  0  0  0  0  0  0  0  0  0  0  0
   18.7190    9.4480   33.5420 Cl  0  0  0  0  0  0  0  0  0  0  0  0
   19.9620    7.1990   32.7150 C   0  0  0  0  0  3  0  0  0  0  0  0
   21.0230    6.5520   32.0760 C   0  0  0  0  0  3  0  0  0  0  0  0
   22.0640    7.2620   31.5180 C   0  0  0  0  0  3  0  0  0  0  0  0
  1 28  1  0  0  0  0
  1  2  1  0  0  0  0
  2  3  2  0  0  0  0
  4 10  1  0  0  0  0
  4  2  1  0  0  0  0
  5  4  1  0  0  0  0
  6  5  2  0  0  0  0
  7  8  1  1  0  0  0
  7  5  1  0  0  0  0
  7 11  1  0  0  0  0
  8  1  1  0  0  0  0
  9  8  2  0  0  0  0
 11 12  1  1  0  0  0
 12 13  1  0  0  0  0
 13 18  1  6  0  0  0
 14 13  1  0  0  0  0
 14 16  1  0  0  0  0
 15 11  1  0  0  0  0
 15 14  1  0  0  0  0
 17 15  1  0  0  0  0
 19 18  2  0  0  0  0
 20 21  2  0  0  0  0
 20 19  1  0  0  0  0
 21 22  1  0  0  0  0
 22 23  2  0  0  0  0
 23 18  1  0  0  0  0
 24 25  1  0  0  0  0
 24 20  1  0  0  0  0
 26 21  1  0  0  0  0
 27 26  1  0  0  0  0
 28 29  1  0  0  0  0
 29 30  2  0  0  0  0
 30 31  1  0  0  0  0
 32 30  1  0  0  0  0
 33 32  2  0  0  0  0
 34 28  2  0  0  0  0
 34 33  1  0  0  0  0
M  END
>  <Pose>
1

>  <Score>
-9.445

$$$$
