/Users/jonathanwahrer/Desktop/Msc/3_Semester/Drug_Design_Praktikum/waehrer_HTS_screening/HTS_experiment/out/docking_results/vina_output/3elj/1758_docked.pdbqt
 OpenBabel03192218363D

 28 32  0  0  1  0  0  0  0  0999 V2000
   22.5560    5.5580   31.7440 N   0  0  0  0  0  0  0  0  0  0  0  0
   21.2900    5.3470   32.0570 N   0  0  0  0  0  0  0  0  0  0  0  0
   20.5830    6.4950   32.0810 C   0  0  0  0  0  0  0  0  0  0  0  0
   19.3120    6.6810   32.3480 C   0  0  0  0  0  1  0  0  0  0  0  0
   21.4690    7.5050   31.7590 C   0  0  0  0  0  0  0  0  0  0  0  0
   22.6810    6.8830   31.5570 C   0  0  0  0  0  0  0  0  0  0  0  0
   23.7520    7.4620   31.2440 O   0  0  0  0  0  0  0  0  0  0  0  0
   20.8660    4.4130   32.2650 H   0  0  0  0  0  0  0  0  0  0  0  0
   21.1800    8.8120   31.6680 C   0  0  0  0  0  2  0  0  0  0  0  0
   22.0600    9.7020   32.3440 N   0  0  0  0  0  0  0  0  0  0  0  0
   22.3330    9.6040   33.3410 H   0  0  0  0  0  0  0  0  0  0  0  0
   22.6190   10.8230   31.6060 C   0  0  2  0  0  0  0  0  0  0  0  0
   21.8450   12.0920   31.9260 C   0  0  0  0  0  2  0  0  0  0  0  0
   22.4490   13.1980   31.2360 N   0  0  2  0  0  0  0  0  0  0  0  0
   22.3700   12.9150   29.8060 C   0  0  0  0  0  2  0  0  0  0  0  0
   23.8230   13.3170   31.6680 C   0  0  0  0  0  2  0  0  0  0  0  0
   23.1270   11.7450   29.4580 N   0  0  1  0  0  0  0  0  0  0  0  0
   24.5010   11.8800   29.8890 C   0  0  0  0  0  2  0  0  0  0  0  0
   22.5450   10.6080   30.1240 C   0  0  0  0  0  2  0  0  0  0  0  0
   24.6020   12.1390   31.3010 N   0  0  2  0  0  0  0  0  0  0  0  0
   24.0590   11.0150   32.0270 C   0  0  0  0  0  2  0  0  0  0  0  0
   23.5910    4.5620   31.6260 C   0  0  0  0  0  0  0  0  0  0  0  0
   24.4880    4.5320   30.6070 C   0  0  0  0  0  3  0  0  0  0  0  0
   25.4550    3.5260   30.5810 C   0  0  0  0  0  3  0  0  0  0  0  0
   25.5250    2.5600   31.5640 C   0  0  0  0  0  0  0  0  0  0  0  0
   26.9850    1.0440   31.5220 I   0  0  0  0  0  0  0  0  0  0  0  0
   24.6180    2.5870   32.5990 C   0  0  0  0  0  3  0  0  0  0  0  0
   23.6720    3.5890   32.6060 C   0  0  0  0  0  3  0  0  0  0  0  0
  1  2  1  0  0  0  0
  2  3  1  0  0  0  0
  2  8  1  0  0  0  0
  3  4  1  0  0  0  0
  5  3  2  0  0  0  0
  6  1  1  0  0  0  0
  6  5  1  0  0  0  0
  7  6  2  0  0  0  0
  9  5  1  0  0  0  0
  9 10  1  0  0  0  0
 10 11  1  0  0  0  0
 12 13  1  0  0  0  0
 12 21  1  0  0  0  0
 12 10  1  1  0  0  0
 14 15  1  6  0  0  0
 14 16  1  0  0  0  0
 14 13  1  0  0  0  0
 17 15  1  1  0  0  0
 17 18  1  0  0  0  0
 17 19  1  0  0  0  0
 19 12  1  0  0  0  0
 20 18  1  6  0  0  0
 20 16  1  0  0  0  0
 20 21  1  0  0  0  0
 22  1  1  0  0  0  0
 22 28  1  0  0  0  0
 23 22  2  0  0  0  0
 24 23  1  0  0  0  0
 24 25  2  0  0  0  0
 25 27  1  0  0  0  0
 26 25  1  0  0  0  0
 27 28  2  0  0  0  0
M  END
>  <Pose>
1

>  <Score>
-7.697

$$$$
