/Users/jonathanwahrer/Desktop/Msc/3_Semester/Drug_Design_Praktikum/waehrer_HTS_screening/HTS_experiment/out/docking_results/vina_output/3elj/1764_docked.pdbqt
 OpenBabel03192218363D

 34 37  0  0  1  0  0  0  0  0999 V2000
   20.9060    6.8700   32.3710 N   0  0  0  0  0  0  0  0  0  0  0  0
   20.2180    7.9320   31.8150 C   0  0  1  0  0  3  0  0  0  0  0  0
   18.7310    7.6120   32.0240 C   0  0  0  0  0  2  0  0  0  0  0  0
   18.7510    6.9500   33.3840 C   0  0  0  0  0  2  0  0  0  0  0  0
   20.1180    6.3140   33.4670 C   0  0  0  0  0  2  0  0  0  0  0  0
   21.7890    5.7430   31.5310 S   0  0  0  0  0  0  0  0  0  0  0  0
   20.9870    5.0780   30.4140 O   0  0  0  0  0  0  0  0  0  0  0  0
   22.1140    4.5840   32.4760 O   0  0  0  0  0  0  0  0  0  0  0  0
   23.2990    6.3120   30.8830 C   0  0  0  0  0  0  0  0  0  0  0  0
   23.4220    7.6710   30.5500 C   0  0  0  0  0  3  0  0  0  0  0  0
   24.5370    8.2160   29.9800 C   0  0  0  0  0  0  0  0  0  0  0  0
   25.5950    7.3630   29.7240 C   0  0  0  0  0  0  0  0  0  0  0  0
   24.6530    9.5580   29.6540 O   0  0  0  0  0  0  0  0  0  0  0  0
   25.5450    6.0350   30.0220 C   0  0  0  0  0  3  0  0  0  0  0  0
   26.7760    7.9240   29.1290 N   0  0  0  0  0  0  0  0  0  0  0  0
   24.3860    5.5330   30.6020 C   0  0  0  0  0  0  0  0  0  0  0  0
   24.4370    3.8420   31.0510 Cl  0  0  0  0  0  0  0  0  0  0  0  0
   26.8180    9.3170   28.8290 C   0  0  0  0  0  0  0  0  0  0  0  0
   27.5880    7.2880   28.9290 H   0  0  0  0  0  0  0  0  0  0  0  0
   27.5850    9.7420   27.9470 O   0  0  0  0  0  0  0  0  0  0  0  0
   25.9210   10.2070   29.6060 C   0  0  0  0  0  2  0  0  0  0  0  0
   20.5490    9.1870   32.6040 C   0  0  0  0  0  0  0  0  0  0  0  0
   21.7230    9.2890   32.9830 O   0  0  0  0  0  0  0  0  0  0  0  0
   19.5420   10.1350   32.8530 N   0  0  0  0  0  0  0  0  0  0  0  0
   18.5610   10.0120   32.5310 H   0  0  0  0  0  0  0  0  0  0  0  0
   19.8420   11.3370   33.5910 C   0  0  0  0  0  2  0  0  0  0  0  0
   19.4830   12.6100   32.9240 C   0  0  0  0  0  2  0  0  0  0  0  0
   20.5580   13.3880   32.4200 N   0  0  0  0  0  0  0  0  0  0  0  0
   20.1880   14.5600   31.6950 C   0  0  0  0  0  2  0  0  0  0  0  0
   21.1640   15.6600   32.0640 C   0  0  0  0  0  2  0  0  0  0  0  0
   22.5760   15.1450   31.8730 C   0  0  0  0  0  2  0  0  0  0  0  0
   22.6520   14.4550   30.5380 C   0  0  0  0  0  2  0  0  0  0  0  0
   22.1130   13.0740   30.5230 C   0  0  0  0  0  2  0  0  0  0  0  0
   21.5550   12.5770   31.8030 C   0  0  0  0  0  2  0  0  0  0  0  0
  1  5  1  0  0  0  0
  2  3  1  0  0  0  0
  2  1  1  0  0  0  0
  2 22  1  1  0  0  0
  3  4  1  0  0  0  0
  4  5  1  0  0  0  0
  6  1  1  0  0  0  0
  6  8  2  0  0  0  0
  7  6  2  0  0  0  0
  9  6  1  0  0  0  0
 10  9  2  0  0  0  0
 11 10  1  0  0  0  0
 12 11  2  0  0  0  0
 12 14  1  0  0  0  0
 13 11  1  0  0  0  0
 14 16  2  0  0  0  0
 15 12  1  0  0  0  0
 16  9  1  0  0  0  0
 16 17  1  0  0  0  0
 18 15  1  0  0  0  0
 18 21  1  0  0  0  0
 19 15  1  0  0  0  0
 20 18  2  0  0  0  0
 21 13  1  0  0  0  0
 22 24  1  0  0  0  0
 22 23  2  0  0  0  0
 24 26  1  0  0  0  0
 25 24  1  0  0  0  0
 27 26  1  0  0  0  0
 28 27  1  0  0  0  0
 29 30  1  0  0  0  0
 29 28  1  0  0  0  0
 31 30  1  0  0  0  0
 32 31  1  0  0  0  0
 33 32  1  0  0  0  0
 33 34  1  0  0  0  0
 34 28  1  0  0  0  0
M  END
>  <Pose>
1

>  <Score>
-8.617

$$$$
