/Users/jonathanwahrer/Desktop/Msc/3_Semester/Drug_Design_Praktikum/waehrer_HTS_screening/HTS_experiment/out/docking_results/vina_output/3elj/1788_docked.pdbqt
 OpenBabel03192218373D

 30 33  0  0  0  0  0  0  0  0999 V2000
   23.3890    6.3170   31.1210 N   0  0  0  0  0  0  0  0  0  0  0  0
   22.5350    6.8620   31.9110 N   0  0  0  0  0  0  0  0  0  0  0  0
   22.0170    8.0290   31.3730 C   0  0  0  0  0  0  0  0  0  0  0  0
   22.6020    8.1800   30.2000 N   0  0  0  0  0  0  0  0  0  0  0  0
   23.4520    7.1090   30.0480 C   0  0  0  0  0  0  0  0  0  0  0  0
   24.1660    6.9400   29.0360 O   0  0  0  0  0  0  0  0  0  0  0  0
   22.5110    9.2620   29.2720 C   0  0  0  0  0  2  0  0  0  0  0  0
   23.4420   10.3820   29.5110 C   0  0  0  0  0  0  0  0  0  0  0  0
   24.6890   10.0550   29.3380 O   0  0  0  0  0  0  0  0  0  0  0  0
   23.2170   11.6890   29.8800 N   0  0  0  0  0  0  0  0  0  0  0  0
   21.9330   12.2690   30.1700 C   0  0  0  0  0  2  0  0  0  0  0  0
   24.3610   12.6110   29.9880 C   0  0  0  0  0  2  0  0  0  0  0  0
   22.0420   13.7410   30.6040 C   0  0  0  0  0  2  0  0  0  0  0  0
   22.8030   14.4810   29.5930 N   0  0  0  0  0  0  0  0  0  0  0  0
   24.0110   13.8050   29.1810 C   0  0  0  0  0  0  0  0  0  0  0  0
   22.5130   15.3860   29.2130 H   0  0  0  0  0  0  0  0  0  0  0  0
   24.6750   14.2320   28.2100 O   0  0  0  0  0  0  0  0  0  0  0  0
   21.0450    8.8170   32.1290 C   0  0  0  0  0  0  0  0  0  0  0  0
   19.7960    8.2430   32.3940 C   0  0  0  0  0  3  0  0  0  0  0  0
   18.7770    8.8920   33.0360 C   0  0  0  0  0  3  0  0  0  0  0  0
   18.9390   10.2000   33.4720 C   0  0  0  0  0  3  0  0  0  0  0  0
   20.1540   10.7720   33.2170 C   0  0  0  0  0  3  0  0  0  0  0  0
   21.1910   10.1040   32.5600 C   0  0  0  0  0  3  0  0  0  0  0  0
   24.1040    5.1110   31.3730 C   0  0  0  0  0  0  0  0  0  0  0  0
   23.5130    4.0950   32.0980 C   0  0  0  0  0  3  0  0  0  0  0  0
   24.1930    2.9160   32.3540 C   0  0  0  0  0  3  0  0  0  0  0  0
   25.4810    2.6930   31.9060 C   0  0  0  0  0  0  0  0  0  0  0  0
   26.3520    1.2060   32.2260 Cl  0  0  0  0  0  0  0  0  0  0  0  0
   26.0720    3.7150   31.1790 C   0  0  0  0  0  3  0  0  0  0  0  0
   25.3890    4.9010   30.9200 C   0  0  0  0  0  3  0  0  0  0  0  0
  1 24  1  0  0  0  0
  1  2  1  0  0  0  0
  3  2  2  0  0  0  0
  3 18  1  0  0  0  0
  4  3  1  0  0  0  0
  5  4  1  0  0  0  0
  5  1  1  0  0  0  0
  6  5  2  0  0  0  0
  7  8  1  0  0  0  0
  7  4  1  0  0  0  0
  8 10  1  0  0  0  0
  9  8  2  0  0  0  0
 10 12  1  0  0  0  0
 10 11  1  0  0  0  0
 11 13  1  0  0  0  0
 14 13  1  0  0  0  0
 15 14  1  0  0  0  0
 15 12  1  0  0  0  0
 16 14  1  0  0  0  0
 17 15  2  0  0  0  0
 18 19  2  0  0  0  0
 18 23  1  0  0  0  0
 19 20  1  0  0  0  0
 20 21  2  0  0  0  0
 22 21  1  0  0  0  0
 23 22  2  0  0  0  0
 24 25  1  0  0  0  0
 25 26  2  0  0  0  0
 27 28  1  0  0  0  0
 27 26  1  0  0  0  0
 29 27  2  0  0  0  0
 30 29  1  0  0  0  0
 30 24  2  0  0  0  0
M  END
>  <Pose>
1

>  <Score>
-9.811

$$$$
