/Users/jonathanwahrer/Desktop/Msc/3_Semester/Drug_Design_Praktikum/waehrer_HTS_screening/HTS_experiment/out/docking_results/vina_output/3elj/1789_docked.pdbqt
 OpenBabel03192218373D

 29 32  0  0  0  0  0  0  0  0999 V2000
   21.9410    6.1380   31.6480 N   0  0  0  0  0  0  0  0  0  0  0  0
   20.9200    5.4450   32.0930 N   0  0  0  0  0  0  0  0  0  0  0  0
   20.0150    6.3250   32.5120 N   0  0  0  0  0  0  0  0  0  0  0  0
   20.4540    7.5850   32.3350 C   0  0  0  0  0  0  0  0  0  0  0  0
   21.6670    7.4480   31.7900 C   0  0  0  0  0  0  0  0  0  0  0  0
   22.1240    8.7450   31.6080 C   0  0  0  0  0  0  0  0  0  0  0  0
   23.2380    9.0300   31.1130 O   0  0  0  0  0  0  0  0  0  0  0  0
   21.2280    9.6540   32.0230 N   0  0  0  0  0  0  0  0  0  0  0  0
   20.1870    8.9320   32.4770 C   0  0  0  0  0  0  0  0  0  0  0  0
   19.1210    9.4150   32.9610 O   0  0  0  0  0  0  0  0  0  0  0  0
   20.8260    4.3870   32.1180 H   0  0  0  0  0  0  0  0  0  0  0  0
   19.0920    6.0420   32.9200 H   0  0  0  0  0  0  0  0  0  0  0  0
   21.3150   11.0760   32.0060 C   0  0  0  0  0  0  0  0  0  0  0  0
   22.2130   11.7650   31.2150 C   0  0  0  0  0  3  0  0  0  0  0  0
   22.2900   13.1420   31.2040 C   0  0  0  0  0  0  0  0  0  0  0  0
   21.4590   13.9040   31.9990 C   0  0  0  0  0  0  0  0  0  0  0  0
   20.5570   13.2300   32.7950 C   0  0  0  0  0  3  0  0  0  0  0  0
   20.4870   11.8490   32.7980 C   0  0  0  0  0  3  0  0  0  0  0  0
   23.1950   13.8360   30.4070 O   0  0  0  0  0  0  0  0  0  0  0  0
   23.9730   13.0790   29.4980 C   0  0  0  0  0  1  0  0  0  0  0  0
   21.5450   15.2940   31.9820 O   0  0  0  0  0  0  0  0  0  0  0  0
   22.3840   16.0290   32.8180 C   0  0  0  0  0  1  0  0  0  0  0  0
   23.1260    5.5940   31.1080 C   0  0  0  0  0  0  0  0  0  0  0  0
   23.7810    4.5560   31.7630 C   0  0  0  0  0  3  0  0  0  0  0  0
   24.9340    4.0750   31.1770 C   0  0  0  0  0  3  0  0  0  0  0  0
   25.4620    4.5500   30.0100 C   0  0  0  0  0  0  0  0  0  0  0  0
   26.9410    3.9000   29.2990 Cl  0  0  0  0  0  0  0  0  0  0  0  0
   24.8070    5.5740   29.3710 C   0  0  0  0  0  3  0  0  0  0  0  0
   23.6610    6.0860   29.9110 C   0  0  0  0  0  3  0  0  0  0  0  0
  1  5  1  0  0  0  0
  1  2  1  0  0  0  0
  2 11  1  0  0  0  0
  2  3  1  0  0  0  0
  3 12  1  0  0  0  0
  4  9  1  0  0  0  0
  4  3  1  0  0  0  0
  5  4  2  0  0  0  0
  6  5  1  0  0  0  0
  6  8  1  0  0  0  0
  7  6  2  0  0  0  0
  8  9  1  0  0  0  0
  9 10  2  0  0  0  0
 13  8  1  0  0  0  0
 13 18  1  0  0  0  0
 14 13  2  0  0  0  0
 15 14  1  0  0  0  0
 15 16  2  0  0  0  0
 16 17  1  0  0  0  0
 17 18  2  0  0  0  0
 19 15  1  0  0  0  0
 20 19  1  0  0  0  0
 21 16  1  0  0  0  0
 21 22  1  0  0  0  0
 23  1  1  0  0  0  0
 23 24  1  0  0  0  0
 25 24  2  0  0  0  0
 26 25  1  0  0  0  0
 27 26  1  0  0  0  0
 28 29  1  0  0  0  0
 28 26  2  0  0  0  0
 29 23  2  0  0  0  0
M  END
>  <Pose>
1

>  <Score>
-8.985

$$$$
