/Users/jonathanwahrer/Desktop/Msc/3_Semester/Drug_Design_Praktikum/waehrer_HTS_screening/HTS_experiment/out/docking_results/vina_output/3elj/1790_docked.pdbqt
 OpenBabel03192218373D

 29 32  0  0  0  0  0  0  0  0999 V2000
   20.2420   10.0310   32.6540 N   0  0  0  0  0  0  0  0  0  0  0  0
   19.0830    9.7310   33.2060 N   0  0  0  0  0  0  0  0  0  0  0  0
   19.0050    8.4070   33.1960 N   0  0  0  0  0  0  0  0  0  0  0  0
   20.0990    7.8540   32.6440 C   0  0  0  0  0  0  0  0  0  0  0  0
   20.8770    8.8950   32.3040 C   0  0  0  0  0  0  0  0  0  0  0  0
   22.0010    8.3240   31.7370 C   0  0  0  0  0  0  0  0  0  0  0  0
   22.9640    9.0170   31.2940 O   0  0  0  0  0  0  0  0  0  0  0  0
   21.9290    6.9820   31.7230 N   0  0  0  0  0  0  0  0  0  0  0  0
   20.7450    6.6880   32.2880 C   0  0  0  0  0  0  0  0  0  0  0  0
   20.3110    5.5100   32.4560 O   0  0  0  0  0  0  0  0  0  0  0  0
   18.3810   10.4190   33.5710 H   0  0  0  0  0  0  0  0  0  0  0  0
   18.1990    7.8600   33.5670 H   0  0  0  0  0  0  0  0  0  0  0  0
   22.9280    6.1060   31.2070 C   0  0  0  0  0  0  0  0  0  0  0  0
   23.3170    4.9600   31.8710 C   0  0  0  0  0  3  0  0  0  0  0  0
   24.2810    4.0970   31.3910 C   0  0  0  0  0  0  0  0  0  0  0  0
   24.8860    4.3960   30.1890 C   0  0  0  0  0  3  0  0  0  0  0  0
   24.5370    5.5280   29.4820 C   0  0  0  0  0  0  0  0  0  0  0  0
   23.5600    6.3690   30.0070 C   0  0  0  0  0  3  0  0  0  0  0  0
   24.6420    2.9390   32.1070 O   0  0  0  0  0  0  0  0  0  0  0  0
   23.8330    2.5220   33.1830 C   0  0  0  0  0  1  0  0  0  0  0  0
   25.1690    5.7960   28.2750 O   0  0  0  0  0  0  0  0  0  0  0  0
   25.9250    4.8270   27.6020 C   0  0  0  0  0  1  0  0  0  0  0  0
   20.7510   11.3390   32.4530 C   0  0  0  0  0  0  0  0  0  0  0  0
   21.8900   11.5850   31.7020 C   0  0  0  0  0  3  0  0  0  0  0  0
   22.3530   12.8630   31.5280 C   0  0  0  0  0  3  0  0  0  0  0  0
   21.7160   13.9520   32.0870 C   0  0  0  0  0  0  0  0  0  0  0  0
   22.3600   15.5790   31.8310 Cl  0  0  0  0  0  0  0  0  0  0  0  0
   20.5890   13.7310   32.8340 C   0  0  0  0  0  3  0  0  0  0  0  0
   20.1250   12.4440   33.0070 C   0  0  0  0  0  3  0  0  0  0  0  0
  1  2  1  0  0  0  0
  2 11  1  0  0  0  0
  3  2  1  0  0  0  0
  3 12  1  0  0  0  0
  4  3  1  0  0  0  0
  5  4  2  0  0  0  0
  5  1  1  0  0  0  0
  6  5  1  0  0  0  0
  7  6  2  0  0  0  0
  8  6  1  0  0  0  0
  8  9  1  0  0  0  0
  9 10  2  0  0  0  0
  9  4  1  0  0  0  0
 13  8  1  0  0  0  0
 13 14  1  0  0  0  0
 15 14  2  0  0  0  0
 15 19  1  0  0  0  0
 16 15  1  0  0  0  0
 17 18  1  0  0  0  0
 17 16  2  0  0  0  0
 18 13  2  0  0  0  0
 19 20  1  0  0  0  0
 21 17  1  0  0  0  0
 22 21  1  0  0  0  0
 23  1  1  0  0  0  0
 23 29  1  0  0  0  0
 24 23  2  0  0  0  0
 25 24  1  0  0  0  0
 25 26  2  0  0  0  0
 26 28  1  0  0  0  0
 27 26  1  0  0  0  0
 28 29  2  0  0  0  0
M  END
>  <Pose>
1

>  <Score>
-9.023

$$$$
