/Users/jonathanwahrer/Desktop/Msc/3_Semester/Drug_Design_Praktikum/waehrer_HTS_screening/HTS_experiment/out/docking_results/vina_output/3elj/1806_docked.pdbqt
 OpenBabel03192218383D

 32 35  0  0  0  0  0  0  0  0999 V2000
   23.2420   11.0320   31.0810 N   0  0  0  0  0  0  0  0  0  0  0  0
   24.2560   10.3310   31.8410 C   0  0  0  0  0  2  0  0  0  0  0  0
   23.9280    8.8310   31.7610 C   0  0  0  0  0  2  0  0  0  0  0  0
   22.6720    8.5910   31.1370 N   0  0  0  0  0  0  0  0  0  0  0  0
   22.5940    9.0390   29.7470 C   0  0  0  0  0  2  0  0  0  0  0  0
   22.9100   10.5150   29.7680 C   0  0  0  0  0  2  0  0  0  0  0  0
   22.5900   12.2060   31.5460 C   0  0  0  0  0  3  0  0  0  0  0  0
   22.5770   13.3830   30.9660 C   0  0  0  0  0  0  0  0  0  0  0  0
   23.2440   13.6460   29.7480 N   0  0  0  0  0  0  0  0  0  0  0  0
   21.8560   14.4720   31.5860 N   0  0  0  0  0  0  0  0  0  0  0  0
   23.2040   14.9580   29.1430 C   0  0  0  0  0  0  0  0  0  0  0  0
   23.7720   12.8940   29.2710 H   0  0  0  0  0  0  0  0  0  0  0  0
   22.5260   16.0050   29.7140 C   0  0  0  0  0  0  0  0  0  0  0  0
   23.8650   15.1700   27.9610 C   0  0  0  0  0  3  0  0  0  0  0  0
   22.5090   17.2460   29.1100 C   0  0  0  0  0  3  0  0  0  0  0  0
   21.8350   15.7470   30.9700 C   0  0  0  0  0  0  0  0  0  0  0  0
   23.1660   17.4540   27.9360 C   0  0  0  0  0  0  0  0  0  0  0  0
   23.1800   19.0150   27.1190 Cl  0  0  0  0  0  0  0  0  0  0  0  0
   23.8500   16.4120   27.3520 C   0  0  0  0  0  3  0  0  0  0  0  0
   21.2040   16.7250   31.4990 O   0  0  0  0  0  0  0  0  0  0  0  0
   21.3540   14.3150   32.4820 H   0  0  0  0  0  0  0  0  0  0  0  0
   21.5010    8.0040   31.6770 C   0  0  0  0  0  0  0  0  0  0  0  0
   20.5600    8.8400   32.2530 N   0  0  0  0  0  0  0  0  0  0  0  0
   19.4270    8.4130   32.8070 C   0  0  0  0  0  3  0  0  0  0  0  0
   19.1750    7.0690   32.8070 C   0  0  0  0  0  3  0  0  0  0  0  0
   20.0810    6.2140   32.2460 C   0  0  0  0  0  3  0  0  0  0  0  0
   21.2810    6.6590   31.6580 C   0  0  0  0  0  0  0  0  0  0  0  0
   22.1930    5.7380   31.0520 C   0  0  0  0  0  0  0  0  0  0  0  0
   22.6520    5.8240   29.9150 O   0  0  0  0  0  0  0  0  0  0  0  0
   22.6230    4.6130   31.8090 N   0  0  0  0  0  0  0  0  0  0  0  0
   23.2410    4.7350   32.6420 H   0  0  0  0  0  0  0  0  0  0  0  0
   22.3550    3.6300   31.5850 H   0  0  0  0  0  0  0  0  0  0  0  0
  1  7  1  0  0  0  0
  1  2  1  0  0  0  0
  3  2  1  0  0  0  0
  4 22  1  0  0  0  0
  4  3  1  0  0  0  0
  5  6  1  0  0  0  0
  5  4  1  0  0  0  0
  6  1  1  0  0  0  0
  8  7  2  0  0  0  0
  8 10  1  0  0  0  0
  9  8  1  0  0  0  0
 10 21  1  0  0  0  0
 11 13  1  0  0  0  0
 11  9  1  0  0  0  0
 12  9  1  0  0  0  0
 13 16  1  0  0  0  0
 14 11  2  0  0  0  0
 15 13  2  0  0  0  0
 16 20  2  0  0  0  0
 16 10  1  0  0  0  0
 17 15  1  0  0  0  0
 18 17  1  0  0  0  0
 19 17  2  0  0  0  0
 19 14  1  0  0  0  0
 22 23  1  0  0  0  0
 23 24  2  0  0  0  0
 24 25  1  0  0  0  0
 26 25  2  0  0  0  0
 27 22  2  0  0  0  0
 27 26  1  0  0  0  0
 28 27  1  0  0  0  0
 28 30  1  0  0  0  0
 29 28  2  0  0  0  0
 30 31  1  0  0  0  0
 32 30  1  0  0  0  0
M  END
>  <Pose>
1

>  <Score>
-9.681

$$$$
