/Users/jonathanwahrer/Desktop/Msc/3_Semester/Drug_Design_Praktikum/waehrer_HTS_screening/HTS_experiment/out/docking_results/vina_output/3elj/1808_docked.pdbqt
 OpenBabel03162215383D

 24 28  0  0  1  0  0  0  0  0999 V2000
   22.9270   11.7980   31.4790 N   0  0  0  0  0  0  0  0  0  0  0  0
   24.0520   10.9730   31.7390 C   0  0  0  0  0  0  0  0  0  0  0  0
   25.2430   11.3570   31.6510 O   0  0  0  0  0  0  0  0  0  0  0  0
   23.5810    9.6160   32.1250 C   0  0  2  0  0  3  0  0  0  0  0  0
   23.5300    8.6810   30.9560 C   0  0  1  0  0  0  0  0  0  0  0  0
   22.4480    7.8560   31.3350 O   0  0  0  0  0  0  0  0  0  0  0  0
   21.4710    8.8810   31.4110 C   0  0  1  0  0  3  0  0  0  0  0  0
   22.0900    9.7920   32.4150 C   0  0  2  0  0  3  0  0  0  0  0  0
   21.7780   11.2100   32.0870 C   0  0  0  0  0  0  0  0  0  0  0  0
   20.6990   11.7630   32.3140 O   0  0  0  0  0  0  0  0  0  0  0  0
   21.6430    9.4800   30.0620 C   0  0  0  0  0  2  0  0  0  0  0  0
   22.9480    9.4060   29.8150 C   0  0  0  0  0  2  0  0  0  0  0  0
   23.0120   13.0100   30.7180 C   0  0  0  0  0  0  0  0  0  0  0  0
   22.4890   14.1950   31.1870 C   0  0  0  0  0  3  0  0  0  0  0  0
   22.5620   15.3660   30.4640 C   0  0  0  0  0  3  0  0  0  0  0  0
   23.1780   15.3360   29.2370 C   0  0  0  0  0  0  0  0  0  0  0  0
   23.2960   16.9280   28.2120 Br  0  0  0  0  0  0  0  0  0  0  0  0
   23.7050   14.1670   28.7480 C   0  0  0  0  0  3  0  0  0  0  0  0
   23.6340   12.9780   29.4770 C   0  0  0  0  0  3  0  0  0  0  0  0
   24.7610    7.9260   30.6920 C   0  0  0  0  0  3  0  0  0  0  0  0
   25.0430    7.7660   29.3630 O   0  0  0  0  0  0  0  0  0  0  0  0
   24.8730    6.4460   29.0310 C   0  0  0  0  0  2  0  0  0  0  0  0
   24.4570    5.7450   30.2820 C   0  0  0  0  0  2  0  0  0  0  0  0
   24.7330    6.6740   31.2790 O   0  0  0  0  0  0  0  0  0  0  0  0
  1  2  1  0  0  0  0
  1  9  1  0  0  0  0
  3  2  2  0  0  0  0
  4  2  1  6  0  0  0
  4  8  1  0  0  0  0
  5 20  1  6  0  0  0
  5  6  1  0  0  0  0
  5  4  1  0  0  0  0
  6  7  1  0  0  0  0
  7 11  1  6  0  0  0
  7  8  1  0  0  0  0
  8  9  1  6  0  0  0
  9 10  2  0  0  0  0
 12 11  1  0  0  0  0
 12  5  1  0  0  0  0
 13 14  1  0  0  0  0
 13  1  1  0  0  0  0
 15 14  2  0  0  0  0
 16 15  1  0  0  0  0
 17 16  1  0  0  0  0
 18 16  2  0  0  0  0
 18 19  1  0  0  0  0
 19 13  2  0  0  0  0
 20 24  1  0  0  0  0
 21 20  1  0  0  0  0
 22 21  1  0  0  0  0
 22 23  1  0  0  0  0
 23 24  1  0  0  0  0
M  END
>  <Pose>
1

>  <Score>
-7.704

$$$$
