/Users/jonathanwahrer/Desktop/Msc/3_Semester/Drug_Design_Praktikum/waehrer_HTS_screening/HTS_experiment/out/docking_results/vina_output/3elj/1816_docked.pdbqt
 OpenBabel03192218383D

 36 39  0  0  0  0  0  0  0  0999 V2000
   22.5060    9.0620   31.1550 C   0  0  0  0  0  0  0  0  0  0  0  0
   21.7880    9.2270   32.2010 O   0  0  0  0  0  0  0  0  0  0  0  0
   23.5130    9.9810   30.9170 N   0  0  0  0  0  0  0  0  0  0  0  0
   23.7820   11.0930   31.7750 C   0  0  0  0  0  2  0  0  0  0  0  0
   23.6190   12.3720   30.9510 C   0  0  0  0  0  2  0  0  0  0  0  0
   24.4610   12.3080   29.8040 N   0  0  0  0  0  0  0  0  0  0  0  0
   25.2520   11.0700   29.6340 C   0  0  0  0  0  2  0  0  0  0  0  0
   24.3620    9.8530   29.7550 C   0  0  0  0  0  2  0  0  0  0  0  0
   24.5950   13.3140   28.8240 C   0  0  0  0  0  0  0  0  0  0  0  0
   25.4570   13.0020   27.8630 O   0  0  0  0  0  0  0  0  0  0  0  0
   22.1910    7.8940   30.2880 C   0  0  0  0  0  2  0  0  0  0  0  0
   22.6350    6.6250   30.9090 C   0  0  0  0  0  0  0  0  0  0  0  0
   21.7540    5.8900   31.7000 C   0  0  0  0  0  0  0  0  0  0  0  0
   22.0920    4.7610   32.2730 O   0  0  0  0  0  0  0  0  0  0  0  0
   20.5820    6.3750   31.8430 O   0  0  0  0  0  0  0  0  0  0  0  0
   23.2840    4.2310   32.1510 C   0  0  0  0  0  0  0  0  0  0  0  0
   24.2320    4.8760   31.3900 C   0  0  0  0  0  0  0  0  0  0  0  0
   23.6160    3.0220   32.7770 C   0  0  0  0  0  3  0  0  0  0  0  0
   25.4770    4.3070   31.2710 C   0  0  0  0  0  3  0  0  0  0  0  0
   23.8920    6.0810   30.7690 C   0  0  0  0  0  0  0  0  0  0  0  0
   25.8030    3.1070   31.8950 C   0  0  0  0  0  0  0  0  0  0  0  0
   27.3880    2.3830   31.7470 Cl  0  0  0  0  0  0  0  0  0  0  0  0
   24.8640    2.4530   32.6580 C   0  0  0  0  0  0  0  0  0  0  0  0
   24.9020    6.7560   29.9610 C   0  0  0  0  0  1  0  0  0  0  0  0
   25.1880    1.2390   33.2910 O   0  0  0  0  0  0  0  0  0  0  0  0
   24.9540    1.0290   34.6620 C   0  0  0  0  0  1  0  0  0  0  0  0
   23.9760   14.5970   28.6800 C   0  0  0  0  0  0  0  0  0  0  0  0
   24.2830   15.3940   27.5480 C   0  0  0  0  0  3  0  0  0  0  0  0
   23.7170   16.6290   27.3760 C   0  0  0  0  0  0  0  0  0  0  0  0
   24.0070   17.3160   26.3620 O   0  0  0  0  0  0  0  0  0  0  0  0
   22.8520   17.1560   28.2520 N   0  0  0  0  0  0  0  0  0  0  0  0
   22.5630   16.4070   29.3180 C   0  0  0  0  0  0  0  0  0  0  0  0
   22.2660   18.4620   28.0540 C   0  0  0  0  0  1  0  0  0  0  0  0
   21.7440   16.8630   30.1820 O   0  0  0  0  0  0  0  0  0  0  0  0
   23.1150   15.1600   29.5210 N   0  0  0  0  0  0  0  0  0  0  0  0
   22.8200   14.6560   30.3800 H   0  0  0  0  0  0  0  0  0  0  0  0
  1  2  2  0  0  0  0
  3  1  1  0  0  0  0
  3  4  1  0  0  0  0
  5  4  1  0  0  0  0
  6  5  1  0  0  0  0
  7  8  1  0  0  0  0
  7  6  1  0  0  0  0
  8  3  1  0  0  0  0
  9  6  1  0  0  0  0
 10  9  2  0  0  0  0
 11 12  1  0  0  0  0
 11  1  1  0  0  0  0
 12 13  1  0  0  0  0
 13 15  2  0  0  0  0
 13 14  1  0  0  0  0
 16 14  1  0  0  0  0
 16 18  1  0  0  0  0
 17 16  2  0  0  0  0
 19 17  1  0  0  0  0
 19 21  2  0  0  0  0
 20 12  2  0  0  0  0
 20 17  1  0  0  0  0
 21 23  1  0  0  0  0
 22 21  1  0  0  0  0
 23 18  2  0  0  0  0
 23 25  1  0  0  0  0
 24 20  1  0  0  0  0
 25 26  1  0  0  0  0
 27  9  1  0  0  0  0
 27 35  1  0  0  0  0
 28 27  2  0  0  0  0
 29 28  1  0  0  0  0
 29 31  1  0  0  0  0
 30 29  2  0  0  0  0
 31 32  1  0  0  0  0
 32 35  1  0  0  0  0
 32 34  2  0  0  0  0
 33 31  1  0  0  0  0
 35 36  1  0  0  0  0
M  END
>  <Pose>
1

>  <Score>
-9.551

$$$$
