/Users/jonathanwahrer/Desktop/Msc/3_Semester/Drug_Design_Praktikum/waehrer_HTS_screening/HTS_experiment/out/docking_results/vina_output/3elj/1825_docked.pdbqt
 OpenBabel03192218393D

 29 32  0  0  1  0  0  0  0  0999 V2000
   19.9140   10.2460   33.2780 N   0  0  0  0  0  0  0  0  0  0  0  0
   19.0480    9.1910   33.2130 C   0  0  1  0  0  3  0  0  0  0  0  0
   19.6090    8.2050   32.4940 N   0  0  0  0  0  0  0  0  0  0  0  0
   20.8290    8.5680   32.0760 C   0  0  0  0  0  0  0  0  0  0  0  0
   20.9910    9.8640   32.5890 C   0  0  0  0  0  3  0  0  0  0  0  0
   18.6710    7.0850   32.4230 C   0  0  0  0  0  2  0  0  0  0  0  0
   17.3310    7.6640   32.8360 C   0  0  0  0  0  2  0  0  0  0  0  0
   17.7010    8.8110   33.7080 C   0  0  0  0  0  2  0  0  0  0  0  0
   19.6390   11.5170   33.9640 C   0  0  0  0  0  2  0  0  0  0  0  0
   19.9420   12.6500   33.0060 C   0  0  0  0  0  0  0  0  0  0  0  0
   21.2370   13.0890   32.7840 N   0  0  0  0  0  0  0  0  0  0  0  0
   22.0070   12.5810   33.3180 H   0  0  0  0  0  0  0  0  0  0  0  0
   18.9530   13.1430   32.4530 O   0  0  0  0  0  0  0  0  0  0  0  0
   21.6260   14.1370   31.9270 C   0  0  0  0  0  0  0  0  0  0  0  0
   22.3790   13.8140   30.7770 C   0  0  0  0  0  0  0  0  0  0  0  0
   22.7970   14.7880   29.8990 C   0  0  0  0  0  0  0  0  0  0  0  0
   22.7310   12.4090   30.5090 C   0  0  0  0  0  1  0  0  0  0  0  0
   23.7270   14.4020   28.4670 Cl  0  0  0  0  0  0  0  0  0  0  0  0
   22.5010   16.1160   30.1010 C   0  0  0  0  0  3  0  0  0  0  0  0
   21.7720   16.4610   31.2100 C   0  0  0  0  0  3  0  0  0  0  0  0
   21.3460   15.4600   32.1060 C   0  0  0  0  0  3  0  0  0  0  0  0
   21.8340    7.8880   31.2760 C   0  0  0  0  0  0  0  0  0  0  0  0
   21.9490    6.5260   31.2360 C   0  0  0  0  0  3  0  0  0  0  0  0
   22.8870    5.8640   30.4650 C   0  0  0  0  0  3  0  0  0  0  0  0
   23.7820    6.5710   29.6760 C   0  0  0  0  0  0  0  0  0  0  0  0
   23.6670    7.9400   29.7140 C   0  0  0  0  0  3  0  0  0  0  0  0
   22.7300    8.6010   30.4850 C   0  0  0  0  0  3  0  0  0  0  0  0
   24.7340    5.9430   28.8910 O   0  0  0  0  0  0  0  0  0  0  0  0
   26.0540    6.4350   28.7450 C   0  0  0  0  0  1  0  0  0  0  0  0
  1  9  1  0  0  0  0
  2  1  1  0  0  0  0
  2  8  1  1  0  0  0
  3  2  1  0  0  0  0
  4  3  1  0  0  0  0
  4  5  2  0  0  0  0
  5  1  1  0  0  0  0
  6  3  1  0  0  0  0
  6  7  1  0  0  0  0
  7  8  1  0  0  0  0
 10  9  1  0  0  0  0
 11 10  1  0  0  0  0
 11 12  1  0  0  0  0
 13 10  2  0  0  0  0
 14 21  1  0  0  0  0
 14 11  1  0  0  0  0
 15 14  2  0  0  0  0
 16 19  2  0  0  0  0
 16 15  1  0  0  0  0
 17 15  1  0  0  0  0
 18 16  1  0  0  0  0
 19 20  1  0  0  0  0
 20 21  2  0  0  0  0
 22  4  1  0  0  0  0
 23 22  1  0  0  0  0
 24 23  2  0  0  0  0
 25 26  2  0  0  0  0
 25 24  1  0  0  0  0
 26 27  1  0  0  0  0
 27 22  2  0  0  0  0
 28 25  1  0  0  0  0
 29 28  1  0  0  0  0
M  END
>  <Pose>
1

>  <Score>
-9.378

$$$$
