/Users/jonathanwahrer/Desktop/Msc/3_Semester/Drug_Design_Praktikum/waehrer_HTS_screening/HTS_experiment/out/docking_results/vina_output/3elj/1835_docked.pdbqt
 OpenBabel03192218393D

 36 39  0  0  1  0  0  0  0  0999 V2000
   24.0900   11.2380   30.5270 C   0  0  0  0  0  0  0  0  0  0  0  0
   23.7280   12.5270   30.4260 N   0  0  0  0  0  0  0  0  0  0  0  0
   24.4030   13.0200   29.3730 C   0  0  0  0  0  0  0  0  0  0  0  0
   24.4450   14.2450   28.7960 N   0  0  0  0  0  0  0  0  0  0  0  0
   25.2170   14.4990   27.7220 C   0  0  0  0  0  3  0  0  0  0  0  0
   25.9790   13.5190   27.1890 N   0  0  0  0  0  0  0  0  0  0  0  0
   25.9920   12.2760   27.7060 C   0  0  0  0  0  0  0  0  0  0  0  0
   25.1910   12.0410   28.8060 C   0  0  0  0  0  0  0  0  0  0  0  0
   24.9760   10.9310   29.5510 N   0  0  0  0  0  0  0  0  0  0  0  0
   23.6190   10.3230   31.5060 N   0  0  0  0  0  0  0  0  0  0  0  0
   24.2580    9.9420   32.2440 H   0  0  0  0  0  0  0  0  0  0  0  0
   22.2950    9.8820   31.5390 N   0  0  0  0  0  0  0  0  0  0  0  0
   21.8810    9.2600   32.5810 C   0  0  0  0  0  3  0  0  0  0  0  0
   20.5080    8.7620   32.7010 C   0  0  0  0  0  0  0  0  0  0  0  0
   19.4960    9.5600   33.1890 C   0  0  0  0  0  0  0  0  0  0  0  0
   19.8930   11.1940   33.6660 Cl  0  0  0  0  0  0  0  0  0  0  0  0
   18.1950    9.0640   33.2930 C   0  0  0  0  0  3  0  0  0  0  0  0
   17.8770    7.7760   32.9190 C   0  0  0  0  0  3  0  0  0  0  0  0
   18.8960    6.9840   32.4310 C   0  0  0  0  0  3  0  0  0  0  0  0
   20.1900    7.4740   32.3270 C   0  0  0  0  0  0  0  0  0  0  0  0
   21.4790    6.4500   31.7020 Cl  0  0  0  0  0  0  0  0  0  0  0  0
   22.8230   13.3000   31.2250 C   0  0  1  0  0  3  0  0  0  0  0  0
   23.4680   14.2960   31.9550 O   0  0  0  0  0  0  0  0  0  0  0  0
   22.3890   15.0840   32.3560 C   0  0  2  0  0  3  0  0  0  0  0  0
   21.7360   15.3810   31.0150 C   0  0  1  0  0  3  0  0  0  0  0  0
   21.8000   14.0160   30.3610 C   0  0  2  0  0  3  0  0  0  0  0  0
   22.8200   16.3420   33.0610 C   0  0  0  0  0  2  0  0  0  0  0  0
   22.5670   17.4800   32.3350 O   0  0  0  0  0  0  0  0  0  0  0  0
   22.5640   17.3090   31.3680 H   0  0  0  0  0  0  0  0  0  0  0  0
   20.4290   15.8230   31.1640 O   0  0  0  0  0  0  0  0  0  0  0  0
   20.4680   16.7720   31.4620 H   0  0  0  0  0  0  0  0  0  0  0  0
   20.5340   13.4410   30.4890 O   0  0  0  0  0  0  0  0  0  0  0  0
   19.9410   13.6880   29.7510 H   0  0  0  0  0  0  0  0  0  0  0  0
   26.8000   11.2710   27.1260 N   0  0  0  0  0  0  0  0  0  0  0  0
   26.3950   10.4100   26.7200 H   0  0  0  0  0  0  0  0  0  0  0  0
   27.8280   11.4000   27.1090 H   0  0  0  0  0  0  0  0  0  0  0  0
  1 10  1  0  0  0  0
  2  1  1  0  0  0  0
  3  2  1  0  0  0  0
  4  3  2  0  0  0  0
  5  4  1  0  0  0  0
  6  7  1  0  0  0  0
  6  5  2  0  0  0  0
  7  8  2  0  0  0  0
  8  3  1  0  0  0  0
  8  9  1  0  0  0  0
  9  1  2  0  0  0  0
 10 12  1  0  0  0  0
 10 11  1  0  0  0  0
 12 13  2  0  0  0  0
 13 14  1  0  0  0  0
 14 15  1  0  0  0  0
 15 17  2  0  0  0  0
 15 16  1  0  0  0  0
 18 17  1  0  0  0  0
 19 18  2  0  0  0  0
 20 19  1  0  0  0  0
 20 14  2  0  0  0  0
 21 20  1  0  0  0  0
 22  2  1  6  0  0  0
 22 23  1  0  0  0  0
 23 24  1  0  0  0  0
 24 27  1  6  0  0  0
 25 30  1  1  0  0  0
 25 24  1  0  0  0  0
 26 32  1  1  0  0  0
 26 25  1  0  0  0  0
 26 22  1  0  0  0  0
 28 27  1  0  0  0  0
 29 28  1  0  0  0  0
 30 31  1  0  0  0  0
 33 32  1  0  0  0  0
 34  7  1  0  0  0  0
 35 34  1  0  0  0  0
 36 34  1  0  0  0  0
M  END
>  <Pose>
1

>  <Score>
-9.197

$$$$
