/Users/jonathanwahrer/Desktop/Msc/3_Semester/Drug_Design_Praktikum/waehrer_HTS_screening/HTS_experiment/out/docking_results/vina_output/3elj/1846_docked.pdbqt
 OpenBabel03192218393D

 31 34  0  0  1  0  0  0  0  0999 V2000
   22.1900    6.5900   30.8050 N   0  0  0  0  0  0  0  0  0  0  0  0
   22.9220    7.2960   29.9150 C   0  0  0  0  0  2  0  0  0  0  0  0
   22.9460    8.6440   29.9640 N   0  0  0  0  0  0  0  0  0  0  0  0
   22.2660    9.3500   30.8750 C   0  0  0  0  0  0  0  0  0  0  0  0
   22.2830   10.6920   30.9330 N   0  0  0  0  0  0  0  0  0  0  0  0
   21.6090   11.4240   31.8360 C   0  0  0  0  0  0  0  0  0  0  0  0
   20.8660   10.7320   32.7420 N   0  0  0  0  0  0  0  0  0  0  0  0
   20.8210    9.3910   32.7200 C   0  0  0  0  0  3  0  0  0  0  0  0
   21.5160    8.6490   31.7890 C   0  0  2  0  0  3  0  0  0  0  0  0
   21.4820    7.2700   31.7500 C   0  0  0  0  0  0  0  0  0  0  0  0
   20.7790    6.6870   32.6120 O   0  0  0  0  0  0  0  0  0  0  0  0
   22.1100    5.1640   30.8220 C   0  0  0  0  0  2  0  0  0  0  0  0
   23.2750    4.5310   31.5310 C   0  0  0  0  0  0  0  0  0  0  0  0
   23.1790    3.2410   32.0760 N   0  0  0  0  0  0  0  0  0  0  0  0
   22.2470    2.7140   31.9740 H   0  0  0  0  0  0  0  0  0  0  0  0
   24.3080    5.2150   31.6000 O   0  0  0  0  0  0  0  0  0  0  0  0
   24.2370    2.5990   32.7550 C   0  0  0  0  0  0  0  0  0  0  0  0
   25.5260    2.4850   32.3030 C   0  0  0  0  0  3  0  0  0  0  0  0
   26.4870    1.8120   33.0610 C   0  0  0  0  0  3  0  0  0  0  0  0
   26.2190    1.2330   34.2760 C   0  0  0  0  0  0  0  0  0  0  0  0
   24.9300    1.3430   34.7390 C   0  0  0  0  0  0  0  0  0  0  0  0
   24.4810    0.6410   36.2800 Cl  0  0  0  0  0  0  0  0  0  0  0  0
   23.9780    2.0020   34.0030 C   0  0  0  0  0  3  0  0  0  0  0  0
   27.2100    0.5660   35.0090 O   0  0  0  0  0  0  0  0  0  0  0  0
   28.1060    1.3020   35.8100 C   0  0  0  0  0  1  0  0  0  0  0  0
   21.6540   12.8380   31.8620 N   0  0  0  0  0  0  0  0  0  0  0  0
   22.8520   13.4980   31.3980 C   0  0  0  0  0  2  0  0  0  0  0  0
   22.4520   14.7410   30.6040 C   0  0  0  0  0  2  0  0  0  0  0  0
   21.5210   15.5150   31.2910 O   0  0  0  0  0  0  0  0  0  0  0  0
   20.3350   14.7800   31.3210 C   0  0  0  0  0  2  0  0  0  0  0  0
   20.5580   13.6550   32.3310 C   0  0  0  0  0  2  0  0  0  0  0  0
  1 12  1  0  0  0  0
  1 10  1  0  0  0  0
  2  3  1  0  0  0  0
  2  1  1  0  0  0  0
  3  4  2  0  0  0  0
  4  5  1  0  0  0  0
  4  9  1  0  0  0  0
  5  6  2  0  0  0  0
  6 26  1  0  0  0  0
  6  7  1  0  0  0  0
  8  7  2  0  0  0  0
  9  8  1  1  0  0  0
 10  9  1  0  0  0  0
 10 11  2  0  0  0  0
 12 13  1  0  0  0  0
 13 16  2  0  0  0  0
 13 14  1  0  0  0  0
 14 17  1  0  0  0  0
 15 14  1  0  0  0  0
 17 23  1  0  0  0  0
 18 17  2  0  0  0  0
 18 19  1  0  0  0  0
 19 20  2  0  0  0  0
 20 21  1  0  0  0  0
 20 24  1  0  0  0  0
 21 22  1  0  0  0  0
 23 21  2  0  0  0  0
 24 25  1  0  0  0  0
 26 31  1  0  0  0  0
 27 26  1  0  0  0  0
 28 29  1  0  0  0  0
 28 27  1  0  0  0  0
 29 30  1  0  0  0  0
 30 31  1  0  0  0  0
M  END
>  <Pose>
1

>  <Score>
-8.831

$$$$
