/Users/jonathanwahrer/Desktop/Msc/3_Semester/Drug_Design_Praktikum/waehrer_HTS_screening/HTS_experiment/out/docking_results/vina_output/3elj/1850_docked.pdbqt
 OpenBabel03192218403D

 24 27  0  0  0  0  0  0  0  0999 V2000
   21.4210    5.1220   30.9650 Cl  0  0  0  0  0  0  0  0  0  0  0  0
   21.0790    6.6890   31.6850 C   0  0  0  0  0  0  0  0  0  0  0  0
   21.9810    7.7270   31.5620 C   0  0  0  0  0  0  0  0  0  0  0  0
   21.7160    8.9460   32.1210 C   0  0  0  0  0  0  0  0  0  0  0  0
   20.5340    9.1080   32.8070 C   0  0  0  0  0  3  0  0  0  0  0  0
   19.6200    8.0850   32.9420 C   0  0  0  0  0  3  0  0  0  0  0  0
   19.8970    6.8580   32.3730 C   0  0  0  0  0  3  0  0  0  0  0  0
   22.6320   10.1080   32.0330 C   0  0  0  0  0  2  0  0  0  0  0  0
   23.6870    9.7500   31.1170 N   0  0  0  0  0  0  0  0  0  0  0  0
   24.2810    8.4450   31.2870 C   0  0  0  0  0  2  0  0  0  0  0  0
   23.2300    7.4410   30.7990 C   0  0  0  0  0  2  0  0  0  0  0  0
   24.1380   10.6140   30.0920 C   0  0  0  0  0  0  0  0  0  0  0  0
   25.0640   10.2400   29.3250 O   0  0  0  0  0  0  0  0  0  0  0  0
   23.5740   11.9650   29.8600 C   0  0  0  0  0  2  0  0  0  0  0  0
   23.5110   12.7180   31.0310 O   0  0  0  0  0  0  0  0  0  0  0  0
   22.5870   13.7300   31.2580 C   0  0  0  0  0  0  0  0  0  0  0  0
   21.3090   13.5520   30.8720 N   0  0  0  0  0  0  0  0  0  0  0  0
   20.3770   14.4830   31.0610 N   0  0  0  0  0  0  0  0  0  0  0  0
   20.6460   15.6570   31.6460 C   0  0  0  0  0  0  0  0  0  0  0  0
   19.0680   14.4910   30.7500 C   0  0  0  0  0  3  0  0  0  0  0  0
   19.5180   16.3920   31.7000 N   0  0  0  0  0  0  0  0  0  0  0  0
   21.9560   15.8760   32.0570 C   0  0  0  0  0  3  0  0  0  0  0  0
   18.5700   15.6710   31.1530 N   0  0  0  0  0  0  0  0  0  0  0  0
   22.9190   14.9160   31.8630 C   0  0  0  0  0  3  0  0  0  0  0  0
  1  2  1  0  0  0  0
  2  7  1  0  0  0  0
  3  2  2  0  0  0  0
  3  4  1  0  0  0  0
  4  5  2  0  0  0  0
  5  6  1  0  0  0  0
  7  6  2  0  0  0  0
  8  4  1  0  0  0  0
  9 10  1  0  0  0  0
  9  8  1  0  0  0  0
 11 10  1  0  0  0  0
 11  3  1  0  0  0  0
 12  9  1  0  0  0  0
 13 12  2  0  0  0  0
 14 12  1  0  0  0  0
 14 15  1  0  0  0  0
 15 16  1  0  0  0  0
 16 24  1  0  0  0  0
 17 18  1  0  0  0  0
 17 16  2  0  0  0  0
 18 19  1  0  0  0  0
 19 21  2  0  0  0  0
 19 22  1  0  0  0  0
 20 18  1  0  0  0  0
 20 23  2  0  0  0  0
 23 21  1  0  0  0  0
 24 22  2  0  0  0  0
M  END
>  <Pose>
1

>  <Score>
-9.413

$$$$
