/Users/jonathanwahrer/Desktop/Msc/3_Semester/Drug_Design_Praktikum/waehrer_HTS_screening/HTS_experiment/out/docking_results/vina_output/3elj/1852_docked.pdbqt
 OpenBabel03192218403D

 26 29  0  0  1  0  0  0  0  0999 V2000
   23.9820    8.6080   29.7760 N   0  0  0  0  0  0  0  0  0  0  0  0
   22.7430    8.1550   30.3260 C   0  0  0  0  0  2  0  0  0  0  0  0
   22.8100    6.6400   30.4220 C   0  0  1  0  0  3  0  0  0  0  0  0
   24.3000    6.4060   30.5670 C   0  0  0  0  0  2  0  0  0  0  0  0
   24.8520    7.4840   29.6260 C   0  0  0  0  0  2  0  0  0  0  0  0
   24.6830    9.8880   30.6880 S   0  0  0  0  0  0  0  0  0  0  0  0
   26.0040   10.2670   30.1090 O   0  0  0  0  0  0  0  0  0  0  0  0
   24.8960    9.3820   32.0910 O   0  0  0  0  0  0  0  0  0  0  0  0
   23.6390   11.2890   30.7470 C   0  0  0  0  0  0  0  0  0  0  0  0
   22.5700   11.3280   31.6200 C   0  0  0  0  0  3  0  0  0  0  0  0
   21.7130   12.4120   31.7050 C   0  0  0  0  0  0  0  0  0  0  0  0
   21.9160   13.5130   30.8940 C   0  0  0  0  0  0  0  0  0  0  0  0
   20.6460   12.4630   32.5710 O   0  0  0  0  0  0  0  0  0  0  0  0
   22.9800   13.4670   30.0300 C   0  0  0  0  0  3  0  0  0  0  0  0
   21.0360   14.5770   31.0130 O   0  0  0  0  0  0  0  0  0  0  0  0
   23.8350   12.3900   29.9420 C   0  0  0  0  0  3  0  0  0  0  0  0
   19.7080   14.4420   31.4900 C   0  0  0  0  0  2  0  0  0  0  0  0
   19.5460   13.3200   32.4800 C   0  0  0  0  0  2  0  0  0  0  0  0
   22.1820    6.2590   31.6340 O   0  0  0  0  0  0  0  0  0  0  0  0
   21.0520    6.9040   32.1120 C   0  0  0  0  0  0  0  0  0  0  0  0
   19.8740    6.2320   31.9620 N   0  0  0  0  0  0  0  0  0  0  0  0
   18.7620    6.8330   32.4160 C   0  0  0  0  0  3  0  0  0  0  0  0
   18.7810    8.0780   33.0120 C   0  0  0  0  0  0  0  0  0  0  0  0
   20.0030    8.7110   33.1360 C   0  0  0  0  0  2  0  0  0  0  0  0
   17.3230    8.8500   33.5990 Cl  0  0  0  0  0  0  0  0  0  0  0  0
   21.1210    8.1060   32.6810 N   0  0  0  0  0  0  0  0  0  0  0  0
  1  2  1  0  0  0  0
  1  6  1  0  0  0  0
  2  3  1  0  0  0  0
  3  4  1  0  0  0  0
  3 19  1  1  0  0  0
  5  1  1  0  0  0  0
  5  4  1  0  0  0  0
  6  9  1  0  0  0  0
  6  8  2  0  0  0  0
  7  6  2  0  0  0  0
  9 10  1  0  0  0  0
 10 11  2  0  0  0  0
 11 13  1  0  0  0  0
 12 15  1  0  0  0  0
 12 11  1  0  0  0  0
 14 12  2  0  0  0  0
 15 17  1  0  0  0  0
 16 14  1  0  0  0  0
 16  9  2  0  0  0  0
 17 18  1  0  0  0  0
 18 13  1  0  0  0  0
 19 20  1  0  0  0  0
 20 26  2  0  0  0  0
 21 20  2  0  0  0  0
 21 22  1  0  0  0  0
 22 23  2  0  0  0  0
 23 24  1  0  0  0  0
 23 25  1  0  0  0  0
 26 24  1  0  0  0  0
M  END
>  <Pose>
1

>  <Score>
-8.563

$$$$
