/Users/jonathanwahrer/Desktop/Msc/3_Semester/Drug_Design_Praktikum/waehrer_HTS_screening/HTS_experiment/out/docking_results/vina_output/3elj/1863_docked.pdbqt
 OpenBabel03192218403D

 33 36  0  0  0  0  0  0  0  0999 V2000
   22.8170    7.8370   30.7500 N   0  0  0  0  0  0  0  0  0  0  0  0
   22.9780    6.5040   30.9770 C   0  0  0  0  0  0  0  0  0  0  0  0
   24.3120    6.2780   31.1910 C   0  0  0  0  0  0  0  0  0  0  0  0
   24.9090    7.4650   31.0870 N   0  0  0  0  0  0  0  0  0  0  0  0
   24.0050    8.4440   30.8130 C   0  0  0  0  0  0  0  0  0  0  0  0
   24.7190    5.0190   31.4240 N   0  0  0  0  0  0  0  0  0  0  0  0
   23.8430    3.9790   31.4490 C   0  0  0  0  0  0  0  0  0  0  0  0
   24.2180    2.7840   31.6680 O   0  0  0  0  0  0  0  0  0  0  0  0
   22.5290    4.1690   31.2420 N   0  0  0  0  0  0  0  0  0  0  0  0
   22.1050    5.4190   31.0090 C   0  0  0  0  0  0  0  0  0  0  0  0
   20.8770    5.5620   30.8180 O   0  0  0  0  0  0  0  0  0  0  0  0
   26.1110    4.7300   31.6490 C   0  0  0  0  0  1  0  0  0  0  0  0
   21.8460    3.3520   31.2630 H   0  0  0  0  0  0  0  0  0  0  0  0
   24.3440    9.8300   30.5990 N   0  0  0  0  0  0  0  0  0  0  0  0
   24.1220   10.3190   29.2580 C   0  0  0  0  0  2  0  0  0  0  0  0
   24.4060   11.7910   29.0950 C   0  0  0  0  0  2  0  0  0  0  0  0
   23.7910   12.4750   30.1730 N   0  0  0  0  0  0  0  0  0  0  0  0
   24.3660   12.1310   31.4300 C   0  0  0  0  0  2  0  0  0  0  0  0
   24.8680   10.7240   31.5740 C   0  0  0  0  0  2  0  0  0  0  0  0
   22.3690   12.3440   30.1180 C   0  0  0  0  0  2  0  0  0  0  0  0
   21.6290   13.4880   30.7270 C   0  0  0  0  0  0  0  0  0  0  0  0
   20.7350   13.3670   31.5790 O   0  0  0  0  0  0  0  0  0  0  0  0
   22.0210   14.7840   30.2540 N   0  0  0  0  0  0  0  0  0  0  0  0
   21.6470   15.1810   29.3630 H   0  0  0  0  0  0  0  0  0  0  0  0
   22.6820   15.3250   30.8070 H   0  0  0  0  0  0  0  0  0  0  0  0
   21.5490    8.4420   30.5150 C   0  0  0  0  0  2  0  0  0  0  0  0
   20.8630    8.9860   31.7170 C   0  0  0  0  0  0  0  0  0  0  0  0
   19.6410    8.4090   32.0950 C   0  0  0  0  0  3  0  0  0  0  0  0
   18.9200    8.8310   33.1770 C   0  0  0  0  0  0  0  0  0  0  0  0
   17.3900    8.1080   33.6650 Cl  0  0  0  0  0  0  0  0  0  0  0  0
   19.4000    9.8730   33.9400 C   0  0  0  0  0  3  0  0  0  0  0  0
   20.6010   10.4470   33.5750 C   0  0  0  0  0  3  0  0  0  0  0  0
   21.3300   10.0140   32.4770 C   0  0  0  0  0  3  0  0  0  0  0  0
  1  5  1  0  0  0  0
  1  2  1  0  0  0  0
  2 10  1  0  0  0  0
  2  3  2  0  0  0  0
  3  6  1  0  0  0  0
  4  3  1  0  0  0  0
  5  4  2  0  0  0  0
  6  7  1  0  0  0  0
  6 12  1  0  0  0  0
  7  8  2  0  0  0  0
  9 13  1  0  0  0  0
  9  7  1  0  0  0  0
 10  9  1  0  0  0  0
 11 10  2  0  0  0  0
 14  5  1  0  0  0  0
 14 19  1  0  0  0  0
 15 14  1  0  0  0  0
 16 15  1  0  0  0  0
 16 17  1  0  0  0  0
 17 18  1  0  0  0  0
 18 19  1  0  0  0  0
 20 17  1  0  0  0  0
 20 21  1  0  0  0  0
 21 22  2  0  0  0  0
 23 21  1  0  0  0  0
 23 25  1  0  0  0  0
 24 23  1  0  0  0  0
 26  1  1  0  0  0  0
 26 27  1  0  0  0  0
 27 28  2  0  0  0  0
 27 33  1  0  0  0  0
 28 29  1  0  0  0  0
 29 30  1  0  0  0  0
 29 31  2  0  0  0  0
 32 31  1  0  0  0  0
 33 32  2  0  0  0  0
M  END
>  <Pose>
1

>  <Score>
-7.707

$$$$
