/Users/jonathanwahrer/Desktop/Msc/3_Semester/Drug_Design_Praktikum/waehrer_HTS_screening/HTS_experiment/out/docking_results/vina_output/3elj/1865_docked.pdbqt
 OpenBabel03192218413D

 29 32  0  0  1  0  0  0  0  0999 V2000
   22.8540    7.7730   30.6000 N   0  0  0  0  0  0  0  0  0  0  0  0
   23.9370    6.9460   31.0520 C   0  0  0  0  0  0  0  0  0  0  0  0
   23.7970    5.8340   31.6600 O   0  0  0  0  0  0  0  0  0  0  0  0
   25.1720    7.5690   30.7080 N   0  0  0  0  0  0  0  0  0  0  0  0
   24.8620    8.9680   30.5140 C   0  0  1  0  0  0  0  0  0  0  0  0
   24.7660    9.5950   31.8920 C   0  0  0  0  0  2  0  0  0  0  0  0
   24.0220   10.9120   31.7070 C   0  0  0  0  0  2  0  0  0  0  0  0
   24.5950   11.6550   30.6010 N   0  0  0  0  0  0  0  0  0  0  0  0
   25.7880   11.1700   29.9580 C   0  0  0  0  0  2  0  0  0  0  0  0
   25.8090    9.7050   29.6680 C   0  0  0  0  0  2  0  0  0  0  0  0
   23.9800   12.8560   30.1640 C   0  0  0  0  0  0  0  0  0  0  0  0
   24.4850   13.5010   29.1900 O   0  0  0  0  0  0  0  0  0  0  0  0
   23.4780    8.8960   29.9830 C   0  0  0  0  0  0  0  0  0  0  0  0
   22.8920    9.6410   29.1510 O   0  0  0  0  0  0  0  0  0  0  0  0
   26.1020    7.1180   30.6160 H   0  0  0  0  0  0  0  0  0  0  0  0
   21.4350    7.5370   30.7310 C   0  0  0  0  0  2  0  0  0  0  0  0
   20.7950    8.4270   31.7220 C   0  0  0  0  0  0  0  0  0  0  0  0
   19.5790    8.1160   32.2860 C   0  0  0  0  0  3  0  0  0  0  0  0
   18.9500    8.9220   33.2130 C   0  0  0  0  0  0  0  0  0  0  0  0
   17.4010    8.5200   33.9270 Cl  0  0  0  0  0  0  0  0  0  0  0  0
   19.5980   10.0870   33.5720 C   0  0  0  0  0  3  0  0  0  0  0  0
   20.8170   10.4110   33.0140 C   0  0  0  0  0  3  0  0  0  0  0  0
   21.4330    9.5910   32.0850 C   0  0  0  0  0  3  0  0  0  0  0  0
   22.7820   13.4120   30.7720 C   0  0  0  0  0  0  0  0  0  0  0  0
   21.5410   13.0390   30.4040 N   0  0  0  0  0  0  0  0  0  0  0  0
   20.4760   13.5950   31.0090 C   0  0  0  0  0  3  0  0  0  0  0  0
   20.6010   14.5410   32.0030 C   0  0  0  0  0  3  0  0  0  0  0  0
   21.8350   14.9150   32.3720 N   0  0  0  0  0  0  0  0  0  0  0  0
   22.9160   14.3560   31.7630 C   0  0  0  0  0  3  0  0  0  0  0  0
  1 16  1  0  0  0  0
  1  2  1  0  0  0  0
  2  3  2  0  0  0  0
  4  2  1  0  0  0  0
  5 10  1  6  0  0  0
  5  4  1  0  0  0  0
  5  6  1  0  0  0  0
  7  6  1  0  0  0  0
  8  7  1  0  0  0  0
  9  8  1  0  0  0  0
 10  9  1  0  0  0  0
 11  8  1  0  0  0  0
 11 24  1  0  0  0  0
 12 11  2  0  0  0  0
 13  5  1  0  0  0  0
 13  1  1  0  0  0  0
 14 13  2  0  0  0  0
 15  4  1  0  0  0  0
 16 17  1  0  0  0  0
 17 23  2  0  0  0  0
 17 18  1  0  0  0  0
 18 19  2  0  0  0  0
 19 21  1  0  0  0  0
 19 20  1  0  0  0  0
 22 21  2  0  0  0  0
 23 22  1  0  0  0  0
 24 29  1  0  0  0  0
 25 24  2  0  0  0  0
 25 26  1  0  0  0  0
 26 27  2  0  0  0  0
 27 28  1  0  0  0  0
 29 28  2  0  0  0  0
M  END
>  <Pose>
1

>  <Score>
-9.701

$$$$
