/Users/jonathanwahrer/Desktop/Msc/3_Semester/Drug_Design_Praktikum/waehrer_HTS_screening/HTS_experiment/out/docking_results/vina_output/3elj/1871_docked.pdbqt
 OpenBabel03192218413D

 28 31  0  0  1  0  0  0  0  0999 V2000
   25.9080    2.5890   30.7710 C   0  0  2  0  0  0  0  0  0  0  0  0
   24.7690    3.0310   31.4770 N   0  0  0  0  0  4  0  0  0  0  0  0
   24.6950    2.4100   32.7320 C   0  0  0  0  0  0  0  0  0  0  0  0
   23.9080    2.2960   33.7740 C   0  0  0  0  0  3  0  0  0  0  0  0
   24.2820    1.4810   34.9350 C   0  0  0  0  0  3  0  0  0  0  0  0
   25.6650    1.0610   35.1260 C   0  0  0  0  0  3  0  0  0  0  0  0
   26.6070    1.4050   34.0000 C   0  0  0  0  0  2  0  0  0  0  0  0
   25.9060    1.6040   32.7820 N   0  0  0  0  0  0  0  0  0  0  0  0
   26.0570    1.1900   31.3930 C   0  0  2  0  0  3  0  0  0  0  0  0
   27.3530    0.5280   31.1770 C   0  0  0  0  0  1  0  0  0  0  0  0
   23.9560    2.4740   30.9480 H   0  0  0  0  0  0  0  0  0  0  0  0
   27.1610    3.3250   30.9250 C   0  0  0  0  0  0  0  0  0  0  0  0
   27.8530    3.7310   29.8140 C   0  0  0  0  0  3  0  0  0  0  0  0
   29.0620    4.4180   29.9060 C   0  0  0  0  0  3  0  0  0  0  0  0
   29.5690    4.6930   31.1690 C   0  0  0  0  0  0  0  0  0  0  0  0
   31.0820    5.5500   31.3910 Cl  0  0  0  0  0  0  0  0  0  0  0  0
   28.8590    4.2780   32.2790 C   0  0  0  0  0  3  0  0  0  0  0  0
   27.6620    3.5970   32.1860 C   0  0  0  0  0  3  0  0  0  0  0  0
   25.5870    2.3700   29.4510 O   0  0  0  0  0  0  0  0  0  0  0  0
   25.1980    1.5050   29.2280 H   0  0  0  0  0  0  0  0  0  0  0  0
   24.3350    4.3350   31.2670 C   0  0  0  0  0  0  0  0  0  0  0  0
   22.9690    4.5370   31.1560 C   0  0  0  0  0  3  0  0  0  0  0  0
   22.4130    5.7740   30.9370 C   0  0  0  0  0  3  0  0  0  0  0  0
   23.1980    6.9240   30.8100 C   0  0  0  0  0  0  0  0  0  0  0  0
   24.5470    6.6950   30.9230 C   0  0  0  0  0  3  0  0  0  0  0  0
   25.0960    5.4560   31.1430 C   0  0  0  0  0  3  0  0  0  0  0  0
   22.6270    8.1640   30.5940 O   0  0  0  0  0  0  0  0  0  0  0  0
   23.2370    9.0620   29.7010 C   0  0  0  0  0  1  0  0  0  0  0  0
  1 19  1  6  0  0  0
  1 12  1  0  0  0  0
  1  9  1  0  0  0  0
  1  2  1  0  0  0  0
  2  3  1  0  0  0  0
  3  8  1  0  0  0  0
  3  4  2  0  0  0  0
  4  5  1  0  0  0  0
  5  6  2  0  0  0  0
  7  6  1  0  0  0  0
  8  7  1  0  0  0  0
  9 10  1  1  0  0  0
  9  8  1  0  0  0  0
 11  2  1  0  0  0  0
 12 18  1  0  0  0  0
 13 14  1  0  0  0  0
 13 12  2  0  0  0  0
 14 15  2  0  0  0  0
 15 16  1  0  0  0  0
 15 17  1  0  0  0  0
 18 17  2  0  0  0  0
 20 19  1  0  0  0  0
 21  2  1  0  0  0  0
 22 21  1  0  0  0  0
 23 22  2  0  0  0  0
 24 25  2  0  0  0  0
 24 23  1  0  0  0  0
 25 26  1  0  0  0  0
 26 21  2  0  0  0  0
 27 24  1  0  0  0  0
 28 27  1  0  0  0  0
M  END
>  <Pose>
1

>  <Score>
-6.542

$$$$
