/Users/jonathanwahrer/Desktop/Msc/3_Semester/Drug_Design_Praktikum/waehrer_HTS_screening/HTS_experiment/out/docking_results/vina_output/3elj/1893_docked.pdbqt
 OpenBabel03192218413D

 28 31  0  0  0  0  0  0  0  0999 V2000
   21.4210    7.3810   31.8450 N   0  0  0  0  0  0  0  0  0  0  0  0
   21.4630    8.6050   32.4220 C   0  0  0  0  0  0  0  0  0  0  0  0
   22.4910    9.3320   32.4540 O   0  0  0  0  0  0  0  0  0  0  0  0
   20.2340    8.9400   32.9650 C   0  0  0  0  0  0  0  0  0  0  0  0
   19.4350    7.9140   32.7190 C   0  0  0  0  0  0  0  0  0  0  0  0
   18.2390    8.2440   33.2500 N   0  0  0  0  0  0  0  0  0  0  0  0
   18.3330    9.4580   33.8070 N   0  0  0  0  0  0  0  0  0  0  0  0
   19.5690    9.8980   33.6350 N   0  0  0  0  0  0  0  0  0  0  0  0
   20.1590    6.9600   32.0340 C   0  0  0  0  0  0  0  0  0  0  0  0
   19.6800    5.8680   31.6560 O   0  0  0  0  0  0  0  0  0  0  0  0
   17.3910    7.6480   33.2260 H   0  0  0  0  0  0  0  0  0  0  0  0
   17.5920   10.0010   34.3000 H   0  0  0  0  0  0  0  0  0  0  0  0
   20.1090   11.1660   34.0770 C   0  0  0  0  0  2  0  0  0  0  0  0
   20.0370   12.2230   33.0370 C   0  0  0  0  0  0  0  0  0  0  0  0
   21.0670   12.5310   32.1770 C   0  0  0  0  0  3  0  0  0  0  0  0
   20.9960   13.5140   31.2100 C   0  0  0  0  0  0  0  0  0  0  0  0
   19.8340   14.2370   31.0870 C   0  0  0  0  0  3  0  0  0  0  0  0
   18.7800   13.9630   31.9260 C   0  0  0  0  0  3  0  0  0  0  0  0
   18.8780   12.9710   32.8870 C   0  0  0  0  0  3  0  0  0  0  0  0
   22.1040   13.7470   30.3860 O   0  0  0  0  0  0  0  0  0  0  0  0
   23.4130   13.4060   30.7940 C   0  0  0  0  0  1  0  0  0  0  0  0
   22.4800    6.7130   31.1940 C   0  0  0  0  0  0  0  0  0  0  0  0
   22.9650    5.5060   31.6520 C   0  0  0  0  0  3  0  0  0  0  0  0
   24.0030    4.8330   31.0320 C   0  0  0  0  0  3  0  0  0  0  0  0
   24.5710    5.3990   29.9110 C   0  0  0  0  0  0  0  0  0  0  0  0
   25.9000    4.5980   29.0650 Cl  0  0  0  0  0  0  0  0  0  0  0  0
   24.1220    6.6050   29.4140 C   0  0  0  0  0  3  0  0  0  0  0  0
   23.0750    7.2480   30.0690 C   0  0  0  0  0  3  0  0  0  0  0  0
  1  9  1  0  0  0  0
  1  2  1  0  0  0  0
  2  3  2  0  0  0  0
  2  4  1  0  0  0  0
  4  8  1  0  0  0  0
  5  4  2  0  0  0  0
  5  6  1  0  0  0  0
  6  7  1  0  0  0  0
  7 12  1  0  0  0  0
  8  7  1  0  0  0  0
  8 13  1  0  0  0  0
  9  5  1  0  0  0  0
 10  9  2  0  0  0  0
 11  6  1  0  0  0  0
 14 13  1  0  0  0  0
 15 14  2  0  0  0  0
 16 15  1  0  0  0  0
 17 16  2  0  0  0  0
 17 18  1  0  0  0  0
 18 19  2  0  0  0  0
 19 14  1  0  0  0  0
 20 21  1  0  0  0  0
 20 16  1  0  0  0  0
 22 23  1  0  0  0  0
 22  1  1  0  0  0  0
 24 23  2  0  0  0  0
 25 24  1  0  0  0  0
 26 25  1  0  0  0  0
 27 25  2  0  0  0  0
 27 28  1  0  0  0  0
 28 22  2  0  0  0  0
M  END
>  <Pose>
1

>  <Score>
-8.607

$$$$
