/Users/jonathanwahrer/Desktop/Msc/3_Semester/Drug_Design_Praktikum/waehrer_HTS_screening/HTS_experiment/out/docking_results/vina_output/3elj/1894_docked.pdbqt
 OpenBabel03192218413D

 26 29  0  0  0  0  0  0  0  0999 V2000
   21.4430    7.4300   31.8180 N   0  0  0  0  0  0  0  0  0  0  0  0
   21.4970    8.6620   32.3720 C   0  0  0  0  0  0  0  0  0  0  0  0
   22.5230    9.3740   32.3950 O   0  0  0  0  0  0  0  0  0  0  0  0
   20.2700    9.0210   32.9040 C   0  0  0  0  0  0  0  0  0  0  0  0
   19.4520    7.9850   32.6680 C   0  0  0  0  0  0  0  0  0  0  0  0
   18.2650    8.3440   33.1850 N   0  0  0  0  0  0  0  0  0  0  0  0
   18.3590    9.5510   33.7150 N   0  0  0  0  0  0  0  0  0  0  0  0
   19.5900    9.9830   33.5500 N   0  0  0  0  0  0  0  0  0  0  0  0
   20.1820    7.0210   32.0040 C   0  0  0  0  0  0  0  0  0  0  0  0
   19.7230    5.9080   31.6260 O   0  0  0  0  0  0  0  0  0  0  0  0
   17.3870    7.7850   33.1870 H   0  0  0  0  0  0  0  0  0  0  0  0
   17.5780   10.0890   34.1950 H   0  0  0  0  0  0  0  0  0  0  0  0
   22.4990    6.7190   31.1750 C   0  0  0  0  0  0  0  0  0  0  0  0
   23.1150    7.2150   30.0450 C   0  0  0  0  0  3  0  0  0  0  0  0
   24.1400    6.5340   29.4160 C   0  0  0  0  0  3  0  0  0  0  0  0
   24.5910    5.3220   29.8950 C   0  0  0  0  0  0  0  0  0  0  0  0
   25.8980    4.4550   29.0910 Cl  0  0  0  0  0  0  0  0  0  0  0  0
   23.9820    4.8150   31.0240 C   0  0  0  0  0  3  0  0  0  0  0  0
   22.9590    5.5030   31.6460 C   0  0  0  0  0  3  0  0  0  0  0  0
   20.1340   11.2490   33.9790 C   0  0  0  0  0  2  0  0  0  0  0  0
   20.0200   12.3210   32.9670 C   0  0  0  0  0  0  0  0  0  0  0  0
   18.8450   13.0210   32.8470 C   0  0  0  0  0  3  0  0  0  0  0  0
   18.7600   14.0110   31.8960 C   0  0  0  0  0  3  0  0  0  0  0  0
   19.8260   14.3120   31.0670 C   0  0  0  0  0  3  0  0  0  0  0  0
   21.0040   13.6100   31.1870 C   0  0  0  0  0  3  0  0  0  0  0  0
   21.0730   12.6300   32.1370 C   0  0  0  0  0  3  0  0  0  0  0  0
  1  9  1  0  0  0  0
  1  2  1  0  0  0  0
  2  3  2  0  0  0  0
  2  4  1  0  0  0  0
  4  8  1  0  0  0  0
  5  4  2  0  0  0  0
  5  6  1  0  0  0  0
  6 11  1  0  0  0  0
  6  7  1  0  0  0  0
  7 12  1  0  0  0  0
  8  7  1  0  0  0  0
  8 20  1  0  0  0  0
  9  5  1  0  0  0  0
 10  9  2  0  0  0  0
 13 19  1  0  0  0  0
 13  1  1  0  0  0  0
 14 13  2  0  0  0  0
 15 16  2  0  0  0  0
 15 14  1  0  0  0  0
 16 18  1  0  0  0  0
 17 16  1  0  0  0  0
 18 19  2  0  0  0  0
 21 20  1  0  0  0  0
 22 21  1  0  0  0  0
 23 22  2  0  0  0  0
 24 25  2  0  0  0  0
 24 23  1  0  0  0  0
 25 26  1  0  0  0  0
 26 21  2  0  0  0  0
M  END
>  <Pose>
1

>  <Score>
-8.533

$$$$
