/Users/jonathanwahrer/Desktop/Msc/3_Semester/Drug_Design_Praktikum/waehrer_HTS_screening/HTS_experiment/out/docking_results/vina_output/3elj/1895_docked.pdbqt
 OpenBabel03192218413D

 32 35  0  0  1  0  0  0  0  0999 V2000
   28.0920    8.4540   27.8980 N   0  0  0  0  0  0  0  0  0  0  0  0
   26.8940    8.4200   28.6430 C   0  0  0  0  0  2  0  0  0  0  0  0
   26.9020    9.6450   29.5810 C   0  0  0  0  0  2  0  0  0  0  0  0
   26.7490   10.7560   28.6780 N   0  0  0  0  0  0  0  0  0  0  0  0
   27.9230   10.9250   27.7940 C   0  0  0  0  0  2  0  0  0  0  0  0
   28.5060    9.6600   27.3150 C   0  0  0  0  0  2  0  0  0  0  0  0
   25.6860   11.6470   28.5420 C   0  0  0  0  0  0  0  0  0  0  0  0
   25.8860   12.5450   27.5960 O   0  0  0  0  0  0  0  0  0  0  0  0
   24.4130   11.8130   29.1940 C   0  0  0  0  0  2  0  0  0  0  0  0
   24.0690   10.9170   30.2560 N   0  0  0  0  0  0  0  0  0  0  0  0
   24.2910   11.1520   31.6480 C   0  0  0  0  0  0  0  0  0  0  0  0
   24.8510   12.2050   32.1060 O   0  0  0  0  0  0  0  0  0  0  0  0
   23.7920   10.0450   32.3670 N   0  0  0  0  0  0  0  0  0  0  0  0
   22.9060    9.2960   31.4900 C   0  0  1  0  0  0  0  0  0  0  0  0
   24.0030    9.7890   33.3440 H   0  0  0  0  0  0  0  0  0  0  0  0
   22.9740    7.8200   31.6670 C   0  0  1  0  0  3  0  0  0  0  0  0
   21.5130    9.8460   31.7010 C   0  0  0  0  0  2  0  0  0  0  0  0
   23.4270    9.6460   30.1340 C   0  0  0  0  0  0  0  0  0  0  0  0
   21.5760    7.2560   31.3910 C   0  0  0  0  0  2  0  0  0  0  0  0
   23.9040    7.1240   30.7000 C   0  0  0  0  0  1  0  0  0  0  0  0
   20.7280    7.6360   32.5900 C   0  0  0  0  0  2  0  0  0  0  0  0
   20.9270    9.1020   32.8930 C   0  0  0  0  0  2  0  0  0  0  0  0
   23.3230    8.9670   29.0950 O   0  0  0  0  0  0  0  0  0  0  0  0
   28.4030    7.0500   26.9770 S   0  0  0  0  0  0  0  0  0  0  0  0
   27.9750    7.1350   25.5660 O   0  0  0  0  0  0  0  0  0  0  0  0
   29.8900    6.7850   27.0160 O   0  0  0  0  0  0  0  0  0  0  0  0
   27.5750    5.7030   27.7780 C   0  0  0  0  0  0  0  0  0  0  0  0
   27.9840    4.8610   29.2010 S   0  0  0  0  0  0  0  0  0  0  0  0
   26.6910    3.7550   29.2450 C   0  0  0  0  0  0  0  0  0  0  0  0
   25.9640    4.0780   28.1300 C   0  0  0  0  0  3  0  0  0  0  0  0
   26.3640    2.4920   30.4430 Cl  0  0  0  0  0  0  0  0  0  0  0  0
   26.4270    5.0880   27.3730 C   0  0  0  0  0  3  0  0  0  0  0  0
  1  2  1  0  0  0  0
  2  3  1  0  0  0  0
  4  3  1  0  0  0  0
  5  4  1  0  0  0  0
  6  5  1  0  0  0  0
  6  1  1  0  0  0  0
  7  4  1  0  0  0  0
  7  9  1  0  0  0  0
  8  7  2  0  0  0  0
  9 10  1  0  0  0  0
 10 11  1  0  0  0  0
 11 12  2  0  0  0  0
 11 13  1  0  0  0  0
 13 15  1  0  0  0  0
 14 16  1  0  0  0  0
 14 17  1  1  0  0  0
 14 13  1  0  0  0  0
 16 20  1  6  0  0  0
 17 22  1  0  0  0  0
 18 10  1  0  0  0  0
 18 14  1  0  0  0  0
 19 16  1  0  0  0  0
 19 21  1  0  0  0  0
 21 22  1  0  0  0  0
 23 18  2  0  0  0  0
 24 26  2  0  0  0  0
 24 27  1  0  0  0  0
 24  1  1  0  0  0  0
 25 24  2  0  0  0  0
 27 28  1  0  0  0  0
 28 29  1  0  0  0  0
 29 31  1  0  0  0  0
 30 29  2  0  0  0  0
 32 27  2  0  0  0  0
 32 30  1  0  0  0  0
M  END
>  <Pose>
1

>  <Score>
-8.190

$$$$
