/Users/jonathanwahrer/Desktop/Msc/3_Semester/Drug_Design_Praktikum/waehrer_HTS_screening/HTS_experiment/out/docking_results/vina_output/3elj/1913_docked.pdbqt
 OpenBabel03192218423D

 29 32  0  0  1  0  0  0  0  0999 V2000
   22.3270    9.4390   31.5230 N   0  0  0  0  0  0  0  0  0  0  0  0
   22.3280    9.6000   30.0870 C   0  0  0  0  0  2  0  0  0  0  0  0
   23.6450    9.2500   29.4470 C   0  0  0  0  0  2  0  0  0  0  0  0
   24.7560    9.8580   30.2310 C   0  0  2  0  0  3  0  0  0  0  0  0
   24.7960    9.2620   31.5960 C   0  0  0  0  0  3  0  0  0  0  0  0
   23.4900    9.0970   32.2830 C   0  0  0  0  0  3  0  0  0  0  0  0
   24.7410   11.3210   30.1960 C   0  0  0  0  0  0  0  0  0  0  0  0
   25.0290   11.9480   31.2450 O   0  0  0  0  0  0  0  0  0  0  0  0
   24.4180   12.0630   29.0410 N   0  0  0  0  0  0  0  0  0  0  0  0
   24.1750   11.5330   28.1540 H   0  0  0  0  0  0  0  0  0  0  0  0
   24.3990   13.5060   28.9920 C   0  0  0  0  0  2  0  0  0  0  0  0
   23.0220   14.0950   29.0990 C   0  0  0  0  0  2  0  0  0  0  0  0
   22.7470   14.5390   30.4540 N   0  0  0  0  0  0  0  0  0  0  0  0
   21.8300   13.6950   31.1420 C   0  0  0  0  0  2  0  0  0  0  0  0
   20.4980   14.3960   31.3240 C   0  0  0  0  0  2  0  0  0  0  0  0
   20.7060   15.4910   32.1250 O   0  0  0  0  0  0  0  0  0  0  0  0
   21.6780   16.3640   31.7150 C   0  0  0  0  0  2  0  0  0  0  0  0
   22.5010   15.9330   30.5510 C   0  0  0  0  0  2  0  0  0  0  0  0
   21.1090    9.6320   32.2070 C   0  0  0  0  0  0  0  0  0  0  0  0
   20.2580    8.5820   32.4280 C   0  0  0  0  0  0  0  0  0  0  0  0
   19.0580    8.7730   33.1270 C   0  0  0  0  0  0  0  0  0  0  0  0
   20.2930    7.2810   32.0970 N   0  0  0  0  0  0  0  0  0  0  0  0
   18.7840   10.0070   33.5620 N   0  0  0  0  0  4  0  0  0  0  0  0
   18.4020    7.6220   33.2090 N   0  0  0  0  0  0  0  0  0  0  0  0
   19.6050   11.0370   33.3530 C   0  0  0  0  0  0  0  0  0  0  0  0
   19.1880   12.6110   33.9460 Cl  0  0  0  0  0  0  0  0  0  0  0  0
   20.7500   10.8590   32.6870 N   0  0  0  0  0  2  0  0  0  0  0  0
   19.1720    6.7270   32.5770 C   0  0  0  0  0  3  0  0  0  0  0  0
   21.0690    6.8300   31.5590 H   0  0  0  0  0  0  0  0  0  0  0  0
  1 19  1  0  0  0  0
  1  6  1  0  0  0  0
  2  1  1  0  0  0  0
  3  2  1  0  0  0  0
  3  4  1  0  0  0  0
  4  7  1  1  0  0  0
  4  5  1  0  0  0  0
  5  6  2  0  0  0  0
  7  8  2  0  0  0  0
  9  7  1  0  0  0  0
 10  9  1  0  0  0  0
 11  9  1  0  0  0  0
 11 12  1  0  0  0  0
 12 13  1  0  0  0  0
 13 18  1  0  0  0  0
 13 14  1  0  0  0  0
 14 15  1  0  0  0  0
 15 16  1  0  0  0  0
 17 16  1  0  0  0  0
 18 17  1  0  0  0  0
 19 20  2  0  0  0  0
 19 27  1  0  0  0  0
 20 21  1  0  0  0  0
 21 24  1  0  0  0  0
 21 23  2  0  0  0  0
 22 20  1  0  0  0  0
 22 28  1  0  0  0  0
 25 23  2  0  0  0  0
 25 26  1  0  0  0  0
 27 25  1  0  0  0  0
 28 24  2  0  0  0  0
 29 22  1  0  0  0  0
M  END
>  <Pose>
1

>  <Score>
-8.048

$$$$
