/Users/jonathanwahrer/Desktop/Msc/3_Semester/Drug_Design_Praktikum/waehrer_HTS_screening/HTS_experiment/out/docking_results/vina_output/3elj/1927_docked.pdbqt
 OpenBabel03192218423D

 36 39  0  0  1  0  0  0  0  0999 V2000
   24.2320    3.8130   31.4770 C   0  0  0  0  0  2  0  0  0  0  0  0
   25.6460    3.7290   31.0790 C   0  0  0  0  0  0  0  0  0  0  0  0
   26.2610    3.8820   29.8440 N   0  0  0  0  0  0  0  0  0  0  0  0
   25.6110    3.9490   28.5820 C   0  0  0  0  0  2  0  0  0  0  0  0
   27.7420    4.0060   29.8160 C   0  0  0  0  0  2  0  0  0  0  0  0
   25.9460    5.2520   27.8860 C   0  0  0  0  0  2  0  0  0  0  0  0
   27.4300    5.1160   27.5540 C   0  0  2  0  0  0  0  0  0  0  0  0
   28.2500    4.9490   28.7790 C   0  0  0  0  0  2  0  0  0  0  0  0
   26.4380    3.4520   32.0820 O   0  0  0  0  0  0  0  0  0  0  0  0
   27.8400    6.1580   26.6300 C   0  0  0  0  0  0  0  0  0  0  0  0
   27.9390    7.4630   27.1300 C   0  0  0  0  0  3  0  0  0  0  0  0
   28.2900    8.5420   26.3180 C   0  0  0  0  0  3  0  0  0  0  0  0
   28.5570    8.3620   24.9830 C   0  0  0  0  0  0  0  0  0  0  0  0
   28.9960    9.7410   23.9400 Cl  0  0  0  0  0  0  0  0  0  0  0  0
   28.4620    7.0770   24.4750 C   0  0  0  0  0  3  0  0  0  0  0  0
   28.1130    6.0180   25.2900 C   0  0  0  0  0  3  0  0  0  0  0  0
   27.4920    3.8730   26.8460 O   0  0  0  0  0  0  0  0  0  0  0  0
   27.3120    3.1660   27.5140 H   0  0  0  0  0  0  0  0  0  0  0  0
   23.7020    5.0770   31.7460 N   0  0  0  0  0  0  0  0  0  0  0  0
   22.4330    5.5490   31.2880 C   0  0  0  0  0  0  0  0  0  0  0  0
   21.7910    4.7360   30.5710 O   0  0  0  0  0  0  0  0  0  0  0  0
   24.1950    5.7540   32.3870 H   0  0  0  0  0  0  0  0  0  0  0  0
   21.9540    6.8570   31.6400 C   0  0  0  0  0  3  0  0  0  0  0  0
   20.8340    7.2410   32.1580 C   0  0  0  0  0  0  0  0  0  0  0  0
   19.7740    6.3420   32.4930 N   0  0  0  0  0  0  0  0  0  0  0  0
   20.5880    8.6720   32.4680 C   0  0  0  0  0  0  0  0  0  0  0  0
   18.5710    6.7860   33.0800 N   0  0  0  0  0  0  0  0  0  0  0  0
   19.8620    5.3140   32.3090 H   0  0  0  0  0  0  0  0  0  0  0  0
   18.3620    8.1510   33.3630 C   0  0  0  0  0  0  0  0  0  0  0  0
   17.8160    6.1020   33.3180 H   0  0  0  0  0  0  0  0  0  0  0  0
   17.2690    8.5070   33.8920 O   0  0  0  0  0  0  0  0  0  0  0  0
   19.4120    9.0980   33.0400 C   0  0  0  0  0  0  0  0  0  0  0  0
   19.1700   10.4180   33.3620 C   0  0  0  0  0  3  0  0  0  0  0  0
   20.1700   11.3480   33.0900 C   0  0  0  0  0  3  0  0  0  0  0  0
   21.3570   10.9760   32.5220 C   0  0  0  0  0  3  0  0  0  0  0  0
   21.5380    9.6210   32.2190 C   0  0  0  0  0  3  0  0  0  0  0  0
  1 19  1  0  0  0  0
  2  1  1  0  0  0  0
  2  9  2  0  0  0  0
  3  2  1  0  0  0  0
  4  3  1  0  0  0  0
  5  3  1  0  0  0  0
  6  4  1  0  0  0  0
  7 17  1  6  0  0  0
  7  6  1  0  0  0  0
  7  8  1  0  0  0  0
  8  5  1  0  0  0  0
 10 11  1  0  0  0  0
 10  7  1  0  0  0  0
 12 11  2  0  0  0  0
 13 12  1  0  0  0  0
 14 13  1  0  0  0  0
 15 13  2  0  0  0  0
 15 16  1  0  0  0  0
 16 10  2  0  0  0  0
 17 18  1  0  0  0  0
 19 22  1  0  0  0  0
 20 23  1  0  0  0  0
 20 19  1  0  0  0  0
 21 20  2  0  0  0  0
 23 24  2  0  0  0  0
 24 26  1  0  0  0  0
 24 25  1  0  0  0  0
 25 27  1  0  0  0  0
 26 32  1  0  0  0  0
 27 30  1  0  0  0  0
 27 29  1  0  0  0  0
 28 25  1  0  0  0  0
 29 31  2  0  0  0  0
 32 33  2  0  0  0  0
 32 29  1  0  0  0  0
 34 33  1  0  0  0  0
 35 34  2  0  0  0  0
 36 26  2  0  0  0  0
 36 35  1  0  0  0  0
M  END
>  <Pose>
1

>  <Score>
-9.581

$$$$
