/Users/jonathanwahrer/Desktop/Msc/3_Semester/Drug_Design_Praktikum/waehrer_HTS_screening/HTS_experiment/out/docking_results/vina_output/3elj/1930_docked.pdbqt
 OpenBabel03192218433D

 34 37  0  0  1  0  0  0  0  0999 V2000
   24.7150    7.9010   29.5530 C   0  0  0  0  0  0  0  0  0  0  0  0
   25.2470    9.0380   29.4770 O   0  0  0  0  0  0  0  0  0  0  0  0
   25.5070    6.7500   29.3830 N   0  0  0  0  0  0  0  0  0  0  0  0
   26.9450    6.8180   29.1180 C   0  0  0  0  0  2  0  0  0  0  0  0
   27.1240    6.2420   27.7270 C   0  0  2  0  0  3  0  0  0  0  0  0
   26.5350    4.8540   27.6370 C   0  0  2  0  0  0  0  0  0  0  0  0
   26.0150    4.4060   29.0080 C   0  0  0  0  0  2  0  0  0  0  0  0
   24.9630    5.4050   29.4580 C   0  0  0  0  0  2  0  0  0  0  0  0
   27.4810    3.8290   27.0890 C   0  0  0  0  0  1  0  0  0  0  0  0
   23.2600    7.8060   29.8200 C   0  0  0  0  0  2  0  0  0  0  0  0
   22.9030    7.9810   31.2600 C   0  0  0  0  0  2  0  0  0  0  0  0
   22.3340    9.3140   31.5810 C   0  0  0  0  0  0  0  0  0  0  0  0
   22.6840   10.5230   31.1100 N   0  0  0  0  0  0  0  0  0  0  0  0
   21.9230   11.4900   31.6500 C   0  0  0  0  0  0  0  0  0  0  0  0
   21.8430   12.8690   31.5340 C   0  0  0  0  0  3  0  0  0  0  0  0
   21.0430   10.8660   32.5090 C   0  0  0  0  0  0  0  0  0  0  0  0
   20.9320   13.6170   32.2340 C   0  0  0  0  0  0  0  0  0  0  0  0
   20.8220   15.3650   32.0950 Cl  0  0  0  0  0  0  0  0  0  0  0  0
   20.0660   12.9620   33.0840 C   0  0  0  0  0  3  0  0  0  0  0  0
   20.1110   11.5800   33.2320 C   0  0  0  0  0  3  0  0  0  0  0  0
   21.3100    9.5560   32.4490 N   0  0  0  0  0  0  0  0  0  0  0  0
   20.6450    8.4790   33.1800 C   0  0  0  0  0  1  0  0  0  0  0  0
   28.4390    6.3640   27.2030 N   0  0  0  0  0  0  0  0  0  0  0  0
   29.5410    6.1130   27.9690 C   0  0  0  0  0  3  0  0  0  0  0  0
   30.8170    6.2320   27.4620 C   0  0  0  0  0  0  0  0  0  0  0  0
   30.9940    6.6120   26.1510 C   0  0  0  0  0  0  0  0  0  0  0  0
   32.0360    5.9660   28.2670 C   0  0  0  0  0  1  0  0  0  0  0  0
   32.1600    6.7340   25.6430 O   0  0  0  0  0  0  0  0  0  0  0  0
   29.9040    6.8580   25.4030 N   0  0  0  0  0  0  0  0  0  0  0  0
   28.6600    6.7280   25.9490 C   0  0  0  0  0  0  0  0  0  0  0  0
   30.0320    7.1450   24.4150 H   0  0  0  0  0  0  0  0  0  0  0  0
   27.6840    6.9700   25.2050 O   0  0  0  0  0  0  0  0  0  0  0  0
   25.3910    4.8160   26.8030 O   0  0  0  0  0  0  0  0  0  0  0  0
   24.6250    5.0420   27.3870 H   0  0  0  0  0  0  0  0  0  0  0  0
  1 10  1  0  0  0  0
  2  1  2  0  0  0  0
  3  8  1  0  0  0  0
  3  1  1  0  0  0  0
  4  3  1  0  0  0  0
  5 23  1  1  0  0  0
  5  4  1  0  0  0  0
  6  9  1  6  0  0  0
  6  5  1  0  0  0  0
  6  7  1  0  0  0  0
  7  8  1  0  0  0  0
 10 11  1  0  0  0  0
 11 12  1  0  0  0  0
 12 21  1  0  0  0  0
 13 12  2  0  0  0  0
 13 14  1  0  0  0  0
 14 16  1  0  0  0  0
 15 14  2  0  0  0  0
 15 17  1  0  0  0  0
 16 20  2  0  0  0  0
 17 19  2  0  0  0  0
 18 17  1  0  0  0  0
 19 20  1  0  0  0  0
 21 16  1  0  0  0  0
 21 22  1  0  0  0  0
 23 24  1  0  0  0  0
 25 24  2  0  0  0  0
 25 27  1  0  0  0  0
 26 25  1  0  0  0  0
 28 26  2  0  0  0  0
 29 30  1  0  0  0  0
 29 26  1  0  0  0  0
 30 23  1  0  0  0  0
 31 29  1  0  0  0  0
 32 30  2  0  0  0  0
 33 34  1  0  0  0  0
 33  6  1  0  0  0  0
M  END
>  <Pose>
1

>  <Score>
-8.424

$$$$
