/Users/jonathanwahrer/Desktop/Msc/3_Semester/Drug_Design_Praktikum/waehrer_HTS_screening/HTS_experiment/out/docking_results/vina_output/3elj/1936_docked.pdbqt
 OpenBabel03192218433D

 25 28  0  0  0  0  0  0  0  0999 V2000
   20.7530   13.2780   33.1050 N   0  0  0  0  0  0  0  0  0  0  0  0
   20.7340   14.2320   32.0700 C   0  0  0  0  0  0  0  0  0  0  0  0
   19.6410   14.4790   31.5320 O   0  0  0  0  0  0  0  0  0  0  0  0
   21.6630   13.0540   33.5710 H   0  0  0  0  0  0  0  0  0  0  0  0
   19.5600   12.5850   33.5560 C   0  0  0  0  0  2  0  0  0  0  0  0
   19.6740   11.1170   33.2480 C   0  0  0  0  0  0  0  0  0  0  0  0
   20.7690   10.4620   32.8210 N   0  0  0  0  0  0  0  0  0  0  0  0
   20.5040    9.1550   32.6490 C   0  0  0  0  0  0  0  0  0  0  0  0
   21.2150    8.0460   32.2440 C   0  0  0  0  0  3  0  0  0  0  0  0
   19.1600    8.9680   32.9860 C   0  0  0  0  0  0  0  0  0  0  0  0
   20.6780    6.7730   32.1540 C   0  0  0  0  0  0  0  0  0  0  0  0
   21.6340    5.3880   31.6320 Cl  0  0  0  0  0  0  0  0  0  0  0  0
   19.3380    6.6170   32.4970 C   0  0  0  0  0  3  0  0  0  0  0  0
   18.6130    7.7090   32.9020 C   0  0  0  0  0  3  0  0  0  0  0  0
   18.7100   10.1880   33.3420 N   0  0  0  0  0  0  0  0  0  0  0  0
   17.7320   10.3890   33.6510 H   0  0  0  0  0  0  0  0  0  0  0  0
   21.9430   14.9360   31.6080 C   0  0  0  0  0  0  0  0  0  0  0  0
   21.7850   16.3730   31.2970 C   0  0  0  0  0  2  0  0  0  0  0  0
   22.4490   16.0570   32.5780 C   0  0  0  0  0  2  0  0  0  0  0  0
   23.0380   14.1880   31.0670 N   0  0  0  0  0  0  0  0  0  0  0  0
   22.8270   13.5830   29.8120 C   0  0  0  0  0  2  0  0  0  0  0  0
   22.4450   12.1280   30.0560 C   0  0  0  0  0  2  0  0  0  0  0  0
   23.5250   11.4330   30.5440 O   0  0  0  0  0  0  0  0  0  0  0  0
   24.4020   12.1740   31.2970 C   0  0  0  0  0  2  0  0  0  0  0  0
   23.7410   13.3640   31.9630 C   0  0  0  0  0  2  0  0  0  0  0  0
  1  5  1  0  0  0  0
  1  4  1  0  0  0  0
  2  1  1  0  0  0  0
  3  2  2  0  0  0  0
  6 15  1  0  0  0  0
  6  5  1  0  0  0  0
  7  6  2  0  0  0  0
  8  7  1  0  0  0  0
  8 10  1  0  0  0  0
  9  8  2  0  0  0  0
 10 15  1  0  0  0  0
 11  9  1  0  0  0  0
 11 13  2  0  0  0  0
 12 11  1  0  0  0  0
 13 14  1  0  0  0  0
 14 10  2  0  0  0  0
 15 16  1  0  0  0  0
 17  2  1  0  0  0  0
 17 19  1  0  0  0  0
 18 17  1  0  0  0  0
 18 19  1  0  0  0  0
 20 17  1  0  0  0  0
 20 25  1  0  0  0  0
 21 22  1  0  0  0  0
 21 20  1  0  0  0  0
 22 23  1  0  0  0  0
 23 24  1  0  0  0  0
 24 25  1  0  0  0  0
M  END
>  <Pose>
1

>  <Score>
-8.264

$$$$
