/Users/jonathanwahrer/Desktop/Msc/3_Semester/Drug_Design_Praktikum/waehrer_HTS_screening/HTS_experiment/out/docking_results/vina_output/3elj/1937_docked.pdbqt
 OpenBabel03192218433D

 31 34  0  0  1  0  0  0  0  0999 V2000
   25.8940    4.6100   30.2330 N   0  0  0  0  0  0  0  0  0  0  0  0
   27.1540    4.5640   30.8150 C   0  0  0  0  0  2  0  0  0  0  0  0
   28.2080    4.8970   29.6750 C   0  0  0  0  0  2  0  0  0  0  0  0
   27.4200    5.7530   28.8280 N   0  0  0  0  0  0  0  0  0  0  0  0
   26.5530    4.9450   27.9220 C   0  0  0  0  0  2  0  0  0  0  0  0
   25.9240    3.9650   28.8730 C   0  0  0  0  0  2  0  0  0  0  0  0
   27.5050    7.1120   28.7790 C   0  0  0  0  0  0  0  0  0  0  0  0
   26.4790    7.7550   28.3660 O   0  0  0  0  0  0  0  0  0  0  0  0
   24.7050    4.1180   30.8860 C   0  0  0  0  0  2  0  0  0  0  0  0
   23.5820    5.1080   30.5610 C   0  0  0  0  0  0  0  0  0  0  0  0
   23.9510    6.4130   30.2250 N   0  0  0  0  0  0  0  0  0  0  0  0
   24.9730    6.6650   30.4710 H   0  0  0  0  0  0  0  0  0  0  0  0
   22.4360    4.7400   30.5900 O   0  0  0  0  0  0  0  0  0  0  0  0
   23.1190    7.4390   29.7100 C   0  0  0  0  0  2  0  0  0  0  0  0
   22.5780    8.3350   30.7650 C   0  0  0  0  0  0  0  0  0  0  0  0
   22.8500    9.6950   30.6710 C   0  0  0  0  0  0  0  0  0  0  0  0
   24.0250   10.2250   29.4920 Cl  0  0  0  0  0  0  0  0  0  0  0  0
   22.2740   10.6050   31.4970 C   0  0  0  0  0  3  0  0  0  0  0  0
   21.3660   10.2710   32.4800 C   0  0  0  0  0  3  0  0  0  0  0  0
   21.0920    8.8910   32.5730 C   0  0  0  0  0  3  0  0  0  0  0  0
   21.6920    7.9550   31.7380 C   0  0  0  0  0  3  0  0  0  0  0  0
   28.6770    7.9750   29.1290 C   0  0  1  0  0  3  0  0  0  0  0  0
   29.7770    7.4160   28.3380 O   0  0  0  0  0  0  0  0  0  0  0  0
   29.2980    6.9720   27.0710 C   0  0  0  0  0  0  0  0  0  0  0  0
   28.2860    7.6930   26.4930 C   0  0  0  0  0  0  0  0  0  0  0  0
   29.8250    5.8580   26.4280 C   0  0  0  0  0  3  0  0  0  0  0  0
   27.7480    7.3330   25.2630 C   0  0  0  0  0  3  0  0  0  0  0  0
   27.7840    8.8180   27.1570 O   0  0  0  0  0  0  0  0  0  0  0  0
   28.2940    6.2070   24.6560 C   0  0  0  0  0  3  0  0  0  0  0  0
   29.3170    5.4660   25.2060 C   0  0  0  0  0  3  0  0  0  0  0  0
   28.4010    9.3050   28.3760 C   0  0  0  0  0  2  0  0  0  0  0  0
  1  2  1  0  0  0  0
  1  9  1  0  0  0  0
  3  2  1  0  0  0  0
  4  3  1  0  0  0  0
  5  4  1  0  0  0  0
  5  6  1  0  0  0  0
  6  1  1  0  0  0  0
  7  4  1  0  0  0  0
  8  7  2  0  0  0  0
 10 13  2  0  0  0  0
 10  9  1  0  0  0  0
 11 12  1  0  0  0  0
 11 10  1  0  0  0  0
 14 11  1  0  0  0  0
 14 15  1  0  0  0  0
 15 21  1  0  0  0  0
 16 15  2  0  0  0  0
 16 18  1  0  0  0  0
 17 16  1  0  0  0  0
 18 19  2  0  0  0  0
 19 20  1  0  0  0  0
 21 20  2  0  0  0  0
 22  7  1  6  0  0  0
 23 22  1  0  0  0  0
 24 23  1  0  0  0  0
 25 24  1  0  0  0  0
 25 28  1  0  0  0  0
 26 24  2  0  0  0  0
 27 25  2  0  0  0  0
 28 31  1  0  0  0  0
 29 30  2  0  0  0  0
 29 27  1  0  0  0  0
 30 26  1  0  0  0  0
 31 22  1  0  0  0  0
M  END
>  <Pose>
1

>  <Score>
-7.061

$$$$
