/Users/jonathanwahrer/Desktop/Msc/3_Semester/Drug_Design_Praktikum/waehrer_HTS_screening/HTS_experiment/out/docking_results/vina_output/3elj/1941_docked.pdbqt
 OpenBabel03192218443D

 22 25  0  0  1  0  0  0  0  0999 V2000
   24.8070    6.8390   29.7260 N   0  0  0  0  0  0  0  0  0  0  0  0
   23.4310    7.1190   30.0190 C   0  0  0  0  0  0  0  0  0  0  0  0
   22.4770    6.5330   29.4000 O   0  0  0  0  0  0  0  0  0  0  0  0
   23.3520    8.1310   31.0850 C   0  0  1  0  0  3  0  0  0  0  0  0
   24.7150    8.7790   31.0380 C   0  0  2  0  0  3  0  0  0  0  0  0
   24.5540   10.2340   30.6520 C   0  0  2  0  0  3  0  0  0  0  0  0
   23.8340   10.8920   31.8380 C   0  0  0  0  0  2  0  0  0  0  0  0
   22.4820   10.2400   31.8900 C   0  0  0  0  0  0  0  0  0  0  0  0
   21.6540   10.6150   32.6760 O   0  0  0  0  0  0  0  0  0  0  0  0
   22.2470    9.1170   30.9180 C   0  0  1  0  0  3  0  0  0  0  0  0
   22.3100    9.7600   29.5280 C   0  0  0  0  0  2  0  0  0  0  0  0
   23.6680   10.4010   29.4490 C   0  0  0  0  0  0  0  0  0  0  0  0
   23.9890   11.0070   28.4630 O   0  0  0  0  0  0  0  0  0  0  0  0
   25.5330    7.9970   30.1130 C   0  0  0  0  0  0  0  0  0  0  0  0
   26.6850    8.2990   29.7260 O   0  0  0  0  0  0  0  0  0  0  0  0
   25.3570    5.6520   29.1660 C   0  0  0  0  0  0  0  0  0  0  0  0
   25.3750    4.4830   29.9030 C   0  0  0  0  0  3  0  0  0  0  0  0
   25.8940    3.3090   29.4050 C   0  0  0  0  0  3  0  0  0  0  0  0
   26.4220    3.2510   28.1390 C   0  0  0  0  0  0  0  0  0  0  0  0
   27.0870    1.7550   27.4920 Cl  0  0  0  0  0  0  0  0  0  0  0  0
   26.4140    4.4110   27.3820 C   0  0  0  0  0  3  0  0  0  0  0  0
   25.8910    5.5740   27.8990 C   0  0  0  0  0  3  0  0  0  0  0  0
  1  2  1  0  0  0  0
  1 14  1  0  0  0  0
  3  2  2  0  0  0  0
  4  2  1  6  0  0  0
  5 14  1  6  0  0  0
  5  4  1  0  0  0  0
  6  5  1  0  0  0  0
  6  7  1  1  0  0  0
  7  8  1  0  0  0  0
  8  9  2  0  0  0  0
 10 11  1  6  0  0  0
 10  4  1  0  0  0  0
 10  8  1  0  0  0  0
 12 11  1  0  0  0  0
 12  6  1  0  0  0  0
 13 12  2  0  0  0  0
 15 14  2  0  0  0  0
 16  1  1  0  0  0  0
 16 17  1  0  0  0  0
 18 17  2  0  0  0  0
 19 18  1  0  0  0  0
 20 19  1  0  0  0  0
 21 22  1  0  0  0  0
 21 19  2  0  0  0  0
 22 16  2  0  0  0  0
M  END
>  <Pose>
1

>  <Score>
-7.122

$$$$
