/Users/jonathanwahrer/Desktop/Msc/3_Semester/Drug_Design_Praktikum/waehrer_HTS_screening/HTS_experiment/out/docking_results/vina_output/3elj/1943_docked.pdbqt
 OpenBabel03192218443D

 34 38  0  0  1  0  0  0  0  0999 V2000
   21.7460    7.1690   30.9620 N   0  0  0  0  0  0  0  0  0  0  0  0
   22.4700    5.9210   30.9110 C   0  0  0  0  0  0  0  0  0  0  0  0
   22.2240    4.9120   31.5790 O   0  0  0  0  0  0  0  0  0  0  0  0
   23.5580    6.0240   29.9300 C   0  0  2  0  0  3  0  0  0  0  0  0
   24.9050    5.5210   30.3920 C   0  0  2  0  0  0  0  0  0  0  0  0
   25.6260    6.6390   30.9510 N   0  0  0  0  0  0  0  0  0  0  0  0
   24.6540    7.6990   31.1320 C   0  0  2  0  0  3  0  0  0  0  0  0
   23.7920    7.5170   29.8990 C   0  0  2  0  0  3  0  0  0  0  0  0
   22.4240    8.0480   30.0490 C   0  0  0  0  0  0  0  0  0  0  0  0
   22.0090    9.0540   29.4690 O   0  0  0  0  0  0  0  0  0  0  0  0
   25.5700    5.0020   29.1470 C   0  0  0  0  0  0  0  0  0  0  0  0
   25.6380    3.6420   29.2510 C   0  0  0  0  0  0  0  0  0  0  0  0
   26.1540    2.8460   28.2160 C   0  0  0  0  0  3  0  0  0  0  0  0
   26.6140    3.4330   27.0560 C   0  0  0  0  0  3  0  0  0  0  0  0
   26.5490    4.7960   26.9510 C   0  0  0  0  0  3  0  0  0  0  0  0
   26.0380    5.5640   27.9770 C   0  0  0  0  0  3  0  0  0  0  0  0
   25.2060    3.2070   30.5310 N   0  0  0  0  0  0  0  0  0  0  0  0
   24.8560    4.3680   31.2680 C   0  0  0  0  0  0  0  0  0  0  0  0
   24.5630    4.3460   32.4820 O   0  0  0  0  0  0  0  0  0  0  0  0
   26.0320    6.3300   31.8660 H   0  0  0  0  0  0  0  0  0  0  0  0
   25.1560    2.1990   30.8740 H   0  0  0  0  0  0  0  0  0  0  0  0
   25.2930    9.0630   31.1550 C   0  0  0  0  0  2  0  0  0  0  0  0
   25.6050    9.6020   29.8350 C   0  0  0  0  0  0  0  0  0  0  0  0
   26.4990    9.0890   29.1360 O   0  0  0  0  0  0  0  0  0  0  0  0
   24.8900   10.7170   29.3400 N   0  0  0  0  0  0  0  0  0  0  0  0
   24.1640   11.2440   29.8830 H   0  0  0  0  0  0  0  0  0  0  0  0
   25.0390   11.1080   28.3640 H   0  0  0  0  0  0  0  0  0  0  0  0
   20.6150    7.5020   31.7150 C   0  0  0  0  0  0  0  0  0  0  0  0
   19.5320    6.6770   31.8490 C   0  0  0  0  0  3  0  0  0  0  0  0
   18.4090    7.0070   32.6000 C   0  0  0  0  0  3  0  0  0  0  0  0
   18.3670    8.2170   33.2490 C   0  0  0  0  0  0  0  0  0  0  0  0
   16.9610    8.6430   34.2090 Cl  0  0  0  0  0  0  0  0  0  0  0  0
   19.4260    9.0640   33.1360 C   0  0  0  0  0  3  0  0  0  0  0  0
   20.5430    8.7050   32.3730 C   0  0  0  0  0  3  0  0  0  0  0  0
  1 28  1  0  0  0  0
  2  1  1  0  0  0  0
  2  3  2  0  0  0  0
  4  5  1  0  0  0  0
  4  2  1  1  0  0  0
  5 11  1  6  0  0  0
  5  6  1  0  0  0  0
  5 18  1  0  0  0  0
  6  7  1  0  0  0  0
  6 20  1  0  0  0  0
  7 22  1  6  0  0  0
  8  4  1  0  0  0  0
  8  9  1  1  0  0  0
  8  7  1  0  0  0  0
  9  1  1  0  0  0  0
 10  9  2  0  0  0  0
 11 12  1  0  0  0  0
 12 17  1  0  0  0  0
 13 12  2  0  0  0  0
 14 13  1  0  0  0  0
 15 14  2  0  0  0  0
 15 16  1  0  0  0  0
 16 11  2  0  0  0  0
 17 21  1  0  0  0  0
 17 18  1  0  0  0  0
 18 19  2  0  0  0  0
 23 22  1  0  0  0  0
 24 23  2  0  0  0  0
 25 23  1  0  0  0  0
 25 26  1  0  0  0  0
 27 25  1  0  0  0  0
 28 29  2  0  0  0  0
 28 34  1  0  0  0  0
 29 30  1  0  0  0  0
 30 31  2  0  0  0  0
 31 32  1  0  0  0  0
 33 31  1  0  0  0  0
 34 33  2  0  0  0  0
M  END
>  <Pose>
1

>  <Score>
-8.452

$$$$
