/Users/jonathanwahrer/Desktop/Msc/3_Semester/Drug_Design_Praktikum/waehrer_HTS_screening/HTS_experiment/out/docking_results/vina_output/3elj/1945_docked.pdbqt
 OpenBabel03192218443D

 24 27  0  0  0  0  0  0  0  0999 V2000
   24.6970    5.5320   30.1890 Cl  0  0  0  0  0  0  0  0  0  0  0  0
   23.2000    6.1040   30.8980 C   0  0  0  0  0  0  0  0  0  0  0  0
   23.0370    7.4110   31.2940 C   0  0  0  0  0  3  0  0  0  0  0  0
   21.8380    7.8550   31.8590 C   0  0  0  0  0  0  0  0  0  0  0  0
   20.8070    6.9390   32.0110 C   0  0  0  0  0  0  0  0  0  0  0  0
   20.9540    5.6300   31.6200 C   0  0  0  0  0  3  0  0  0  0  0  0
   22.1370    5.2070   31.0690 C   0  0  0  0  0  3  0  0  0  0  0  0
   19.5240    7.3610   32.6010 C   0  0  0  0  0  0  0  0  0  0  0  0
   18.4280    6.7300   32.8510 N   0  0  0  0  0  0  0  0  0  0  0  0
   17.4280    7.5760   33.4420 C   0  0  0  0  0  3  0  0  0  0  0  0
   18.0890    8.9170   33.5370 C   0  0  0  0  0  3  0  0  0  0  0  0
   19.4050    8.7150   32.9920 N   0  0  0  0  0  0  0  0  0  0  0  0
   20.4810    9.6300   32.8220 C   0  0  0  0  0  0  0  0  0  0  0  0
   20.3940   10.8430   33.1630 O   0  0  0  0  0  0  0  0  0  0  0  0
   21.7340    9.2200   32.2460 N   0  0  0  0  0  0  0  0  0  0  0  0
   22.8220   10.1740   32.0820 C   0  0  0  0  0  2  0  0  0  0  0  0
   22.4570   11.2400   31.1200 C   0  0  0  0  0  0  0  0  0  0  0  0
   22.3960   10.9430   29.9020 O   0  0  0  0  0  0  0  0  0  0  0  0
   22.1750   12.5710   31.5100 N   0  0  0  0  0  0  0  0  0  0  0  0
   22.2280   12.8010   32.5230 H   0  0  0  0  0  0  0  0  0  0  0  0
   21.8210   13.5900   30.5520 C   0  0  0  0  0  2  0  0  0  0  0  0
   22.3890   14.9180   30.9780 C   0  0  0  0  0  3  0  0  0  0  0  0
   22.5020   15.2340   32.4280 C   0  0  0  0  0  2  0  0  0  0  0  0
   21.4440   15.8880   31.6240 C   0  0  0  0  0  2  0  0  0  0  0  0
  1  2  1  0  0  0  0
  2  7  2  0  0  0  0
  2  3  1  0  0  0  0
  3  4  2  0  0  0  0
  4  5  1  0  0  0  0
  4 15  1  0  0  0  0
  5  8  1  0  0  0  0
  6  5  2  0  0  0  0
  7  6  1  0  0  0  0
  8  9  2  0  0  0  0
  8 12  1  0  0  0  0
  9 10  1  0  0  0  0
 10 11  2  0  0  0  0
 12 11  1  0  0  0  0
 13 12  1  0  0  0  0
 13 14  2  0  0  0  0
 15 13  1  0  0  0  0
 16 15  1  0  0  0  0
 17 19  1  0  0  0  0
 17 16  1  0  0  0  0
 18 17  2  0  0  0  0
 19 20  1  0  0  0  0
 21 22  1  0  0  0  0
 21 19  1  0  0  0  0
 22 24  1  0  0  0  0
 22 23  1  0  0  0  0
 24 23  1  0  0  0  0
M  END
>  <Pose>
1

>  <Score>
-8.334

$$$$
