/Users/jonathanwahrer/Desktop/Msc/3_Semester/Drug_Design_Praktikum/waehrer_HTS_screening/HTS_experiment/out/docking_results/vina_output/3elj/1957_docked.pdbqt
 OpenBabel03192218453D

 36 40  0  0  1  0  0  0  0  0999 V2000
   23.6620    6.4450   30.9380 C   0  0  2  0  0  3  0  0  0  0  0  0
   22.6540    6.7620   31.9410 N   0  0  0  0  0  0  0  0  0  0  0  0
   22.1110    8.0590   31.5910 C   0  0  1  0  0  0  0  0  0  0  0  0
   22.1760    8.0470   30.0910 C   0  0  2  0  0  3  0  0  0  0  0  0
   23.4360    7.3140   29.7580 C   0  0  1  0  0  3  0  0  0  0  0  0
   24.4830    8.3580   29.5850 C   0  0  0  0  0  0  0  0  0  0  0  0
   25.7230    8.1750   29.5520 O   0  0  0  0  0  0  0  0  0  0  0  0
   23.7860    9.6180   29.4630 N   0  0  0  0  0  0  0  0  0  0  0  0
   22.3950    9.3700   29.4810 C   0  0  0  0  0  0  0  0  0  0  0  0
   21.4850   10.1260   29.0610 O   0  0  0  0  0  0  0  0  0  0  0  0
   20.7210    8.2310   32.0780 C   0  0  0  0  0  0  0  0  0  0  0  0
   20.7380    9.2860   32.9590 C   0  0  0  0  0  0  0  0  0  0  0  0
   19.5520    9.6690   33.5700 C   0  0  0  0  0  3  0  0  0  0  0  0
   18.3950    8.9870   33.2770 C   0  0  0  0  0  3  0  0  0  0  0  0
   18.3660    7.9240   32.3910 C   0  0  0  0  0  3  0  0  0  0  0  0
   19.5520    7.5530   31.7920 C   0  0  0  0  0  3  0  0  0  0  0  0
   22.0670    9.8230   33.0950 N   0  0  0  0  0  0  0  0  0  0  0  0
   22.9200    9.0660   32.2560 C   0  0  0  0  0  0  0  0  0  0  0  0
   24.1400    9.2680   32.1470 O   0  0  0  0  0  0  0  0  0  0  0  0
   23.0650    6.7570   32.8810 H   0  0  0  0  0  0  0  0  0  0  0  0
   22.2950   10.6310   33.7180 H   0  0  0  0  0  0  0  0  0  0  0  0
   23.5200    4.9720   30.6650 C   0  0  1  0  0  3  0  0  0  0  0  0
   24.5440    4.1460   31.3660 C   0  0  0  0  0  0  0  0  0  0  0  0
   25.9020    4.3580   31.1300 C   0  0  0  0  0  3  0  0  0  0  0  0
   26.8630    3.6000   31.7460 C   0  0  0  0  0  3  0  0  0  0  0  0
   26.5330    2.5900   32.6300 C   0  0  0  0  0  0  0  0  0  0  0  0
   27.7530    1.6110   33.4260 Cl  0  0  0  0  0  0  0  0  0  0  0  0
   25.1870    2.3990   32.8460 C   0  0  0  0  0  3  0  0  0  0  0  0
   24.2040    3.1450   32.2420 C   0  0  0  0  0  3  0  0  0  0  0  0
   22.2750    4.4700   30.9440 O   0  0  0  0  0  0  0  0  0  0  0  0
   21.9530    3.9830   30.1430 H   0  0  0  0  0  0  0  0  0  0  0  0
   24.4140   10.9010   29.3540 C   0  0  0  0  0  2  0  0  0  0  0  0
   24.8130   11.5400   30.6310 C   0  0  0  0  0  2  0  0  0  0  0  0
   24.0030   12.7050   31.0810 C   0  0  0  0  0  2  0  0  0  0  0  0
   22.7000   12.3710   31.4240 O   0  0  0  0  0  0  0  0  0  0  0  0
   21.8050   13.2210   30.7410 C   0  0  0  0  0  1  0  0  0  0  0  0
  1 22  1  6  0  0  0
  1  2  1  0  0  0  0
  2 20  1  0  0  0  0
  3  2  1  0  0  0  0
  3 11  1  1  0  0  0
  3 18  1  0  0  0  0
  4  9  1  1  0  0  0
  4  3  1  0  0  0  0
  5  6  1  1  0  0  0
  5  4  1  0  0  0  0
  5  1  1  0  0  0  0
  7  6  2  0  0  0  0
  8  9  1  0  0  0  0
  8  6  1  0  0  0  0
 10  9  2  0  0  0  0
 11 12  1  0  0  0  0
 12 17  1  0  0  0  0
 12 13  2  0  0  0  0
 14 13  1  0  0  0  0
 15 14  2  0  0  0  0
 16 11  2  0  0  0  0
 16 15  1  0  0  0  0
 17 21  1  0  0  0  0
 18 17  1  0  0  0  0
 19 18  2  0  0  0  0
 22 30  1  1  0  0  0
 22 23  1  0  0  0  0
 23 29  1  0  0  0  0
 24 23  2  0  0  0  0
 24 25  1  0  0  0  0
 25 26  2  0  0  0  0
 26 28  1  0  0  0  0
 26 27  1  0  0  0  0
 29 28  2  0  0  0  0
 31 30  1  0  0  0  0
 32  8  1  0  0  0  0
 32 33  1  0  0  0  0
 33 34  1  0  0  0  0
 34 35  1  0  0  0  0
 36 35  1  0  0  0  0
M  END
>  <Pose>
1

>  <Score>
-8.341

$$$$
