/Users/jonathanwahrer/Desktop/Msc/3_Semester/Drug_Design_Praktikum/waehrer_HTS_screening/HTS_experiment/out/docking_results/vina_output/3elj/1960_docked.pdbqt
 OpenBabel03192218453D

 28 31  0  0  0  0  0  0  0  0999 V2000
   23.9890    9.5140   29.8110 C   0  0  0  0  0  0  0  0  0  0  0  0
   23.2000    9.0370   28.9540 O   0  0  0  0  0  0  0  0  0  0  0  0
   24.0320   10.9070   29.9850 N   0  0  0  0  0  0  0  0  0  0  0  0
   23.1760   11.7990   29.1830 C   0  0  0  0  0  2  0  0  0  0  0  0
   22.7060   12.9340   30.0800 C   0  0  0  0  0  2  0  0  0  0  0  0
   22.6960   12.4170   31.4340 N   0  0  0  0  0  0  0  0  0  0  0  0
   24.0050   12.2200   32.0340 C   0  0  0  0  0  2  0  0  0  0  0  0
   24.8870   11.5960   30.9400 C   0  0  0  0  0  2  0  0  0  0  0  0
   21.4890   12.1110   32.1150 C   0  0  0  0  0  0  0  0  0  0  0  0
   20.6560   13.1300   32.5390 C   0  0  0  0  0  3  0  0  0  0  0  0
   19.5070   12.8080   33.2030 N   0  0  0  0  0  0  0  0  0  0  0  0
   19.1520   11.5650   33.4620 N   0  0  0  0  0  0  0  0  0  0  0  0
   19.9290   10.5080   33.0700 C   0  0  0  0  0  0  0  0  0  0  0  0
   21.0740   10.8340   32.4080 C   0  0  0  0  0  3  0  0  0  0  0  0
   19.4900    9.2030   33.3830 N   0  0  0  0  0  0  0  0  0  0  0  0
   20.4320    8.1040   33.4920 C   0  0  0  0  0  2  0  0  0  0  0  0
   19.8980    6.8670   32.7690 C   0  0  0  0  0  2  0  0  0  0  0  0
   18.5800    6.6160   33.0970 O   0  0  0  0  0  0  0  0  0  0  0  0
   17.8190    7.6910   32.6650 C   0  0  0  0  0  2  0  0  0  0  0  0
   18.1050    8.8780   33.6030 C   0  0  0  0  0  2  0  0  0  0  0  0
   24.8160    8.5640   30.5780 C   0  0  0  0  0  2  0  0  0  0  0  0
   25.4280    7.5370   29.6930 C   0  0  0  0  0  0  0  0  0  0  0  0
   24.8080    6.2970   29.5620 C   0  0  0  0  0  3  0  0  0  0  0  0
   25.3440    5.3150   28.7480 C   0  0  0  0  0  3  0  0  0  0  0  0
   26.5230    5.5510   28.0380 C   0  0  0  0  0  0  0  0  0  0  0  0
   27.2030    4.3240   27.0130 Cl  0  0  0  0  0  0  0  0  0  0  0  0
   27.1220    6.7800   28.1800 C   0  0  0  0  0  3  0  0  0  0  0  0
   26.5830    7.7710   29.0000 C   0  0  0  0  0  3  0  0  0  0  0  0
  1  3  1  0  0  0  0
  1 21  1  0  0  0  0
  2  1  2  0  0  0  0
  3  8  1  0  0  0  0
  4  3  1  0  0  0  0
  4  5  1  0  0  0  0
  5  6  1  0  0  0  0
  6  7  1  0  0  0  0
  6  9  1  0  0  0  0
  8  7  1  0  0  0  0
  9 14  2  0  0  0  0
  9 10  1  0  0  0  0
 10 11  2  0  0  0  0
 11 12  1  0  0  0  0
 13 15  1  0  0  0  0
 13 12  2  0  0  0  0
 14 13  1  0  0  0  0
 15 16  1  0  0  0  0
 15 20  1  0  0  0  0
 17 18  1  0  0  0  0
 17 16  1  0  0  0  0
 19 18  1  0  0  0  0
 19 20  1  0  0  0  0
 22 21  1  0  0  0  0
 23 22  1  0  0  0  0
 24 23  2  0  0  0  0
 25 27  2  0  0  0  0
 25 24  1  0  0  0  0
 26 25  1  0  0  0  0
 27 28  1  0  0  0  0
 28 22  2  0  0  0  0
M  END
>  <Pose>
1

>  <Score>
-7.818

$$$$
