/Users/jonathanwahrer/Desktop/Msc/3_Semester/Drug_Design_Praktikum/waehrer_HTS_screening/HTS_experiment/out/docking_results/vina_output/3elj/1971_docked.pdbqt
 OpenBabel03192218463D

 22 25  0  0  1  0  0  0  0  0999 V2000
   22.2380    9.4540   32.0110 N   0  0  0  0  0  0  0  0  0  0  0  0
   22.2230   10.8890   31.8900 C   0  0  0  0  0  0  0  0  0  0  0  0
   21.1850   11.5910   31.8670 O   0  0  0  0  0  0  0  0  0  0  0  0
   23.5920   11.3890   31.7990 C   0  0  2  0  0  3  0  0  0  0  0  0
   24.0030   11.8850   30.4520 C   0  0  1  0  0  0  0  0  0  0  0  0
   25.4040   11.6760   30.5270 O   0  0  0  0  0  0  0  0  0  0  0  0
   25.3480   10.2690   30.7030 C   0  0  1  0  0  3  0  0  0  0  0  0
   24.5110   10.1670   31.9540 C   0  0  2  0  0  3  0  0  0  0  0  0
   23.5890    9.0320   31.8660 C   0  0  0  0  0  0  0  0  0  0  0  0
   23.9240    7.8360   31.6890 O   0  0  0  0  0  0  0  0  0  0  0  0
   24.4970    9.8860   29.5570 C   0  0  0  0  0  2  0  0  0  0  0  0
   23.6600   10.9330   29.3720 C   0  0  0  0  0  2  0  0  0  0  0  0
   21.1390    8.5780   32.2290 C   0  0  0  0  0  0  0  0  0  0  0  0
   19.9620    9.0020   32.8260 C   0  0  0  0  0  3  0  0  0  0  0  0
   18.8980    8.1520   33.0360 C   0  0  0  0  0  0  0  0  0  0  0  0
   17.4190    8.7030   33.7930 Cl  0  0  0  0  0  0  0  0  0  0  0  0
   18.9630    6.8280   32.6550 C   0  0  0  0  0  3  0  0  0  0  0  0
   20.1300    6.3960   32.0580 C   0  0  0  0  0  3  0  0  0  0  0  0
   21.2020    7.2530   31.8470 C   0  0  0  0  0  3  0  0  0  0  0  0
   23.6670   13.3060   30.1670 C   0  0  0  0  0  2  0  0  0  0  0  0
   22.4720   13.3640   29.4610 O   0  0  0  0  0  0  0  0  0  0  0  0
   22.0870   12.4630   29.3650 H   0  0  0  0  0  0  0  0  0  0  0  0
  1 13  1  0  0  0  0
  2  1  1  0  0  0  0
  3  2  2  0  0  0  0
  4  2  1  6  0  0  0
  4  8  1  0  0  0  0
  5 20  1  6  0  0  0
  5  6  1  0  0  0  0
  5  4  1  0  0  0  0
  6  7  1  0  0  0  0
  7 11  1  6  0  0  0
  7  8  1  0  0  0  0
  8  9  1  6  0  0  0
  9  1  1  0  0  0  0
 10  9  2  0  0  0  0
 12 11  1  0  0  0  0
 12  5  1  0  0  0  0
 13 14  1  0  0  0  0
 14 15  2  0  0  0  0
 15 16  1  0  0  0  0
 17 15  1  0  0  0  0
 18 17  2  0  0  0  0
 19 18  1  0  0  0  0
 19 13  2  0  0  0  0
 21 20  1  0  0  0  0
 22 21  1  0  0  0  0
M  END
>  <Pose>
1

>  <Score>
-8.381

$$$$
