/Users/jonathanwahrer/Desktop/Msc/3_Semester/Drug_Design_Praktikum/waehrer_HTS_screening/HTS_experiment/out/docking_results/vina_output/3elj/1973_docked.pdbqt
 OpenBabel03192218463D

 24 27  0  0  1  0  0  0  0  0999 V2000
   27.5370    0.8850   31.4600 Cl  0  0  0  0  0  0  0  0  0  0  0  0
   26.1400    1.9370   31.6880 C   0  0  0  0  0  0  0  0  0  0  0  0
   25.9730    3.0980   30.9610 C   0  0  0  0  0  2  0  0  0  0  0  0
   24.9070    3.9180   31.1220 N   0  0  0  0  0  0  0  0  0  0  0  0
   23.9350    3.6470   32.0130 C   0  0  0  0  0  0  0  0  0  0  0  0
   22.8590    4.4580   32.1880 N   0  0  0  0  0  0  0  0  0  0  0  0
   22.6880    5.5910   31.4830 C   0  0  0  0  0  0  0  0  0  0  0  0
   23.6830    5.8860   30.5580 C   0  0  1  0  0  3  0  0  0  0  0  0
   23.4960    7.1380   29.7790 C   0  0  0  0  0  2  0  0  0  0  0  0
   23.0960    8.1490   30.7650 N   0  0  0  0  0  0  0  0  0  0  0  0
   21.8680    7.9330   31.4760 C   0  0  0  0  0  2  0  0  0  0  0  0
   21.5150    6.4850   31.6630 C   0  0  0  0  0  2  0  0  0  0  0  0
   23.9040    9.2830   31.0010 C   0  0  0  0  0  0  0  0  0  0  0  0
   24.9860    9.3730   30.3270 O   0  0  0  0  0  0  0  0  0  0  0  0
   24.7630    5.0450   30.4020 C   0  0  0  0  0  0  0  0  0  0  0  0
   25.6610    5.3380   29.5480 O   0  0  0  0  0  0  0  0  0  0  0  0
   24.0850    2.4860   32.7530 C   0  0  0  0  0  3  0  0  0  0  0  0
   25.1600    1.6340   32.6090 C   0  0  0  0  0  3  0  0  0  0  0  0
   23.5450   10.3380   31.9740 C   0  0  0  0  0  3  0  0  0  0  0  0
   22.2400   11.0190   31.6240 C   0  0  0  0  0  2  0  0  0  0  0  0
   22.2730   11.2240   30.1150 C   0  0  0  0  0  2  0  0  0  0  0  0
   23.5590   11.5690   29.7040 O   0  0  0  0  0  0  0  0  0  0  0  0
   24.2350   12.2960   30.6940 C   0  0  0  0  0  2  0  0  0  0  0  0
   24.6150   11.4370   31.8850 C   0  0  0  0  0  2  0  0  0  0  0  0
  1  2  1  0  0  0  0
  2 18  2  0  0  0  0
  3  4  1  0  0  0  0
  3  2  1  0  0  0  0
  4  5  1  0  0  0  0
  5  6  1  0  0  0  0
  5 17  2  0  0  0  0
  7 12  1  0  0  0  0
  7  6  2  0  0  0  0
  8  9  1  1  0  0  0
  8  7  1  0  0  0  0
  9 10  1  0  0  0  0
 10 13  1  0  0  0  0
 10 11  1  0  0  0  0
 11 12  1  0  0  0  0
 13 19  1  0  0  0  0
 14 13  2  0  0  0  0
 15  8  1  0  0  0  0
 15  4  1  0  0  0  0
 16 15  2  0  0  0  0
 18 17  1  0  0  0  0
 20 19  1  0  0  0  0
 21 20  1  0  0  0  0
 22 21  1  0  0  0  0
 22 23  1  0  0  0  0
 23 24  1  0  0  0  0
 24 19  1  0  0  0  0
M  END
>  <Pose>
1

>  <Score>
-7.662

$$$$
