/Users/jonathanwahrer/Desktop/Msc/3_Semester/Drug_Design_Praktikum/waehrer_HTS_screening/HTS_experiment/out/docking_results/vina_output/3elj/1974_docked.pdbqt
 OpenBabel03192218463D

 26 29  0  0  0  0  0  0  0  0999 V2000
   21.4550   11.3130   32.8290 F   0  0  0  0  0  0  0  0  0  0  0  0
   21.8500   10.1610   32.2370 C   0  0  0  0  0  0  0  0  0  0  0  0
   23.0450   10.1570   31.5340 C   0  0  0  0  0  0  0  0  0  0  0  0
   23.5100    9.0220   30.9060 C   0  0  0  0  0  0  0  0  0  0  0  0
   22.7400    7.8750   31.0000 C   0  0  0  0  0  0  0  0  0  0  0  0
   21.5550    7.8770   31.6970 C   0  0  0  0  0  3  0  0  0  0  0  0
   21.0960    9.0140   32.3220 C   0  0  0  0  0  3  0  0  0  0  0  0
   23.3280    6.4270   30.2020 Cl  0  0  0  0  0  0  0  0  0  0  0  0
   24.7730    9.2690   30.2410 C   0  0  0  0  0  0  0  0  0  0  0  0
   25.4740    8.4700   29.5790 O   0  0  0  0  0  0  0  0  0  0  0  0
   25.0790   10.6700   30.4990 C   0  0  0  0  0  0  0  0  0  0  0  0
   26.1110   11.2840   30.0840 O   0  0  0  0  0  0  0  0  0  0  0  0
   24.0190   11.1920   31.2840 N   0  0  0  0  0  0  0  0  0  0  0  0
   23.8900   12.5460   31.7810 C   0  0  0  0  0  2  0  0  0  0  0  0
   22.7470   13.2500   31.2390 N   0  0  0  0  0  0  0  0  0  0  0  0
   22.6920   14.5860   31.7240 C   0  0  0  0  0  2  0  0  0  0  0  0
   22.3760   15.6270   30.7080 C   0  0  0  0  0  2  0  0  0  0  0  0
   22.9950   15.3950   29.4300 N   0  0  0  0  0  0  0  0  0  0  0  0
   23.4990   14.0730   29.1370 C   0  0  0  0  0  2  0  0  0  0  0  0
   22.5790   13.0930   29.8340 C   0  0  0  0  0  2  0  0  0  0  0  0
   23.1250   16.4100   28.4550 C   0  0  0  0  0  0  0  0  0  0  0  0
   22.5780   17.6240   28.6310 N   0  0  0  0  0  0  0  0  0  0  0  0
   22.6870   18.6080   27.7170 C   0  0  0  0  0  3  0  0  0  0  0  0
   23.3820   18.3950   26.5420 C   0  0  0  0  0  3  0  0  0  0  0  0
   23.9320   17.1840   26.3600 N   0  0  0  0  0  0  0  0  0  0  0  0
   23.8240   16.2000   27.2720 C   0  0  0  0  0  3  0  0  0  0  0  0
  2  7  1  0  0  0  0
  2  1  1  0  0  0  0
  3  2  2  0  0  0  0
  4  5  2  0  0  0  0
  4  3  1  0  0  0  0
  5  6  1  0  0  0  0
  6  7  2  0  0  0  0
  8  5  1  0  0  0  0
  9 11  1  0  0  0  0
  9  4  1  0  0  0  0
 10  9  2  0  0  0  0
 11 13  1  0  0  0  0
 12 11  2  0  0  0  0
 13  3  1  0  0  0  0
 13 14  1  0  0  0  0
 15 16  1  0  0  0  0
 15 14  1  0  0  0  0
 17 16  1  0  0  0  0
 18 17  1  0  0  0  0
 19 18  1  0  0  0  0
 19 20  1  0  0  0  0
 20 15  1  0  0  0  0
 21 22  1  0  0  0  0
 21 18  1  0  0  0  0
 23 22  2  0  0  0  0
 24 23  1  0  0  0  0
 25 24  2  0  0  0  0
 25 26  1  0  0  0  0
 26 21  2  0  0  0  0
M  END
>  <Pose>
1

>  <Score>
-8.834

$$$$
