/Users/jonathanwahrer/Desktop/Msc/3_Semester/Drug_Design_Praktikum/waehrer_HTS_screening/HTS_experiment/out/docking_results/vina_output/3elj/1976_docked.pdbqt
 OpenBabel03192218463D

 26 29  0  0  0  0  0  0  0  0999 V2000
   24.0890   11.3380   30.3770 C   0  0  0  0  0  0  0  0  0  0  0  0
   24.3440   10.7050   29.2940 O   0  0  0  0  0  0  0  0  0  0  0  0
   23.7280   12.7110   30.3730 N   0  0  0  0  0  0  0  0  0  0  0  0
   23.4510   13.3600   31.6050 C   0  0  0  0  0  2  0  0  0  0  0  0
   22.1320   14.1290   31.4520 C   0  0  0  0  0  2  0  0  0  0  0  0
   22.4700   15.1590   30.3950 C   0  0  0  0  0  0  0  0  0  0  0  0
   23.2170   14.7830   29.2980 C   0  0  0  0  0  0  0  0  0  0  0  0
   23.5210   15.7290   28.3650 N   0  0  0  0  0  0  0  0  0  0  0  0
   23.1240   17.0070   28.4720 C   0  0  0  0  0  3  0  0  0  0  0  0
   22.3970   17.3570   29.5480 N   0  0  0  0  0  0  0  0  0  0  0  0
   22.0590   16.4550   30.5170 C   0  0  0  0  0  0  0  0  0  0  0  0
   23.6700   13.3890   29.1220 C   0  0  0  0  0  2  0  0  0  0  0  0
   24.1850   10.5680   31.6590 C   0  0  0  0  0  2  0  0  0  0  0  0
   23.0060    9.6610   31.8080 C   0  0  0  0  0  0  0  0  0  0  0  0
   23.0500    8.3230   31.4680 C   0  0  0  0  0  0  0  0  0  0  0  0
   24.5500    7.6960   30.8380 Cl  0  0  0  0  0  0  0  0  0  0  0  0
   21.9350    7.5150   31.6260 C   0  0  0  0  0  3  0  0  0  0  0  0
   20.7380    7.9970   32.1230 C   0  0  0  0  0  0  0  0  0  0  0  0
   20.6790    9.3340   32.4680 C   0  0  0  0  0  0  0  0  0  0  0  0
   19.6070    7.2400   32.2980 O   0  0  0  0  0  0  0  0  0  0  0  0
   21.8010   10.1250   32.3040 C   0  0  0  0  0  3  0  0  0  0  0  0
   19.4850    9.8140   32.9650 O   0  0  0  0  0  0  0  0  0  0  0  0
   18.4530    9.0130   33.5040 C   0  0  0  0  0  2  0  0  0  0  0  0
   18.5430    7.5710   33.1490 C   0  0  0  0  0  2  0  0  0  0  0  0
   21.3120   16.8120   31.6250 O   0  0  0  0  0  0  0  0  0  0  0  0
   21.2000   17.7990   31.8250 H   0  0  0  0  0  0  0  0  0  0  0  0
  1 13  1  0  0  0  0
  2  1  2  0  0  0  0
  3  1  1  0  0  0  0
  3  4  1  0  0  0  0
  5  4  1  0  0  0  0
  6 11  1  0  0  0  0
  6  5  1  0  0  0  0
  7  6  2  0  0  0  0
  8  9  2  0  0  0  0
  8  7  1  0  0  0  0
  9 10  1  0  0  0  0
 10 11  2  0  0  0  0
 11 25  1  0  0  0  0
 12  7  1  0  0  0  0
 12  3  1  0  0  0  0
 13 14  1  0  0  0  0
 14 21  1  0  0  0  0
 15 17  1  0  0  0  0
 15 14  2  0  0  0  0
 16 15  1  0  0  0  0
 17 18  2  0  0  0  0
 18 20  1  0  0  0  0
 18 19  1  0  0  0  0
 19 22  1  0  0  0  0
 20 24  1  0  0  0  0
 21 19  2  0  0  0  0
 22 23  1  0  0  0  0
 24 23  1  0  0  0  0
 25 26  1  0  0  0  0
M  END
>  <Pose>
1

>  <Score>
-9.463

$$$$
