/Users/jonathanwahrer/Desktop/Msc/3_Semester/Drug_Design_Praktikum/waehrer_HTS_screening/HTS_experiment/out/docking_results/vina_output/3elj/1982_docked.pdbqt
 OpenBabel03192218463D

 25 28  0  0  0  0  0  0  0  0999 V2000
   17.2810    8.8250   33.7020 Cl  0  0  0  0  0  0  0  0  0  0  0  0
   18.7630    8.1620   33.0480 C   0  0  0  0  0  0  0  0  0  0  0  0
   19.8580    8.9430   32.7410 C   0  0  0  0  0  3  0  0  0  0  0  0
   21.0310    8.4330   32.2240 C   0  0  0  0  0  0  0  0  0  0  0  0
   21.0950    7.0700   32.0090 C   0  0  0  0  0  0  0  0  0  0  0  0
   20.0070    6.2780   32.3120 C   0  0  0  0  0  3  0  0  0  0  0  0
   18.8340    6.7880   32.8290 C   0  0  0  0  0  3  0  0  0  0  0  0
   22.3440    6.5010   31.4560 C   0  0  0  0  0  0  0  0  0  0  0  0
   22.6590    5.3080   31.1700 N   0  0  0  0  0  0  0  0  0  0  0  0
   24.0000    5.1740   30.6420 C   0  0  0  0  0  3  0  0  0  0  0  0
   24.5470    6.5640   30.6280 C   0  0  0  0  0  3  0  0  0  0  0  0
   23.4450    7.3460   31.1550 N   0  0  0  0  0  0  0  0  0  0  0  0
   23.2960    8.7440   31.4070 C   0  0  0  0  0  0  0  0  0  0  0  0
   24.1530    9.7650   31.2240 N   0  0  0  0  0  0  0  0  0  0  0  0
   23.6070   10.9110   31.5920 N   0  0  0  0  0  0  0  0  0  0  0  0
   22.3620   10.5870   32.0190 C   0  0  0  0  0  0  0  0  0  0  0  0
   21.5440   11.4300   32.4470 O   0  0  0  0  0  0  0  0  0  0  0  0
   22.1490    9.2640   31.9160 N   0  0  0  0  0  0  0  0  0  0  0  0
   24.2120   12.2290   31.5450 C   0  0  0  0  0  2  0  0  0  0  0  0
   24.0410   12.8130   30.1360 C   0  0  0  0  0  2  0  0  0  0  0  0
   22.8150   13.6480   30.0760 C   0  0  0  0  0  0  0  0  0  0  0  0
   22.7550   14.8480   30.4470 O   0  0  0  0  0  0  0  0  0  0  0  0
   21.6320   13.0540   29.5660 N   0  0  0  0  0  0  0  0  0  0  0  0
   21.3610   12.0710   29.7480 H   0  0  0  0  0  0  0  0  0  0  0  0
   21.0090   13.6430   28.9760 H   0  0  0  0  0  0  0  0  0  0  0  0
  2  1  1  0  0  0  0
  3  2  2  0  0  0  0
  4  3  1  0  0  0  0
  5  4  2  0  0  0  0
  5  6  1  0  0  0  0
  6  7  2  0  0  0  0
  7  2  1  0  0  0  0
  8  5  1  0  0  0  0
  9  8  2  0  0  0  0
 10  9  1  0  0  0  0
 11 10  2  0  0  0  0
 11 12  1  0  0  0  0
 12 13  1  0  0  0  0
 12  8  1  0  0  0  0
 13 18  1  0  0  0  0
 14 13  2  0  0  0  0
 14 15  1  0  0  0  0
 15 16  1  0  0  0  0
 16 17  2  0  0  0  0
 18 16  1  0  0  0  0
 18  4  1  0  0  0  0
 19 15  1  0  0  0  0
 20 19  1  0  0  0  0
 21 20  1  0  0  0  0
 21 22  2  0  0  0  0
 23 24  1  0  0  0  0
 23 21  1  0  0  0  0
 25 23  1  0  0  0  0
M  END
>  <Pose>
1

>  <Score>
-8.978

$$$$
