/Users/jonathanwahrer/Desktop/Msc/3_Semester/Drug_Design_Praktikum/waehrer_HTS_screening/HTS_experiment/out/docking_results/vina_output/3elj/1986_docked.pdbqt
 OpenBabel03192218463D

 30 33  0  0  1  0  0  0  0  0999 V2000
   24.4290   14.0660   21.1720 Cl  0  0  0  0  0  0  0  0  0  0  0  0
   26.0520   14.4790   21.6940 C   0  0  0  0  0  0  0  0  0  0  0  0
   26.3100   14.8270   23.0050 C   0  0  0  0  0  3  0  0  0  0  0  0
   27.6060   15.1580   23.4230 C   0  0  0  0  0  0  0  0  0  0  0  0
   28.5900   15.1170   22.4690 C   0  0  2  0  0  3  0  0  0  0  0  0
   28.3240   14.7640   21.1390 C   0  0  0  0  0  3  0  0  0  0  0  0
   27.0460   14.4400   20.7380 C   0  0  0  0  0  3  0  0  0  0  0  0
   29.8860   15.4400   22.8590 O   0  0  0  0  0  0  0  0  0  0  0  0
   30.2230   15.7980   24.1530 C   0  0  0  0  0  0  0  0  0  0  0  0
   29.2270   15.8390   25.1160 C   0  0  0  0  0  0  0  0  0  0  0  0
   27.8220   15.5240   24.8370 C   0  0  0  0  0  0  0  0  0  0  0  0
   29.6130   16.2000   26.3920 C   0  0  0  0  0  0  0  0  0  0  0  0
   28.7420   16.2550   27.3170 O   0  0  0  0  0  0  0  0  0  0  0  0
   30.8710   16.5080   26.7440 N   0  0  0  0  0  0  0  0  0  0  0  0
   31.8110   16.4540   25.7700 C   0  0  0  0  0  0  0  0  0  0  0  0
   32.9850   16.7470   26.1230 O   0  0  0  0  0  0  0  0  0  0  0  0
   31.4810   16.1070   24.5120 N   0  0  0  0  0  0  0  0  0  0  0  0
   32.5430   16.0730   23.5270 C   0  0  0  0  0  1  0  0  0  0  0  0
   31.2260   16.8820   28.1140 C   0  0  0  0  0  1  0  0  0  0  0  0
   27.3890   14.3800   25.7050 C   0  0  0  0  0  3  0  0  0  0  0  0
   26.3190   14.5100   26.5620 C   0  0  0  0  0  0  0  0  0  0  0  0
   25.9370   13.4650   27.3470 N   0  0  0  0  0  0  0  0  0  0  0  0
   25.6420   15.6960   26.6170 O   0  0  0  0  0  0  0  0  0  0  0  0
   26.6060   12.2860   27.2950 C   0  0  0  0  0  0  0  0  0  0  0  0
   24.7940   13.6650   28.2320 C   0  0  0  0  0  1  0  0  0  0  0  0
   26.2240   11.3390   28.0390 O   0  0  0  0  0  0  0  0  0  0  0  0
   27.6530   12.1300   26.4700 N   0  0  0  0  0  0  0  0  0  0  0  0
   28.0350   13.1600   25.6910 C   0  0  0  0  0  0  0  0  0  0  0  0
   28.3510   10.8480   26.4410 C   0  0  0  0  0  1  0  0  0  0  0  0
   29.0040   13.0010   24.9350 O   0  0  0  0  0  0  0  0  0  0  0  0
  1  2  1  0  0  0  0
  2  3  2  0  0  0  0
  3  4  1  0  0  0  0
  4 11  2  0  0  0  0
  5  6  1  1  0  0  0
  5  8  1  0  0  0  0
  5  4  1  0  0  0  0
  7  6  2  0  0  0  0
  7  2  1  0  0  0  0
  8  9  1  0  0  0  0
  9 17  1  0  0  0  0
  9 10  2  0  0  0  0
 10 12  1  0  0  0  0
 11 10  1  0  0  0  0
 11 20  1  0  0  0  0
 12 14  1  0  0  0  0
 12 13  2  0  0  0  0
 14 19  1  0  0  0  0
 15 16  2  0  0  0  0
 15 14  1  0  0  0  0
 17 15  1  0  0  0  0
 18 17  1  0  0  0  0
 20 21  1  0  0  0  0
 21 23  2  0  0  0  0
 21 22  1  0  0  0  0
 22 25  1  0  0  0  0
 24 22  1  0  0  0  0
 24 26  2  0  0  0  0
 27 24  1  0  0  0  0
 28 20  1  0  0  0  0
 28 27  1  0  0  0  0
 29 27  1  0  0  0  0
 30 28  2  0  0  0  0
M  END
>  <Pose>
1

>  <Score>
-6.730

$$$$
