/Users/jonathanwahrer/Desktop/Msc/3_Semester/Drug_Design_Praktikum/waehrer_HTS_screening/HTS_experiment/out/docking_results/vina_output/3elj/1991_docked.pdbqt
 OpenBabel03192218463D

 31 34  0  0  1  0  0  0  0  0999 V2000
   18.1240    7.1110   33.2010 Cl  0  0  0  0  0  0  0  0  0  0  0  0
   19.7240    7.6040   32.7000 C   0  0  0  0  0  0  0  0  0  0  0  0
   20.3530    6.9960   31.6370 C   0  0  0  0  0  3  0  0  0  0  0  0
   21.6080    7.3950   31.2580 C   0  0  0  0  0  0  0  0  0  0  0  0
   22.2470    8.4250   31.9590 C   0  0  0  0  0  0  0  0  0  0  0  0
   21.6220    9.0420   33.0310 C   0  0  0  0  0  3  0  0  0  0  0  0
   20.3700    8.6150   33.3770 C   0  0  0  0  0  3  0  0  0  0  0  0
   23.5090    8.9410   31.7040 O   0  0  0  0  0  0  0  0  0  0  0  0
   24.2250    8.9080   30.4930 C   0  0  0  0  0  0  0  0  0  0  0  0
   24.5910    7.5190   30.0840 C   0  0  0  0  0  2  0  0  0  0  0  0
   23.5760    6.5310   30.2900 N   0  0  0  0  0  0  0  0  0  0  0  0
   22.1530    6.6470   30.0970 C   0  0  0  0  0  2  0  0  0  0  0  0
   23.9880    5.2360   30.7560 C   0  0  0  0  0  0  0  0  0  0  0  0
   23.0840    4.3800   30.9270 O   0  0  0  0  0  0  0  0  0  0  0  0
   23.4420    9.6480   29.4190 C   0  0  0  0  0  2  0  0  0  0  0  0
   23.8540   11.1100   29.3820 C   0  0  0  0  0  2  0  0  0  0  0  0
   25.1570   11.2810   28.9600 O   0  0  0  0  0  0  0  0  0  0  0  0
   25.9320   10.1700   29.2740 C   0  0  0  0  0  2  0  0  0  0  0  0
   25.5360    9.6830   30.6540 C   0  0  0  0  0  2  0  0  0  0  0  0
   25.3920    4.9240   31.0190 C   0  0  0  0  0  2  0  0  0  0  0  0
   25.9230    3.7410   30.4490 N   0  0  0  0  0  0  0  0  0  0  0  0
   27.3560    3.5990   30.7210 C   0  0  0  0  0  2  0  0  0  0  0  0
   28.0610    4.7570   30.1180 C   0  0  0  0  0  2  0  0  0  0  0  0
   27.6860    5.1110   28.7180 C   0  0  1  0  0  3  0  0  0  0  0  0
   26.4630    4.4920   28.1680 C   0  0  0  0  0  2  0  0  0  0  0  0
   25.7060    3.5590   29.0350 C   0  0  0  0  0  2  0  0  0  0  0  0
   27.6780    6.5800   28.5110 C   0  0  0  0  0  0  0  0  0  0  0  0
   27.0120    7.0610   27.5720 O   0  0  0  0  0  0  0  0  0  0  0  0
   28.4180    7.4190   29.3710 N   0  0  0  0  0  0  0  0  0  0  0  0
   27.8480    7.9750   30.0740 H   0  0  0  0  0  0  0  0  0  0  0  0
   29.4380    7.5390   29.3790 H   0  0  0  0  0  0  0  0  0  0  0  0
  2  1  1  0  0  0  0
  2  7  1  0  0  0  0
  3  2  2  0  0  0  0
  4  3  1  0  0  0  0
  4  5  2  0  0  0  0
  5  6  1  0  0  0  0
  6  7  2  0  0  0  0
  8  5  1  0  0  0  0
  9 19  1  0  0  0  0
  9  8  1  0  0  0  0
 10 11  1  0  0  0  0
 10  9  1  0  0  0  0
 11 13  1  0  0  0  0
 12 11  1  0  0  0  0
 12  4  1  0  0  0  0
 13 14  2  0  0  0  0
 13 20  1  0  0  0  0
 15  9  1  0  0  0  0
 16 15  1  0  0  0  0
 17 18  1  0  0  0  0
 17 16  1  0  0  0  0
 18 19  1  0  0  0  0
 21 22  1  0  0  0  0
 21 20  1  0  0  0  0
 23 22  1  0  0  0  0
 24 27  1  1  0  0  0
 24 23  1  0  0  0  0
 25 24  1  0  0  0  0
 25 26  1  0  0  0  0
 26 21  1  0  0  0  0
 27 29  1  0  0  0  0
 28 27  2  0  0  0  0
 29 31  1  0  0  0  0
 29 30  1  0  0  0  0
M  END
>  <Pose>
1

>  <Score>
-7.569

$$$$
