/Users/jonathanwahrer/Desktop/Msc/3_Semester/Drug_Design_Praktikum/waehrer_HTS_screening/HTS_experiment/out/docking_results/vina_output/3elj/2004_docked.pdbqt
 OpenBabel03192218473D

 29 32  0  0  1  0  0  0  0  0999 V2000
   24.2240   10.0190   30.9840 S   0  0  0  0  0  0  0  0  0  0  0  0
   24.8650    9.6390   32.3110 O   0  0  0  0  0  0  0  0  0  0  0  0
   23.5550    8.7280   30.5160 O   0  0  0  0  0  0  0  0  0  0  0  0
   25.3720   10.4810   29.8570 N   0  0  0  0  0  0  0  0  0  0  0  0
   24.9540   11.2300   28.7550 C   0  0  0  0  0  2  0  0  0  0  0  0
   26.1250   11.8150   27.9520 C   0  0  0  0  0  2  0  0  0  0  0  0
   27.2200   10.8950   27.8720 N   0  0  0  0  0  0  0  0  0  0  0  0
   27.6110   10.1970   29.0770 C   0  0  0  0  0  2  0  0  0  0  0  0
   27.8850   10.6860   26.6580 C   0  0  0  0  0  0  0  0  0  0  0  0
   26.3750    9.4790   29.5810 C   0  0  0  0  0  2  0  0  0  0  0  0
   27.5260   11.3040   25.6230 O   0  0  0  0  0  0  0  0  0  0  0  0
   29.0340    9.7360   26.5260 C   0  0  0  0  0  3  0  0  0  0  0  0
   29.5510    9.6040   25.1120 C   0  0  0  0  0  2  0  0  0  0  0  0
   28.5740    8.4450   24.9330 C   0  0  0  0  0  2  0  0  0  0  0  0
   28.5690    8.3030   26.4580 C   0  0  0  0  0  2  0  0  0  0  0  0
   22.9370   11.1590   31.3080 C   0  0  0  0  0  0  0  0  0  0  0  0
   23.0680   12.4800   30.8330 C   0  0  0  0  0  3  0  0  0  0  0  0
   22.1180   13.4370   31.1050 C   0  0  0  0  0  0  0  0  0  0  0  0
   20.9920   13.1720   31.8510 C   0  0  0  0  0  0  0  0  0  0  0  0
   22.2720   14.7370   30.6220 O   0  0  0  0  0  0  0  0  0  0  0  0
   20.8590   11.8860   32.3140 C   0  0  0  0  0  3  0  0  0  0  0  0
   20.0540   14.2030   32.0980 N   0  0  0  0  0  0  0  0  0  0  0  0
   21.8150   10.8960   32.0470 C   0  0  0  0  0  0  0  0  0  0  0  0
   21.5340    9.2650   32.6080 Cl  0  0  0  0  0  0  0  0  0  0  0  0
   20.2270   15.5240   31.6020 C   0  0  0  0  0  0  0  0  0  0  0  0
   19.2000   13.9940   32.6660 H   0  0  0  0  0  0  0  0  0  0  0  0
   19.3360   16.3940   31.5620 O   0  0  0  0  0  0  0  0  0  0  0  0
   21.5860   15.8610   31.1010 C   0  0  1  0  0  3  0  0  0  0  0  0
   22.4180   16.4940   32.1940 C   0  0  0  0  0  1  0  0  0  0  0  0
  1 16  1  0  0  0  0
  1  2  2  0  0  0  0
  3  1  2  0  0  0  0
  4  1  1  0  0  0  0
  5  4  1  0  0  0  0
  6  5  1  0  0  0  0
  7  6  1  0  0  0  0
  7  8  1  0  0  0  0
  8 10  1  0  0  0  0
  9  7  1  0  0  0  0
 10  4  1  0  0  0  0
 11  9  2  0  0  0  0
 12  9  1  0  0  0  0
 13 12  1  0  0  0  0
 14 13  1  0  0  0  0
 14 15  1  0  0  0  0
 15 12  1  0  0  0  0
 16 23  1  0  0  0  0
 17 18  1  0  0  0  0
 17 16  2  0  0  0  0
 18 19  2  0  0  0  0
 19 22  1  0  0  0  0
 19 21  1  0  0  0  0
 20 28  1  0  0  0  0
 20 18  1  0  0  0  0
 22 26  1  0  0  0  0
 23 21  2  0  0  0  0
 23 24  1  0  0  0  0
 25 22  1  0  0  0  0
 27 25  2  0  0  0  0
 28 25  1  0  0  0  0
 28 29  1  1  0  0  0
M  END
>  <Pose>
1

>  <Score>
-8.131

$$$$
