/Users/jonathanwahrer/Desktop/Msc/3_Semester/Drug_Design_Praktikum/waehrer_HTS_screening/HTS_experiment/out/docking_results/vina_output/3elj/2012_docked.pdbqt
 OpenBabel03192218473D

 25 28  0  0  1  0  0  0  0  0999 V2000
   22.4300    9.5400   31.2370 N   0  0  0  0  0  0  0  0  0  0  0  0
   23.5070    9.9480   30.4020 C   0  0  0  0  0  0  0  0  0  0  0  0
   23.9490    9.2840   29.4490 O   0  0  0  0  0  0  0  0  0  0  0  0
   23.9980   11.2620   30.8510 C   0  0  1  0  0  3  0  0  0  0  0  0
   24.4230   12.1430   29.9090 O   0  0  0  0  0  0  0  0  0  0  0  0
   24.0200   13.3580   30.4310 N   0  0  0  0  0  0  0  0  0  0  0  0
   22.7390   13.1760   31.0400 C   0  0  0  0  0  0  0  0  0  0  0  0
   22.7050   11.8750   31.3040 C   0  0  0  0  0  0  0  0  0  0  0  0
   21.9150   10.7660   31.8170 C   0  0  0  0  0  0  0  0  0  0  0  0
   20.9610   10.9060   32.6240 O   0  0  0  0  0  0  0  0  0  0  0  0
   24.5830   14.2220   30.3760 H   0  0  0  0  0  0  0  0  0  0  0  0
   21.8860    8.2520   31.5020 C   0  0  0  0  0  0  0  0  0  0  0  0
   22.5920    7.0960   31.2680 C   0  0  0  0  0  3  0  0  0  0  0  0
   21.9790    5.8800   31.5610 C   0  0  0  0  0  0  0  0  0  0  0  0
   22.8280    4.3640   31.2790 Cl  0  0  0  0  0  0  0  0  0  0  0  0
   20.6980    5.8500   32.0710 C   0  0  0  0  0  3  0  0  0  0  0  0
   19.9890    7.0160   32.3090 C   0  0  0  0  0  3  0  0  0  0  0  0
   20.5830    8.2090   32.0240 C   0  0  0  0  0  3  0  0  0  0  0  0
   21.7330   14.1720   31.3530 C   0  0  0  0  0  0  0  0  0  0  0  0
   20.4560   14.1300   30.7850 C   0  0  0  0  0  3  0  0  0  0  0  0
   19.7320   15.1680   31.2300 N   0  0  0  0  0  0  0  0  0  0  0  0
   20.4970   15.8760   32.0630 N   0  0  0  0  0  0  0  0  0  0  0  0
   18.3560   15.5330   30.9110 C   0  0  0  0  0  1  0  0  0  0  0  0
   21.7110   15.2830   32.1450 C   0  0  0  0  0  0  0  0  0  0  0  0
   22.8560   15.7700   32.9550 C   0  0  0  0  0  1  0  0  0  0  0  0
  1 12  1  0  0  0  0
  1  9  1  0  0  0  0
  2  4  1  0  0  0  0
  2  1  1  0  0  0  0
  3  2  2  0  0  0  0
  4  5  1  6  0  0  0
  4  8  1  0  0  0  0
  5  6  1  0  0  0  0
  6  7  1  0  0  0  0
  7  8  2  0  0  0  0
  7 19  1  0  0  0  0
  8  9  1  0  0  0  0
  9 10  2  0  0  0  0
 11  6  1  0  0  0  0
 12 18  1  0  0  0  0
 13 12  2  0  0  0  0
 13 14  1  0  0  0  0
 14 16  2  0  0  0  0
 15 14  1  0  0  0  0
 16 17  1  0  0  0  0
 18 17  2  0  0  0  0
 19 24  1  0  0  0  0
 20 21  1  0  0  0  0
 20 19  2  0  0  0  0
 21 22  1  0  0  0  0
 22 24  2  0  0  0  0
 23 21  1  0  0  0  0
 24 25  1  0  0  0  0
M  END
>  <Pose>
1

>  <Score>
-9.779

$$$$
