/Users/jonathanwahrer/Desktop/Msc/3_Semester/Drug_Design_Praktikum/waehrer_HTS_screening/HTS_experiment/out/docking_results/vina_output/3elj/2014_docked.pdbqt
 OpenBabel03192218473D

 26 29  0  0  0  0  0  0  0  0999 V2000
   21.1510    9.5530   32.1910 C   0  0  0  0  0  0  0  0  0  0  0  0
   21.6130   10.7050   31.7120 N   0  0  0  0  0  0  0  0  0  0  0  0
   21.0620   11.7480   32.3990 C   0  0  0  0  0  0  0  0  0  0  0  0
   20.2490   11.1770   33.3180 N   0  0  0  0  0  0  0  0  0  0  0  0
   20.2910    9.8770   33.2070 N   0  0  0  0  0  0  0  0  0  0  0  0
   21.5210   12.9190   31.9290 N   0  0  0  0  0  0  0  0  0  0  0  0
   22.3720   12.6810   30.9390 C   0  0  0  0  0  0  0  0  0  0  0  0
   22.4340   11.2840   30.8000 C   0  0  0  0  0  0  0  0  0  0  0  0
   23.2360   10.7480   29.8720 N   0  0  0  0  0  0  0  0  0  0  0  0
   23.9630   11.5920   29.0900 C   0  0  0  0  0  0  0  0  0  0  0  0
   24.7130   11.0550   28.2170 O   0  0  0  0  0  0  0  0  0  0  0  0
   23.9390   12.9190   29.1790 N   0  0  0  0  0  0  0  0  0  0  0  0
   23.1430   13.4570   30.1050 C   0  0  0  0  0  0  0  0  0  0  0  0
   23.0820   14.7070   30.2330 O   0  0  0  0  0  0  0  0  0  0  0  0
   24.7580   13.7630   28.2920 C   0  0  0  0  0  1  0  0  0  0  0  0
   23.3750    9.3310   29.7010 C   0  0  0  0  0  1  0  0  0  0  0  0
   21.1620   14.2390   32.4050 C   0  0  0  0  0  1  0  0  0  0  0  0
   21.4010    8.1580   31.8460 C   0  0  0  0  0  0  0  0  0  0  0  0
   22.6980    7.7050   31.6150 C   0  0  0  0  0  3  0  0  0  0  0  0
   22.9260    6.3790   31.3680 C   0  0  0  0  0  0  0  0  0  0  0  0
   24.7050    5.7380   31.0470 Br  0  0  0  0  0  0  0  0  0  0  0  0
   21.9190    5.4310   31.3310 C   0  0  0  0  0  3  0  0  0  0  0  0
   20.6340    5.8950   31.5620 C   0  0  0  0  0  3  0  0  0  0  0  0
   20.3950    7.2140   31.8100 C   0  0  0  0  0  0  0  0  0  0  0  0
   19.0910    7.7010   32.0480 O   0  0  0  0  0  0  0  0  0  0  0  0
   18.2110    7.0210   32.9240 C   0  0  0  0  0  1  0  0  0  0  0  0
  1  5  2  0  0  0  0
  2  1  1  0  0  0  0
  2  3  1  0  0  0  0
  3  4  2  0  0  0  0
  5  4  1  0  0  0  0
  6  3  1  0  0  0  0
  6 17  1  0  0  0  0
  7  6  1  0  0  0  0
  8  7  2  0  0  0  0
  8  2  1  0  0  0  0
  9  8  1  0  0  0  0
 10 12  1  0  0  0  0
 10  9  1  0  0  0  0
 11 10  2  0  0  0  0
 12 13  1  0  0  0  0
 13 14  2  0  0  0  0
 13  7  1  0  0  0  0
 15 12  1  0  0  0  0
 16  9  1  0  0  0  0
 18  1  1  0  0  0  0
 19 18  2  0  0  0  0
 20 19  1  0  0  0  0
 21 20  1  0  0  0  0
 22 20  2  0  0  0  0
 22 23  1  0  0  0  0
 23 24  2  0  0  0  0
 24 18  1  0  0  0  0
 24 25  1  0  0  0  0
 25 26  1  0  0  0  0
M  END
>  <Pose>
1

>  <Score>
-9.054

$$$$
