/Users/jonathanwahrer/Desktop/Msc/3_Semester/Drug_Design_Praktikum/waehrer_HTS_screening/HTS_experiment/out/docking_results/vina_output/3elj/2017_docked.pdbqt
 OpenBabel03192218473D

 24 27  0  0  0  0  0  0  0  0999 V2000
   22.8760   18.6440   27.4210 Cl  0  0  0  0  0  0  0  0  0  0  0  0
   23.1320   17.0590   28.1320 C   0  0  0  0  0  0  0  0  0  0  0  0
   22.5540   16.6830   29.3290 C   0  0  0  0  0  2  0  0  0  0  0  0
   22.7590   15.4540   29.8710 N   0  0  0  0  0  0  0  0  0  0  0  0
   23.5320   14.5250   29.2830 C   0  0  0  0  0  0  0  0  0  0  0  0
   23.7420   13.3060   29.8120 N   0  0  0  0  0  0  0  0  0  0  0  0
   23.1840   12.9320   30.9770 C   0  0  0  0  0  0  0  0  0  0  0  0
   22.3780   13.8900   31.5950 C   0  0  0  0  0  2  0  0  0  0  0  0
   22.1710   15.1360   31.0440 C   0  0  0  0  0  0  0  0  0  0  0  0
   21.4360   16.0060   31.6120 O   0  0  0  0  0  0  0  0  0  0  0  0
   24.1260   14.8770   28.0770 C   0  0  0  0  0  3  0  0  0  0  0  0
   23.9290   16.1200   27.5110 C   0  0  0  0  0  3  0  0  0  0  0  0
   23.3850   11.5980   31.6000 C   0  0  0  0  0  2  0  0  0  0  0  0
   22.2720   10.7730   31.3060 N   0  0  0  0  0  0  0  0  0  0  0  0
   21.6540   10.0890   32.3790 C   0  0  0  0  0  2  0  0  0  0  0  0
   20.9950    8.7750   31.9890 C   0  0  0  0  0  2  0  0  0  0  0  0
   22.0130    8.0260   31.2050 C   0  0  0  0  0  0  0  0  0  0  0  0
   22.6460    8.7380   30.2080 C   0  0  0  0  0  0  0  0  0  0  0  0
   22.2880    6.7060   31.4800 C   0  0  0  0  0  3  0  0  0  0  0  0
   23.5730    8.1050   29.4740 N   0  0  0  0  0  0  0  0  0  0  0  0
   22.2480   10.1550   30.0230 C   0  0  0  0  0  2  0  0  0  0  0  0
   23.8730    6.7920   29.7180 C   0  0  0  0  0  0  0  0  0  0  0  0
   23.2310    6.1250   30.7060 N   0  0  0  0  0  0  0  0  0  0  0  0
   24.8990    6.0800   28.9120 C   0  0  0  0  0  1  0  0  0  0  0  0
  1  2  1  0  0  0  0
  2  3  1  0  0  0  0
  3  4  1  0  0  0  0
  4  9  1  0  0  0  0
  5  6  1  0  0  0  0
  5  4  1  0  0  0  0
  6  7  2  0  0  0  0
  7  8  1  0  0  0  0
  7 13  1  0  0  0  0
  9  8  1  0  0  0  0
  9 10  2  0  0  0  0
 11  5  2  0  0  0  0
 12 11  1  0  0  0  0
 12  2  2  0  0  0  0
 14 13  1  0  0  0  0
 14 15  1  0  0  0  0
 16 15  1  0  0  0  0
 17 19  1  0  0  0  0
 17 16  1  0  0  0  0
 18 17  2  0  0  0  0
 20 22  2  0  0  0  0
 20 18  1  0  0  0  0
 21 18  1  0  0  0  0
 21 14  1  0  0  0  0
 22 23  1  0  0  0  0
 23 19  2  0  0  0  0
 24 22  1  0  0  0  0
M  END
>  <Pose>
1

>  <Score>
-8.347

$$$$
