/Users/jonathanwahrer/Desktop/Msc/3_Semester/Drug_Design_Praktikum/waehrer_HTS_screening/HTS_experiment/out/docking_results/vina_output/3elj/2020_docked.pdbqt
 OpenBabel03192218473D

 22 24  0  0  1  0  0  0  0  0999 V2000
   22.3550   10.6490   30.0210 C   0  0  2  0  0  3  0  0  0  0  0  0
   23.8010   10.1690   29.7130 C   0  0  2  0  0  3  0  0  0  0  0  0
   24.3010   10.0820   31.1680 C   0  0  0  0  0  0  0  0  0  0  0  0
   24.8930    9.1210   31.6250 O   0  0  0  0  0  0  0  0  0  0  0  0
   23.9690   11.2890   31.8920 N   0  0  0  0  0  0  0  0  0  0  0  0
   23.6750   12.4450   31.0250 C   0  0  1  0  0  0  0  0  0  0  0  0
   24.7680   12.4140   30.0430 N   0  0  0  0  0  0  0  0  0  0  0  0
   24.6640   11.2660   29.1770 C   0  0  0  0  0  0  0  0  0  0  0  0
   25.2380   11.1790   28.0760 O   0  0  0  0  0  0  0  0  0  0  0  0
   22.4030   12.0690   30.2180 C   0  0  0  0  0  2  0  0  0  0  0  0
   23.5290   13.7320   31.7100 C   0  0  0  0  0  1  0  0  0  0  0  0
   23.9200   11.3470   32.9120 H   0  0  0  0  0  0  0  0  0  0  0  0
   25.5050   13.1260   29.9970 H   0  0  0  0  0  0  0  0  0  0  0  0
   21.9190    9.7130   31.0510 C   0  0  0  0  0  0  0  0  0  0  0  0
   22.1140    8.3510   30.7910 C   0  0  0  0  0  3  0  0  0  0  0  0
   21.6500    7.3720   31.6730 C   0  0  0  0  0  0  0  0  0  0  0  0
   21.9230    5.5310   31.2810 Br  0  0  0  0  0  0  0  0  0  0  0  0
   20.9970    7.7050   32.8170 C   0  0  0  0  0  3  0  0  0  0  0  0
   20.7970    9.0300   33.0850 C   0  0  0  0  0  3  0  0  0  0  0  0
   21.2490   10.0150   32.2240 C   0  0  0  0  0  0  0  0  0  0  0  0
   21.0770   11.3480   32.4690 O   0  0  0  0  0  0  0  0  0  0  0  0
   20.0080   11.7810   33.2660 C   0  0  0  0  0  1  0  0  0  0  0  0
  1 10  1  0  0  0  0
  1 14  1  1  0  0  0
  2  8  1  6  0  0  0
  2  1  1  0  0  0  0
  2  3  1  0  0  0  0
  3  4  2  0  0  0  0
  3  5  1  0  0  0  0
  5 12  1  0  0  0  0
  6 11  1  1  0  0  0
  6  5  1  0  0  0  0
  7  6  1  0  0  0  0
  8  7  1  0  0  0  0
  9  8  2  0  0  0  0
 10  6  1  0  0  0  0
 13  7  1  0  0  0  0
 14 20  1  0  0  0  0
 15 14  2  0  0  0  0
 15 16  1  0  0  0  0
 16 18  2  0  0  0  0
 17 16  1  0  0  0  0
 18 19  1  0  0  0  0
 20 21  1  0  0  0  0
 20 19  2  0  0  0  0
 21 22  1  0  0  0  0
M  END
>  <Pose>
1

>  <Score>
-7.792

$$$$
