/Users/jonathanwahrer/Desktop/Msc/3_Semester/Drug_Design_Praktikum/waehrer_HTS_screening/HTS_experiment/out/docking_results/vina_output/3elj/2028_docked.pdbqt
 OpenBabel03192218473D

 31 34  0  0  1  0  0  0  0  0999 V2000
   20.6600    5.6170   31.9430 Cl  0  0  0  0  0  0  0  0  0  0  0  0
   22.2380    6.1290   31.3510 C   0  0  0  0  0  0  0  0  0  0  0  0
   23.2970    5.2040   31.4050 C   0  0  0  0  0  0  0  0  0  0  0  0
   24.5150    5.6020   30.9400 C   0  0  0  0  0  0  0  0  0  0  0  0
   24.7250    6.8770   30.4330 C   0  0  0  0  0  3  0  0  0  0  0  0
   23.6710    7.7600   30.3940 C   0  0  0  0  0  0  0  0  0  0  0  0
   22.4230    7.3980   30.8480 C   0  0  0  0  0  3  0  0  0  0  0  0
   23.9270    9.1350   29.8390 C   0  0  0  0  0  1  0  0  0  0  0  0
   25.4160    4.4100   30.9910 C   0  0  2  0  0  0  0  0  0  0  0  0
   26.7500    4.6820   31.3480 N   0  0  0  0  0  0  0  0  0  0  0  0
   27.4540    4.9710   30.1310 C   0  0  2  0  0  3  0  0  0  0  0  0
   26.5960    4.6330   28.9810 C   0  0  2  0  0  3  0  0  0  0  0  0
   25.5230    3.7650   29.6440 C   0  0  1  0  0  3  0  0  0  0  0  0
   26.1860    2.4740   29.6630 C   0  0  0  0  0  0  0  0  0  0  0  0
   26.2200    1.5360   30.4890 O   0  0  0  0  0  0  0  0  0  0  0  0
   26.9110    2.4140   28.4060 N   0  0  0  0  0  0  0  0  0  0  0  0
   27.1430    3.7430   27.9640 C   0  0  0  0  0  0  0  0  0  0  0  0
   27.7070    4.0560   26.9060 O   0  0  0  0  0  0  0  0  0  0  0  0
   24.7100    3.4920   31.8820 C   0  0  0  0  0  0  0  0  0  0  0  0
   25.1120    2.4670   32.5180 O   0  0  0  0  0  0  0  0  0  0  0  0
   23.3680    3.9070   31.9850 N   0  0  0  0  0  0  0  0  0  0  0  0
   26.8400    5.4640   32.0410 H   0  0  0  0  0  0  0  0  0  0  0  0
   22.5390    3.4080   32.3960 H   0  0  0  0  0  0  0  0  0  0  0  0
   28.8450    4.3650   30.1140 C   0  0  2  0  0  3  0  0  0  0  0  0
   29.1240    3.7350   31.4390 C   0  0  0  0  0  1  0  0  0  0  0  0
   29.8220    5.1680   29.6060 O   0  0  0  0  0  0  0  0  0  0  0  0
   30.6930    5.1060   30.0750 H   0  0  0  0  0  0  0  0  0  0  0  0
   27.3340    1.2440   27.6830 C   0  0  0  0  0  2  0  0  0  0  0  0
   26.2470    0.3760   27.1680 C   0  0  0  0  0  2  0  0  0  0  0  0
   25.8100   -0.6380   27.9650 O   0  0  0  0  0  0  0  0  0  0  0  0
   24.6320   -1.2350   27.5660 C   0  0  0  0  0  1  0  0  0  0  0  0
  2  3  1  0  0  0  0
  2  1  1  0  0  0  0
  3 21  1  0  0  0  0
  4  3  2  0  0  0  0
  5  4  1  0  0  0  0
  6  5  2  0  0  0  0
  6  7  1  0  0  0  0
  7  2  2  0  0  0  0
  8  6  1  0  0  0  0
  9  4  1  6  0  0  0
  9 10  1  0  0  0  0
  9 19  1  0  0  0  0
 10 22  1  0  0  0  0
 11 24  1  6  0  0  0
 11 10  1  0  0  0  0
 12 17  1  6  0  0  0
 12 13  1  0  0  0  0
 12 11  1  0  0  0  0
 13 14  1  1  0  0  0
 13  9  1  0  0  0  0
 14 15  2  0  0  0  0
 16 14  1  0  0  0  0
 17 16  1  0  0  0  0
 18 17  2  0  0  0  0
 19 21  1  0  0  0  0
 19 20  2  0  0  0  0
 21 23  1  0  0  0  0
 24 25  1  1  0  0  0
 26 27  1  0  0  0  0
 26 24  1  0  0  0  0
 28 16  1  0  0  0  0
 29 28  1  0  0  0  0
 29 30  1  0  0  0  0
 31 30  1  0  0  0  0
M  END
>  <Pose>
1

>  <Score>
-6.151

$$$$
