/Users/jonathanwahrer/Desktop/Msc/3_Semester/Drug_Design_Praktikum/waehrer_HTS_screening/HTS_experiment/out/docking_results/vina_output/3elj/2043_docked.pdbqt
 OpenBabel03192218483D

 32 35  0  0  0  0  0  0  0  0999 V2000
   29.2640    8.3290   27.9490 N   0  0  0  0  0  0  0  0  0  0  0  0
   29.1370    8.6650   29.3450 C   0  0  0  0  0  2  0  0  0  0  0  0
   28.8730   10.1660   29.4440 C   0  0  0  0  0  2  0  0  0  0  0  0
   27.9590   10.5530   28.4360 N   0  0  0  0  0  0  0  0  0  0  0  0
   28.6570   10.5770   27.0740 C   0  0  0  0  0  2  0  0  0  0  0  0
   29.5720    9.4050   27.0810 C   0  0  0  0  0  2  0  0  0  0  0  0
   26.6250   10.8390   28.4620 C   0  0  0  0  0  0  0  0  0  0  0  0
   26.2360   11.3350   27.2380 O   0  0  0  0  0  0  0  0  0  0  0  0
   25.5090   10.8010   29.3220 C   0  0  0  0  0  3  0  0  0  0  0  0
   24.4450   11.4690   29.6230 C   0  0  0  0  0  0  0  0  0  0  0  0
   24.0840   12.6810   29.0170 N   0  0  0  0  0  0  0  0  0  0  0  0
   23.4860   10.9160   30.6270 C   0  0  0  0  0  0  0  0  0  0  0  0
   22.8960   13.3960   29.2890 N   0  0  0  0  0  0  0  0  0  0  0  0
   24.7100   13.1420   28.3520 H   0  0  0  0  0  0  0  0  0  0  0  0
   21.9960   12.8810   30.2270 C   0  0  0  0  0  0  0  0  0  0  0  0
   22.7320   14.3060   28.7630 H   0  0  0  0  0  0  0  0  0  0  0  0
   20.9340   13.5070   30.4790 O   0  0  0  0  0  0  0  0  0  0  0  0
   22.3220   11.6100   30.8980 C   0  0  0  0  0  0  0  0  0  0  0  0
   21.3920   11.1520   31.8160 C   0  0  0  0  0  3  0  0  0  0  0  0
   21.6130    9.9720   32.4920 C   0  0  0  0  0  3  0  0  0  0  0  0
   22.7700    9.2870   32.2180 C   0  0  0  0  0  3  0  0  0  0  0  0
   23.7070    9.7520   31.2900 C   0  0  0  0  0  3  0  0  0  0  0  0
   28.1950    7.1620   27.3850 S   0  0  0  0  0  0  0  0  0  0  0  0
   27.4630    7.7440   26.1830 O   0  0  0  0  0  0  0  0  0  0  0  0
   29.0100    6.0070   26.8150 O   0  0  0  0  0  0  0  0  0  0  0  0
   27.1080    6.5170   28.5500 C   0  0  0  0  0  0  0  0  0  0  0  0
   25.9870    7.2050   28.9420 C   0  0  0  0  0  3  0  0  0  0  0  0
   25.1260    6.6660   29.8810 C   0  0  0  0  0  3  0  0  0  0  0  0
   25.3530    5.4360   30.4560 C   0  0  0  0  0  0  0  0  0  0  0  0
   26.4840    4.7360   30.0650 C   0  0  0  0  0  3  0  0  0  0  0  0
   24.2320    4.7970   31.6410 Cl  0  0  0  0  0  0  0  0  0  0  0  0
   27.3420    5.2910   29.1180 C   0  0  0  0  0  3  0  0  0  0  0  0
  1  2  1  0  0  0  0
  2  3  1  0  0  0  0
  4  7  1  0  0  0  0
  4  3  1  0  0  0  0
  5  6  1  0  0  0  0
  5  4  1  0  0  0  0
  6  1  1  0  0  0  0
  7  9  1  0  0  0  0
  8  7  2  0  0  0  0
  9 10  2  0  0  0  0
 10 12  1  0  0  0  0
 11 13  1  0  0  0  0
 11 10  1  0  0  0  0
 12 18  2  0  0  0  0
 12 22  1  0  0  0  0
 13 15  1  0  0  0  0
 14 11  1  0  0  0  0
 15 17  2  0  0  0  0
 15 18  1  0  0  0  0
 16 13  1  0  0  0  0
 18 19  1  0  0  0  0
 19 20  2  0  0  0  0
 21 20  1  0  0  0  0
 22 21  2  0  0  0  0
 23  1  1  0  0  0  0
 23 26  1  0  0  0  0
 24 23  2  0  0  0  0
 25 23  2  0  0  0  0
 26 27  2  0  0  0  0
 26 32  1  0  0  0  0
 27 28  1  0  0  0  0
 28 29  2  0  0  0  0
 29 31  1  0  0  0  0
 30 29  1  0  0  0  0
 32 30  2  0  0  0  0
M  END
>  <Pose>
1

>  <Score>
-7.948

$$$$
