/Users/jonathanwahrer/Desktop/Msc/3_Semester/Drug_Design_Praktikum/waehrer_HTS_screening/HTS_experiment/out/docking_results/vina_output/3elj/2072_docked.pdbqt
 OpenBabel03192218493D

 27 30  0  0  0  0  0  0  0  0999 V2000
   23.8010   10.9730   31.4340 N   0  0  0  0  0  0  0  0  0  0  0  0
   22.3940   10.8870   31.5850 C   0  0  0  0  0  2  0  0  0  0  0  0
   21.6280   12.1740   31.6970 C   0  0  0  0  0  2  0  0  0  0  0  0
   22.2820   13.1780   30.9240 N   0  0  0  0  0  0  0  0  0  0  0  0
   23.5680   13.4170   31.5790 C   0  0  0  0  0  2  0  0  0  0  0  0
   24.4270   12.2270   31.3680 C   0  0  0  0  0  2  0  0  0  0  0  0
   21.5530   14.3890   30.7590 C   0  0  0  0  0  2  0  0  0  0  0  0
   22.4100   15.5900   30.9720 C   0  0  0  0  0  2  0  0  0  0  0  0
   22.6100   16.3470   29.7550 N   0  0  0  0  0  0  0  0  0  0  0  0
   22.1520   17.5680   29.4780 N   0  0  0  0  0  0  0  0  0  0  0  0
   22.5510   17.9510   28.2570 C   0  0  0  0  0  0  0  0  0  0  0  0
   23.2790   16.9500   27.7470 N   0  0  0  0  0  0  0  0  0  0  0  0
   22.3770   19.0810   27.4790 C   0  0  0  0  0  3  0  0  0  0  0  0
   23.8260   17.0380   26.5100 C   0  0  0  0  0  3  0  0  0  0  0  0
   23.3080   15.9590   28.6860 C   0  0  0  0  0  0  0  0  0  0  0  0
   23.6670   18.1520   25.7170 C   0  0  0  0  0  3  0  0  0  0  0  0
   22.9210   19.2000   26.2190 C   0  0  0  0  0  3  0  0  0  0  0  0
   23.9210   14.8840   28.4830 O   0  0  0  0  0  0  0  0  0  0  0  0
   24.2880   10.0030   30.0960 S   0  0  0  0  0  0  0  0  0  0  0  0
   23.6240   10.5410   28.8480 O   0  0  0  0  0  0  0  0  0  0  0  0
   25.7550   10.0490   29.8860 O   0  0  0  0  0  0  0  0  0  0  0  0
   23.8290    8.3160   30.3660 C   0  0  0  0  0  0  0  0  0  0  0  0
   24.6750    7.0830   31.1850 S   0  0  0  0  0  0  0  0  0  0  0  0
   23.5640    5.8080   30.9900 C   0  0  0  0  0  0  0  0  0  0  0  0
   22.5470    6.3890   30.2800 C   0  0  0  0  0  3  0  0  0  0  0  0
   23.6760    3.9850   31.6030 Br  0  0  0  0  0  0  0  0  0  0  0  0
   22.6840    7.6810   29.9590 C   0  0  0  0  0  3  0  0  0  0  0  0
  1  2  1  0  0  0  0
  2  3  1  0  0  0  0
  4  5  1  0  0  0  0
  4  3  1  0  0  0  0
  6  1  1  0  0  0  0
  6  5  1  0  0  0  0
  7  4  1  0  0  0  0
  7  8  1  0  0  0  0
  9  8  1  0  0  0  0
 10  9  1  0  0  0  0
 11 10  2  0  0  0  0
 12 11  1  0  0  0  0
 12 15  1  0  0  0  0
 13 11  1  0  0  0  0
 14 12  1  0  0  0  0
 15  9  1  0  0  0  0
 16 17  1  0  0  0  0
 16 14  2  0  0  0  0
 17 13  2  0  0  0  0
 18 15  2  0  0  0  0
 19 22  1  0  0  0  0
 19  1  1  0  0  0  0
 20 19  2  0  0  0  0
 21 19  2  0  0  0  0
 22 23  1  0  0  0  0
 24 23  1  0  0  0  0
 24 26  1  0  0  0  0
 25 24  2  0  0  0  0
 27 25  1  0  0  0  0
 27 22  2  0  0  0  0
M  END
>  <Pose>
1

>  <Score>
-7.944

$$$$
