/Users/jonathanwahrer/Desktop/Msc/3_Semester/Drug_Design_Praktikum/waehrer_HTS_screening/HTS_experiment/out/docking_results/vina_output/3elj/2079_docked.pdbqt
 OpenBabel03192218493D

 31 34  0  0  0  0  0  0  0  0999 V2000
   24.1850    6.6760   30.3300 C   0  0  0  0  0  0  0  0  0  0  0  0
   22.9740    6.4130   30.9290 C   0  0  0  0  0  3  0  0  0  0  0  0
   22.2510    7.4790   31.4820 C   0  0  0  0  0  0  0  0  0  0  0  0
   22.7300    8.7700   31.4410 C   0  0  0  0  0  0  0  0  0  0  0  0
   22.0840    9.8930   31.9600 C   0  0  0  0  0  0  0  0  0  0  0  0
   20.8310    9.5950   32.5530 C   0  0  0  0  0  0  0  0  0  0  0  0
   20.3100    8.3060   32.6110 C   0  0  0  0  0  3  0  0  0  0  0  0
   21.0310    7.2540   32.0670 C   0  0  0  0  0  3  0  0  0  0  0  0
   20.0250   10.5600   33.1230 O   0  0  0  0  0  1  0  0  0  0  0  0
   23.8530    8.9670   30.8780 O   0  0  0  0  0  0  0  0  0  0  0  0
   24.6130    8.0200   30.3210 C   0  0  0  0  0  0  0  0  0  0  0  0
   25.7010    8.2830   29.7950 O   0  0  0  0  0  0  0  0  0  0  0  0
   22.4340   11.2610   31.8130 C   0  0  0  0  0  2  0  0  0  0  0  0
   23.2800   11.7860   30.7720 N   0  0  0  0  0  4  0  0  0  0  0  0
   22.4900   12.5070   29.7350 C   0  0  0  0  0  2  0  0  0  0  0  0
   21.4150   13.3050   30.3830 C   0  0  0  0  0  2  0  0  0  0  0  0
   21.8690   14.3190   31.3070 N   0  0  0  0  0  0  0  0  0  0  0  0
   23.1070   13.9920   31.9290 C   0  0  0  0  0  2  0  0  0  0  0  0
   23.9780   12.9780   31.3540 C   0  0  0  0  0  2  0  0  0  0  0  0
   24.0060   11.2310   30.3810 H   0  0  0  0  0  0  0  0  0  0  0  0
   20.8390   14.5760   32.3260 C   0  0  0  0  0  2  0  0  0  0  0  0
   19.5430   13.8630   32.0180 C   0  0  0  0  0  2  0  0  0  0  0  0
   18.9540   13.3110   33.1460 O   0  0  0  0  0  0  0  0  0  0  0  0
   19.3770   13.7360   33.9590 H   0  0  0  0  0  0  0  0  0  0  0  0
   24.9440    5.6250   29.6230 C   0  0  0  0  0  0  0  0  0  0  0  0
   25.2850    4.4810   30.3690 C   0  0  0  0  0  3  0  0  0  0  0  0
   25.9500    3.4320   29.7600 C   0  0  0  0  0  3  0  0  0  0  0  0
   26.3050    3.4640   28.4160 C   0  0  0  0  0  0  0  0  0  0  0  0
   27.0790    2.0880   27.5920 Cl  0  0  0  0  0  0  0  0  0  0  0  0
   25.9710    4.5950   27.6920 C   0  0  0  0  0  3  0  0  0  0  0  0
   25.3070    5.6310   28.3240 C   0  0  0  0  0  3  0  0  0  0  0  0
  1  2  2  0  0  0  0
  2  3  1  0  0  0  0
  3  8  1  0  0  0  0
  4  3  2  0  0  0  0
  4  5  1  0  0  0  0
  5  6  2  0  0  0  0
  6  7  1  0  0  0  0
  6  9  1  0  0  0  0
  8  7  2  0  0  0  0
 10  4  1  0  0  0  0
 11  1  1  0  0  0  0
 11 10  1  0  0  0  0
 12 11  2  0  0  0  0
 13  5  1  0  0  0  0
 14 19  1  0  0  0  0
 14 13  1  0  0  0  0
 15 16  1  0  0  0  0
 15 14  1  0  0  0  0
 16 17  1  0  0  0  0
 17 18  1  0  0  0  0
 17 21  1  0  0  0  0
 19 18  1  0  0  0  0
 20 14  1  0  0  0  0
 22 21  1  0  0  0  0
 22 23  1  0  0  0  0
 23 24  1  0  0  0  0
 25  1  1  0  0  0  0
 25 26  1  0  0  0  0
 27 26  2  0  0  0  0
 28 27  1  0  0  0  0
 29 28  1  0  0  0  0
 30 31  1  0  0  0  0
 30 28  2  0  0  0  0
 31 25  2  0  0  0  0
M  END
>  <Pose>
1

>  <Score>
-8.556

$$$$
