/Users/jonathanwahrer/Desktop/Msc/3_Semester/Drug_Design_Praktikum/waehrer_HTS_screening/HTS_experiment/out/docking_results/vina_output/3elj/2091_docked.pdbqt
 OpenBabel03192218503D

 28 31  0  0  0  0  0  0  0  0999 V2000
   22.1910    7.6870   31.0920 N   0  0  0  0  0  0  0  0  0  0  0  0
   21.0040    7.5300   31.6950 C   0  0  0  0  0  0  0  0  0  0  0  0
   20.7280    8.6570   32.4370 C   0  0  0  0  0  0  0  0  0  0  0  0
   21.7600    9.4680   32.2620 N   0  0  0  0  0  0  0  0  0  0  0  0
   22.6660    8.9060   31.4480 C   0  0  0  0  0  0  0  0  0  0  0  0
   19.5930    8.8190   33.1630 N   0  0  0  0  0  0  0  0  0  0  0  0
   18.7070    7.8120   33.1360 C   0  0  0  0  0  0  0  0  0  0  0  0
   17.6620    7.9780   33.8140 O   0  0  0  0  0  0  0  0  0  0  0  0
   18.9160    6.6880   32.4280 N   0  0  0  0  0  0  0  0  0  0  0  0
   20.0390    6.5170   31.7050 C   0  0  0  0  0  0  0  0  0  0  0  0
   20.2610    5.4950   31.0400 O   0  0  0  0  0  0  0  0  0  0  0  0
   19.3920   10.0390   33.9160 C   0  0  0  0  0  1  0  0  0  0  0  0
   18.2200    5.9120   32.4100 H   0  0  0  0  0  0  0  0  0  0  0  0
   22.8530    6.7370   30.2310 C   0  0  0  0  0  2  0  0  0  0  0  0
   23.6700    5.7130   30.8500 C   0  0  0  0  0  0  0  0  0  0  0  0
   23.2400    4.7300   31.6860 C   0  0  0  0  0  3  0  0  0  0  0  0
   24.0780    3.7500   32.2160 C   0  0  0  0  0  3  0  0  0  0  0  0
   25.4290    3.7610   31.8820 C   0  0  0  0  0  0  0  0  0  0  0  0
   26.6410    2.4510   32.5500 Br  0  0  0  0  0  0  0  0  0  0  0  0
   25.9080    4.7370   31.0390 C   0  0  0  0  0  3  0  0  0  0  0  0
   25.0440    5.6840   30.5420 C   0  0  0  0  0  3  0  0  0  0  0  0
   23.9120    9.4740   31.0250 N   0  0  0  0  0  0  0  0  0  0  0  0
   24.7350   10.1140   32.0280 C   0  0  0  0  0  2  0  0  0  0  0  0
   24.8190   11.5940   31.6850 C   0  0  0  0  0  2  0  0  0  0  0  0
   24.5780   11.8590   30.3060 N   0  0  0  0  0  0  0  0  0  0  0  0
   24.9720   10.8380   29.3930 C   0  0  0  0  0  2  0  0  0  0  0  0
   23.4280   12.6120   29.9740 C   0  0  0  0  0  1  0  0  0  0  0  0
   24.4040    9.4710   29.6730 C   0  0  0  0  0  2  0  0  0  0  0  0
  1  5  1  0  0  0  0
  1  2  1  0  0  0  0
  2 10  1  0  0  0  0
  2  3  2  0  0  0  0
  3  6  1  0  0  0  0
  4  3  1  0  0  0  0
  5  4  2  0  0  0  0
  6 12  1  0  0  0  0
  7  6  1  0  0  0  0
  7  8  2  0  0  0  0
  9  7  1  0  0  0  0
 10  9  1  0  0  0  0
 11 10  2  0  0  0  0
 13  9  1  0  0  0  0
 14 15  1  0  0  0  0
 14  1  1  0  0  0  0
 15 16  1  0  0  0  0
 16 17  2  0  0  0  0
 18 17  1  0  0  0  0
 18 19  1  0  0  0  0
 20 18  2  0  0  0  0
 21 15  2  0  0  0  0
 21 20  1  0  0  0  0
 22  5  1  0  0  0  0
 22 23  1  0  0  0  0
 24 23  1  0  0  0  0
 25 24  1  0  0  0  0
 26 28  1  0  0  0  0
 26 25  1  0  0  0  0
 27 25  1  0  0  0  0
 28 22  1  0  0  0  0
M  END
>  <Pose>
1

>  <Score>
-8.176

$$$$
