/Users/jonathanwahrer/Desktop/Msc/3_Semester/Drug_Design_Praktikum/waehrer_HTS_screening/HTS_experiment/out/docking_results/vina_output/3elj/2105_docked.pdbqt
 OpenBabel03192218503D

 29 32  0  0  1  0  0  0  0  0999 V2000
   29.9500   16.1990   20.4390 Cl  0  0  0  0  0  0  0  0  0  0  0  0
   28.8130   15.2440   21.3670 C   0  0  0  0  0  0  0  0  0  0  0  0
   28.8150   15.2950   22.7610 C   0  0  0  0  0  0  0  0  0  0  0  0
   27.9470   14.5670   23.5200 C   0  0  0  0  0  0  0  0  0  0  0  0
   27.0480   13.7630   22.8330 C   0  0  0  0  0  3  0  0  0  0  0  0
   27.0300   13.6990   21.4570 C   0  0  0  0  0  3  0  0  0  0  0  0
   27.9150   14.4420   20.7080 C   0  0  0  0  0  3  0  0  0  0  0  0
   28.2080   14.8440   24.9470 C   0  0  2  0  0  0  0  0  0  0  0  0
   28.6510   13.5850   25.6500 C   0  0  0  0  0  0  0  0  0  0  0  0
   28.0540   13.1010   26.7030 C   0  0  0  0  0  0  0  0  0  0  0  0
   26.9140   13.7360   27.2780 N   0  0  0  0  0  0  0  0  0  0  0  0
   26.4300   14.9250   26.6800 C   0  0  0  0  0  0  0  0  0  0  0  0
   27.0250   15.4220   25.6200 C   0  0  0  0  0  0  0  0  0  0  0  0
   26.4940   16.6470   25.0360 C   0  0  0  0  0  0  0  0  0  0  0  0
   26.0820   17.6160   24.5580 N   0  0  0  0  0  0  0  0  0  0  0  0
   28.7520   11.8690   27.1230 C   0  0  0  0  0  0  0  0  0  0  0  0
   29.7820   11.6980   26.2310 O   0  0  0  0  0  0  0  0  0  0  0  0
   29.7710   12.7180   25.3080 C   0  0  0  0  0  0  0  0  0  0  0  0
   30.5730   12.8990   24.3260 O   0  0  0  0  0  0  0  0  0  0  0  0
   27.7600   10.7270   27.1540 C   0  0  0  0  0  1  0  0  0  0  0  0
   29.3390   12.0000   28.5170 C   0  0  0  0  0  1  0  0  0  0  0  0
   29.3260   15.8150   24.9360 C   0  0  0  0  0  0  0  0  0  0  0  0
   29.8920   16.3420   25.9600 O   0  0  0  0  0  0  0  0  0  0  0  0
   29.6680   16.0640   23.5910 N   0  0  0  0  0  0  0  0  0  0  0  0
   26.4320   13.3540   28.1190 H   0  0  0  0  0  0  0  0  0  0  0  0
   30.4450   16.7290   23.2910 H   0  0  0  0  0  0  0  0  0  0  0  0
   25.2930   15.6190   27.2010 N   0  0  0  0  0  0  0  0  0  0  0  0
   25.3860   16.5690   27.5840 H   0  0  0  0  0  0  0  0  0  0  0  0
   24.3810   15.1460   27.1840 H   0  0  0  0  0  0  0  0  0  0  0  0
  1  2  1  0  0  0  0
  2  3  1  0  0  0  0
  3  4  2  0  0  0  0
  3 24  1  0  0  0  0
  5  4  1  0  0  0  0
  6  5  2  0  0  0  0
  7  2  2  0  0  0  0
  7  6  1  0  0  0  0
  8  4  1  6  0  0  0
  8 13  1  0  0  0  0
  8  9  1  0  0  0  0
  9 10  2  0  0  0  0
 10 16  1  0  0  0  0
 10 11  1  0  0  0  0
 11 25  1  0  0  0  0
 12 27  1  0  0  0  0
 12 11  1  0  0  0  0
 13 12  2  0  0  0  0
 14 13  1  0  0  0  0
 15 14  3  0  0  0  0
 16 20  1  0  0  0  0
 16 21  1  0  0  0  0
 17 16  1  0  0  0  0
 18  9  1  0  0  0  0
 18 17  1  0  0  0  0
 19 18  2  0  0  0  0
 22  8  1  0  0  0  0
 22 23  2  0  0  0  0
 24 22  1  0  0  0  0
 26 24  1  0  0  0  0
 27 28  1  0  0  0  0
 29 27  1  0  0  0  0
M  END
>  <Pose>
1

>  <Score>
-5.859

$$$$
