/Users/jonathanwahrer/Desktop/Msc/3_Semester/Drug_Design_Praktikum/waehrer_HTS_screening/HTS_experiment/out/docking_results/vina_output/3elj/2121_docked.pdbqt
 OpenBabel03192218513D

 31 34  0  0  1  0  0  0  0  0999 V2000
   25.1970    5.1250   29.2430 C   0  0  0  0  0  0  0  0  0  0  0  0
   25.2340    5.2700   27.9120 O   0  0  0  0  0  0  0  0  0  0  0  0
   25.6400    3.8910   29.6670 N   0  0  0  0  0  0  0  0  0  0  0  0
   26.0870    3.0500   28.5210 C   0  0  0  0  0  2  0  0  0  0  0  0
   27.5630    3.2960   28.2750 C   0  0  0  0  0  2  0  0  0  0  0  0
   28.1470    3.8360   29.5240 C   0  0  1  0  0  3  0  0  0  0  0  0
   27.9720    2.8820   30.6610 C   0  0  2  0  0  3  0  0  0  0  0  0
   27.0460    3.5870   31.6670 C   0  0  0  0  0  2  0  0  0  0  0  0
   25.6510    3.4660   31.0240 C   0  0  0  0  0  2  0  0  0  0  0  0
   24.7060    6.2930   29.9220 C   0  0  0  0  0  0  0  0  0  0  0  0
   25.3600    7.3340   30.4430 N   0  0  0  0  0  0  0  0  0  0  0  0
   24.4910    8.2100   31.0330 C   0  0  0  0  0  0  0  0  0  0  0  0
   26.3690    7.5290   30.4280 H   0  0  0  0  0  0  0  0  0  0  0  0
   23.2480    7.7020   30.8770 C   0  0  0  0  0  0  0  0  0  0  0  0
   24.6640    9.3950   31.6950 C   0  0  0  0  0  3  0  0  0  0  0  0
   22.1080    8.3460   31.3710 C   0  0  0  0  0  3  0  0  0  0  0  0
   23.3550    6.5100   30.1890 C   0  0  0  0  0  3  0  0  0  0  0  0
   22.2960    9.5210   32.0250 C   0  0  0  0  0  0  0  0  0  0  0  0
   20.8820   10.3620   32.6650 Cl  0  0  0  0  0  0  0  0  0  0  0  0
   23.5550   10.0600   32.1970 C   0  0  0  0  0  3  0  0  0  0  0  0
   29.4900    4.3210   29.4850 N   0  0  0  0  0  0  0  0  0  0  0  0
   29.6380    5.7270   29.7670 C   0  0  0  0  0  2  0  0  0  0  0  0
   28.9780    6.5700   28.7430 C   0  0  0  0  0  2  0  0  0  0  0  0
   29.5470    6.1770   27.4490 N   0  0  0  0  0  0  0  0  0  0  0  0
   30.5650    5.1600   27.4950 C   0  0  0  0  0  2  0  0  0  0  0  0
   29.0990    6.8110   26.2500 C   0  0  0  0  0  0  0  0  0  0  0  0
   30.2070    3.9440   28.2970 C   0  0  0  0  0  2  0  0  0  0  0  0
   29.5760    6.4630   25.1620 O   0  0  0  0  0  0  0  0  0  0  0  0
   28.0600    7.8830   26.3570 C   0  0  0  0  0  1  0  0  0  0  0  0
   29.1660    2.4930   31.2640 O   0  0  0  0  0  0  0  0  0  0  0  0
   29.1080    2.8250   32.2180 H   0  0  0  0  0  0  0  0  0  0  0  0
  1  3  1  0  0  0  0
  1 10  1  0  0  0  0
  2  1  2  0  0  0  0
  3  9  1  0  0  0  0
  4  3  1  0  0  0  0
  5  4  1  0  0  0  0
  6  5  1  6  0  0  0
  6  7  1  0  0  0  0
  7 30  1  1  0  0  0
  7  8  1  0  0  0  0
  9  8  1  0  0  0  0
 10 17  2  0  0  0  0
 10 11  1  0  0  0  0
 11 12  1  0  0  0  0
 12 15  1  0  0  0  0
 13 11  1  0  0  0  0
 14 12  2  0  0  0  0
 14 16  1  0  0  0  0
 15 20  2  0  0  0  0
 16 18  2  0  0  0  0
 17 14  1  0  0  0  0
 18 20  1  0  0  0  0
 18 19  1  0  0  0  0
 21  6  1  0  0  0  0
 21 22  1  0  0  0  0
 23 22  1  0  0  0  0
 24 25  1  0  0  0  0
 24 23  1  0  0  0  0
 25 27  1  0  0  0  0
 26 29  1  0  0  0  0
 26 24  1  0  0  0  0
 27 21  1  0  0  0  0
 28 26  2  0  0  0  0
 30 31  1  0  0  0  0
M  END
>  <Pose>
1

>  <Score>
-7.545

$$$$
