/Users/jonathanwahrer/Desktop/Msc/3_Semester/Drug_Design_Praktikum/waehrer_HTS_screening/HTS_experiment/out/docking_results/vina_output/3elj/2122_docked.pdbqt
 OpenBabel03192218513D

 29 32  0  0  0  0  0  0  0  0999 V2000
   23.7670    8.0970   30.6350 C   0  0  0  0  0  0  0  0  0  0  0  0
   23.3210    8.3450   29.3910 N   0  0  0  0  0  0  0  0  0  0  0  0
   23.7430    9.5070   28.9790 O   0  0  0  0  0  0  0  0  0  0  0  0
   24.4650   10.0250   29.9520 C   0  0  0  0  0  0  0  0  0  0  0  0
   24.4900    9.1710   30.9790 N   0  0  0  0  0  0  0  0  0  0  0  0
   23.5100    6.8520   31.4100 C   0  0  0  0  0  2  0  0  0  0  0  0
   22.1000    6.6520   31.5820 N   0  0  0  0  0  0  0  0  0  0  0  0
   21.1670    7.4660   32.0810 C   0  0  0  0  0  0  0  0  0  0  0  0
   21.2270    8.7550   32.5950 C   0  0  0  0  0  3  0  0  0  0  0  0
   19.9250    6.8270   32.0420 C   0  0  0  0  0  0  0  0  0  0  0  0
   20.0480    9.3440   33.0430 C   0  0  0  0  0  0  0  0  0  0  0  0
   20.1190   10.9730   33.6950 Cl  0  0  0  0  0  0  0  0  0  0  0  0
   18.8350    8.6830   32.9890 C   0  0  0  0  0  3  0  0  0  0  0  0
   18.7780    7.4190   32.4850 C   0  0  0  0  0  3  0  0  0  0  0  0
   20.1810    5.6660   31.5220 O   0  0  0  0  0  0  0  0  0  0  0  0
   21.4500    5.5260   31.2370 C   0  0  0  0  0  0  0  0  0  0  0  0
   21.9410    4.4850   30.7240 O   0  0  0  0  0  0  0  0  0  0  0  0
   25.1140   11.3720   29.8130 C   0  0  0  0  0  0  0  0  0  0  0  0
   26.3690   11.2920   30.0460 O   0  0  0  0  0  0  0  0  0  0  0  0
   24.3810   12.4510   29.4820 N   0  0  0  0  0  0  0  0  0  0  0  0
   25.5230   13.2110   29.4650 H   0  0  0  0  0  0  0  0  0  0  0  0
   23.6430   13.5690   29.1410 C   0  0  0  0  0  2  0  0  0  0  0  0
   22.4990   13.8650   30.1180 C   0  0  0  0  0  2  0  0  0  0  0  0
   22.6590   15.0360   30.8840 N   0  0  0  0  0  0  0  0  0  0  0  0
   22.9840   14.7330   32.2230 C   0  0  0  0  0  2  0  0  0  0  0  0
   22.5670   15.7930   33.1860 C   0  0  0  0  0  2  0  0  0  0  0  0
   22.8340   17.0230   32.6400 O   0  0  0  0  0  0  0  0  0  0  0  0
   22.0650   17.3250   31.5330 C   0  0  0  0  0  2  0  0  0  0  0  0
   21.8670   16.1630   30.6050 C   0  0  0  0  0  2  0  0  0  0  0  0
  1  5  1  0  0  0  0
  1  6  1  0  0  0  0
  2  1  2  0  0  0  0
  3  2  1  0  0  0  0
  3  4  1  0  0  0  0
  4  5  2  0  0  0  0
  6  7  1  0  0  0  0
  7  8  1  0  0  0  0
  8  9  1  0  0  0  0
  9 11  2  0  0  0  0
 10  8  2  0  0  0  0
 10 14  1  0  0  0  0
 11 12  1  0  0  0  0
 13 11  1  0  0  0  0
 14 13  2  0  0  0  0
 15 10  1  0  0  0  0
 16 15  1  0  0  0  0
 16  7  1  0  0  0  0
 17 16  2  0  0  0  0
 18  4  1  0  0  0  0
 18 19  2  0  0  0  0
 20 18  1  0  0  0  0
 21 20  1  0  0  0  0
 22 20  1  0  0  0  0
 22 23  1  0  0  0  0
 23 24  1  0  0  0  0
 24 25  1  0  0  0  0
 25 26  1  0  0  0  0
 27 26  1  0  0  0  0
 28 27  1  0  0  0  0
 29 24  1  0  0  0  0
 29 28  1  0  0  0  0
M  END
>  <Pose>
1

>  <Score>
-8.959

$$$$
