/Users/jonathanwahrer/Desktop/Msc/3_Semester/Drug_Design_Praktikum/waehrer_HTS_screening/HTS_experiment/out/docking_results/vina_output/3elj/2124_docked.pdbqt
 OpenBabel03192218513D

 25 29  0  0  1  0  0  0  0  0999 V2000
   22.4480   11.1420   31.6680 N   0  0  0  0  0  0  0  0  0  0  0  0
   22.2620    9.7370   31.5720 C   0  0  0  0  0  0  0  0  0  0  0  0
   21.1700    9.1630   31.3190 O   0  0  0  0  0  0  0  0  0  0  0  0
   23.5570    9.0190   31.8170 C   0  0  1  0  0  3  0  0  0  0  0  0
   23.9120    8.1410   30.6640 C   0  0  2  0  0  0  0  0  0  0  0  0
   25.2490    8.4890   30.3480 O   0  0  0  0  0  0  0  0  0  0  0  0
   25.0220    9.8840   30.2240 C   0  0  2  0  0  0  0  0  0  0  0  0
   24.5740   10.1580   31.6560 C   0  0  1  0  0  3  0  0  0  0  0  0
   23.8380   11.4030   31.8150 C   0  0  0  0  0  0  0  0  0  0  0  0
   24.3710   12.5190   32.0450 O   0  0  0  0  0  0  0  0  0  0  0  0
   23.8860    9.8870   29.2720 C   0  0  0  0  0  2  0  0  0  0  0  0
   23.2400    8.7170   29.4550 C   0  0  0  0  0  2  0  0  0  0  0  0
   26.2020   10.6530   29.7960 C   0  0  0  0  0  1  0  0  0  0  0  0
   21.4800   12.1940   31.6350 C   0  0  0  0  0  0  0  0  0  0  0  0
   20.5370   12.3810   32.6170 C   0  0  0  0  0  3  0  0  0  0  0  0
   19.6040   13.4020   32.5740 C   0  0  0  0  0  3  0  0  0  0  0  0
   19.5950   14.2810   31.5170 C   0  0  0  0  0  0  0  0  0  0  0  0
   18.4190   15.5950   31.4190 Cl  0  0  0  0  0  0  0  0  0  0  0  0
   20.5320   14.1040   30.5250 C   0  0  0  0  0  3  0  0  0  0  0  0
   21.4720   13.0760   30.5710 C   0  0  0  0  0  3  0  0  0  0  0  0
   23.7150    6.6960   30.8350 C   0  0  0  0  0  3  0  0  0  0  0  0
   23.5310    6.1210   29.5760 O   0  0  0  0  0  0  0  0  0  0  0  0
   24.7640    5.7980   29.0690 C   0  0  0  0  0  2  0  0  0  0  0  0
   25.5870    5.5790   30.3100 C   0  0  0  0  0  2  0  0  0  0  0  0
   24.8760    6.1240   31.3550 O   0  0  0  0  0  0  0  0  0  0  0  0
  1  9  1  0  0  0  0
  2  1  1  0  0  0  0
  3  2  2  0  0  0  0
  4  2  1  6  0  0  0
  5 21  1  1  0  0  0
  5  4  1  0  0  0  0
  6  5  1  0  0  0  0
  7 13  1  6  0  0  0
  7  6  1  0  0  0  0
  7  8  1  0  0  0  0
  8  9  1  6  0  0  0
  8  4  1  0  0  0  0
  9 10  2  0  0  0  0
 11 12  1  0  0  0  0
 11  7  1  0  0  0  0
 12  5  1  0  0  0  0
 14  1  1  0  0  0  0
 14 15  1  0  0  0  0
 16 15  2  0  0  0  0
 17 16  1  0  0  0  0
 18 17  1  0  0  0  0
 19 20  1  0  0  0  0
 19 17  2  0  0  0  0
 20 14  2  0  0  0  0
 21 25  1  0  0  0  0
 22 21  1  0  0  0  0
 23 22  1  0  0  0  0
 23 24  1  0  0  0  0
 24 25  1  0  0  0  0
M  END
>  <Pose>
1

>  <Score>
-7.925

$$$$
