/Users/jonathanwahrer/Desktop/Msc/3_Semester/Drug_Design_Praktikum/waehrer_HTS_screening/HTS_experiment/out/docking_results/vina_output/3elj/2139_docked.pdbqt
 OpenBabel03192218523D

 27 30  0  0  0  0  0  0  0  0999 V2000
   23.9340    9.9660   31.1620 N   0  0  0  0  0  0  0  0  0  0  0  0
   23.0890    9.8780   30.0380 C   0  0  0  0  0  2  0  0  0  0  0  0
   22.1890   11.0560   29.7820 C   0  0  0  0  0  2  0  0  0  0  0  0
   22.8240   12.2120   30.4690 N   0  0  0  0  0  0  0  0  0  0  0  0
   24.2340   12.2300   30.3690 C   0  0  0  0  0  2  0  0  0  0  0  0
   24.7680   11.1300   31.2610 C   0  0  0  0  0  2  0  0  0  0  0  0
   21.9530   13.1330   31.0870 C   0  0  0  0  0  0  0  0  0  0  0  0
   21.0280   12.6770   31.9850 N   0  0  0  0  0  0  0  0  0  0  0  0
   20.1310   13.4310   32.6070 C   0  0  0  0  0  0  0  0  0  0  0  0
   20.1130   14.7500   32.3480 N   0  0  0  0  0  0  0  0  0  0  0  0
   21.0050   15.2590   31.4690 C   0  0  0  0  0  0  0  0  0  0  0  0
   21.2270   16.5130   31.0310 N   0  0  0  0  0  0  0  0  0  0  0  0
   21.9510   14.4710   30.8120 C   0  0  0  0  0  0  0  0  0  0  0  0
   22.2410   16.5020   30.1650 C   0  0  0  0  0  3  0  0  0  0  0  0
   22.7040   15.2480   30.0170 N   0  0  0  0  0  0  0  0  0  0  0  0
   23.5010   14.9890   29.3980 H   0  0  0  0  0  0  0  0  0  0  0  0
   19.1820   12.8830   33.5460 N   0  0  0  0  0  0  0  0  0  0  0  0
   19.4210   12.1010   34.1710 H   0  0  0  0  0  0  0  0  0  0  0  0
   18.2240   13.2820   33.6020 H   0  0  0  0  0  0  0  0  0  0  0  0
   23.4730    9.4240   32.3820 C   0  0  0  0  0  2  0  0  0  0  0  0
   22.1070    8.9050   32.3880 C   0  0  0  0  0  0  0  0  0  0  0  0
   21.0720    9.6570   32.8840 C   0  0  0  0  0  3  0  0  0  0  0  0
   19.7520    9.2230   32.9190 C   0  0  0  0  0  3  0  0  0  0  0  0
   19.4920    7.9630   32.4220 C   0  0  0  0  0  0  0  0  0  0  0  0
   17.8530    7.3460   32.4340 Cl  0  0  0  0  0  0  0  0  0  0  0  0
   20.5280    7.2050   31.9250 C   0  0  0  0  0  3  0  0  0  0  0  0
   21.8260    7.6530   31.8990 C   0  0  0  0  0  3  0  0  0  0  0  0
  1  6  1  0  0  0  0
  1 20  1  0  0  0  0
  2  1  1  0  0  0  0
  3  2  1  0  0  0  0
  3  4  1  0  0  0  0
  4  7  1  0  0  0  0
  5  4  1  0  0  0  0
  5  6  1  0  0  0  0
  7  8  1  0  0  0  0
  8  9  2  0  0  0  0
  9 17  1  0  0  0  0
 10  9  1  0  0  0  0
 11 10  2  0  0  0  0
 12 11  1  0  0  0  0
 13  7  2  0  0  0  0
 13 11  1  0  0  0  0
 14 12  2  0  0  0  0
 15 14  1  0  0  0  0
 15 13  1  0  0  0  0
 16 15  1  0  0  0  0
 17 19  1  0  0  0  0
 17 18  1  0  0  0  0
 20 21  1  0  0  0  0
 21 22  1  0  0  0  0
 22 23  2  0  0  0  0
 24 25  1  0  0  0  0
 24 23  1  0  0  0  0
 26 24  2  0  0  0  0
 27 26  1  0  0  0  0
 27 21  2  0  0  0  0
M  END
>  <Pose>
1

>  <Score>
-8.885

$$$$
