/Users/jonathanwahrer/Desktop/Msc/3_Semester/Drug_Design_Praktikum/waehrer_HTS_screening/HTS_experiment/out/docking_results/vina_output/3elj/2149_docked.pdbqt
 OpenBabel03192218523D

 24 27  0  0  0  0  0  0  0  0999 V2000
   22.2560    5.8400   30.8580 N   0  0  0  0  0  0  0  0  0  0  0  0
   22.5190    6.5750   29.7940 N   0  0  0  0  0  0  0  0  0  0  0  0
   23.7020    6.2790   29.2890 N   0  0  0  0  0  0  0  0  0  0  0  0
   24.2520    5.3200   30.0330 C   0  0  0  0  0  0  0  0  0  0  0  0
   23.3390    5.0400   31.0260 C   0  0  0  0  0  0  0  0  0  0  0  0
   23.6580    4.0930   31.9210 N   0  0  0  0  0  0  0  0  0  0  0  0
   24.8310    3.4400   31.8480 C   0  0  0  0  0  3  0  0  0  0  0  0
   25.7060    3.7310   30.8690 N   0  0  0  0  0  0  0  0  0  0  0  0
   25.4760    4.6720   29.9170 C   0  0  0  0  0  0  0  0  0  0  0  0
   21.0660    5.8510   31.7070 C   0  0  0  0  0  2  0  0  0  0  0  0
   20.8350    7.2530   32.1400 C   0  0  0  0  0  0  0  0  0  0  0  0
   19.5900    7.5800   32.6010 C   0  0  0  0  0  3  0  0  0  0  0  0
   19.2880    8.8640   33.0250 C   0  0  0  0  0  3  0  0  0  0  0  0
   20.2620    9.8300   32.9810 C   0  0  0  0  0  0  0  0  0  0  0  0
   19.9010   11.4680   33.5150 Cl  0  0  0  0  0  0  0  0  0  0  0  0
   21.5150    9.4910   32.5140 C   0  0  0  0  0  3  0  0  0  0  0  0
   21.8130    8.2190   32.0940 C   0  0  0  0  0  3  0  0  0  0  0  0
   26.3880    4.9790   28.8910 N   0  0  0  0  0  0  0  0  0  0  0  0
   27.4580    5.9380   28.9490 C   0  0  0  0  0  2  0  0  0  0  0  0
   28.7370    5.2270   28.7030 C   0  0  0  0  0  2  0  0  0  0  0  0
   28.6860    3.9560   28.1130 N   0  0  0  0  0  0  0  0  0  0  0  0
   27.5500    3.5440   27.4050 C   0  0  0  0  0  2  0  0  0  0  0  0
   29.0260    2.9530   29.1060 C   0  0  0  0  0  1  0  0  0  0  0  0
   26.2910    4.2950   27.6250 C   0  0  0  0  0  2  0  0  0  0  0  0
  1  5  1  0  0  0  0
  1 10  1  0  0  0  0
  2  1  1  0  0  0  0
  3  2  2  0  0  0  0
  3  4  1  0  0  0  0
  4  5  1  0  0  0  0
  5  6  2  0  0  0  0
  7  6  1  0  0  0  0
  8  7  2  0  0  0  0
  9  4  2  0  0  0  0
  9  8  1  0  0  0  0
 10 11  1  0  0  0  0
 11 12  1  0  0  0  0
 12 13  2  0  0  0  0
 14 13  1  0  0  0  0
 14 15  1  0  0  0  0
 16 14  2  0  0  0  0
 17 11  2  0  0  0  0
 17 16  1  0  0  0  0
 18 19  1  0  0  0  0
 18  9  1  0  0  0  0
 20 19  1  0  0  0  0
 21 20  1  0  0  0  0
 21 23  1  0  0  0  0
 22 24  1  0  0  0  0
 22 21  1  0  0  0  0
 24 18  1  0  0  0  0
M  END
>  <Pose>
1

>  <Score>
-7.970

$$$$
