/Users/jonathanwahrer/Desktop/Msc/3_Semester/Drug_Design_Praktikum/waehrer_HTS_screening/HTS_experiment/out/docking_results/vina_output/3elj/2164_docked.pdbqt
 OpenBabel03192218523D

 25 28  0  0  1  0  0  0  0  0999 V2000
   24.5060    9.9550   30.5280 C   0  0  2  0  0  3  0  0  0  0  0  0
   23.3600    9.2360   29.8660 C   0  0  0  0  0  2  0  0  0  0  0  0
   23.0480    8.5230   31.1140 N   0  0  0  0  0  0  0  0  0  0  0  0
   24.3890    8.8650   31.5530 C   0  0  0  0  0  2  0  0  0  0  0  0
   24.1540   11.3280   31.0330 C   0  0  0  0  0  0  0  0  0  0  0  0
   22.8580   11.8230   30.8180 N   0  0  0  0  0  0  0  0  0  0  0  0
   22.1440   11.1970   30.2910 H   0  0  0  0  0  0  0  0  0  0  0  0
   25.0710   11.9250   31.6150 O   0  0  0  0  0  0  0  0  0  0  0  0
   22.3890   13.0850   31.2320 C   0  0  0  0  0  0  0  0  0  0  0  0
   21.0670   13.4510   30.9400 C   0  0  0  0  0  3  0  0  0  0  0  0
   20.5280   14.6620   31.3070 C   0  0  0  0  0  0  0  0  0  0  0  0
   18.7260   15.1180   30.8900 Br  0  0  0  0  0  0  0  0  0  0  0  0
   21.2940   15.5640   31.9840 C   0  0  0  0  0  3  0  0  0  0  0  0
   22.5790   15.2350   32.2790 C   0  0  0  0  0  3  0  0  0  0  0  0
   23.1340   14.0070   31.9110 C   0  0  0  0  0  3  0  0  0  0  0  0
   21.9020    7.8310   31.5910 C   0  0  0  0  0  0  0  0  0  0  0  0
   21.7610    6.4870   31.4550 N   0  0  0  0  0  0  0  0  0  0  0  0
   20.6500    5.8450   31.9230 C   0  0  0  0  0  3  0  0  0  0  0  0
   19.6660    6.5170   32.5280 N   0  0  0  0  0  0  0  0  0  0  0  0
   19.7380    7.8380   32.6950 C   0  0  0  0  0  0  0  0  0  0  0  0
   18.8970    8.7270   33.2610 N   0  0  0  0  0  0  0  0  0  0  0  0
   20.8620    8.4850   32.2220 C   0  0  0  0  0  0  0  0  0  0  0  0
   19.4720    9.9050   33.1490 N   0  0  0  0  0  0  0  0  0  0  0  0
   17.6010    8.4710   33.8830 C   0  0  0  0  0  1  0  0  0  0  0  0
   20.6530    9.7930   32.5300 N   0  0  0  0  0  0  0  0  0  0  0  0
  1  5  1  1  0  0  0
  1  4  1  0  0  0  0
  2  1  1  0  0  0  0
  2  3  1  0  0  0  0
  3  4  1  0  0  0  0
  3 16  1  0  0  0  0
  5  8  2  0  0  0  0
  6  5  1  0  0  0  0
  6  9  1  0  0  0  0
  7  6  1  0  0  0  0
  9 15  1  0  0  0  0
 10  9  2  0  0  0  0
 10 11  1  0  0  0  0
 11 13  2  0  0  0  0
 12 11  1  0  0  0  0
 13 14  1  0  0  0  0
 15 14  2  0  0  0  0
 16 22  1  0  0  0  0
 17 16  2  0  0  0  0
 17 18  1  0  0  0  0
 18 19  2  0  0  0  0
 19 20  1  0  0  0  0
 20 21  1  0  0  0  0
 21 24  1  0  0  0  0
 22 25  1  0  0  0  0
 22 20  2  0  0  0  0
 23 21  1  0  0  0  0
 25 23  2  0  0  0  0
M  END
>  <Pose>
1

>  <Score>
-8.798

$$$$
