/Users/jonathanwahrer/Desktop/Msc/3_Semester/Drug_Design_Praktikum/waehrer_HTS_screening/HTS_experiment/out/docking_results/vina_output/3elj/2177_docked.pdbqt
 OpenBabel03192218533D

 31 35  0  0  0  0  0  0  0  0999 V2000
   25.1130   10.8650   30.5280 N   0  0  0  0  0  0  0  0  0  0  0  0
   23.9850   11.3590   29.7750 C   0  0  0  0  0  2  0  0  0  0  0  0
   22.7800   10.5300   30.1370 C   0  0  0  0  0  2  0  0  0  0  0  0
   22.6490   10.2990   31.5620 N   0  0  0  0  0  0  0  0  0  0  0  0
   23.8070    9.8400   32.3030 C   0  0  0  0  0  2  0  0  0  0  0  0
   24.9740   10.7270   31.9600 C   0  0  0  0  0  2  0  0  0  0  0  0
   26.3010   10.5490   29.8140 C   0  0  0  0  0  3  0  0  0  0  0  0
   26.6180    9.3560   29.3680 C   0  0  0  0  0  0  0  0  0  0  0  0
   25.7830    8.2180   29.5530 N   0  0  0  0  0  0  0  0  0  0  0  0
   27.8380    9.1680   28.6680 N   0  0  0  0  0  0  0  0  0  0  0  0
   26.0940    6.9150   29.0840 C   0  0  0  0  0  0  0  0  0  0  0  0
   24.8910    8.3720   30.0690 H   0  0  0  0  0  0  0  0  0  0  0  0
   27.2790    6.7230   28.4030 C   0  0  0  0  0  0  0  0  0  0  0  0
   25.2880    5.8100   29.2620 C   0  0  0  0  0  3  0  0  0  0  0  0
   27.6320    5.4840   27.9250 C   0  0  0  0  0  3  0  0  0  0  0  0
   28.1660    7.8840   28.1930 C   0  0  0  0  0  0  0  0  0  0  0  0
   26.8150    4.3920   28.1120 C   0  0  0  0  0  0  0  0  0  0  0  0
   27.3070    2.8170   27.4820 Cl  0  0  0  0  0  0  0  0  0  0  0  0
   25.6290    4.5630   28.7900 C   0  0  0  0  0  3  0  0  0  0  0  0
   29.2440    7.6410   27.5580 O   0  0  0  0  0  0  0  0  0  0  0  0
   28.5040    9.9550   28.4910 H   0  0  0  0  0  0  0  0  0  0  0  0
   21.3950   10.5230   32.2090 C   0  0  0  0  0  0  0  0  0  0  0  0
   21.0590   11.7810   32.5560 N   0  0  0  0  0  0  0  0  0  0  0  0
   19.8730   12.0400   33.1750 C   0  0  0  0  0  3  0  0  0  0  0  0
   19.0080   11.0400   33.4540 N   0  0  0  0  0  0  0  0  0  0  0  0
   19.2850    9.7720   33.1330 C   0  0  0  0  0  0  0  0  0  0  0  0
   18.6210    8.6120   33.2900 N   0  0  0  0  0  0  0  0  0  0  0  0
   20.5040    9.5240   32.5000 C   0  0  0  0  0  0  0  0  0  0  0  0
   19.3760    7.6540   32.7820 N   0  0  0  0  0  0  0  0  0  0  0  0
   17.3060    8.4140   33.9060 C   0  0  0  0  0  1  0  0  0  0  0  0
   20.5330    8.1810   32.2910 C   0  0  0  0  0  3  0  0  0  0  0  0
  1  6  1  0  0  0  0
  2  3  1  0  0  0  0
  2  1  1  0  0  0  0
  3  4  1  0  0  0  0
  4 22  1  0  0  0  0
  4  5  1  0  0  0  0
  6  5  1  0  0  0  0
  7  1  1  0  0  0  0
  8  9  1  0  0  0  0
  8  7  2  0  0  0  0
  9 12  1  0  0  0  0
 10  8  1  0  0  0  0
 11 14  1  0  0  0  0
 11  9  1  0  0  0  0
 13 11  2  0  0  0  0
 15 17  2  0  0  0  0
 15 13  1  0  0  0  0
 16 13  1  0  0  0  0
 16 10  1  0  0  0  0
 17 19  1  0  0  0  0
 18 17  1  0  0  0  0
 19 14  2  0  0  0  0
 20 16  2  0  0  0  0
 21 10  1  0  0  0  0
 22 28  2  0  0  0  0
 22 23  1  0  0  0  0
 23 24  2  0  0  0  0
 24 25  1  0  0  0  0
 26 27  1  0  0  0  0
 26 25  2  0  0  0  0
 27 30  1  0  0  0  0
 28 26  1  0  0  0  0
 29 27  1  0  0  0  0
 31 28  1  0  0  0  0
 31 29  2  0  0  0  0
M  END
>  <Pose>
1

>  <Score>
-8.474

$$$$
