/Users/jonathanwahrer/Desktop/Msc/3_Semester/Drug_Design_Praktikum/waehrer_HTS_screening/HTS_experiment/out/docking_results/vina_output/3elj/2195_docked.pdbqt
 OpenBabel03192218533D

 29 32  0  0  1  0  0  0  0  0999 V2000
   21.9560    9.6200   31.0750 C   0  0  0  0  0  0  0  0  0  0  0  0
   21.9620    8.3040   30.8710 N   0  0  0  0  0  0  0  0  0  0  0  0
   21.2760    7.4600   31.6600 C   0  0  0  0  0  0  0  0  0  0  0  0
   21.1130    6.1080   31.6760 N   0  0  0  0  0  0  0  0  0  0  0  0
   20.3210    5.8410   32.6930 N   0  0  0  0  0  0  0  0  0  0  0  0
   19.9650    6.9410   33.3290 N   0  0  0  0  0  0  0  0  0  0  0  0
   20.5410    7.9810   32.7160 C   0  0  0  0  0  0  0  0  0  0  0  0
   20.5250    9.3470   32.9400 C   0  0  0  0  0  0  0  0  0  0  0  0
   21.2420   10.1020   32.0980 N   0  0  0  0  0  0  0  0  0  0  0  0
   22.6970   10.5850   30.2180 C   0  0  1  0  0  3  0  0  0  0  0  0
   22.3640   11.9940   30.4340 C   0  0  0  0  0  2  0  0  0  0  0  0
   23.2570   12.8560   31.0650 N   0  0  0  0  0  0  0  0  0  0  0  0
   24.3810   12.3790   31.7260 C   0  0  0  0  0  2  0  0  0  0  0  0
   24.5950   10.8930   31.7060 C   0  0  0  0  0  2  0  0  0  0  0  0
   24.1740   10.3420   30.3910 C   0  0  0  0  0  2  0  0  0  0  0  0
   22.5730   14.3050   31.6170 S   0  0  0  0  0  0  0  0  0  0  0  0
   22.3480   15.3010   30.5330 O   0  0  0  0  0  0  0  0  0  0  0  0
   23.4830   14.8780   32.6850 O   0  0  0  0  0  0  0  0  0  0  0  0
   21.0050   14.0030   32.4450 C   0  0  0  0  0  1  0  0  0  0  0  0
   19.7960    9.8880   33.9910 O   0  0  0  0  0  0  0  0  0  0  0  0
   18.9330    9.4560   34.2820 H   0  0  0  0  0  0  0  0  0  0  0  0
   21.6940    5.1740   30.7640 C   0  0  0  0  0  2  0  0  0  0  0  0
   22.9920    4.6220   31.2240 C   0  0  0  0  0  0  0  0  0  0  0  0
   24.1440    5.0850   30.6390 C   0  0  0  0  0  0  0  0  0  0  0  0
   25.4030    4.6200   31.0110 C   0  0  0  0  0  3  0  0  0  0  0  0
   24.0660    6.3000   29.3810 Cl  0  0  0  0  0  0  0  0  0  0  0  0
   25.5200    3.6640   31.9970 C   0  0  0  0  0  3  0  0  0  0  0  0
   24.3680    3.1950   32.5880 C   0  0  0  0  0  3  0  0  0  0  0  0
   23.1130    3.6670   32.2080 C   0  0  0  0  0  3  0  0  0  0  0  0
  1  9  1  0  0  0  0
  2  1  2  0  0  0  0
  2  3  1  0  0  0  0
  3  4  1  0  0  0  0
  3  7  2  0  0  0  0
  4  5  1  0  0  0  0
  5  6  2  0  0  0  0
  7  8  1  0  0  0  0
  7  6  1  0  0  0  0
  8 20  1  0  0  0  0
  9  8  2  0  0  0  0
 10 15  1  0  0  0  0
 10 11  1  0  0  0  0
 10  1  1  1  0  0  0
 11 12  1  0  0  0  0
 12 16  1  0  0  0  0
 12 13  1  0  0  0  0
 14 13  1  0  0  0  0
 15 14  1  0  0  0  0
 16 19  1  0  0  0  0
 16 18  2  0  0  0  0
 17 16  2  0  0  0  0
 20 21  1  0  0  0  0
 22 23  1  0  0  0  0
 22  4  1  0  0  0  0
 23 29  1  0  0  0  0
 24 25  1  0  0  0  0
 24 23  2  0  0  0  0
 25 27  2  0  0  0  0
 26 24  1  0  0  0  0
 27 28  1  0  0  0  0
 29 28  2  0  0  0  0
M  END
>  <Pose>
1

>  <Score>
-9.276

$$$$
