/Users/jonathanwahrer/Desktop/Msc/3_Semester/Drug_Design_Praktikum/waehrer_HTS_screening/HTS_experiment/out/docking_results/vina_output/3elj/2197_docked.pdbqt
 OpenBabel03192218533D

 28 31  0  0  1  0  0  0  0  0999 V2000
   23.3650   10.5530   29.9740 N   0  0  0  0  0  0  0  0  0  0  0  0
   23.5770    9.1380   29.6070 C   0  0  0  0  0  2  0  0  0  0  0  0
   24.9020    8.7390   30.1440 C   0  0  2  0  0  3  0  0  0  0  0  0
   25.9580    9.5440   29.9340 O   0  0  0  0  0  0  0  0  0  0  0  0
   25.7750   10.8190   29.5590 C   0  0  0  0  0  2  0  0  0  0  0  0
   24.3790   11.2590   29.2800 C   0  0  0  0  0  2  0  0  0  0  0  0
   25.2050    7.3850   29.5950 C   0  0  0  0  0  0  0  0  0  0  0  0
   26.1380    7.3030   28.7520 O   0  0  0  0  0  0  0  0  0  0  0  0
   24.5290    6.2030   29.9500 N   0  0  0  0  0  0  0  0  0  0  0  0
   23.4370    6.1410   30.9040 C   0  0  0  0  0  2  0  0  0  0  0  0
   24.8900    4.9030   29.3640 C   0  0  0  0  0  2  0  0  0  0  0  0
   22.9190    4.7170   30.9020 C   0  0  0  0  0  2  0  0  0  0  0  0
   23.9270    3.7550   31.3060 N   0  0  0  0  0  0  0  0  0  0  0  0
   25.1290    3.9870   30.5710 C   0  0  0  0  0  2  0  0  0  0  0  0
   24.0600    3.8140   32.7260 C   0  0  0  0  0  2  0  0  0  0  0  0
   23.4720    2.6300   33.4430 C   0  0  0  0  0  3  0  0  0  0  0  0
   24.4970    1.8620   34.2760 C   0  0  0  0  0  2  0  0  0  0  0  0
   23.8110    1.2480   33.0960 C   0  0  0  0  0  2  0  0  0  0  0  0
   23.2160   10.7450   31.6400 S   0  0  0  0  0  0  0  0  0  0  0  0
   23.1770    9.3410   32.2600 O   0  0  0  0  0  0  0  0  0  0  0  0
   24.4180   11.3930   32.2830 O   0  0  0  0  0  0  0  0  0  0  0  0
   21.7390   11.5110   32.1300 C   0  0  0  0  0  0  0  0  0  0  0  0
   21.4940   12.8440   31.8820 C   0  0  0  0  0  0  0  0  0  0  0  0
   20.3460   13.4760   32.3200 C   0  0  0  0  0  3  0  0  0  0  0  0
   22.6190   13.8030   30.9020 Cl  0  0  0  0  0  0  0  0  0  0  0  0
   19.4080   12.7640   33.0240 C   0  0  0  0  0  3  0  0  0  0  0  0
   19.6360   11.4200   33.2810 C   0  0  0  0  0  3  0  0  0  0  0  0
   20.7740   10.8010   32.8470 C   0  0  0  0  0  3  0  0  0  0  0  0
  1 19  1  0  0  0  0
  2  1  1  0  0  0  0
  2  3  1  0  0  0  0
  3  7  1  6  0  0  0
  4  3  1  0  0  0  0
  5  4  1  0  0  0  0
  6  5  1  0  0  0  0
  6  1  1  0  0  0  0
  7  9  1  0  0  0  0
  8  7  2  0  0  0  0
  9 10  1  0  0  0  0
 11  9  1  0  0  0  0
 11 14  1  0  0  0  0
 12 10  1  0  0  0  0
 12 13  1  0  0  0  0
 13 15  1  0  0  0  0
 14 13  1  0  0  0  0
 15 16  1  0  0  0  0
 16 17  1  0  0  0  0
 18 16  1  0  0  0  0
 18 17  1  0  0  0  0
 19 22  1  0  0  0  0
 19 20  2  0  0  0  0
 19 21  2  0  0  0  0
 22 28  1  0  0  0  0
 23 22  2  0  0  0  0
 23 24  1  0  0  0  0
 24 26  2  0  0  0  0
 25 23  1  0  0  0  0
 26 27  1  0  0  0  0
 28 27  2  0  0  0  0
M  END
>  <Pose>
1

>  <Score>
-7.987

$$$$
