/Users/jonathanwahrer/Desktop/Msc/3_Semester/Drug_Design_Praktikum/waehrer_HTS_screening/HTS_experiment/out/docking_results/vina_output/3elj/2210_docked.pdbqt
 OpenBabel03192218543D

 33 36  0  0  1  0  0  0  0  0999 V2000
   21.5620    5.3830   31.8770 C   0  0  0  0  0  2  0  0  0  0  0  0
   21.0850    6.5930   32.1960 C   0  0  1  0  0  3  0  0  0  0  0  0
   21.8370    7.7620   32.1570 O   0  0  0  0  0  0  0  0  0  0  0  0
   21.0160    8.8370   32.5230 C   0  0  0  0  0  0  0  0  0  0  0  0
   19.7450    8.4460   32.8120 C   0  0  0  0  0  0  0  0  0  0  0  0
   18.7700    9.3460   33.1710 C   0  0  0  0  0  3  0  0  0  0  0  0
   19.0740   10.7020   33.2460 C   0  0  0  0  0  3  0  0  0  0  0  0
   20.3800   11.0960   32.9500 C   0  0  0  0  0  0  0  0  0  0  0  0
   21.3400   10.2030   32.5990 C   0  0  0  0  0  0  0  0  0  0  0  0
   20.6030   12.4690   33.0490 O   0  0  0  0  0  1  0  0  0  0  0  0
   19.7500    6.9670   32.6130 C   0  0  0  0  0  0  0  0  0  0  0  0
   18.7940    6.1970   32.7790 O   0  0  0  0  0  0  0  0  0  0  0  0
   22.7770   10.5210   32.4610 C   0  0  0  0  0  2  0  0  0  0  0  0
   23.0500   11.4800   31.4970 N   0  0  0  0  0  4  0  0  0  0  0  0
   22.5380   11.0850   30.1460 C   0  0  0  0  0  2  0  0  0  0  0  0
   21.7770   12.3410   29.6520 C   0  0  0  0  0  2  0  0  0  0  0  0
   22.1500   13.4640   30.4540 N   0  0  0  0  0  0  0  0  0  0  0  0
   23.5340   13.6350   30.6590 C   0  0  0  0  0  2  0  0  0  0  0  0
   24.1400   12.3160   31.3110 C   0  0  0  0  0  2  0  0  0  0  0  0
   22.1950   12.2000   31.7570 H   0  0  0  0  0  0  0  0  0  0  0  0
   21.1660   14.2760   30.9740 C   0  0  0  0  0  2  0  0  0  0  0  0
   21.4760   15.6830   31.3740 C   0  0  0  0  0  2  0  0  0  0  0  0
   20.3820   16.2730   32.0270 O   0  0  0  0  0  0  0  0  0  0  0  0
   19.5640   16.1780   31.4380 H   0  0  0  0  0  0  0  0  0  0  0  0
   22.9730    5.3620   31.4540 C   0  0  0  0  0  0  0  0  0  0  0  0
   23.4770    6.4140   30.7770 C   0  0  0  0  0  3  0  0  0  0  0  0
   24.7970    6.3390   30.2980 C   0  0  0  0  0  0  0  0  0  0  0  0
   25.5370    7.8090   29.3390 Br  0  0  0  0  0  0  0  0  0  0  0  0
   25.5780    5.2290   30.5000 C   0  0  0  0  0  3  0  0  0  0  0  0
   25.0270    4.1690   31.1930 C   0  0  0  0  0  3  0  0  0  0  0  0
   23.7140    4.2230   31.6830 C   0  0  0  0  0  0  0  0  0  0  0  0
   23.1580    3.1590   32.3780 O   0  0  0  0  0  0  0  0  0  0  0  0
   23.7370    2.4710   33.4310 C   0  0  0  0  0  1  0  0  0  0  0  0
  2  1  1  6  0  0  0
  2 11  1  0  0  0  0
  3  2  1  0  0  0  0
  3  4  1  0  0  0  0
  4  9  2  0  0  0  0
  4  5  1  0  0  0  0
  5  6  2  0  0  0  0
  6  7  1  0  0  0  0
  8 10  1  0  0  0  0
  8  7  2  0  0  0  0
  9  8  1  0  0  0  0
 11 12  2  0  0  0  0
 11  5  1  0  0  0  0
 13  9  1  0  0  0  0
 14 20  1  0  0  0  0
 14 13  1  0  0  0  0
 15 14  1  0  0  0  0
 16 15  1  0  0  0  0
 16 17  1  0  0  0  0
 17 18  1  0  0  0  0
 17 21  1  0  0  0  0
 18 19  1  0  0  0  0
 19 14  1  0  0  0  0
 21 22  1  0  0  0  0
 22 23  1  0  0  0  0
 24 23  1  0  0  0  0
 25 31  1  0  0  0  0
 25  1  1  0  0  0  0
 26 25  2  0  0  0  0
 27 29  2  0  0  0  0
 27 26  1  0  0  0  0
 28 27  1  0  0  0  0
 29 30  1  0  0  0  0
 30 31  2  0  0  0  0
 31 32  1  0  0  0  0
 32 33  1  0  0  0  0
M  END
>  <Pose>
1

>  <Score>
-8.818

$$$$
