/Users/jonathanwahrer/Desktop/Msc/3_Semester/Drug_Design_Praktikum/waehrer_HTS_screening/HTS_experiment/out/docking_results/vina_output/3elj/2213_docked.pdbqt
 OpenBabel03192218543D

 31 34  0  0  1  0  0  0  0  0999 V2000
   30.0320   14.7830   20.5330 Cl  0  0  0  0  0  0  0  0  0  0  0  0
   28.6280   14.8430   21.5750 C   0  0  0  0  0  0  0  0  0  0  0  0
   28.8230   15.1560   22.9290 C   0  0  1  0  0  3  0  0  0  0  0  0
   27.7430   15.2100   23.7710 C   0  0  0  0  0  0  0  0  0  0  0  0
   26.4860   14.9450   23.2160 C   0  0  0  0  0  3  0  0  0  0  0  0
   26.3080   14.6380   21.8860 C   0  0  0  0  0  0  0  0  0  0  0  0
   27.3940   14.5830   21.0320 C   0  0  0  0  0  3  0  0  0  0  0  0
   24.7160   14.3090   21.2120 Cl  0  0  0  0  0  0  0  0  0  0  0  0
   27.8530   15.5300   25.2020 C   0  0  0  0  0  0  0  0  0  0  0  0
   29.2540   15.7760   25.5830 C   0  0  0  0  0  0  0  0  0  0  0  0
   30.3120   15.7170   24.7310 C   0  0  0  0  0  0  0  0  0  0  0  0
   31.5940   15.9540   25.1370 N   0  0  0  0  0  0  0  0  0  0  0  0
   31.7880   16.2520   26.4190 C   0  0  0  0  0  0  0  0  0  0  0  0
   32.9640   16.4810   26.8440 O   0  0  0  0  0  0  0  0  0  0  0  0
   30.7680   16.3210   27.2990 N   0  0  0  0  0  0  0  0  0  0  0  0
   29.5080   16.0910   26.9120 C   0  0  0  0  0  0  0  0  0  0  0  0
   28.5570   16.1560   27.7320 O   0  0  0  0  0  0  0  0  0  0  0  0
   31.0460   16.6540   28.6890 C   0  0  0  0  0  1  0  0  0  0  0  0
   32.6970   15.8830   24.2040 C   0  0  0  0  0  1  0  0  0  0  0  0
   30.0910   15.4090   23.4170 O   0  0  0  0  0  0  0  0  0  0  0  0
   27.2320   14.4590   26.0510 C   0  0  0  0  0  3  0  0  0  0  0  0
   27.7590   13.1920   26.1250 C   0  0  0  0  0  0  0  0  0  0  0  0
   27.2200   12.2120   26.8660 N   0  0  0  0  0  0  0  0  0  0  0  0
   28.9000   12.9100   25.4010 O   0  0  0  0  0  0  0  0  0  0  0  0
   26.1070   12.4880   27.5710 C   0  0  0  0  0  0  0  0  0  0  0  0
   27.8030   10.8850   26.9260 C   0  0  0  0  0  1  0  0  0  0  0  0
   25.6060   11.5560   28.2660 O   0  0  0  0  0  0  0  0  0  0  0  0
   25.5570   13.7150   27.5280 N   0  0  0  0  0  0  0  0  0  0  0  0
   26.0800   14.7070   26.7950 C   0  0  0  0  0  0  0  0  0  0  0  0
   24.3610   13.9610   28.3010 C   0  0  0  0  0  1  0  0  0  0  0  0
   25.5900   15.8610   26.7360 O   0  0  0  0  0  0  0  0  0  0  0  0
  1  2  1  0  0  0  0
  3  2  1  1  0  0  0
  3 20  1  0  0  0  0
  3  4  1  0  0  0  0
  4  9  2  0  0  0  0
  5  4  1  0  0  0  0
  6  5  2  0  0  0  0
  7  2  2  0  0  0  0
  7  6  1  0  0  0  0
  8  6  1  0  0  0  0
  9 10  1  0  0  0  0
  9 21  1  0  0  0  0
 10 16  1  0  0  0  0
 11 12  1  0  0  0  0
 11 10  2  0  0  0  0
 12 13  1  0  0  0  0
 13 14  2  0  0  0  0
 13 15  1  0  0  0  0
 15 18  1  0  0  0  0
 16 15  1  0  0  0  0
 16 17  2  0  0  0  0
 19 12  1  0  0  0  0
 20 11  1  0  0  0  0
 21 22  1  0  0  0  0
 21 29  1  0  0  0  0
 22 23  1  0  0  0  0
 23 26  1  0  0  0  0
 23 25  1  0  0  0  0
 24 22  2  0  0  0  0
 25 27  2  0  0  0  0
 28 25  1  0  0  0  0
 28 30  1  0  0  0  0
 29 28  1  0  0  0  0
 31 29  2  0  0  0  0
M  END
>  <Pose>
1

>  <Score>
-6.912

$$$$
