/Users/jonathanwahrer/Desktop/Msc/3_Semester/Drug_Design_Praktikum/waehrer_HTS_screening/HTS_experiment/out/docking_results/vina_output/3elj/2214_docked.pdbqt
 OpenBabel03192218543D

 34 38  0  0  1  0  0  0  0  0999 V2000
   27.1660   13.1230   26.0950 Cl  0  0  0  0  0  0  0  0  0  0  0  0
   26.8960   11.9690   27.3830 C   0  0  0  0  0  0  0  0  0  0  0  0
   25.7830   12.0070   28.1780 C   0  0  0  0  0  3  0  0  0  0  0  0
   25.6080   11.0660   29.1960 C   0  0  0  0  0  0  0  0  0  0  0  0
   26.5750   10.1210   29.3660 C   0  0  0  0  0  0  0  0  0  0  0  0
   27.7190   10.0790   28.5520 C   0  0  0  0  0  3  0  0  0  0  0  0
   27.8900   10.9990   27.5570 C   0  0  0  0  0  3  0  0  0  0  0  0
   26.2000    9.2740   30.4480 N   0  0  0  0  0  0  0  0  0  0  0  0
   24.9640    9.6990   30.9710 C   0  0  0  0  0  0  0  0  0  0  0  0
   24.3740    9.1380   31.9480 O   0  0  0  0  0  0  0  0  0  0  0  0
   24.5370   10.8610   30.1850 C   0  0  1  0  0  0  0  0  0  0  0  0
   24.4660   12.0690   30.9770 N   0  0  0  0  0  0  0  0  0  0  0  0
   23.1160   12.5320   31.0430 C   0  0  2  0  0  3  0  0  0  0  0  0
   22.2970   11.4520   30.4560 C   0  0  1  0  0  3  0  0  0  0  0  0
   23.1870   10.6630   29.5380 C   0  0  2  0  0  3  0  0  0  0  0  0
   22.6740    9.2840   29.6970 C   0  0  0  0  0  0  0  0  0  0  0  0
   22.8310    8.2990   28.9320 O   0  0  0  0  0  0  0  0  0  0  0  0
   21.9130    9.1850   30.9200 N   0  0  0  0  0  0  0  0  0  0  0  0
   21.9750   10.4620   31.5430 C   0  0  0  0  0  0  0  0  0  0  0  0
   21.7890   10.6760   32.7640 O   0  0  0  0  0  0  0  0  0  0  0  0
   26.7510    8.4430   30.8210 H   0  0  0  0  0  0  0  0  0  0  0  0
   25.0510   12.8440   30.5930 H   0  0  0  0  0  0  0  0  0  0  0  0
   22.9290   13.8800   30.3980 C   0  0  0  0  0  2  0  0  0  0  0  0
   22.1700   14.8340   31.1840 C   0  0  0  0  0  0  0  0  0  0  0  0
   22.2730   14.8460   32.4290 O   0  0  0  0  0  0  0  0  0  0  0  0
   21.3040   15.7630   30.5640 N   0  0  0  0  0  0  0  0  0  0  0  0
   21.4000   16.7810   30.7870 H   0  0  0  0  0  0  0  0  0  0  0  0
   20.5610   15.5080   29.8880 H   0  0  0  0  0  0  0  0  0  0  0  0
   21.2320    8.0020   31.4000 C   0  0  0  0  0  2  0  0  0  0  0  0
   20.4450    8.2420   32.6600 C   0  0  1  0  0  3  0  0  0  0  0  0
   19.1910    8.7520   32.3360 O   0  0  0  0  0  0  0  0  0  0  0  0
   18.3350    7.6810   32.2120 C   0  0  0  0  0  2  0  0  0  0  0  0
   18.8460    6.5660   33.0970 C   0  0  0  0  0  2  0  0  0  0  0  0
   20.2320    7.0310   33.4980 C   0  0  0  0  0  2  0  0  0  0  0  0
  1  2  1  0  0  0  0
  2  7  2  0  0  0  0
  2  3  1  0  0  0  0
  3  4  2  0  0  0  0
  4  5  1  0  0  0  0
  5  8  1  0  0  0  0
  6  5  2  0  0  0  0
  7  6  1  0  0  0  0
  8 21  1  0  0  0  0
  8  9  1  0  0  0  0
  9 10  2  0  0  0  0
 11  4  1  6  0  0  0
 11  9  1  0  0  0  0
 11 12  1  0  0  0  0
 12 13  1  0  0  0  0
 13 23  1  6  0  0  0
 14 13  1  0  0  0  0
 14 19  1  1  0  0  0
 15 16  1  1  0  0  0
 15 11  1  0  0  0  0
 15 14  1  0  0  0  0
 16 18  1  0  0  0  0
 17 16  2  0  0  0  0
 18 29  1  0  0  0  0
 18 19  1  0  0  0  0
 19 20  2  0  0  0  0
 22 12  1  0  0  0  0
 23 24  1  0  0  0  0
 24 25  2  0  0  0  0
 26 27  1  0  0  0  0
 26 24  1  0  0  0  0
 28 26  1  0  0  0  0
 30 29  1  6  0  0  0
 30 34  1  0  0  0  0
 31 30  1  0  0  0  0
 32 31  1  0  0  0  0
 32 33  1  0  0  0  0
 33 34  1  0  0  0  0
M  END
>  <Pose>
1

>  <Score>
-8.260

$$$$
