/Users/jonathanwahrer/Desktop/Msc/3_Semester/Drug_Design_Praktikum/waehrer_HTS_screening/HTS_experiment/out/docking_results/vina_output/3elj/2225_docked.pdbqt
 OpenBabel03192218543D

 29 32  0  0  0  0  0  0  0  0999 V2000
   24.8410    9.6780   30.7910 C   0  0  0  0  0  0  0  0  0  0  0  0
   25.4530    9.4760   31.9250 O   0  0  0  0  0  0  0  0  0  0  0  0
   24.4550   10.9840   30.5380 N   0  0  0  0  0  0  0  0  0  0  0  0
   24.7600   12.0110   31.5810 C   0  0  0  0  0  2  0  0  0  0  0  0
   23.5420   12.8970   31.6540 C   0  0  0  0  0  2  0  0  0  0  0  0
   22.3460   12.2690   31.1240 N   0  0  0  0  0  0  0  0  0  0  0  0
   22.3590   11.9000   29.7340 C   0  0  0  0  0  2  0  0  0  0  0  0
   23.7930   11.5350   29.3850 C   0  0  0  0  0  2  0  0  0  0  0  0
   21.2350   12.0390   31.9620 C   0  0  0  0  0  0  0  0  0  0  0  0
   20.8310   10.7760   32.2700 N   0  0  0  0  0  0  0  0  0  0  0  0
   19.7960   10.5090   33.0540 C   0  0  0  0  0  0  0  0  0  0  0  0
   19.1150   11.5660   33.5680 N   0  0  0  0  0  0  0  0  0  0  0  0
   19.4450   12.8190   33.3150 C   0  0  0  0  0  3  0  0  0  0  0  0
   20.5320   13.0920   32.4910 C   0  0  0  0  0  3  0  0  0  0  0  0
   19.3640    9.2010   33.3830 N   0  0  0  0  0  0  0  0  0  0  0  0
   20.3360    8.1190   33.4880 C   0  0  0  0  0  2  0  0  0  0  0  0
   19.8030    7.0120   32.5740 C   0  0  0  0  0  2  0  0  0  0  0  0
   18.5680    6.6030   33.0020 O   0  0  0  0  0  0  0  0  0  0  0  0
   17.5880    7.5650   32.9510 C   0  0  0  0  0  2  0  0  0  0  0  0
   17.9840    8.8590   33.6270 C   0  0  0  0  0  2  0  0  0  0  0  0
   24.6740    8.4570   29.9780 C   0  0  0  0  0  2  0  0  0  0  0  0
   24.5030    7.2790   30.4610 O   0  0  0  0  0  0  0  0  0  0  0  0
   24.3190    6.1100   30.9820 C   0  0  0  0  0  0  0  0  0  0  0  0
   23.0760    5.6300   31.4500 C   0  0  0  0  0  3  0  0  0  0  0  0
   22.9470    4.3850   31.9880 C   0  0  0  0  0  3  0  0  0  0  0  0
   24.0120    3.5220   32.1120 C   0  0  0  0  0  0  0  0  0  0  0  0
   23.8290    1.9310   32.8060 Cl  0  0  0  0  0  0  0  0  0  0  0  0
   25.2320    3.9720   31.6620 C   0  0  0  0  0  3  0  0  0  0  0  0
   25.3980    5.2110   31.1170 C   0  0  0  0  0  3  0  0  0  0  0  0
  1  2  2  0  0  0  0
  3  1  1  0  0  0  0
  3  4  1  0  0  0  0
  4  5  1  0  0  0  0
  6  5  1  0  0  0  0
  6  9  1  0  0  0  0
  7  6  1  0  0  0  0
  8  7  1  0  0  0  0
  8  3  1  0  0  0  0
  9 10  1  0  0  0  0
  9 14  2  0  0  0  0
 10 11  2  0  0  0  0
 11 15  1  0  0  0  0
 11 12  1  0  0  0  0
 13 12  2  0  0  0  0
 14 13  1  0  0  0  0
 15 16  1  0  0  0  0
 15 20  1  0  0  0  0
 17 18  1  0  0  0  0
 17 16  1  0  0  0  0
 19 18  1  0  0  0  0
 19 20  1  0  0  0  0
 21 22  1  0  0  0  0
 21  1  1  0  0  0  0
 22 23  1  0  0  0  0
 23 29  2  0  0  0  0
 23 24  1  0  0  0  0
 24 25  2  0  0  0  0
 25 26  1  0  0  0  0
 26 27  1  0  0  0  0
 28 26  2  0  0  0  0
 29 28  1  0  0  0  0
M  END
>  <Pose>
1

>  <Score>
-7.870

$$$$
