/Users/jonathanwahrer/Desktop/Msc/3_Semester/Drug_Design_Praktikum/waehrer_HTS_screening/HTS_experiment/out/docking_results/vina_output/3elj/2231_docked.pdbqt
 OpenBabel03192218553D

 27 31  0  0  0  0  0  0  0  0999 V2000
   22.1760    6.3500   31.2810 N   0  0  0  0  0  0  0  0  0  0  0  0
   22.4060    5.0510   31.1980 N   0  0  0  0  0  0  0  0  0  0  0  0
   23.5330    4.7940   30.5620 N   0  0  0  0  0  0  0  0  0  0  0  0
   24.1050    5.9530   30.1920 C   0  0  0  0  0  0  0  0  0  0  0  0
   23.2350    6.9210   30.6530 C   0  0  0  0  0  0  0  0  0  0  0  0
   23.5550    8.2140   30.4220 N   0  0  0  0  0  0  0  0  0  0  0  0
   24.6900    8.5060   29.7610 C   0  0  0  0  0  3  0  0  0  0  0  0
   25.5400    7.5500   29.3090 N   0  0  0  0  0  0  0  0  0  0  0  0
   25.2700    6.2480   29.5130 C   0  0  0  0  0  0  0  0  0  0  0  0
   26.1530    5.2280   29.0450 N   0  0  0  0  0  0  0  0  0  0  0  0
   25.9680    4.7900   27.6750 C   0  0  0  0  0  2  0  0  0  0  0  0
   27.2570    4.1930   27.1150 C   0  0  0  0  0  2  0  0  0  0  0  0
   27.9700    3.4740   28.1080 N   0  0  0  0  0  0  0  0  0  0  0  0
   28.4230    4.3380   29.2410 C   0  0  0  0  0  2  0  0  0  0  0  0
   28.2500    2.1180   28.1080 C   0  0  0  0  0  0  0  0  0  0  0  0
   27.1390    4.7250   29.9500 C   0  0  0  0  0  2  0  0  0  0  0  0
   28.9350    1.7070   29.1610 O   0  0  0  0  0  0  0  0  0  0  0  0
   27.9400    1.0430   27.1780 C   0  0  0  0  0  3  0  0  0  0  0  0
   28.0590   -0.3590   27.6440 C   0  0  0  0  0  2  0  0  0  0  0  0
   26.7460    0.2040   27.1520 C   0  0  0  0  0  2  0  0  0  0  0  0
   21.0690    6.9940   31.8920 C   0  0  0  0  0  0  0  0  0  0  0  0
   21.0540    8.3160   32.2720 C   0  0  0  0  0  3  0  0  0  0  0  0
   19.9490    8.8890   32.8630 C   0  0  0  0  0  3  0  0  0  0  0  0
   18.8230    8.1380   33.0860 C   0  0  0  0  0  0  0  0  0  0  0  0
   17.4320    8.8660   33.8300 Cl  0  0  0  0  0  0  0  0  0  0  0  0
   18.8060    6.8240   32.7200 C   0  0  0  0  0  3  0  0  0  0  0  0
   19.9240    6.2660   32.1290 C   0  0  0  0  0  3  0  0  0  0  0  0
  1 21  1  0  0  0  0
  2  1  1  0  0  0  0
  3  2  2  0  0  0  0
  4  3  1  0  0  0  0
  4  5  1  0  0  0  0
  5  1  1  0  0  0  0
  6  5  2  0  0  0  0
  7  6  1  0  0  0  0
  8  9  1  0  0  0  0
  8  7  2  0  0  0  0
  9  4  2  0  0  0  0
 10  9  1  0  0  0  0
 10 16  1  0  0  0  0
 11 10  1  0  0  0  0
 12 11  1  0  0  0  0
 12 13  1  0  0  0  0
 13 15  1  0  0  0  0
 13 14  1  0  0  0  0
 14 16  1  0  0  0  0
 15 17  2  0  0  0  0
 18 19  1  0  0  0  0
 18 15  1  0  0  0  0
 20 18  1  0  0  0  0
 20 19  1  0  0  0  0
 21 27  2  0  0  0  0
 21 22  1  0  0  0  0
 22 23  2  0  0  0  0
 23 24  1  0  0  0  0
 24 25  1  0  0  0  0
 26 24  2  0  0  0  0
 27 26  1  0  0  0  0
M  END
>  <Pose>
1

>  <Score>
-8.166

$$$$
