/Users/jonathanwahrer/Desktop/Msc/3_Semester/Drug_Design_Praktikum/waehrer_HTS_screening/HTS_experiment/out/docking_results/vina_output/3elj/2267_docked.pdbqt
 OpenBabel03192218553D

 27 30  0  0  1  0  0  0  0  0999 V2000
   23.3960    8.9620   30.9670 N   0  0  0  0  0  0  0  0  0  0  0  0
   23.4380    7.6420   30.5220 C   0  0  0  0  0  2  0  0  0  0  0  0
   22.5790    6.7000   31.3330 C   0  0  0  0  0  2  0  0  0  0  0  0
   21.4160    7.3590   31.9710 C   0  0  2  0  0  3  0  0  0  0  0  0
   21.6040    8.6370   32.4380 C   0  0  0  0  0  0  0  0  0  0  0  0
   20.6110    9.3110   33.0300 N   0  0  0  0  0  0  0  0  0  0  0  0
   19.3830    8.7120   33.1720 C   0  0  1  0  0  3  0  0  0  0  0  0
   19.2180    7.4560   32.7080 N   0  0  0  0  0  0  0  0  0  0  0  0
   17.9540    7.1080   32.9650 N   0  0  0  0  0  0  0  0  0  0  0  0
   17.3180    8.1000   33.5750 C   0  0  0  0  0  3  0  0  0  0  0  0
   18.2060    9.1630   33.7300 C   0  0  0  0  0  3  0  0  0  0  0  0
   20.1750    6.7370   32.1080 C   0  0  0  0  0  0  0  0  0  0  0  0
   20.0200    5.5690   31.6770 O   0  0  0  0  0  0  0  0  0  0  0  0
   22.9290    9.2570   32.2700 C   0  0  0  0  0  2  0  0  0  0  0  0
   17.5150    6.1890   32.7260 H   0  0  0  0  0  0  0  0  0  0  0  0
   23.4500   10.2040   29.8540 S   0  0  0  0  0  0  0  0  0  0  0  0
   24.8590   10.3440   29.3240 O   0  0  0  0  0  0  0  0  0  0  0  0
   22.5710    9.9180   28.6720 O   0  0  0  0  0  0  0  0  0  0  0  0
   22.9960   11.7690   30.4900 C   0  0  0  0  0  0  0  0  0  0  0  0
   21.7000   12.2530   30.4400 C   0  0  0  0  0  3  0  0  0  0  0  0
   21.3980   13.5020   30.9600 C   0  0  0  0  0  0  0  0  0  0  0  0
   22.3510   14.3070   31.5410 C   0  0  0  0  0  0  0  0  0  0  0  0
   19.7520   14.1000   30.8880 Cl  0  0  0  0  0  0  0  0  0  0  0  0
   23.6410   13.8260   31.5920 C   0  0  0  0  0  3  0  0  0  0  0  0
   23.9420   12.5850   31.0750 C   0  0  0  0  0  3  0  0  0  0  0  0
   22.0220   15.5690   32.0620 O   0  0  0  0  0  0  0  0  0  0  0  0
   22.8290   16.1420   33.0740 C   0  0  0  0  0  1  0  0  0  0  0  0
  1 14  1  0  0  0  0
  2  1  1  0  0  0  0
  2  3  1  0  0  0  0
  4  3  1  1  0  0  0
  4 12  1  0  0  0  0
  4  5  1  0  0  0  0
  5  6  2  0  0  0  0
  6  7  1  0  0  0  0
  7 11  1  1  0  0  0
  8  9  1  0  0  0  0
  8  7  1  0  0  0  0
  9 10  1  0  0  0  0
 10 11  2  0  0  0  0
 12  8  1  0  0  0  0
 13 12  2  0  0  0  0
 14  5  1  0  0  0  0
 15  9  1  0  0  0  0
 16 19  1  0  0  0  0
 16  1  1  0  0  0  0
 17 16  2  0  0  0  0
 18 16  2  0  0  0  0
 19 25  1  0  0  0  0
 20 19  2  0  0  0  0
 20 21  1  0  0  0  0
 21 22  2  0  0  0  0
 22 24  1  0  0  0  0
 22 26  1  0  0  0  0
 23 21  1  0  0  0  0
 25 24  2  0  0  0  0
 26 27  1  0  0  0  0
M  END
>  <Pose>
1

>  <Score>
-9.199

$$$$
