/Users/jonathanwahrer/Desktop/Msc/3_Semester/Drug_Design_Praktikum/waehrer_HTS_screening/HTS_experiment/out/docking_results/vina_output/3elj/2270_docked.pdbqt
 OpenBabel03192218553D

 22 24  0  0  1  0  0  0  0  0999 V2000
   23.5850   10.8660   31.5880 C   0  0  0  0  0  0  0  0  0  0  0  0
   24.7380   10.9390   32.0990 O   0  0  0  0  0  0  0  0  0  0  0  0
   22.9920   11.9850   30.9270 N   0  0  0  0  0  0  0  0  0  0  0  0
   22.0590   11.8770   30.5310 H   0  0  0  0  0  0  0  0  0  0  0  0
   22.8560    9.6260   31.6800 C   0  0  0  0  0  0  0  0  0  0  0  0
   21.6050    9.6530   32.3050 C   0  0  0  0  0  3  0  0  0  0  0  0
   20.8160    8.5360   32.4560 C   0  0  0  0  0  0  0  0  0  0  0  0
   21.2780    7.3320   31.9680 C   0  0  0  0  0  0  0  0  0  0  0  0
   20.2870    5.8880   32.1500 Cl  0  0  0  0  0  0  0  0  0  0  0  0
   22.5170    7.2830   31.3450 C   0  0  0  0  0  3  0  0  0  0  0  0
   23.3060    8.4300   31.2000 C   0  0  0  0  0  3  0  0  0  0  0  0
   19.5780    8.5940   33.0810 O   0  0  0  0  0  0  0  0  0  0  0  0
   19.0250    9.8240   33.5090 C   0  0  0  0  0  1  0  0  0  0  0  0
   23.7490   13.2000   30.8560 C   0  0  0  0  0  2  0  0  0  0  0  0
   23.0720   14.4430   31.2760 C   0  0  2  0  0  3  0  0  0  0  0  0
   22.2000   14.3680   32.4080 N   0  0  1  0  0  0  0  0  0  0  0  0
   22.3980   15.6460   33.1330 C   0  0  0  0  0  2  0  0  0  0  0  0
   20.7860   14.3820   32.0910 C   0  0  0  0  0  2  0  0  0  0  0  0
   22.3310   16.7090   32.0290 C   0  0  0  0  0  2  0  0  0  0  0  0
   21.6010   16.2430   30.8670 N   0  0  1  0  0  0  0  0  0  0  0  0
   22.3020   15.1570   30.1780 C   0  0  0  0  0  2  0  0  0  0  0  0
   20.3690   15.6500   31.3570 C   0  0  0  0  0  2  0  0  0  0  0  0
  1  5  1  0  0  0  0
  1  2  2  0  0  0  0
  3  1  1  0  0  0  0
  4  3  1  0  0  0  0
  5  6  1  0  0  0  0
  6  7  2  0  0  0  0
  7 12  1  0  0  0  0
  8  9  1  0  0  0  0
  8  7  1  0  0  0  0
 10  8  2  0  0  0  0
 11 10  1  0  0  0  0
 11  5  2  0  0  0  0
 12 13  1  0  0  0  0
 14  3  1  0  0  0  0
 15 14  1  6  0  0  0
 15 16  1  0  0  0  0
 16 18  1  6  0  0  0
 16 17  1  0  0  0  0
 19 17  1  0  0  0  0
 20 21  1  1  0  0  0
 20 22  1  0  0  0  0
 20 19  1  0  0  0  0
 21 15  1  0  0  0  0
 22 18  1  0  0  0  0
M  END
>  <Pose>
1

>  <Score>
-7.150

$$$$
