/Users/jonathanwahrer/Desktop/Msc/3_Semester/Drug_Design_Praktikum/waehrer_HTS_screening/HTS_experiment/out/docking_results/vina_output/3elj/2271_docked.pdbqt
 OpenBabel03192218553D

 27 30  0  0  1  0  0  0  0  0999 V2000
   25.9920    4.8480   28.4900 C   0  0  2  0  0  0  0  0  0  0  0  0
   25.0710    4.6860   29.5010 N   0  0  0  0  0  4  0  0  0  0  0  0
   25.7060    3.7920   30.4480 C   0  0  0  0  0  0  0  0  0  0  0  0
   25.8160    3.7300   31.7350 C   0  0  0  0  0  3  0  0  0  0  0  0
   26.5470    2.6680   32.4490 C   0  0  0  0  0  2  0  0  0  0  0  0
   27.1960    1.6410   31.5910 C   0  0  0  0  0  2  0  0  0  0  0  0
   26.6180    1.5210   30.2210 C   0  0  0  0  0  2  0  0  0  0  0  0
   26.3090    2.8060   29.6300 N   0  0  0  0  0  0  0  0  0  0  0  0
   26.4780    3.3830   28.3000 C   0  0  0  0  0  2  0  0  0  0  0  0
   24.2970    4.0390   29.1010 H   0  0  0  0  0  0  0  0  0  0  0  0
   27.2020    5.6350   28.6140 C   0  0  0  0  0  0  0  0  0  0  0  0
   27.2870    6.8470   27.9560 C   0  0  0  0  0  3  0  0  0  0  0  0
   28.4200    7.6020   28.0350 C   0  0  0  0  0  3  0  0  0  0  0  0
   29.5270    7.1960   28.7700 C   0  0  0  0  0  0  0  0  0  0  0  0
   30.9890    8.1420   28.8870 Cl  0  0  0  0  0  0  0  0  0  0  0  0
   29.4410    5.9960   29.4200 C   0  0  0  0  0  3  0  0  0  0  0  0
   28.2920    5.2280   29.3410 C   0  0  0  0  0  3  0  0  0  0  0  0
   25.3660    5.1270   27.2430 O   0  0  0  0  0  0  0  0  0  0  0  0
   24.4870    5.5270   27.4710 H   0  0  0  0  0  0  0  0  0  0  0  0
   24.3830    5.7240   30.1100 C   0  0  0  0  0  0  0  0  0  0  0  0
   24.8760    6.9330   30.4660 C   0  0  0  0  0  3  0  0  0  0  0  0
   24.0510    7.8850   31.0630 C   0  0  0  0  0  3  0  0  0  0  0  0
   22.7100    7.6520   31.3180 C   0  0  0  0  0  0  0  0  0  0  0  0
   22.2370    6.4120   30.9440 C   0  0  0  0  0  3  0  0  0  0  0  0
   23.0210    5.4560   30.3570 C   0  0  0  0  0  3  0  0  0  0  0  0
   21.9250    8.6260   31.9140 O   0  0  0  0  0  0  0  0  0  0  0  0
   22.4910    9.8740   32.2220 C   0  0  0  0  0  1  0  0  0  0  0  0
  1 18  1  6  0  0  0
  1 11  1  0  0  0  0
  1  2  1  0  0  0  0
  2 20  1  0  0  0  0
  2  3  1  0  0  0  0
  3  4  2  0  0  0  0
  4  5  1  0  0  0  0
  6  5  1  0  0  0  0
  7  6  1  0  0  0  0
  8  7  1  0  0  0  0
  8  3  1  0  0  0  0
  9  1  1  0  0  0  0
  9  8  1  0  0  0  0
 10  2  1  0  0  0  0
 11 17  1  0  0  0  0
 12 13  1  0  0  0  0
 12 11  2  0  0  0  0
 13 14  2  0  0  0  0
 14 15  1  0  0  0  0
 14 16  1  0  0  0  0
 17 16  2  0  0  0  0
 18 19  1  0  0  0  0
 20 25  2  0  0  0  0
 20 21  1  0  0  0  0
 21 22  2  0  0  0  0
 22 23  1  0  0  0  0
 23 26  1  0  0  0  0
 24 23  2  0  0  0  0
 25 24  1  0  0  0  0
 26 27  1  0  0  0  0
M  END
>  <Pose>
1

>  <Score>
-6.085

$$$$
