/Users/jonathanwahrer/Desktop/Msc/3_Semester/Drug_Design_Praktikum/waehrer_HTS_screening/HTS_experiment/out/docking_results/vina_output/3elj/2272_docked.pdbqt
 OpenBabel03192218563D

 29 32  0  0  0  0  0  0  0  0999 V2000
   24.5980    9.2220   29.6860 C   0  0  0  0  0  0  0  0  0  0  0  0
   25.8860    9.1820   29.7650 O   0  0  0  0  0  0  0  0  0  0  0  0
   24.0480   10.4800   29.4360 N   0  0  0  0  0  0  0  0  0  0  0  0
   22.6090   10.7940   29.5200 C   0  0  0  0  0  2  0  0  0  0  0  0
   22.6390   11.6810   30.8040 C   0  0  0  0  0  2  0  0  0  0  0  0
   23.3660   12.9000   30.4780 N   0  0  0  0  0  0  0  0  0  0  0  0
   24.2810   12.9200   29.4740 C   0  0  0  0  0  2  0  0  0  0  0  0
   24.8380   11.6030   29.0130 C   0  0  0  0  0  2  0  0  0  0  0  0
   23.9440    7.9460   29.8480 C   0  0  0  0  0  2  0  0  0  0  0  0
   23.6920    7.3620   31.1620 C   0  0  0  0  0  2  0  0  0  0  0  0
   22.3530    6.8670   31.4280 N   0  0  0  0  0  0  0  0  0  0  0  0
   21.2950    7.4370   31.9970 C   0  0  0  0  0  0  0  0  0  0  0  0
   20.2660    6.5310   32.1020 C   0  0  0  0  0  0  0  0  0  0  0  0
   21.0980    8.7520   32.4560 C   0  0  0  0  0  3  0  0  0  0  0  0
   19.0240    6.8730   32.6540 C   0  0  0  0  0  3  0  0  0  0  0  0
   20.7320    5.4230   31.5900 O   0  0  0  0  0  0  0  0  0  0  0  0
   18.8210    8.1470   33.1060 C   0  0  0  0  0  0  0  0  0  0  0  0
   17.2810    8.6120   33.7860 Cl  0  0  0  0  0  0  0  0  0  0  0  0
   19.8590    9.0540   32.9960 C   0  0  0  0  0  3  0  0  0  0  0  0
   21.9670    5.5700   31.1760 C   0  0  0  0  0  0  0  0  0  0  0  0
   22.6940    4.6860   30.6390 O   0  0  0  0  0  0  0  0  0  0  0  0
   23.2780   13.7520   31.5660 C   0  0  0  0  0  2  0  0  0  0  0  0
   22.0210   14.6210   31.5120 C   0  0  0  0  0  0  0  0  0  0  0  0
   22.1860   15.7210   30.8590 O   0  0  0  0  0  0  0  0  0  0  0  0
   20.8930   14.2430   32.1030 N   0  0  0  0  0  0  0  0  0  0  0  0
   20.2070   15.2690   31.5370 H   0  0  0  0  0  0  0  0  0  0  0  0
   19.6940   13.8400   32.7320 C   0  0  0  0  0  3  0  0  0  0  0  0
   19.8470   12.6220   33.7210 C   0  0  0  0  0  2  0  0  0  0  0  0
   19.1730   12.4460   32.4480 C   0  0  0  0  0  2  0  0  0  0  0  0
  1  2  2  0  0  0  0
  1  9  1  0  0  0  0
  3  4  1  0  0  0  0
  3  1  1  0  0  0  0
  4  5  1  0  0  0  0
  6  5  1  0  0  0  0
  6 22  1  0  0  0  0
  7  6  1  0  0  0  0
  8  3  1  0  0  0  0
  8  7  1  0  0  0  0
  9 10  1  0  0  0  0
 10 11  1  0  0  0  0
 11 12  1  0  0  0  0
 12 13  2  0  0  0  0
 12 14  1  0  0  0  0
 13 15  1  0  0  0  0
 14 19  2  0  0  0  0
 15 17  2  0  0  0  0
 16 13  1  0  0  0  0
 17 18  1  0  0  0  0
 19 17  1  0  0  0  0
 20 11  1  0  0  0  0
 20 16  1  0  0  0  0
 21 20  2  0  0  0  0
 23 22  1  0  0  0  0
 23 25  1  0  0  0  0
 24 23  2  0  0  0  0
 25 27  1  0  0  0  0
 26 25  1  0  0  0  0
 27 28  1  0  0  0  0
 29 27  1  0  0  0  0
 29 28  1  0  0  0  0
M  END
>  <Pose>
1

>  <Score>
-8.561

$$$$
