/Users/jonathanwahrer/Desktop/Msc/3_Semester/Drug_Design_Praktikum/waehrer_HTS_screening/HTS_experiment/out/docking_results/vina_output/3elj/2275_docked.pdbqt
 OpenBabel03192218563D

 21 23  0  0  1  0  0  0  0  0999 V2000
   19.2130   13.3160   32.9010 Cl  0  0  0  0  0  0  0  0  0  0  0  0
   20.6290   12.6850   32.0890 C   0  0  0  0  0  0  0  0  0  0  0  0
   21.2800   13.4470   31.1420 C   0  0  0  0  0  0  0  0  0  0  0  0
   22.3890   12.8880   30.5470 C   0  0  0  0  0  0  0  0  0  0  0  0
   23.0620   13.5020   29.6630 O   0  0  0  0  0  0  0  0  0  0  0  0
   22.7900   11.6570   30.8980 N   0  0  0  0  0  0  0  0  0  0  0  0
   22.1990   10.8950   31.7970 N   0  0  0  0  0  0  0  0  0  0  0  0
   22.6680    9.5640   32.1480 C   0  0  1  0  0  3  0  0  0  0  0  0
   22.3940    8.5500   31.0570 C   0  0  0  0  0  2  0  0  0  0  0  0
   23.4610    8.6280   29.9790 C   0  0  0  0  0  2  0  0  0  0  0  0
   23.4870    9.9930   29.3290 C   0  0  0  0  0  2  0  0  0  0  0  0
   23.9770   11.0800   30.2490 C   0  0  2  0  0  3  0  0  0  0  0  0
   24.7730   10.4460   31.3330 C   0  0  0  0  0  3  0  0  0  0  0  0
   24.1720    9.6780   32.2340 C   0  0  0  0  0  3  0  0  0  0  0  0
   21.0950   11.4260   32.4020 C   0  0  0  0  0  0  0  0  0  0  0  0
   20.5020   10.7100   33.2780 O   0  0  0  0  0  0  0  0  0  0  0  0
   20.8520   14.7520   30.7660 N   0  0  0  0  0  0  0  0  0  0  0  0
   20.0990   14.7630   30.0130 H   0  0  0  0  0  0  0  0  0  0  0  0
   21.3640   15.9720   31.3280 C   0  0  0  0  0  3  0  0  0  0  0  0
   22.2210   15.7150   32.5550 C   0  0  0  0  0  1  0  0  0  0  0  0
   22.1580   16.8060   30.3780 C   0  0  0  0  0  1  0  0  0  0  0  0
  2 15  1  0  0  0  0
  2  1  1  0  0  0  0
  3  2  2  0  0  0  0
  4  6  1  0  0  0  0
  4  3  1  0  0  0  0
  5  4  2  0  0  0  0
  6  7  1  0  0  0  0
  7  8  1  0  0  0  0
  7 15  1  0  0  0  0
  8  9  1  6  0  0  0
  8 14  1  0  0  0  0
 10  9  1  0  0  0  0
 11 10  1  0  0  0  0
 12 11  1  6  0  0  0
 12  6  1  0  0  0  0
 12 13  1  0  0  0  0
 13 14  2  0  0  0  0
 15 16  2  0  0  0  0
 17  3  1  0  0  0  0
 17 19  1  0  0  0  0
 18 17  1  0  0  0  0
 19 20  1  0  0  0  0
 21 19  1  0  0  0  0
M  END
>  <Pose>
1

>  <Score>
-7.501

$$$$
