/Users/jonathanwahrer/Desktop/Msc/3_Semester/Drug_Design_Praktikum/waehrer_HTS_screening/HTS_experiment/out/docking_results/vina_output/3elj/2281_docked.pdbqt
 OpenBabel03192218563D

 34 37  0  0  1  0  0  0  0  0999 V2000
   23.1330    8.1990   29.9180 N   0  0  0  0  0  0  0  0  0  0  0  0
   22.2490    7.1730   29.5570 C   0  0  0  0  0  2  0  0  0  0  0  0
   22.7770    5.8540   30.2320 C   0  0  0  0  0  2  0  0  0  0  0  0
   23.7690    5.9810   31.1790 N   0  0  0  0  0  0  0  0  0  0  0  0
   24.6670    7.1020   31.1160 C   0  0  0  0  0  2  0  0  0  0  0  0
   24.5810    7.7720   29.7060 C   0  0  0  0  0  2  0  0  0  0  0  0
   23.0120    9.4110   30.5790 C   0  0  2  0  0  3  0  0  0  0  0  0
   22.1540    9.7160   31.5420 C   0  0  1  0  0  3  0  0  0  0  0  0
   21.3850    8.3390   32.4300 Cl  0  0  0  0  0  0  0  0  0  0  0  0
   21.8290   11.0200   31.9160 C   0  0  0  0  0  0  0  0  0  0  0  0
   22.4040   12.0140   31.2970 N   0  0  0  0  0  0  0  0  0  0  0  0
   20.9620   11.1630   32.8440 O   0  0  0  0  0  0  0  0  0  0  0  0
   23.3030   11.7460   30.3140 N   0  0  0  0  0  0  0  0  0  0  0  0
   23.6490   10.5780   29.9210 C   0  0  0  0  0  3  0  0  0  0  0  0
   21.9440   13.3970   31.4080 C   0  0  0  0  0  0  0  0  0  0  0  0
   20.6880   13.7850   31.0680 C   0  0  0  0  0  3  0  0  0  0  0  0
   20.2470   15.0700   31.2980 C   0  0  0  0  0  3  0  0  0  0  0  0
   21.0830   16.0140   31.8920 C   0  0  0  0  0  3  0  0  0  0  0  0
   22.3700   15.5890   32.2220 C   0  0  0  0  0  3  0  0  0  0  0  0
   22.7790   14.3340   31.9900 C   0  0  0  0  0  3  0  0  0  0  0  0
   24.7210    4.8230   31.2640 C   0  0  0  0  0  2  0  0  0  0  0  0
   24.1940    3.8200   32.1780 C   0  0  0  0  0  0  0  0  0  0  0  0
   23.3350    3.7610   32.8900 O   0  0  0  0  0  0  0  0  0  0  0  0
   25.1500    2.4070   32.1010 N   0  0  0  0  0  0  0  0  0  0  0  0
   24.1500    1.5470   32.8250 C   0  0  0  0  0  0  0  0  0  0  0  0
   25.6610    2.8540   31.7310 H   0  0  0  0  0  0  0  0  0  0  0  0
   23.3960    1.9200   33.6820 O   0  0  0  0  0  0  0  0  0  0  0  0
   24.2080    0.1900   32.3300 N   0  0  0  0  0  0  0  0  0  0  0  0
   24.9630    0.0090   31.5880 H   0  0  0  0  0  0  0  0  0  0  0  0
   23.4120   -0.9090   32.7280 C   0  0  0  0  0  3  0  0  0  0  0  0
   23.2180   -2.0420   31.8060 C   0  0  0  0  0  2  0  0  0  0  0  0
   24.3120   -3.0710   32.1070 C   0  0  0  0  0  2  0  0  0  0  0  0
   24.4750   -2.8970   33.5990 C   0  0  0  0  0  2  0  0  0  0  0  0
   24.1480   -1.5110   33.9430 C   0  0  0  0  0  2  0  0  0  0  0  0
  2  1  1  0  0  0  0
  2  3  1  0  0  0  0
  3  4  1  0  0  0  0
  4 21  1  0  0  0  0
  5  4  1  0  0  0  0
  6  1  1  0  0  0  0
  6  5  1  0  0  0  0
  7  1  1  6  0  0  0
  7  8  1  0  0  0  0
  8 10  1  0  0  0  0
  8  9  1  1  0  0  0
 10 12  2  0  0  0  0
 11 15  1  0  0  0  0
 11 10  1  0  0  0  0
 13 11  1  0  0  0  0
 14 13  2  0  0  0  0
 14  7  1  0  0  0  0
 15 20  1  0  0  0  0
 16 17  1  0  0  0  0
 16 15  2  0  0  0  0
 17 18  2  0  0  0  0
 18 19  1  0  0  0  0
 20 19  2  0  0  0  0
 21 22  1  0  0  0  0
 22 23  2  0  0  0  0
 24 22  1  0  0  0  0
 24 25  1  0  0  0  0
 25 27  2  0  0  0  0
 26 24  1  0  0  0  0
 28 30  1  0  0  0  0
 28 25  1  0  0  0  0
 29 28  1  0  0  0  0
 30 34  1  0  0  0  0
 31 32  1  0  0  0  0
 31 30  1  0  0  0  0
 32 33  1  0  0  0  0
 33 34  1  0  0  0  0
M  END
>  <Pose>
1

>  <Score>
-8.033

$$$$
