/Users/jonathanwahrer/Desktop/Msc/3_Semester/Drug_Design_Praktikum/waehrer_HTS_screening/HTS_experiment/out/docking_results/vina_output/3elj/2282_docked.pdbqt
 OpenBabel03192218563D

 31 34  0  0  1  0  0  0  0  0999 V2000
   23.3680   12.1480   30.4560 N   0  0  0  0  0  0  0  0  0  0  0  0
   23.9940   13.0440   31.3980 C   0  0  0  0  0  2  0  0  0  0  0  0
   22.9590   13.9140   32.0400 C   0  0  0  0  0  2  0  0  0  0  0  0
   21.6690   13.3710   31.6970 N   0  0  0  0  0  0  0  0  0  0  0  0
   21.4300   13.5920   30.3170 C   0  0  0  0  0  2  0  0  0  0  0  0
   22.3790   12.6690   29.5460 C   0  0  0  0  0  2  0  0  0  0  0  0
   23.6890   10.7670   30.3830 C   0  0  0  0  0  0  0  0  0  0  0  0
   24.8670   10.3150   29.7950 C   0  0  0  0  0  0  0  0  0  0  0  0
   25.9440   11.5260   29.1330 Cl  0  0  0  0  0  0  0  0  0  0  0  0
   25.1580    8.9660   29.7440 C   0  0  0  0  0  0  0  0  0  0  0  0
   24.3230    8.0420   30.2560 N   0  0  0  0  0  0  0  0  0  0  0  0
   26.2280    8.5610   29.2090 O   0  0  0  0  0  0  0  0  0  0  0  0
   23.2110    8.4910   30.8100 N   0  0  0  0  0  0  0  0  0  0  0  0
   22.8650    9.7880   30.8940 C   0  0  0  0  0  3  0  0  0  0  0  0
   24.6280    6.6420   30.2050 C   0  0  0  0  0  0  0  0  0  0  0  0
   24.4370    5.8530   31.3170 C   0  0  0  0  0  3  0  0  0  0  0  0
   24.7300    4.4850   31.2790 C   0  0  0  0  0  3  0  0  0  0  0  0
   25.2150    3.8890   30.1370 C   0  0  0  0  0  3  0  0  0  0  0  0
   25.4090    4.6710   29.0200 C   0  0  0  0  0  3  0  0  0  0  0  0
   25.1140    6.0300   29.0700 C   0  0  0  0  0  3  0  0  0  0  0  0
   20.6250   13.6110   32.6110 C   0  0  0  0  0  2  0  0  0  0  0  0
   19.8750   12.4170   33.0170 C   0  0  0  0  0  0  0  0  0  0  0  0
   18.6210   12.5780   33.1970 O   0  0  0  0  0  0  0  0  0  0  0  0
   20.4090   11.1220   33.2210 N   0  0  0  0  0  0  0  0  0  0  0  0
   21.4290   10.9930   33.0630 H   0  0  0  0  0  0  0  0  0  0  0  0
   19.6300    9.9770   33.6200 C   0  0  0  0  0  2  0  0  0  0  0  0
   19.8330    8.8660   32.6360 C   0  0  1  0  0  3  0  0  0  0  0  0
   20.7730    7.9960   33.1200 O   0  0  0  0  0  0  0  0  0  0  0  0
   20.2670    6.7280   33.2090 C   0  0  0  0  0  2  0  0  0  0  0  0
   19.2070    6.6980   32.1290 C   0  0  0  0  0  2  0  0  0  0  0  0
   18.5590    8.0630   32.4190 C   0  0  0  0  0  2  0  0  0  0  0  0
  1  2  1  0  0  0  0
  2  3  1  0  0  0  0
  4  3  1  0  0  0  0
  4 21  1  0  0  0  0
  5  4  1  0  0  0  0
  6  5  1  0  0  0  0
  6  1  1  0  0  0  0
  7  1  1  0  0  0  0
  7 14  1  0  0  0  0
  8  7  2  0  0  0  0
  9  8  1  0  0  0  0
 10  8  1  0  0  0  0
 10 11  1  0  0  0  0
 11 13  1  0  0  0  0
 12 10  2  0  0  0  0
 13 14  2  0  0  0  0
 15 11  1  0  0  0  0
 15 16  1  0  0  0  0
 17 16  2  0  0  0  0
 18 17  1  0  0  0  0
 19 20  1  0  0  0  0
 19 18  2  0  0  0  0
 20 15  2  0  0  0  0
 21 22  1  0  0  0  0
 22 23  2  0  0  0  0
 22 24  1  0  0  0  0
 24 26  1  0  0  0  0
 25 24  1  0  0  0  0
 27 28  1  0  0  0  0
 27 26  1  1  0  0  0
 28 29  1  0  0  0  0
 30 31  1  0  0  0  0
 30 29  1  0  0  0  0
 31 27  1  0  0  0  0
M  END
>  <Pose>
1

>  <Score>
-8.117

$$$$
