/Users/jonathanwahrer/Desktop/Msc/3_Semester/Drug_Design_Praktikum/waehrer_HTS_screening/HTS_experiment/out/docking_results/vina_output/3elj/2284_docked.pdbqt
 OpenBabel03192218573D

 33 37  0  0  0  0  0  0  0  0999 V2000
   26.5670    5.9210   28.9000 C   0  0  0  0  0  0  0  0  0  0  0  0
   26.2940    4.9870   29.8800 C   0  0  0  0  0  3  0  0  0  0  0  0
   25.2060    5.0260   30.7130 C   0  0  0  0  0  0  0  0  0  0  0  0
   25.0610    4.1040   31.5810 O   0  0  0  0  0  0  0  0  0  0  0  0
   24.3050    6.0470   30.5960 N   0  0  0  0  0  0  0  0  0  0  0  0
   23.2580    6.1990   31.3050 N   0  0  0  0  0  0  0  0  0  0  0  0
   22.4400    7.1960   31.1390 C   0  0  0  0  0  0  0  0  0  0  0  0
   23.2370    8.0110   29.8410 S   0  0  0  0  0  0  0  0  0  0  0  0
   24.5710    6.9480   29.6490 C   0  0  0  0  0  0  0  0  0  0  0  0
   25.6450    6.9060   28.8300 N   0  0  0  0  0  0  0  0  0  0  0  0
   27.7600    5.8320   28.0250 C   0  0  0  0  0  2  0  0  0  0  0  0
   27.9960    7.1120   27.4380 N   0  0  0  0  0  0  0  0  0  0  0  0
   28.2110    7.1400   26.0460 C   0  0  0  0  0  2  0  0  0  0  0  0
   28.0040    8.5740   25.5470 C   0  0  0  0  0  2  0  0  0  0  0  0
   28.7460    9.4770   26.3120 N   0  0  0  0  0  0  0  0  0  0  0  0
   29.6060    8.8790   27.2450 C   0  0  0  0  0  2  0  0  0  0  0  0
   28.8230    7.9850   28.1800 C   0  0  0  0  0  2  0  0  0  0  0  0
   28.2740   11.0590   26.4840 S   0  0  0  0  0  0  0  0  0  0  0  0
   27.5810   11.5020   25.2000 O   0  0  0  0  0  0  0  0  0  0  0  0
   29.4290   11.9800   26.7800 O   0  0  0  0  0  0  0  0  0  0  0  0
   27.0700   11.2270   27.7420 C   0  0  0  0  0  0  0  0  0  0  0  0
   25.7510   11.5240   27.5750 N   0  0  0  0  0  0  0  0  0  0  0  0
   25.1360   11.5750   28.7570 C   0  0  0  0  0  3  0  0  0  0  0  0
   26.0170   11.3160   29.7320 N   0  0  0  0  0  0  0  0  0  0  0  0
   27.2060   11.1020   29.1040 C   0  0  0  0  0  3  0  0  0  0  0  0
   25.8290   11.2860   30.7480 H   0  0  0  0  0  0  0  0  0  0  0  0
   21.1970    7.5700   31.8240 C   0  0  0  0  0  0  0  0  0  0  0  0
   20.2520    6.5940   32.0580 C   0  0  0  0  0  3  0  0  0  0  0  0
   19.0560    6.8840   32.7000 C   0  0  0  0  0  3  0  0  0  0  0  0
   18.7980    8.1730   33.1190 C   0  0  0  0  0  0  0  0  0  0  0  0
   19.7320    9.1690   32.8940 C   0  0  0  0  0  3  0  0  0  0  0  0
   17.3080    8.5490   33.9230 Cl  0  0  0  0  0  0  0  0  0  0  0  0
   20.9020    8.8340   32.2530 C   0  0  0  0  0  3  0  0  0  0  0  0
  1  2  2  0  0  0  0
  2  3  1  0  0  0  0
  3  4  2  0  0  0  0
  5  3  1  0  0  0  0
  5  6  1  0  0  0  0
  7  6  2  0  0  0  0
  7 27  1  0  0  0  0
  8  7  1  0  0  0  0
  9  8  1  0  0  0  0
  9  5  1  0  0  0  0
 10  1  1  0  0  0  0
 10  9  2  0  0  0  0
 11  1  1  0  0  0  0
 12 11  1  0  0  0  0
 12 17  1  0  0  0  0
 13 12  1  0  0  0  0
 14 13  1  0  0  0  0
 14 15  1  0  0  0  0
 15 18  1  0  0  0  0
 15 16  1  0  0  0  0
 16 17  1  0  0  0  0
 18 20  2  0  0  0  0
 18 21  1  0  0  0  0
 19 18  2  0  0  0  0
 21 25  2  0  0  0  0
 22 21  1  0  0  0  0
 22 23  2  0  0  0  0
 23 24  1  0  0  0  0
 24 26  1  0  0  0  0
 25 24  1  0  0  0  0
 27 28  2  0  0  0  0
 27 33  1  0  0  0  0
 28 29  1  0  0  0  0
 29 30  2  0  0  0  0
 30 32  1  0  0  0  0
 31 30  1  0  0  0  0
 33 31  2  0  0  0  0
M  END
>  <Pose>
1

>  <Score>
-8.809

$$$$
