/Users/jonathanwahrer/Desktop/Msc/3_Semester/Drug_Design_Praktikum/waehrer_HTS_screening/HTS_experiment/out/docking_results/vina_output/3elj/2285_docked.pdbqt
 OpenBabel03192218573D

 32 35  0  0  0  0  0  0  0  0999 V2000
   23.9890    9.3030   29.3980 N   0  0  0  0  0  0  0  0  0  0  0  0
   22.9140   10.1170   29.8810 C   0  0  0  0  0  2  0  0  0  0  0  0
   22.8470   11.5160   29.2410 C   0  0  0  0  0  2  0  0  0  0  0  0
   24.1250   12.1210   29.4550 N   0  0  0  0  0  0  0  0  0  0  0  0
   25.0890   11.4050   28.6660 C   0  0  0  0  0  2  0  0  0  0  0  0
   25.2660   10.1010   29.3940 C   0  0  0  0  0  2  0  0  0  0  0  0
   24.3010    8.1140   30.6840 S   0  0  0  0  0  0  0  0  0  0  0  0
   25.1820    7.0350   30.0830 O   0  0  0  0  0  0  0  0  0  0  0  0
   25.0240    8.7940   31.7910 O   0  0  0  0  0  0  0  0  0  0  0  0
   22.8500    7.3910   31.2590 C   0  0  0  0  0  0  0  0  0  0  0  0
   22.0260    8.2330   32.0180 C   0  0  0  0  0  3  0  0  0  0  0  0
   20.7660    7.8560   32.4900 C   0  0  0  0  0  0  0  0  0  0  0  0
   20.3090    6.5770   32.1860 C   0  0  0  0  0  0  0  0  0  0  0  0
   19.9820    8.7140   33.2410 O   0  0  0  0  0  0  0  0  0  0  0  0
   21.1370    5.7550   31.4420 C   0  0  0  0  0  3  0  0  0  0  0  0
   19.0540    6.2720   32.6780 O   0  0  0  0  0  0  0  0  0  0  0  0
   22.3860    6.1430   30.9760 C   0  0  0  0  0  3  0  0  0  0  0  0
   18.0520    7.3250   32.6460 C   0  0  0  0  0  2  0  0  0  0  0  0
   18.5880    8.6540   33.0630 C   0  0  0  0  0  2  0  0  0  0  0  0
   24.2010   13.4830   29.6890 C   0  0  0  0  0  2  0  0  0  0  0  0
   23.1960   14.0770   30.5730 C   0  0  0  0  0  0  0  0  0  0  0  0
   23.6120   14.1800   31.8100 O   0  0  0  0  0  0  0  0  0  0  0  0
   21.9330   14.5420   30.3440 N   0  0  0  0  0  0  0  0  0  0  0  0
   21.4310   14.4930   29.3960 H   0  0  0  0  0  0  0  0  0  0  0  0
   21.0960   15.2190   31.3370 C   0  0  0  0  0  2  0  0  0  0  0  0
   20.1370   14.2470   31.9010 C   0  0  0  0  0  0  0  0  0  0  0  0
   18.7500   14.3680   31.6560 C   0  0  0  0  0  0  0  0  0  0  0  0
   17.8340   13.5930   32.2570 C   0  0  0  0  0  3  0  0  0  0  0  0
   18.2160   15.5960   30.4810 Cl  0  0  0  0  0  0  0  0  0  0  0  0
   18.2370   12.5860   33.1890 C   0  0  0  0  0  3  0  0  0  0  0  0
   19.5440   12.4650   33.4390 C   0  0  0  0  0  3  0  0  0  0  0  0
   20.5210   13.2630   32.8300 C   0  0  0  0  0  3  0  0  0  0  0  0
  1  2  1  0  0  0  0
  1  7  1  0  0  0  0
  3  4  1  0  0  0  0
  3  2  1  0  0  0  0
  4 20  1  0  0  0  0
  5  6  1  0  0  0  0
  5  4  1  0  0  0  0
  6  1  1  0  0  0  0
  7 10  1  0  0  0  0
  7  9  2  0  0  0  0
  8  7  2  0  0  0  0
 10 11  1  0  0  0  0
 11 12  2  0  0  0  0
 12 14  1  0  0  0  0
 13 12  1  0  0  0  0
 13 16  1  0  0  0  0
 15 13  2  0  0  0  0
 17 10  2  0  0  0  0
 17 15  1  0  0  0  0
 18 16  1  0  0  0  0
 18 19  1  0  0  0  0
 19 14  1  0  0  0  0
 20 21  1  0  0  0  0
 21 22  2  0  0  0  0
 23 21  1  0  0  0  0
 23 25  1  0  0  0  0
 24 23  1  0  0  0  0
 25 26  1  0  0  0  0
 26 32  1  0  0  0  0
 27 26  2  0  0  0  0
 27 28  1  0  0  0  0
 28 30  2  0  0  0  0
 29 27  1  0  0  0  0
 30 31  1  0  0  0  0
 32 31  2  0  0  0  0
M  END
>  <Pose>
1

>  <Score>
-9.227

$$$$
