/Users/jonathanwahrer/Desktop/Msc/3_Semester/Drug_Design_Praktikum/waehrer_HTS_screening/HTS_experiment/out/docking_results/vina_output/3elj/2286_docked.pdbqt
 OpenBabel03192218573D

 31 34  0  0  0  0  0  0  0  0999 V2000
   27.9790    4.2830   28.2820 N   0  0  0  0  0  0  0  0  0  0  0  0
   28.6090    4.6430   27.0640 C   0  0  0  0  0  2  0  0  0  0  0  0
   28.4040    6.0800   26.6640 C   0  0  0  0  0  2  0  0  0  0  0  0
   28.4550    6.9770   27.8000 N   0  0  0  0  0  0  0  0  0  0  0  0
   28.9440    6.4080   29.0420 C   0  0  0  0  0  2  0  0  0  0  0  0
   28.2190    5.1320   29.3940 C   0  0  0  0  0  2  0  0  0  0  0  0
   28.0440    8.3070   27.6550 C   0  0  0  0  0  0  0  0  0  0  0  0
   27.6380    8.7020   26.5360 O   0  0  0  0  0  0  0  0  0  0  0  0
   28.0720    9.2770   28.7800 C   0  0  0  0  0  2  0  0  0  0  0  0
   26.7570    9.7320   29.1360 N   0  0  0  0  0  0  0  0  0  0  0  0
   26.2790   11.0520   28.9240 C   0  0  0  0  0  0  0  0  0  0  0  0
   26.9580   11.9940   28.3930 O   0  0  0  0  0  0  0  0  0  0  0  0
   24.9400   11.2040   29.3780 N   0  0  0  0  0  0  0  0  0  0  0  0
   24.6090    9.9980   30.1150 C   0  0  0  0  0  0  0  0  0  0  0  0
   24.0830   12.3630   29.1340 C   0  0  0  0  0  1  0  0  0  0  0  0
   23.2930    9.4150   29.6900 C   0  0  0  0  0  2  0  0  0  0  0  0
   24.6580   10.3500   31.5830 C   0  0  0  0  0  2  0  0  0  0  0  0
   25.6770    9.0360   29.7430 C   0  0  0  0  0  0  0  0  0  0  0  0
   22.1090   10.0220   30.3830 C   0  0  0  0  0  2  0  0  0  0  0  0
   22.2460   10.0780   31.8760 C   0  0  0  0  0  2  0  0  0  0  0  0
   23.5980    9.5920   32.3520 C   0  0  0  0  0  2  0  0  0  0  0  0
   25.6660    7.7950   29.9220 O   0  0  0  0  0  0  0  0  0  0  0  0
   26.3540    3.7700   28.1280 S   0  0  0  0  0  0  0  0  0  0  0  0
   26.3220    2.4170   27.4850 O   0  0  0  0  0  0  0  0  0  0  0  0
   25.5620    4.7120   27.2700 O   0  0  0  0  0  0  0  0  0  0  0  0
   25.5370    3.7110   29.6990 C   0  0  0  0  0  0  0  0  0  0  0  0
   25.7590    2.6070   30.9710 S   0  0  0  0  0  0  0  0  0  0  0  0
   24.6280    3.2290   32.0780 C   0  0  0  0  0  0  0  0  0  0  0  0
   24.0950    4.3030   31.4170 C   0  0  0  0  0  3  0  0  0  0  0  0
   24.2120    2.6530   33.7070 Cl  0  0  0  0  0  0  0  0  0  0  0  0
   24.5700    4.5540   30.1750 C   0  0  0  0  0  3  0  0  0  0  0  0
  1  6  1  0  0  0  0
  2  1  1  0  0  0  0
  3  2  1  0  0  0  0
  3  4  1  0  0  0  0
  4  5  1  0  0  0  0
  5  6  1  0  0  0  0
  7  4  1  0  0  0  0
  7  9  1  0  0  0  0
  8  7  2  0  0  0  0
  9 10  1  0  0  0  0
 10 18  1  0  0  0  0
 11 10  1  0  0  0  0
 11 13  1  0  0  0  0
 12 11  2  0  0  0  0
 13 14  1  0  0  0  0
 14 17  1  0  0  0  0
 15 13  1  0  0  0  0
 16 14  1  0  0  0  0
 16 19  1  0  0  0  0
 17 21  1  0  0  0  0
 18 22  2  0  0  0  0
 18 14  1  0  0  0  0
 19 20  1  0  0  0  0
 20 21  1  0  0  0  0
 23  1  1  0  0  0  0
 23 26  1  0  0  0  0
 24 23  2  0  0  0  0
 25 23  2  0  0  0  0
 26 31  2  0  0  0  0
 26 27  1  0  0  0  0
 27 28  1  0  0  0  0
 28 30  1  0  0  0  0
 29 28  2  0  0  0  0
 31 29  1  0  0  0  0
M  END
>  <Pose>
1

>  <Score>
-7.568

$$$$
