/Users/jonathanwahrer/Desktop/Msc/3_Semester/Drug_Design_Praktikum/waehrer_HTS_screening/HTS_experiment/out/docking_results/vina_output/3elj/2298_docked.pdbqt
 OpenBabel03192218583D

 34 37  0  0  0  0  0  0  0  0999 V2000
   24.2720   10.1300   31.4740 C   0  0  0  0  0  2  0  0  0  0  0  0
   24.6880    9.2300   30.4380 N   0  0  0  0  0  0  0  0  0  0  0  0
   25.2080    7.9980   30.9120 C   0  0  0  0  0  2  0  0  0  0  0  0
   24.4720    6.7620   30.4690 C   0  0  0  0  0  2  0  0  0  0  0  0
   23.1090    6.9440   30.5670 N   0  0  0  0  0  0  0  0  0  0  0  0
   22.5830    8.1110   30.0020 C   0  0  0  0  0  2  0  0  0  0  0  0
   23.6730    9.0270   29.4540 C   0  0  0  0  0  2  0  0  0  0  0  0
   22.0900    5.8640   31.3130 S   0  0  0  0  0  0  0  0  0  0  0  0
   21.4780    4.8560   30.3720 O   0  0  0  0  0  0  0  0  0  0  0  0
   22.7440    5.0490   32.4060 O   0  0  0  0  0  0  0  0  0  0  0  0
   20.7350    6.7230   32.0390 C   0  0  0  0  0  0  0  0  0  0  0  0
   20.8150    8.0560   32.3320 C   0  0  0  0  0  3  0  0  0  0  0  0
   19.7630    8.7300   32.8970 C   0  0  0  0  0  3  0  0  0  0  0  0
   18.6030    8.0410   33.1740 C   0  0  0  0  0  0  0  0  0  0  0  0
   18.5180    6.6930   32.8790 C   0  0  0  0  0  3  0  0  0  0  0  0
   17.2750    8.9310   33.8960 Cl  0  0  0  0  0  0  0  0  0  0  0  0
   19.5770    6.0300   32.3130 C   0  0  0  0  0  3  0  0  0  0  0  0
   23.5530   11.3190   30.9020 C   0  0  0  0  0  0  0  0  0  0  0  0
   24.1610   11.9830   30.0350 O   0  0  0  0  0  0  0  0  0  0  0  0
   22.2470   11.6660   31.3280 N   0  0  0  0  0  0  0  0  0  0  0  0
   21.7900   11.0610   32.0620 H   0  0  0  0  0  0  0  0  0  0  0  0
   21.6370   12.8180   30.7290 C   0  0  0  0  0  2  0  0  0  0  0  0
   20.8410   13.6890   31.6210 C   0  0  0  0  0  0  0  0  0  0  0  0
   20.5840   12.9730   32.9250 C   0  0  0  0  0  2  0  0  0  0  0  0
   19.2710   12.1840   32.9020 C   0  0  0  0  0  2  0  0  0  0  0  0
   18.0910   13.1340   32.8430 C   0  0  0  0  0  2  0  0  0  0  0  0
   18.5330   14.3540   32.0570 C   0  0  0  0  0  2  0  0  0  0  0  0
   19.4530   13.8410   30.9690 C   0  0  0  0  0  2  0  0  0  0  0  0
   21.3090   14.9990   31.8630 N   0  0  0  0  0  0  0  0  0  0  0  0
   22.6160   15.1630   32.3940 C   0  0  0  0  0  2  0  0  0  0  0  0
   22.6690   16.5980   32.9500 C   0  0  0  0  0  2  0  0  0  0  0  0
   22.5010   17.5050   31.9320 O   0  0  0  0  0  0  0  0  0  0  0  0
   22.2860   16.9420   30.6990 C   0  0  0  0  0  2  0  0  0  0  0  0
   21.1740   15.8930   30.7330 C   0  0  0  0  0  2  0  0  0  0  0  0
  2  3  1  0  0  0  0
  2  1  1  0  0  0  0
  4  5  1  0  0  0  0
  4  3  1  0  0  0  0
  5  8  1  0  0  0  0
  6  5  1  0  0  0  0
  7  6  1  0  0  0  0
  7  2  1  0  0  0  0
  8 11  1  0  0  0  0
  8 10  2  0  0  0  0
  9  8  2  0  0  0  0
 11 17  2  0  0  0  0
 11 12  1  0  0  0  0
 12 13  2  0  0  0  0
 13 14  1  0  0  0  0
 14 16  1  0  0  0  0
 15 14  2  0  0  0  0
 17 15  1  0  0  0  0
 18 20  1  0  0  0  0
 18  1  1  0  0  0  0
 19 18  2  0  0  0  0
 20 21  1  0  0  0  0
 22 20  1  0  0  0  0
 22 23  1  0  0  0  0
 23 29  1  0  0  0  0
 23 24  1  0  0  0  0
 25 24  1  0  0  0  0
 26 25  1  0  0  0  0
 27 26  1  0  0  0  0
 28 23  1  0  0  0  0
 28 27  1  0  0  0  0
 29 30  1  0  0  0  0
 30 31  1  0  0  0  0
 32 31  1  0  0  0  0
 33 34  1  0  0  0  0
 33 32  1  0  0  0  0
 34 29  1  0  0  0  0
M  END
>  <Pose>
1

>  <Score>
-8.748

$$$$
