/Users/jonathanwahrer/Desktop/Msc/3_Semester/Drug_Design_Praktikum/waehrer_HTS_screening/HTS_experiment/out/docking_results/vina_output/3elj/2301_docked.pdbqt
 OpenBabel03192218583D

 24 27  0  0  1  0  0  0  0  0999 V2000
   24.0550   10.6350   31.5000 C   0  0  2  0  0  0  0  0  0  0  0  0
   23.1070   11.7800   31.6410 C   0  0  0  0  0  2  0  0  0  0  0  0
   22.4300   12.0890   30.2940 C   0  0  0  0  0  2  0  0  0  0  0  0
   23.5570   12.5340   29.4610 N   0  0  0  0  0  0  0  0  0  0  0  0
   24.5180   11.5180   29.1730 C   0  0  0  0  0  2  0  0  0  0  0  0
   25.0270   10.8060   30.3930 C   0  0  0  0  0  2  0  0  0  0  0  0
   23.3020    9.3700   31.4900 C   0  0  0  0  0  0  0  0  0  0  0  0
   23.6230    8.2560   30.7700 C   0  0  0  0  0  3  0  0  0  0  0  0
   22.8290    7.1460   30.8560 C   0  0  0  0  0  3  0  0  0  0  0  0
   21.6900    7.0710   31.6470 C   0  0  0  0  0  0  0  0  0  0  0  0
   20.7100    5.6220   31.7340 Cl  0  0  0  0  0  0  0  0  0  0  0  0
   21.3730    8.1950   32.3670 C   0  0  0  0  0  3  0  0  0  0  0  0
   22.1620    9.3270   32.2920 C   0  0  0  0  0  3  0  0  0  0  0  0
   24.7950   10.6020   32.7090 O   0  0  0  0  0  0  0  0  0  0  0  0
   25.1110    9.6530   32.8250 H   0  0  0  0  0  0  0  0  0  0  0  0
   23.5960   13.8820   29.0310 C   0  0  0  0  0  0  0  0  0  0  0  0
   22.8280   14.7970   29.6470 N   0  0  0  0  0  0  0  0  0  0  0  0
   22.7840   16.0810   29.3470 N   0  0  0  0  0  0  0  0  0  0  0  0
   22.1180   17.1390   29.8150 N   0  0  0  0  0  0  0  0  0  0  0  0
   23.5470   16.5460   28.3600 C   0  0  0  0  0  0  0  0  0  0  0  0
   22.4470   18.2240   29.1500 N   0  0  0  0  0  0  0  0  0  0  0  0
   23.3270   17.8790   28.2510 N   0  0  0  0  0  0  0  0  0  0  0  0
   24.3660   15.6620   27.6780 C   0  0  0  0  0  3  0  0  0  0  0  0
   24.3980   14.3230   28.0050 C   0  0  0  0  0  3  0  0  0  0  0  0
  1  2  1  0  0  0  0
  1 14  1  1  0  0  0
  3  2  1  0  0  0  0
  4  3  1  0  0  0  0
  5  4  1  0  0  0  0
  5  6  1  0  0  0  0
  6  1  1  0  0  0  0
  7  1  1  0  0  0  0
  7 13  1  0  0  0  0
  8  9  1  0  0  0  0
  8  7  2  0  0  0  0
  9 10  2  0  0  0  0
 10 11  1  0  0  0  0
 10 12  1  0  0  0  0
 13 12  2  0  0  0  0
 14 15  1  0  0  0  0
 16  4  1  0  0  0  0
 16 17  2  0  0  0  0
 18 17  1  0  0  0  0
 18 19  1  0  0  0  0
 20 18  1  0  0  0  0
 21 19  2  0  0  0  0
 22 20  2  0  0  0  0
 22 21  1  0  0  0  0
 23 24  2  0  0  0  0
 23 20  1  0  0  0  0
 24 16  1  0  0  0  0
M  END
>  <Pose>
1

>  <Score>
-8.559

$$$$
