/Users/jonathanwahrer/Desktop/Msc/3_Semester/Drug_Design_Praktikum/waehrer_HTS_screening/HTS_experiment/out/docking_results/vina_output/3elj/2304_docked.pdbqt
 OpenBabel03192218583D

 28 31  0  0  1  0  0  0  0  0999 V2000
   24.1960    9.9330   31.1680 N   0  0  0  0  0  0  0  0  0  0  0  0
   25.2110   10.2200   30.2270 C   0  0  0  0  0  2  0  0  0  0  0  0
   26.1120    9.0620   29.8900 C   0  0  0  0  0  2  0  0  0  0  0  0
   25.4010    7.8260   29.7140 N   0  0  0  0  0  0  0  0  0  0  0  0
   24.0240    7.7990   30.1390 C   0  0  0  0  0  2  0  0  0  0  0  0
   23.9560    8.5620   31.4580 C   0  0  0  0  0  2  0  0  0  0  0  0
   26.0500    6.7120   29.1570 C   0  0  0  0  0  0  0  0  0  0  0  0
   27.2640    6.8510   28.8350 O   0  0  0  0  0  0  0  0  0  0  0  0
   25.4000    5.3930   28.9260 C   0  0  2  0  0  3  0  0  0  0  0  0
   25.5080    4.5460   30.0570 N   0  0  0  0  0  0  0  0  0  0  0  0
   26.6580    3.7040   30.1160 C   0  0  2  0  0  0  0  0  0  0  0  0
   24.7680    4.2460   31.2630 C   0  0  0  0  0  0  0  0  0  0  0  0
   27.0020    3.3770   28.3750 S   0  0  0  0  0  0  0  0  0  0  0  0
   26.1040    2.4230   30.7100 C   0  0  0  0  0  2  0  0  0  0  0  0
   27.8140    4.2240   30.8720 C   0  0  0  0  0  1  0  0  0  0  0  0
   25.9240    4.7030   27.7020 C   0  0  0  0  0  2  0  0  0  0  0  0
   25.2980    3.0260   31.8680 C   0  0  0  0  0  2  0  0  0  0  0  0
   23.8060    4.9100   31.7520 O   0  0  0  0  0  0  0  0  0  0  0  0
   22.8210   10.9230   31.0960 S   0  0  0  0  0  0  0  0  0  0  0  0
   23.1130   12.2880   31.6360 O   0  0  0  0  0  0  0  0  0  0  0  0
   22.4390   11.1030   29.6480 O   0  0  0  0  0  0  0  0  0  0  0  0
   21.4210   10.2160   31.8990 C   0  0  0  0  0  0  0  0  0  0  0  0
   20.6910   10.9500   32.8060 C   0  0  0  0  0  3  0  0  0  0  0  0
   19.5940   10.4290   33.4510 C   0  0  0  0  0  3  0  0  0  0  0  0
   19.1720    9.1330   33.2160 C   0  0  0  0  0  0  0  0  0  0  0  0
   19.9260    8.4200   32.2990 C   0  0  0  0  0  3  0  0  0  0  0  0
   17.7800    8.4360   34.0200 Cl  0  0  0  0  0  0  0  0  0  0  0  0
   21.0220    8.9280   31.6480 C   0  0  0  0  0  3  0  0  0  0  0  0
  1  6  1  0  0  0  0
  2  1  1  0  0  0  0
  3  2  1  0  0  0  0
  4  3  1  0  0  0  0
  4  5  1  0  0  0  0
  5  6  1  0  0  0  0
  7  4  1  0  0  0  0
  8  7  2  0  0  0  0
  9  7  1  1  0  0  0
  9 10  1  0  0  0  0
 10 11  1  0  0  0  0
 10 12  1  0  0  0  0
 11 14  1  0  0  0  0
 11 15  1  1  0  0  0
 12 18  2  0  0  0  0
 12 17  1  0  0  0  0
 13 11  1  0  0  0  0
 14 17  1  0  0  0  0
 16 13  1  0  0  0  0
 16  9  1  0  0  0  0
 19  1  1  0  0  0  0
 19 20  2  0  0  0  0
 19 22  1  0  0  0  0
 21 19  2  0  0  0  0
 22 23  1  0  0  0  0
 23 24  2  0  0  0  0
 25 24  1  0  0  0  0
 25 27  1  0  0  0  0
 26 25  2  0  0  0  0
 28 22  2  0  0  0  0
 28 26  1  0  0  0  0
M  END
>  <Pose>
1

>  <Score>
-8.178

$$$$
