/Users/jonathanwahrer/Desktop/Msc/3_Semester/Drug_Design_Praktikum/waehrer_HTS_screening/HTS_experiment/out/docking_results/vina_output/3elj/2319_docked.pdbqt
 OpenBabel03192218583D

 33 36  0  0  0  0  0  0  0  0999 V2000
   25.3700    8.9820   30.9540 N   0  0  0  0  0  0  0  0  0  0  0  0
   25.8830    9.4280   29.7150 C   0  0  0  0  0  0  0  0  0  0  0  0
   25.3200   10.3520   29.0920 O   0  0  0  0  0  0  0  0  0  0  0  0
   25.7870    8.2180   31.5270 H   0  0  0  0  0  0  0  0  0  0  0  0
   27.1050    8.8280   29.0930 C   0  0  0  0  0  2  0  0  0  0  0  0
   27.0770    7.3920   29.1260 N   0  0  0  0  0  0  0  0  0  0  0  0
   27.2330    6.5890   27.9640 C   0  0  0  0  0  0  0  0  0  0  0  0
   27.4040    7.1620   26.8660 O   0  0  0  0  0  0  0  0  0  0  0  0
   26.9380    6.8720   30.0240 H   0  0  0  0  0  0  0  0  0  0  0  0
   27.2030    5.0960   27.9820 C   0  0  0  0  0  0  0  0  0  0  0  0
   26.1040    4.6050   28.6910 O   0  0  0  0  0  0  0  0  0  0  0  0
   26.1750    3.9600   29.9240 C   0  0  0  0  0  0  0  0  0  0  0  0
   27.3930    3.4520   30.2900 C   0  0  0  0  0  0  0  0  0  0  0  0
   25.1020    3.8200   30.7530 C   0  0  0  0  0  3  0  0  0  0  0  0
   27.4930    2.7990   31.5190 C   0  0  0  0  0  3  0  0  0  0  0  0
   28.4670    3.5940   29.4540 O   0  0  0  0  0  0  0  0  0  0  0  0
   26.4190    2.6510   32.3660 C   0  0  0  0  0  3  0  0  0  0  0  0
   25.2070    3.1760   31.9630 C   0  0  0  0  0  3  0  0  0  0  0  0
   28.5060    4.5030   28.3890 C   0  0  0  0  0  3  0  0  0  0  0  0
   24.2210    9.6040   31.4510 N   0  0  0  0  0  0  0  0  0  0  0  0
   23.1210    8.9770   31.6440 C   0  0  0  0  0  0  0  0  0  0  0  0
   21.8420    9.4560   32.1470 C   0  0  0  0  0  0  0  0  0  0  0  0
   22.9290    7.5490   31.3720 C   0  0  0  0  0  0  0  0  0  0  0  0
   20.9120    8.4330   32.1960 C   0  0  0  0  0  0  0  0  0  0  0  0
   21.4130   10.6980   32.5630 C   0  0  0  0  0  3  0  0  0  0  0  0
   19.6190    8.6340   32.6360 C   0  0  0  0  0  0  0  0  0  0  0  0
   21.5870    7.2730   31.7210 N   0  0  0  0  0  0  0  0  0  0  0  0
   18.3430    7.2090   32.6950 Br  0  0  0  0  0  0  0  0  0  0  0  0
   19.2130    9.9020   33.0520 C   0  0  0  0  0  3  0  0  0  0  0  0
   20.1330   10.9370   33.0100 C   0  0  0  0  0  0  0  0  0  0  0  0
   19.6010   12.6850   33.5730 Br  0  0  0  0  0  0  0  0  0  0  0  0
   21.1450    6.3420   31.6410 H   0  0  0  0  0  0  0  0  0  0  0  0
   23.8300    6.7920   30.9210 O   0  0  0  0  0  0  0  0  0  0  0  0
  1 20  1  0  0  0  0
  1  4  1  0  0  0  0
  2  1  1  0  0  0  0
  3  2  2  0  0  0  0
  5  6  1  0  0  0  0
  5  2  1  0  0  0  0
  6  9  1  0  0  0  0
  7 10  1  0  0  0  0
  7  6  1  0  0  0  0
  8  7  2  0  0  0  0
 10 19  2  0  0  0  0
 10 11  1  0  0  0  0
 11 12  1  0  0  0  0
 12 13  2  0  0  0  0
 12 14  1  0  0  0  0
 13 15  1  0  0  0  0
 14 18  2  0  0  0  0
 15 17  2  0  0  0  0
 16 13  1  0  0  0  0
 18 17  1  0  0  0  0
 19 16  1  0  0  0  0
 20 21  2  0  0  0  0
 21 22  1  0  0  0  0
 22 24  2  0  0  0  0
 22 25  1  0  0  0  0
 23 21  1  0  0  0  0
 23 27  1  0  0  0  0
 24 26  1  0  0  0  0
 25 30  2  0  0  0  0
 26 28  1  0  0  0  0
 26 29  2  0  0  0  0
 27 24  1  0  0  0  0
 30 29  1  0  0  0  0
 30 31  1  0  0  0  0
 32 27  1  0  0  0  0
 33 23  2  0  0  0  0
M  END
>  <Pose>
1

>  <Score>
-9.043

$$$$
