/Users/jonathanwahrer/Desktop/Msc/3_Semester/Drug_Design_Praktikum/waehrer_HTS_screening/HTS_experiment/out/docking_results/vina_output/3elj/2330_docked.pdbqt
 OpenBabel03192218593D

 28 31  0  0  0  0  0  0  0  0999 V2000
   23.6510   10.4240   31.6720 C   0  0  0  0  0  0  0  0  0  0  0  0
   24.6400   10.5000   32.4360 O   0  0  0  0  0  0  0  0  0  0  0  0
   23.2730   11.5430   30.9280 N   0  0  0  0  0  0  0  0  0  0  0  0
   22.4150   11.3660   30.2930 H   0  0  0  0  0  0  0  0  0  0  0  0
   22.9450    9.1310   31.6120 C   0  0  0  0  0  0  0  0  0  0  0  0
   23.5200    8.0110   31.0470 C   0  0  0  0  0  0  0  0  0  0  0  0
   25.1430    8.1720   30.3930 Cl  0  0  0  0  0  0  0  0  0  0  0  0
   22.8520    6.7890   30.9900 C   0  0  0  0  0  3  0  0  0  0  0  0
   21.5880    6.7050   31.5110 C   0  0  0  0  0  3  0  0  0  0  0  0
   20.9620    7.8110   32.0950 C   0  0  0  0  0  0  0  0  0  0  0  0
   21.6720    8.9830   32.1190 C   0  0  0  0  0  3  0  0  0  0  0  0
   19.6170    7.6780   32.6360 C   0  0  0  0  0  0  0  0  0  0  0  0
   18.8170    6.6080   32.6720 N   0  0  0  0  0  0  0  0  0  0  0  0
   17.6630    6.9460   33.2690 N   0  0  0  0  0  0  0  0  0  0  0  0
   17.7320    8.2210   33.6090 N   0  0  0  0  0  0  0  0  0  0  0  0
   16.8400    6.3250   33.4440 H   0  0  0  0  0  0  0  0  0  0  0  0
   18.9280    8.6700   33.2230 N   0  0  0  0  0  0  0  0  0  0  0  0
   23.8090   12.8410   30.8680 C   0  0  0  0  0  2  0  0  0  0  0  0
   23.2710   13.9240   31.7000 C   0  0  0  0  0  2  0  0  0  0  0  0
   21.8750   14.3260   31.5490 C   0  0  0  0  0  0  0  0  0  0  0  0
   20.7920   13.7280   32.0550 N   0  0  0  0  0  0  0  0  0  0  0  0
   19.7280   14.4390   31.7160 C   0  0  0  0  0  0  0  0  0  0  0  0
   20.6520   12.6090   32.7930 C   0  0  0  0  0  3  0  0  0  0  0  0
   20.1500   15.4850   30.9940 N   0  0  0  0  0  0  0  0  0  0  0  0
   18.4490   14.0820   32.0890 C   0  0  0  0  0  3  0  0  0  0  0  0
   21.4490   15.4130   30.8960 N   0  0  0  0  0  0  0  0  0  0  0  0
   18.3060   12.9340   32.8460 C   0  0  0  0  0  3  0  0  0  0  0  0
   19.4120   12.2050   33.1910 C   0  0  0  0  0  3  0  0  0  0  0  0
  1  2  2  0  0  0  0
  3  1  1  0  0  0  0
  4  3  1  0  0  0  0
  5  1  1  0  0  0  0
  5 11  1  0  0  0  0
  6  5  2  0  0  0  0
  7  6  1  0  0  0  0
  8  6  1  0  0  0  0
  8  9  2  0  0  0  0
  9 10  1  0  0  0  0
 10 11  2  0  0  0  0
 10 12  1  0  0  0  0
 12 13  2  0  0  0  0
 12 17  1  0  0  0  0
 13 14  1  0  0  0  0
 14 16  1  0  0  0  0
 14 15  1  0  0  0  0
 17 15  2  0  0  0  0
 18  3  1  0  0  0  0
 18 19  1  0  0  0  0
 20 19  1  0  0  0  0
 20 21  1  0  0  0  0
 21 23  1  0  0  0  0
 22 21  1  0  0  0  0
 22 25  1  0  0  0  0
 23 28  2  0  0  0  0
 24 22  2  0  0  0  0
 25 27  2  0  0  0  0
 26 24  1  0  0  0  0
 26 20  2  0  0  0  0
 27 28  1  0  0  0  0
M  END
>  <Pose>
1

>  <Score>
-9.208

$$$$
