/Users/jonathanwahrer/Desktop/Msc/3_Semester/Drug_Design_Praktikum/waehrer_HTS_screening/HTS_experiment/out/docking_results/vina_output/3elj/2334_docked.pdbqt
 OpenBabel03192218593D

 30 33  0  0  1  0  0  0  0  0999 V2000
   24.7860    9.3560   30.9550 S   0  0  0  0  0  0  0  0  0  0  0  0
   26.1150    9.0920   30.2420 O   0  0  0  0  0  0  0  0  0  0  0  0
   25.1820    9.5280   32.4260 O   0  0  0  0  0  0  0  0  0  0  0  0
   24.1900   10.8170   30.3380 N   0  0  0  0  0  0  0  0  0  0  0  0
   24.2040   11.9330   31.2150 C   0  0  0  0  0  2  0  0  0  0  0  0
   23.6870   13.2010   30.5760 C   0  0  1  0  0  3  0  0  0  0  0  0
   24.4500   13.5060   29.3320 C   0  0  0  0  0  2  0  0  0  0  0  0
   24.5340   12.2980   28.4140 C   0  0  0  0  0  2  0  0  0  0  0  0
   25.0600   11.1400   29.1880 C   0  0  0  0  0  2  0  0  0  0  0  0
   22.2180   13.2530   30.4360 C   0  0  0  0  0  0  0  0  0  0  0  0
   21.6570   12.1290   30.1580 O   0  0  0  0  0  0  0  0  0  0  0  0
   21.3930   14.3610   30.5730 N   0  0  0  0  0  0  0  0  0  0  0  0
   19.9730   14.2630   30.4480 C   0  0  0  0  0  2  0  0  0  0  0  0
   21.9230   15.6770   30.8340 C   0  0  0  0  0  2  0  0  0  0  0  0
   19.2190   15.1710   31.3800 C   0  0  0  0  0  2  0  0  0  0  0  0
   19.9000   16.2680   31.8070 O   0  0  0  0  0  0  0  0  0  0  0  0
   21.2260   16.0860   32.1420 C   0  0  0  0  0  2  0  0  0  0  0  0
   23.7770    7.9760   30.8370 C   0  0  0  0  0  0  0  0  0  0  0  0
   24.1490    6.8400   30.1620 C   0  0  0  0  0  0  0  0  0  0  0  0
   23.3140    5.7320   30.1580 C   0  0  0  0  0  3  0  0  0  0  0  0
   25.6130    6.7200   29.2100 Cl  0  0  0  0  0  0  0  0  0  0  0  0
   22.0890    5.7420   30.8300 C   0  0  0  0  0  3  0  0  0  0  0  0
   21.7030    6.8750   31.5090 C   0  0  0  0  0  0  0  0  0  0  0  0
   22.5440    7.9630   31.5010 C   0  0  0  0  0  3  0  0  0  0  0  0
   20.4300    6.9130   32.2160 C   0  0  0  0  0  0  0  0  0  0  0  0
   19.8230    5.8730   32.8120 N   0  0  0  0  0  0  0  0  0  0  0  0
   18.6990    6.2620   33.3490 O   0  0  0  0  0  0  0  0  0  0  0  0
   18.5420    7.5400   33.1260 C   0  0  0  0  0  0  0  0  0  0  0  0
   19.6110    7.9570   32.4220 N   0  0  0  0  0  0  0  0  0  0  0  0
   17.3870    8.3970   33.5660 C   0  0  0  0  0  1  0  0  0  0  0  0
  1  3  2  0  0  0  0
  2  1  2  0  0  0  0
  4  1  1  0  0  0  0
  4  5  1  0  0  0  0
  6 10  1  6  0  0  0
  6  5  1  0  0  0  0
  7  6  1  0  0  0  0
  8  9  1  0  0  0  0
  8  7  1  0  0  0  0
  9  4  1  0  0  0  0
 10 12  1  0  0  0  0
 11 10  2  0  0  0  0
 12 14  1  0  0  0  0
 13 12  1  0  0  0  0
 13 15  1  0  0  0  0
 14 17  1  0  0  0  0
 15 16  1  0  0  0  0
 16 17  1  0  0  0  0
 18  1  1  0  0  0  0
 18 24  1  0  0  0  0
 19 18  2  0  0  0  0
 20 19  1  0  0  0  0
 20 22  2  0  0  0  0
 21 19  1  0  0  0  0
 22 23  1  0  0  0  0
 23 25  1  0  0  0  0
 24 23  2  0  0  0  0
 25 29  1  0  0  0  0
 25 26  2  0  0  0  0
 26 27  1  0  0  0  0
 28 27  1  0  0  0  0
 28 30  1  0  0  0  0
 29 28  2  0  0  0  0
M  END
>  <Pose>
1

>  <Score>
-9.225

$$$$
