/Users/jonathanwahrer/Desktop/Msc/3_Semester/Drug_Design_Praktikum/waehrer_HTS_screening/HTS_experiment/out/docking_results/vina_output/3elj/2349_docked.pdbqt
 OpenBabel03192219003D

 28 31  0  0  1  0  0  0  0  0999 V2000
   24.3510    5.2870   30.6590 N   0  0  0  0  0  0  0  0  0  0  0  0
   24.9070    5.7100   29.4050 C   0  0  0  0  0  0  0  0  0  0  0  0
   24.2760    6.5600   28.7160 O   0  0  0  0  0  0  0  0  0  0  0  0
   26.1450    5.1340   29.0290 N   0  0  0  0  0  2  0  0  0  0  0  0
   26.7840    4.2800   29.6980 C   0  0  0  0  0  0  0  0  0  0  0  0
   26.3560    3.7020   31.0190 C   0  0  1  0  0  0  0  0  0  0  0  0
   26.1030    2.2490   30.7310 C   0  0  0  0  0  2  0  0  0  0  0  0
   26.1950    1.3460   31.8120 N   0  0  0  0  0  4  0  0  0  0  0  0
   27.2490    1.5730   32.7280 C   0  0  0  0  0  0  0  0  0  0  0  0
   27.8340    2.7960   32.8030 C   0  0  0  0  0  0  0  0  0  0  0  0
   28.8670    2.9810   33.7180 C   0  0  0  0  0  3  0  0  0  0  0  0
   29.2740    1.9340   34.5200 C   0  0  0  0  0  0  0  0  0  0  0  0
   28.6760    0.6860   34.4410 C   0  0  0  0  0  3  0  0  0  0  0  0
   27.6430    0.5140   33.5220 C   0  0  0  0  0  3  0  0  0  0  0  0
   30.3890    2.0990   35.5060 C   0  0  0  0  0  1  0  0  0  0  0  0
   27.4500    3.9640   31.9810 C   0  0  0  0  0  2  0  0  0  0  0  0
   24.9560    1.1120   32.5390 C   0  0  0  0  0  1  0  0  0  0  0  0
   25.0800    4.3430   31.4210 C   0  0  0  0  0  0  0  0  0  0  0  0
   24.5400    4.0590   32.5500 O   0  0  0  0  0  0  0  0  0  0  0  0
   28.0120    3.7810   29.2250 O   0  0  0  0  0  0  0  0  0  0  0  0
   26.4210    0.3890   31.3900 H   0  0  0  0  0  0  0  0  0  0  0  0
   23.0950    5.8250   31.0230 C   0  0  0  0  0  0  0  0  0  0  0  0
   22.9520    7.1620   31.3970 C   0  0  0  0  0  3  0  0  0  0  0  0
   21.7470    7.7080   31.7480 C   0  0  0  0  0  3  0  0  0  0  0  0
   20.5760    6.9480   31.7530 C   0  0  0  0  0  0  0  0  0  0  0  0
   19.0410    7.6710   32.1970 Cl  0  0  0  0  0  0  0  0  0  0  0  0
   20.7160    5.6250   31.3840 C   0  0  0  0  0  3  0  0  0  0  0  0
   21.9280    5.0800   31.0330 C   0  0  0  0  0  3  0  0  0  0  0  0
  1 22  1  0  0  0  0
  1 18  1  0  0  0  0
  2  1  1  0  0  0  0
  3  2  2  0  0  0  0
  4  2  1  0  0  0  0
  4  5  1  0  0  0  0
  5  6  1  0  0  0  0
  6  7  1  6  0  0  0
  6 18  1  0  0  0  0
  6 16  1  0  0  0  0
  7  8  1  0  0  0  0
  8 17  1  0  0  0  0
  8  9  1  0  0  0  0
  9 10  2  0  0  0  0
  9 14  1  0  0  0  0
 10 11  1  0  0  0  0
 11 12  2  0  0  0  0
 12 15  1  0  0  0  0
 13 12  1  0  0  0  0
 14 13  2  0  0  0  0
 16 10  1  0  0  0  0
 18 19  2  0  0  0  0
 20  5  2  0  0  0  0
 21  8  1  0  0  0  0
 22 28  2  0  0  0  0
 22 23  1  0  0  0  0
 23 24  2  0  0  0  0
 24 25  1  0  0  0  0
 25 26  1  0  0  0  0
 27 25  2  0  0  0  0
 28 27  1  0  0  0  0
M  END
>  <Pose>
1

>  <Score>
-7.052

$$$$
