/Users/jonathanwahrer/Desktop/Msc/3_Semester/Drug_Design_Praktikum/waehrer_HTS_screening/HTS_experiment/out/docking_results/vina_output/3elj/2350_docked.pdbqt
 OpenBabel03192219003D

 23 26  0  0  1  0  0  0  0  0999 V2000
   23.1480    9.5330   31.1020 N   0  0  0  0  0  0  0  0  0  0  0  0
   23.2690    9.9970   29.7480 C   0  0  0  0  0  0  0  0  0  0  0  0
   22.5610    9.5640   28.8040 O   0  0  0  0  0  0  0  0  0  0  0  0
   24.3270   11.0330   29.6400 C   0  0  1  0  0  3  0  0  0  0  0  0
   23.8140   12.3780   29.2400 C   0  0  1  0  0  3  0  0  0  0  0  0
   22.4010   12.4990   29.7720 C   0  0  1  0  0  3  0  0  0  0  0  0
   22.6430   12.4830   31.2800 C   0  0  1  0  0  3  0  0  0  0  0  0
   24.1430   12.5000   31.4620 C   0  0  1  0  0  3  0  0  0  0  0  0
   24.7990   11.2080   31.0890 C   0  0  1  0  0  3  0  0  0  0  0  0
   24.2730   10.0250   31.8120 C   0  0  0  0  0  0  0  0  0  0  0  0
   24.7670    9.5660   32.8710 O   0  0  0  0  0  0  0  0  0  0  0  0
   24.5160   13.3360   30.2170 C   0  0  0  0  0  2  0  0  0  0  0  0
   22.1220    8.7380   31.6820 C   0  0  0  0  0  0  0  0  0  0  0  0
   21.1570    9.3170   32.5150 C   0  0  0  0  0  3  0  0  0  0  0  0
   20.1680    8.5510   33.0840 C   0  0  0  0  0  3  0  0  0  0  0  0
   20.0890    7.1900   32.8570 C   0  0  0  0  0  0  0  0  0  0  0  0
   18.8130    6.2320   33.6030 Cl  0  0  0  0  0  0  0  0  0  0  0  0
   21.0340    6.5920   32.0350 C   0  0  0  0  0  3  0  0  0  0  0  0
   22.0120    7.3820   31.4780 C   0  0  0  0  0  3  0  0  0  0  0  0
   21.9300   13.7510   29.4390 O   0  0  0  0  0  0  0  0  0  0  0  0
   21.1950   14.0850   30.0040 H   0  0  0  0  0  0  0  0  0  0  0  0
   22.1700   13.6520   31.8730 O   0  0  0  0  0  0  0  0  0  0  0  0
   21.1690   13.5840   31.9030 H   0  0  0  0  0  0  0  0  0  0  0  0
  1 13  1  0  0  0  0
  1 10  1  0  0  0  0
  2  1  1  0  0  0  0
  3  2  2  0  0  0  0
  4  2  1  1  0  0  0
  4  9  1  0  0  0  0
  5  4  1  0  0  0  0
  5  6  1  0  0  0  0
  5 12  1  1  0  0  0
  6 20  1  6  0  0  0
  6  7  1  0  0  0  0
  7  8  1  0  0  0  0
  7 22  1  1  0  0  0
  8 12  1  6  0  0  0
  9  8  1  0  0  0  0
  9 10  1  1  0  0  0
 10 11  2  0  0  0  0
 13 14  1  0  0  0  0
 14 15  2  0  0  0  0
 16 15  1  0  0  0  0
 16 17  1  0  0  0  0
 18 16  2  0  0  0  0
 19 13  2  0  0  0  0
 19 18  1  0  0  0  0
 20 21  1  0  0  0  0
 22 23  1  0  0  0  0
M  END
>  <Pose>
1

>  <Score>
-6.959

$$$$
