/Users/jonathanwahrer/Desktop/Msc/3_Semester/Drug_Design_Praktikum/waehrer_HTS_screening/HTS_experiment/out/docking_results/vina_output/3elj/2358_docked.pdbqt
 OpenBabel03192219003D

 34 37  0  0  1  0  0  0  0  0999 V2000
   23.4530   13.0830   30.2710 N   0  0  0  0  0  0  0  0  0  0  0  0
   24.2160   13.2810   29.0890 C   0  0  0  0  0  0  0  0  0  0  0  0
   23.8250   14.1580   28.2640 O   0  0  0  0  0  0  0  0  0  0  0  0
   25.3820   12.5270   28.8260 N   0  0  0  0  0  0  0  0  0  0  0  0
   25.8250   11.5450   29.7430 C   0  0  0  0  0  0  0  0  0  0  0  0
   26.9670   10.9800   29.6150 O   0  0  0  0  0  0  0  0  0  0  0  0
   25.0010   11.1310   30.8780 C   0  0  1  0  0  3  0  0  0  0  0  0
   23.9270   12.0900   31.1680 C   0  0  0  0  0  0  0  0  0  0  0  0
   23.3510   12.0560   32.3100 O   0  0  0  0  0  0  0  0  0  0  0  0
   25.9340   12.6890   27.9440 H   0  0  0  0  0  0  0  0  0  0  0  0
   24.4810    9.7490   30.6620 C   0  0  1  0  0  3  0  0  0  0  0  0
   24.6420    8.6960   31.4190 C   0  0  0  0  0  2  0  0  0  0  0  0
   23.9290    7.5720   30.7640 C   0  0  2  0  0  3  0  0  0  0  0  0
   23.7570    8.0160   29.3970 N   0  0  0  0  0  0  0  0  0  0  0  0
   23.6950    9.4080   29.5250 N   0  0  0  0  0  0  0  0  0  0  0  0
   24.5610    7.7190   28.7940 H   0  0  0  0  0  0  0  0  0  0  0  0
   23.1530   10.0320   28.8720 H   0  0  0  0  0  0  0  0  0  0  0  0
   22.6030    7.3480   31.4040 C   0  0  0  0  0  0  0  0  0  0  0  0
   21.9670    8.3220   32.1390 C   0  0  0  0  0  3  0  0  0  0  0  0
   20.7360    8.1230   32.7380 C   0  0  0  0  0  0  0  0  0  0  0  0
   20.0970    6.9110   32.6100 C   0  0  0  0  0  0  0  0  0  0  0  0
   20.7150    5.9260   31.8800 C   0  0  0  0  0  3  0  0  0  0  0  0
   21.9410    6.1340   31.2870 C   0  0  0  0  0  3  0  0  0  0  0  0
   20.1470    9.1410   33.4640 O   0  0  0  0  0  0  0  0  0  0  0  0
   20.1080   10.0760   33.1110 H   0  0  0  0  0  0  0  0  0  0  0  0
   18.8680    6.6920   33.2000 O   0  0  0  0  0  0  0  0  0  0  0  0
   17.7200    7.3110   32.6680 C   0  0  0  0  0  1  0  0  0  0  0  0
   22.2780   13.8290   30.5640 C   0  0  0  0  0  0  0  0  0  0  0  0
   22.3300   15.1500   30.9910 C   0  0  0  0  0  3  0  0  0  0  0  0
   21.2070   15.8680   31.2720 C   0  0  0  0  0  3  0  0  0  0  0  0
   19.9610   15.2760   31.1320 C   0  0  0  0  0  0  0  0  0  0  0  0
   18.4920   16.1670   31.4840 Cl  0  0  0  0  0  0  0  0  0  0  0  0
   19.8730   13.9600   30.7080 C   0  0  0  0  0  3  0  0  0  0  0  0
   21.0390   13.2450   30.4260 C   0  0  0  0  0  3  0  0  0  0  0  0
  1 28  1  0  0  0  0
  1  8  1  0  0  0  0
  2  1  1  0  0  0  0
  3  2  2  0  0  0  0
  4  2  1  0  0  0  0
  4  5  1  0  0  0  0
  6  5  2  0  0  0  0
  7  5  1  6  0  0  0
  7  8  1  0  0  0  0
  8  9  2  0  0  0  0
 10  4  1  0  0  0  0
 11  7  1  0  0  0  0
 11 12  1  1  0  0  0
 13 18  1  1  0  0  0
 13 12  1  0  0  0  0
 14 15  1  0  0  0  0
 14 13  1  0  0  0  0
 15 11  1  0  0  0  0
 16 14  1  0  0  0  0
 17 15  1  0  0  0  0
 18 19  1  0  0  0  0
 19 20  2  0  0  0  0
 20 24  1  0  0  0  0
 21 20  1  0  0  0  0
 21 26  1  0  0  0  0
 22 21  2  0  0  0  0
 23 18  2  0  0  0  0
 23 22  1  0  0  0  0
 25 24  1  0  0  0  0
 27 26  1  0  0  0  0
 28 29  1  0  0  0  0
 29 30  2  0  0  0  0
 31 30  1  0  0  0  0
 31 32  1  0  0  0  0
 33 31  2  0  0  0  0
 34 28  2  0  0  0  0
 34 33  1  0  0  0  0
M  END
>  <Pose>
1

>  <Score>
-8.919

$$$$
