/Users/jonathanwahrer/Desktop/Msc/3_Semester/Drug_Design_Praktikum/waehrer_HTS_screening/HTS_experiment/out/docking_results/vina_output/3elj/2359_docked.pdbqt
 OpenBabel03192219013D

 32 35  0  0  1  0  0  0  0  0999 V2000
   21.3170   11.7550   32.0690 N   0  0  0  0  0  0  0  0  0  0  0  0
   20.2950   11.3480   32.9930 C   0  0  0  0  0  0  0  0  0  0  0  0
   19.5720   12.2000   33.5960 O   0  0  0  0  0  0  0  0  0  0  0  0
   20.1370    9.9520   33.1960 N   0  0  0  0  0  0  0  0  0  0  0  0
   20.9740    9.0050   32.4960 C   0  0  0  0  0  0  0  0  0  0  0  0
   20.5230    7.8620   32.3530 O   0  0  0  0  0  0  0  0  0  0  0  0
   22.2720    9.4290   32.0060 C   0  0  2  0  0  3  0  0  0  0  0  0
   22.1140   10.7870   31.4040 C   0  0  0  0  0  0  0  0  0  0  0  0
   22.6520   11.1400   30.3240 O   0  0  0  0  0  0  0  0  0  0  0  0
   19.4050    9.6390   33.8580 H   0  0  0  0  0  0  0  0  0  0  0  0
   23.0070    8.5180   31.1590 C   0  0  2  0  0  3  0  0  0  0  0  0
   24.1720    7.9480   31.3670 C   0  0  0  0  0  2  0  0  0  0  0  0
   24.5570    7.0780   30.2290 C   0  0  2  0  0  3  0  0  0  0  0  0
   23.3390    7.0080   29.4560 N   0  0  0  0  0  0  0  0  0  0  0  0
   22.5430    8.0750   29.8670 N   0  0  0  0  0  0  0  0  0  0  0  0
   22.8610    6.0840   29.5320 H   0  0  0  0  0  0  0  0  0  0  0  0
   21.7590    8.4480   29.2910 H   0  0  0  0  0  0  0  0  0  0  0  0
   24.9080    5.7130   30.6380 C   0  0  0  0  0  0  0  0  0  0  0  0
   23.9570    4.9710   31.3230 C   0  0  0  0  0  3  0  0  0  0  0  0
   24.2530    3.6880   31.7200 C   0  0  0  0  0  0  0  0  0  0  0  0
   25.4740    3.1140   31.4560 C   0  0  0  0  0  3  0  0  0  0  0  0
   26.4280    3.8360   30.7790 C   0  0  0  0  0  3  0  0  0  0  0  0
   26.1240    5.1380   30.3780 C   0  0  0  0  0  3  0  0  0  0  0  0
   23.3000    2.9280   32.4110 O   0  0  0  0  0  0  0  0  0  0  0  0
   23.1390    3.1130   33.3860 H   0  0  0  0  0  0  0  0  0  0  0  0
   21.4850   13.1750   31.8590 C   0  0  0  0  0  0  0  0  0  0  0  0
   22.5800   13.8560   32.3530 C   0  0  0  0  0  3  0  0  0  0  0  0
   22.7670   15.2130   32.1720 C   0  0  0  0  0  3  0  0  0  0  0  0
   21.8210   15.9400   31.4630 C   0  0  0  0  0  0  0  0  0  0  0  0
   22.0830   17.6460   31.2520 Cl  0  0  0  0  0  0  0  0  0  0  0  0
   20.7080   15.2750   30.9550 C   0  0  0  0  0  3  0  0  0  0  0  0
   20.5540   13.9150   31.1560 C   0  0  0  0  0  3  0  0  0  0  0  0
  1  2  1  0  0  0  0
  2  4  1  0  0  0  0
  2  3  2  0  0  0  0
  4 10  1  0  0  0  0
  5  4  1  0  0  0  0
  6  5  2  0  0  0  0
  7  8  1  6  0  0  0
  7  5  1  0  0  0  0
  8  1  1  0  0  0  0
  9  8  2  0  0  0  0
 11 12  1  6  0  0  0
 11  7  1  0  0  0  0
 13 18  1  1  0  0  0
 13 12  1  0  0  0  0
 14 16  1  0  0  0  0
 14 15  1  0  0  0  0
 14 13  1  0  0  0  0
 15 11  1  0  0  0  0
 17 15  1  0  0  0  0
 18 19  1  0  0  0  0
 19 20  2  0  0  0  0
 20 24  1  0  0  0  0
 21 20  1  0  0  0  0
 22 21  2  0  0  0  0
 23 18  2  0  0  0  0
 23 22  1  0  0  0  0
 24 25  1  0  0  0  0
 26  1  1  0  0  0  0
 26 27  1  0  0  0  0
 28 27  2  0  0  0  0
 29 28  1  0  0  0  0
 30 29  1  0  0  0  0
 31 32  1  0  0  0  0
 31 29  2  0  0  0  0
 32 26  2  0  0  0  0
M  END
>  <Pose>
1

>  <Score>
-8.830

$$$$
