/Users/jonathanwahrer/Desktop/Msc/3_Semester/Drug_Design_Praktikum/waehrer_HTS_screening/HTS_experiment/out/docking_results/vina_output/3elj/2361_docked.pdbqt
 OpenBabel03192219013D

 30 33  0  0  1  0  0  0  0  0999 V2000
   22.9760    9.9720   30.5470 N   0  0  0  0  0  0  0  0  0  0  0  0
   22.9830    9.9920   29.1320 C   0  0  0  0  0  0  0  0  0  0  0  0
   22.2230    9.2300   28.4840 O   0  0  0  0  0  0  0  0  0  0  0  0
   23.8710   10.8990   28.4540 N   0  0  0  0  0  0  0  0  0  0  0  0
   24.7310   11.7620   29.1850 C   0  0  0  0  0  0  0  0  0  0  0  0
   25.7160   12.2870   28.6070 O   0  0  0  0  0  0  0  0  0  0  0  0
   24.4530   12.0280   30.6050 C   0  0  2  0  0  3  0  0  0  0  0  0
   23.8470   10.8460   31.2430 C   0  0  0  0  0  0  0  0  0  0  0  0
   24.1050   10.5870   32.4690 O   0  0  0  0  0  0  0  0  0  0  0  0
   23.9090   10.9470   27.4140 H   0  0  0  0  0  0  0  0  0  0  0  0
   23.5500   13.2170   30.7610 C   0  0  1  0  0  3  0  0  0  0  0  0
   23.1920   13.8270   31.8610 C   0  0  0  0  0  2  0  0  0  0  0  0
   22.2930   14.9420   31.5250 C   0  0  1  0  0  3  0  0  0  0  0  0
   22.4670   15.1160   30.1110 N   0  0  0  0  0  0  0  0  0  0  0  0
   22.9410   13.8730   29.6610 N   0  0  0  0  0  0  0  0  0  0  0  0
   23.1160   15.8750   29.8830 H   0  0  0  0  0  0  0  0  0  0  0  0
   22.8260   13.5580   28.6710 H   0  0  0  0  0  0  0  0  0  0  0  0
   20.9090   14.4900   31.8190 C   0  0  0  0  0  0  0  0  0  0  0  0
   19.8350   15.1380   31.2580 C   0  0  0  0  0  3  0  0  0  0  0  0
   18.5630   14.7290   31.5240 N   0  0  0  0  0  0  0  0  0  0  0  0
   18.2940   13.6900   32.3310 C   0  0  0  0  0  3  0  0  0  0  0  0
   19.3460   13.0180   32.9090 C   0  0  0  0  0  3  0  0  0  0  0  0
   20.6620   13.4270   32.6460 C   0  0  0  0  0  3  0  0  0  0  0  0
   22.1010    9.0720   31.2690 C   0  0  0  0  0  0  0  0  0  0  0  0
   22.2840    7.7060   31.2530 C   0  0  0  0  0  3  0  0  0  0  0  0
   21.4350    6.8540   31.9510 C   0  0  0  0  0  3  0  0  0  0  0  0
   20.3790    7.3480   32.6860 C   0  0  0  0  0  0  0  0  0  0  0  0
   19.3060    6.2770   33.5700 Cl  0  0  0  0  0  0  0  0  0  0  0  0
   20.2000    8.7150   32.6990 C   0  0  0  0  0  3  0  0  0  0  0  0
   21.0440    9.5610   32.0050 C   0  0  0  0  0  3  0  0  0  0  0  0
  1  8  1  0  0  0  0
  1 24  1  0  0  0  0
  2  1  1  0  0  0  0
  3  2  2  0  0  0  0
  4  2  1  0  0  0  0
  4  5  1  0  0  0  0
  6  5  2  0  0  0  0
  7  5  1  6  0  0  0
  7 11  1  0  0  0  0
  7  8  1  0  0  0  0
  8  9  2  0  0  0  0
 10  4  1  0  0  0  0
 11 12  1  6  0  0  0
 13 18  1  6  0  0  0
 13 12  1  0  0  0  0
 14 13  1  0  0  0  0
 15 14  1  0  0  0  0
 15 11  1  0  0  0  0
 16 14  1  0  0  0  0
 17 15  1  0  0  0  0
 18 23  1  0  0  0  0
 19 20  1  0  0  0  0
 19 18  2  0  0  0  0
 20 21  2  0  0  0  0
 21 22  1  0  0  0  0
 23 22  2  0  0  0  0
 24 30  1  0  0  0  0
 25 24  2  0  0  0  0
 25 26  1  0  0  0  0
 26 27  2  0  0  0  0
 27 29  1  0  0  0  0
 27 28  1  0  0  0  0
 30 29  2  0  0  0  0
M  END
>  <Pose>
1

>  <Score>
-9.139

$$$$
