/Users/jonathanwahrer/Desktop/Msc/3_Semester/Drug_Design_Praktikum/waehrer_HTS_screening/HTS_experiment/out/docking_results/vina_output/3elj/2363_docked.pdbqt
 OpenBabel03192219013D

 33 36  0  0  1  0  0  0  0  0999 V2000
   22.3190   10.0830   31.3410 N   0  0  0  0  0  0  0  0  0  0  0  0
   22.6940   11.2760   30.6700 C   0  0  2  0  0  0  0  0  0  0  0  0
   22.0800   12.4870   31.1940 C   0  0  0  0  0  0  0  0  0  0  0  0
   21.1450   12.4710   32.1850 C   0  0  0  0  0  0  0  0  0  0  0  0
   20.5770   13.6800   32.6280 C   0  0  0  0  0  3  0  0  0  0  0  0
   20.9220   14.9000   32.1040 C   0  0  0  0  0  3  0  0  0  0  0  0
   21.8750   14.8980   31.0980 C   0  0  0  0  0  3  0  0  0  0  0  0
   22.4270   13.7350   30.6660 C   0  0  0  0  0  3  0  0  0  0  0  0
   20.7290   11.2520   32.8220 N   0  0  0  0  0  0  0  0  0  0  0  0
   21.3520   10.0710   32.3580 C   0  0  0  0  0  0  0  0  0  0  0  0
   21.0360    8.9480   32.8700 O   0  0  0  0  0  0  0  0  0  0  0  0
   20.0130   11.2780   33.5700 H   0  0  0  0  0  0  0  0  0  0  0  0
   22.1940   11.1010   29.3310 O   0  0  0  0  0  0  0  0  0  0  0  0
   21.4450   10.4500   29.3420 H   0  0  0  0  0  0  0  0  0  0  0  0
   24.1670   11.4030   30.5210 C   0  0  0  0  0  0  0  0  0  0  0  0
   24.8570   11.7620   31.4770 O   0  0  0  0  0  0  0  0  0  0  0  0
   24.7310   11.1030   29.2670 N   0  0  0  0  0  0  0  0  0  0  0  0
   24.1460   10.7950   28.4410 H   0  0  0  0  0  0  0  0  0  0  0  0
   26.1680   11.1930   29.0090 C   0  0  0  0  0  2  0  0  0  0  0  0
   26.8960    9.9640   29.3980 C   0  0  0  0  0  2  0  0  0  0  0  0
   27.2960    9.0890   28.3650 N   0  0  0  0  0  0  0  0  0  0  0  0
   28.2540    9.5270   27.4370 C   0  0  0  0  0  2  0  0  0  0  0  0
   28.7140    8.3260   26.6060 C   0  0  0  0  0  2  0  0  0  0  0  0
   27.6480    7.4300   26.4130 O   0  0  0  0  0  0  0  0  0  0  0  0
   27.3280    6.7630   27.5940 C   0  0  0  0  0  2  0  0  0  0  0  0
   27.4810    7.7270   28.7390 C   0  0  0  0  0  2  0  0  0  0  0  0
   22.9600    8.8140   30.9720 C   0  0  0  0  0  0  0  0  0  0  0  0
   24.1540    8.4270   31.5210 C   0  0  0  0  0  3  0  0  0  0  0  0
   24.7490    7.2220   31.1630 C   0  0  0  0  0  3  0  0  0  0  0  0
   24.1270    6.4080   30.2430 C   0  0  0  0  0  0  0  0  0  0  0  0
   24.8910    4.8790   29.7930 Cl  0  0  0  0  0  0  0  0  0  0  0  0
   22.9260    6.7730   29.6760 C   0  0  0  0  0  3  0  0  0  0  0  0
   22.3610    7.9780   30.0550 C   0  0  0  0  0  3  0  0  0  0  0  0
  1 10  1  0  0  0  0
  2 13  1  6  0  0  0
  2  3  1  0  0  0  0
  2  1  1  0  0  0  0
  3  4  1  0  0  0  0
  4  5  2  0  0  0  0
  4  9  1  0  0  0  0
  6  5  1  0  0  0  0
  7  6  2  0  0  0  0
  8  7  1  0  0  0  0
  8  3  2  0  0  0  0
  9 12  1  0  0  0  0
 10  9  1  0  0  0  0
 10 11  2  0  0  0  0
 13 14  1  0  0  0  0
 15  2  1  0  0  0  0
 15 16  2  0  0  0  0
 17 15  1  0  0  0  0
 18 17  1  0  0  0  0
 19 17  1  0  0  0  0
 19 20  1  0  0  0  0
 21 26  1  0  0  0  0
 21 20  1  0  0  0  0
 22 21  1  0  0  0  0
 23 22  1  0  0  0  0
 24 23  1  0  0  0  0
 24 25  1  0  0  0  0
 25 26  1  0  0  0  0
 27  1  1  0  0  0  0
 27 28  1  0  0  0  0
 29 28  2  0  0  0  0
 30 29  1  0  0  0  0
 31 30  1  0  0  0  0
 32 33  1  0  0  0  0
 32 30  2  0  0  0  0
 33 27  2  0  0  0  0
M  END
>  <Pose>
1

>  <Score>
-8.075

$$$$
