/Users/jonathanwahrer/Desktop/Msc/3_Semester/Drug_Design_Praktikum/waehrer_HTS_screening/HTS_experiment/out/docking_results/vina_output/3elj/2364_docked.pdbqt
 OpenBabel03192219013D

 33 37  0  0  1  0  0  0  0  0999 V2000
   26.9780    2.3430   30.9630 N   0  0  0  0  0  0  0  0  0  0  0  0
   26.6890    1.7890   29.6860 C   0  0  0  0  0  0  0  0  0  0  0  0
   27.0310    0.5890   29.4330 O   0  0  0  0  0  0  0  0  0  0  0  0
   26.0050    2.5310   28.6210 C   0  0  1  0  0  3  0  0  0  0  0  0
   25.8530    3.9270   28.8630 N   0  0  1  0  0  0  0  0  0  0  0  0
   25.6790    4.3230   30.2220 C   0  0  2  0  0  0  0  0  0  0  0  0
   24.2590    4.3320   30.7320 C   0  0  0  0  0  2  0  0  0  0  0  0
   24.2990    5.7560   30.8060 N   0  0  0  0  0  0  0  0  0  0  0  0
   25.6140    5.8390   30.3050 C   0  0  0  0  0  2  0  0  0  0  0  0
   26.6620    3.7160   31.1570 C   0  0  0  0  0  0  0  0  0  0  0  0
   27.2110    4.3550   32.0910 O   0  0  0  0  0  0  0  0  0  0  0  0
   26.9880    4.6060   28.3070 C   0  0  0  0  0  2  0  0  0  0  0  0
   27.8550    3.5830   27.6280 C   0  0  1  0  0  3  0  0  0  0  0  0
   26.9040    2.4480   27.3790 C   0  0  0  0  0  2  0  0  0  0  0  0
   23.2470    6.5130   30.2320 C   0  0  0  0  0  2  0  0  0  0  0  0
   22.3390    7.1770   31.1730 C   0  0  0  0  0  0  0  0  0  0  0  0
   21.2590    6.4970   31.6810 C   0  0  0  0  0  3  0  0  0  0  0  0
   20.3780    7.1050   32.5800 C   0  0  0  0  0  0  0  0  0  0  0  0
   20.6020    8.4090   32.9580 C   0  0  0  0  0  3  0  0  0  0  0  0
   21.6750    9.1120   32.4650 C   0  0  0  0  0  3  0  0  0  0  0  0
   22.5340    8.4760   31.5710 C   0  0  0  0  0  3  0  0  0  0  0  0
   19.2910    6.4250   33.0930 O   0  0  0  0  0  0  0  0  0  0  0  0
   18.0050    6.9980   32.9460 C   0  0  0  0  0  1  0  0  0  0  0  0
   27.5720    1.5570   32.0300 C   0  0  0  0  0  2  0  0  0  0  0  0
   26.5860    1.3960   33.1550 C   0  0  0  0  0  0  0  0  0  0  0  0
   27.0000    1.4230   34.4670 C   0  0  0  0  0  3  0  0  0  0  0  0
   26.1160    1.2760   35.5170 C   0  0  0  0  0  0  0  0  0  0  0  0
   26.6780    1.3170   37.1730 Cl  0  0  0  0  0  0  0  0  0  0  0  0
   24.7770    1.0950   35.2660 C   0  0  0  0  0  3  0  0  0  0  0  0
   24.3840    1.0710   33.9470 C   0  0  0  0  0  3  0  0  0  0  0  0
   25.2440    1.2140   32.9040 C   0  0  0  0  0  3  0  0  0  0  0  0
   28.4380    4.0570   26.4600 O   0  0  0  0  0  0  0  0  0  0  0  0
   28.4630    5.0420   26.5230 H   0  0  0  0  0  0  0  0  0  0  0  0
  1 10  1  0  0  0  0
  1 24  1  0  0  0  0
  2  1  1  0  0  0  0
  3  2  2  0  0  0  0
  4 14  1  6  0  0  0
  4  5  1  0  0  0  0
  4  2  1  0  0  0  0
  5 12  1  1  0  0  0
  5  6  1  0  0  0  0
  6  9  1  6  0  0  0
  6  7  1  0  0  0  0
  6 10  1  0  0  0  0
  7  8  1  0  0  0  0
  9  8  1  0  0  0  0
 10 11  2  0  0  0  0
 13 32  1  6  0  0  0
 13 12  1  0  0  0  0
 14 13  1  0  0  0  0
 15  8  1  0  0  0  0
 15 16  1  0  0  0  0
 16 21  2  0  0  0  0
 16 17  1  0  0  0  0
 17 18  2  0  0  0  0
 18 19  1  0  0  0  0
 18 22  1  0  0  0  0
 20 19  2  0  0  0  0
 21 20  1  0  0  0  0
 23 22  1  0  0  0  0
 24 25  1  0  0  0  0
 25 26  1  0  0  0  0
 26 27  2  0  0  0  0
 27 28  1  0  0  0  0
 29 27  1  0  0  0  0
 30 29  2  0  0  0  0
 31 25  2  0  0  0  0
 31 30  1  0  0  0  0
 32 33  1  0  0  0  0
M  END
>  <Pose>
1

>  <Score>
-7.701

$$$$
