/Users/jonathanwahrer/Desktop/Msc/3_Semester/Drug_Design_Praktikum/waehrer_HTS_screening/HTS_experiment/out/docking_results/vina_output/3elj/2365_docked.pdbqt
 OpenBabel03192219023D

 32 36  0  0  1  0  0  0  0  0999 V2000
   25.1790   12.4830   28.6680 N   0  0  0  0  0  0  0  0  0  0  0  0
   24.3290   12.3640   29.7780 C   0  0  0  0  0  0  0  0  0  0  0  0
   23.9400   13.4250   30.3540 O   0  0  0  0  0  0  0  0  0  0  0  0
   25.5080   11.6150   28.1810 H   0  0  0  0  0  0  0  0  0  0  0  0
   23.8500   11.0740   30.3290 C   0  0  1  0  0  0  0  0  0  0  0  0
   24.5440    9.9110   29.6500 C   0  0  0  0  0  2  0  0  0  0  0  0
   24.0520    8.6010   30.1970 C   0  0  1  0  0  0  0  0  0  0  0  0
   24.4340    8.5620   31.6780 C   0  0  0  0  0  2  0  0  0  0  0  0
   22.5660    8.4470   30.1030 C   0  0  0  0  0  2  0  0  0  0  0  0
   23.7840    9.7030   32.3930 C   0  0  1  0  0  3  0  0  0  0  0  0
   24.2200   11.0220   31.7960 C   0  0  0  0  0  2  0  0  0  0  0  0
   22.2830    9.5710   32.2730 C   0  0  0  0  0  2  0  0  0  0  0  0
   21.9290    9.6180   30.8050 C   0  0  1  0  0  3  0  0  0  0  0  0
   22.3490   10.9340   30.2070 C   0  0  0  0  0  2  0  0  0  0  0  0
   24.7640    7.5490   29.4980 N   0  0  0  0  0  0  0  0  0  0  0  0
   24.3430    6.3640   29.0910 N   0  0  0  0  0  0  0  0  0  0  0  0
   25.2820    5.6930   28.4940 N   0  0  0  0  0  0  0  0  0  0  0  0
   26.3740    6.4360   28.4930 C   0  0  0  0  0  3  0  0  0  0  0  0
   26.0520    7.6010   29.1210 N   0  0  0  0  0  0  0  0  0  0  0  0
   25.5870   13.7140   28.2060 N   0  0  0  0  0  0  0  0  0  0  0  0
   26.5180   13.9150   27.1590 C   0  0  0  0  0  0  0  0  0  0  0  0
   27.0480   12.9420   26.5650 O   0  0  0  0  0  0  0  0  0  0  0  0
   25.1850   14.5830   28.6560 H   0  0  0  0  0  0  0  0  0  0  0  0
   26.9210   15.2770   26.7020 C   0  0  1  0  0  3  0  0  0  0  0  0
   28.3320   15.3230   26.2240 C   0  0  0  0  0  1  0  0  0  0  0  0
   25.9530   15.7500   25.6420 C   0  0  0  0  0  2  0  0  0  0  0  0
   24.8610   16.5190   26.1900 N   0  0  0  0  0  0  0  0  0  0  0  0
   24.2950   17.6450   25.6840 C   0  0  0  0  0  3  0  0  0  0  0  0
   23.2770   18.0650   26.5170 C   0  0  0  0  0  0  0  0  0  0  0  0
   22.1200   19.5700   26.3430 Br  0  0  0  0  0  0  0  0  0  0  0  0
   23.2580   17.1320   27.5570 C   0  0  0  0  0  3  0  0  0  0  0  0
   24.2290   16.2380   27.2970 N   0  0  0  0  0  0  0  0  0  0  0  0
  1  2  1  0  0  0  0
  2  3  2  0  0  0  0
  4  1  1  0  0  0  0
  5  2  1  6  0  0  0
  5 11  1  0  0  0  0
  6  7  1  0  0  0  0
  6  5  1  0  0  0  0
  7 15  1  6  0  0  0
  7  8  1  0  0  0  0
  9  7  1  0  0  0  0
 10  8  1  6  0  0  0
 11 10  1  0  0  0  0
 12 10  1  0  0  0  0
 13  9  1  6  0  0  0
 13 12  1  0  0  0  0
 14  5  1  0  0  0  0
 14 13  1  0  0  0  0
 16 15  1  0  0  0  0
 17 16  2  0  0  0  0
 18 17  1  0  0  0  0
 18 19  2  0  0  0  0
 19 15  1  0  0  0  0
 20 23  1  0  0  0  0
 20  1  1  0  0  0  0
 21 20  1  0  0  0  0
 22 21  2  0  0  0  0
 24 25  1  6  0  0  0
 24 21  1  0  0  0  0
 26 27  1  0  0  0  0
 26 24  1  0  0  0  0
 27 32  1  0  0  0  0
 28 27  1  0  0  0  0
 28 29  2  0  0  0  0
 29 31  1  0  0  0  0
 30 29  1  0  0  0  0
 32 31  2  0  0  0  0
M  END
>  <Pose>
1

>  <Score>
-8.339

$$$$
