/Users/jonathanwahrer/Desktop/Msc/3_Semester/Drug_Design_Praktikum/waehrer_HTS_screening/HTS_experiment/out/docking_results/vina_output/3elj/2373_docked.pdbqt
 OpenBabel03192219023D

 28 31  0  0  1  0  0  0  0  0999 V2000
   23.2110    7.9040   31.4810 N   0  0  0  0  0  0  0  0  0  0  0  0
   21.9450    7.5260   31.5220 C   0  0  2  0  0  3  0  0  0  0  0  0
   21.1260    8.5890   31.7430 N   0  0  0  0  0  0  0  0  0  0  0  0
   21.8810    9.6610   31.8480 C   0  0  0  0  0  0  0  0  0  0  0  0
   23.2110    9.2210   31.6780 C   0  0  0  0  0  3  0  0  0  0  0  0
   19.6940    8.4980   31.7890 C   0  0  0  0  0  2  0  0  0  0  0  0
   19.2440    7.8640   33.1040 C   0  0  0  0  0  2  0  0  0  0  0  0
   20.3140    6.8130   33.4160 C   0  0  0  0  0  2  0  0  0  0  0  0
   20.3270    5.8170   32.2900 C   0  0  0  0  0  2  0  0  0  0  0  0
   21.5240    6.0990   31.3670 C   0  0  0  0  0  2  0  0  0  0  0  0
   24.4440    7.1370   31.2770 C   0  0  0  0  0  2  0  0  0  0  0  0
   24.6370    6.9540   29.8230 C   0  0  0  0  0  0  0  0  0  0  0  0
   24.2790    7.9140   29.0630 O   0  0  0  0  0  0  0  0  0  0  0  0
   25.1990    5.7620   29.2260 C   0  0  0  0  0  0  0  0  0  0  0  0
   25.1790    4.5690   29.9590 C   0  0  0  0  0  3  0  0  0  0  0  0
   25.7010    3.4080   29.4480 C   0  0  0  0  0  3  0  0  0  0  0  0
   26.2680    3.3610   28.1990 C   0  0  0  0  0  0  0  0  0  0  0  0
   26.9500    1.9190   27.4920 Cl  0  0  0  0  0  0  0  0  0  0  0  0
   26.2830    4.5460   27.4820 C   0  0  0  0  0  3  0  0  0  0  0  0
   25.7620    5.7170   27.9850 C   0  0  0  0  0  3  0  0  0  0  0  0
   21.5230   11.0660   32.0640 C   0  0  0  0  0  0  0  0  0  0  0  0
   20.5420   11.5260   32.8820 C   0  0  0  0  0  3  0  0  0  0  0  0
   20.2050   12.8740   32.9900 C   0  0  0  0  0  3  0  0  0  0  0  0
   20.8710   13.8160   32.2550 C   0  0  0  0  0  0  0  0  0  0  0  0
   21.8710   13.3830   31.4190 C   0  0  0  0  0  3  0  0  0  0  0  0
   22.1910   12.0460   31.3230 C   0  0  0  0  0  3  0  0  0  0  0  0
   20.5510   15.1820   32.3440 O   0  0  0  0  0  0  0  0  0  0  0  0
   21.3200   16.1810   31.7310 C   0  0  0  0  0  1  0  0  0  0  0  0
  1  2  1  0  0  0  0
  1  5  1  0  0  0  0
  2 10  1  1  0  0  0
  2  3  1  0  0  0  0
  3  6  1  0  0  0  0
  3  4  1  0  0  0  0
  4 21  1  0  0  0  0
  5  4  2  0  0  0  0
  6  7  1  0  0  0  0
  7  8  1  0  0  0  0
  9  8  1  0  0  0  0
 10  9  1  0  0  0  0
 11  1  1  0  0  0  0
 12 11  1  0  0  0  0
 13 12  2  0  0  0  0
 14 12  1  0  0  0  0
 14 15  1  0  0  0  0
 16 15  2  0  0  0  0
 17 16  1  0  0  0  0
 18 17  1  0  0  0  0
 19 20  1  0  0  0  0
 19 17  2  0  0  0  0
 20 14  2  0  0  0  0
 21 22  1  0  0  0  0
 22 23  2  0  0  0  0
 24 27  1  0  0  0  0
 24 23  1  0  0  0  0
 25 24  2  0  0  0  0
 26 25  1  0  0  0  0
 26 21  2  0  0  0  0
 28 27  1  0  0  0  0
M  END
>  <Pose>
1

>  <Score>
-8.975

$$$$
