/Users/jonathanwahrer/Desktop/Msc/3_Semester/Drug_Design_Praktikum/waehrer_HTS_screening/HTS_experiment/out/docking_results/vina_output/3elj/2375_docked.pdbqt
 OpenBabel03192219023D

 37 40  0  0  1  0  0  0  0  0999 V2000
   27.1310   11.1230   28.7300 C   0  0  0  0  0  0  0  0  0  0  0  0
   27.4120    9.7800   29.1470 C   0  0  0  0  0  1  0  0  0  0  0  0
   27.4110   11.5010   27.2820 C   0  0  0  0  0  0  0  0  0  0  0  0
   28.2210   12.6220   26.9850 N   0  0  0  0  0  0  0  0  0  0  0  0
   28.2990   13.3100   25.7380 C   0  0  0  0  0  3  0  0  0  0  0  0
   29.3090   12.9590   27.9250 C   0  0  0  0  0  2  0  0  0  0  0  0
   28.5700   14.7910   25.8220 C   0  0  0  0  0  3  0  0  0  0  0  0
   28.8920   15.3480   27.1440 C   0  0  1  0  0  0  0  0  0  0  0  0
   29.4310   14.3810   28.1700 C   0  0  0  0  0  2  0  0  0  0  0  0
   26.9250   10.8120   26.3880 O   0  0  0  0  0  0  0  0  0  0  0  0
   29.8720   16.4580   27.1140 C   0  0  0  0  0  0  0  0  0  0  0  0
   29.6640   17.4320   26.1480 C   0  0  0  0  0  3  0  0  0  0  0  0
   30.5040   18.5500   26.0340 C   0  0  0  0  0  3  0  0  0  0  0  0
   31.5640   18.7020   26.8970 C   0  0  0  0  0  0  0  0  0  0  0  0
   32.6280   20.1240   26.7800 Cl  0  0  0  0  0  0  0  0  0  0  0  0
   31.7700   17.7300   27.8610 C   0  0  0  0  0  3  0  0  0  0  0  0
   30.9270   16.6300   27.9500 C   0  0  0  0  0  3  0  0  0  0  0  0
   27.6820   15.8910   27.6720 O   0  0  0  0  0  0  0  0  0  0  0  0
   27.4540   16.7330   27.2450 H   0  0  0  0  0  0  0  0  0  0  0  0
   25.9860   11.8610   29.2080 N   0  0  0  0  0  4  0  0  0  0  0  0
   24.7040   11.3380   29.3680 C   0  0  0  0  0  0  0  0  0  0  0  0
   24.6880   10.0260   28.9370 O   0  0  0  0  0  0  0  0  0  0  0  0
   23.4590   11.7140   29.8480 C   0  0  0  0  0  2  0  0  0  0  0  0
   26.2430   12.8930   29.3620 H   0  0  0  0  0  0  0  0  0  0  0  0
   22.7070   12.5740   30.4690 C   0  0  1  0  0  3  0  0  0  0  0  0
   22.6850   13.9690   30.0090 N   0  0  0  0  0  0  0  0  0  0  0  0
   21.8520   14.9310   30.5450 N   0  0  0  0  0  0  0  0  0  0  0  0
   23.3560   14.2000   29.2260 H   0  0  0  0  0  0  0  0  0  0  0  0
   20.9630   14.6480   31.5700 C   0  0  0  0  0  0  0  0  0  0  0  0
   21.8910   15.9160   30.1640 H   0  0  0  0  0  0  0  0  0  0  0  0
   20.1920   15.4920   32.0910 O   0  0  0  0  0  0  0  0  0  0  0  0
   20.9120   13.2650   32.1010 C   0  0  0  0  0  0  0  0  0  0  0  0
   21.7560   12.3380   31.5370 C   0  0  0  0  0  0  0  0  0  0  0  0
   19.9770   12.9700   33.0640 C   0  0  0  0  0  3  0  0  0  0  0  0
   21.6000   11.0270   32.0010 C   0  0  0  0  0  3  0  0  0  0  0  0
   20.6610   10.7130   32.9720 C   0  0  0  0  0  3  0  0  0  0  0  0
   19.8460   11.6730   33.5130 C   0  0  0  0  0  3  0  0  0  0  0  0
  1  2  1  0  0  0  0
  1 20  2  0  0  0  0
  3  1  1  0  0  0  0
  4  3  1  0  0  0  0
  4  6  1  0  0  0  0
  5  7  2  0  0  0  0
  5  4  1  0  0  0  0
  6  9  1  0  0  0  0
  7  8  1  0  0  0  0
  8 18  1  1  0  0  0
  8  9  1  0  0  0  0
 10  3  2  0  0  0  0
 11  8  1  0  0  0  0
 11 17  1  0  0  0  0
 12 11  2  0  0  0  0
 13 12  1  0  0  0  0
 13 14  2  0  0  0  0
 14 16  1  0  0  0  0
 15 14  1  0  0  0  0
 16 17  2  0  0  0  0
 19 18  1  0  0  0  0
 20 24  1  0  0  0  0
 20 21  1  0  0  0  0
 21 23  1  0  0  0  0
 22 21  2  0  0  0  0
 25 23  1  6  0  0  0
 25 33  1  0  0  0  0
 26 25  1  0  0  0  0
 26 27  1  0  0  0  0
 27 29  1  0  0  0  0
 28 26  1  0  0  0  0
 29 31  2  0  0  0  0
 29 32  1  0  0  0  0
 30 27  1  0  0  0  0
 32 34  1  0  0  0  0
 33 35  1  0  0  0  0
 33 32  2  0  0  0  0
 34 37  2  0  0  0  0
 35 36  2  0  0  0  0
 36 37  1  0  0  0  0
M  END
>  <Pose>
1

>  <Score>
-9.793

$$$$
