/Users/jonathanwahrer/Desktop/Msc/3_Semester/Drug_Design_Praktikum/waehrer_HTS_screening/HTS_experiment/out/docking_results/vina_output/3elj/2380_docked.pdbqt
 OpenBabel03192219033D

 27 30  0  0  1  0  0  0  0  0999 V2000
   25.0500    3.4780   30.9440 Cl  0  0  0  0  0  0  0  0  0  0  0  0
   24.2740    5.0140   30.5740 C   0  0  0  0  0  0  0  0  0  0  0  0
   24.8230    5.7830   29.5750 C   0  0  0  0  0  0  0  0  0  0  0  0
   24.1890    6.9860   29.3090 C   0  0  0  0  0  3  0  0  0  0  0  0
   23.1010    7.3450   30.0120 N   0  0  0  0  0  0  0  0  0  0  0  0
   22.5630    6.6150   30.9750 N   0  0  0  0  0  0  0  0  0  0  0  0
   23.1540    5.4410   31.2590 C   0  0  0  0  0  0  0  0  0  0  0  0
   22.6950    4.6890   32.1660 O   0  0  0  0  0  0  0  0  0  0  0  0
   25.9690    5.3300   28.8880 N   0  0  0  0  0  0  0  0  0  0  0  0
   27.3140    5.5670   29.4000 C   0  0  0  0  0  2  0  0  0  0  0  0
   27.9500    6.5500   28.3980 C   0  0  0  0  0  2  0  0  0  0  0  0
   27.8340    6.0460   27.0650 N   0  0  0  0  0  0  0  0  0  0  0  0
   27.2500    4.6980   26.9060 C   0  0  0  0  0  2  0  0  0  0  0  0
   28.2470    6.7660   25.9130 C   0  0  0  0  0  0  0  0  0  0  0  0
   25.9250    4.6000   27.6340 C   0  0  0  0  0  2  0  0  0  0  0  0
   28.1240    6.2780   24.7500 O   0  0  0  0  0  0  0  0  0  0  0  0
   28.8410    8.1130   25.9840 C   0  0  1  0  0  3  0  0  0  0  0  0
   30.0830    8.1320   25.4270 O   0  0  0  0  0  0  0  0  0  0  0  0
   30.2920    9.3860   24.8680 C   0  0  0  0  0  2  0  0  0  0  0  0
   28.9470    9.6390   24.2020 C   0  0  0  0  0  2  0  0  0  0  0  0
   27.9980    9.1490   25.2750 C   0  0  0  0  0  2  0  0  0  0  0  0
   21.3980    7.0540   31.6900 C   0  0  0  0  0  0  0  0  0  0  0  0
   21.3280    8.3410   32.1810 C   0  0  0  0  0  3  0  0  0  0  0  0
   20.2000    8.7820   32.8790 C   0  0  0  0  0  3  0  0  0  0  0  0
   19.1400    7.9360   33.0870 C   0  0  0  0  0  3  0  0  0  0  0  0
   19.1960    6.6530   32.6050 C   0  0  0  0  0  3  0  0  0  0  0  0
   20.3120    6.2360   31.9200 C   0  0  0  0  0  3  0  0  0  0  0  0
  2  1  1  0  0  0  0
  2  7  1  0  0  0  0
  3  2  2  0  0  0  0
  4  3  1  0  0  0  0
  4  5  2  0  0  0  0
  5  6  1  0  0  0  0
  6  7  1  0  0  0  0
  6 22  1  0  0  0  0
  7  8  2  0  0  0  0
  9 10  1  0  0  0  0
  9  3  1  0  0  0  0
 11 10  1  0  0  0  0
 12 11  1  0  0  0  0
 13 12  1  0  0  0  0
 13 15  1  0  0  0  0
 14 12  1  0  0  0  0
 15  9  1  0  0  0  0
 16 14  2  0  0  0  0
 17 14  1  6  0  0  0
 18 17  1  0  0  0  0
 19 18  1  0  0  0  0
 20 19  1  0  0  0  0
 20 21  1  0  0  0  0
 21 17  1  0  0  0  0
 22 27  2  0  0  0  0
 22 23  1  0  0  0  0
 23 24  2  0  0  0  0
 24 25  1  0  0  0  0
 26 25  2  0  0  0  0
 27 26  1  0  0  0  0
M  END
>  <Pose>
1

>  <Score>
-7.715

$$$$
