/Users/jonathanwahrer/Desktop/Msc/3_Semester/Drug_Design_Praktikum/waehrer_HTS_screening/HTS_experiment/out/docking_results/vina_output/3elj/2402_docked.pdbqt
 OpenBabel03192219043D

 33 36  0  0  1  0  0  0  0  0999 V2000
   22.7470   11.4640   31.9340 C   0  0  2  0  0  3  0  0  0  0  0  0
   22.2060   12.6890   31.4240 N   0  0  0  0  0  0  0  0  0  0  0  0
   22.6830   12.9390   30.1110 C   0  0  0  0  0  0  0  0  0  0  0  0
   22.3240   13.7870   29.2600 O   0  0  0  0  0  0  0  0  0  0  0  0
   23.7760   11.9800   29.8270 C   0  0  0  0  0  0  0  0  0  0  0  0
   24.4450   11.8910   28.7670 O   0  0  0  0  0  0  0  0  0  0  0  0
   23.8950   11.1780   31.0300 C   0  0  0  0  0  0  0  0  0  0  0  0
   24.8980   10.3130   31.2300 C   0  0  0  0  0  0  0  0  0  0  0  0
   24.8200    9.6100   32.4390 O   0  0  0  0  0  1  0  0  0  0  0  0
   21.7930   10.3780   32.0800 C   0  0  0  0  0  0  0  0  0  0  0  0
   20.7600   10.4990   32.9900 C   0  0  0  0  0  3  0  0  0  0  0  0
   19.8130    9.5400   33.1990 C   0  0  0  0  0  3  0  0  0  0  0  0
   19.8590    8.3800   32.4810 C   0  0  0  0  0  0  0  0  0  0  0  0
   18.5070    7.0690   32.8090 Br  0  0  0  0  0  0  0  0  0  0  0  0
   20.8620    8.1990   31.5580 C   0  0  0  0  0  3  0  0  0  0  0  0
   21.8160    9.1970   31.3690 C   0  0  0  0  0  3  0  0  0  0  0  0
   25.9870   10.1110   30.2820 C   0  0  0  0  0  0  0  0  0  0  0  0
   26.9470   10.8910   29.9210 O   0  0  0  0  0  0  0  0  0  0  0  0
   27.7550   10.3850   29.0370 C   0  0  0  0  0  0  0  0  0  0  0  0
   27.3100    9.1040   28.7470 C   0  0  0  0  0  0  0  0  0  0  0  0
   28.8840   10.8550   28.3900 C   0  0  0  0  0  0  0  0  0  0  0  0
   26.1810    8.9540   29.5550 C   0  0  0  0  0  3  0  0  0  0  0  0
   27.9910    8.3370   27.8320 C   0  0  0  0  0  3  0  0  0  0  0  0
   29.1110    8.8230   27.1980 C   0  0  0  0  0  3  0  0  0  0  0  0
   29.5630   10.1060   27.4820 C   0  0  0  0  0  3  0  0  0  0  0  0
   29.3070   12.1320   28.6950 O   0  0  0  0  0  0  0  0  0  0  0  0
   30.4570   12.4360   29.4730 C   0  0  0  0  0  1  0  0  0  0  0  0
   21.3030   13.5670   32.1160 C   0  0  0  0  0  2  0  0  0  0  0  0
   21.9780   14.8710   32.5010 C   0  0  0  0  0  2  0  0  0  0  0  0
   21.3140   16.0250   32.0020 N   0  0  0  0  0  4  0  0  0  0  0  0
   22.0950   16.8840   31.1660 C   0  0  0  0  0  1  0  0  0  0  0  0
   20.0660   15.6650   31.3420 C   0  0  0  0  0  1  0  0  0  0  0  0
   21.0300   16.6120   32.8420 H   0  0  0  0  0  0  0  0  0  0  0  0
  1 10  1  6  0  0  0
  2  1  1  0  0  0  0
  2 28  1  0  0  0  0
  3  2  1  0  0  0  0
  4  3  2  0  0  0  0
  5  3  1  0  0  0  0
  5  7  1  0  0  0  0
  6  5  2  0  0  0  0
  7  8  2  0  0  0  0
  7  1  1  0  0  0  0
  8  9  1  0  0  0  0
 10 11  1  0  0  0  0
 11 12  2  0  0  0  0
 13 14  1  0  0  0  0
 13 12  1  0  0  0  0
 15 13  2  0  0  0  0
 16 15  1  0  0  0  0
 16 10  2  0  0  0  0
 17  8  1  0  0  0  0
 18 17  1  0  0  0  0
 19 18  1  0  0  0  0
 20 19  1  0  0  0  0
 20 22  1  0  0  0  0
 21 26  1  0  0  0  0
 21 19  2  0  0  0  0
 22 17  2  0  0  0  0
 23 20  2  0  0  0  0
 24 25  2  0  0  0  0
 24 23  1  0  0  0  0
 25 21  1  0  0  0  0
 26 27  1  0  0  0  0
 28 29  1  0  0  0  0
 30 29  1  0  0  0  0
 30 33  1  0  0  0  0
 31 30  1  0  0  0  0
 32 30  1  0  0  0  0
M  END
>  <Pose>
1

>  <Score>
-8.085

$$$$
