/Users/jonathanwahrer/Desktop/Msc/3_Semester/Drug_Design_Praktikum/waehrer_HTS_screening/HTS_experiment/out/docking_results/vina_output/3elj/2416_docked.pdbqt
 OpenBabel03192219043D

 34 37  0  0  1  0  0  0  0  0999 V2000
   23.4550   12.9270   31.1810 N   0  0  0  0  0  0  0  0  0  0  0  0
   23.9310   13.0930   29.8840 C   0  0  0  0  0  2  0  0  0  0  0  0
   25.2460   12.3170   29.7320 C   0  0  0  0  0  2  0  0  0  0  0  0
   25.1360   11.0300   30.4210 N   0  0  0  0  0  0  0  0  0  0  0  0
   24.8150   11.0880   31.8340 C   0  0  0  0  0  2  0  0  0  0  0  0
   24.4200   12.5430   32.1260 C   0  0  0  0  0  2  0  0  0  0  0  0
   25.3190    9.8140   29.7060 C   0  0  0  0  0  0  0  0  0  0  0  0
   25.5720    9.8960   28.4820 O   0  0  0  0  0  0  0  0  0  0  0  0
   25.2120    8.5230   30.3860 C   0  0  0  0  0  2  0  0  0  0  0  0
   24.6580    7.4060   29.5140 C   0  0  2  0  0  3  0  0  0  0  0  0
   23.4240    6.8520   30.0060 N   0  0  0  0  0  0  0  0  0  0  0  0
   23.0980    5.5890   30.5700 C   0  0  0  0  0  0  0  0  0  0  0  0
   22.5570    7.4750   29.9560 H   0  0  0  0  0  0  0  0  0  0  0  0
   21.9060    5.1830   30.5610 O   0  0  0  0  0  0  0  0  0  0  0  0
   24.0290    4.6300   31.2020 C   0  0  0  0  0  0  0  0  0  0  0  0
   25.4030    4.5150   30.9660 C   0  0  0  0  0  0  0  0  0  0  0  0
   23.4380    3.7950   32.1160 C   0  0  0  0  0  3  0  0  0  0  0  0
   26.1260    3.5750   31.6440 C   0  0  0  0  0  3  0  0  0  0  0  0
   26.1600    5.3020   30.0590 N   0  0  0  0  0  0  0  0  0  0  0  0
   25.5510    2.7120   32.5790 C   0  0  0  0  0  3  0  0  0  0  0  0
   24.1800    2.8530   32.7940 C   0  0  0  0  0  3  0  0  0  0  0  0
   25.7200    6.4080   29.2640 C   0  0  0  0  0  0  0  0  0  0  0  0
   27.1410    5.0370   29.9730 H   0  0  0  0  0  0  0  0  0  0  0  0
   26.3790    6.5130   28.1700 O   0  0  0  0  0  0  0  0  0  0  0  0
   21.9530   13.4490   31.6480 S   0  0  0  0  0  0  0  0  0  0  0  0
   22.1120   14.4560   32.7720 O   0  0  0  0  0  0  0  0  0  0  0  0
   21.1850   14.1740   30.5620 O   0  0  0  0  0  0  0  0  0  0  0  0
   20.9110   12.1670   32.2740 C   0  0  0  0  0  0  0  0  0  0  0  0
   21.3030   10.8490   32.2610 C   0  0  0  0  0  3  0  0  0  0  0  0
   20.4530    9.8840   32.7560 C   0  0  0  0  0  3  0  0  0  0  0  0
   19.2040   10.1690   33.2770 C   0  0  0  0  0  0  0  0  0  0  0  0
   18.8110   11.5010   33.2890 C   0  0  0  0  0  3  0  0  0  0  0  0
   18.1300    8.9620   33.9030 Cl  0  0  0  0  0  0  0  0  0  0  0  0
   19.6630   12.4610   32.7930 C   0  0  0  0  0  3  0  0  0  0  0  0
  1 25  1  0  0  0  0
  1  6  1  0  0  0  0
  2  1  1  0  0  0  0
  3  2  1  0  0  0  0
  3  4  1  0  0  0  0
  4  5  1  0  0  0  0
  5  6  1  0  0  0  0
  7  9  1  0  0  0  0
  7  4  1  0  0  0  0
  8  7  2  0  0  0  0
 10 11  1  0  0  0  0
 10  9  1  1  0  0  0
 11 12  1  0  0  0  0
 12 15  1  0  0  0  0
 13 11  1  0  0  0  0
 14 12  2  0  0  0  0
 15 17  1  0  0  0  0
 16 15  2  0  0  0  0
 16 18  1  0  0  0  0
 17 21  2  0  0  0  0
 18 20  2  0  0  0  0
 19 16  1  0  0  0  0
 20 21  1  0  0  0  0
 22 10  1  0  0  0  0
 22 19  1  0  0  0  0
 23 19  1  0  0  0  0
 24 22  2  0  0  0  0
 25 28  1  0  0  0  0
 25 26  2  0  0  0  0
 27 25  2  0  0  0  0
 28 34  1  0  0  0  0
 29 28  2  0  0  0  0
 29 30  1  0  0  0  0
 30 31  2  0  0  0  0
 31 32  1  0  0  0  0
 31 33  1  0  0  0  0
 34 32  2  0  0  0  0
M  END
>  <Pose>
1

>  <Score>
-8.921

$$$$
