/Users/jonathanwahrer/Desktop/Msc/3_Semester/Drug_Design_Praktikum/waehrer_HTS_screening/HTS_experiment/out/docking_results/vina_output/3elj/2417_docked.pdbqt
 OpenBabel03192219043D

 27 30  0  0  1  0  0  0  0  0999 V2000
   24.2040   10.9070   30.9250 N   0  0  0  0  0  0  0  0  0  0  0  0
   24.2280   12.2270   31.5970 C   0  0  0  0  0  2  0  0  0  0  0  0
   22.8930   12.7500   31.3250 C   0  0  2  0  0  3  0  0  0  0  0  0
   22.8180   12.5640   29.8180 C   0  0  2  0  0  3  0  0  0  0  0  0
   23.3700   11.0760   29.8130 C   0  0  0  0  0  2  0  0  0  0  0  0
   23.8190    9.9340   31.9580 C   0  0  0  0  0  2  0  0  0  0  0  0
   23.5680    8.5830   31.5230 C   0  0  0  0  0  0  0  0  0  0  0  0
   22.4770    7.7630   31.7060 C   0  0  0  0  0  0  0  0  0  0  0  0
   21.2130    8.0360   32.1730 C   0  0  0  0  0  0  0  0  0  0  0  0
   22.7210    6.4900   31.2440 C   0  0  0  0  0  0  0  0  0  0  0  0
   20.9300    9.6220   32.8810 Cl  0  0  0  0  0  0  0  0  0  0  0  0
   20.2190    7.0940   32.1720 C   0  0  0  0  0  3  0  0  0  0  0  0
   20.4870    5.8140   31.6980 C   0  0  0  0  0  3  0  0  0  0  0  0
   21.7690    5.5180   31.2250 C   0  0  0  0  0  3  0  0  0  0  0  0
   23.9920    6.5250   30.7860 N   0  0  0  0  0  0  0  0  0  0  0  0
   24.4810    7.7270   30.9370 N   0  0  0  0  0  0  0  0  0  0  0  0
   24.7290    5.3420   30.3100 C   0  0  0  0  0  1  0  0  0  0  0  0
   22.6650   14.1970   31.6860 C   0  0  0  0  0  2  0  0  0  0  0  0
   21.3740   14.3160   32.2860 N   0  0  0  0  0  0  0  0  0  0  0  0
   20.5500   15.3290   31.6610 C   0  0  0  0  0  2  0  0  0  0  0  0
   19.2460   14.7960   31.1130 C   0  0  0  0  0  2  0  0  0  0  0  0
   18.4980   14.0950   32.0310 O   0  0  0  0  0  0  0  0  0  0  0  0
   19.2800   13.3520   32.9110 C   0  0  0  0  0  2  0  0  0  0  0  0
   20.6150   13.0860   32.2850 C   0  0  0  0  0  2  0  0  0  0  0  0
   23.8940   13.3400   29.1140 C   0  0  0  0  0  2  0  0  0  0  0  0
   23.2980   14.1800   28.1360 O   0  0  0  0  0  0  0  0  0  0  0  0
   23.1230   15.0760   28.6190 H   0  0  0  0  0  0  0  0  0  0  0  0
  1  2  1  0  0  0  0
  1  6  1  0  0  0  0
  3  2  1  0  0  0  0
  3 18  1  6  0  0  0
  4 25  1  6  0  0  0
  4  3  1  0  0  0  0
  5  4  1  0  0  0  0
  5  1  1  0  0  0  0
  7  8  1  0  0  0  0
  7  6  1  0  0  0  0
  8  9  1  0  0  0  0
  9 11  1  0  0  0  0
 10  8  2  0  0  0  0
 12  9  2  0  0  0  0
 13 12  1  0  0  0  0
 14 10  1  0  0  0  0
 14 13  2  0  0  0  0
 15 16  1  0  0  0  0
 15 10  1  0  0  0  0
 16  7  2  0  0  0  0
 17 15  1  0  0  0  0
 18 19  1  0  0  0  0
 20 19  1  0  0  0  0
 21 20  1  0  0  0  0
 21 22  1  0  0  0  0
 22 23  1  0  0  0  0
 24 19  1  0  0  0  0
 24 23  1  0  0  0  0
 26 27  1  0  0  0  0
 26 25  1  0  0  0  0
M  END
>  <Pose>
1

>  <Score>
-8.525

$$$$
