/Users/jonathanwahrer/Desktop/Msc/3_Semester/Drug_Design_Praktikum/waehrer_HTS_screening/HTS_experiment/out/docking_results/vina_output/3elj/2419_docked.pdbqt
 OpenBabel03192219053D

 32 36  0  0  1  0  0  0  0  0999 V2000
   23.1110    6.8000   30.8830 C   0  0  0  0  0  0  0  0  0  0  0  0
   21.8160    6.3570   31.1990 C   0  0  0  0  0  3  0  0  0  0  0  0
   21.1990    7.3730   31.7900 N   0  0  0  0  0  0  0  0  0  0  0  0
   19.9850    7.6640   32.3490 C   0  0  0  0  0  0  0  0  0  0  0  0
   20.0880    8.9620   32.7830 C   0  0  0  0  0  0  0  0  0  0  0  0
   21.3070    9.3830   32.4820 N   0  0  0  0  0  0  0  0  0  0  0  0
   22.0150    8.3980   31.8590 C   0  0  1  0  0  3  0  0  0  0  0  0
   23.2160    8.0670   31.2980 N   0  0  0  0  0  0  0  0  0  0  0  0
   19.0210    9.6050   33.4160 C   0  0  0  0  0  3  0  0  0  0  0  0
   17.8360    8.9290   33.6100 C   0  0  0  0  0  3  0  0  0  0  0  0
   17.7580    7.6290   33.1650 C   0  0  0  0  0  3  0  0  0  0  0  0
   18.8150    6.9820   32.5360 C   0  0  0  0  0  3  0  0  0  0  0  0
   21.6470   10.3360   32.7150 H   0  0  0  0  0  0  0  0  0  0  0  0
   24.2990    9.0010   31.2530 C   0  0  0  0  0  2  0  0  0  0  0  0
   24.2300   10.0730   30.2420 C   0  0  0  0  0  2  0  0  0  0  0  0
   23.7560   11.4200   30.6550 C   0  0  0  0  0  2  0  0  0  0  0  0
   22.5270   11.7890   29.9890 N   0  0  0  0  0  4  0  0  0  0  0  0
   22.5440   11.7910   28.9720 H   0  0  0  0  0  0  0  0  0  0  0  0
   21.8290   10.9940   30.2280 H   0  0  0  0  0  0  0  0  0  0  0  0
   21.9260   12.9740   30.5260 C   0  0  0  0  0  3  0  0  0  0  0  0
   21.1800   12.7810   31.8160 C   0  0  0  0  0  2  0  0  0  0  0  0
   20.2390   13.9870   31.9480 C   0  0  0  0  0  2  0  0  0  0  0  0
   21.0640   15.2250   32.0310 C   0  0  0  0  0  2  0  0  0  0  0  0
   22.0620   15.3680   30.9050 C   0  0  0  0  0  2  0  0  0  0  0  0
   22.9170   14.1020   30.7800 C   0  0  0  0  0  2  0  0  0  0  0  0
   24.0920    5.9550   30.2370 C   0  0  0  0  0  0  0  0  0  0  0  0
   24.4440    4.7670   30.8450 C   0  0  0  0  0  3  0  0  0  0  0  0
   25.3540    3.9120   30.2930 C   0  0  0  0  0  3  0  0  0  0  0  0
   25.9630    4.1930   29.1080 C   0  0  0  0  0  0  0  0  0  0  0  0
   27.2480    2.9910   28.3240 Br  0  0  0  0  0  0  0  0  0  0  0  0
   25.6420    5.3600   28.4730 C   0  0  0  0  0  3  0  0  0  0  0  0
   24.6960    6.2360   29.0590 C   0  0  0  0  0  3  0  0  0  0  0  0
  1  2  2  0  0  0  0
  1  8  1  0  0  0  0
  2  3  1  0  0  0  0
  3  7  1  0  0  0  0
  3  4  1  0  0  0  0
  4 12  2  0  0  0  0
  4  5  1  0  0  0  0
  5  9  2  0  0  0  0
  6 13  1  0  0  0  0
  6  5  1  0  0  0  0
  7  8  1  1  0  0  0
  7  6  1  0  0  0  0
  9 10  1  0  0  0  0
 11 10  2  0  0  0  0
 12 11  1  0  0  0  0
 14  8  1  0  0  0  0
 15 16  1  0  0  0  0
 15 14  1  0  0  0  0
 17 19  1  0  0  0  0
 17 20  1  0  0  0  0
 17 16  1  0  0  0  0
 18 17  1  0  0  0  0
 20 25  1  0  0  0  0
 20 21  1  0  0  0  0
 21 22  1  0  0  0  0
 22 23  1  0  0  0  0
 24 23  1  0  0  0  0
 25 24  1  0  0  0  0
 26 27  1  0  0  0  0
 26  1  1  0  0  0  0
 28 27  2  0  0  0  0
 29 28  1  0  0  0  0
 30 29  1  0  0  0  0
 31 32  1  0  0  0  0
 31 29  2  0  0  0  0
 32 26  2  0  0  0  0
M  END
>  <Pose>
1

>  <Score>
-9.489

$$$$
