/Users/jonathanwahrer/Desktop/Msc/3_Semester/Drug_Design_Praktikum/waehrer_HTS_screening/HTS_experiment/out/docking_results/vina_output/3elj/2420_docked.pdbqt
 OpenBabel03192219053D

 29 32  0  0  1  0  0  0  0  0999 V2000
   21.9530    6.1320   31.1870 N   0  0  0  0  0  0  0  0  0  0  0  0
   22.2560    6.4130   29.7840 C   0  0  0  0  0  2  0  0  0  0  0  0
   23.7670    6.4720   29.7690 C   0  0  2  0  0  3  0  0  0  0  0  0
   24.1440    5.2910   30.6560 C   0  0  0  0  0  2  0  0  0  0  0  0
   22.9620    5.1990   31.5850 C   0  0  0  0  0  0  0  0  0  0  0  0
   22.8660    4.4160   32.5760 O   0  0  0  0  0  0  0  0  0  0  0  0
   24.2770    7.7360   30.3520 C   0  0  0  0  0  0  0  0  0  0  0  0
   24.8590    7.6840   31.4640 O   0  0  0  0  0  0  0  0  0  0  0  0
   24.1320    8.9850   29.7060 N   0  0  0  0  0  0  0  0  0  0  0  0
   23.6370    8.9900   28.7780 H   0  0  0  0  0  0  0  0  0  0  0  0
   24.6250   10.2170   30.2660 C   0  0  0  0  0  2  0  0  0  0  0  0
   24.3730   11.3510   29.2950 C   0  0  0  0  0  2  0  0  0  0  0  0
   24.4440   12.6500   29.9170 N   0  0  0  0  0  0  0  0  0  0  0  0
   23.3650   13.4590   29.3620 C   0  0  0  0  0  2  0  0  0  0  0  0
   22.0630   13.1910   30.1120 C   0  0  0  0  0  2  0  0  0  0  0  0
   22.0960   13.6440   31.4100 O   0  0  0  0  0  0  0  0  0  0  0  0
   23.4020   13.7460   31.8270 C   0  0  0  0  0  2  0  0  0  0  0  0
   24.2500   12.5860   31.3480 C   0  0  0  0  0  2  0  0  0  0  0  0
   20.8930    6.6700   31.9600 C   0  0  0  0  0  0  0  0  0  0  0  0
   19.8380    6.0680   32.5240 N   0  0  0  0  0  0  0  0  0  0  0  0
   19.0850    6.9530   33.1590 N   0  0  0  0  0  0  0  0  0  0  0  0
   19.6330    8.1940   33.0290 C   0  0  0  0  0  0  0  0  0  0  0  0
   18.1940    6.8280   33.7020 H   0  0  0  0  0  0  0  0  0  0  0  0
   19.3050    9.4460   33.4570 C   0  0  0  0  0  3  0  0  0  0  0  0
   20.7690    8.0170   32.2760 C   0  0  0  0  0  0  0  0  0  0  0  0
   20.0840   10.5400   33.1540 C   0  0  0  0  0  0  0  0  0  0  0  0
   19.6040   12.2780   33.7640 Br  0  0  0  0  0  0  0  0  0  0  0  0
   21.2390   10.3670   32.3900 C   0  0  0  0  0  3  0  0  0  0  0  0
   21.5730    9.1040   31.9560 C   0  0  0  0  0  3  0  0  0  0  0  0
  1  5  1  0  0  0  0
  1 19  1  0  0  0  0
  2  1  1  0  0  0  0
  3  2  1  0  0  0  0
  3  7  1  1  0  0  0
  3  4  1  0  0  0  0
  4  5  1  0  0  0  0
  5  6  2  0  0  0  0
  7  8  2  0  0  0  0
  9 11  1  0  0  0  0
  9  7  1  0  0  0  0
 10  9  1  0  0  0  0
 12 13  1  0  0  0  0
 12 11  1  0  0  0  0
 13 18  1  0  0  0  0
 14 13  1  0  0  0  0
 14 15  1  0  0  0  0
 15 16  1  0  0  0  0
 16 17  1  0  0  0  0
 18 17  1  0  0  0  0
 19 25  1  0  0  0  0
 19 20  2  0  0  0  0
 20 21  1  0  0  0  0
 21 23  1  0  0  0  0
 22 21  1  0  0  0  0
 22 24  1  0  0  0  0
 25 22  2  0  0  0  0
 26 24  2  0  0  0  0
 26 27  1  0  0  0  0
 28 26  1  0  0  0  0
 29 25  1  0  0  0  0
 29 28  2  0  0  0  0
M  END
>  <Pose>
1

>  <Score>
-8.323

$$$$
