/Users/jonathanwahrer/Desktop/Msc/3_Semester/Drug_Design_Praktikum/waehrer_HTS_screening/HTS_experiment/out/docking_results/vina_output/3elj/2432_docked.pdbqt
 OpenBabel03192219053D

 26 29  0  0  0  0  0  0  0  0999 V2000
   23.7930   11.6800   30.1190 C   0  0  0  0  0  0  0  0  0  0  0  0
   23.7220   11.6800   28.8000 O   0  0  0  0  0  0  0  0  0  0  0  0
   24.4880   10.6370   30.7100 N   0  0  0  0  0  0  0  0  0  0  0  0
   25.0530    9.5910   29.8230 C   0  0  0  0  0  2  0  0  0  0  0  0
   24.3900    8.3020   30.2290 C   0  0  0  0  0  2  0  0  0  0  0  0
   23.5610    8.3950   31.3890 N   0  0  0  0  0  0  0  0  0  0  0  0
   23.8080    9.3020   32.5010 C   0  0  0  0  0  2  0  0  0  0  0  0
   24.7690   10.4020   32.0780 C   0  0  0  0  0  2  0  0  0  0  0  0
   23.1080   12.8050   30.7020 C   0  0  0  0  0  0  0  0  0  0  0  0
   23.5500   13.7930   31.4800 N   0  0  0  0  0  0  0  0  0  0  0  0
   22.5590   14.6720   31.7950 C   0  0  0  0  0  0  0  0  0  0  0  0
   24.5020   13.9610   31.8640 H   0  0  0  0  0  0  0  0  0  0  0  0
   22.6590   16.1150   32.7810 Cl  0  0  0  0  0  0  0  0  0  0  0  0
   21.4040   14.2460   31.1980 C   0  0  0  0  0  0  0  0  0  0  0  0
   21.7490   13.0960   30.5270 C   0  0  0  0  0  3  0  0  0  0  0  0
   19.8350   15.0170   31.2840 Cl  0  0  0  0  0  0  0  0  0  0  0  0
   22.4100    7.5690   31.5040 C   0  0  0  0  0  0  0  0  0  0  0  0
   22.4440    6.2740   31.1370 N   0  0  0  0  0  0  0  0  0  0  0  0
   21.3570    5.4730   31.2370 C   0  0  0  0  0  3  0  0  0  0  0  0
   20.1980    5.9570   31.7140 N   0  0  0  0  0  0  0  0  0  0  0  0
   20.0820    7.2370   32.1010 C   0  0  0  0  0  0  0  0  0  0  0  0
   19.0580    7.9530   32.6030 N   0  0  0  0  0  0  0  0  0  0  0  0
   21.2150    8.0510   31.9910 C   0  0  0  0  0  0  0  0  0  0  0  0
   19.5050    9.1760   32.8090 N   0  0  0  0  0  0  0  0  0  0  0  0
   17.6960    7.4970   32.8800 C   0  0  0  0  0  1  0  0  0  0  0  0
   20.8070    9.2760   32.4510 C   0  0  0  0  0  3  0  0  0  0  0  0
  1  9  1  0  0  0  0
  1  3  1  0  0  0  0
  2  1  2  0  0  0  0
  3  8  1  0  0  0  0
  4  5  1  0  0  0  0
  4  3  1  0  0  0  0
  5  6  1  0  0  0  0
  6 17  1  0  0  0  0
  6  7  1  0  0  0  0
  8  7  1  0  0  0  0
  9 10  1  0  0  0  0
 10 11  1  0  0  0  0
 10 12  1  0  0  0  0
 11 13  1  0  0  0  0
 14 16  1  0  0  0  0
 14 11  2  0  0  0  0
 15  9  2  0  0  0  0
 15 14  1  0  0  0  0
 17 23  1  0  0  0  0
 18 19  1  0  0  0  0
 18 17  2  0  0  0  0
 19 20  2  0  0  0  0
 20 21  1  0  0  0  0
 21 22  1  0  0  0  0
 22 24  1  0  0  0  0
 22 25  1  0  0  0  0
 23 21  2  0  0  0  0
 23 26  1  0  0  0  0
 26 24  2  0  0  0  0
M  END
>  <Pose>
1

>  <Score>
-8.431

$$$$
