/Users/jonathanwahrer/Desktop/Msc/3_Semester/Drug_Design_Praktikum/waehrer_HTS_screening/HTS_experiment/out/docking_results/vina_output/3elj/2439_docked.pdbqt
 OpenBabel03192219053D

 30 34  0  0  1  0  0  0  0  0999 V2000
   23.1680    6.8600   30.9220 C   0  0  0  0  0  0  0  0  0  0  0  0
   21.8500    6.4410   31.1750 C   0  0  0  0  0  3  0  0  0  0  0  0
   21.1930    7.4210   31.7930 N   0  0  0  0  0  0  0  0  0  0  0  0
   19.9850    7.7410   32.3240 C   0  0  0  0  0  0  0  0  0  0  0  0
   20.0960    8.9980   32.8130 C   0  0  0  0  0  0  0  0  0  0  0  0
   21.3500    9.4070   32.5720 N   0  0  0  0  0  0  0  0  0  0  0  0
   22.0460    8.4370   31.9360 C   0  0  1  0  0  3  0  0  0  0  0  0
   23.2680    8.1070   31.4040 N   0  0  0  0  0  0  0  0  0  0  0  0
   19.0190    9.6140   33.4240 C   0  0  0  0  0  3  0  0  0  0  0  0
   17.8050    8.9560   33.5490 C   0  0  0  0  0  3  0  0  0  0  0  0
   17.6910    7.6670   33.0460 C   0  0  0  0  0  3  0  0  0  0  0  0
   18.7840    7.0860   32.4440 C   0  0  0  0  0  3  0  0  0  0  0  0
   21.7510   10.3420   32.8430 H   0  0  0  0  0  0  0  0  0  0  0  0
   24.4010    8.9720   31.4210 C   0  0  0  0  0  2  0  0  0  0  0  0
   24.6230    9.7790   30.1670 C   0  0  0  0  0  2  0  0  0  0  0  0
   24.5580   11.2360   30.2930 C   0  0  0  0  0  2  0  0  0  0  0  0
   23.5390   11.9640   29.5950 N   0  0  0  0  0  4  0  0  0  0  0  0
   22.2150   11.7300   30.1430 C   0  0  0  0  0  3  0  0  0  0  0  0
   21.7990   12.6130   31.2420 C   0  0  0  0  0  3  0  0  0  0  0  0
   22.6430   13.8050   31.4980 C   0  0  0  0  0  2  0  0  0  0  0  0
   23.2250   14.3350   30.2360 C   0  0  0  0  0  3  0  0  0  0  0  0
   23.8370   13.3270   29.3370 C   0  0  0  0  0  3  0  0  0  0  0  0
   23.4730   11.4920   28.6650 H   0  0  0  0  0  0  0  0  0  0  0  0
   24.1450    5.9830   30.2680 C   0  0  0  0  0  0  0  0  0  0  0  0
   24.4890    4.7890   30.9010 C   0  0  0  0  0  3  0  0  0  0  0  0
   25.3850    3.8760   30.3800 C   0  0  0  0  0  3  0  0  0  0  0  0
   25.9910    4.1160   29.1820 C   0  0  0  0  0  0  0  0  0  0  0  0
   27.2290    2.8930   28.4260 Br  0  0  0  0  0  0  0  0  0  0  0  0
   25.6750    5.2780   28.5350 C   0  0  0  0  0  3  0  0  0  0  0  0
   24.7550    6.2110   29.0740 C   0  0  0  0  0  3  0  0  0  0  0  0
  1  2  2  0  0  0  0
  1  8  1  0  0  0  0
  2  3  1  0  0  0  0
  3  7  1  0  0  0  0
  3  4  1  0  0  0  0
  4 12  2  0  0  0  0
  4  5  1  0  0  0  0
  5  9  2  0  0  0  0
  6  5  1  0  0  0  0
  6 13  1  0  0  0  0
  7  8  1  1  0  0  0
  7  6  1  0  0  0  0
  8 14  1  0  0  0  0
  9 10  1  0  0  0  0
 11 10  2  0  0  0  0
 12 11  1  0  0  0  0
 15 16  1  0  0  0  0
 15 14  1  0  0  0  0
 17 18  1  0  0  0  0
 17 16  1  0  0  0  0
 18 19  2  0  0  0  0
 19 20  1  0  0  0  0
 21 20  1  0  0  0  0
 22 17  1  0  0  0  0
 22 21  2  0  0  0  0
 23 17  1  0  0  0  0
 24 25  1  0  0  0  0
 24  1  1  0  0  0  0
 26 25  2  0  0  0  0
 27 26  1  0  0  0  0
 28 27  1  0  0  0  0
 29 30  1  0  0  0  0
 29 27  2  0  0  0  0
 30 24  2  0  0  0  0
M  END
>  <Pose>
1

>  <Score>
-9.206

$$$$
