/Users/jonathanwahrer/Desktop/Msc/3_Semester/Drug_Design_Praktikum/waehrer_HTS_screening/HTS_experiment/out/docking_results/vina_output/3elj/2447_docked.pdbqt
 OpenBabel03192219063D

 33 36  0  0  1  0  0  0  0  0999 V2000
   25.4080   13.9750   28.1310 C   0  0  1  0  0  3  0  0  0  0  0  0
   24.0740   14.6420   28.1620 C   0  0  0  0  0  0  0  0  0  0  0  0
   23.6080   15.2690   27.1810 O   0  0  0  0  0  0  0  0  0  0  0  0
   23.4050   14.5030   29.3760 O   0  0  0  0  0  0  0  0  0  0  0  0
   23.5600   13.4400   30.2400 C   0  0  0  0  0  3  0  0  0  0  0  0
   24.4220   12.4610   29.8870 C   0  0  0  0  0  0  0  0  0  0  0  0
   25.1270   12.5810   28.6290 C   0  0  0  0  0  0  0  0  0  0  0  0
   25.4920   11.5930   27.9710 O   0  0  0  0  0  0  0  0  0  0  0  0
   24.6300   11.2870   30.7460 C   0  0  0  0  0  2  0  0  0  0  0  0
   24.2390   10.0570   30.1930 N   0  0  0  0  0  0  0  0  0  0  0  0
   23.0410    9.9310   29.4790 C   0  0  0  0  0  2  0  0  0  0  0  0
   22.5830    8.4560   29.4500 C   0  0  0  0  0  2  0  0  0  0  0  0
   22.6830    8.0100   30.8160 N   0  0  0  0  0  0  0  0  0  0  0  0
   24.0480    7.8790   31.3060 C   0  0  0  0  0  2  0  0  0  0  0  0
   24.9350    8.8860   30.5860 C   0  0  0  0  0  2  0  0  0  0  0  0
   21.5540    7.7380   31.6140 C   0  0  0  0  0  0  0  0  0  0  0  0
   20.7360    8.7110   32.1410 C   0  0  0  0  0  3  0  0  0  0  0  0
   19.6430    8.3880   32.9110 C   0  0  0  0  0  0  0  0  0  0  0  0
   19.3070    7.0850   33.1990 C   0  0  0  0  0  3  0  0  0  0  0  0
   18.6450    9.6650   33.5510 Cl  0  0  0  0  0  0  0  0  0  0  0  0
   20.1040    6.0940   32.6880 C   0  0  0  0  0  3  0  0  0  0  0  0
   21.2070    6.4160   31.9110 C   0  0  0  0  0  3  0  0  0  0  0  0
   26.0250   13.9600   26.7770 C   0  0  0  0  0  2  0  0  0  0  0  0
   26.9610   15.0250   26.6820 N   0  0  0  0  0  0  0  0  0  0  0  0
   27.0510   15.6500   25.3850 C   0  0  0  0  0  2  0  0  0  0  0  0
   28.4030   15.2840   24.8030 C   0  0  0  0  0  2  0  0  0  0  0  0
   29.4160   15.9590   25.5430 N   0  0  0  0  0  0  0  0  0  0  0  0
   29.1080   16.0270   26.9350 C   0  0  0  0  0  2  0  0  0  0  0  0
   28.1860   14.8900   27.3770 C   0  0  0  0  0  2  0  0  0  0  0  0
   29.9490   17.4170   24.8520 S   0  0  0  0  0  0  0  0  0  0  0  0
   29.0210   17.9480   23.7810 O   0  0  0  0  0  0  0  0  0  0  0  0
   29.9690   18.4770   25.9460 O   0  0  0  0  0  0  0  0  0  0  0  0
   31.5680   17.3340   24.1830 C   0  0  0  0  0  1  0  0  0  0  0  0
  1 23  1  6  0  0  0
  1  2  1  0  0  0  0
  1  7  1  0  0  0  0
  2  4  1  0  0  0  0
  3  2  2  0  0  0  0
  4  5  1  0  0  0  0
  6  5  2  0  0  0  0
  6  9  1  0  0  0  0
  7  6  1  0  0  0  0
  8  7  2  0  0  0  0
 10 15  1  0  0  0  0
 10  9  1  0  0  0  0
 11 10  1  0  0  0  0
 12 11  1  0  0  0  0
 12 13  1  0  0  0  0
 13 14  1  0  0  0  0
 13 16  1  0  0  0  0
 15 14  1  0  0  0  0
 16 22  2  0  0  0  0
 16 17  1  0  0  0  0
 17 18  2  0  0  0  0
 18 19  1  0  0  0  0
 18 20  1  0  0  0  0
 21 19  2  0  0  0  0
 22 21  1  0  0  0  0
 24 23  1  0  0  0  0
 24 29  1  0  0  0  0
 25 24  1  0  0  0  0
 26 25  1  0  0  0  0
 26 27  1  0  0  0  0
 27 28  1  0  0  0  0
 28 29  1  0  0  0  0
 30 27  1  0  0  0  0
 30 32  2  0  0  0  0
 31 30  2  0  0  0  0
 33 30  1  0  0  0  0
M  END
>  <Pose>
1

>  <Score>
-8.113

$$$$
