3


 38 41  0  0  0  0  0  0  0  0999 V2000
    6.5585    6.8006  -13.7655 C   0  0  0  0  0  0  0  0  0  0  0  0
    7.6912    7.4809  -14.1367 N   0  0  0  0  0  0  0  0  0  0  0  0
    8.7409    6.7584  -13.8590 N   0  0  0  0  0  0  0  0  0  0  0  0
    8.4016    5.6037  -13.3122 N   0  0  0  0  0  0  0  0  0  0  0  0
    7.0597    5.6044  -13.2409 C   0  0  0  0  0  0  0  0  0  0  0  0
    9.3294    4.6018  -12.9356 C   0  0  0  0  0  0  0  0  0  0  0  0
   10.0838    4.5075  -11.8198 N   0  0  0  0  0  0  0  0  0  0  0  0
   10.8003    3.4155  -11.8611 O   0  0  0  0  0  0  0  0  0  0  0  0
   10.5645    2.7567  -12.9669 N   0  0  0  0  0  0  0  0  0  0  0  0
    9.6554    3.4641  -13.6582 C   0  0  0  0  0  0  0  0  0  0  0  0
    9.1383    3.0802  -14.9144 N   0  0  0  0  0  0  0  0  0  0  0  0
    8.4961    2.2686  -14.9642 H   0  0  0  0  0  0  0  0  0  0  0  0
    9.3748    3.5780  -15.7915 H   0  0  0  0  0  0  0  0  0  0  0  0
    4.0599    6.9318  -13.2112 N   0  0  0  0  0  0  0  0  0  0  0  0
    5.2014    7.2907  -13.9151 C   0  0  0  0  0  0  0  0  0  0  0  0
    5.0547    8.1812  -14.8345 O   0  0  0  0  0  0  0  0  0  0  0  0
    3.9849    6.2284  -12.4384 H   0  0  0  0  0  0  0  0  0  0  0  0
    1.7286    7.1748  -13.0624 C   0  0  0  0  0  0  0  0  0  0  0  0
    2.8339    7.5868  -13.5732 N   0  0  0  0  0  0  0  0  0  0  0  0
   -1.2257   11.5696  -13.3813 Br  0  0  0  0  0  0  0  0  0  0  0  0
   -1.0101    9.6944  -13.5427 C   0  0  0  0  0  0  0  0  0  0  0  0
   -2.0618    8.9173  -13.9316 C   0  0  0  0  0  0  0  0  0  0  0  0
   -1.8727    7.5420  -14.0399 C   0  0  0  0  0  0  0  0  0  0  0  0
   -0.6268    6.9943  -13.7511 C   0  0  0  0  0  0  0  0  0  0  0  0
    0.4336    7.7671  -13.3600 C   0  0  0  0  0  0  0  0  0  0  0  0
    0.2321    9.1255  -13.2571 C   0  0  0  0  0  0  0  0  0  0  0  0
    1.3127    9.8982  -12.8606 O   0  0  0  0  0  0  0  0  0  0  0  0
   -3.3134    6.4341  -14.5786 Br  0  0  0  0  0  0  0  0  0  0  0  0
   -3.3117    9.4433  -14.2244 O   0  0  0  0  0  0  0  0  0  0  0  0
    1.2153   10.9017  -12.7699 H   0  0  0  0  0  0  0  0  0  0  0  0
   -4.0722    8.8479  -14.5087 H   0  0  0  0  0  0  0  0  0  0  0  0
    6.2042    4.5253  -12.7385 C   0  0  0  0  0  0  0  0  0  0  0  0
    6.0931    3.3742  -13.6385 N   0  0  0  0  0  0  0  0  0  0  0  0
    4.7182    3.3299  -14.1737 C   0  0  0  0  0  0  0  0  0  0  0  0
    3.7396    3.5094  -13.0661 C   0  0  0  0  0  0  0  0  0  0  0  0
    3.9849    2.5868  -12.0790 O   0  0  0  0  0  0  0  0  0  0  0  0
    4.8963    1.6221  -12.4194 C   0  0  0  0  0  0  0  0  0  0  0  0
    6.2495    2.1428  -12.8285 C   0  0  0  0  0  0  0  0  0  0  0  0
 20 21  1  0  0  0
 21 22  2  0  0  0
 21 26  1  0  0  0
 22 23  1  0  0  0
 22 29  1  0  0  0
 23 24  2  0  0  0
 23 28  1  0  0  0
 24 25  1  0  0  0
 25 26  2  0  0  0
 25 18  1  0  0  0
 26 27  1  0  0  0
 18 19  2  0  0  0
 19 14  1  0  0  0
 14 15  1  0  0  0
 15 16  2  0  0  0
 15  1  1  0  0  0
  1  2  1  0  0  0
  1  5  2  0  0  0
  2  3  2  0  0  0
  3  4  1  0  0  0
  4  5  1  0  0  0
  4  6  1  0  0  0
  5 32  1  0  0  0
 32 33  1  0  0  0
 33 34  1  0  0  0
 33 38  1  0  0  0
 34 35  1  0  0  0
 35 36  1  0  0  0
 36 37  1  0  0  0
 37 38  1  0  0  0
  6  7  2  0  0  0
  6 10  1  0  0  0
  7  8  1  0  0  0
  8  9  1  0  0  0
  9 10  2  0  0  0
 10 11  1  0  0  0
 27 30  1  0  0  0
 14 17  1  0  0  0
 11 12  1  0  0  0
 11 13  1  0  0  0
 29 31  1  0  0  0
M  END
> <minimizedAffinity>
-7.88135

$$$$
708


 31 34  0  0  0  0  0  0  0  0999 V2000
   -5.0535   10.2755  -13.2718 C   0  0  0  0  0  0  0  0  0  0  0  0
   -6.4738    9.7911  -13.2700 C   0  0  0  0  0  0  0  0  0  0  0  0
   -7.1671   12.2636  -11.2717 Br  0  0  0  0  0  0  0  0  0  0  0  0
   -7.8355   11.8673  -13.0100 C   0  0  0  0  0  0  0  0  0  0  0  0
   -7.4304   10.7767  -13.7298 N   0  0  0  0  0  0  0  0  0  0  0  0
   -8.1237   10.8518  -14.8832 C   0  0  0  0  0  0  0  0  0  0  0  0
   -8.9476   11.9657  -14.8934 C   0  0  0  0  0  0  0  0  0  0  0  0
   -8.7387   12.5735  -13.7057 N   0  0  0  0  0  0  0  0  0  0  0  0
   -9.7609   12.2953  -15.9116 N   0  0  0  0  0  0  0  0  0  0  0  0
   -9.7559   11.4722  -16.9754 C   0  0  0  0  0  0  0  0  0  0  0  0
  -10.5105   11.7425  -17.9693 O   0  0  0  0  0  0  0  0  0  0  0  0
   -8.9721   10.3787  -17.0071 N   0  0  0  0  0  0  0  0  0  0  0  0
   -8.1469   10.0419  -15.9769 C   0  0  0  0  0  0  0  0  0  0  0  0
   -7.4274    9.0228  -16.0213 O   0  0  0  0  0  0  0  0  0  0  0  0
  -10.6174   13.4620  -15.9142 C   0  0  0  0  0  0  0  0  0  0  0  0
   -8.9563    9.7311  -17.8236 H   0  0  0  0  0  0  0  0  0  0  0  0
   -4.2901    9.9727  -14.5292 C   0  0  0  0  0  0  0  0  0  0  0  0
   -3.2279    9.0164  -14.2498 N   0  0  0  0  0  0  0  0  0  0  0  0
   -1.9583    9.2631  -13.8539 C   0  0  0  0  0  0  0  0  0  0  0  0
   -1.2700    8.0826  -13.6965 C   0  0  0  0  0  0  0  0  0  0  0  0
   -2.1468    7.1089  -14.0055 N   0  0  0  0  0  0  0  0  0  0  0  0
   -3.3243    7.6801  -14.3383 C   0  0  0  0  0  0  0  0  0  0  0  0
   -4.9242    6.7788  -14.8625 Br  0  0  0  0  0  0  0  0  0  0  0  0
    0.0174    8.0153  -13.3093 N   0  0  0  0  0  0  0  0  0  0  0  0
    0.6391    9.1959  -13.0696 C   0  0  0  0  0  0  0  0  0  0  0  0
    1.8526    9.1367  -12.7032 O   0  0  0  0  0  0  0  0  0  0  0  0
    0.0007   10.3763  -13.2117 N   0  0  0  0  0  0  0  0  0  0  0  0
   -1.2898   10.4317  -13.6001 C   0  0  0  0  0  0  0  0  0  0  0  0
   -1.9119   11.5125  -13.7415 O   0  0  0  0  0  0  0  0  0  0  0  0
    0.7082    6.7373  -13.1558 C   0  0  0  0  0  0  0  0  0  0  0  0
    0.5283   11.2494  -13.0130 H   0  0  0  0  0  0  0  0  0  0  0  0
  3  4  1  0  0  0
  4  5  1  0  0  0
  4  8  2  0  0  0
  5  6  1  0  0  0
  5  2  1  0  0  0
  6  7  2  0  0  0
  6 13  1  0  0  0
  7  8  1  0  0  0
  7  9  1  0  0  0
  9 10  1  0  0  0
  9 15  1  0  0  0
 10 11  2  0  0  0
 10 12  1  0  0  0
 12 13  1  0  0  0
 13 14  2  0  0  0
  2  1  1  0  0  0
  1 17  1  0  0  0
 17 18  1  0  0  0
 18 19  1  0  0  0
 18 22  1  0  0  0
 19 20  2  0  0  0
 19 28  1  0  0  0
 20 21  1  0  0  0
 20 24  1  0  0  0
 21 22  2  0  0  0
 22 23  1  0  0  0
 24 25  1  0  0  0
 24 30  1  0  0  0
 25 26  2  0  0  0
 25 27  1  0  0  0
 27 28  1  0  0  0
 28 29  2  0  0  0
 12 16  1  0  0  0
 27 31  1  0  0  0
M  END
> <minimizedAffinity>
-7.13394

$$$$
1808


 24 28  0  0  0  0  0  0  0  0999 V2000
    2.8611    7.3874  -12.6785 N   0  0  0  0  0  0  0  0  0  0  0  0
    1.6494    7.5404  -11.9560 C   0  0  0  0  0  0  0  0  0  0  0  0
    1.1999    6.6934  -11.1470 O   0  0  0  0  0  0  0  0  0  0  0  0
    1.0286    8.8429  -12.3177 C   0  0  0  0  0  0  0  0  0  0  0  0
    0.0193    8.7035  -13.4153 C   0  0  0  0  0  0  0  0  0  0  0  0
    0.1594    9.9568  -14.0516 O   0  0  0  0  0  0  0  0  0  0  0  0
    1.5304    9.8248  -14.3875 C   0  0  0  0  0  0  0  0  0  0  0  0
    2.1351    9.6101  -13.0429 C   0  0  0  0  0  0  0  0  0  0  0  0
    3.2849    8.6708  -13.1373 C   0  0  0  0  0  0  0  0  0  0  0  0
    4.4087    8.9731  -13.5470 O   0  0  0  0  0  0  0  0  0  0  0  0
    1.4810    8.5193  -15.0959 C   0  0  0  0  0  0  0  0  0  0  0  0
    0.5753    7.8025  -14.4371 C   0  0  0  0  0  0  0  0  0  0  0  0
    5.5889    2.0033  -13.5107 Br  0  0  0  0  0  0  0  0  0  0  0  0
    4.7310    3.6747  -13.2494 C   0  0  0  0  0  0  0  0  0  0  0  0
    3.4510    3.7082  -12.7514 C   0  0  0  0  0  0  0  0  0  0  0  0
    2.8529    4.9357  -12.5706 C   0  0  0  0  0  0  0  0  0  0  0  0
    3.4941    6.1165  -12.8736 C   0  0  0  0  0  0  0  0  0  0  0  0
    4.7877    6.0843  -13.3762 C   0  0  0  0  0  0  0  0  0  0  0  0
    5.3911    4.8380  -13.5570 C   0  0  0  0  0  0  0  0  0  0  0  0
   -1.3570    8.4321  -12.9820 C   0  0  0  0  0  0  0  0  0  0  0  0
   -2.0342    7.5604  -13.7900 O   0  0  0  0  0  0  0  0  0  0  0  0
   -3.0163    8.2487  -14.4572 C   0  0  0  0  0  0  0  0  0  0  0  0
   -2.9246    9.6668  -13.9983 C   0  0  0  0  0  0  0  0  0  0  0  0
   -2.1033    9.5921  -12.8789 O   0  0  0  0  0  0  0  0  0  0  0  0
 13 14  1  0  0  0
 14 15  2  0  0  0
 14 19  1  0  0  0
 15 16  1  0  0  0
 16 17  2  0  0  0
 17 18  1  0  0  0
 17  1  1  0  0  0
 18 19  2  0  0  0
  1  2  1  0  0  0
  1  9  1  0  0  0
  2  3  2  0  0  0
  2  4  1  0  0  0
  4  5  1  0  0  0
  4  8  1  0  0  0
  5  6  1  0  0  0
  5 12  1  0  0  0
  5 20  1  0  0  0
  6  7  1  0  0  0
  7  8  1  0  0  0
  7 11  1  0  0  0
  8  9  1  0  0  0
  9 10  2  0  0  0
 11 12  2  0  0  0
 20 21  1  0  0  0
 20 24  1  0  0  0
 21 22  1  0  0  0
 22 23  1  0  0  0
 23 24  1  0  0  0
M  END
> <minimizedAffinity>
-7.73134

$$$$
