/Users/jonathanwahrer/Desktop/Msc/3_Semester/Drug_Design_Praktikum/waehrer_HTS_screening/HTS_experiment/out/docking_results/vina_output/6s1j/0002_docked.pdbqt
 OpenBabel03222220543D

 38 41  0  0  0  0  0  0  0  0999 V2000
   16.7240  -55.0350   37.8670 C   0  0  0  0  0  0  0  0  0  0  0  0
   17.3760  -54.2670   38.8090 N   0  0  0  0  0  0  0  0  0  0  0  0
   18.3000  -53.5950   38.2010 N   0  0  0  0  0  0  0  0  0  0  0  0
   18.2790  -53.8990   36.8730 N   0  0  0  0  0  0  0  0  0  0  0  0
   17.3150  -54.7860   36.6360 C   0  0  0  0  0  0  0  0  0  0  0  0
   15.6240  -55.9070   38.2030 C   0  0  0  0  0  0  0  0  0  0  0  0
   15.4610  -57.2810   37.9940 N   0  0  0  0  0  0  0  0  0  0  0  0
   16.1330  -57.8920   37.5600 H   0  0  0  0  0  0  0  0  0  0  0  0
   14.6290  -55.3070   38.7980 O   0  0  0  0  0  0  0  0  0  0  0  0
   14.2250  -57.8550   38.4530 N   0  0  0  0  0  0  0  0  0  0  0  0
   13.8530  -59.0080   38.0390 C   0  0  0  0  0  3  0  0  0  0  0  0
   12.6000  -59.6360   38.4780 C   0  0  0  0  0  0  0  0  0  0  0  0
   11.8830  -59.1790   39.5650 C   0  0  0  0  0  3  0  0  0  0  0  0
   10.7020  -59.7770   39.9720 C   0  0  0  0  0  0  0  0  0  0  0  0
   10.1970  -60.8650   39.2940 C   0  0  0  0  0  0  0  0  0  0  0  0
    9.7100  -59.1410   41.4780 Br  0  0  0  0  0  0  0  0  0  0  0  0
   10.9120  -61.3270   38.2060 C   0  0  0  0  0  0  0  0  0  0  0  0
    9.0110  -61.4930   39.6770 O   0  0  0  0  0  1  0  0  0  0  0  0
   10.2340  -62.8430   37.2420 Br  0  0  0  0  0  0  0  0  0  0  0  0
   12.0880  -60.7260   37.8050 C   0  0  0  0  0  0  0  0  0  0  0  0
   12.8220  -61.1900   36.6980 O   0  0  0  0  0  0  0  0  0  0  0  0
   12.3970  -61.1780   35.7830 H   0  0  0  0  0  0  0  0  0  0  0  0
   16.9160  -55.3970   35.3680 C   0  0  0  0  0  2  0  0  0  0  0  0
   17.7700  -56.3340   34.7410 N   0  0  0  0  0  4  0  0  0  0  0  0
   17.8390  -56.1770   33.2960 C   0  0  0  0  0  2  0  0  0  0  0  0
   16.4920  -56.1420   32.6940 C   0  0  0  0  0  2  0  0  0  0  0  0
   15.4910  -56.8470   33.2250 O   0  0  0  0  0  0  0  0  0  0  0  0
   15.6980  -57.5580   34.3620 C   0  0  0  0  0  2  0  0  0  0  0  0
   17.0850  -57.6640   34.8500 C   0  0  0  0  0  2  0  0  0  0  0  0
   18.6760  -56.4080   35.1790 H   0  0  0  0  0  0  0  0  0  0  0  0
   19.2220  -53.2800   35.9950 C   0  0  0  0  0  0  0  0  0  0  0  0
   19.9510  -53.7610   34.9960 N   0  0  0  0  0  0  0  0  0  0  0  0
   20.6240  -52.7790   34.4950 O   0  0  0  0  0  0  0  0  0  0  0  0
   20.3810  -51.6640   35.1110 N   0  0  0  0  0  0  0  0  0  0  0  0
   19.5010  -51.9060   36.0730 C   0  0  0  0  0  0  0  0  0  0  0  0
   18.9250  -51.0140   37.0130 N   0  0  0  0  0  0  0  0  0  0  0  0
   18.1030  -51.3220   37.5740 H   0  0  0  0  0  0  0  0  0  0  0  0
   19.2980  -50.0340   37.1730 H   0  0  0  0  0  0  0  0  0  0  0  0
  1  6  1  0  0  0  0
  1  2  1  0  0  0  0
  3  2  2  0  0  0  0
  4  3  1  0  0  0  0
  5  4  1  0  0  0  0
  5  1  2  0  0  0  0
  6  9  2  0  0  0  0
  7  6  1  0  0  0  0
  7 10  1  0  0  0  0
  8  7  1  0  0  0  0
 11 10  2  0  0  0  0
 11 12  1  0  0  0  0
 12 13  1  0  0  0  0
 13 14  2  0  0  0  0
 14 16  1  0  0  0  0
 15 18  1  0  0  0  0
 15 14  1  0  0  0  0
 17 15  2  0  0  0  0
 19 17  1  0  0  0  0
 20 17  1  0  0  0  0
 20 12  2  0  0  0  0
 21 20  1  0  0  0  0
 22 21  1  0  0  0  0
 23  5  1  0  0  0  0
 24 29  1  0  0  0  0
 24 30  1  0  0  0  0
 24 23  1  0  0  0  0
 25 24  1  0  0  0  0
 26 27  1  0  0  0  0
 26 25  1  0  0  0  0
 27 28  1  0  0  0  0
 28 29  1  0  0  0  0
 31 35  1  0  0  0  0
 31  4  1  0  0  0  0
 32 31  2  0  0  0  0
 33 32  1  0  0  0  0
 33 34  1  0  0  0  0
 34 35  2  0  0  0  0
 35 36  1  0  0  0  0
 36 38  1  0  0  0  0
 36 37  1  0  0  0  0
M  END
>  <Pose>
1

>  <Score>
-8.923

$$$$
