/Users/jonathanwahrer/Desktop/Msc/3_Semester/Drug_Design_Praktikum/waehrer_HTS_screening/HTS_experiment/out/docking_results/vina_output/6s1j/0006_docked.pdbqt
 OpenBabel03222220553D

 34 37  0  0  0  0  0  0  0  0999 V2000
   17.3650  -55.7360   35.4420 N   0  0  0  0  0  0  0  0  0  0  0  0
   17.5760  -55.0520   36.5970 C   0  0  0  0  0  0  0  0  0  0  0  0
   18.8610  -54.5850   36.6380 C   0  0  0  0  0  0  0  0  0  0  0  0
   19.4240  -54.9960   35.4910 N   0  0  0  0  0  0  0  0  0  0  0  0
   18.5090  -55.7030   34.7550 C   0  0  0  0  0  0  0  0  0  0  0  0
   19.2690  -53.8610   37.7390 C   0  0  0  0  0  3  0  0  0  0  0  0
   18.4180  -53.5960   38.7990 C   0  0  0  0  0  3  0  0  0  0  0  0
   17.1240  -54.0810   38.7300 C   0  0  0  0  0  3  0  0  0  0  0  0
   16.7130  -54.8050   37.6290 C   0  0  0  0  0  3  0  0  0  0  0  0
   16.1600  -56.3760   35.0160 C   0  0  0  0  0  2  0  0  0  0  0  0
   15.6760  -57.4490   35.8500 C   0  0  0  0  0  0  0  0  0  0  0  0
   14.4050  -57.4370   36.4750 N   0  0  0  0  0  0  0  0  0  0  0  0
   13.8010  -56.6030   36.3160 H   0  0  0  0  0  0  0  0  0  0  0  0
   16.3940  -58.4570   36.0510 O   0  0  0  0  0  0  0  0  0  0  0  0
   13.9150  -58.4510   37.2810 N   0  0  0  0  0  0  0  0  0  0  0  0
   12.6860  -58.7990   37.3200 C   0  0  0  0  0  3  0  0  0  0  0  0
   12.2840  -59.8770   38.2030 C   0  0  0  0  0  0  0  0  0  0  0  0
   12.1040  -61.1320   37.7070 C   0  0  0  0  0  0  0  0  0  0  0  0
   11.7220  -62.1500   38.5550 C   0  0  0  0  0  0  0  0  0  0  0  0
   12.3010  -61.3960   36.3630 O   0  0  0  0  0  1  0  0  0  0  0  0
   11.4770  -63.8910   37.8440 Br  0  0  0  0  0  0  0  0  0  0  0  0
   11.5220  -61.8980   39.9010 C   0  0  0  0  0  3  0  0  0  0  0  0
   11.7080  -60.6250   40.3810 C   0  0  0  0  0  0  0  0  0  0  0  0
   12.0900  -59.5930   39.5590 C   0  0  0  0  0  3  0  0  0  0  0  0
   11.4290  -60.2920   42.2440 Br  0  0  0  0  0  0  0  0  0  0  0  0
   18.7960  -56.2890   33.4520 C   0  0  0  0  0  0  0  0  0  0  0  0
   19.0640  -55.6060   32.3320 N   0  0  0  0  0  0  0  0  0  0  0  0
   19.2740  -56.4640   31.3490 O   0  0  0  0  0  0  0  0  0  0  0  0
   19.1530  -57.6790   31.7820 N   0  0  0  0  0  0  0  0  0  0  0  0
   18.8520  -57.6180   33.0980 C   0  0  0  0  0  0  0  0  0  0  0  0
   18.6350  -58.7180   33.9620 N   0  0  0  0  0  4  0  0  0  0  0  0
   19.3650  -58.8120   34.6810 H   0  0  0  0  0  0  0  0  0  0  0  0
   18.7000  -59.5820   33.3570 H   0  0  0  0  0  0  0  0  0  0  0  0
   17.6710  -58.7180   34.3870 H   0  0  0  0  0  0  0  0  0  0  0  0
  1  2  1  0  0  0  0
  2  3  2  0  0  0  0
  2  9  1  0  0  0  0
  3  6  1  0  0  0  0
  4  3  1  0  0  0  0
  5  1  1  0  0  0  0
  5  4  2  0  0  0  0
  6  7  2  0  0  0  0
  8  7  1  0  0  0  0
  9  8  2  0  0  0  0
 10  1  1  0  0  0  0
 10 11  1  0  0  0  0
 11 14  2  0  0  0  0
 11 12  1  0  0  0  0
 12 15  1  0  0  0  0
 13 12  1  0  0  0  0
 15 16  2  0  0  0  0
 16 17  1  0  0  0  0
 17 24  1  0  0  0  0
 18 17  2  0  0  0  0
 18 19  1  0  0  0  0
 19 22  2  0  0  0  0
 20 18  1  0  0  0  0
 21 19  1  0  0  0  0
 22 23  1  0  0  0  0
 23 25  1  0  0  0  0
 24 23  2  0  0  0  0
 26  5  1  0  0  0  0
 27 26  2  0  0  0  0
 28 29  1  0  0  0  0
 28 27  1  0  0  0  0
 29 30  2  0  0  0  0
 30 26  1  0  0  0  0
 30 31  1  0  0  0  0
 31 34  1  0  0  0  0
 31 32  1  0  0  0  0
 33 31  1  0  0  0  0
M  END
>  <Pose>
1

>  <Score>
-8.596

$$$$
