/Users/jonathanwahrer/Desktop/Msc/3_Semester/Drug_Design_Praktikum/waehrer_HTS_screening/HTS_experiment/out/docking_results/vina_output/6s1j/0011_docked.pdbqt
 OpenBabel03222220563D

 36 39  0  0  0  0  0  0  0  0999 V2000
   17.8220  -55.0780   36.1280 N   0  0  0  0  0  0  0  0  0  0  0  0
   18.2030  -53.7780   36.4270 C   0  0  0  0  0  0  0  0  0  0  0  0
   17.4540  -53.3760   37.4680 C   0  0  0  0  0  0  0  0  0  0  0  0
   16.6590  -54.3860   37.7860 N   0  0  0  0  0  0  0  0  0  0  0  0
   16.8810  -55.4670   36.9450 C   0  0  0  0  0  0  0  0  0  0  0  0
   17.5740  -52.1180   38.0360 C   0  0  0  0  0  3  0  0  0  0  0  0
   18.5100  -51.2810   37.4780 C   0  0  0  0  0  3  0  0  0  0  0  0
   19.3030  -51.6410   36.4050 C   0  0  0  0  0  3  0  0  0  0  0  0
   19.1410  -52.9200   35.8740 C   0  0  0  0  0  3  0  0  0  0  0  0
   18.4610  -55.7700   35.0860 C   0  0  0  0  0  2  0  0  0  0  0  0
   17.7630  -55.5490   33.7260 C   0  0  0  0  0  0  0  0  0  0  0  0
   16.5560  -56.1660   33.6940 N   0  0  0  0  0  0  0  0  0  0  0  0
   16.3840  -55.6620   32.3930 H   0  0  0  0  0  0  0  0  0  0  0  0
   18.4340  -54.8680   32.9530 O   0  0  0  0  0  0  0  0  0  0  0  0
   15.4580  -56.7260   33.6610 N   0  0  0  0  0  2  0  0  0  0  0  0
   14.4240  -57.2950   33.7110 C   0  0  0  0  0  2  0  0  0  0  0  0
   14.0210  -58.6050   34.0910 C   0  0  0  0  0  0  0  0  0  0  0  0
   12.8340  -58.7960   34.8130 C   0  0  0  0  0  3  0  0  0  0  0  0
   12.3440  -60.0040   35.2140 C   0  0  0  0  0  0  0  0  0  0  0  0
   13.0920  -61.1580   34.8760 C   0  0  0  0  0  0  0  0  0  0  0  0
   14.2660  -61.0160   34.1700 C   0  0  0  0  0  0  0  0  0  0  0  0
   12.5950  -62.3640   35.2760 O   0  0  0  0  0  1  0  0  0  0  0  0
   15.2770  -62.5450   33.6760 Br  0  0  0  0  0  0  0  0  0  0  0  0
   14.7060  -59.7620   33.7930 C   0  0  0  0  0  3  0  0  0  0  0  0
   11.1690  -60.1770   35.9220 O   0  0  0  0  0  0  0  0  0  0  0  0
   11.0440  -59.8650   37.2670 C   0  0  0  0  0  2  0  0  0  0  0  0
   12.0470  -60.4980   38.1910 C   0  0  0  0  0  1  0  0  0  0  0  0
   16.0820  -56.6520   37.1990 C   0  0  0  0  0  0  0  0  0  0  0  0
   16.4820  -57.9220   36.7890 N   0  0  0  0  0  0  0  0  0  0  0  0
   15.6310  -58.7950   37.1470 O   0  0  0  0  0  0  0  0  0  0  0  0
   14.6670  -58.2480   37.7720 N   0  0  0  0  0  0  0  0  0  0  0  0
   14.9150  -56.8950   37.8270 C   0  0  0  0  0  0  0  0  0  0  0  0
   14.0380  -56.0030   38.4800 N   0  0  0  0  0  4  0  0  0  0  0  0
   14.6250  -55.1660   38.8540 H   0  0  0  0  0  0  0  0  0  0  0  0
   13.6700  -56.4330   39.3370 H   0  0  0  0  0  0  0  0  0  0  0  0
   13.4030  -55.5500   37.8280 H   0  0  0  0  0  0  0  0  0  0  0  0
  1  2  1  0  0  0  0
  1  5  1  0  0  0  0
  2  3  1  0  0  0  0
  3  4  1  0  0  0  0
  3  6  2  0  0  0  0
  5 28  1  0  0  0  0
  5  4  2  0  0  0  0
  7  6  1  0  0  0  0
  8  7  2  0  0  0  0
  9  8  1  0  0  0  0
  9  2  2  0  0  0  0
 10  1  1  0  0  0  0
 11 10  1  0  0  0  0
 12 11  1  0  0  0  0
 13 12  1  0  0  0  0
 14 11  2  0  0  0  0
 15 12  1  0  0  0  0
 15 16  1  0  0  0  0
 16 17  1  0  0  0  0
 17 18  1  0  0  0  0
 18 19  2  0  0  0  0
 19 25  1  0  0  0  0
 20 19  1  0  0  0  0
 20 22  1  0  0  0  0
 21 20  2  0  0  0  0
 23 21  1  0  0  0  0
 24 17  2  0  0  0  0
 24 21  1  0  0  0  0
 25 26  1  0  0  0  0
 26 27  1  0  0  0  0
 28 32  1  0  0  0  0
 29 30  1  0  0  0  0
 29 28  2  0  0  0  0
 30 31  1  0  0  0  0
 31 32  2  0  0  0  0
 32 33  1  0  0  0  0
 33 34  1  0  0  0  0
 33 35  1  0  0  0  0
 36 33  1  0  0  0  0
M  END
>  <Pose>
1

>  <Score>
-8.877

$$$$
