/Users/jonathanwahrer/Desktop/Msc/3_Semester/Drug_Design_Praktikum/waehrer_HTS_screening/HTS_experiment/out/docking_results/vina_output/6s1j/0020_docked.pdbqt
 OpenBabel03222220583D

 34 37  0  0  0  0  0  0  0  0999 V2000
   14.4330  -57.1970   38.3800 C   0  0  0  0  0  0  0  0  0  0  0  0
   13.4270  -57.8260   38.9580 N   0  0  0  0  0  4  0  0  0  0  0  0
   12.6250  -58.6690   38.2470 C   0  0  0  0  0  0  0  0  0  0  0  0
   12.9320  -58.8100   36.9360 N   0  0  0  0  0  0  0  0  0  0  0  0
   13.9420  -58.1950   36.2930 C   0  0  0  0  0  0  0  0  0  0  0  0
   14.6950  -57.3700   37.0560 N   0  0  0  0  0  2  0  0  0  0  0  0
   15.4740  -56.4370   39.1110 N   0  0  0  0  0  0  0  0  0  0  0  0
   15.7120  -56.7960   40.0150 H   0  0  0  0  0  0  0  0  0  0  0  0
   15.8870  -55.4310   38.3830 N   0  0  0  0  0  2  0  0  0  0  0  0
   16.2370  -54.5270   37.7430 C   0  0  0  0  0  2  0  0  0  0  0  0
   17.4430  -54.3640   36.9060 C   0  0  0  0  0  0  0  0  0  0  0  0
   17.8300  -55.2240   35.9190 C   0  0  0  0  0  3  0  0  0  0  0  0
   18.8470  -54.8880   35.0360 C   0  0  0  0  0  0  0  0  0  0  0  0
   19.4950  -53.6600   35.1500 C   0  0  0  0  0  0  0  0  0  0  0  0
   19.1230  -52.7940   36.1410 C   0  0  0  0  0  0  0  0  0  0  0  0
   19.9980  -51.0930   36.2860 Br  0  0  0  0  0  0  0  0  0  0  0  0
   18.1060  -53.1600   36.9950 C   0  0  0  0  0  3  0  0  0  0  0  0
   19.2860  -55.6900   34.0300 O   0  0  0  0  0  0  0  0  0  0  0  0
   18.6280  -56.1200   32.8910 C   0  0  0  0  0  2  0  0  0  0  0  0
   18.0640  -54.9730   32.0650 C   0  0  0  0  0  1  0  0  0  0  0  0
   20.5070  -53.2800   34.2940 O   0  0  0  0  0  0  0  0  0  0  0  0
   21.1100  -52.5080   34.4510 H   0  0  0  0  0  0  0  0  0  0  0  0
   11.5920  -59.4270   38.8470 N   0  0  0  0  0  0  0  0  0  0  0  0
   10.4310  -59.8380   38.0400 C   0  0  0  0  0  2  0  0  0  0  0  0
    9.1990  -59.5030   38.9190 C   0  0  0  0  0  2  0  0  0  0  0  0
    9.2800  -60.3750   39.9660 O   0  0  0  0  0  0  0  0  0  0  0  0
   10.3100  -60.1170   40.8270 C   0  0  0  0  0  2  0  0  0  0  0  0
   11.6280  -59.7720   40.2160 C   0  0  0  0  0  2  0  0  0  0  0  0
   14.2870  -58.5020   34.9890 N   0  0  0  0  0  0  0  0  0  0  0  0
   15.0390  -59.5830   34.4790 C   0  0  0  0  0  2  0  0  0  0  0  0
   16.2730  -58.9770   33.8040 C   0  0  0  0  0  2  0  0  0  0  0  0
   15.8320  -58.0660   32.8700 O   0  0  0  0  0  0  0  0  0  0  0  0
   15.1100  -57.0050   33.3680 C   0  0  0  0  0  2  0  0  0  0  0  0
   13.7770  -57.5450   33.9620 C   0  0  0  0  0  2  0  0  0  0  0  0
  1  2  2  0  0  0  0
  1  7  1  0  0  0  0
  3 23  1  0  0  0  0
  3  2  2  0  0  0  0
  4  3  1  0  0  0  0
  5  4  2  0  0  0  0
  5  6  1  0  0  0  0
  6  1  1  0  0  0  0
  7  8  1  0  0  0  0
  9  7  1  0  0  0  0
 10  9  1  0  0  0  0
 11 17  1  0  0  0  0
 11 10  1  0  0  0  0
 12 11  2  0  0  0  0
 13 14  2  0  0  0  0
 13 12  1  0  0  0  0
 14 15  1  0  0  0  0
 15 16  1  0  0  0  0
 15 17  2  0  0  0  0
 18 13  1  0  0  0  0
 19 18  1  0  0  0  0
 20 19  1  0  0  0  0
 21 22  1  0  0  0  0
 21 14  1  0  0  0  0
 23 28  1  0  0  0  0
 24 23  1  0  0  0  0
 24 25  1  0  0  0  0
 25 26  1  0  0  0  0
 26 27  1  0  0  0  0
 28 27  1  0  0  0  0
 29  5  1  0  0  0  0
 30 29  1  0  0  0  0
 31 30  1  0  0  0  0
 32 33  1  0  0  0  0
 32 31  1  0  0  0  0
 33 34  1  0  0  0  0
 34 29  1  0  0  0  0
M  END
>  <Pose>
1

>  <Score>
-8.269

$$$$
