/Users/jonathanwahrer/Desktop/Msc/3_Semester/Drug_Design_Praktikum/waehrer_HTS_screening/HTS_experiment/out/docking_results/vina_output/6s1j/0026_docked.pdbqt
 OpenBabel03222220583D

 29 32  0  0  1  0  0  0  0  0999 V2000
   17.5480  -57.8570   34.6830 C   0  0  2  0  0  3  0  0  0  0  0  0
   16.5690  -58.6050   34.0110 N   0  0  0  0  0  4  0  0  0  0  0  0
   15.2840  -58.7480   34.5830 C   0  0  1  0  0  3  0  0  0  0  0  0
   15.2030  -58.4950   36.0640 C   0  0  0  0  0  2  0  0  0  0  0  0
   15.9500  -57.2780   36.4620 C   0  0  0  0  0  0  0  0  0  0  0  0
   15.7280  -56.3310   37.4250 C   0  0  0  0  0  0  0  0  0  0  0  0
   16.7810  -55.4420   37.3020 C   0  0  0  0  0  0  0  0  0  0  0  0
   17.5960  -55.8560   36.2950 N   0  0  0  0  0  0  0  0  0  0  0  0
   17.0890  -56.9830   35.7780 C   0  0  0  0  0  0  0  0  0  0  0  0
   16.7970  -54.3730   38.1730 C   0  0  0  0  0  3  0  0  0  0  0  0
   15.8120  -54.1960   39.1210 C   0  0  0  0  0  3  0  0  0  0  0  0
   14.7630  -55.0840   39.2420 C   0  0  0  0  0  3  0  0  0  0  0  0
   14.7320  -56.1640   38.3760 C   0  0  0  0  0  3  0  0  0  0  0  0
   16.4470  -58.2840   33.0080 H   0  0  0  0  0  0  0  0  0  0  0  0
   16.9600  -59.5910   33.8650 H   0  0  0  0  0  0  0  0  0  0  0  0
   18.4530  -55.3180   36.0420 H   0  0  0  0  0  0  0  0  0  0  0  0
   18.2540  -56.9790   33.7080 C   0  0  0  0  0  0  0  0  0  0  0  0
   18.8790  -55.8100   34.0860 C   0  0  0  0  0  3  0  0  0  0  0  0
   19.4960  -55.0770   33.0960 C   0  0  0  0  0  0  0  0  0  0  0  0
   19.5200  -55.4490   31.7680 C   0  0  0  0  0  0  0  0  0  0  0  0
   20.3700  -53.4560   33.5860 Br  0  0  0  0  0  0  0  0  0  0  0  0
   18.8950  -56.6160   31.3980 C   0  0  0  0  0  0  0  0  0  0  0  0
   18.9050  -57.1630   29.5780 Br  0  0  0  0  0  0  0  0  0  0  0  0
   18.2620  -57.3740   32.3880 C   0  0  0  0  0  3  0  0  0  0  0  0
   20.1740  -54.6430   30.8150 O   0  0  0  0  0  0  0  0  0  0  0  0
   20.6160  -55.1050   30.0330 H   0  0  0  0  0  0  0  0  0  0  0  0
   14.2640  -57.8800   33.9320 C   0  0  0  0  0  0  0  0  0  0  0  0
   14.6470  -56.9060   33.1980 O   0  0  0  0  0  0  0  0  0  0  0  0
   12.9170  -58.1360   34.1310 O   0  0  0  0  0  1  0  0  0  0  0  0
  1 17  1  6  0  0  0
  1  9  1  0  0  0  0
  2  3  1  0  0  0  0
  2  1  1  0  0  0  0
  3 27  1  6  0  0  0
  3  4  1  0  0  0  0
  4  5  1  0  0  0  0
  5  6  1  0  0  0  0
  6 13  1  0  0  0  0
  7  6  2  0  0  0  0
  7 10  1  0  0  0  0
  8  7  1  0  0  0  0
  9  8  1  0  0  0  0
  9  5  2  0  0  0  0
 10 11  2  0  0  0  0
 11 12  1  0  0  0  0
 13 12  2  0  0  0  0
 14  2  1  0  0  0  0
 15  2  1  0  0  0  0
 16  8  1  0  0  0  0
 17 18  1  0  0  0  0
 19 21  1  0  0  0  0
 19 18  2  0  0  0  0
 20 19  1  0  0  0  0
 22 20  2  0  0  0  0
 22 24  1  0  0  0  0
 23 22  1  0  0  0  0
 24 17  2  0  0  0  0
 25 20  1  0  0  0  0
 26 25  1  0  0  0  0
 27 29  1  0  0  0  0
 28 27  2  0  0  0  0
M  END
>  <Pose>
1

>  <Score>
-9.945

$$$$
