/Users/jonathanwahrer/Desktop/Msc/3_Semester/Drug_Design_Praktikum/waehrer_HTS_screening/HTS_experiment/out/docking_results/vina_output/6s1j/0031_docked.pdbqt
 OpenBabel03222220593D

 24 27  0  0  1  0  0  0  0  0999 V2000
   16.3060  -52.1770   39.0740 Br  0  0  0  0  0  0  0  0  0  0  0  0
   17.5300  -52.5440   37.6390 C   0  0  0  0  0  0  0  0  0  0  0  0
   17.5000  -53.7190   36.9760 C   0  0  0  0  0  0  0  0  0  0  0  0
   18.4540  -54.0050   35.9570 C   0  0  0  0  0  0  0  0  0  0  0  0
   19.3870  -53.0640   35.6880 C   0  0  0  0  0  3  0  0  0  0  0  0
   19.4080  -51.8720   36.3870 C   0  0  0  0  0  3  0  0  0  0  0  0
   18.4910  -51.5990   37.3550 C   0  0  0  0  0  3  0  0  0  0  0  0
   18.5400  -55.4410   35.6290 C   0  0  0  0  0  2  0  0  0  0  0  0
   17.7970  -56.0020   34.5770 N   0  0  2  0  0  4  0  0  0  0  0  0
   17.0120  -55.2390   33.7430 C   0  0  0  0  0  2  0  0  0  0  0  0
   16.4470  -56.0220   32.6470 N   0  0  2  0  0  0  0  0  0  0  0  0
   15.6630  -57.0960   33.2350 C   0  0  0  0  0  2  0  0  0  0  0  0
   17.4460  -56.6400   31.8100 C   0  0  0  0  0  2  0  0  0  0  0  0
   16.4430  -57.9040   34.1490 N   0  0  2  0  0  0  0  0  0  0  0  0
   17.0570  -57.1640   35.1790 C   0  0  0  0  0  2  0  0  0  0  0  0
   17.4460  -58.6100   33.3790 C   0  0  0  0  0  2  0  0  0  0  0  0
   18.2820  -57.5520   32.7030 C   0  0  2  0  0  3  0  0  0  0  0  0
   18.8600  -56.6890   33.7630 C   0  0  0  0  0  2  0  0  0  0  0  0
   16.5720  -54.6580   37.2550 O   0  0  0  0  0  0  0  0  0  0  0  0
   16.5250  -55.3970   38.4920 C   0  0  0  0  0  2  0  0  0  0  0  0
   15.2270  -55.9200   38.9110 C   0  0  0  0  0  0  0  0  0  0  0  0
   14.3980  -55.3070   39.5690 O   0  0  0  0  0  0  0  0  0  0  0  0
   14.8930  -57.2140   38.4960 O   0  0  0  0  0  0  0  0  0  0  0  0
   13.6030  -57.5770   38.0830 C   0  0  0  0  0  1  0  0  0  0  0  0
  2  1  1  0  0  0  0
  3 19  1  0  0  0  0
  3  2  2  0  0  0  0
  4  3  1  0  0  0  0
  5  4  2  0  0  0  0
  5  6  1  0  0  0  0
  6  7  2  0  0  0  0
  7  2  1  0  0  0  0
  8  4  1  0  0  0  0
  9 15  1  0  0  0  0
  9  8  1  1  0  0  0
 10  9  1  0  0  0  0
 11 13  1  1  0  0  0
 11 12  1  0  0  0  0
 11 10  1  0  0  0  0
 14 12  1  6  0  0  0
 14 15  1  0  0  0  0
 16 14  1  0  0  0  0
 17 13  1  6  0  0  0
 17 16  1  0  0  0  0
 17 18  1  0  0  0  0
 18  9  1  0  0  0  0
 19 20  1  0  0  0  0
 20 21  1  0  0  0  0
 21 22  2  0  0  0  0
 23 21  1  0  0  0  0
 24 23  1  0  0  0  0
M  END
>  <Pose>
1

>  <Score>
-7.969

$$$$
