/Users/jonathanwahrer/Desktop/Msc/3_Semester/Drug_Design_Praktikum/waehrer_HTS_screening/HTS_experiment/out/docking_results/vina_output/6s1j/0035_docked.pdbqt
 OpenBabel03222220593D

 33 36  0  0  0  0  0  0  0  0999 V2000
   17.7450  -57.5100   33.3550 C   0  0  0  0  0  0  0  0  0  0  0  0
   16.6800  -57.4900   34.1620 N   0  0  0  0  0  4  0  0  0  0  0  0
   15.5720  -58.2380   33.9180 C   0  0  0  0  0  0  0  0  0  0  0  0
   15.5490  -59.0230   32.8290 N   0  0  0  0  0  0  0  0  0  0  0  0
   16.6020  -59.0670   32.0000 C   0  0  0  0  0  0  0  0  0  0  0  0
   17.6980  -58.2990   32.2780 N   0  0  0  0  0  2  0  0  0  0  0  0
   18.8670  -56.7150   33.6700 N   0  0  0  0  0  0  0  0  0  0  0  0
   19.8130  -57.1240   33.5220 H   0  0  0  0  0  0  0  0  0  0  0  0
   18.7320  -55.3910   34.1730 N   0  0  0  0  0  0  0  0  0  0  0  0
   19.1540  -55.0930   35.3570 C   0  0  0  0  0  3  0  0  0  0  0  0
   19.0630  -53.7830   35.9530 C   0  0  0  0  0  0  0  0  0  0  0  0
   18.1430  -53.4820   36.9290 C   0  0  0  0  0  0  0  0  0  0  0  0
   16.9710  -54.8770   37.4900 Br  0  0  0  0  0  0  0  0  0  0  0  0
   18.0540  -52.2210   37.4930 C   0  0  0  0  0  0  0  0  0  0  0  0
   18.9180  -51.2240   37.0670 C   0  0  0  0  0  3  0  0  0  0  0  0
   19.8480  -51.5000   36.0900 C   0  0  0  0  0  0  0  0  0  0  0  0
   19.9060  -52.7760   35.5500 C   0  0  0  0  0  3  0  0  0  0  0  0
   17.1170  -51.9490   38.4730 O   0  0  0  0  0  0  0  0  0  0  0  0
   16.2480  -52.4660   38.4620 H   0  0  0  0  0  0  0  0  0  0  0  0
   20.6910  -50.4740   35.6930 O   0  0  0  0  0  0  0  0  0  0  0  0
   21.2170  -49.8910   36.3300 H   0  0  0  0  0  0  0  0  0  0  0  0
   14.5020  -58.1390   34.8310 N   0  0  0  0  0  0  0  0  0  0  0  0
   13.1670  -58.4380   34.3880 C   0  0  0  0  0  2  0  0  0  0  0  0
   12.6650  -59.5400   35.3340 C   0  0  0  0  0  2  0  0  0  0  0  0
   12.6560  -58.9620   36.6040 O   0  0  0  0  0  0  0  0  0  0  0  0
   13.9410  -58.7190   37.0780 C   0  0  0  0  0  2  0  0  0  0  0  0
   14.6990  -57.7420   36.2030 C   0  0  0  0  0  2  0  0  0  0  0  0
   16.5850  -59.8970   30.8390 N   0  0  0  0  0  0  0  0  0  0  0  0
   17.4090  -59.6610   29.6780 C   0  0  0  0  0  2  0  0  0  0  0  0
   16.5990  -59.7980   28.4070 C   0  0  0  0  0  2  0  0  0  0  0  0
   15.2670  -60.0920   28.6550 O   0  0  0  0  0  0  0  0  0  0  0  0
   15.1950  -61.2830   29.4030 C   0  0  0  0  0  2  0  0  0  0  0  0
   15.6930  -61.0380   30.8140 C   0  0  0  0  0  2  0  0  0  0  0  0
  1  7  1  0  0  0  0
  1  2  2  0  0  0  0
  3  2  2  0  0  0  0
  3 22  1  0  0  0  0
  4  3  1  0  0  0  0
  5  6  1  0  0  0  0
  5  4  2  0  0  0  0
  6  1  1  0  0  0  0
  7  9  1  0  0  0  0
  8  7  1  0  0  0  0
  9 10  2  0  0  0  0
 10 11  1  0  0  0  0
 11 12  1  0  0  0  0
 12 13  1  0  0  0  0
 12 14  2  0  0  0  0
 14 18  1  0  0  0  0
 15 14  1  0  0  0  0
 16 15  2  0  0  0  0
 17 11  2  0  0  0  0
 17 16  1  0  0  0  0
 19 18  1  0  0  0  0
 20 16  1  0  0  0  0
 20 21  1  0  0  0  0
 22 27  1  0  0  0  0
 23 22  1  0  0  0  0
 23 24  1  0  0  0  0
 24 25  1  0  0  0  0
 25 26  1  0  0  0  0
 27 26  1  0  0  0  0
 28  5  1  0  0  0  0
 29 28  1  0  0  0  0
 30 31  1  0  0  0  0
 30 29  1  0  0  0  0
 31 32  1  0  0  0  0
 32 33  1  0  0  0  0
 33 28  1  0  0  0  0
M  END
>  <Pose>
1

>  <Score>
-8.914

$$$$
