/Users/jonathanwahrer/Desktop/Msc/3_Semester/Drug_Design_Praktikum/waehrer_HTS_screening/HTS_experiment/out/docking_results/vina_output/6s1j/0037_docked.pdbqt
 OpenBabel03222220593D

 27 30  0  0  1  0  0  0  0  0999 V2000
   14.8040  -57.6260   35.4100 N   0  0  0  0  0  0  0  0  0  0  0  0
   16.1650  -57.1660   35.5610 C   0  0  0  0  0  2  0  0  0  0  0  0
   16.7410  -57.4470   34.1900 C   0  0  1  0  0  3  0  0  0  0  0  0
   15.6360  -56.9180   33.2930 C   0  0  0  0  0  2  0  0  0  0  0  0
   14.4520  -57.3950   34.0580 C   0  0  0  0  0  0  0  0  0  0  0  0
   13.3170  -57.5630   33.5650 O   0  0  0  0  0  0  0  0  0  0  0  0
   18.0190  -56.7390   33.9670 C   0  0  0  0  0  0  0  0  0  0  0  0
   18.9590  -57.2770   33.3340 O   0  0  0  0  0  0  0  0  0  0  0  0
   18.1760  -55.4340   34.4790 N   0  0  0  0  0  0  0  0  0  0  0  0
   17.4060  -54.9830   35.0040 H   0  0  0  0  0  0  0  0  0  0  0  0
   19.4050  -54.7060   34.2820 C   0  0  0  0  0  2  0  0  0  0  0  0
   19.4460  -53.4800   35.1280 C   0  0  0  0  0  0  0  0  0  0  0  0
   18.6320  -53.1580   36.1640 N   0  0  0  0  0  0  0  0  0  0  0  0
   19.0000  -51.9670   36.6670 C   0  0  0  0  0  0  0  0  0  0  0  0
   17.4950  -53.7100   36.8780 C   0  0  0  0  0  2  0  0  0  0  0  0
   20.0580  -51.5720   35.9140 N   0  0  0  0  0  0  0  0  0  0  0  0
   18.1190  -51.5790   37.8170 C   0  0  0  0  0  2  0  0  0  0  0  0
   20.3260  -52.4750   34.9920 N   0  0  0  0  0  0  0  0  0  0  0  0
   16.9550  -52.5330   37.6630 C   0  0  0  0  0  2  0  0  0  0  0  0
   14.0320  -58.1830   36.4650 C   0  0  0  0  0  0  0  0  0  0  0  0
   13.3170  -59.3570   36.3640 C   0  0  0  0  0  3  0  0  0  0  0  0
   12.5710  -59.9090   37.3690 C   0  0  0  0  0  0  0  0  0  0  0  0
   12.5320  -59.2330   38.5830 C   0  0  0  0  0  0  0  0  0  0  0  0
   11.8120  -61.1810   37.2250 C   0  0  0  0  0  1  0  0  0  0  0  0
   11.5000  -59.9730   40.0040 Br  0  0  0  0  0  0  0  0  0  0  0  0
   13.2270  -58.0520   38.7470 C   0  0  0  0  0  3  0  0  0  0  0  0
   13.9670  -57.5350   37.7010 C   0  0  0  0  0  3  0  0  0  0  0  0
  1  2  1  0  0  0  0
  1 20  1  0  0  0  0
  3  7  1  6  0  0  0
  3  2  1  0  0  0  0
  4  5  1  0  0  0  0
  4  3  1  0  0  0  0
  5  1  1  0  0  0  0
  6  5  2  0  0  0  0
  7  9  1  0  0  0  0
  8  7  2  0  0  0  0
  9 10  1  0  0  0  0
 11  9  1  0  0  0  0
 11 12  1  0  0  0  0
 12 13  1  0  0  0  0
 13 14  1  0  0  0  0
 13 15  1  0  0  0  0
 14 17  1  0  0  0  0
 15 19  1  0  0  0  0
 16 14  2  0  0  0  0
 18 12  2  0  0  0  0
 18 16  1  0  0  0  0
 19 17  1  0  0  0  0
 20 27  1  0  0  0  0
 21 20  2  0  0  0  0
 21 22  1  0  0  0  0
 22 23  2  0  0  0  0
 23 26  1  0  0  0  0
 23 25  1  0  0  0  0
 24 22  1  0  0  0  0
 27 26  2  0  0  0  0
M  END
>  <Pose>
1

>  <Score>
-9.669

$$$$
