/Users/jonathanwahrer/Desktop/Msc/3_Semester/Drug_Design_Praktikum/waehrer_HTS_screening/HTS_experiment/out/docking_results/vina_output/6s1j/0039_docked.pdbqt
 OpenBabel03222220593D

 21 23  0  0  1  0  0  0  0  0999 V2000
   16.2810  -56.4130   37.3350 N   0  0  0  0  0  0  0  0  0  0  0  0
   15.0080  -56.8370   37.7180 C   0  0  0  0  0  0  0  0  0  0  0  0
   14.1710  -56.0430   38.1720 O   0  0  0  0  0  0  0  0  0  0  0  0
   16.9280  -57.1690   36.9580 H   0  0  0  0  0  0  0  0  0  0  0  0
   14.6570  -58.2630   37.5770 C   0  0  0  0  0  2  0  0  0  0  0  0
   14.2840  -58.6880   36.2670 N   0  0  1  0  0  4  0  0  0  0  0  0
   13.1740  -59.6430   36.4110 C   0  0  0  0  0  2  0  0  0  0  0  0
   12.4090  -59.6330   35.1100 C   0  0  0  0  0  2  0  0  0  0  0  0
   13.4150  -59.5370   34.0530 N   0  0  1  0  0  0  0  0  0  0  0  0
   13.7700  -58.1220   33.9800 C   0  0  0  0  0  2  0  0  0  0  0  0
   14.6140  -60.2470   34.4700 C   0  0  0  0  0  2  0  0  0  0  0  0
   13.8640  -57.5890   35.4020 C   0  0  0  0  0  2  0  0  0  0  0  0
   15.3160  -59.4140   35.5550 C   0  0  0  0  0  2  0  0  0  0  0  0
   16.8280  -55.1100   37.3820 C   0  0  0  0  0  0  0  0  0  0  0  0
   17.3070  -54.4980   36.2150 C   0  0  0  0  0  0  0  0  0  0  0  0
   17.1680  -55.5330   34.6010 Br  0  0  0  0  0  0  0  0  0  0  0  0
   17.8480  -53.2350   36.1970 C   0  0  0  0  0  3  0  0  0  0  0  0
   17.9530  -52.4830   37.3430 C   0  0  0  0  0  0  0  0  0  0  0  0
   17.4900  -53.0620   38.4990 C   0  0  0  0  0  3  0  0  0  0  0  0
   18.5400  -51.1080   37.3360 C   0  0  0  0  0  1  0  0  0  0  0  0
   16.9400  -54.3450   38.5240 C   0  0  0  0  0  3  0  0  0  0  0  0
  1 14  1  0  0  0  0
  1  2  1  0  0  0  0
  2  3  2  0  0  0  0
  4  1  1  0  0  0  0
  5  2  1  0  0  0  0
  6  7  1  0  0  0  0
  6  5  1  1  0  0  0
  8  7  1  0  0  0  0
  9 10  1  1  0  0  0
  9 11  1  0  0  0  0
  9  8  1  0  0  0  0
 10 12  1  0  0  0  0
 11 13  1  0  0  0  0
 12  6  1  0  0  0  0
 13  6  1  0  0  0  0
 14 21  1  0  0  0  0
 15 14  2  0  0  0  0
 16 15  1  0  0  0  0
 17 15  1  0  0  0  0
 17 18  2  0  0  0  0
 18 19  1  0  0  0  0
 19 21  2  0  0  0  0
 20 18  1  0  0  0  0
M  END
>  <Pose>
1

>  <Score>
-7.487

$$$$
