/Users/jonathanwahrer/Desktop/Msc/3_Semester/Drug_Design_Praktikum/waehrer_HTS_screening/HTS_experiment/out/docking_results/vina_output/6s1j/0081_docked.pdbqt
 OpenBabel03222221003D

 22 25  0  0  0  0  0  0  0  0999 V2000
   15.5770  -55.6700   38.4840 C   0  0  0  0  0  0  0  0  0  0  0  0
   15.4160  -54.4020   38.9050 N   0  0  0  0  0  0  0  0  0  0  0  0
   16.3620  -53.6320   38.3640 N   0  0  0  0  0  0  0  0  0  0  0  0
   17.1520  -54.3950   37.5820 C   0  0  0  0  0  0  0  0  0  0  0  0
   16.6500  -55.6400   37.6740 N   0  0  0  0  0  0  0  0  0  0  0  0
   18.2100  -53.8080   36.9150 C   0  0  0  0  0  0  0  0  0  0  0  0
   18.4900  -52.4600   37.0170 C   0  0  0  0  0  0  0  0  0  0  0  0
   19.5680  -52.1530   36.2680 N   0  0  0  0  0  0  0  0  0  0  0  0
   19.9750  -53.2690   35.6950 N   0  0  0  0  0  0  0  0  0  0  0  0
   19.1720  -54.3100   36.0630 C   0  0  0  0  0  3  0  0  0  0  0  0
   20.1980  -50.8540   36.0920 C   0  0  0  0  0  1  0  0  0  0  0  0
   17.6780  -51.7350   37.8070 N   0  0  0  0  0  0  0  0  0  0  0  0
   16.6400  -52.3190   38.4610 C   0  0  0  0  0  3  0  0  0  0  0  0
   14.7360  -56.8630   38.8450 C   0  0  0  0  0  2  0  0  0  0  0  0
   14.1970  -57.5030   37.6680 N   0  0  0  0  0  0  0  0  0  0  0  0
   13.2670  -58.4690   37.6850 C   0  0  0  0  0  0  0  0  0  0  0  0
   13.0300  -58.8030   36.3770 C   0  0  0  0  0  0  0  0  0  0  0  0
   12.5930  -59.0890   38.8700 C   0  0  0  0  0  1  0  0  0  0  0  0
   11.8110  -60.1140   35.7430 Br  0  0  0  0  0  0  0  0  0  0  0  0
   13.8280  -58.0290   35.5770 C   0  0  0  0  0  0  0  0  0  0  0  0
   14.5320  -57.2400   36.4200 N   0  0  0  0  0  0  0  0  0  0  0  0
   13.9190  -58.0350   34.0720 C   0  0  0  0  0  1  0  0  0  0  0  0
  1 14  1  0  0  0  0
  1  2  2  0  0  0  0
  3 13  1  0  0  0  0
  3  2  1  0  0  0  0
  4  5  2  0  0  0  0
  4  3  1  0  0  0  0
  5  1  1  0  0  0  0
  6  7  2  0  0  0  0
  6  4  1  0  0  0  0
  7 12  1  0  0  0  0
  8  7  1  0  0  0  0
  9 10  2  0  0  0  0
  9  8  1  0  0  0  0
 10  6  1  0  0  0  0
 11  8  1  0  0  0  0
 12 13  2  0  0  0  0
 15 16  1  0  0  0  0
 15 14  1  0  0  0  0
 16 18  1  0  0  0  0
 17 16  2  0  0  0  0
 19 17  1  0  0  0  0
 20 17  1  0  0  0  0
 20 21  2  0  0  0  0
 21 15  1  0  0  0  0
 22 20  1  0  0  0  0
M  END
>  <Pose>
1

>  <Score>
-8.522

$$$$
