/Users/jonathanwahrer/Desktop/Msc/3_Semester/Drug_Design_Praktikum/waehrer_HTS_screening/HTS_experiment/out/docking_results/vina_output/6s1j/0085_docked.pdbqt
 OpenBabel03222221003D

 26 29  0  0  0  0  0  0  0  0999 V2000
   17.9440  -54.6980   33.8050 C   0  0  0  0  0  0  0  0  0  0  0  0
   17.2600  -55.7200   33.1160 C   0  0  0  0  0  0  0  0  0  0  0  0
   16.0670  -56.3200   33.3780 N   0  0  0  0  0  0  0  0  0  0  0  0
   15.8730  -57.2040   32.4460 O   0  0  0  0  0  0  0  0  0  0  0  0
   16.8610  -57.2080   31.6070 N   0  0  0  0  0  0  0  0  0  0  0  0
   17.7650  -56.2930   31.9790 C   0  0  0  0  0  0  0  0  0  0  0  0
   18.9740  -55.9100   31.4330 C   0  0  0  0  0  0  0  0  0  0  0  0
   19.6420  -54.9090   32.1110 C   0  0  0  0  0  3  0  0  0  0  0  0
   19.1370  -54.3190   33.2680 C   0  0  0  0  0  3  0  0  0  0  0  0
   17.3250  -54.1800   34.9700 N   0  0  0  0  0  0  0  0  0  0  0  0
   17.8710  -54.1950   36.2500 C   0  0  0  0  0  0  0  0  0  0  0  0
   19.0370  -54.7060   36.4430 O   0  0  0  0  0  0  0  0  0  0  0  0
   16.3660  -53.7250   34.8910 H   0  0  0  0  0  0  0  0  0  0  0  0
   17.1900  -53.6500   37.4430 C   0  0  0  0  0  0  0  0  0  0  0  0
   16.2530  -54.2300   38.2330 C   0  0  0  0  0  0  0  0  0  0  0  0
   15.5060  -55.9850   38.1280 Br  0  0  0  0  0  0  0  0  0  0  0  0
   15.9100  -53.2830   39.2190 C   0  0  0  0  0  3  0  0  0  0  0  0
   16.6530  -52.2150   38.9560 N   0  0  0  0  0  0  0  0  0  0  0  0
   17.4280  -52.3790   37.9160 N   0  0  0  0  0  0  0  0  0  0  0  0
   18.3520  -51.4200   37.3680 C   0  0  0  0  0  1  0  0  0  0  0  0
   19.5060  -56.4900   30.2670 N   0  0  0  0  0  0  0  0  0  0  0  0
   20.4090  -57.6290   30.4080 C   0  0  0  0  0  2  0  0  0  0  0  0
   21.0230  -58.0170   29.0910 C   0  0  0  0  0  2  0  0  0  0  0  0
   21.3770  -56.9950   28.2740 O   0  0  0  0  0  0  0  0  0  0  0  0
   20.6570  -55.8370   28.3260 C   0  0  0  0  0  2  0  0  0  0  0  0
   19.2840  -56.1130   28.9040 C   0  0  0  0  0  2  0  0  0  0  0  0
  1 10  1  0  0  0  0
  2  3  2  0  0  0  0
  2  1  1  0  0  0  0
  4  3  1  0  0  0  0
  5  6  2  0  0  0  0
  5  4  1  0  0  0  0
  6  2  1  0  0  0  0
  7  6  1  0  0  0  0
  7  8  2  0  0  0  0
  8  9  1  0  0  0  0
  9  1  2  0  0  0  0
 10 11  1  0  0  0  0
 11 12  2  0  0  0  0
 11 14  1  0  0  0  0
 13 10  1  0  0  0  0
 14 19  1  0  0  0  0
 14 15  2  0  0  0  0
 15 17  1  0  0  0  0
 16 15  1  0  0  0  0
 18 17  2  0  0  0  0
 19 18  1  0  0  0  0
 20 19  1  0  0  0  0
 21 22  1  0  0  0  0
 21  7  1  0  0  0  0
 23 22  1  0  0  0  0
 24 25  1  0  0  0  0
 24 23  1  0  0  0  0
 25 26  1  0  0  0  0
 26 21  1  0  0  0  0
M  END
>  <Pose>
1

>  <Score>
-8.614

$$$$
