/Users/jonathanwahrer/Desktop/Msc/3_Semester/Drug_Design_Praktikum/waehrer_HTS_screening/HTS_experiment/out/docking_results/vina_output/6s1j/0095_docked.pdbqt
 OpenBabel03222221003D

 26 29  0  0  0  0  0  0  0  0999 V2000
   18.2750  -57.0070   34.7320 C   0  0  0  0  0  0  0  0  0  0  0  0
   19.0400  -58.0190   34.8360 O   0  0  0  0  0  0  0  0  0  0  0  0
   18.6160  -55.7830   34.2100 N   0  0  0  0  0  0  0  0  0  0  0  0
   19.8830  -56.2220   33.9750 H   0  0  0  0  0  0  0  0  0  0  0  0
   16.8660  -57.2070   35.2420 C   0  0  0  0  0  0  0  0  0  0  0  0
   16.5390  -56.9560   36.5500 C   0  0  0  0  0  3  0  0  0  0  0  0
   15.2190  -57.1700   36.9660 C   0  0  0  0  0  0  0  0  0  0  0  0
   14.7420  -56.8330   38.7670 Br  0  0  0  0  0  0  0  0  0  0  0  0
   14.2720  -57.6230   36.0810 C   0  0  0  0  0  3  0  0  0  0  0  0
   14.6020  -57.8750   34.7650 C   0  0  0  0  0  3  0  0  0  0  0  0
   15.9280  -57.6570   34.3520 C   0  0  0  0  0  0  0  0  0  0  0  0
   16.3360  -57.8880   33.0150 N   0  0  0  0  0  0  0  0  0  0  0  0
   16.3550  -56.9540   32.0840 N   0  0  0  0  0  0  0  0  0  0  0  0
   16.7760  -57.4440   30.9380 N   0  0  0  0  0  0  0  0  0  0  0  0
   17.0410  -58.7290   31.1130 N   0  0  0  0  0  0  0  0  0  0  0  0
   16.7670  -58.9950   32.3940 C   0  0  0  0  0  3  0  0  0  0  0  0
   18.9570  -54.5660   33.6900 C   0  0  0  0  0  2  0  0  0  0  0  0
   19.2730  -53.5120   34.7390 C   0  0  0  0  0  0  0  0  0  0  0  0
   18.4590  -53.1690   35.7620 N   0  0  0  0  0  0  0  0  0  0  0  0
   19.0300  -52.2120   36.5050 C   0  0  0  0  0  0  0  0  0  0  0  0
   17.2260  -53.6370   36.1060 C   0  0  0  0  0  3  0  0  0  0  0  0
   20.2170  -51.9630   35.9300 N   0  0  0  0  0  0  0  0  0  0  0  0
   18.3720  -51.6930   37.6280 C   0  0  0  0  0  3  0  0  0  0  0  0
   20.3670  -52.7520   34.8560 N   0  0  0  0  0  0  0  0  0  0  0  0
   17.1360  -52.1600   37.9790 C   0  0  0  0  0  3  0  0  0  0  0  0
   16.5480  -53.1460   37.2120 C   0  0  0  0  0  3  0  0  0  0  0  0
  1  2  2  0  0  0  0
  1  5  1  0  0  0  0
  3  1  1  0  0  0  0
  4  3  1  0  0  0  0
  5  6  1  0  0  0  0
  6  7  2  0  0  0  0
  7  8  1  0  0  0  0
  9  7  1  0  0  0  0
 10  9  2  0  0  0  0
 11 10  1  0  0  0  0
 11  5  2  0  0  0  0
 12 11  1  0  0  0  0
 13 12  1  0  0  0  0
 14 15  1  0  0  0  0
 14 13  2  0  0  0  0
 15 16  2  0  0  0  0
 16 12  1  0  0  0  0
 17  3  1  0  0  0  0
 17 18  1  0  0  0  0
 18 24  2  0  0  0  0
 18 19  1  0  0  0  0
 19 21  1  0  0  0  0
 19 20  1  0  0  0  0
 20 23  1  0  0  0  0
 21 26  2  0  0  0  0
 22 20  2  0  0  0  0
 23 25  2  0  0  0  0
 24 22  1  0  0  0  0
 26 25  1  0  0  0  0
M  END
>  <Pose>
1

>  <Score>
-9.344

$$$$
