/Users/jonathanwahrer/Desktop/Msc/3_Semester/Drug_Design_Praktikum/waehrer_HTS_screening/HTS_experiment/out/docking_results/vina_output/6s1j/0107_docked.pdbqt
 OpenBabel03222221013D

 31 34  0  0  0  0  0  0  0  0999 V2000
   15.6340  -57.7670   33.6330 C   0  0  0  0  0  0  0  0  0  0  0  0
   15.1550  -57.8730   34.8920 N   0  0  0  0  0  4  0  0  0  0  0  0
   14.5080  -58.9680   35.3070 C   0  0  0  0  0  0  0  0  0  0  0  0
   14.3390  -59.9780   34.4390 N   0  0  0  0  0  0  0  0  0  0  0  0
   14.7950  -59.9400   33.1590 C   0  0  0  0  0  0  0  0  0  0  0  0
   15.4420  -58.7950   32.8070 N   0  0  0  0  0  2  0  0  0  0  0  0
   16.3260  -56.6180   33.1600 N   0  0  0  0  0  0  0  0  0  0  0  0
   16.5840  -56.5210   32.1400 H   0  0  0  0  0  0  0  0  0  0  0  0
   16.7010  -55.5650   33.9950 N   0  0  0  0  0  0  0  0  0  0  0  0
   17.7580  -55.5660   34.7160 C   0  0  0  0  0  3  0  0  0  0  0  0
   18.1340  -54.4560   35.5840 C   0  0  0  0  0  0  0  0  0  0  0  0
   17.3030  -54.0090   36.5830 C   0  0  0  0  0  3  0  0  0  0  0  0
   17.6690  -52.9600   37.3960 C   0  0  0  0  0  0  0  0  0  0  0  0
   16.5150  -52.3410   38.7810 Br  0  0  0  0  0  0  0  0  0  0  0  0
   18.8880  -52.3120   37.2420 C   0  0  0  0  0  3  0  0  0  0  0  0
   19.7310  -52.7570   36.2360 C   0  0  0  0  0  3  0  0  0  0  0  0
   19.3470  -53.8230   35.4180 C   0  0  0  0  0  0  0  0  0  0  0  0
   20.1690  -54.2940   34.4010 O   0  0  0  0  0  0  0  0  0  0  0  0
   20.3600  -53.6280   33.1750 C   0  0  0  0  0  1  0  0  0  0  0  0
   14.0030  -59.0790   36.6300 N   0  0  0  0  0  0  0  0  0  0  0  0
   12.7750  -59.7800   36.9350 C   0  0  0  0  0  2  0  0  0  0  0  0
   11.9430  -59.0150   37.9530 C   0  0  0  0  0  2  0  0  0  0  0  0
   12.7490  -58.5580   39.0020 O   0  0  0  0  0  0  0  0  0  0  0  0
   13.7200  -57.6930   38.5570 C   0  0  0  0  0  2  0  0  0  0  0  0
   14.7180  -58.4810   37.7360 C   0  0  0  0  0  2  0  0  0  0  0  0
   14.6140  -61.0020   32.2540 N   0  0  0  0  0  0  0  0  0  0  0  0
   13.7310  -62.0900   32.5490 C   0  0  0  0  0  2  0  0  0  0  0  0
   14.5350  -63.3770   32.3720 C   0  0  0  0  0  2  0  0  0  0  0  0
   15.0420  -63.3640   31.0850 O   0  0  0  0  0  0  0  0  0  0  0  0
   15.9850  -62.3830   30.8880 C   0  0  0  0  0  2  0  0  0  0  0  0
   15.3240  -61.0100   31.0090 C   0  0  0  0  0  2  0  0  0  0  0  0
  1  2  2  0  0  0  0
  2  3  2  0  0  0  0
  3 20  1  0  0  0  0
  4  3  1  0  0  0  0
  5  4  2  0  0  0  0
  6  5  1  0  0  0  0
  6  1  1  0  0  0  0
  7  1  1  0  0  0  0
  7  9  1  0  0  0  0
  8  7  1  0  0  0  0
  9 10  2  0  0  0  0
 10 11  1  0  0  0  0
 11 12  1  0  0  0  0
 12 13  2  0  0  0  0
 13 14  1  0  0  0  0
 15 13  1  0  0  0  0
 16 15  2  0  0  0  0
 17 11  2  0  0  0  0
 17 16  1  0  0  0  0
 18 17  1  0  0  0  0
 19 18  1  0  0  0  0
 20 21  1  0  0  0  0
 20 25  1  0  0  0  0
 21 22  1  0  0  0  0
 22 23  1  0  0  0  0
 24 23  1  0  0  0  0
 25 24  1  0  0  0  0
 26 27  1  0  0  0  0
 26  5  1  0  0  0  0
 28 27  1  0  0  0  0
 29 28  1  0  0  0  0
 30 31  1  0  0  0  0
 30 29  1  0  0  0  0
 31 26  1  0  0  0  0
M  END
>  <Pose>
1

>  <Score>
-8.580

$$$$
