/Users/jonathanwahrer/Desktop/Msc/3_Semester/Drug_Design_Praktikum/waehrer_HTS_screening/HTS_experiment/out/docking_results/vina_output/6s1j/0111_docked.pdbqt
 OpenBabel03222221013D

 29 32  0  0  0  0  0  0  0  0999 V2000
   16.8580  -55.7890   34.3190 C   0  0  0  0  0  0  0  0  0  0  0  0
   16.0050  -56.6120   34.8890 N   0  0  0  0  0  0  0  0  0  0  0  0
   15.3500  -57.3550   33.9410 C   0  0  0  0  0  0  0  0  0  0  0  0
   15.8290  -56.9520   32.7430 N   0  0  0  0  0  0  0  0  0  0  0  0
   16.7120  -56.0350   32.9470 N   0  0  0  0  0  0  0  0  0  0  0  0
   14.4890  -58.1840   34.5360 N   0  0  0  0  0  0  0  0  0  0  0  0
   14.5880  -57.9710   35.8580 C   0  0  0  0  0  0  0  0  0  0  0  0
   15.5330  -56.9830   36.1060 C   0  0  0  0  0  0  0  0  0  0  0  0
   15.8170  -56.5560   37.3220 N   0  0  0  0  0  0  0  0  0  0  0  0
   15.1360  -57.1420   38.3560 C   0  0  0  0  0  0  0  0  0  0  0  0
   15.3290  -56.8130   39.5540 O   0  0  0  0  0  0  0  0  0  0  0  0
   14.2140  -58.1070   38.1530 N   0  0  0  0  0  0  0  0  0  0  0  0
   13.9230  -58.5350   36.9310 C   0  0  0  0  0  0  0  0  0  0  0  0
   13.0760  -59.4290   36.6770 O   0  0  0  0  0  0  0  0  0  0  0  0
   16.6990  -55.5020   37.7240 C   0  0  0  0  0  1  0  0  0  0  0  0
   13.7050  -58.5440   38.9510 H   0  0  0  0  0  0  0  0  0  0  0  0
   17.8180  -54.7890   34.6910 C   0  0  0  0  0  0  0  0  0  0  0  0
   17.7310  -53.8350   35.6590 C   0  0  0  0  0  3  0  0  0  0  0  0
   18.6750  -52.8960   35.9580 C   0  0  0  0  0  0  0  0  0  0  0  0
   18.3520  -51.6440   37.3610 Br  0  0  0  0  0  0  0  0  0  0  0  0
   19.8370  -52.8690   35.2450 C   0  0  0  0  0  3  0  0  0  0  0  0
   20.0120  -53.8050   34.2380 C   0  0  0  0  0  3  0  0  0  0  0  0
   19.0340  -54.7330   33.9720 C   0  0  0  0  0  0  0  0  0  0  0  0
   19.2490  -55.6500   32.9570 O   0  0  0  0  0  0  0  0  0  0  0  0
   19.8020  -55.3380   31.7170 C   0  0  0  0  0  1  0  0  0  0  0  0
   13.6150  -59.1320   33.9090 C   0  0  0  0  0  2  0  0  0  0  0  0
   14.4120  -60.3460   33.4790 C   0  0  0  0  0  2  0  0  0  0  0  0
   14.6660  -60.2400   32.1260 O   0  0  0  0  0  0  0  0  0  0  0  0
   16.0130  -60.5110   31.8300 C   0  0  0  0  0  1  0  0  0  0  0  0
  1 17  1  0  0  0  0
  1  2  1  0  0  0  0
  2  8  1  0  0  0  0
  3  6  1  0  0  0  0
  3  2  1  0  0  0  0
  4  5  1  0  0  0  0
  4  3  2  0  0  0  0
  5  1  2  0  0  0  0
  6  7  1  0  0  0  0
  7  8  2  0  0  0  0
  7 13  1  0  0  0  0
  8  9  1  0  0  0  0
  9 15  1  0  0  0  0
  9 10  1  0  0  0  0
 10 11  2  0  0  0  0
 12 10  1  0  0  0  0
 12 16  1  0  0  0  0
 13 12  1  0  0  0  0
 14 13  2  0  0  0  0
 17 18  1  0  0  0  0
 18 19  2  0  0  0  0
 19 20  1  0  0  0  0
 21 19  1  0  0  0  0
 22 21  2  0  0  0  0
 23 22  1  0  0  0  0
 23 17  2  0  0  0  0
 24 23  1  0  0  0  0
 25 24  1  0  0  0  0
 26  6  1  0  0  0  0
 27 26  1  0  0  0  0
 28 27  1  0  0  0  0
 29 28  1  0  0  0  0
M  END
>  <Pose>
1

>  <Score>
-8.889

$$$$
