/Users/jonathanwahrer/Desktop/Msc/3_Semester/Drug_Design_Praktikum/waehrer_HTS_screening/HTS_experiment/out/docking_results/vina_output/6s1j/0127_docked.pdbqt
 OpenBabel03222221013D

 29 32  0  0  0  0  0  0  0  0999 V2000
   15.8000  -55.7330   38.0130 N   0  0  0  0  0  0  0  0  0  0  0  0
   14.5660  -55.8930   38.6880 C   0  0  0  0  0  2  0  0  0  0  0  0
   13.5780  -56.7830   38.0370 C   0  0  0  0  0  2  0  0  0  0  0  0
   14.1540  -58.0510   37.7210 N   0  0  0  0  0  0  0  0  0  0  0  0
   15.5810  -58.1450   37.6060 C   0  0  0  0  0  2  0  0  0  0  0  0
   16.2550  -56.8410   37.2480 C   0  0  0  0  0  2  0  0  0  0  0  0
   13.3630  -59.2080   37.4910 C   0  0  0  0  0  0  0  0  0  0  0  0
   13.0050  -59.4810   36.2380 C   0  0  0  0  0  0  0  0  0  0  0  0
   13.2220  -58.8750   34.9770 N   0  0  0  0  0  0  0  0  0  0  0  0
   12.1840  -60.6960   36.0430 C   0  0  0  0  0  0  0  0  0  0  0  0
   12.5490  -59.7020   34.0480 N   0  0  0  0  0  0  0  0  0  0  0  0
   13.9690  -57.6710   34.7040 C   0  0  0  0  0  1  0  0  0  0  0  0
   11.9450  -60.7760   34.7430 C   0  0  0  0  0  0  0  0  0  0  0  0
   12.5420  -59.4900   33.0290 H   0  0  0  0  0  0  0  0  0  0  0  0
   11.1410  -61.8780   34.1510 C   0  0  0  0  0  1  0  0  0  0  0  0
   11.8200  -61.4960   37.1630 N   0  0  0  0  0  0  0  0  0  0  0  0
   12.1940  -61.1870   38.3560 C   0  0  0  0  0  3  0  0  0  0  0  0
   12.9770  -60.0430   38.6020 N   0  0  0  0  0  0  0  0  0  0  0  0
   13.3000  -59.7540   39.5410 H   0  0  0  0  0  0  0  0  0  0  0  0
   16.7900  -54.9750   38.6720 C   0  0  0  0  0  2  0  0  0  0  0  0
   16.7060  -53.5340   38.4260 C   0  0  0  0  0  0  0  0  0  0  0  0
   15.7760  -52.8760   38.9600 O   0  0  0  0  0  0  0  0  0  0  0  0
   17.7030  -52.9020   37.5680 C   0  0  0  0  0  0  0  0  0  0  0  0
   18.3150  -53.6110   36.5680 C   0  0  0  0  0  3  0  0  0  0  0  0
   19.2680  -53.0410   35.7340 C   0  0  0  0  0  0  0  0  0  0  0  0
   20.1150  -54.0270   34.3450 Br  0  0  0  0  0  0  0  0  0  0  0  0
   19.6120  -51.7190   35.9160 C   0  0  0  0  0  3  0  0  0  0  0  0
   18.9840  -51.0130   36.9340 C   0  0  0  0  0  3  0  0  0  0  0  0
   18.0430  -51.5820   37.7540 C   0  0  0  0  0  3  0  0  0  0  0  0
  1 20  1  0  0  0  0
  1  2  1  0  0  0  0
  3  2  1  0  0  0  0
  4  3  1  0  0  0  0
  5  4  1  0  0  0  0
  6  5  1  0  0  0  0
  6  1  1  0  0  0  0
  7  4  1  0  0  0  0
  7 18  1  0  0  0  0
  8  7  2  0  0  0  0
  9  8  1  0  0  0  0
 10  8  1  0  0  0  0
 10 16  1  0  0  0  0
 11 13  1  0  0  0  0
 11  9  1  0  0  0  0
 12  9  1  0  0  0  0
 13 10  2  0  0  0  0
 14 11  1  0  0  0  0
 15 13  1  0  0  0  0
 16 17  2  0  0  0  0
 17 18  1  0  0  0  0
 18 19  1  0  0  0  0
 21 20  1  0  0  0  0
 21 22  2  0  0  0  0
 23 29  1  0  0  0  0
 23 21  1  0  0  0  0
 24 23  2  0  0  0  0
 25 27  2  0  0  0  0
 25 24  1  0  0  0  0
 26 25  1  0  0  0  0
 27 28  1  0  0  0  0
 28 29  2  0  0  0  0
M  END
>  <Pose>
1

>  <Score>
-9.763

$$$$
