/Users/jonathanwahrer/Desktop/Msc/3_Semester/Drug_Design_Praktikum/waehrer_HTS_screening/HTS_experiment/out/docking_results/vina_output/6s1j/0129_docked.pdbqt
 OpenBabel03222221013D

 31 34  0  0  1  0  0  0  0  0999 V2000
   18.1450  -56.4570   32.5160 C   0  0  0  0  0  0  0  0  0  0  0  0
   16.8760  -56.5010   32.4540 O   0  0  0  0  0  0  0  0  0  0  0  0
   18.9210  -56.2790   31.3350 N   0  0  0  0  0  0  0  0  0  0  0  0
   20.3570  -56.3870   31.3260 C   0  0  0  0  0  2  0  0  0  0  0  0
   20.6040  -57.6380   30.4510 C   0  0  0  0  0  2  0  0  0  0  0  0
   20.3160  -57.1820   29.0460 C   0  0  2  0  0  0  0  0  0  0  0  0
   20.1710  -58.3930   28.2390 N   0  0  0  0  0  0  0  0  0  0  0  0
   21.3030  -59.2410   28.2920 C   0  0  0  0  0  2  0  0  0  0  0  0
   22.5520  -58.6050   27.7100 C   0  0  0  0  0  2  0  0  0  0  0  0
   22.5910  -57.1500   27.9510 C   0  0  0  0  0  0  0  0  0  0  0  0
   23.5540  -56.2640   27.6480 N   0  0  0  0  0  0  0  0  0  0  0  0
   23.1260  -55.0500   28.0590 C   0  0  0  0  0  3  0  0  0  0  0  0
   21.8970  -55.2020   28.6140 N   0  0  0  0  0  0  0  0  0  0  0  0
   21.5380  -56.4990   28.5640 C   0  0  0  0  0  0  0  0  0  0  0  0
   19.0830  -56.3650   28.8790 C   0  0  0  0  0  3  0  0  0  0  0  0
   18.2970  -55.9990   30.0920 C   0  0  0  0  0  3  0  0  0  0  0  0
   19.8660  -58.1790   27.2560 H   0  0  0  0  0  0  0  0  0  0  0  0
   21.4060  -54.3640   28.9870 H   0  0  0  0  0  0  0  0  0  0  0  0
   18.7400  -56.6110   33.8350 C   0  0  2  0  0  3  0  0  0  0  0  0
   18.5090  -58.0270   34.3410 C   0  0  0  0  0  1  0  0  0  0  0  0
   18.4010  -55.5870   34.7540 N   0  0  0  0  0  0  0  0  0  0  0  0
   19.2270  -54.5260   35.1120 C   0  0  0  0  0  0  0  0  0  0  0  0
   20.3390  -54.2200   34.7200 O   0  0  0  0  0  0  0  0  0  0  0  0
   17.4120  -55.6320   35.1460 H   0  0  0  0  0  0  0  0  0  0  0  0
   18.6270  -53.6300   36.1710 C   0  0  0  0  0  0  0  0  0  0  0  0
   17.5570  -54.1270   36.8830 C   0  0  0  0  0  3  0  0  0  0  0  0
   16.9520  -53.3350   37.8300 C   0  0  0  0  0  0  0  0  0  0  0  0
   15.4650  -54.0280   38.8400 Br  0  0  0  0  0  0  0  0  0  0  0  0
   17.3800  -52.0500   38.0910 C   0  0  0  0  0  3  0  0  0  0  0  0
   18.4650  -51.5970   37.3380 C   0  0  0  0  0  3  0  0  0  0  0  0
   19.0830  -52.3700   36.3930 C   0  0  0  0  0  3  0  0  0  0  0  0
  1 19  1  0  0  0  0
  2  1  2  0  0  0  0
  3  1  1  0  0  0  0
  4  3  1  0  0  0  0
  5  4  1  0  0  0  0
  6 15  1  6  0  0  0
  6  5  1  0  0  0  0
  7  8  1  0  0  0  0
  7  6  1  0  0  0  0
  9 10  1  0  0  0  0
  9  8  1  0  0  0  0
 10 14  2  0  0  0  0
 11 10  1  0  0  0  0
 11 12  2  0  0  0  0
 12 13  1  0  0  0  0
 13 18  1  0  0  0  0
 14 13  1  0  0  0  0
 14  6  1  0  0  0  0
 15 16  2  0  0  0  0
 16  3  1  0  0  0  0
 17  7  1  0  0  0  0
 19 20  1  1  0  0  0
 19 21  1  0  0  0  0
 21 22  1  0  0  0  0
 21 24  1  0  0  0  0
 22 25  1  0  0  0  0
 23 22  2  0  0  0  0
 25 31  2  0  0  0  0
 25 26  1  0  0  0  0
 26 27  2  0  0  0  0
 27 29  1  0  0  0  0
 27 28  1  0  0  0  0
 30 29  2  0  0  0  0
 31 30  1  0  0  0  0
M  END
>  <Pose>
1

>  <Score>
-9.447

$$$$
