/Users/jonathanwahrer/Desktop/Msc/3_Semester/Drug_Design_Praktikum/waehrer_HTS_screening/HTS_experiment/out/docking_results/vina_output/6s1j/0138_docked.pdbqt
 OpenBabel03222221023D

 25 28  0  0  1  0  0  0  0  0999 V2000
   18.4240  -56.1440   33.1800 C   0  0  2  0  0  3  0  0  0  0  0  0
   18.4990  -55.5420   31.8170 C   0  0  0  0  0  2  0  0  0  0  0  0
   18.5850  -56.7230   30.9410 N   0  0  0  0  0  0  0  0  0  0  0  0
   18.2470  -57.9130   31.7090 C   0  0  1  0  0  3  0  0  0  0  0  0
   17.5330  -57.3640   32.9060 C   0  0  0  0  0  2  0  0  0  0  0  0
   17.4290  -58.7770   30.8620 C   0  0  0  0  0  0  0  0  0  0  0  0
   16.5060  -59.4500   31.3370 O   0  0  0  0  0  0  0  0  0  0  0  0
   17.6980  -58.8500   29.4550 N   0  0  0  0  0  0  0  0  0  0  0  0
   18.9350  -58.2530   29.0130 C   0  0  1  0  0  3  0  0  0  0  0  0
   19.0380  -58.3090   27.5450 C   0  0  0  0  0  2  0  0  0  0  0  0
   18.0020  -59.3560   27.1860 C   0  0  0  0  0  2  0  0  0  0  0  0
   17.0260  -59.3890   28.3130 C   0  0  0  0  0  2  0  0  0  0  0  0
   18.9230  -56.8530   29.5630 C   0  0  0  0  0  0  0  0  0  0  0  0
   19.1950  -55.8620   28.8490 O   0  0  0  0  0  0  0  0  0  0  0  0
   17.9010  -55.2990   34.1890 N   0  0  0  0  0  0  0  0  0  0  0  0
   18.7700  -54.5560   35.0180 C   0  0  0  0  0  0  0  0  0  0  0  0
   20.0360  -54.6540   34.8470 O   0  0  0  0  0  0  0  0  0  0  0  0
   16.8780  -55.2170   34.3290 H   0  0  0  0  0  0  0  0  0  0  0  0
   18.3520  -53.6590   36.0810 C   0  0  0  0  0  0  0  0  0  0  0  0
   17.3570  -53.9710   36.9730 C   0  0  0  0  0  3  0  0  0  0  0  0
   16.9510  -53.1340   37.9810 C   0  0  0  0  0  0  0  0  0  0  0  0
   15.5680  -53.6000   39.1980 Br  0  0  0  0  0  0  0  0  0  0  0  0
   17.5630  -51.9070   38.1240 C   0  0  0  0  0  3  0  0  0  0  0  0
   18.5740  -51.5490   37.2470 C   0  0  0  0  0  3  0  0  0  0  0  0
   18.9580  -52.4350   36.2290 C   0  0  0  0  0  3  0  0  0  0  0  0
  1 15  1  1  0  0  0
  2  1  1  0  0  0  0
  3  4  1  0  0  0  0
  3  2  1  0  0  0  0
  4  5  1  1  0  0  0
  5  1  1  0  0  0  0
  6  7  2  0  0  0  0
  6  4  1  0  0  0  0
  8  6  1  0  0  0  0
  9 10  1  6  0  0  0
  9  8  1  0  0  0  0
  9 13  1  0  0  0  0
 11 10  1  0  0  0  0
 11 12  1  0  0  0  0
 12  8  1  0  0  0  0
 13  3  1  0  0  0  0
 14 13  2  0  0  0  0
 15 18  1  0  0  0  0
 15 16  1  0  0  0  0
 16 19  1  0  0  0  0
 17 16  2  0  0  0  0
 19 25  2  0  0  0  0
 19 20  1  0  0  0  0
 20 21  2  0  0  0  0
 21 23  1  0  0  0  0
 21 22  1  0  0  0  0
 24 23  2  0  0  0  0
 25 24  1  0  0  0  0
M  END
>  <Pose>
1

>  <Score>
-8.929

$$$$
