/Users/jonathanwahrer/Desktop/Msc/3_Semester/Drug_Design_Praktikum/waehrer_HTS_screening/HTS_experiment/out/docking_results/vina_output/6s1j/0152_docked.pdbqt
 OpenBabel03222221023D

 27 30  0  0  0  0  0  0  0  0999 V2000
   19.4520  -52.9290   36.0880 C   0  0  0  0  0  3  0  0  0  0  0  0
   19.2140  -53.6950   35.0170 C   0  0  0  0  0  0  0  0  0  0  0  0
   18.1600  -54.4900   34.8330 O   0  0  0  0  0  0  0  0  0  0  0  0
   18.2430  -55.1150   33.5630 C   0  0  0  0  0  0  0  0  0  0  0  0
   19.3590  -54.7250   32.9030 C   0  0  0  0  0  0  0  0  0  0  0  0
   19.5490  -55.1930   31.6060 C   0  0  0  0  0  3  0  0  0  0  0  0
   18.6470  -56.0360   31.0350 C   0  0  0  0  0  3  0  0  0  0  0  0
   17.5340  -56.4400   31.7460 C   0  0  0  0  0  0  0  0  0  0  0  0
   17.2790  -56.0130   33.0270 C   0  0  0  0  0  0  0  0  0  0  0  0
   16.6420  -57.3140   31.1220 O   0  0  0  0  0  1  0  0  0  0  0  0
   20.0560  -53.7900   33.8170 C   0  0  0  0  0  0  0  0  0  0  0  0
   21.1370  -53.2090   33.6070 O   0  0  0  0  0  0  0  0  0  0  0  0
   18.4830  -52.9070   37.2160 C   0  0  0  0  0  0  0  0  0  0  0  0
   17.7940  -54.0840   37.5460 C   0  0  0  0  0  3  0  0  0  0  0  0
   16.6320  -54.0610   38.3290 C   0  0  0  0  0  0  0  0  0  0  0  0
   15.7700  -55.7250   38.6900 Br  0  0  0  0  0  0  0  0  0  0  0  0
   16.1380  -52.8990   38.7960 C   0  0  0  0  0  3  0  0  0  0  0  0
   16.8060  -51.6840   38.4890 C   0  0  0  0  0  3  0  0  0  0  0  0
   17.9750  -51.7350   37.7000 C   0  0  0  0  0  3  0  0  0  0  0  0
   16.4710  -56.6600   34.0410 C   0  0  0  0  0  2  0  0  0  0  0  0
   15.8050  -57.8040   34.2960 N   0  0  0  0  0  4  0  0  0  0  0  0
   15.6280  -58.4240   35.5350 C   0  0  0  0  0  2  0  0  0  0  0  0
   14.2920  -58.0730   36.2260 C   0  0  0  0  0  2  0  0  0  0  0  0
   13.1890  -58.5390   35.5510 O   0  0  0  0  0  0  0  0  0  0  0  0
   13.3880  -58.3940   34.1740 C   0  0  0  0  0  2  0  0  0  0  0  0
   14.3730  -57.4010   33.8410 C   0  0  0  0  0  2  0  0  0  0  0  0
   16.0820  -58.5560   33.5590 H   0  0  0  0  0  0  0  0  0  0  0  0
  1 13  1  0  0  0  0
  2  1  2  0  0  0  0
  3  2  1  0  0  0  0
  4  3  1  0  0  0  0
  5  4  2  0  0  0  0
  5 11  1  0  0  0  0
  6  5  1  0  0  0  0
  7  6  2  0  0  0  0
  7  8  1  0  0  0  0
  8  9  2  0  0  0  0
  9  4  1  0  0  0  0
  9 20  1  0  0  0  0
 10  8  1  0  0  0  0
 11  2  1  0  0  0  0
 12 11  2  0  0  0  0
 13 14  2  0  0  0  0
 13 19  1  0  0  0  0
 14 15  1  0  0  0  0
 15 16  1  0  0  0  0
 15 17  2  0  0  0  0
 18 17  1  0  0  0  0
 19 18  2  0  0  0  0
 20 21  1  0  0  0  0
 21 22  1  0  0  0  0
 22 23  1  0  0  0  0
 24 23  1  0  0  0  0
 25 24  1  0  0  0  0
 26 25  1  0  0  0  0
 26 21  1  0  0  0  0
 27 21  1  0  0  0  0
M  END
>  <Pose>
1

>  <Score>
-10.860

$$$$
