/Users/jonathanwahrer/Desktop/Msc/3_Semester/Drug_Design_Praktikum/waehrer_HTS_screening/HTS_experiment/out/docking_results/vina_output/6s1j/0167_docked.pdbqt
 OpenBabel03222221033D

 35 38  0  0  1  0  0  0  0  0999 V2000
   18.2210  -59.6180   29.7910 C   0  0  1  0  0  3  0  0  0  0  0  0
   19.2100  -59.1630   28.8870 N   0  0  0  0  0  0  0  0  0  0  0  0
   19.4360  -57.7770   29.0820 C   0  0  0  0  0  0  0  0  0  0  0  0
   20.1950  -57.0540   28.3650 O   0  0  0  0  0  0  0  0  0  0  0  0
   18.6660  -57.3430   30.2280 C   0  0  0  0  0  0  0  0  0  0  0  0
   18.6830  -56.1450   30.6220 O   0  0  0  0  0  0  0  0  0  0  0  0
   17.9560  -58.5010   30.7350 C   0  0  0  0  0  0  0  0  0  0  0  0
   17.1890  -58.4980   31.8020 C   0  0  0  0  0  0  0  0  0  0  0  0
   16.5120  -59.6460   32.1440 O   0  0  0  0  0  1  0  0  0  0  0  0
   17.0100  -60.0380   29.0790 C   0  0  0  0  0  0  0  0  0  0  0  0
   16.5120  -61.3070   29.3190 C   0  0  0  0  0  3  0  0  0  0  0  0
   15.3930  -61.8400   28.7570 C   0  0  0  0  0  0  0  0  0  0  0  0
   14.7500  -63.5990   29.1260 Br  0  0  0  0  0  0  0  0  0  0  0  0
   14.6920  -61.0200   27.8560 C   0  0  0  0  0  3  0  0  0  0  0  0
   15.1650  -59.7460   27.5940 C   0  0  0  0  0  3  0  0  0  0  0  0
   16.3050  -59.2370   28.1840 C   0  0  0  0  0  3  0  0  0  0  0  0
   17.0500  -57.3190   32.6200 C   0  0  0  0  0  0  0  0  0  0  0  0
   17.7980  -57.0810   33.7860 C   0  0  0  0  0  0  0  0  0  0  0  0
   17.4590  -55.8870   34.2880 N   0  0  0  0  0  0  0  0  0  0  0  0
   18.8030  -58.0360   34.3380 C   0  0  0  0  0  1  0  0  0  0  0  0
   16.5400  -55.3780   33.4890 N   0  0  0  0  0  0  0  0  0  0  0  0
   16.2670  -56.2090   32.4710 C   0  0  0  0  0  3  0  0  0  0  0  0
   17.9860  -55.2600   35.4490 C   0  0  0  0  0  0  0  0  0  0  0  0
   19.2580  -54.7060   35.3900 C   0  0  0  0  0  3  0  0  0  0  0  0
   19.8290  -54.0730   36.4760 C   0  0  0  0  0  3  0  0  0  0  0  0
   19.1420  -53.9640   37.6860 C   0  0  0  0  0  3  0  0  0  0  0  0
   17.8750  -54.5160   37.7450 C   0  0  0  0  0  3  0  0  0  0  0  0
   17.3310  -55.1400   36.6520 C   0  0  0  0  0  3  0  0  0  0  0  0
   19.9470  -59.9810   27.8830 C   0  0  0  0  0  2  0  0  0  0  0  0
   21.2700  -60.4160   28.4590 C   0  0  0  0  0  2  0  0  0  0  0  0
   21.4000  -61.9000   28.6000 C   0  0  0  0  0  2  0  0  0  0  0  0
   21.0960  -62.4410   29.8840 N   0  0  0  0  0  4  0  0  0  0  0  0
   19.8480  -63.1200   30.0070 C   0  0  0  0  0  1  0  0  0  0  0  0
   22.1540  -63.3730   30.3040 C   0  0  0  0  0  1  0  0  0  0  0  0
   21.1290  -61.6650   30.6130 H   0  0  0  0  0  0  0  0  0  0  0  0
  1 10  1  6  0  0  0
  1  7  1  0  0  0  0
  2  3  1  0  0  0  0
  2  1  1  0  0  0  0
  3  5  1  0  0  0  0
  4  3  2  0  0  0  0
  5  6  2  0  0  0  0
  5  7  1  0  0  0  0
  7  8  2  0  0  0  0
  8  9  1  0  0  0  0
  8 17  1  0  0  0  0
 10 11  1  0  0  0  0
 12 13  1  0  0  0  0
 12 11  2  0  0  0  0
 14 12  1  0  0  0  0
 15 14  2  0  0  0  0
 15 16  1  0  0  0  0
 16 10  2  0  0  0  0
 17 18  2  0  0  0  0
 18 19  1  0  0  0  0
 18 20  1  0  0  0  0
 19 23  1  0  0  0  0
 21 19  1  0  0  0  0
 22 17  1  0  0  0  0
 22 21  2  0  0  0  0
 23 28  1  0  0  0  0
 24 23  2  0  0  0  0
 24 25  1  0  0  0  0
 25 26  2  0  0  0  0
 26 27  1  0  0  0  0
 28 27  2  0  0  0  0
 29 30  1  0  0  0  0
 29  2  1  0  0  0  0
 30 31  1  0  0  0  0
 31 32  1  0  0  0  0
 32 33  1  0  0  0  0
 32 34  1  0  0  0  0
 32 35  1  0  0  0  0
M  END
>  <Pose>
1

>  <Score>
-7.631

$$$$
