/Users/jonathanwahrer/Desktop/Msc/3_Semester/Drug_Design_Praktikum/waehrer_HTS_screening/HTS_experiment/out/docking_results/vina_output/6s1j/0169_docked.pdbqt
 OpenBabel03222221043D

 37 40  0  0  1  0  0  0  0  0999 V2000
   16.0840  -59.1500   34.6150 C   0  0  2  0  0  3  0  0  0  0  0  0
   14.9060  -58.4150   35.0340 N   0  0  0  0  0  0  0  0  0  0  0  0
   14.5310  -57.6030   33.9310 C   0  0  0  0  0  0  0  0  0  0  0  0
   13.3930  -57.1560   33.6670 O   0  0  0  0  0  0  0  0  0  0  0  0
   15.7550  -57.3770   33.1310 C   0  0  0  0  0  0  0  0  0  0  0  0
   15.8620  -56.7080   32.0800 O   0  0  0  0  0  0  0  0  0  0  0  0
   16.8140  -58.0940   33.8290 C   0  0  0  0  0  0  0  0  0  0  0  0
   18.0800  -57.8130   33.7840 C   0  0  0  0  0  0  0  0  0  0  0  0
   18.9580  -58.5800   34.5790 O   0  0  0  0  0  1  0  0  0  0  0  0
   15.6540  -60.2520   33.7210 C   0  0  0  0  0  0  0  0  0  0  0  0
   14.4200  -60.8720   33.8700 C   0  0  0  0  0  3  0  0  0  0  0  0
   14.0180  -61.9030   33.0480 C   0  0  0  0  0  0  0  0  0  0  0  0
   12.3090  -62.7100   33.3080 Br  0  0  0  0  0  0  0  0  0  0  0  0
   14.8270  -62.3670   32.0350 C   0  0  0  0  0  3  0  0  0  0  0  0
   16.0560  -61.7680   31.8680 C   0  0  0  0  0  3  0  0  0  0  0  0
   16.4490  -60.7380   32.6950 C   0  0  0  0  0  3  0  0  0  0  0  0
   18.6910  -56.7680   32.9760 C   0  0  0  0  0  0  0  0  0  0  0  0
   18.9630  -55.4590   33.1930 C   0  0  0  0  0  0  0  0  0  0  0  0
   19.5940  -54.9740   32.1040 N   0  0  0  0  0  0  0  0  0  0  0  0
   18.6030  -54.6290   34.3910 C   0  0  0  0  0  1  0  0  0  0  0  0
   19.7470  -55.9200   31.1690 C   0  0  0  0  0  0  0  0  0  0  0  0
   19.9220  -53.9690   32.0080 H   0  0  0  0  0  0  0  0  0  0  0  0
   19.1890  -57.0570   31.6900 C   0  0  0  0  0  0  0  0  0  0  0  0
   19.1240  -58.3810   31.0000 C   0  0  0  0  0  1  0  0  0  0  0  0
   20.3870  -55.7700   29.8460 C   0  0  0  0  0  0  0  0  0  0  0  0
   21.6210  -55.6760   29.7780 O   0  0  0  0  0  0  0  0  0  0  0  0
   19.6250  -55.7330   28.6940 O   0  0  0  0  0  0  0  0  0  0  0  0
   19.7020  -56.7000   27.6730 C   0  0  0  0  0  1  0  0  0  0  0  0
   14.2300  -58.4840   36.3320 C   0  0  0  0  0  2  0  0  0  0  0  0
   15.2290  -58.4760   37.4680 C   0  0  0  0  0  2  0  0  0  0  0  0
   15.5220  -57.1740   37.9730 N   0  0  0  0  0  4  0  0  0  0  0  0
   14.3450  -56.3340   38.1560 C   0  0  0  0  0  2  0  0  0  0  0  0
   14.7270  -55.2170   39.0890 C   0  0  0  0  0  2  0  0  0  0  0  0
   16.0860  -55.0310   39.0450 O   0  0  0  0  0  0  0  0  0  0  0  0
   16.6260  -55.0700   37.7710 C   0  0  0  0  0  2  0  0  0  0  0  0
   16.3990  -56.4180   37.0880 C   0  0  0  0  0  2  0  0  0  0  0  0
   16.0380  -57.2610   38.8670 H   0  0  0  0  0  0  0  0  0  0  0  0
  1 10  1  6  0  0  0
  1  2  1  0  0  0  0
  2 29  1  0  0  0  0
  3  2  1  0  0  0  0
  4  3  2  0  0  0  0
  5  7  1  0  0  0  0
  5  3  1  0  0  0  0
  6  5  2  0  0  0  0
  7  1  1  0  0  0  0
  8  7  2  0  0  0  0
  8  9  1  0  0  0  0
 10 11  1  0  0  0  0
 12 13  1  0  0  0  0
 12 11  2  0  0  0  0
 14 12  1  0  0  0  0
 15 14  2  0  0  0  0
 15 16  1  0  0  0  0
 16 10  2  0  0  0  0
 17 18  2  0  0  0  0
 17  8  1  0  0  0  0
 18 20  1  0  0  0  0
 19 18  1  0  0  0  0
 21 23  2  0  0  0  0
 21 19  1  0  0  0  0
 22 19  1  0  0  0  0
 23 17  1  0  0  0  0
 24 23  1  0  0  0  0
 25 21  1  0  0  0  0
 26 25  2  0  0  0  0
 27 25  1  0  0  0  0
 28 27  1  0  0  0  0
 29 30  1  0  0  0  0
 30 31  1  0  0  0  0
 31 32  1  0  0  0  0
 31 37  1  0  0  0  0
 32 33  1  0  0  0  0
 34 33  1  0  0  0  0
 35 34  1  0  0  0  0
 36 35  1  0  0  0  0
 36 31  1  0  0  0  0
M  END
>  <Pose>
1

>  <Score>
-8.836

$$$$
