/Users/jonathanwahrer/Desktop/Msc/3_Semester/Drug_Design_Praktikum/waehrer_HTS_screening/HTS_experiment/out/docking_results/vina_output/6s1j/0175_docked.pdbqt
 OpenBabel03222221053D

 32 35  0  0  1  0  0  0  0  0999 V2000
   17.1140  -56.8340   35.6480 C   0  0  2  0  0  3  0  0  0  0  0  0
   17.5230  -56.3650   34.3580 N   0  0  0  0  0  0  0  0  0  0  0  0
   16.3400  -56.2440   33.5840 C   0  0  0  0  0  0  0  0  0  0  0  0
   16.2140  -55.5640   32.5350 O   0  0  0  0  0  0  0  0  0  0  0  0
   15.2650  -57.0520   34.2060 C   0  0  0  0  0  0  0  0  0  0  0  0
   14.0940  -57.1930   33.8140 O   0  0  0  0  0  0  0  0  0  0  0  0
   15.8740  -57.6470   35.3810 C   0  0  0  0  0  0  0  0  0  0  0  0
   15.4730  -58.7040   36.0520 C   0  0  0  0  0  0  0  0  0  0  0  0
   16.2230  -59.1690   37.1120 O   0  0  0  0  0  1  0  0  0  0  0  0
   18.8880  -56.0550   33.8890 C   0  0  0  0  0  2  0  0  0  0  0  0
   19.1810  -56.9660   32.7300 C   0  0  0  0  0  2  0  0  0  0  0  0
   18.9670  -56.4020   31.4470 N   0  0  0  0  0  4  0  0  0  0  0  0
   19.9580  -55.4700   30.9940 C   0  0  0  0  0  2  0  0  0  0  0  0
   21.0760  -56.0920   30.2020 C   0  0  0  0  0  2  0  0  0  0  0  0
   20.6560  -57.0520   29.3090 O   0  0  0  0  0  0  0  0  0  0  0  0
   19.9440  -58.0580   29.9190 C   0  0  0  0  0  2  0  0  0  0  0  0
   18.6940  -57.4510   30.4980 C   0  0  0  0  0  2  0  0  0  0  0  0
   18.0540  -55.8580   31.5060 H   0  0  0  0  0  0  0  0  0  0  0  0
   16.8070  -55.7270   36.5960 C   0  0  0  0  0  0  0  0  0  0  0  0
   17.4820  -54.5250   36.5720 C   0  0  0  0  0  3  0  0  0  0  0  0
   17.1980  -53.4890   37.4560 C   0  0  0  0  0  0  0  0  0  0  0  0
   18.1600  -51.8400   37.3880 Br  0  0  0  0  0  0  0  0  0  0  0  0
   16.2160  -53.6650   38.3790 C   0  0  0  0  0  3  0  0  0  0  0  0
   15.5150  -54.8430   38.4410 C   0  0  0  0  0  3  0  0  0  0  0  0
   15.8130  -55.8570   37.5560 C   0  0  0  0  0  3  0  0  0  0  0  0
   14.2560  -59.3990   35.7170 C   0  0  0  0  0  0  0  0  0  0  0  0
   13.0170  -59.1660   36.2370 C   0  0  0  0  0  3  0  0  0  0  0  0
   11.9230  -59.8840   35.7900 C   0  0  0  0  0  3  0  0  0  0  0  0
   11.9990  -60.8580   34.8200 C   0  0  0  0  0  0  0  0  0  0  0  0
   13.2520  -61.0930   34.2960 C   0  0  0  0  0  3  0  0  0  0  0  0
   10.8050  -61.6190   34.3570 C   0  0  0  0  0  1  0  0  0  0  0  0
   14.3510  -60.3900   34.7260 C   0  0  0  0  0  3  0  0  0  0  0  0
  1 19  1  1  0  0  0
  2  1  1  0  0  0  0
  3  5  1  0  0  0  0
  3  2  1  0  0  0  0
  4  3  2  0  0  0  0
  5  7  1  0  0  0  0
  6  5  2  0  0  0  0
  7  1  1  0  0  0  0
  7  8  2  0  0  0  0
  8  9  1  0  0  0  0
 10  2  1  0  0  0  0
 11 10  1  0  0  0  0
 12 18  1  0  0  0  0
 12 11  1  0  0  0  0
 13 12  1  0  0  0  0
 14 13  1  0  0  0  0
 15 16  1  0  0  0  0
 15 14  1  0  0  0  0
 16 17  1  0  0  0  0
 17 12  1  0  0  0  0
 19 25  1  0  0  0  0
 20 19  2  0  0  0  0
 20 21  1  0  0  0  0
 21 23  2  0  0  0  0
 22 21  1  0  0  0  0
 23 24  1  0  0  0  0
 25 24  2  0  0  0  0
 26  8  1  0  0  0  0
 26 27  1  0  0  0  0
 28 27  2  0  0  0  0
 29 28  1  0  0  0  0
 30 32  1  0  0  0  0
 30 29  2  0  0  0  0
 31 29  1  0  0  0  0
 32 26  2  0  0  0  0
M  END
>  <Pose>
1

>  <Score>
-8.885

$$$$
