/Users/jonathanwahrer/Desktop/Msc/3_Semester/Drug_Design_Praktikum/waehrer_HTS_screening/HTS_experiment/out/docking_results/vina_output/6s1j/0176_docked.pdbqt
 OpenBabel03222221053D

 33 36  0  0  1  0  0  0  0  0999 V2000
   16.0650  -58.1790   35.4530 C   0  0  1  0  0  3  0  0  0  0  0  0
   14.6900  -58.4490   35.0680 N   0  0  0  0  0  0  0  0  0  0  0  0
   14.3890  -57.5840   33.9530 C   0  0  0  0  0  0  0  0  0  0  0  0
   13.2300  -57.2930   33.5660 O   0  0  0  0  0  0  0  0  0  0  0  0
   15.6540  -57.1440   33.4040 C   0  0  0  0  0  0  0  0  0  0  0  0
   15.8560  -56.3690   32.4180 O   0  0  0  0  0  0  0  0  0  0  0  0
   16.7120  -57.7550   34.1970 C   0  0  0  0  0  0  0  0  0  0  0  0
   17.9840  -57.8500   33.8360 C   0  0  0  0  0  0  0  0  0  0  0  0
   18.8170  -58.4370   34.8110 O   0  0  0  0  0  1  0  0  0  0  0  0
   13.7920  -59.3270   35.7450 C   0  0  0  0  0  2  0  0  0  0  0  0
   13.2420  -60.4920   35.0290 C   0  0  0  0  0  2  0  0  0  0  0  0
   14.1360  -61.3670   34.2320 C   0  0  0  0  0  2  0  0  0  0  0  0
   14.0830  -61.2740   32.8120 N   0  0  0  0  0  4  0  0  0  0  0  0
   15.2910  -60.6860   32.2910 C   0  0  0  0  0  2  0  0  0  0  0  0
   16.3370  -61.7100   31.9040 C   0  0  0  0  0  2  0  0  0  0  0  0
   15.8800  -62.4810   30.8330 O   0  0  0  0  0  0  0  0  0  0  0  0
   14.4850  -62.5090   30.7990 C   0  0  0  0  0  2  0  0  0  0  0  0
   14.0110  -62.6450   32.2200 C   0  0  0  0  0  2  0  0  0  0  0  0
   13.2330  -60.8300   32.4730 H   0  0  0  0  0  0  0  0  0  0  0  0
   16.1190  -57.1430   36.5140 C   0  0  0  0  0  0  0  0  0  0  0  0
   16.9240  -56.0370   36.3610 C   0  0  0  0  0  3  0  0  0  0  0  0
   17.0100  -55.0430   37.3270 C   0  0  0  0  0  0  0  0  0  0  0  0
   18.1130  -53.5090   37.1240 Br  0  0  0  0  0  0  0  0  0  0  0  0
   16.2720  -55.1460   38.4870 C   0  0  0  0  0  3  0  0  0  0  0  0
   15.4670  -56.2510   38.6420 C   0  0  0  0  0  3  0  0  0  0  0  0
   15.3880  -57.2480   37.6590 C   0  0  0  0  0  3  0  0  0  0  0  0
   18.5210  -57.4060   32.5600 C   0  0  0  0  0  0  0  0  0  0  0  0
   18.5070  -58.1350   31.3950 C   0  0  0  0  0  3  0  0  0  0  0  0
   19.0020  -57.6470   30.2020 C   0  0  0  0  0  3  0  0  0  0  0  0
   19.5430  -56.3840   30.1330 C   0  0  0  0  0  0  0  0  0  0  0  0
   19.5660  -55.6370   31.2940 C   0  0  0  0  0  3  0  0  0  0  0  0
   20.1830  -55.7370   28.6190 Cl  0  0  0  0  0  0  0  0  0  0  0  0
   19.0670  -56.1340   32.4830 C   0  0  0  0  0  3  0  0  0  0  0  0
  1 20  1  1  0  0  0
  2  1  1  0  0  0  0
  2 10  1  0  0  0  0
  3  2  1  0  0  0  0
  4  3  2  0  0  0  0
  5  3  1  0  0  0  0
  5  7  1  0  0  0  0
  6  5  2  0  0  0  0
  7  1  1  0  0  0  0
  8  7  2  0  0  0  0
  8  9  1  0  0  0  0
 11 10  1  0  0  0  0
 12 11  1  0  0  0  0
 13 12  1  0  0  0  0
 14 13  1  0  0  0  0
 15 14  1  0  0  0  0
 16 15  1  0  0  0  0
 17 16  1  0  0  0  0
 17 18  1  0  0  0  0
 18 13  1  0  0  0  0
 19 13  1  0  0  0  0
 20 26  1  0  0  0  0
 21 20  2  0  0  0  0
 21 22  1  0  0  0  0
 22 24  2  0  0  0  0
 23 22  1  0  0  0  0
 24 25  1  0  0  0  0
 26 25  2  0  0  0  0
 27  8  1  0  0  0  0
 28 27  2  0  0  0  0
 29 28  1  0  0  0  0
 30 29  2  0  0  0  0
 30 31  1  0  0  0  0
 31 33  2  0  0  0  0
 32 30  1  0  0  0  0
 33 27  1  0  0  0  0
M  END
>  <Pose>
1

>  <Score>
-9.248

$$$$
