/Users/jonathanwahrer/Desktop/Msc/3_Semester/Drug_Design_Praktikum/waehrer_HTS_screening/HTS_experiment/out/docking_results/vina_output/6s1j/0182_docked.pdbqt
 OpenBabel03222221053D

 36 40  0  0  1  0  0  0  0  0999 V2000
   16.5650  -58.3950   32.2040 C   0  0  2  0  0  3  0  0  0  0  0  0
   17.6010  -57.9640   31.3320 N   0  0  0  0  0  0  0  0  0  0  0  0
   17.5150  -56.5020   31.4020 C   0  0  0  0  0  0  0  0  0  0  0  0
   17.8530  -55.7040   30.5130 O   0  0  0  0  0  0  0  0  0  0  0  0
   16.9530  -56.1870   32.7260 C   0  0  0  0  0  0  0  0  0  0  0  0
   16.7120  -55.0590   33.2150 O   0  0  0  0  0  0  0  0  0  0  0  0
   16.7320  -57.4780   33.3710 C   0  0  0  0  0  0  0  0  0  0  0  0
   16.7360  -57.7270   34.6550 C   0  0  0  0  0  0  0  0  0  0  0  0
   16.5620  -59.0710   35.0490 O   0  0  0  0  0  1  0  0  0  0  0  0
   16.3740  -59.7840   32.4930 C   0  0  0  0  0  0  0  0  0  0  0  0
   15.0700  -60.2690   32.7190 C   0  0  0  0  0  3  0  0  0  0  0  0
   14.7970  -61.5790   33.0140 C   0  0  0  0  0  0  0  0  0  0  0  0
   12.9970  -62.1660   33.3070 Br  0  0  0  0  0  0  0  0  0  0  0  0
   15.8000  -62.5060   33.1060 C   0  0  0  0  0  3  0  0  0  0  0  0
   17.0910  -62.0800   32.8940 C   0  0  0  0  0  3  0  0  0  0  0  0
   17.3430  -60.7580   32.6000 C   0  0  0  0  0  3  0  0  0  0  0  0
   16.9000  -56.6900   35.6630 C   0  0  0  0  0  0  0  0  0  0  0  0
   17.8940  -55.8230   35.9000 N   0  0  0  0  0  0  0  0  0  0  0  0
   17.6030  -55.0890   36.9780 C   0  0  0  0  0  0  0  0  0  0  0  0
   19.0410  -55.6470   35.1860 C   0  0  0  0  0  3  0  0  0  0  0  0
   16.3920  -55.5030   37.4330 N   0  0  0  0  0  0  0  0  0  0  0  0
   18.4630  -54.0950   37.4400 C   0  0  0  0  0  0  0  0  0  0  0  0
   15.9240  -56.4860   36.6520 C   0  0  0  0  0  0  0  0  0  0  0  0
   14.6340  -57.2160   36.8020 C   0  0  0  0  0  1  0  0  0  0  0  0
   19.6330  -53.8950   36.7350 C   0  0  0  0  0  3  0  0  0  0  0  0
   18.0880  -53.3110   38.6440 C   0  0  0  0  0  1  0  0  0  0  0  0
   19.9030  -54.6710   35.6230 C   0  0  0  0  0  3  0  0  0  0  0  0
   18.5540  -58.6390   30.4690 C   0  0  0  0  0  2  0  0  0  0  0  0
   19.9290  -58.0640   30.4690 C   0  0  0  0  0  2  0  0  0  0  0  0
   20.2390  -57.3420   29.2510 N   0  0  0  0  0  4  0  0  0  0  0  0
   21.1620  -56.2570   29.5000 C   0  0  0  0  0  2  0  0  0  0  0  0
   22.5600  -56.8210   29.7700 C   0  0  0  0  0  2  0  0  0  0  0  0
   22.9660  -57.4180   28.5720 O   0  0  0  0  0  0  0  0  0  0  0  0
   22.1760  -58.5780   28.4390 C   0  0  0  0  0  2  0  0  0  0  0  0
   20.7230  -58.2310   28.2140 C   0  0  0  0  0  2  0  0  0  0  0  0
   19.3600  -56.9050   28.8820 H   0  0  0  0  0  0  0  0  0  0  0  0
  1 10  1  1  0  0  0
  1  7  1  0  0  0  0
  2  3  1  0  0  0  0
  2  1  1  0  0  0  0
  3  5  1  0  0  0  0
  4  3  2  0  0  0  0
  5  6  2  0  0  0  0
  5  7  1  0  0  0  0
  7  8  2  0  0  0  0
  8  9  1  0  0  0  0
  8 17  1  0  0  0  0
 10 16  2  0  0  0  0
 10 11  1  0  0  0  0
 11 12  2  0  0  0  0
 12 14  1  0  0  0  0
 12 13  1  0  0  0  0
 15 14  2  0  0  0  0
 16 15  1  0  0  0  0
 17 18  1  0  0  0  0
 17 23  2  0  0  0  0
 18 19  1  0  0  0  0
 19 21  2  0  0  0  0
 19 22  1  0  0  0  0
 20 27  2  0  0  0  0
 20 18  1  0  0  0  0
 22 26  1  0  0  0  0
 23 24  1  0  0  0  0
 23 21  1  0  0  0  0
 25 22  2  0  0  0  0
 27 25  1  0  0  0  0
 28 29  1  0  0  0  0
 28  2  1  0  0  0  0
 30 31  1  0  0  0  0
 30 29  1  0  0  0  0
 31 32  1  0  0  0  0
 33 32  1  0  0  0  0
 34 33  1  0  0  0  0
 35 34  1  0  0  0  0
 35 30  1  0  0  0  0
 36 30  1  0  0  0  0
M  END
>  <Pose>
1

>  <Score>
-8.215

$$$$
