/Users/jonathanwahrer/Desktop/Msc/3_Semester/Drug_Design_Praktikum/waehrer_HTS_screening/HTS_experiment/out/docking_results/vina_output/6s1j/0184_docked.pdbqt
 OpenBabel03222221063D

 33 36  0  0  1  0  0  0  0  0999 V2000
   13.3290  -58.9110   35.8020 C   0  0  2  0  0  3  0  0  0  0  0  0
   13.6630  -59.0920   37.2010 N   0  0  0  0  0  0  0  0  0  0  0  0
   12.7480  -60.0870   37.6780 C   0  0  0  0  0  0  0  0  0  0  0  0
   12.3580  -60.2620   38.8460 O   0  0  0  0  0  0  0  0  0  0  0  0
   12.3440  -60.8800   36.5230 C   0  0  0  0  0  0  0  0  0  0  0  0
   11.5520  -61.8660   36.4380 O   0  0  0  0  0  0  0  0  0  0  0  0
   13.0470  -60.3190   35.3800 C   0  0  0  0  0  0  0  0  0  0  0  0
   13.3040  -60.9420   34.2460 C   0  0  0  0  0  0  0  0  0  0  0  0
   13.9390  -60.1800   33.2560 O   0  0  0  0  0  1  0  0  0  0  0  0
   14.3910  -58.3080   34.9880 C   0  0  0  0  0  0  0  0  0  0  0  0
   15.7110  -58.5730   35.1380 C   0  0  0  0  0  3  0  0  0  0  0  0
   16.6590  -57.9500   34.3250 C   0  0  0  0  0  0  0  0  0  0  0  0
   18.5000  -58.3490   34.5680 Br  0  0  0  0  0  0  0  0  0  0  0  0
   16.2880  -57.0440   33.3420 C   0  0  0  0  0  3  0  0  0  0  0  0
   14.9410  -56.7890   33.2050 C   0  0  0  0  0  3  0  0  0  0  0  0
   14.0120  -57.3960   33.9970 C   0  0  0  0  0  3  0  0  0  0  0  0
   12.9860  -62.3330   33.9630 C   0  0  0  0  0  0  0  0  0  0  0  0
   11.8110  -62.8390   33.5620 N   0  0  0  0  0  0  0  0  0  0  0  0
   11.9060  -64.1780   33.3550 C   0  0  0  0  0  0  0  0  0  0  0  0
   10.5890  -62.2660   33.3530 C   0  0  0  0  0  3  0  0  0  0  0  0
   13.1990  -64.4880   33.6480 N   0  0  0  0  0  0  0  0  0  0  0  0
   10.8330  -64.9550   32.9480 C   0  0  0  0  0  3  0  0  0  0  0  0
   13.8790  -63.4150   34.0150 C   0  0  0  0  0  0  0  0  0  0  0  0
   15.2910  -63.2440   34.4230 C   0  0  0  0  0  1  0  0  0  0  0  0
    9.6020  -64.3680   32.7380 C   0  0  0  0  0  3  0  0  0  0  0  0
    9.5130  -62.9980   32.9530 C   0  0  0  0  0  3  0  0  0  0  0  0
   14.6930  -58.4090   37.9870 C   0  0  0  0  0  2  0  0  0  0  0  0
   14.1790  -57.2540   38.7660 C   0  0  0  0  0  2  0  0  0  0  0  0
   14.4570  -55.8930   38.2750 C   0  0  0  0  0  2  0  0  0  0  0  0
   15.7130  -55.3310   38.6290 N   0  0  0  0  0  4  0  0  0  0  0  0
   15.5530  -53.9400   38.9790 C   0  0  0  0  0  1  0  0  0  0  0  0
   16.6010  -55.3470   37.4510 C   0  0  0  0  0  1  0  0  0  0  0  0
   16.2420  -55.8710   39.3470 H   0  0  0  0  0  0  0  0  0  0  0  0
  1 10  1  6  0  0  0
  1  2  1  0  0  0  0
  2  3  1  0  0  0  0
  2 27  1  0  0  0  0
  3  4  2  0  0  0  0
  5  3  1  0  0  0  0
  6  5  2  0  0  0  0
  7  1  1  0  0  0  0
  7  5  1  0  0  0  0
  8  7  2  0  0  0  0
  9  8  1  0  0  0  0
 10 11  1  0  0  0  0
 12 13  1  0  0  0  0
 12 11  2  0  0  0  0
 14 12  1  0  0  0  0
 15 14  2  0  0  0  0
 15 16  1  0  0  0  0
 16 10  2  0  0  0  0
 17 23  2  0  0  0  0
 17  8  1  0  0  0  0
 18 17  1  0  0  0  0
 19 18  1  0  0  0  0
 19 21  2  0  0  0  0
 20 18  1  0  0  0  0
 21 23  1  0  0  0  0
 22 19  1  0  0  0  0
 23 24  1  0  0  0  0
 25 22  2  0  0  0  0
 25 26  1  0  0  0  0
 26 20  2  0  0  0  0
 27 28  1  0  0  0  0
 29 30  1  0  0  0  0
 29 28  1  0  0  0  0
 30 31  1  0  0  0  0
 30 33  1  0  0  0  0
 32 30  1  0  0  0  0
M  END
>  <Pose>
1

>  <Score>
-7.048

$$$$
