/Users/jonathanwahrer/Desktop/Msc/3_Semester/Drug_Design_Praktikum/waehrer_HTS_screening/HTS_experiment/out/docking_results/vina_output/6s1j/0188_docked.pdbqt
 OpenBabel03222221063D

 31 34  0  0  1  0  0  0  0  0999 V2000
   15.9010  -59.2850   34.3620 C   0  0  2  0  0  3  0  0  0  0  0  0
   14.6300  -58.7520   34.8290 N   0  0  0  0  0  0  0  0  0  0  0  0
   14.3580  -57.6830   33.8920 C   0  0  0  0  0  0  0  0  0  0  0  0
   13.2370  -57.2140   33.6020 O   0  0  0  0  0  0  0  0  0  0  0  0
   15.6200  -57.2270   33.3240 C   0  0  0  0  0  0  0  0  0  0  0  0
   15.8710  -56.3320   32.4770 O   0  0  0  0  0  0  0  0  0  0  0  0
   16.6580  -58.0480   33.9460 C   0  0  0  0  0  0  0  0  0  0  0  0
   17.9290  -57.8070   34.0930 C   0  0  0  0  0  0  0  0  0  0  0  0
   18.7250  -58.7990   34.7050 O   0  0  0  0  0  1  0  0  0  0  0  0
   13.7770  -59.1380   35.9220 C   0  0  0  0  0  2  0  0  0  0  0  0
   14.3210  -58.7680   37.2830 C   0  0  0  0  0  2  0  0  0  0  0  0
   14.3910  -57.2980   37.4060 C   0  0  0  0  0  2  0  0  0  0  0  0
   15.5100  -56.7980   38.1720 N   0  0  0  0  0  4  0  0  0  0  0  0
   16.5610  -56.2690   37.3360 C   0  0  0  0  0  2  0  0  0  0  0  0
   16.5200  -54.7960   37.1340 C   0  0  0  0  0  2  0  0  0  0  0  0
   16.2170  -54.0500   38.2530 O   0  0  0  0  0  0  0  0  0  0  0  0
   15.0900  -54.4950   38.9320 C   0  0  0  0  0  2  0  0  0  0  0  0
   15.1760  -55.9600   39.2740 C   0  0  0  0  0  2  0  0  0  0  0  0
   15.9370  -57.6790   38.6020 H   0  0  0  0  0  0  0  0  0  0  0  0
   15.7240  -60.0920   33.1180 C   0  0  0  0  0  0  0  0  0  0  0  0
   16.6850  -60.0750   32.1310 C   0  0  0  0  0  3  0  0  0  0  0  0
   16.5720  -60.8040   30.9570 C   0  0  0  0  0  0  0  0  0  0  0  0
   17.9370  -60.7520   29.6110 Br  0  0  0  0  0  0  0  0  0  0  0  0
   15.4550  -61.5870   30.7510 C   0  0  0  0  0  3  0  0  0  0  0  0
   14.4780  -61.6190   31.7290 C   0  0  0  0  0  3  0  0  0  0  0  0
   14.6080  -60.8780   32.9050 C   0  0  0  0  0  3  0  0  0  0  0  0
   18.5030  -56.5530   33.6420 C   0  0  0  0  0  0  0  0  0  0  0  0
   18.9190  -56.3510   32.4200 O   0  0  0  0  0  0  0  0  0  0  0  0
   19.3940  -55.1450   32.2750 C   0  0  0  0  0  3  0  0  0  0  0  0
   19.2880  -54.5010   33.4710 C   0  0  0  0  0  3  0  0  0  0  0  0
   18.7110  -55.4110   34.3640 C   0  0  0  0  0  3  0  0  0  0  0  0
  1 20  1  6  0  0  0
  1  2  1  0  0  0  0
  2 10  1  0  0  0  0
  3  2  1  0  0  0  0
  4  3  2  0  0  0  0
  5  3  1  0  0  0  0
  5  7  1  0  0  0  0
  6  5  2  0  0  0  0
  7  8  2  0  0  0  0
  7  1  1  0  0  0  0
  8  9  1  0  0  0  0
 10 11  1  0  0  0  0
 11 12  1  0  0  0  0
 12 13  1  0  0  0  0
 13 19  1  0  0  0  0
 13 18  1  0  0  0  0
 14 13  1  0  0  0  0
 15 14  1  0  0  0  0
 15 16  1  0  0  0  0
 16 17  1  0  0  0  0
 17 18  1  0  0  0  0
 21 20  2  0  0  0  0
 22 21  1  0  0  0  0
 23 22  1  0  0  0  0
 24 22  2  0  0  0  0
 24 25  1  0  0  0  0
 25 26  2  0  0  0  0
 26 20  1  0  0  0  0
 27  8  1  0  0  0  0
 27 31  2  0  0  0  0
 28 27  1  0  0  0  0
 29 28  1  0  0  0  0
 29 30  2  0  0  0  0
 30 31  1  0  0  0  0
M  END
>  <Pose>
1

>  <Score>
-8.138

$$$$
