/Users/jonathanwahrer/Desktop/Msc/3_Semester/Drug_Design_Praktikum/waehrer_HTS_screening/HTS_experiment/out/docking_results/vina_output/6s1j/0191_docked.pdbqt
 OpenBabel03222221073D

 34 37  0  0  1  0  0  0  0  0999 V2000
   16.6030  -59.0430   33.4240 C   0  0  2  0  0  3  0  0  0  0  0  0
   15.1830  -59.0120   33.7100 N   0  0  0  0  0  0  0  0  0  0  0  0
   14.7810  -57.6340   33.5450 C   0  0  0  0  0  0  0  0  0  0  0  0
   13.6140  -57.2400   33.3070 O   0  0  0  0  0  0  0  0  0  0  0  0
   15.9900  -56.8220   33.7100 C   0  0  0  0  0  0  0  0  0  0  0  0
   16.1060  -55.5710   33.6470 O   0  0  0  0  0  0  0  0  0  0  0  0
   17.1030  -57.7270   33.9710 C   0  0  0  0  0  0  0  0  0  0  0  0
   18.2640  -57.4400   34.5370 C   0  0  0  0  0  0  0  0  0  0  0  0
   19.2030  -58.4300   34.6820 O   0  0  0  0  0  1  0  0  0  0  0  0
   16.9110  -59.1590   31.9760 C   0  0  0  0  0  0  0  0  0  0  0  0
   17.7080  -58.2160   31.3240 C   0  0  0  0  0  3  0  0  0  0  0  0
   18.0130  -58.2820   29.9950 C   0  0  0  0  0  0  0  0  0  0  0  0
   19.1220  -56.9350   29.1820 Br  0  0  0  0  0  0  0  0  0  0  0  0
   17.5320  -59.3090   29.2370 C   0  0  0  0  0  3  0  0  0  0  0  0
   16.7470  -60.2600   29.8240 C   0  0  0  0  0  3  0  0  0  0  0  0
   16.4430  -60.1810   31.1800 C   0  0  0  0  0  3  0  0  0  0  0  0
   18.5680  -56.0800   35.0180 C   0  0  0  0  0  0  0  0  0  0  0  0
   18.1140  -55.5450   36.1190 O   0  0  0  0  0  0  0  0  0  0  0  0
   18.5270  -54.3390   36.3190 C   0  0  0  0  0  0  0  0  0  0  0  0
   19.3390  -54.0180   35.2570 C   0  0  0  0  0  0  0  0  0  0  0  0
   18.2690  -53.4510   37.3550 C   0  0  0  0  0  0  0  0  0  0  0  0
   19.3630  -55.1230   34.4330 C   0  0  0  0  0  3  0  0  0  0  0  0
   19.9130  -52.7660   35.2310 C   0  0  0  0  0  3  0  0  0  0  0  0
   19.6900  -51.8440   36.2340 C   0  0  0  0  0  3  0  0  0  0  0  0
   18.8580  -52.2130   37.2950 C   0  0  0  0  0  3  0  0  0  0  0  0
   17.4610  -53.7750   38.4150 O   0  0  0  0  0  0  0  0  0  0  0  0
   16.6280  -52.9140   39.1230 C   0  0  0  0  0  1  0  0  0  0  0  0
   14.3120  -60.1060   34.0650 C   0  0  0  0  0  2  0  0  0  0  0  0
   13.9910  -60.1040   35.5400 C   0  0  0  0  0  2  0  0  0  0  0  0
   12.7130  -59.4420   35.9070 C   0  0  0  0  0  2  0  0  0  0  0  0
   12.8190  -58.4410   36.9220 N   0  0  0  0  0  4  0  0  0  0  0  0
   14.2230  -58.1070   37.1750 C   0  0  0  0  0  1  0  0  0  0  0  0
   12.1910  -58.8240   38.1500 C   0  0  0  0  0  1  0  0  0  0  0  0
   12.3870  -57.5190   36.6270 H   0  0  0  0  0  0  0  0  0  0  0  0
  1 10  1  6  0  0  0
  1  2  1  0  0  0  0
  1  7  1  0  0  0  0
  2 28  1  0  0  0  0
  3  5  1  0  0  0  0
  3  2  1  0  0  0  0
  4  3  2  0  0  0  0
  5  7  1  0  0  0  0
  6  5  2  0  0  0  0
  7  8  2  0  0  0  0
  8  9  1  0  0  0  0
  8 17  1  0  0  0  0
 11 10  1  0  0  0  0
 12 11  2  0  0  0  0
 13 12  1  0  0  0  0
 14 15  2  0  0  0  0
 14 12  1  0  0  0  0
 15 16  1  0  0  0  0
 16 10  2  0  0  0  0
 17 18  1  0  0  0  0
 18 19  1  0  0  0  0
 19 21  1  0  0  0  0
 20 19  2  0  0  0  0
 21 26  1  0  0  0  0
 22 17  2  0  0  0  0
 22 20  1  0  0  0  0
 23 20  1  0  0  0  0
 23 24  2  0  0  0  0
 24 25  1  0  0  0  0
 25 21  2  0  0  0  0
 26 27  1  0  0  0  0
 28 29  1  0  0  0  0
 29 30  1  0  0  0  0
 30 31  1  0  0  0  0
 31 32  1  0  0  0  0
 31 33  1  0  0  0  0
 34 31  1  0  0  0  0
M  END
>  <Pose>
1

>  <Score>
-8.775

$$$$
