/Users/jonathanwahrer/Desktop/Msc/3_Semester/Drug_Design_Praktikum/waehrer_HTS_screening/HTS_experiment/out/docking_results/vina_output/6s1j/0199_docked.pdbqt
 OpenBabel03222221073D

 25 28  0  0  1  0  0  0  0  0999 V2000
   14.7690  -57.6340   38.4280 C   0  0  2  0  0  3  0  0  0  0  0  0
   15.8240  -58.4470   37.7240 C   0  0  0  0  0  2  0  0  0  0  0  0
   15.1120  -58.3150   36.4440 N   0  0  0  0  0  0  0  0  0  0  0  0
   13.9390  -57.9620   37.2220 C   0  0  0  0  0  2  0  0  0  0  0  0
   15.1160  -56.1770   38.5710 C   0  0  0  0  0  0  0  0  0  0  0  0
   16.2460  -55.6760   37.9070 N   0  0  0  0  0  0  0  0  0  0  0  0
   16.8400  -56.3580   37.3070 H   0  0  0  0  0  0  0  0  0  0  0  0
   14.3470  -55.5210   39.2880 O   0  0  0  0  0  0  0  0  0  0  0  0
   16.6910  -54.3410   37.9500 C   0  0  0  0  0  0  0  0  0  0  0  0
   17.7950  -53.9630   37.1710 C   0  0  0  0  0  3  0  0  0  0  0  0
   18.2940  -52.6820   37.1530 C   0  0  0  0  0  0  0  0  0  0  0  0
   19.7960  -52.2130   36.0790 Br  0  0  0  0  0  0  0  0  0  0  0  0
   17.7070  -51.7180   37.9180 C   0  0  0  0  0  3  0  0  0  0  0  0
   16.6370  -52.0560   38.6830 C   0  0  0  0  0  3  0  0  0  0  0  0
   16.1220  -53.3550   38.7070 C   0  0  0  0  0  3  0  0  0  0  0  0
   15.4940  -58.4830   35.0840 C   0  0  0  0  0  0  0  0  0  0  0  0
   15.1750  -59.5980   34.3770 N   0  0  0  0  0  0  0  0  0  0  0  0
   15.5530  -59.7340   33.0720 C   0  0  0  0  0  3  0  0  0  0  0  0
   16.2480  -58.7780   32.4490 N   0  0  0  0  0  0  0  0  0  0  0  0
   16.5950  -57.6560   33.0830 C   0  0  0  0  0  0  0  0  0  0  0  0
   17.2800  -56.5660   32.6860 N   0  0  0  0  0  0  0  0  0  0  0  0
   16.2120  -57.5210   34.4020 C   0  0  0  0  0  0  0  0  0  0  0  0
   17.3300  -55.7600   33.7250 N   0  0  0  0  0  0  0  0  0  0  0  0
   17.8640  -56.2960   31.3750 C   0  0  0  0  0  1  0  0  0  0  0  0
   16.6970  -56.3050   34.7710 N   0  0  0  0  0  0  0  0  0  0  0  0
  1  5  1  6  0  0  0
  2  1  1  0  0  0  0
  3  4  1  0  0  0  0
  3  2  1  0  0  0  0
  4  1  1  0  0  0  0
  5  8  2  0  0  0  0
  6  9  1  0  0  0  0
  6  5  1  0  0  0  0
  7  6  1  0  0  0  0
  9 15  1  0  0  0  0
 10  9  2  0  0  0  0
 11 10  1  0  0  0  0
 11 13  2  0  0  0  0
 12 11  1  0  0  0  0
 13 14  1  0  0  0  0
 14 15  2  0  0  0  0
 16  3  1  0  0  0  0
 17 16  2  0  0  0  0
 18 17  1  0  0  0  0
 19 18  2  0  0  0  0
 19 20  1  0  0  0  0
 20 22  2  0  0  0  0
 21 20  1  0  0  0  0
 21 23  1  0  0  0  0
 22 25  1  0  0  0  0
 22 16  1  0  0  0  0
 23 25  2  0  0  0  0
 24 21  1  0  0  0  0
M  END
>  <Pose>
1

>  <Score>
-9.545

$$$$
