/Users/jonathanwahrer/Desktop/Msc/3_Semester/Drug_Design_Praktikum/waehrer_HTS_screening/HTS_experiment/out/docking_results/vina_output/6s1j/0200_docked.pdbqt
 OpenBabel03222221073D

 21 24  0  0  1  0  0  0  0  0999 V2000
   16.5450  -56.4530   35.8740 C   0  0  1  0  0  3  0  0  0  0  0  0
   15.4970  -57.1640   36.2770 N   0  0  0  0  0  0  0  0  0  0  0  0
   14.5520  -57.6750   35.4710 C   0  0  0  0  0  0  0  0  0  0  0  0
   13.4330  -58.4050   35.6250 N   0  0  0  0  0  2  0  0  0  0  0  0
   12.8630  -58.6390   34.4850 O   0  0  0  0  0  0  0  0  0  0  0  0
   13.5790  -58.0820   33.5730 N   0  0  0  0  0  0  0  0  0  0  0  0
   14.6460  -57.4630   34.1030 C   0  0  0  0  0  0  0  0  0  0  0  0
   15.6870  -56.7490   33.6480 N   0  0  0  0  0  0  0  0  0  0  0  0
   15.9910  -56.4150   32.3960 N   0  0  0  0  0  0  0  0  0  0  0  0
   17.1250  -55.6980   32.4440 N   0  0  0  0  0  0  0  0  0  0  0  0
   17.4990  -55.6040   33.7210 N   0  0  0  0  0  0  0  0  0  0  0  0
   16.6140  -56.2530   34.4810 C   0  0  0  0  0  0  0  0  0  0  0  0
   17.5630  -55.8950   36.6830 N   0  0  0  0  0  0  0  0  0  0  0  0
   18.3240  -56.5220   37.0730 H   0  0  0  0  0  0  0  0  0  0  0  0
   17.6570  -54.5310   37.0280 C   0  0  0  0  0  0  0  0  0  0  0  0
   18.5730  -53.6280   36.5610 C   0  0  0  0  0  3  0  0  0  0  0  0
   18.6310  -52.2930   36.9270 C   0  0  0  0  0  0  0  0  0  0  0  0
   19.9510  -51.1160   36.2170 Br  0  0  0  0  0  0  0  0  0  0  0  0
   17.7100  -51.8180   37.8250 C   0  0  0  0  0  3  0  0  0  0  0  0
   16.7590  -52.6740   38.3330 C   0  0  0  0  0  3  0  0  0  0  0  0
   16.7320  -53.9920   37.9480 C   0  0  0  0  0  3  0  0  0  0  0  0
  1  2  1  0  0  0  0
  1 13  1  1  0  0  0
  3  4  1  0  0  0  0
  3  2  2  0  0  0  0
  5  4  1  0  0  0  0
  6  7  2  0  0  0  0
  6  5  1  0  0  0  0
  7  3  1  0  0  0  0
  8  7  1  0  0  0  0
  8 12  1  0  0  0  0
  9 10  2  0  0  0  0
  9  8  1  0  0  0  0
 10 11  1  0  0  0  0
 11 12  2  0  0  0  0
 12  1  1  0  0  0  0
 13 15  1  0  0  0  0
 13 14  1  0  0  0  0
 15 21  1  0  0  0  0
 16 17  1  0  0  0  0
 16 15  2  0  0  0  0
 17 19  2  0  0  0  0
 18 17  1  0  0  0  0
 19 20  1  0  0  0  0
 21 20  2  0  0  0  0
M  END
>  <Pose>
1

>  <Score>
-8.818

$$$$
