/Users/jonathanwahrer/Desktop/Msc/3_Semester/Drug_Design_Praktikum/waehrer_HTS_screening/HTS_experiment/out/docking_results/vina_output/6s1j/0205_docked.pdbqt
 OpenBabel03222221073D

 25 28  0  0  1  0  0  0  0  0999 V2000
   16.3650  -55.5640   37.2010 N   0  0  0  0  0  0  0  0  0  0  0  0
   16.6470  -56.4190   36.0750 C   0  0  0  0  0  0  0  0  0  0  0  0
   17.0590  -55.9930   34.9590 O   0  0  0  0  0  0  0  0  0  0  0  0
   16.3830  -57.8070   36.4470 C   0  0  2  0  0  3  0  0  0  0  0  0
   15.8610  -58.6400   35.4960 O   0  0  0  0  0  0  0  0  0  0  0  0
   15.0390  -59.4710   36.2540 N   0  0  0  0  0  0  0  0  0  0  0  0
   14.4080  -58.6850   37.2360 C   0  0  0  0  0  0  0  0  0  0  0  0
   15.2140  -57.6240   37.3860 C   0  0  0  0  0  0  0  0  0  0  0  0
   15.4640  -56.3330   38.0170 C   0  0  0  0  0  0  0  0  0  0  0  0
   14.9700  -55.9540   39.1000 O   0  0  0  0  0  0  0  0  0  0  0  0
   14.9140  -60.4820   36.1170 H   0  0  0  0  0  0  0  0  0  0  0  0
   16.8340  -54.2600   37.4770 C   0  0  0  0  0  0  0  0  0  0  0  0
   17.9590  -53.7320   36.8460 C   0  0  0  0  0  3  0  0  0  0  0  0
   18.4470  -52.4720   37.0820 C   0  0  0  0  0  0  0  0  0  0  0  0
   19.9920  -51.7840   36.2020 Br  0  0  0  0  0  0  0  0  0  0  0  0
   17.8200  -51.6450   37.9910 C   0  0  0  0  0  3  0  0  0  0  0  0
   16.6940  -52.1550   38.6310 C   0  0  0  0  0  3  0  0  0  0  0  0
   16.2130  -53.4190   38.3870 C   0  0  0  0  0  3  0  0  0  0  0  0
   13.1910  -58.9500   37.9870 C   0  0  0  0  0  0  0  0  0  0  0  0
   12.0030  -59.4320   37.4290 C   0  0  0  0  0  0  0  0  0  0  0  0
   11.1200  -59.5810   38.3960 N   0  0  0  0  0  0  0  0  0  0  0  0
   11.7600  -59.7050   35.9930 C   0  0  0  0  0  1  0  0  0  0  0  0
   11.6870  -59.2160   39.5430 N   0  0  0  0  0  0  0  0  0  0  0  0
    9.7440  -60.0560   38.2610 C   0  0  0  0  0  1  0  0  0  0  0  0
   12.9320  -58.8310   39.3240 C   0  0  0  0  0  3  0  0  0  0  0  0
  1 12  1  0  0  0  0
  1  9  1  0  0  0  0
  2  4  1  0  0  0  0
  2  1  1  0  0  0  0
  3  2  2  0  0  0  0
  4  5  1  6  0  0  0
  4  8  1  0  0  0  0
  5  6  1  0  0  0  0
  6  7  1  0  0  0  0
  7  8  2  0  0  0  0
  7 19  1  0  0  0  0
  8  9  1  0  0  0  0
  9 10  2  0  0  0  0
 11  6  1  0  0  0  0
 12 18  1  0  0  0  0
 13 14  1  0  0  0  0
 13 12  2  0  0  0  0
 14 16  2  0  0  0  0
 15 14  1  0  0  0  0
 16 17  1  0  0  0  0
 18 17  2  0  0  0  0
 19 25  1  0  0  0  0
 20 19  2  0  0  0  0
 20 21  1  0  0  0  0
 21 23  1  0  0  0  0
 22 20  1  0  0  0  0
 24 21  1  0  0  0  0
 25 23  2  0  0  0  0
M  END
>  <Pose>
1

>  <Score>
-9.908

$$$$
