/Users/jonathanwahrer/Desktop/Msc/3_Semester/Drug_Design_Praktikum/waehrer_HTS_screening/HTS_experiment/out/docking_results/vina_output/6s1j/0219_docked.pdbqt
 OpenBabel03222221083D

 27 30  0  0  1  0  0  0  0  0999 V2000
   14.7850  -57.4130   37.0150 N   0  0  0  0  0  0  0  0  0  0  0  0
   14.5720  -58.6070   36.2720 C   0  0  0  0  0  0  0  0  0  0  0  0
   13.5670  -59.3050   36.6480 O   0  0  0  0  0  0  0  0  0  0  0  0
   15.5870  -56.8030   36.7490 H   0  0  0  0  0  0  0  0  0  0  0  0
   15.4080  -59.0650   35.1440 C   0  0  0  0  0  2  0  0  0  0  0  0
   16.1970  -58.0360   34.5240 N   0  0  0  0  0  0  0  0  0  0  0  0
   15.6070  -57.0060   33.7130 C   0  0  0  0  0  0  0  0  0  0  0  0
   14.4650  -56.9990   33.1890 O   0  0  0  0  0  0  0  0  0  0  0  0
   16.5850  -55.9260   33.5870 C   0  0  1  0  0  3  0  0  0  0  0  0
   17.8310  -56.3540   34.3870 C   0  0  2  0  0  3  0  0  0  0  0  0
   17.1850  -55.7700   32.2170 C   0  0  1  0  0  3  0  0  0  0  0  0
   18.9940  -56.1570   33.4800 C   0  0  2  0  0  3  0  0  0  0  0  0
   17.6120  -57.8110   34.5830 C   0  0  0  0  0  0  0  0  0  0  0  0
   18.4740  -55.0090   32.5890 C   0  0  0  0  0  2  0  0  0  0  0  0
   18.9570  -57.2420   32.4680 C   0  0  0  0  0  2  0  0  0  0  0  0
   17.8050  -57.0810   31.8250 C   0  0  0  0  0  2  0  0  0  0  0  0
   18.4690  -58.6930   34.7620 O   0  0  0  0  0  0  0  0  0  0  0  0
   13.9470  -57.0190   38.1060 C   0  0  0  0  0  2  0  0  0  0  0  0
   14.7990  -56.5400   39.2920 C   0  0  0  0  0  2  0  0  0  0  0  0
   15.5280  -55.5190   38.9810 O   0  0  0  0  0  0  0  0  0  0  0  0
   16.1720  -54.4530   38.6740 C   0  0  0  0  0  0  0  0  0  0  0  0
   17.2790  -54.5210   37.8090 C   0  0  0  0  0  3  0  0  0  0  0  0
   18.0100  -53.4250   37.4410 C   0  0  0  0  0  0  0  0  0  0  0  0
   19.5080  -53.5560   36.2640 Br  0  0  0  0  0  0  0  0  0  0  0  0
   17.6770  -52.1870   37.9200 C   0  0  0  0  0  3  0  0  0  0  0  0
   16.6000  -52.0570   38.7740 C   0  0  0  0  0  3  0  0  0  0  0  0
   15.8680  -53.1590   39.1410 C   0  0  0  0  0  3  0  0  0  0  0  0
  1 18  1  0  0  0  0
  2  3  2  0  0  0  0
  2  1  1  0  0  0  0
  4  1  1  0  0  0  0
  5  2  1  0  0  0  0
  6 13  1  0  0  0  0
  6  5  1  0  0  0  0
  7  6  1  0  0  0  0
  8  7  2  0  0  0  0
  9  7  1  6  0  0  0
  9 10  1  0  0  0  0
 10 13  1  6  0  0  0
 11 16  1  1  0  0  0
 11 14  1  0  0  0  0
 11  9  1  0  0  0  0
 12 15  1  6  0  0  0
 12 10  1  0  0  0  0
 13 17  2  0  0  0  0
 14 12  1  0  0  0  0
 16 15  1  0  0  0  0
 18 19  1  0  0  0  0
 20 19  1  0  0  0  0
 21 20  1  0  0  0  0
 21 27  1  0  0  0  0
 22 21  2  0  0  0  0
 23 22  1  0  0  0  0
 23 25  2  0  0  0  0
 24 23  1  0  0  0  0
 25 26  1  0  0  0  0
 26 27  2  0  0  0  0
M  END
>  <Pose>
1

>  <Score>
-9.297

$$$$
