/Users/jonathanwahrer/Desktop/Msc/3_Semester/Drug_Design_Praktikum/waehrer_HTS_screening/HTS_experiment/out/docking_results/vina_output/6s1j/0231_docked.pdbqt
 OpenBabel03222221083D

 34 37  0  0  1  0  0  0  0  0999 V2000
   16.9780  -57.3900   33.8420 C   0  0  2  0  0  3  0  0  0  0  0  0
   18.4510  -57.1830   33.5880 C   0  0  1  0  0  3  0  0  0  0  0  0
   18.5780  -57.5670   32.2010 N   0  0  0  0  0  0  0  0  0  0  0  0
   17.3660  -57.1730   31.5650 C   0  0  0  0  0  0  0  0  0  0  0  0
   17.1380  -57.2060   30.3160 O   0  0  0  0  0  0  0  0  0  0  0  0
   16.4250  -56.7210   32.6070 C   0  0  0  0  0  0  0  0  0  0  0  0
   15.4390  -55.9800   32.4650 O   0  0  0  0  0  0  0  0  0  0  0  0
   16.4720  -56.7930   35.0640 C   0  0  0  0  0  0  0  0  0  0  0  0
   16.8070  -55.6400   35.4080 O   0  0  0  0  0  0  0  0  0  0  0  0
   15.5570  -57.5360   35.9110 C   0  0  0  0  0  0  0  0  0  0  0  0
   14.3990  -58.1140   35.3800 C   0  0  0  0  0  3  0  0  0  0  0  0
   13.5170  -58.8150   36.1600 C   0  0  0  0  0  3  0  0  0  0  0  0
   13.7700  -58.9600   37.5030 C   0  0  0  0  0  0  0  0  0  0  0  0
   12.5380  -59.9340   38.5680 Br  0  0  0  0  0  0  0  0  0  0  0  0
   14.8860  -58.4180   38.0840 C   0  0  0  0  0  3  0  0  0  0  0  0
   15.7530  -57.7180   37.2650 C   0  0  0  0  0  3  0  0  0  0  0  0
   18.9330  -55.8430   33.8870 C   0  0  0  0  0  0  0  0  0  0  0  0
   19.2210  -55.4310   35.1960 C   0  0  0  0  0  3  0  0  0  0  0  0
   19.6810  -54.1600   35.4710 C   0  0  0  0  0  0  0  0  0  0  0  0
   19.8790  -53.2390   34.4590 C   0  0  0  0  0  0  0  0  0  0  0  0
   19.6020  -53.6230   33.1640 C   0  0  0  0  0  3  0  0  0  0  0  0
   20.3400  -51.9520   34.7090 O   0  0  0  0  0  1  0  0  0  0  0  0
   19.1400  -54.9040   32.9040 C   0  0  0  0  0  3  0  0  0  0  0  0
   19.9670  -53.7470   36.7600 O   0  0  0  0  0  0  0  0  0  0  0  0
   19.0940  -53.9250   37.8460 C   0  0  0  0  0  1  0  0  0  0  0  0
   19.6660  -58.2180   31.5160 C   0  0  0  0  0  2  0  0  0  0  0  0
   20.4600  -57.2960   30.6400 C   0  0  0  0  0  2  0  0  0  0  0  0
   20.1980  -57.3930   29.2560 N   0  0  0  0  0  4  0  0  0  0  0  0
   21.3420  -58.0570   28.6230 C   0  0  0  0  0  2  0  0  0  0  0  0
   22.5610  -57.1960   28.5940 C   0  0  0  0  0  2  0  0  0  0  0  0
   22.3350  -55.8680   28.8630 O   0  0  0  0  0  0  0  0  0  0  0  0
   21.2160  -55.4100   28.2130 C   0  0  0  0  0  2  0  0  0  0  0  0
   19.9690  -56.1770   28.5620 C   0  0  0  0  0  2  0  0  0  0  0  0
   19.3800  -58.0370   29.0680 H   0  0  0  0  0  0  0  0  0  0  0  0
  1  8  1  1  0  0  0
  2  1  1  0  0  0  0
  2 17  1  6  0  0  0
  3  2  1  0  0  0  0
  4  3  1  0  0  0  0
  4  6  1  0  0  0  0
  5  4  2  0  0  0  0
  6  1  1  0  0  0  0
  7  6  2  0  0  0  0
  8  9  2  0  0  0  0
  8 10  1  0  0  0  0
 10 16  1  0  0  0  0
 11 10  2  0  0  0  0
 11 12  1  0  0  0  0
 12 13  2  0  0  0  0
 13 15  1  0  0  0  0
 13 14  1  0  0  0  0
 16 15  2  0  0  0  0
 17 18  1  0  0  0  0
 18 19  2  0  0  0  0
 19 24  1  0  0  0  0
 20 22  1  0  0  0  0
 20 19  1  0  0  0  0
 21 20  2  0  0  0  0
 23 21  1  0  0  0  0
 23 17  2  0  0  0  0
 24 25  1  0  0  0  0
 26  3  1  0  0  0  0
 27 26  1  0  0  0  0
 28 27  1  0  0  0  0
 29 28  1  0  0  0  0
 30 29  1  0  0  0  0
 30 31  1  0  0  0  0
 32 33  1  0  0  0  0
 32 31  1  0  0  0  0
 33 28  1  0  0  0  0
 34 28  1  0  0  0  0
M  END
>  <Pose>
1

>  <Score>
-8.706

$$$$
