/Users/jonathanwahrer/Desktop/Msc/3_Semester/Drug_Design_Praktikum/waehrer_HTS_screening/HTS_experiment/out/docking_results/vina_output/6s1j/0235_docked.pdbqt
 OpenBabel03222221093D

 25 28  0  0  1  0  0  0  0  0999 V2000
   15.3670  -57.5610   34.6940 C   0  0  1  0  0  3  0  0  0  0  0  0
   15.4980  -58.8950   34.1300 N   0  0  0  0  0  0  0  0  0  0  0  0
   16.4120  -59.9280   34.1780 N   0  0  0  0  0  2  0  0  0  0  0  0
   16.2100  -61.0830   33.6500 C   0  0  0  0  0  3  0  0  0  0  0  0
   14.9740  -61.3420   32.9490 C   0  0  0  0  0  3  0  0  0  0  0  0
   14.0660  -60.4000   32.8360 C   0  0  0  0  0  3  0  0  0  0  0  0
   14.2540  -59.0700   33.3850 C   0  0  0  0  0  0  0  0  0  0  0  0
   13.2510  -58.6220   34.3880 C   0  0  2  0  0  3  0  0  0  0  0  0
   13.9950  -57.6630   35.3240 C   0  0  1  0  0  3  0  0  0  0  0  0
   14.0060  -58.3600   36.6080 C   0  0  0  0  0  0  0  0  0  0  0  0
   14.7350  -58.0660   37.5960 O   0  0  0  0  0  0  0  0  0  0  0  0
   13.0690  -59.4180   36.5630 N   0  0  0  0  0  0  0  0  0  0  0  0
   12.7130  -59.7080   35.2170 C   0  0  0  0  0  0  0  0  0  0  0  0
   12.0640  -60.7000   34.8070 O   0  0  0  0  0  0  0  0  0  0  0  0
   16.4280  -57.2850   35.6730 C   0  0  0  0  0  0  0  0  0  0  0  0
   17.0380  -58.2980   36.1480 O   0  0  0  0  0  0  0  0  0  0  0  0
   16.8270  -55.9730   36.1300 C   0  0  0  0  0  0  0  0  0  0  0  0
   16.7140  -55.5830   37.4400 C   0  0  0  0  0  3  0  0  0  0  0  0
   17.1140  -54.3220   37.8200 C   0  0  0  0  0  3  0  0  0  0  0  0
   17.6370  -53.3980   36.9430 C   0  0  0  0  0  0  0  0  0  0  0  0
   18.1730  -51.6640   37.5360 Br  0  0  0  0  0  0  0  0  0  0  0  0
   17.7490  -53.7930   35.6280 C   0  0  0  0  0  3  0  0  0  0  0  0
   17.3510  -55.0520   35.2380 C   0  0  0  0  0  3  0  0  0  0  0  0
   12.5340  -60.1210   37.7060 C   0  0  0  0  0  2  0  0  0  0  0  0
   11.4980  -59.3410   38.4570 C   0  0  0  0  0  1  0  0  0  0  0  0
  1  9  1  0  0  0  0
  1 15  1  1  0  0  0
  2  3  1  0  0  0  0
  2  1  1  0  0  0  0
  4  3  1  0  0  0  0
  5  4  2  0  0  0  0
  6  5  1  0  0  0  0
  6  7  2  0  0  0  0
  7  2  1  0  0  0  0
  8  7  1  6  0  0  0
  8 13  1  0  0  0  0
  8  9  1  0  0  0  0
  9 10  1  1  0  0  0
 10 11  2  0  0  0  0
 12 10  1  0  0  0  0
 12 24  1  0  0  0  0
 13 12  1  0  0  0  0
 14 13  2  0  0  0  0
 15 17  1  0  0  0  0
 15 16  2  0  0  0  0
 17 18  1  0  0  0  0
 18 19  2  0  0  0  0
 20 21  1  0  0  0  0
 20 19  1  0  0  0  0
 22 20  2  0  0  0  0
 23 22  1  0  0  0  0
 23 17  2  0  0  0  0
 24 25  1  0  0  0  0
M  END
>  <Pose>
1

>  <Score>
-7.770

$$$$
