/Users/jonathanwahrer/Desktop/Msc/3_Semester/Drug_Design_Praktikum/waehrer_HTS_screening/HTS_experiment/out/docking_results/vina_output/6s1j/0243_docked.pdbqt
 OpenBabel03222221093D

 30 33  0  0  1  0  0  0  0  0999 V2000
   17.9430  -55.9090   31.5980 C   0  0  2  0  0  3  0  0  0  0  0  0
   19.2500  -55.2190   31.9050 C   0  0  0  0  0  2  0  0  0  0  0  0
   19.0840  -54.7260   33.2560 N   0  0  0  0  0  0  0  0  0  0  0  0
   17.6720  -54.6830   33.5990 C   0  0  1  0  0  3  0  0  0  0  0  0
   16.8980  -55.2780   32.4760 C   0  0  0  0  0  2  0  0  0  0  0  0
   17.5380  -55.4300   34.8710 C   0  0  0  0  0  0  0  0  0  0  0  0
   16.6500  -56.3040   34.9790 O   0  0  0  0  0  0  0  0  0  0  0  0
   18.4320  -55.1190   35.9240 N   0  0  0  0  0  0  0  0  0  0  0  0
   19.6820  -54.4220   35.7360 C   0  0  1  0  0  3  0  0  0  0  0  0
   19.9700  -54.2910   34.2790 C   0  0  0  0  0  0  0  0  0  0  0  0
   21.0740  -53.7620   33.8960 O   0  0  0  0  0  0  0  0  0  0  0  0
   18.1380  -55.4300   36.8880 H   0  0  0  0  0  0  0  0  0  0  0  0
   17.9830  -57.3180   31.8960 N   0  0  0  0  0  0  0  0  0  0  0  0
   17.3740  -58.2480   31.0500 C   0  0  0  0  0  0  0  0  0  0  0  0
   16.7670  -57.8700   29.9920 O   0  0  0  0  0  0  0  0  0  0  0  0
   18.4740  -57.6270   32.7520 H   0  0  0  0  0  0  0  0  0  0  0  0
   17.3800  -59.6970   31.3000 C   0  0  0  0  0  0  0  0  0  0  0  0
   17.7390  -60.6010   30.3220 C   0  0  0  0  0  3  0  0  0  0  0  0
   17.7460  -61.9610   30.5550 C   0  0  0  0  0  3  0  0  0  0  0  0
   17.3910  -62.4900   31.7790 C   0  0  0  0  0  0  0  0  0  0  0  0
   17.3850  -64.3550   32.1460 Br  0  0  0  0  0  0  0  0  0  0  0  0
   17.0290  -61.5780   32.7640 C   0  0  0  0  0  3  0  0  0  0  0  0
   17.0260  -60.2250   32.5200 C   0  0  0  0  0  3  0  0  0  0  0  0
   19.6780  -53.0880   36.4440 C   0  0  0  0  0  2  0  0  0  0  0  0
   18.6610  -53.0530   37.5330 C   0  0  0  0  0  0  0  0  0  0  0  0
   18.7310  -53.9530   38.5970 C   0  0  0  0  0  3  0  0  0  0  0  0
   17.7640  -53.8740   39.5750 C   0  0  0  0  0  3  0  0  0  0  0  0
   16.7370  -52.9480   39.5470 C   0  0  0  0  0  3  0  0  0  0  0  0
   16.7100  -52.0820   38.4790 C   0  0  0  0  0  3  0  0  0  0  0  0
   17.6480  -52.1130   37.4710 C   0  0  0  0  0  3  0  0  0  0  0  0
  1 13  1  1  0  0  0
  1  2  1  0  0  0  0
  1  5  1  0  0  0  0
  2  3  1  0  0  0  0
  3  4  1  0  0  0  0
  3 10  1  0  0  0  0
  4  5  1  6  0  0  0
  4  6  1  0  0  0  0
  6  7  2  0  0  0  0
  6  8  1  0  0  0  0
  8 12  1  0  0  0  0
  9  8  1  0  0  0  0
  9 24  1  6  0  0  0
 10  9  1  0  0  0  0
 11 10  2  0  0  0  0
 13 16  1  0  0  0  0
 14 17  1  0  0  0  0
 14 13  1  0  0  0  0
 15 14  2  0  0  0  0
 17 23  1  0  0  0  0
 18 19  1  0  0  0  0
 18 17  2  0  0  0  0
 19 20  2  0  0  0  0
 20 21  1  0  0  0  0
 20 22  1  0  0  0  0
 23 22  2  0  0  0  0
 24 25  1  0  0  0  0
 25 26  1  0  0  0  0
 26 27  2  0  0  0  0
 28 27  1  0  0  0  0
 29 28  2  0  0  0  0
 30 25  2  0  0  0  0
 30 29  1  0  0  0  0
M  END
>  <Pose>
1

>  <Score>
-9.413

$$$$
