/Users/jonathanwahrer/Desktop/Msc/3_Semester/Drug_Design_Praktikum/waehrer_HTS_screening/HTS_experiment/out/docking_results/vina_output/6s1j/0244_docked.pdbqt
 OpenBabel03222221093D

 25 28  0  0  1  0  0  0  0  0999 V2000
   12.0240  -60.2290   38.0310 C   0  0  2  0  0  3  0  0  0  0  0  0
   10.5740  -59.9330   37.7240 C   0  0  0  0  0  2  0  0  0  0  0  0
    9.9510  -59.9640   39.0360 N   0  0  0  0  0  0  0  0  0  0  0  0
   10.7320  -60.8170   39.9100 C   0  0  1  0  0  3  0  0  0  0  0  0
   11.9920  -61.1820   39.2010 C   0  0  0  0  0  2  0  0  0  0  0  0
   10.9670  -60.0430   41.1560 C   0  0  0  0  0  0  0  0  0  0  0  0
   12.0820  -59.9630   41.7230 O   0  0  0  0  0  0  0  0  0  0  0  0
    9.8930  -59.3470   41.7600 N   0  0  0  0  0  0  0  0  0  0  0  0
    8.7540  -58.8700   41.0040 C   0  0  2  0  0  3  0  0  0  0  0  0
    7.6250  -59.4100   41.8230 C   0  0  0  0  0  2  0  0  0  0  0  0
    8.1310  -59.1510   43.2470 C   0  0  0  0  0  2  0  0  0  0  0  0
    9.6460  -58.9630   43.1210 C   0  0  0  0  0  2  0  0  0  0  0  0
    8.7940  -59.3640   39.6040 C   0  0  0  0  0  0  0  0  0  0  0  0
    7.7590  -59.2550   38.8630 O   0  0  0  0  0  0  0  0  0  0  0  0
   12.7680  -59.0750   38.4170 N   0  0  0  0  0  0  0  0  0  0  0  0
   13.7360  -58.5350   37.5330 C   0  0  0  0  0  0  0  0  0  0  0  0
   13.9290  -59.0740   36.4230 O   0  0  0  0  0  0  0  0  0  0  0  0
   12.5740  -58.6540   39.3600 H   0  0  0  0  0  0  0  0  0  0  0  0
   14.5260  -57.3430   37.8960 C   0  0  0  0  0  0  0  0  0  0  0  0
   15.6410  -57.0250   37.1530 C   0  0  0  0  0  3  0  0  0  0  0  0
   16.4000  -55.9190   37.4670 C   0  0  0  0  0  3  0  0  0  0  0  0
   16.0820  -55.0860   38.5260 C   0  0  0  0  0  0  0  0  0  0  0  0
   17.1740  -53.5780   38.8980 Br  0  0  0  0  0  0  0  0  0  0  0  0
   14.9630  -55.4040   39.2710 C   0  0  0  0  0  3  0  0  0  0  0  0
   14.2080  -56.5270   38.9400 C   0  0  0  0  0  3  0  0  0  0  0  0
  1 15  1  1  0  0  0
  1  5  1  0  0  0  0
  2  1  1  0  0  0  0
  2  3  1  0  0  0  0
  3 13  1  0  0  0  0
  3  4  1  0  0  0  0
  4  5  1  6  0  0  0
  4  6  1  0  0  0  0
  6  7  2  0  0  0  0
  6  8  1  0  0  0  0
  8 12  1  0  0  0  0
  9  8  1  0  0  0  0
  9 10  1  1  0  0  0
 10 11  1  0  0  0  0
 12 11  1  0  0  0  0
 13  9  1  0  0  0  0
 14 13  2  0  0  0  0
 15 18  1  0  0  0  0
 16 19  1  0  0  0  0
 16 15  1  0  0  0  0
 17 16  2  0  0  0  0
 19 25  1  0  0  0  0
 20 21  1  0  0  0  0
 20 19  2  0  0  0  0
 21 22  2  0  0  0  0
 22 23  1  0  0  0  0
 22 24  1  0  0  0  0
 25 24  2  0  0  0  0
M  END
>  <Pose>
1

>  <Score>
-7.941

$$$$
