/Users/jonathanwahrer/Desktop/Msc/3_Semester/Drug_Design_Praktikum/waehrer_HTS_screening/HTS_experiment/out/docking_results/vina_output/6s1j/0247_docked.pdbqt
 OpenBabel03222221093D

 23 26  0  0  1  0  0  0  0  0999 V2000
   17.7550  -54.9290   36.4080 N   0  0  0  0  0  0  0  0  0  0  0  0
   18.4790  -54.3040   37.4610 C   0  0  0  0  0  0  0  0  0  0  0  0
   19.6200  -53.7640   37.2590 O   0  0  0  0  0  0  0  0  0  0  0  0
   17.7230  -54.3890   38.7380 C   0  0  2  0  0  3  0  0  0  0  0  0
   16.4050  -54.9860   38.2830 C   0  0  1  0  0  3  0  0  0  0  0  0
   15.5500  -53.7410   38.1900 C   0  0  1  0  0  3  0  0  0  0  0  0
   15.8760  -53.1750   39.5880 C   0  0  0  0  0  2  0  0  0  0  0  0
   17.3730  -53.0240   39.2580 C   0  0  2  0  0  3  0  0  0  0  0  0
   17.2220  -52.1460   38.0430 C   0  0  0  0  0  2  0  0  0  0  0  0
   16.2160  -52.6910   37.3700 C   0  0  0  0  0  2  0  0  0  0  0  0
   16.6450  -55.6030   36.9660 C   0  0  0  0  0  0  0  0  0  0  0  0
   15.9810  -56.5360   36.4660 O   0  0  0  0  0  0  0  0  0  0  0  0
   18.0250  -54.9300   35.0150 N   0  0  0  0  0  0  0  0  0  0  0  0
   18.5710  -56.0620   34.3720 C   0  0  0  0  0  0  0  0  0  0  0  0
   18.8410  -57.1300   35.0110 O   0  0  0  0  0  0  0  0  0  0  0  0
   17.8070  -54.0780   34.4680 H   0  0  0  0  0  0  0  0  0  0  0  0
   18.8400  -56.0430   32.9540 C   0  0  0  0  0  0  0  0  0  0  0  0
   18.3330  -57.0650   32.1580 C   0  0  0  0  0  3  0  0  0  0  0  0
   18.5750  -57.0950   30.8000 C   0  0  0  0  0  3  0  0  0  0  0  0
   19.3210  -56.1180   30.2080 C   0  0  0  0  0  0  0  0  0  0  0  0
   19.6460  -56.1840   28.3240 Br  0  0  0  0  0  0  0  0  0  0  0  0
   19.8370  -55.0860   30.9910 C   0  0  0  0  0  3  0  0  0  0  0  0
   19.5900  -55.0670   32.3400 C   0  0  0  0  0  3  0  0  0  0  0  0
  1 11  1  0  0  0  0
  1  2  1  0  0  0  0
  3  2  2  0  0  0  0
  4  2  1  6  0  0  0
  4  8  1  0  0  0  0
  5 11  1  6  0  0  0
  5  4  1  0  0  0  0
  6 10  1  6  0  0  0
  6  5  1  0  0  0  0
  6  7  1  0  0  0  0
  8  9  1  6  0  0  0
  8  7  1  0  0  0  0
 10  9  1  0  0  0  0
 12 11  2  0  0  0  0
 13  1  1  0  0  0  0
 14 15  2  0  0  0  0
 14 13  1  0  0  0  0
 16 13  1  0  0  0  0
 17 14  1  0  0  0  0
 18 17  2  0  0  0  0
 19 18  1  0  0  0  0
 20 19  2  0  0  0  0
 20 22  1  0  0  0  0
 21 20  1  0  0  0  0
 22 23  2  0  0  0  0
 23 17  1  0  0  0  0
M  END
>  <Pose>
1

>  <Score>
-8.854

$$$$
