/Users/jonathanwahrer/Desktop/Msc/3_Semester/Drug_Design_Praktikum/waehrer_HTS_screening/HTS_experiment/out/docking_results/vina_output/6s1j/0263_docked.pdbqt
 OpenBabel03222221103D

 34 37  0  0  1  0  0  0  0  0999 V2000
   18.4980  -56.5020   31.5980 C   0  0  0  0  0  0  0  0  0  0  0  0
   18.6850  -55.4990   32.4150 C   0  0  0  0  0  0  0  0  0  0  0  0
   17.9070  -55.1860   33.6660 C   0  0  2  0  0  3  0  0  0  0  0  0
   18.8770  -54.5800   34.5120 N   0  0  0  0  0  0  0  0  0  0  0  0
   19.8370  -53.9200   33.6530 C   0  0  0  0  0  0  0  0  0  0  0  0
   20.6400  -53.0080   33.9670 O   0  0  0  0  0  0  0  0  0  0  0  0
   19.7240  -54.4980   32.3190 C   0  0  0  0  0  0  0  0  0  0  0  0
   20.4230  -54.1590   31.3060 O   0  0  0  0  0  0  0  0  0  0  0  0
   17.4640  -57.4180   31.8950 O   0  0  0  0  0  1  0  0  0  0  0  0
   19.3260  -56.6760   30.4170 C   0  0  0  0  0  0  0  0  0  0  0  0
   20.4580  -57.4730   30.5840 C   0  0  0  0  0  3  0  0  0  0  0  0
   21.2850  -57.7430   29.5320 C   0  0  0  0  0  3  0  0  0  0  0  0
   20.9830  -57.2140   28.2970 C   0  0  0  0  0  0  0  0  0  0  0  0
   22.1700  -57.6140   26.8380 Br  0  0  0  0  0  0  0  0  0  0  0  0
   19.8660  -56.4250   28.1250 C   0  0  0  0  0  3  0  0  0  0  0  0
   19.0390  -56.1600   29.1960 C   0  0  0  0  0  3  0  0  0  0  0  0
   17.2020  -56.3600   34.1630 C   0  0  0  0  0  0  0  0  0  0  0  0
   15.8520  -56.5760   34.0950 C   0  0  0  0  0  3  0  0  0  0  0  0
   15.2650  -57.7160   34.5790 C   0  0  0  0  0  0  0  0  0  0  0  0
   16.0440  -58.6820   35.1560 C   0  0  0  0  0  3  0  0  0  0  0  0
   17.4220  -58.5200   35.2550 C   0  0  0  0  0  3  0  0  0  0  0  0
   17.9770  -57.3680   34.7600 C   0  0  0  0  0  3  0  0  0  0  0  0
   13.8680  -57.8720   34.4750 N   0  0  0  0  0  0  0  0  0  0  0  0
   13.2030  -57.3590   33.5380 O   0  0  0  0  0  0  0  0  0  0  0  0
   13.2170  -58.6120   35.4350 O   0  0  0  0  0  0  0  0  0  0  0  0
   19.0230  -54.4780   35.9530 C   0  0  0  0  0  2  0  0  0  0  0  0
   18.2770  -53.3550   36.5980 C   0  0  0  0  0  2  0  0  0  0  0  0
   17.0580  -53.7920   37.2570 N   0  0  0  0  0  4  0  0  0  0  0  0
   16.9050  -53.1310   38.5570 C   0  0  0  0  0  2  0  0  0  0  0  0
   15.5170  -53.5580   39.0560 C   0  0  0  0  0  2  0  0  0  0  0  0
   15.4110  -54.9200   39.1990 O   0  0  0  0  0  0  0  0  0  0  0  0
   15.7760  -55.6410   38.0720 C   0  0  0  0  0  2  0  0  0  0  0  0
   17.1140  -55.2060   37.5290 C   0  0  0  0  0  2  0  0  0  0  0  0
   16.2000  -53.5860   36.7390 H   0  0  0  0  0  0  0  0  0  0  0  0
  1  9  1  0  0  0  0
  1  2  2  0  0  0  0
  2  3  1  0  0  0  0
  3 17  1  1  0  0  0
  3  4  1  0  0  0  0
  4 26  1  0  0  0  0
  5  6  2  0  0  0  0
  5  4  1  0  0  0  0
  7  2  1  0  0  0  0
  7  5  1  0  0  0  0
  8  7  2  0  0  0  0
 10 11  1  0  0  0  0
 10  1  1  0  0  0  0
 12 11  2  0  0  0  0
 13 12  1  0  0  0  0
 14 13  1  0  0  0  0
 15 13  2  0  0  0  0
 15 16  1  0  0  0  0
 16 10  2  0  0  0  0
 17 22  1  0  0  0  0
 18 17  2  0  0  0  0
 18 19  1  0  0  0  0
 19 20  2  0  0  0  0
 20 21  1  0  0  0  0
 22 21  2  0  0  0  0
 23 19  1  0  0  0  0
 23 25  2  0  0  0  0
 24 23  2  0  0  0  0
 26 27  1  0  0  0  0
 27 28  1  0  0  0  0
 28 33  1  0  0  0  0
 28 29  1  0  0  0  0
 29 30  1  0  0  0  0
 30 31  1  0  0  0  0
 32 31  1  0  0  0  0
 33 32  1  0  0  0  0
 34 28  1  0  0  0  0
M  END
>  <Pose>
1

>  <Score>
-6.007

$$$$
