/Users/jonathanwahrer/Desktop/Msc/3_Semester/Drug_Design_Praktikum/waehrer_HTS_screening/HTS_experiment/out/docking_results/vina_output/6s1j/0274_docked.pdbqt
 OpenBabel03222221113D

 31 34  0  0  1  0  0  0  0  0999 V2000
   17.4190  -56.2190   33.1940 C   0  0  0  0  0  0  0  0  0  0  0  0
   17.2400  -56.6310   34.4340 C   0  0  0  0  0  0  0  0  0  0  0  0
   16.6150  -55.9330   35.5940 C   0  0  1  0  0  3  0  0  0  0  0  0
   15.9770  -57.0350   36.3340 N   0  0  0  0  0  0  0  0  0  0  0  0
   16.8520  -58.1350   36.1710 C   0  0  0  0  0  0  0  0  0  0  0  0
   16.9030  -59.1150   36.9250 O   0  0  0  0  0  0  0  0  0  0  0  0
   17.6680  -57.9150   34.9820 C   0  0  0  0  0  0  0  0  0  0  0  0
   18.5700  -58.6230   34.4680 O   0  0  0  0  0  0  0  0  0  0  0  0
   16.9680  -54.9240   32.8700 O   0  0  0  0  0  1  0  0  0  0  0  0
   18.0430  -57.0000   32.1400 C   0  0  0  0  0  0  0  0  0  0  0  0
   19.3710  -56.8360   31.8130 C   0  0  0  0  0  3  0  0  0  0  0  0
   19.9640  -57.5580   30.7890 C   0  0  0  0  0  3  0  0  0  0  0  0
   19.2410  -58.4730   30.0580 C   0  0  0  0  0  0  0  0  0  0  0  0
   20.0520  -59.4790   28.6410 Br  0  0  0  0  0  0  0  0  0  0  0  0
   17.9140  -58.6470   30.3740 C   0  0  0  0  0  3  0  0  0  0  0  0
   17.3220  -57.9150   31.4080 C   0  0  0  0  0  3  0  0  0  0  0  0
   17.5560  -55.1650   36.4120 C   0  0  0  0  0  0  0  0  0  0  0  0
   17.2570  -54.8450   37.7420 C   0  0  0  0  0  3  0  0  0  0  0  0
   18.0880  -54.1360   38.5540 C   0  0  0  0  0  3  0  0  0  0  0  0
   19.3040  -53.6890   38.0720 C   0  0  0  0  0  3  0  0  0  0  0  0
   19.6240  -53.9860   36.7780 C   0  0  0  0  0  3  0  0  0  0  0  0
   18.7700  -54.7140   35.9450 C   0  0  0  0  0  3  0  0  0  0  0  0
   14.7480  -56.8830   37.0230 C   0  0  0  0  0  2  0  0  0  0  0  0
   13.6080  -57.7330   36.6390 C   0  0  0  0  0  2  0  0  0  0  0  0
   13.6990  -59.1170   36.9890 N   0  0  0  0  0  4  0  0  0  0  0  0
   13.1940  -60.0360   36.0300 C   0  0  0  0  0  2  0  0  0  0  0  0
   11.8780  -60.5910   36.5310 C   0  0  0  0  0  2  0  0  0  0  0  0
   11.0930  -59.6180   37.1440 O   0  0  0  0  0  0  0  0  0  0  0  0
   11.6420  -59.1640   38.3290 C   0  0  0  0  0  2  0  0  0  0  0  0
   13.1330  -59.4140   38.2860 C   0  0  0  0  0  2  0  0  0  0  0  0
   14.7440  -59.3070   37.0850 H   0  0  0  0  0  0  0  0  0  0  0  0
  1  2  2  0  0  0  0
  2  7  1  0  0  0  0
  2  3  1  0  0  0  0
  3  4  1  0  0  0  0
  3 17  1  1  0  0  0
  4 23  1  0  0  0  0
  5  4  1  0  0  0  0
  5  6  2  0  0  0  0
  7  5  1  0  0  0  0
  8  7  2  0  0  0  0
  9  1  1  0  0  0  0
 10  1  1  0  0  0  0
 11 10  1  0  0  0  0
 12 11  2  0  0  0  0
 13 15  2  0  0  0  0
 13 12  1  0  0  0  0
 14 13  1  0  0  0  0
 15 16  1  0  0  0  0
 16 10  2  0  0  0  0
 17 18  1  0  0  0  0
 18 19  2  0  0  0  0
 20 19  1  0  0  0  0
 21 20  2  0  0  0  0
 22 17  2  0  0  0  0
 22 21  1  0  0  0  0
 24 25  1  0  0  0  0
 24 23  1  0  0  0  0
 25 31  1  0  0  0  0
 25 30  1  0  0  0  0
 26 27  1  0  0  0  0
 26 25  1  0  0  0  0
 27 28  1  0  0  0  0
 28 29  1  0  0  0  0
 30 29  1  0  0  0  0
M  END
>  <Pose>
1

>  <Score>
-8.510

$$$$
