/Users/jonathanwahrer/Desktop/Msc/3_Semester/Drug_Design_Praktikum/waehrer_HTS_screening/HTS_experiment/out/docking_results/vina_output/6s1j/0278_docked.pdbqt
 OpenBabel03222221113D

 30 33  0  0  1  0  0  0  0  0999 V2000
   18.2990  -55.0400   33.3150 N   0  0  0  0  0  0  0  0  0  0  0  0
   17.3220  -55.8320   33.8170 C   0  0  0  0  0  0  0  0  0  0  0  0
   17.4770  -55.8120   35.1940 C   0  0  0  0  0  0  0  0  0  0  0  0
   16.6060  -56.5530   35.9700 C   0  0  0  0  0  3  0  0  0  0  0  0
   15.5770  -57.3160   35.4050 C   0  0  0  0  0  3  0  0  0  0  0  0
   15.4620  -57.3030   34.0210 C   0  0  0  0  0  3  0  0  0  0  0  0
   16.3140  -56.5770   33.2260 C   0  0  0  0  0  3  0  0  0  0  0  0
   18.5350  -55.0160   35.5320 N   0  0  0  0  0  0  0  0  0  0  0  0
   19.0190  -54.5580   34.3470 C   0  0  2  0  0  3  0  0  0  0  0  0
   18.4500  -54.8170   31.9070 C   0  0  0  0  0  2  0  0  0  0  0  0
   19.6790  -55.4520   31.3310 C   0  0  1  0  0  3  0  0  0  0  0  0
   19.3310  -56.7400   30.6210 C   0  0  0  0  0  0  0  0  0  0  0  0
   20.3010  -57.6830   30.3890 C   0  0  0  0  0  3  0  0  0  0  0  0
   19.9880  -58.8530   29.7500 C   0  0  0  0  0  3  0  0  0  0  0  0
   18.6890  -59.0640   29.3450 C   0  0  0  0  0  0  0  0  0  0  0  0
   18.2410  -60.6960   28.4510 Br  0  0  0  0  0  0  0  0  0  0  0  0
   17.6800  -58.1540   29.5530 C   0  0  0  0  0  3  0  0  0  0  0  0
   18.0460  -56.9860   30.2030 C   0  0  0  0  0  3  0  0  0  0  0  0
   20.3550  -54.6590   30.4230 O   0  0  0  0  0  0  0  0  0  0  0  0
   21.2430  -54.9940   30.1940 H   0  0  0  0  0  0  0  0  0  0  0  0
   20.0350  -53.7660   34.2560 N   0  0  0  0  0  0  0  0  0  0  0  0
   20.5650  -53.5090   35.1430 H   0  0  0  0  0  0  0  0  0  0  0  0
   20.4010  -53.3380   33.4040 H   0  0  0  0  0  0  0  0  0  0  0  0
   18.9550  -54.7690   36.8790 C   0  0  0  0  0  2  0  0  0  0  0  0
   18.0870  -53.7820   37.6090 C   0  0  0  0  0  0  0  0  0  0  0  0
   17.1820  -54.2500   38.5460 C   0  0  0  0  0  3  0  0  0  0  0  0
   16.3520  -53.4070   39.2590 C   0  0  0  0  0  3  0  0  0  0  0  0
   16.4510  -52.0610   39.0080 C   0  0  0  0  0  3  0  0  0  0  0  0
   17.3370  -51.5710   38.0850 C   0  0  0  0  0  3  0  0  0  0  0  0
   18.1460  -52.4330   37.3950 C   0  0  0  0  0  3  0  0  0  0  0  0
  1  2  1  0  0  0  0
  1  9  1  0  0  0  0
  2  3  1  0  0  0  0
  3  8  1  0  0  0  0
  3  4  2  0  0  0  0
  5  4  1  0  0  0  0
  6  5  2  0  0  0  0
  7  2  2  0  0  0  0
  7  6  1  0  0  0  0
  8 24  1  0  0  0  0
  9 21  1  1  0  0  0
  9  8  1  0  0  0  0
 10  1  1  0  0  0  0
 11 10  1  6  0  0  0
 12 11  1  0  0  0  0
 13 12  1  0  0  0  0
 14 13  2  0  0  0  0
 15 17  2  0  0  0  0
 15 14  1  0  0  0  0
 16 15  1  0  0  0  0
 17 18  1  0  0  0  0
 18 12  2  0  0  0  0
 19 11  1  0  0  0  0
 20 19  1  0  0  0  0
 21 22  1  0  0  0  0
 23 21  1  0  0  0  0
 24 25  1  0  0  0  0
 25 26  1  0  0  0  0
 26 27  2  0  0  0  0
 28 27  1  0  0  0  0
 29 28  2  0  0  0  0
 30 25  2  0  0  0  0
 30 29  1  0  0  0  0
M  END
>  <Pose>
1

>  <Score>
-9.035

$$$$
