/Users/jonathanwahrer/Desktop/Msc/3_Semester/Drug_Design_Praktikum/waehrer_HTS_screening/HTS_experiment/out/docking_results/vina_output/6s1j/0294_docked.pdbqt
 OpenBabel03222221123D

 35 38  0  0  0  0  0  0  0  0999 V2000
   17.6050  -54.7840   36.3180 N   0  0  0  0  0  0  0  0  0  0  0  0
   17.0760  -55.8020   35.5720 N   0  0  0  0  0  0  0  0  0  0  0  0
   17.4550  -55.6440   34.2960 C   0  0  0  0  0  0  0  0  0  0  0  0
   18.2030  -54.5420   34.2770 N   0  0  0  0  0  0  0  0  0  0  0  0
   18.3020  -53.9930   35.5460 C   0  0  0  0  0  0  0  0  0  0  0  0
   17.3560  -54.7370   37.7450 C   0  0  0  0  0  2  0  0  0  0  0  0
   16.0690  -55.3950   38.0920 C   0  0  0  0  0  0  0  0  0  0  0  0
   15.9030  -56.7930   37.9430 N   0  0  0  0  0  0  0  0  0  0  0  0
   16.6970  -57.4040   37.5810 H   0  0  0  0  0  0  0  0  0  0  0  0
   15.1150  -54.7080   38.5220 O   0  0  0  0  0  0  0  0  0  0  0  0
   14.6970  -57.3720   38.2750 N   0  0  0  0  0  0  0  0  0  0  0  0
   14.1310  -58.3250   37.6460 C   0  0  0  0  0  3  0  0  0  0  0  0
   12.8510  -58.9010   38.0430 C   0  0  0  0  0  0  0  0  0  0  0  0
   12.4580  -58.9430   39.3640 C   0  0  0  0  0  3  0  0  0  0  0  0
   11.2390  -59.4940   39.7180 C   0  0  0  0  0  3  0  0  0  0  0  0
   10.3700  -60.0200   38.7740 C   0  0  0  0  0  0  0  0  0  0  0  0
    8.6940  -60.7730   39.2930 Br  0  0  0  0  0  0  0  0  0  0  0  0
   10.7630  -59.9790   37.4530 C   0  0  0  0  0  3  0  0  0  0  0  0
   11.9810  -59.4270   37.1120 C   0  0  0  0  0  3  0  0  0  0  0  0
   19.0590  -52.7860   35.8100 C   0  0  0  0  0  0  0  0  0  0  0  0
   20.1730  -52.4360   35.0530 N   0  0  0  0  0  0  0  0  0  0  0  0
   20.6470  -51.3300   35.4720 O   0  0  0  0  0  0  0  0  0  0  0  0
   19.9520  -50.8980   36.4490 N   0  0  0  0  0  0  0  0  0  0  0  0
   18.9430  -51.7890   36.6900 C   0  0  0  0  0  0  0  0  0  0  0  0
   18.0140  -51.5520   37.7110 N   0  0  0  0  0  0  0  0  0  0  0  0
   16.9950  -51.6930   37.5180 H   0  0  0  0  0  0  0  0  0  0  0  0
   18.2640  -51.2480   38.6750 H   0  0  0  0  0  0  0  0  0  0  0  0
   17.1230  -56.4950   33.1600 C   0  0  0  0  0  0  0  0  0  0  0  0
   16.4930  -57.6730   33.1900 N   0  0  0  0  0  0  0  0  0  0  0  0
   16.3790  -58.1360   31.9570 O   0  0  0  0  0  0  0  0  0  0  0  0
   16.9110  -57.3020   31.1090 N   0  0  0  0  0  0  0  0  0  0  0  0
   17.3940  -56.2500   31.8380 C   0  0  0  0  0  0  0  0  0  0  0  0
   18.0500  -55.1300   31.2640 N   0  0  0  0  0  0  0  0  0  0  0  0
   18.0490  -54.2030   31.7750 H   0  0  0  0  0  0  0  0  0  0  0  0
   18.5460  -55.1540   30.3530 H   0  0  0  0  0  0  0  0  0  0  0  0
  1  6  1  0  0  0  0
  2  1  1  0  0  0  0
  3  2  2  0  0  0  0
  4  3  1  0  0  0  0
  4  5  2  0  0  0  0
  5 20  1  0  0  0  0
  5  1  1  0  0  0  0
  6  7  1  0  0  0  0
  7 10  2  0  0  0  0
  8  7  1  0  0  0  0
  8 11  1  0  0  0  0
  9  8  1  0  0  0  0
 12 13  1  0  0  0  0
 12 11  2  0  0  0  0
 13 14  1  0  0  0  0
 14 15  2  0  0  0  0
 16 17  1  0  0  0  0
 16 15  1  0  0  0  0
 18 16  2  0  0  0  0
 19 18  1  0  0  0  0
 19 13  2  0  0  0  0
 20 24  1  0  0  0  0
 21 22  1  0  0  0  0
 21 20  2  0  0  0  0
 22 23  1  0  0  0  0
 23 24  2  0  0  0  0
 24 25  1  0  0  0  0
 25 27  1  0  0  0  0
 26 25  1  0  0  0  0
 28 29  2  0  0  0  0
 28  3  1  0  0  0  0
 30 29  1  0  0  0  0
 31 32  2  0  0  0  0
 31 30  1  0  0  0  0
 32 28  1  0  0  0  0
 33 34  1  0  0  0  0
 33 32  1  0  0  0  0
 35 33  1  0  0  0  0
M  END
>  <Pose>
1

>  <Score>
-9.054

$$$$
