/Users/jonathanwahrer/Desktop/Msc/3_Semester/Drug_Design_Praktikum/waehrer_HTS_screening/HTS_experiment/out/docking_results/vina_output/6s1j/0302_docked.pdbqt
 OpenBabel03222221123D

 29 33  0  0  1  0  0  0  0  0999 V2000
   15.4740  -56.5830   37.4070 C   0  0  0  0  0  0  0  0  0  0  0  0
   16.4980  -56.6730   36.5340 N   0  0  0  0  0  0  0  0  0  0  0  0
   17.1970  -55.5110   36.5150 C   0  0  1  0  0  3  0  0  0  0  0  0
   16.6230  -54.6610   37.3840 N   0  0  0  0  0  0  0  0  0  0  0  0
   15.5700  -55.3100   37.9300 C   0  0  0  0  0  3  0  0  0  0  0  0
   17.3500  -53.5280   37.3300 C   0  0  0  0  0  0  0  0  0  0  0  0
   18.3820  -53.6680   36.4270 C   0  0  0  0  0  0  0  0  0  0  0  0
   19.2880  -52.6450   36.1740 C   0  0  0  0  0  3  0  0  0  0  0  0
   19.1650  -51.4480   36.8410 C   0  0  0  0  0  3  0  0  0  0  0  0
   18.1310  -51.3170   37.7420 C   0  0  0  0  0  3  0  0  0  0  0  0
   17.2180  -52.3140   38.0110 C   0  0  0  0  0  3  0  0  0  0  0  0
   18.2560  -54.9280   35.9310 N   0  0  0  0  0  0  0  0  0  0  0  0
   16.7370  -57.4990   35.9490 H   0  0  0  0  0  0  0  0  0  0  0  0
   19.1640  -55.4670   34.9400 C   0  0  0  0  0  2  0  0  0  0  0  0
   18.7890  -55.0300   33.5410 C   0  0  0  0  0  2  0  0  0  0  0  0
   18.0900  -56.0820   32.8600 N   0  0  0  0  0  4  0  0  0  0  0  0
   16.6660  -55.8190   32.8510 C   0  0  0  0  0  2  0  0  0  0  0  0
   15.8460  -57.0370   33.2010 C   0  0  0  0  0  2  0  0  0  0  0  0
   16.2530  -58.1010   32.3940 O   0  0  0  0  0  0  0  0  0  0  0  0
   17.5910  -58.3930   32.5490 C   0  0  0  0  0  2  0  0  0  0  0  0
   18.2950  -57.3850   33.4200 C   0  0  0  0  0  2  0  0  0  0  0  0
   18.3860  -56.1280   31.8530 H   0  0  0  0  0  0  0  0  0  0  0  0
   14.4930  -57.6200   37.7120 C   0  0  0  0  0  0  0  0  0  0  0  0
   13.7780  -57.6200   38.8880 C   0  0  0  0  0  3  0  0  0  0  0  0
   12.8420  -58.6100   39.1770 C   0  0  0  0  0  3  0  0  0  0  0  0
   12.6070  -59.6300   38.2760 C   0  0  0  0  0  0  0  0  0  0  0  0
   11.3330  -60.9810   38.6680 Br  0  0  0  0  0  0  0  0  0  0  0  0
   13.3170  -59.6420   37.0930 C   0  0  0  0  0  3  0  0  0  0  0  0
   14.2530  -58.6410   36.8190 C   0  0  0  0  0  3  0  0  0  0  0  0
  1 23  1  0  0  0  0
  1  5  2  0  0  0  0
  2  1  1  0  0  0  0
  3 12  1  1  0  0  0
  3  2  1  0  0  0  0
  3  4  1  0  0  0  0
  4  5  1  0  0  0  0
  6  4  1  0  0  0  0
  6 11  1  0  0  0  0
  7  6  2  0  0  0  0
  8  7  1  0  0  0  0
  8  9  2  0  0  0  0
  9 10  1  0  0  0  0
 10 11  2  0  0  0  0
 12  7  1  0  0  0  0
 13  2  1  0  0  0  0
 14 12  1  0  0  0  0
 15 14  1  0  0  0  0
 16 21  1  0  0  0  0
 16 15  1  0  0  0  0
 17 16  1  0  0  0  0
 17 18  1  0  0  0  0
 19 20  1  0  0  0  0
 19 18  1  0  0  0  0
 20 21  1  0  0  0  0
 22 16  1  0  0  0  0
 23 24  1  0  0  0  0
 24 25  2  0  0  0  0
 26 27  1  0  0  0  0
 26 25  1  0  0  0  0
 28 26  2  0  0  0  0
 29 28  1  0  0  0  0
 29 23  2  0  0  0  0
M  END
>  <Pose>
1

>  <Score>
-9.433

$$$$
