/Users/jonathanwahrer/Desktop/Msc/3_Semester/Drug_Design_Praktikum/waehrer_HTS_screening/HTS_experiment/out/docking_results/vina_output/6s1j/0309_docked.pdbqt
 OpenBabel03222221123D

 33 36  0  0  0  0  0  0  0  0999 V2000
   16.2120  -57.3700   34.4720 C   0  0  0  0  0  0  0  0  0  0  0  0
   16.7400  -56.9450   35.6670 C   0  0  0  0  0  0  0  0  0  0  0  0
   17.7220  -56.0680   35.7450 O   0  0  0  0  0  0  0  0  0  0  0  0
   18.2580  -55.5430   34.6730 C   0  0  0  0  0  0  0  0  0  0  0  0
   17.7840  -55.9210   33.4680 C   0  0  0  0  0  0  0  0  0  0  0  0
   18.3260  -55.3830   32.3220 C   0  0  0  0  0  3  0  0  0  0  0  0
   19.3420  -54.4690   32.4450 C   0  0  0  0  0  3  0  0  0  0  0  0
   19.8290  -54.0820   33.7080 C   0  0  0  0  0  0  0  0  0  0  0  0
   19.3090  -54.6010   34.8550 C   0  0  0  0  0  0  0  0  0  0  0  0
   20.8520  -53.1520   33.6360 O   0  0  0  0  0  1  0  0  0  0  0  0
   16.7600  -56.8330   33.3060 C   0  0  0  0  0  0  0  0  0  0  0  0
   16.3270  -57.1780   32.2010 O   0  0  0  0  0  0  0  0  0  0  0  0
   19.7140  -54.3210   36.2110 C   0  0  0  0  0  2  0  0  0  0  0  0
   18.9760  -53.5070   37.0880 N   0  0  0  0  0  4  0  0  0  0  0  0
   19.0090  -53.9790   38.4270 C   0  0  0  0  0  2  0  0  0  0  0  0
   17.8780  -53.6730   39.3270 C   0  0  0  0  0  2  0  0  0  0  0  0
   16.7050  -53.3090   38.6570 N   0  0  0  0  0  0  0  0  0  0  0  0
   16.7940  -52.4120   37.5890 C   0  0  0  0  0  2  0  0  0  0  0  0
   15.4680  -53.8410   39.0460 C   0  0  0  0  0  1  0  0  0  0  0  0
   17.8160  -52.8590   36.5920 C   0  0  0  0  0  2  0  0  0  0  0  0
   19.6770  -52.6140   37.1740 H   0  0  0  0  0  0  0  0  0  0  0  0
   16.1790  -57.5000   36.9090 C   0  0  0  0  0  0  0  0  0  0  0  0
   16.5990  -58.6200   37.2960 O   0  0  0  0  0  0  0  0  0  0  0  0
   15.2340  -56.8710   37.6590 O   0  0  0  0  0  0  0  0  0  0  0  0
   14.5460  -57.5620   38.6730 C   0  0  0  0  0  2  0  0  0  0  0  0
   13.2330  -58.0540   38.1290 C   0  0  0  0  0  1  0  0  0  0  0  0
   15.1210  -58.3070   34.4420 C   0  0  0  0  0  0  0  0  0  0  0  0
   15.3010  -59.6860   34.3750 C   0  0  0  0  0  3  0  0  0  0  0  0
   14.2570  -60.5860   34.3600 C   0  0  0  0  0  3  0  0  0  0  0  0
   12.9760  -60.1200   34.4120 C   0  0  0  0  0  0  0  0  0  0  0  0
   11.5410  -61.3830   34.3950 Br  0  0  0  0  0  0  0  0  0  0  0  0
   12.7440  -58.7620   34.4780 C   0  0  0  0  0  3  0  0  0  0  0  0
   13.8250  -57.8650   34.4920 C   0  0  0  0  0  3  0  0  0  0  0  0
  1  2  2  0  0  0  0
  2  3  1  0  0  0  0
  2 22  1  0  0  0  0
  4  9  1  0  0  0  0
  4  3  1  0  0  0  0
  5  4  2  0  0  0  0
  6  7  2  0  0  0  0
  6  5  1  0  0  0  0
  7  8  1  0  0  0  0
  8  9  2  0  0  0  0
  9 13  1  0  0  0  0
 10  8  1  0  0  0  0
 11  5  1  0  0  0  0
 11  1  1  0  0  0  0
 12 11  2  0  0  0  0
 13 14  1  0  0  0  0
 14 21  1  0  0  0  0
 14 15  1  0  0  0  0
 15 16  1  0  0  0  0
 17 19  1  0  0  0  0
 17 16  1  0  0  0  0
 18 17  1  0  0  0  0
 20 14  1  0  0  0  0
 20 18  1  0  0  0  0
 22 23  2  0  0  0  0
 22 24  1  0  0  0  0
 24 25  1  0  0  0  0
 26 25  1  0  0  0  0
 27  1  1  0  0  0  0
 27 33  1  0  0  0  0
 28 27  2  0  0  0  0
 29 28  1  0  0  0  0
 29 30  2  0  0  0  0
 30 32  1  0  0  0  0
 31 30  1  0  0  0  0
 32 33  2  0  0  0  0
M  END
>  <Pose>
1

>  <Score>
-9.640

$$$$
