/Users/jonathanwahrer/Desktop/Msc/3_Semester/Drug_Design_Praktikum/waehrer_HTS_screening/HTS_experiment/out/docking_results/vina_output/6s1j/0320_docked.pdbqt
 OpenBabel03222221133D

 32 36  0  0  1  0  0  0  0  0999 V2000
   15.5510  -57.0510   36.2070 C   0  0  0  0  0  0  0  0  0  0  0  0
   14.6750  -57.9790   35.6200 C   0  0  0  0  0  3  0  0  0  0  0  0
   13.8210  -58.3490   36.5660 N   0  0  0  0  0  0  0  0  0  0  0  0
   12.7500  -59.1850   36.7260 C   0  0  0  0  0  0  0  0  0  0  0  0
   12.3710  -59.0420   38.0370 C   0  0  0  0  0  0  0  0  0  0  0  0
   13.1930  -58.1650   38.5920 N   0  0  0  0  0  0  0  0  0  0  0  0
   14.1070  -57.7210   37.6820 C   0  0  1  0  0  3  0  0  0  0  0  0
   15.1830  -56.9030   37.4850 N   0  0  0  0  0  0  0  0  0  0  0  0
   11.2920  -59.7570   38.5660 C   0  0  0  0  0  3  0  0  0  0  0  0
   10.5880  -60.6230   37.7590 C   0  0  0  0  0  3  0  0  0  0  0  0
   10.9870  -60.7480   36.4470 C   0  0  0  0  0  3  0  0  0  0  0  0
   12.0590  -60.0420   35.9140 C   0  0  0  0  0  3  0  0  0  0  0  0
   13.1290  -57.8860   39.5890 H   0  0  0  0  0  0  0  0  0  0  0  0
   15.7190  -56.1090   38.5480 C   0  0  0  0  0  2  0  0  0  0  0  0
   14.9060  -54.9740   39.0250 C   0  0  0  0  0  2  0  0  0  0  0  0
   15.5140  -53.6190   39.0550 C   0  0  0  0  0  2  0  0  0  0  0  0
   16.8480  -53.6350   39.6150 N   0  0  0  0  0  4  0  0  0  0  0  0
   16.9420  -53.3070   40.5730 H   0  0  0  0  0  0  0  0  0  0  0  0
   17.1110  -54.6860   39.6810 H   0  0  0  0  0  0  0  0  0  0  0  0
   17.8350  -53.0680   38.7450 C   0  0  0  0  0  3  0  0  0  0  0  0
   18.5930  -54.0600   37.9090 C   0  0  0  0  0  2  0  0  0  0  0  0
   19.8720  -53.3440   37.4530 C   0  0  0  0  0  2  0  0  0  0  0  0
   19.4880  -52.1760   36.6130 C   0  0  0  0  0  2  0  0  0  0  0  0
   18.4900  -51.2520   37.2720 C   0  0  0  0  0  2  0  0  0  0  0  0
   17.2740  -52.0410   37.7700 C   0  0  0  0  0  2  0  0  0  0  0  0
   16.6380  -56.4330   35.4810 C   0  0  0  0  0  0  0  0  0  0  0  0
   16.5420  -55.0940   35.1600 C   0  0  0  0  0  3  0  0  0  0  0  0
   17.5310  -54.4370   34.4860 C   0  0  0  0  0  3  0  0  0  0  0  0
   18.6670  -55.0760   34.0940 C   0  0  0  0  0  0  0  0  0  0  0  0
   20.0660  -54.1560   33.1420 Br  0  0  0  0  0  0  0  0  0  0  0  0
   18.8030  -56.4020   34.3930 C   0  0  0  0  0  3  0  0  0  0  0  0
   17.7680  -57.0690   35.0930 C   0  0  0  0  0  3  0  0  0  0  0  0
  1  8  1  0  0  0  0
  2  1  2  0  0  0  0
  2  3  1  0  0  0  0
  3  4  1  0  0  0  0
  4  5  1  0  0  0  0
  5  9  2  0  0  0  0
  5  6  1  0  0  0  0
  6 13  1  0  0  0  0
  7  3  1  1  0  0  0
  7  6  1  0  0  0  0
  8  7  1  0  0  0  0
  8 14  1  0  0  0  0
 10  9  1  0  0  0  0
 11 10  2  0  0  0  0
 12 11  1  0  0  0  0
 12  4  2  0  0  0  0
 14 15  1  0  0  0  0
 15 16  1  0  0  0  0
 16 17  1  0  0  0  0
 17 19  1  0  0  0  0
 17 18  1  0  0  0  0
 20 17  1  0  0  0  0
 21 20  1  0  0  0  0
 22 21  1  0  0  0  0
 23 24  1  0  0  0  0
 23 22  1  0  0  0  0
 24 25  1  0  0  0  0
 25 20  1  0  0  0  0
 26  1  1  0  0  0  0
 27 26  1  0  0  0  0
 28 27  2  0  0  0  0
 29 31  2  0  0  0  0
 29 28  1  0  0  0  0
 30 29  1  0  0  0  0
 31 32  1  0  0  0  0
 32 26  2  0  0  0  0
M  END
>  <Pose>
1

>  <Score>
-9.674

$$$$
