/Users/jonathanwahrer/Desktop/Msc/3_Semester/Drug_Design_Praktikum/waehrer_HTS_screening/HTS_experiment/out/docking_results/vina_output/6s1j/0346_docked.pdbqt
 OpenBabel03222221143D

 35 38  0  0  1  0  0  0  0  0999 V2000
   18.6880  -56.3600   33.4770 C   0  0  2  0  0  3  0  0  0  0  0  0
   18.4130  -55.9910   32.1160 N   0  0  0  0  0  0  0  0  0  0  0  0
   17.3870  -56.7950   31.5660 C   0  0  0  0  0  0  0  0  0  0  0  0
   16.9070  -56.7630   30.3910 O   0  0  0  0  0  0  0  0  0  0  0  0
   16.9100  -57.7390   32.6020 C   0  0  0  0  0  0  0  0  0  0  0  0
   16.0080  -58.5910   32.4410 O   0  0  0  0  0  0  0  0  0  0  0  0
   17.7020  -57.4490   33.7790 C   0  0  1  0  0  3  0  0  0  0  0  0
   17.5710  -58.1100   34.9080 C   0  0  1  0  0  3  0  0  0  0  0  0
   18.5590  -59.0660   35.2260 O   0  0  0  0  0  1  0  0  0  0  0  0
   16.5100  -57.9490   35.8700 C   0  0  0  0  0  0  0  0  0  0  0  0
   16.4250  -57.0020   36.8290 C   0  0  0  0  0  3  0  0  0  0  0  0
   15.3310  -56.9400   37.6670 C   0  0  0  0  0  0  0  0  0  0  0  0
   14.2700  -57.8170   37.5890 C   0  0  0  0  0  0  0  0  0  0  0  0
   15.2820  -55.8700   38.7170 C   0  0  0  0  0  1  0  0  0  0  0  0
   14.3820  -58.7750   36.6010 C   0  0  0  0  0  3  0  0  0  0  0  0
   15.4520  -58.8650   35.7550 C   0  0  0  0  0  3  0  0  0  0  0  0
   13.1710  -57.7490   38.4370 O   0  0  0  0  0  0  0  0  0  0  0  0
   12.4860  -58.9360   38.8100 C   0  0  0  0  0  1  0  0  0  0  0  0
   18.5790  -55.2390   34.4150 C   0  0  0  0  0  0  0  0  0  0  0  0
   19.6750  -54.8030   35.1270 C   0  0  0  0  0  3  0  0  0  0  0  0
   19.5740  -53.7350   36.0240 C   0  0  0  0  0  3  0  0  0  0  0  0
   18.3710  -53.0930   36.2190 C   0  0  0  0  0  0  0  0  0  0  0  0
   18.2680  -51.6310   37.4620 Br  0  0  0  0  0  0  0  0  0  0  0  0
   17.2790  -53.5200   35.5170 C   0  0  0  0  0  3  0  0  0  0  0  0
   17.3960  -54.5720   34.6390 C   0  0  0  0  0  3  0  0  0  0  0  0
   19.1180  -54.9330   31.4140 C   0  0  0  0  0  2  0  0  0  0  0  0
   20.4560  -55.3610   30.8760 C   0  0  0  0  0  2  0  0  0  0  0  0
   20.4080  -55.6040   29.3990 C   0  0  0  0  0  2  0  0  0  0  0  0
   19.8250  -56.8670   29.0510 N   0  0  0  0  0  4  0  0  0  0  0  0
   20.4480  -57.9910   29.7200 C   0  0  0  0  0  2  0  0  0  0  0  0
   19.5670  -59.2140   29.4410 C   0  0  0  0  0  2  0  0  0  0  0  0
   18.6280  -58.9280   28.4620 O   0  0  0  0  0  0  0  0  0  0  0  0
   19.2620  -58.4060   27.3130 C   0  0  0  0  0  2  0  0  0  0  0  0
   19.8200  -57.0210   27.6240 C   0  0  0  0  0  2  0  0  0  0  0  0
   18.8100  -56.8660   29.3670 H   0  0  0  0  0  0  0  0  0  0  0  0
  1  7  1  0  0  0  0
  1 19  1  1  0  0  0
  2  1  1  0  0  0  0
  3  2  1  0  0  0  0
  3  5  1  0  0  0  0
  4  3  2  0  0  0  0
  5  7  1  0  0  0  0
  6  5  2  0  0  0  0
  7  8  1  6  0  0  0
  8  9  1  1  0  0  0
  8 10  1  0  0  0  0
 10 11  1  0  0  0  0
 11 12  2  0  0  0  0
 12 14  1  0  0  0  0
 13 12  1  0  0  0  0
 13 17  1  0  0  0  0
 15 13  2  0  0  0  0
 16 10  2  0  0  0  0
 16 15  1  0  0  0  0
 17 18  1  0  0  0  0
 19 25  2  0  0  0  0
 19 20  1  0  0  0  0
 20 21  2  0  0  0  0
 21 22  1  0  0  0  0
 22 23  1  0  0  0  0
 24 22  2  0  0  0  0
 25 24  1  0  0  0  0
 26  2  1  0  0  0  0
 27 26  1  0  0  0  0
 28 27  1  0  0  0  0
 29 35  1  0  0  0  0
 29 28  1  0  0  0  0
 29 30  1  0  0  0  0
 31 30  1  0  0  0  0
 32 31  1  0  0  0  0
 33 34  1  0  0  0  0
 33 32  1  0  0  0  0
 34 29  1  0  0  0  0
M  END
>  <Pose>
1

>  <Score>
-8.670

$$$$
