/Users/jonathanwahrer/Desktop/Msc/3_Semester/Drug_Design_Praktikum/waehrer_HTS_screening/HTS_experiment/out/docking_results/vina_output/6s1j/0349_docked.pdbqt
 OpenBabel03222221143D

 32 35  0  0  1  0  0  0  0  0999 V2000
   16.3540  -56.5310   36.6470 C   0  0  1  0  0  3  0  0  0  0  0  0
   15.7420  -55.8430   37.7000 N   0  0  0  0  0  0  0  0  0  0  0  0
   15.2850  -56.9240   38.5980 C   0  0  0  0  0  0  0  0  0  0  0  0
   15.1660  -56.8710   39.8530 O   0  0  0  0  0  0  0  0  0  0  0  0
   15.0080  -58.0490   37.7000 C   0  0  0  0  0  0  0  0  0  0  0  0
   14.5790  -59.2050   37.9990 O   0  0  0  0  0  0  0  0  0  0  0  0
   15.3260  -57.5650   36.3430 C   0  0  0  0  0  0  0  0  0  0  0  0
   14.7810  -57.9390   35.2080 C   0  0  0  0  0  0  0  0  0  0  0  0
   15.1480  -57.3270   34.0150 O   0  0  0  0  0  1  0  0  0  0  0  0
   15.5020  -54.4670   38.1090 C   0  0  0  0  0  2  0  0  0  0  0  0
   16.3560  -54.0120   39.2630 C   0  0  0  0  0  2  0  0  0  0  0  0
   17.4540  -53.1860   38.8790 N   0  0  0  0  0  4  0  0  0  0  0  0
   17.0570  -52.2890   37.8100 C   0  0  0  0  0  2  0  0  0  0  0  0
   18.2270  -51.4070   37.4630 C   0  0  0  0  0  2  0  0  0  0  0  0
   19.1790  -52.2380   36.8500 O   0  0  0  0  0  0  0  0  0  0  0  0
   19.6050  -53.1490   37.7890 C   0  0  0  0  0  2  0  0  0  0  0  0
   18.4990  -54.0430   38.2840 C   0  0  0  0  0  2  0  0  0  0  0  0
   17.8700  -52.6670   39.6650 H   0  0  0  0  0  0  0  0  0  0  0  0
   17.1370  -56.0060   35.5960 C   0  0  0  0  0  0  0  0  0  0  0  0
   18.0680  -56.8660   34.9930 C   0  0  0  0  0  3  0  0  0  0  0  0
   18.8850  -56.4620   33.9760 C   0  0  0  0  0  3  0  0  0  0  0  0
   18.8240  -55.1720   33.4940 C   0  0  0  0  0  0  0  0  0  0  0  0
   19.9540  -54.5750   32.0680 Br  0  0  0  0  0  0  0  0  0  0  0  0
   17.9150  -54.3250   34.0810 C   0  0  0  0  0  3  0  0  0  0  0  0
   17.0830  -54.7430   35.1210 C   0  0  0  0  0  3  0  0  0  0  0  0
   13.7880  -58.9970   35.1150 C   0  0  0  0  0  0  0  0  0  0  0  0
   12.4740  -58.8960   35.4490 C   0  0  0  0  0  3  0  0  0  0  0  0
   11.6180  -59.9740   35.2690 C   0  0  0  0  0  3  0  0  0  0  0  0
   12.0880  -61.1590   34.7510 C   0  0  0  0  0  0  0  0  0  0  0  0
   13.4110  -61.3030   34.4010 C   0  0  0  0  0  3  0  0  0  0  0  0
   11.1980  -62.3400   34.5440 C   0  0  0  0  0  1  0  0  0  0  0  0
   14.2470  -60.2110   34.5900 C   0  0  0  0  0  3  0  0  0  0  0  0
  1 19  1  6  0  0  0
  1  2  1  0  0  0  0
  2 10  1  0  0  0  0
  2  3  1  0  0  0  0
  3  4  2  0  0  0  0
  5  6  2  0  0  0  0
  5  3  1  0  0  0  0
  7  1  1  0  0  0  0
  7  5  1  0  0  0  0
  8  7  2  0  0  0  0
  9  8  1  0  0  0  0
 10 11  1  0  0  0  0
 12 11  1  0  0  0  0
 12 18  1  0  0  0  0
 13 12  1  0  0  0  0
 14 13  1  0  0  0  0
 15 14  1  0  0  0  0
 15 16  1  0  0  0  0
 16 17  1  0  0  0  0
 17 12  1  0  0  0  0
 20 19  2  0  0  0  0
 21 20  1  0  0  0  0
 22 21  2  0  0  0  0
 22 24  1  0  0  0  0
 23 22  1  0  0  0  0
 24 25  2  0  0  0  0
 25 19  1  0  0  0  0
 26  8  1  0  0  0  0
 26 27  1  0  0  0  0
 28 27  2  0  0  0  0
 29 28  1  0  0  0  0
 30 32  1  0  0  0  0
 30 29  2  0  0  0  0
 31 29  1  0  0  0  0
 32 26  2  0  0  0  0
M  END
>  <Pose>
1

>  <Score>
-8.862

$$$$
