/Users/jonathanwahrer/Desktop/Msc/3_Semester/Drug_Design_Praktikum/waehrer_HTS_screening/HTS_experiment/out/docking_results/vina_output/6s1j/0351_docked.pdbqt
 OpenBabel03222221153D

 32 35  0  0  1  0  0  0  0  0999 V2000
   16.9700  -56.0040   33.8690 C   0  0  1  0  0  3  0  0  0  0  0  0
   17.8720  -55.4890   34.8340 N   0  0  0  0  0  0  0  0  0  0  0  0
   18.6950  -54.5610   34.0640 C   0  0  0  0  0  0  0  0  0  0  0  0
   19.2680  -53.5300   34.5110 O   0  0  0  0  0  0  0  0  0  0  0  0
   18.7070  -55.0800   32.6970 C   0  0  0  0  0  0  0  0  0  0  0  0
   19.2960  -54.6100   31.6890 O   0  0  0  0  0  0  0  0  0  0  0  0
   17.8840  -56.2910   32.7230 C   0  0  0  0  0  0  0  0  0  0  0  0
   17.9880  -57.3550   31.9480 C   0  0  0  0  0  0  0  0  0  0  0  0
   17.1630  -58.4510   32.1490 O   0  0  0  0  0  1  0  0  0  0  0  0
   18.0340  -55.6820   36.2770 C   0  0  0  0  0  2  0  0  0  0  0  0
   17.0910  -54.8770   37.1190 C   0  0  0  0  0  2  0  0  0  0  0  0
   17.6810  -54.4480   38.3670 N   0  0  0  0  0  4  0  0  0  0  0  0
   16.7490  -53.7670   39.2210 C   0  0  0  0  0  2  0  0  0  0  0  0
   16.3460  -52.4100   38.7240 C   0  0  0  0  0  2  0  0  0  0  0  0
   17.4500  -51.6090   38.4270 O   0  0  0  0  0  0  0  0  0  0  0  0
   18.1610  -52.2820   37.4220 C   0  0  0  0  0  2  0  0  0  0  0  0
   18.7540  -53.5210   38.0570 C   0  0  0  0  0  2  0  0  0  0  0  0
   18.1010  -55.2330   38.9010 H   0  0  0  0  0  0  0  0  0  0  0  0
   15.9990  -56.9850   34.1680 C   0  0  0  0  0  0  0  0  0  0  0  0
   16.2250  -58.0250   35.0240 C   0  0  0  0  0  3  0  0  0  0  0  0
   15.2190  -58.9640   35.2990 C   0  0  0  0  0  3  0  0  0  0  0  0
   13.9740  -58.8740   34.7190 C   0  0  0  0  0  0  0  0  0  0  0  0
   12.5770  -60.1200   35.0570 Br  0  0  0  0  0  0  0  0  0  0  0  0
   13.7450  -57.8340   33.8600 C   0  0  0  0  0  3  0  0  0  0  0  0
   14.7420  -56.9220   33.6020 C   0  0  0  0  0  3  0  0  0  0  0  0
   18.9380  -57.4630   30.8500 C   0  0  0  0  0  0  0  0  0  0  0  0
   18.3980  -57.2030   29.5830 C   0  0  0  0  0  3  0  0  0  0  0  0
   19.1680  -57.2230   28.4440 C   0  0  0  0  0  3  0  0  0  0  0  0
   20.5230  -57.5110   28.5710 C   0  0  0  0  0  0  0  0  0  0  0  0
   21.0470  -57.7650   29.8190 C   0  0  0  0  0  3  0  0  0  0  0  0
   21.4920  -57.5340   27.1160 Cl  0  0  0  0  0  0  0  0  0  0  0  0
   20.2660  -57.7420   30.9560 C   0  0  0  0  0  3  0  0  0  0  0  0
  1 19  1  1  0  0  0
  1  2  1  0  0  0  0
  2 10  1  0  0  0  0
  3  4  2  0  0  0  0
  3  2  1  0  0  0  0
  5  7  1  0  0  0  0
  5  3  1  0  0  0  0
  6  5  2  0  0  0  0
  7  1  1  0  0  0  0
  8  9  1  0  0  0  0
  8  7  2  0  0  0  0
 10 11  1  0  0  0  0
 11 12  1  0  0  0  0
 12 18  1  0  0  0  0
 12 13  1  0  0  0  0
 14 13  1  0  0  0  0
 15 14  1  0  0  0  0
 16 17  1  0  0  0  0
 16 15  1  0  0  0  0
 17 12  1  0  0  0  0
 19 20  1  0  0  0  0
 20 21  2  0  0  0  0
 22 23  1  0  0  0  0
 22 21  1  0  0  0  0
 24 22  2  0  0  0  0
 25 24  1  0  0  0  0
 25 19  2  0  0  0  0
 26 32  1  0  0  0  0
 26  8  1  0  0  0  0
 27 26  2  0  0  0  0
 28 29  2  0  0  0  0
 28 27  1  0  0  0  0
 29 30  1  0  0  0  0
 30 32  2  0  0  0  0
 31 29  1  0  0  0  0
M  END
>  <Pose>
1

>  <Score>
-8.329

$$$$
