/Users/jonathanwahrer/Desktop/Msc/3_Semester/Drug_Design_Praktikum/waehrer_HTS_screening/HTS_experiment/out/docking_results/vina_output/6s1j/0364_docked.pdbqt
 OpenBabel03222221163D

 32 35  0  0  1  0  0  0  0  0999 V2000
   16.2090  -57.5860   35.4690 C   0  0  1  0  0  3  0  0  0  0  0  0
   14.8370  -57.9580   35.2590 N   0  0  0  0  0  0  0  0  0  0  0  0
   14.4560  -57.4770   33.9820 C   0  0  0  0  0  0  0  0  0  0  0  0
   13.2750  -57.4380   33.5330 O   0  0  0  0  0  0  0  0  0  0  0  0
   15.6500  -57.0310   33.2610 C   0  0  0  0  0  0  0  0  0  0  0  0
   15.7110  -56.5490   32.1030 O   0  0  0  0  0  0  0  0  0  0  0  0
   16.7800  -57.2540   34.1460 C   0  0  0  0  0  0  0  0  0  0  0  0
   18.0550  -57.2180   33.7950 C   0  0  0  0  0  0  0  0  0  0  0  0
   19.0040  -57.5390   34.7850 O   0  0  0  0  0  1  0  0  0  0  0  0
   16.3430  -56.4570   36.4300 C   0  0  0  0  0  0  0  0  0  0  0  0
   17.0290  -55.3030   36.1290 C   0  0  0  0  0  3  0  0  0  0  0  0
   17.1730  -54.2420   36.9920 C   0  0  0  0  0  3  0  0  0  0  0  0
   16.6100  -54.3060   38.2340 C   0  0  0  0  0  0  0  0  0  0  0  0
   16.8200  -52.8220   39.4200 Br  0  0  0  0  0  0  0  0  0  0  0  0
   15.9140  -55.4400   38.5820 C   0  0  0  0  0  3  0  0  0  0  0  0
   15.7810  -56.4910   37.7070 C   0  0  0  0  0  3  0  0  0  0  0  0
   18.5740  -56.8720   32.4950 C   0  0  0  0  0  0  0  0  0  0  0  0
   18.6570  -57.5370   31.3360 N   0  0  0  0  0  0  0  0  0  0  0  0
   19.2720  -56.7950   30.3990 C   0  0  0  0  0  0  0  0  0  0  0  0
   18.2220  -58.7660   30.9840 C   0  0  0  0  0  3  0  0  0  0  0  0
   19.5890  -55.6230   30.9750 N   0  0  0  0  0  0  0  0  0  0  0  0
   19.4830  -57.2250   29.0940 C   0  0  0  0  0  3  0  0  0  0  0  0
   19.1810  -55.6340   32.2450 C   0  0  0  0  0  0  0  0  0  0  0  0
   19.3510  -54.5130   33.2110 C   0  0  0  0  0  1  0  0  0  0  0  0
   19.0400  -58.4700   28.7430 C   0  0  0  0  0  3  0  0  0  0  0  0
   18.4060  -59.2360   29.7040 C   0  0  0  0  0  3  0  0  0  0  0  0
   13.9720  -58.7090   36.1960 C   0  0  0  0  0  2  0  0  0  0  0  0
   13.4620  -59.9690   35.5310 C   0  0  0  0  0  2  0  0  0  0  0  0
   12.0580  -59.9660   35.3140 N   0  0  0  0  0  4  0  0  0  0  0  0
   11.7240  -61.1640   34.5430 C   0  0  0  0  0  1  0  0  0  0  0  0
   11.2570  -59.9470   36.4990 C   0  0  0  0  0  1  0  0  0  0  0  0
   11.7510  -59.1470   34.7180 H   0  0  0  0  0  0  0  0  0  0  0  0
  1 10  1  1  0  0  0
  2  1  1  0  0  0  0
  2 27  1  0  0  0  0
  3  2  1  0  0  0  0
  4  3  2  0  0  0  0
  5  3  1  0  0  0  0
  5  7  1  0  0  0  0
  6  5  2  0  0  0  0
  7  1  1  0  0  0  0
  8  7  2  0  0  0  0
  8  9  1  0  0  0  0
 10 16  1  0  0  0  0
 11 10  2  0  0  0  0
 11 12  1  0  0  0  0
 12 13  2  0  0  0  0
 13 15  1  0  0  0  0
 13 14  1  0  0  0  0
 16 15  2  0  0  0  0
 17  8  1  0  0  0  0
 18 17  1  0  0  0  0
 19 21  2  0  0  0  0
 19 18  1  0  0  0  0
 20 18  1  0  0  0  0
 21 23  1  0  0  0  0
 22 19  1  0  0  0  0
 23 17  2  0  0  0  0
 23 24  1  0  0  0  0
 25 22  2  0  0  0  0
 25 26  1  0  0  0  0
 26 20  2  0  0  0  0
 28 27  1  0  0  0  0
 29 28  1  0  0  0  0
 29 31  1  0  0  0  0
 30 29  1  0  0  0  0
 32 29  1  0  0  0  0
M  END
>  <Pose>
1

>  <Score>
-9.255

$$$$
