/Users/jonathanwahrer/Desktop/Msc/3_Semester/Drug_Design_Praktikum/waehrer_HTS_screening/HTS_experiment/out/docking_results/vina_output/6s1j/0381_docked.pdbqt
 OpenBabel03222221163D

 29 32  0  0  0  0  0  0  0  0999 V2000
   16.2080  -56.7580   37.0250 N   0  0  0  0  0  0  0  0  0  0  0  0
   16.8200  -55.5820   36.9190 N   0  0  0  0  0  0  0  0  0  0  0  0
   16.5390  -54.5490   37.7640 C   0  0  0  0  0  0  0  0  0  0  0  0
   15.6220  -54.7200   38.7280 N   0  0  0  0  0  0  0  0  0  0  0  0
   15.4570  -53.5040   39.4930 C   0  0  0  0  0  3  0  0  0  0  0  0
   16.4030  -52.4940   38.9140 C   0  0  0  0  0  3  0  0  0  0  0  0
   17.0810  -53.2380   37.8690 N   0  0  0  0  0  0  0  0  0  0  0  0
   14.9730  -55.8820   38.8850 C   0  0  0  0  0  0  0  0  0  0  0  0
   14.1150  -56.0400   39.7860 O   0  0  0  0  0  0  0  0  0  0  0  0
   15.2960  -56.8940   38.0030 C   0  0  0  0  0  0  0  0  0  0  0  0
   14.7120  -58.0020   38.1100 O   0  0  0  0  0  0  0  0  0  0  0  0
   16.5240  -57.8930   36.1420 C   0  0  0  0  0  2  0  0  0  0  0  0
   17.0650  -57.4220   34.8680 C   0  0  0  0  0  0  0  0  0  0  0  0
   18.4040  -57.1780   34.5390 N   0  0  0  0  0  0  0  0  0  0  0  0
   19.1150  -57.3440   35.3060 H   0  0  0  0  0  0  0  0  0  0  0  0
   16.1530  -57.2230   33.9700 O   0  0  0  0  0  0  0  0  0  0  0  0
   18.8720  -56.7330   33.2990 C   0  0  0  0  0  0  0  0  0  0  0  0
   19.1140  -55.4370   32.9180 C   0  0  0  0  0  3  0  0  0  0  0  0
   19.6120  -55.0940   31.6540 C   0  0  0  0  0  3  0  0  0  0  0  0
   19.8910  -56.0510   30.7140 C   0  0  0  0  0  0  0  0  0  0  0  0
   20.5750  -55.6020   28.9880 Br  0  0  0  0  0  0  0  0  0  0  0  0
   19.6560  -57.3630   31.0750 C   0  0  0  0  0  3  0  0  0  0  0  0
   19.1680  -57.6900   32.3090 C   0  0  0  0  0  3  0  0  0  0  0  0
   18.1290  -52.6870   37.0950 C   0  0  0  0  0  0  0  0  0  0  0  0
   18.8730  -53.4060   36.1980 C   0  0  0  0  0  3  0  0  0  0  0  0
   19.9030  -52.8410   35.4660 C   0  0  0  0  0  3  0  0  0  0  0  0
   20.2050  -51.5030   35.6340 C   0  0  0  0  0  3  0  0  0  0  0  0
   19.4770  -50.7710   36.5190 C   0  0  0  0  0  3  0  0  0  0  0  0
   18.4540  -51.3420   37.2440 C   0  0  0  0  0  3  0  0  0  0  0  0
  1 10  1  0  0  0  0
  2  1  1  0  0  0  0
  2  3  2  0  0  0  0
  3  7  1  0  0  0  0
  3  4  1  0  0  0  0
  4  8  1  0  0  0  0
  4  5  1  0  0  0  0
  6  5  2  0  0  0  0
  7  6  1  0  0  0  0
  8  9  2  0  0  0  0
 10 11  2  0  0  0  0
 10  8  1  0  0  0  0
 12  1  1  0  0  0  0
 13 12  1  0  0  0  0
 14 13  1  0  0  0  0
 14 15  1  0  0  0  0
 16 13  2  0  0  0  0
 17 14  1  0  0  0  0
 18 17  1  0  0  0  0
 19 18  2  0  0  0  0
 20 22  2  0  0  0  0
 20 19  1  0  0  0  0
 21 20  1  0  0  0  0
 22 23  1  0  0  0  0
 23 17  2  0  0  0  0
 24 29  1  0  0  0  0
 24  7  1  0  0  0  0
 25 24  2  0  0  0  0
 26 27  2  0  0  0  0
 26 25  1  0  0  0  0
 27 28  1  0  0  0  0
 28 29  2  0  0  0  0
M  END
>  <Pose>
1

>  <Score>
-10.423

$$$$
