/Users/jonathanwahrer/Desktop/Msc/3_Semester/Drug_Design_Praktikum/waehrer_HTS_screening/HTS_experiment/out/docking_results/vina_output/6s1j/0385_docked.pdbqt
 OpenBabel03222221173D

 32 35  0  0  1  0  0  0  0  0999 V2000
   14.5850  -57.3350   36.3210 C   0  0  2  0  0  3  0  0  0  0  0  0
   13.6090  -57.4590   37.4530 C   0  0  0  0  0  2  0  0  0  0  0  0
   13.2050  -58.8360   37.7630 C   0  0  0  0  0  0  0  0  0  0  0  0
   12.9060  -59.1090   38.9580 O   0  0  0  0  0  0  0  0  0  0  0  0
   13.1610  -59.8140   36.7390 N   0  0  0  0  0  0  0  0  0  0  0  0
   13.8060  -59.5770   35.5070 C   0  0  0  0  0  0  0  0  0  0  0  0
   13.7390  -60.5310   34.5270 N   0  0  0  0  0  0  0  0  0  0  0  0
   14.3140  -60.3660   33.3340 C   0  0  0  0  0  0  0  0  0  0  0  0
   14.9740  -59.2210   33.1140 N   0  0  0  0  0  0  0  0  0  0  0  0
   15.0730  -58.2390   34.0570 C   0  0  0  0  0  0  0  0  0  0  0  0
   14.4860  -58.3840   35.2990 C   0  0  0  0  0  0  0  0  0  0  0  0
   12.6500  -60.7350   36.8700 H   0  0  0  0  0  0  0  0  0  0  0  0
   15.9770  -57.3130   36.9890 C   0  0  0  0  0  0  0  0  0  0  0  0
   16.7090  -56.2130   36.9460 N   0  0  0  0  0  0  0  0  0  0  0  0
   17.7620  -56.8870   37.4850 H   0  0  0  0  0  0  0  0  0  0  0  0
   16.2180  -58.4690   37.5210 O   0  0  0  0  0  0  0  0  0  0  0  0
   17.4690  -55.0710   36.9030 C   0  0  0  0  0  0  0  0  0  0  0  0
   18.0200  -54.7230   35.6290 C   0  0  0  0  0  3  0  0  0  0  0  0
   18.7230  -53.5870   35.4500 C   0  0  0  0  0  3  0  0  0  0  0  0
   18.9450  -52.7090   36.4810 C   0  0  0  0  0  0  0  0  0  0  0  0
   19.9430  -51.0920   36.2070 Br  0  0  0  0  0  0  0  0  0  0  0  0
   18.4340  -53.0080   37.7250 C   0  0  0  0  0  3  0  0  0  0  0  0
   17.7160  -54.1640   37.9100 C   0  0  0  0  0  3  0  0  0  0  0  0
   15.7960  -57.0450   33.7800 N   0  0  0  0  0  0  0  0  0  0  0  0
   16.7290  -56.8520   34.1570 H   0  0  0  0  0  0  0  0  0  0  0  0
   15.3490  -56.3210   33.1610 H   0  0  0  0  0  0  0  0  0  0  0  0
   14.2310  -61.3890   32.3150 N   0  0  0  0  0  0  0  0  0  0  0  0
   14.9240  -61.1490   31.0980 C   0  0  0  0  0  2  0  0  0  0  0  0
   15.1820  -62.3810   30.2790 C   0  0  0  0  0  2  0  0  0  0  0  0
   14.7680  -63.5430   30.9220 O   0  0  0  0  0  0  0  0  0  0  0  0
   13.4590  -63.4460   31.3720 C   0  0  0  0  0  2  0  0  0  0  0  0
   13.4600  -62.5800   32.6050 C   0  0  0  0  0  2  0  0  0  0  0  0
  1 13  1  1  0  0  0
  1  2  1  0  0  0  0
  2  3  1  0  0  0  0
  3  4  2  0  0  0  0
  5 12  1  0  0  0  0
  5  3  1  0  0  0  0
  6  5  1  0  0  0  0
  7  6  1  0  0  0  0
  8  7  2  0  0  0  0
  9  8  1  0  0  0  0
  9 10  2  0  0  0  0
 10 11  1  0  0  0  0
 11  6  2  0  0  0  0
 11  1  1  0  0  0  0
 13 16  2  0  0  0  0
 14 13  1  0  0  0  0
 14 15  1  0  0  0  0
 17 14  1  0  0  0  0
 17 23  1  0  0  0  0
 18 17  2  0  0  0  0
 19 18  1  0  0  0  0
 19 20  2  0  0  0  0
 20 22  1  0  0  0  0
 21 20  1  0  0  0  0
 22 23  2  0  0  0  0
 24 10  1  0  0  0  0
 24 25  1  0  0  0  0
 26 24  1  0  0  0  0
 27 32  1  0  0  0  0
 27  8  1  0  0  0  0
 28 27  1  0  0  0  0
 29 30  1  0  0  0  0
 29 28  1  0  0  0  0
 30 31  1  0  0  0  0
 31 32  1  0  0  0  0
M  END
>  <Pose>
1

>  <Score>
-8.936

$$$$
