/Users/jonathanwahrer/Desktop/Msc/3_Semester/Drug_Design_Praktikum/waehrer_HTS_screening/HTS_experiment/out/docking_results/vina_output/6s1j/0386_docked.pdbqt
 OpenBabel03222221173D

 36 39  0  0  1  0  0  0  0  0999 V2000
   16.3850  -58.1730   33.4460 C   0  0  2  0  0  3  0  0  0  0  0  0
   17.1750  -58.3580   32.1640 C   0  0  0  0  0  2  0  0  0  0  0  0
   17.2140  -57.0410   31.4580 C   0  0  0  0  0  0  0  0  0  0  0  0
   16.9360  -56.9590   30.2750 O   0  0  0  0  0  0  0  0  0  0  0  0
   17.5860  -55.9300   32.2280 N   0  0  0  0  0  0  0  0  0  0  0  0
   17.4660  -55.9520   33.6370 C   0  0  0  0  0  0  0  0  0  0  0  0
   17.9110  -54.9300   34.3950 N   0  0  0  0  0  0  0  0  0  0  0  0
   17.9210  -54.9060   35.7290 C   0  0  0  0  0  0  0  0  0  0  0  0
   17.4360  -56.0240   36.3270 N   0  0  0  0  0  0  0  0  0  0  0  0
   16.9690  -57.0900   35.6280 C   0  0  0  0  0  0  0  0  0  0  0  0
   16.9540  -57.1110   34.2670 C   0  0  0  0  0  0  0  0  0  0  0  0
   17.9700  -55.0430   31.8050 H   0  0  0  0  0  0  0  0  0  0  0  0
   15.9540  -59.4470   34.0830 C   0  0  0  0  0  0  0  0  0  0  0  0
   14.7900  -59.5610   34.7520 N   0  0  0  0  0  0  0  0  0  0  0  0
   14.9900  -60.8870   34.8900 H   0  0  0  0  0  0  0  0  0  0  0  0
   16.8560  -60.3670   33.8750 O   0  0  0  0  0  0  0  0  0  0  0  0
   13.6050  -59.6790   35.4340 C   0  0  0  0  0  0  0  0  0  0  0  0
   13.5790  -58.9880   36.6880 C   0  0  0  0  0  3  0  0  0  0  0  0
   12.4670  -59.1130   37.4520 C   0  0  0  0  0  3  0  0  0  0  0  0
   11.3690  -59.8690   37.0800 C   0  0  0  0  0  0  0  0  0  0  0  0
    9.8670  -59.9750   38.2260 Br  0  0  0  0  0  0  0  0  0  0  0  0
   11.3790  -60.5350   35.8870 C   0  0  0  0  0  3  0  0  0  0  0  0
   12.4990  -60.4220   35.0950 C   0  0  0  0  0  3  0  0  0  0  0  0
   16.4910  -58.1990   36.3220 O   0  0  0  0  0  0  0  0  0  0  0  0
   15.5300  -58.5230   36.2350 H   0  0  0  0  0  0  0  0  0  0  0  0
   18.3470  -53.7990   36.5010 N   0  0  0  0  0  0  0  0  0  0  0  0
   17.7390  -52.4950   36.5410 C   0  0  0  0  0  2  0  0  0  0  0  0
   17.7880  -51.9880   37.9790 C   0  0  0  0  0  2  0  0  0  0  0  0
   17.7520  -53.1080   38.9770 C   0  0  2  0  0  3  0  0  0  0  0  0
   18.9030  -54.0350   38.8010 C   0  0  0  0  0  2  0  0  0  0  0  0
   19.5100  -53.9560   37.3810 C   0  0  0  0  0  2  0  0  0  0  0  0
   16.4440  -53.8030   38.9840 C   0  0  0  0  0  0  0  0  0  0  0  0
   15.4160  -53.1050   39.1040 O   0  0  0  0  0  0  0  0  0  0  0  0
   16.2960  -55.2030   38.8700 N   0  0  0  0  0  0  0  0  0  0  0  0
   16.9140  -55.7850   38.2750 H   0  0  0  0  0  0  0  0  0  0  0  0
   15.5360  -55.6700   39.4070 H   0  0  0  0  0  0  0  0  0  0  0  0
  1 13  1  1  0  0  0
  1 11  1  0  0  0  0
  2  1  1  0  0  0  0
  3  2  1  0  0  0  0
  3  5  1  0  0  0  0
  4  3  2  0  0  0  0
  5  6  1  0  0  0  0
  6 11  2  0  0  0  0
  6  7  1  0  0  0  0
  7  8  2  0  0  0  0
  8  9  1  0  0  0  0
  8 26  1  0  0  0  0
 10 24  1  0  0  0  0
 10  9  2  0  0  0  0
 11 10  1  0  0  0  0
 12  5  1  0  0  0  0
 13 14  1  0  0  0  0
 14 15  1  0  0  0  0
 14 17  1  0  0  0  0
 16 13  2  0  0  0  0
 17 18  1  0  0  0  0
 18 19  2  0  0  0  0
 20 19  1  0  0  0  0
 20 21  1  0  0  0  0
 22 20  2  0  0  0  0
 23 17  2  0  0  0  0
 23 22  1  0  0  0  0
 25 24  1  0  0  0  0
 26 27  1  0  0  0  0
 26 31  1  0  0  0  0
 27 28  1  0  0  0  0
 28 29  1  0  0  0  0
 29 32  1  6  0  0  0
 30 29  1  0  0  0  0
 31 30  1  0  0  0  0
 32 33  2  0  0  0  0
 34 32  1  0  0  0  0
 34 36  1  0  0  0  0
 35 34  1  0  0  0  0
M  END
>  <Pose>
1

>  <Score>
-9.248

$$$$
