/Users/jonathanwahrer/Desktop/Msc/3_Semester/Drug_Design_Praktikum/waehrer_HTS_screening/HTS_experiment/out/docking_results/vina_output/6s1j/0393_docked.pdbqt
 OpenBabel03222221173D

 27 30  0  0  0  0  0  0  0  0999 V2000
   17.2390  -56.2670   35.8490 N   0  0  0  0  0  0  0  0  0  0  0  0
   16.6030  -56.8600   36.8290 N   0  0  0  0  0  0  0  0  0  0  0  0
   16.0610  -58.0350   36.4540 C   0  0  0  0  0  3  0  0  0  0  0  0
   16.3830  -58.1920   35.1340 C   0  0  0  0  0  0  0  0  0  0  0  0
   17.1170  -57.0800   34.7800 C   0  0  0  0  0  0  0  0  0  0  0  0
   16.0040  -59.3300   34.3050 C   0  0  0  0  0  0  0  0  0  0  0  0
   16.9430  -60.0210   33.8410 O   0  0  0  0  0  0  0  0  0  0  0  0
   14.6660  -59.6710   34.0140 N   0  0  0  0  0  0  0  0  0  0  0  0
   14.3990  -60.8180   33.1810 C   0  0  0  0  0  2  0  0  0  0  0  0
   13.5030  -58.9540   34.4880 C   0  0  0  0  0  2  0  0  0  0  0  0
   13.7290  -61.8590   34.0280 C   0  0  0  0  0  2  0  0  0  0  0  0
   13.1060  -61.2860   35.2160 N   0  0  0  0  0  0  0  0  0  0  0  0
   12.7190  -59.9190   35.2940 C   0  0  0  0  0  0  0  0  0  0  0  0
   12.9460  -61.9330   36.0450 H   0  0  0  0  0  0  0  0  0  0  0  0
   11.7530  -59.5840   36.0220 O   0  0  0  0  0  0  0  0  0  0  0  0
   17.6750  -56.8080   33.4740 N   0  0  0  0  0  0  0  0  0  0  0  0
   17.1650  -56.0700   32.4990 C   0  0  0  0  0  3  0  0  0  0  0  0
   18.0060  -56.0600   31.4110 C   0  0  0  0  0  3  0  0  0  0  0  0
   19.0760  -56.8440   31.7710 C   0  0  0  0  0  3  0  0  0  0  0  0
   18.8520  -57.2970   33.0520 C   0  0  0  0  0  3  0  0  0  0  0  0
   17.9160  -55.0100   35.9350 C   0  0  0  0  0  0  0  0  0  0  0  0
   19.1860  -54.8260   35.4220 C   0  0  0  0  0  3  0  0  0  0  0  0
   19.8600  -53.6230   35.4920 C   0  0  0  0  0  3  0  0  0  0  0  0
   19.2610  -52.5390   36.0990 C   0  0  0  0  0  0  0  0  0  0  0  0
   20.1750  -50.8620   36.2090 Br  0  0  0  0  0  0  0  0  0  0  0  0
   17.9910  -52.7050   36.6200 C   0  0  0  0  0  3  0  0  0  0  0  0
   17.3300  -53.9140   36.5410 C   0  0  0  0  0  3  0  0  0  0  0  0
  1 21  1  0  0  0  0
  1  2  1  0  0  0  0
  3  2  2  0  0  0  0
  4  3  1  0  0  0  0
  5  4  2  0  0  0  0
  5  1  1  0  0  0  0
  6  4  1  0  0  0  0
  7  6  2  0  0  0  0
  8  6  1  0  0  0  0
  8 10  1  0  0  0  0
  9  8  1  0  0  0  0
  9 11  1  0  0  0  0
 10 13  1  0  0  0  0
 11 12  1  0  0  0  0
 12 13  1  0  0  0  0
 12 14  1  0  0  0  0
 13 15  2  0  0  0  0
 16  5  1  0  0  0  0
 17 16  1  0  0  0  0
 18 19  1  0  0  0  0
 18 17  2  0  0  0  0
 19 20  2  0  0  0  0
 20 16  1  0  0  0  0
 21 27  1  0  0  0  0
 22 23  1  0  0  0  0
 22 21  2  0  0  0  0
 23 24  2  0  0  0  0
 24 25  1  0  0  0  0
 24 26  1  0  0  0  0
 27 26  2  0  0  0  0
M  END
>  <Pose>
1

>  <Score>
-8.586

$$$$
