/Users/jonathanwahrer/Desktop/Msc/3_Semester/Drug_Design_Praktikum/waehrer_HTS_screening/HTS_experiment/out/docking_results/vina_output/6s1j/0395_docked.pdbqt
 OpenBabel03222221173D

 28 31  0  0  1  0  0  0  0  0999 V2000
   16.5190  -55.0510   37.9490 N   0  0  0  0  0  0  0  0  0  0  0  0
   15.8940  -55.1880   39.1050 N   0  0  0  0  0  0  0  0  0  0  0  0
   15.1460  -56.2780   39.1240 N   0  0  0  0  0  0  0  0  0  0  0  0
   15.2670  -56.9090   37.9250 C   0  0  0  0  0  0  0  0  0  0  0  0
   16.1390  -56.1080   37.2090 C   0  0  0  0  0  0  0  0  0  0  0  0
   16.4430  -56.5000   35.9670 N   0  0  0  0  0  0  0  0  0  0  0  0
   15.9160  -57.6240   35.4500 C   0  0  0  0  0  3  0  0  0  0  0  0
   15.0630  -58.4120   36.1440 N   0  0  0  0  0  0  0  0  0  0  0  0
   14.7320  -58.0560   37.3910 C   0  0  0  0  0  0  0  0  0  0  0  0
   13.9430  -58.7830   38.0340 O   0  0  0  0  0  0  0  0  0  0  0  0
   14.5460  -59.6060   35.5000 C   0  0  0  0  0  2  0  0  0  0  0  0
   14.5650  -59.4370   34.0020 C   0  0  0  0  0  0  0  0  0  0  0  0
   14.0000  -58.4500   33.4600 O   0  0  0  0  0  0  0  0  0  0  0  0
   15.2160  -60.3830   33.1750 N   0  0  0  0  0  0  0  0  0  0  0  0
   15.2410  -60.2330   31.7390 C   0  0  0  0  0  2  0  0  0  0  0  0
   15.8740  -61.5290   33.7580 C   0  0  0  0  0  2  0  0  0  0  0  0
   14.9230  -61.5960   31.1480 C   0  0  2  0  0  3  0  0  0  0  0  0
   15.7540  -62.5930   31.5900 O   0  0  0  0  0  0  0  0  0  0  0  0
   15.1420  -61.4650   29.6370 C   0  0  0  0  0  1  0  0  0  0  0  0
   16.5860  -62.2380   32.6230 C   0  0  2  0  0  3  0  0  0  0  0  0
   17.3860  -63.3840   33.1680 C   0  0  0  0  0  1  0  0  0  0  0  0
   17.4110  -54.0090   37.5440 C   0  0  0  0  0  0  0  0  0  0  0  0
   17.1430  -52.6980   37.8760 C   0  0  0  0  0  3  0  0  0  0  0  0
   18.0040  -51.6820   37.4870 C   0  0  0  0  0  3  0  0  0  0  0  0
   19.1510  -51.9330   36.7630 C   0  0  0  0  0  0  0  0  0  0  0  0
   20.3240  -50.5130   36.2380 Br  0  0  0  0  0  0  0  0  0  0  0  0
   19.4190  -53.2440   36.4310 C   0  0  0  0  0  3  0  0  0  0  0  0
   18.5600  -54.2520   36.8190 C   0  0  0  0  0  3  0  0  0  0  0  0
  1  2  1  0  0  0  0
  2  3  2  0  0  0  0
  4  3  1  0  0  0  0
  5  4  2  0  0  0  0
  5  1  1  0  0  0  0
  6  5  1  0  0  0  0
  7  6  2  0  0  0  0
  7  8  1  0  0  0  0
  8  9  1  0  0  0  0
  9  4  1  0  0  0  0
  9 10  2  0  0  0  0
 11  8  1  0  0  0  0
 12 11  1  0  0  0  0
 13 12  2  0  0  0  0
 14 16  1  0  0  0  0
 14 12  1  0  0  0  0
 15 14  1  0  0  0  0
 17 19  1  6  0  0  0
 17 18  1  0  0  0  0
 17 15  1  0  0  0  0
 18 20  1  0  0  0  0
 20 21  1  1  0  0  0
 20 16  1  0  0  0  0
 22 23  1  0  0  0  0
 22  1  1  0  0  0  0
 24 23  2  0  0  0  0
 25 24  1  0  0  0  0
 26 25  1  0  0  0  0
 27 25  2  0  0  0  0
 27 28  1  0  0  0  0
 28 22  2  0  0  0  0
M  END
>  <Pose>
1

>  <Score>
-9.133

$$$$
