/Users/jonathanwahrer/Desktop/Msc/3_Semester/Drug_Design_Praktikum/waehrer_HTS_screening/HTS_experiment/out/docking_results/vina_output/6s1j/0399_docked.pdbqt
 OpenBabel03222221173D

 28 31  0  0  1  0  0  0  0  0999 V2000
   17.7580  -56.7700   33.9900 N   0  0  0  0  0  0  0  0  0  0  0  0
   17.2260  -57.9370   34.6080 C   0  0  0  0  0  0  0  0  0  0  0  0
   17.1330  -58.1160   35.8410 O   0  0  0  0  0  0  0  0  0  0  0  0
   16.7920  -58.9210   33.6050 C   0  0  2  0  0  3  0  0  0  0  0  0
   17.6340  -58.5330   32.3950 C   0  0  0  0  0  2  0  0  0  0  0  0
   17.8020  -57.0570   32.5790 C   0  0  0  0  0  0  0  0  0  0  0  0
   17.9490  -56.3000   31.6020 O   0  0  0  0  0  0  0  0  0  0  0  0
   15.3860  -58.8830   33.2720 N   0  0  1  0  0  4  0  0  0  0  0  0
   14.7820  -60.1940   33.2800 C   0  0  0  0  0  2  0  0  0  0  0  0
   14.0460  -60.5330   34.5580 C   0  0  0  0  0  2  0  0  0  0  0  0
   13.2970  -59.4050   35.0480 N   0  0  0  0  0  0  0  0  0  0  0  0
   13.2060  -58.3000   34.1230 C   0  0  0  0  0  2  0  0  0  0  0  0
   14.6680  -57.8530   33.9310 C   0  0  0  0  0  2  0  0  0  0  0  0
   15.3850  -58.6150   32.2290 H   0  0  0  0  0  0  0  0  0  0  0  0
   12.7130  -59.3480   36.3180 C   0  0  0  0  0  0  0  0  0  0  0  0
   13.3160  -58.8480   37.4550 C   0  0  0  0  0  3  0  0  0  0  0  0
   12.6990  -58.8380   38.6960 C   0  0  0  0  0  3  0  0  0  0  0  0
   11.4330  -59.3390   38.8370 C   0  0  0  0  0  0  0  0  0  0  0  0
   10.7830  -59.8520   37.7320 C   0  0  0  0  0  3  0  0  0  0  0  0
   10.7560  -59.3580   40.0570 O   0  0  0  0  0  1  0  0  0  0  0  0
   11.4200  -59.8510   36.5040 C   0  0  0  0  0  3  0  0  0  0  0  0
   18.1730  -55.5420   34.5920 C   0  0  0  0  0  0  0  0  0  0  0  0
   19.4630  -55.1030   34.5060 C   0  0  0  0  0  3  0  0  0  0  0  0
   19.8650  -53.9010   35.0980 C   0  0  0  0  0  3  0  0  0  0  0  0
   18.9820  -53.1150   35.7870 C   0  0  0  0  0  0  0  0  0  0  0  0
   19.5230  -51.4680   36.6000 Br  0  0  0  0  0  0  0  0  0  0  0  0
   17.6800  -53.5530   35.8750 C   0  0  0  0  0  3  0  0  0  0  0  0
   17.2880  -54.7610   35.2780 C   0  0  0  0  0  3  0  0  0  0  0  0
  1 22  1  0  0  0  0
  1  2  1  0  0  0  0
  2  3  2  0  0  0  0
  4  5  1  6  0  0  0
  4  2  1  0  0  0  0
  5  6  1  0  0  0  0
  6  1  1  0  0  0  0
  7  6  2  0  0  0  0
  8 14  1  6  0  0  0
  8  9  1  0  0  0  0
  8  4  1  0  0  0  0
  8 13  1  0  0  0  0
  9 10  1  0  0  0  0
 10 11  1  0  0  0  0
 11 15  1  0  0  0  0
 12 11  1  0  0  0  0
 13 12  1  0  0  0  0
 15 21  2  0  0  0  0
 15 16  1  0  0  0  0
 16 17  2  0  0  0  0
 17 18  1  0  0  0  0
 18 20  1  0  0  0  0
 19 18  2  0  0  0  0
 21 19  1  0  0  0  0
 22 28  1  0  0  0  0
 23 22  2  0  0  0  0
 23 24  1  0  0  0  0
 24 25  2  0  0  0  0
 25 27  1  0  0  0  0
 25 26  1  0  0  0  0
 28 27  2  0  0  0  0
M  END
>  <Pose>
1

>  <Score>
-8.991

$$$$
