/Users/jonathanwahrer/Desktop/Msc/3_Semester/Drug_Design_Praktikum/waehrer_HTS_screening/HTS_experiment/out/docking_results/vina_output/6s1j/0412_docked.pdbqt
 OpenBabel03222221193D

 34 37  0  0  0  0  0  0  0  0999 V2000
   14.7220  -59.3660   34.7690 N   0  0  0  0  0  0  0  0  0  0  0  0
   15.3740  -58.3030   34.2920 C   0  0  0  0  0  0  0  0  0  0  0  0
   15.1110  -57.0980   34.6200 O   0  0  0  0  0  0  0  0  0  0  0  0
   16.3680  -58.6250   33.3980 C   0  0  0  0  0  0  0  0  0  0  0  0
   16.3210  -59.9690   33.3270 C   0  0  0  0  0  0  0  0  0  0  0  0
   17.2940  -60.3140   32.4500 N   0  0  0  0  0  0  0  0  0  0  0  0
   17.9100  -59.2330   32.0070 N   0  0  0  0  0  0  0  0  0  0  0  0
   17.3460  -58.1930   32.5860 N   0  0  0  0  0  0  0  0  0  0  0  0
   15.3240  -60.4320   34.1550 C   0  0  0  0  0  0  0  0  0  0  0  0
   14.9700  -61.6170   34.3630 O   0  0  0  0  0  0  0  0  0  0  0  0
   17.5050  -61.3030   32.1790 H   0  0  0  0  0  0  0  0  0  0  0  0
   18.7030  -59.2670   31.3110 H   0  0  0  0  0  0  0  0  0  0  0  0
   17.7330  -56.8290   32.3710 C   0  0  0  0  0  2  0  0  0  0  0  0
   18.2050  -56.1520   33.5770 C   0  0  0  0  0  0  0  0  0  0  0  0
   19.2000  -56.5620   34.2420 O   0  0  0  0  0  0  0  0  0  0  0  0
   17.5110  -55.0000   34.0100 N   0  0  0  0  0  0  0  0  0  0  0  0
   16.6660  -54.6400   33.4680 H   0  0  0  0  0  0  0  0  0  0  0  0
   17.9560  -54.3300   35.1780 C   0  0  0  0  0  0  0  0  0  0  0  0
   17.2940  -54.6250   36.3440 C   0  0  0  0  0  3  0  0  0  0  0  0
   17.6520  -53.9840   37.5360 C   0  0  0  0  0  0  0  0  0  0  0  0
   18.6630  -53.0600   37.5350 C   0  0  0  0  0  3  0  0  0  0  0  0
   19.3430  -52.7490   36.3600 C   0  0  0  0  0  0  0  0  0  0  0  0
   18.9660  -53.4030   35.1970 C   0  0  0  0  0  3  0  0  0  0  0  0
   16.9260  -54.3590   38.6410 O   0  0  0  0  0  0  0  0  0  0  0  0
   15.5570  -54.2270   38.7610 C   0  0  0  0  0  1  0  0  0  0  0  0
   20.3470  -51.8060   36.4350 O   0  0  0  0  0  0  0  0  0  0  0  0
   20.2810  -50.4730   36.0320 C   0  0  0  0  0  1  0  0  0  0  0  0
   13.6450  -59.4400   35.7070 C   0  0  0  0  0  0  0  0  0  0  0  0
   12.3870  -59.8200   35.3060 C   0  0  0  0  0  3  0  0  0  0  0  0
   11.3340  -59.8910   36.2320 C   0  0  0  0  0  3  0  0  0  0  0  0
   11.5350  -59.5850   37.5570 C   0  0  0  0  0  0  0  0  0  0  0  0
   10.0920  -59.6870   38.8320 Br  0  0  0  0  0  0  0  0  0  0  0  0
   12.7950  -59.2050   37.9550 C   0  0  0  0  0  3  0  0  0  0  0  0
   13.8200  -59.1370   37.0400 C   0  0  0  0  0  3  0  0  0  0  0  0
  1 28  1  0  0  0  0
  2  3  2  0  0  0  0
  2  1  1  0  0  0  0
  4  2  1  0  0  0  0
  5  4  2  0  0  0  0
  5  9  1  0  0  0  0
  6  5  1  0  0  0  0
  7  6  1  0  0  0  0
  7  8  1  0  0  0  0
  8  4  1  0  0  0  0
  9 10  2  0  0  0  0
  9  1  1  0  0  0  0
 11  6  1  0  0  0  0
 12  7  1  0  0  0  0
 13  8  1  0  0  0  0
 13 14  1  0  0  0  0
 14 16  1  0  0  0  0
 14 15  2  0  0  0  0
 16 18  1  0  0  0  0
 17 16  1  0  0  0  0
 18 23  2  0  0  0  0
 18 19  1  0  0  0  0
 19 20  2  0  0  0  0
 20 24  1  0  0  0  0
 21 20  1  0  0  0  0
 22 26  1  0  0  0  0
 22 21  2  0  0  0  0
 23 22  1  0  0  0  0
 24 25  1  0  0  0  0
 27 26  1  0  0  0  0
 28 34  1  0  0  0  0
 29 28  2  0  0  0  0
 29 30  1  0  0  0  0
 30 31  2  0  0  0  0
 31 33  1  0  0  0  0
 31 32  1  0  0  0  0
 34 33  2  0  0  0  0
M  END
>  <Pose>
1

>  <Score>
-8.633

$$$$
