/Users/jonathanwahrer/Desktop/Msc/3_Semester/Drug_Design_Praktikum/waehrer_HTS_screening/HTS_experiment/out/docking_results/vina_output/6s1j/0421_docked.pdbqt
 OpenBabel03222221203D

 28 31  0  0  0  0  0  0  0  0999 V2000
   15.6030  -57.5580   36.1320 N   0  0  0  0  0  0  0  0  0  0  0  0
   16.3540  -56.4340   36.1390 C   0  0  0  0  0  0  0  0  0  0  0  0
   17.0650  -55.9710   35.1900 O   0  0  0  0  0  0  0  0  0  0  0  0
   16.2680  -55.7930   37.3610 C   0  0  0  0  0  0  0  0  0  0  0  0
   15.4500  -56.5520   38.0940 C   0  0  0  0  0  0  0  0  0  0  0  0
   15.3640  -55.9260   39.2920 N   0  0  0  0  0  0  0  0  0  0  0  0
   16.1120  -54.8350   39.2520 N   0  0  0  0  0  0  0  0  0  0  0  0
   16.6860  -54.7270   38.0660 N   0  0  0  0  0  0  0  0  0  0  0  0
   15.0380  -57.6360   37.3490 C   0  0  0  0  0  0  0  0  0  0  0  0
   14.2670  -58.5660   37.6940 O   0  0  0  0  0  0  0  0  0  0  0  0
   14.7890  -56.2730   40.1040 H   0  0  0  0  0  0  0  0  0  0  0  0
   16.2590  -54.1320   40.0220 H   0  0  0  0  0  0  0  0  0  0  0  0
   17.5680  -53.6840   37.6310 C   0  0  0  0  0  0  0  0  0  0  0  0
   17.2590  -52.3560   37.8420 C   0  0  0  0  0  3  0  0  0  0  0  0
   18.0940  -51.3240   37.4330 C   0  0  0  0  0  3  0  0  0  0  0  0
   19.2800  -51.6090   36.7910 C   0  0  0  0  0  0  0  0  0  0  0  0
   19.5920  -52.9350   36.5790 C   0  0  0  0  0  3  0  0  0  0  0  0
   18.7570  -53.9630   36.9890 C   0  0  0  0  0  3  0  0  0  0  0  0
   20.1580  -50.5720   36.3600 N   0  0  0  0  0  0  0  0  0  0  0  0
   21.3940  -50.7190   36.3310 O   0  0  0  0  0  0  0  0  0  0  0  0
   19.6350  -49.3810   35.9660 O   0  0  0  0  0  0  0  0  0  0  0  0
   15.4570  -58.4670   35.0340 C   0  0  0  0  0  0  0  0  0  0  0  0
   16.5190  -59.1760   34.5120 C   0  0  0  0  0  3  0  0  0  0  0  0
   16.3440  -60.0510   33.4440 C   0  0  0  0  0  3  0  0  0  0  0  0
   15.1020  -60.2390   32.8740 C   0  0  0  0  0  0  0  0  0  0  0  0
   14.8410  -61.4390   31.4050 Br  0  0  0  0  0  0  0  0  0  0  0  0
   14.0370  -59.5320   33.3940 C   0  0  0  0  0  3  0  0  0  0  0  0
   14.2200  -58.6650   34.4540 C   0  0  0  0  0  3  0  0  0  0  0  0
  1  2  1  0  0  0  0
  1  9  1  0  0  0  0
  2  4  1  0  0  0  0
  3  2  2  0  0  0  0
  4  8  1  0  0  0  0
  4  5  2  0  0  0  0
  5  6  1  0  0  0  0
  6 11  1  0  0  0  0
  7  6  1  0  0  0  0
  7 12  1  0  0  0  0
  8  7  1  0  0  0  0
  9 10  2  0  0  0  0
  9  5  1  0  0  0  0
 13 14  1  0  0  0  0
 13  8  1  0  0  0  0
 15 14  2  0  0  0  0
 16 15  1  0  0  0  0
 17 16  2  0  0  0  0
 17 18  1  0  0  0  0
 18 13  2  0  0  0  0
 19 16  1  0  0  0  0
 20 19  2  0  0  0  0
 21 19  2  0  0  0  0
 22  1  1  0  0  0  0
 23 22  1  0  0  0  0
 24 23  2  0  0  0  0
 25 27  2  0  0  0  0
 25 24  1  0  0  0  0
 26 25  1  0  0  0  0
 27 28  1  0  0  0  0
 28 22  2  0  0  0  0
M  END
>  <Pose>
1

>  <Score>
-8.930

$$$$
