/Users/jonathanwahrer/Desktop/Msc/3_Semester/Drug_Design_Praktikum/waehrer_HTS_screening/HTS_experiment/out/docking_results/vina_output/6s1j/0429_docked.pdbqt
 OpenBabel03222221203D

 36 39  0  0  0  0  0  0  0  0999 V2000
   19.1710  -54.8470   33.8420 N   0  0  0  0  0  0  0  0  0  0  0  0
   19.9350  -53.9380   33.0450 C   0  0  0  0  0  0  0  0  0  0  0  0
   20.2080  -52.8030   33.5510 O   0  0  0  0  0  0  0  0  0  0  0  0
   20.3530  -54.3220   31.7480 N   0  0  0  0  0  0  0  0  0  0  0  0
   20.0580  -55.5860   31.1620 C   0  0  0  0  0  0  0  0  0  0  0  0
   20.4450  -55.9000   30.0020 O   0  0  0  0  0  0  0  0  0  0  0  0
   19.2720  -56.5480   31.9550 C   0  0  0  0  0  0  0  0  0  0  0  0
   18.9640  -57.7390   31.4660 C   0  0  0  0  0  3  0  0  0  0  0  0
   18.8570  -56.1240   33.2880 C   0  0  0  0  0  0  0  0  0  0  0  0
   18.1850  -56.9110   34.0020 O   0  0  0  0  0  0  0  0  0  0  0  0
   20.9110  -53.6280   31.1980 H   0  0  0  0  0  0  0  0  0  0  0  0
   18.2060  -58.6450   32.2550 N   0  0  0  0  0  0  0  0  0  0  0  0
   18.7170  -59.0670   33.0760 H   0  0  0  0  0  0  0  0  0  0  0  0
   16.8860  -58.9970   32.0230 N   0  0  0  0  0  0  0  0  0  0  0  0
   16.6310  -59.1230   31.0000 H   0  0  0  0  0  0  0  0  0  0  0  0
   15.9100  -59.1860   33.0400 C   0  0  0  0  0  0  0  0  0  0  0  0
   14.9680  -60.1350   33.0370 N   0  0  0  0  0  0  0  0  0  0  0  0
   14.2190  -60.0280   34.1470 C   0  0  0  0  0  0  0  0  0  0  0  0
   14.7060  -61.1770   32.0380 C   0  0  0  0  0  1  0  0  0  0  0  0
   14.7180  -58.9580   34.8780 C   0  0  0  0  0  0  0  0  0  0  0  0
   13.1470  -60.6940   34.6770 C   0  0  0  0  0  0  0  0  0  0  0  0
   15.7380  -58.4860   34.1630 N   0  0  0  0  0  0  0  0  0  0  0  0
   14.1750  -58.5910   36.0520 N   0  0  0  0  0  0  0  0  0  0  0  0
   13.1320  -59.2750   36.5220 C   0  0  0  0  0  0  0  0  0  0  0  0
   14.7440  -57.4750   36.7490 C   0  0  0  0  0  1  0  0  0  0  0  0
   12.5900  -58.9610   37.6260 O   0  0  0  0  0  0  0  0  0  0  0  0
   12.5930  -60.3330   35.8580 N   0  0  0  0  0  0  0  0  0  0  0  0
   11.4660  -61.0420   36.4080 C   0  0  0  0  0  1  0  0  0  0  0  0
   12.6550  -61.6640   34.0640 O   0  0  0  0  0  0  0  0  0  0  0  0
   18.7570  -54.4660   35.1230 C   0  0  0  0  0  0  0  0  0  0  0  0
   17.4590  -54.0450   35.3310 C   0  0  0  0  0  3  0  0  0  0  0  0
   17.0050  -53.6620   36.5780 C   0  0  0  0  0  3  0  0  0  0  0  0
   17.8550  -53.6880   37.6710 C   0  0  0  0  0  0  0  0  0  0  0  0
   17.2390  -53.1580   39.4040 Br  0  0  0  0  0  0  0  0  0  0  0  0
   19.1460  -54.1110   37.4400 C   0  0  0  0  0  3  0  0  0  0  0  0
   19.6160  -54.4980   36.2010 C   0  0  0  0  0  3  0  0  0  0  0  0
  1 30  1  0  0  0  0
  2  3  2  0  0  0  0
  2  1  1  0  0  0  0
  4  2  1  0  0  0  0
  5  4  1  0  0  0  0
  5  7  1  0  0  0  0
  6  5  2  0  0  0  0
  7  9  1  0  0  0  0
  8  7  2  0  0  0  0
  8 12  1  0  0  0  0
  9  1  1  0  0  0  0
  9 10  2  0  0  0  0
 11  4  1  0  0  0  0
 12 13  1  0  0  0  0
 14 12  1  0  0  0  0
 14 16  1  0  0  0  0
 15 14  1  0  0  0  0
 16 22  2  0  0  0  0
 17 16  1  0  0  0  0
 17 18  1  0  0  0  0
 18 21  1  0  0  0  0
 18 20  2  0  0  0  0
 19 17  1  0  0  0  0
 20 23  1  0  0  0  0
 21 27  1  0  0  0  0
 22 20  1  0  0  0  0
 23 24  1  0  0  0  0
 23 25  1  0  0  0  0
 24 26  2  0  0  0  0
 27 28  1  0  0  0  0
 27 24  1  0  0  0  0
 29 21  2  0  0  0  0
 30 31  2  0  0  0  0
 30 36  1  0  0  0  0
 31 32  1  0  0  0  0
 32 33  2  0  0  0  0
 33 34  1  0  0  0  0
 35 33  1  0  0  0  0
 36 35  2  0  0  0  0
M  END
>  <Pose>
1

>  <Score>
-9.886

$$$$
