/Users/jonathanwahrer/Desktop/Msc/3_Semester/Drug_Design_Praktikum/waehrer_HTS_screening/HTS_experiment/out/docking_results/vina_output/6s1j/0436_docked.pdbqt
 OpenBabel03222221203D

 29 32  0  0  0  0  0  0  0  0999 V2000
   17.7970  -56.2350   35.0350 N   0  0  0  0  0  0  0  0  0  0  0  0
   18.5070  -57.0530   34.0720 C   0  0  0  0  0  2  0  0  0  0  0  0
   17.8160  -58.3660   33.7890 C   0  0  0  0  0  2  0  0  0  0  0  0
   16.3220  -58.0520   33.6120 C   0  0  0  0  0  2  0  0  0  0  0  0
   15.8590  -57.6970   34.9280 N   0  0  0  0  0  0  0  0  0  0  0  0
   16.6190  -56.7870   35.6100 C   0  0  0  0  0  0  0  0  0  0  0  0
   16.0520  -56.5720   36.8080 N   0  0  0  0  0  0  0  0  0  0  0  0
   14.9420  -57.3520   36.8560 C   0  0  0  0  0  0  0  0  0  0  0  0
   14.8120  -58.0640   35.6740 C   0  0  0  0  0  0  0  0  0  0  0  0
   13.7540  -58.9310   35.4870 C   0  0  0  0  0  0  0  0  0  0  0  0
   13.6700  -59.5690   34.3840 O   0  0  0  0  0  0  0  0  0  0  0  0
   12.8430  -59.0800   36.4640 N   0  0  0  0  0  0  0  0  0  0  0  0
   12.9930  -58.3770   37.6000 C   0  0  0  0  0  0  0  0  0  0  0  0
   12.1160  -58.5460   38.4900 O   0  0  0  0  0  0  0  0  0  0  0  0
   14.0060  -57.5350   37.8030 N   0  0  0  0  0  0  0  0  0  0  0  0
   14.1370  -56.7890   39.0460 C   0  0  0  0  0  1  0  0  0  0  0  0
   18.2970  -54.9510   35.3510 C   0  0  0  0  0  0  0  0  0  0  0  0
   17.8040  -54.1600   36.3630 C   0  0  0  0  0  3  0  0  0  0  0  0
   18.3660  -52.9050   36.6010 C   0  0  0  0  0  3  0  0  0  0  0  0
   19.4150  -52.4360   35.8380 C   0  0  0  0  0  0  0  0  0  0  0  0
   20.1970  -50.7450   36.1330 Br  0  0  0  0  0  0  0  0  0  0  0  0
   19.9140  -53.2250   34.8210 C   0  0  0  0  0  3  0  0  0  0  0  0
   19.3430  -54.4510   34.6110 C   0  0  0  0  0  3  0  0  0  0  0  0
   11.7250  -59.9890   36.2770 C   0  0  0  0  0  2  0  0  0  0  0  0
   12.1530  -61.3640   36.6950 C   0  0  0  0  0  0  0  0  0  0  0  0
   12.3100  -62.2700   35.8430 O   0  0  0  0  0  0  0  0  0  0  0  0
   12.3910  -61.6800   38.0520 N   0  0  0  0  0  0  0  0  0  0  0  0
   13.1500  -62.3310   38.3560 H   0  0  0  0  0  0  0  0  0  0  0  0
   11.8060  -61.2650   38.8200 H   0  0  0  0  0  0  0  0  0  0  0  0
  1 17  1  0  0  0  0
  1  6  1  0  0  0  0
  2  1  1  0  0  0  0
  3  2  1  0  0  0  0
  4  3  1  0  0  0  0
  4  5  1  0  0  0  0
  5  6  1  0  0  0  0
  5  9  1  0  0  0  0
  6  7  2  0  0  0  0
  7  8  1  0  0  0  0
  8 15  1  0  0  0  0
  9  8  2  0  0  0  0
 10  9  1  0  0  0  0
 10 12  1  0  0  0  0
 11 10  2  0  0  0  0
 12 13  1  0  0  0  0
 13 15  1  0  0  0  0
 13 14  2  0  0  0  0
 15 16  1  0  0  0  0
 17 18  1  0  0  0  0
 18 19  2  0  0  0  0
 20 21  1  0  0  0  0
 20 19  1  0  0  0  0
 22 20  2  0  0  0  0
 23 22  1  0  0  0  0
 23 17  2  0  0  0  0
 24 12  1  0  0  0  0
 24 25  1  0  0  0  0
 25 27  1  0  0  0  0
 26 25  2  0  0  0  0
 27 28  1  0  0  0  0
 27 29  1  0  0  0  0
M  END
>  <Pose>
1

>  <Score>
-8.886

$$$$
