/Users/jonathanwahrer/Desktop/Msc/3_Semester/Drug_Design_Praktikum/waehrer_HTS_screening/HTS_experiment/out/docking_results/vina_output/6s1j/0439_docked.pdbqt
 OpenBabel03222221213D

 28 32  0  0  1  0  0  0  0  0999 V2000
   16.9230  -55.9090   36.7360 N   0  0  0  0  0  0  0  0  0  0  0  0
   17.7040  -55.0180   37.3390 N   0  0  0  0  0  0  0  0  0  0  0  0
   18.6030  -54.5170   36.4710 C   0  0  0  0  0  0  0  0  0  0  0  0
   19.5310  -53.6080   36.7390 C   0  0  0  0  0  1  0  0  0  0  0  0
   18.4000  -55.1070   35.2400 C   0  0  0  0  0  0  0  0  0  0  0  0
   17.3370  -55.9720   35.4540 C   0  0  0  0  0  0  0  0  0  0  0  0
   16.8450  -56.7050   34.5650 O   0  0  0  0  0  0  0  0  0  0  0  0
   17.6320  -54.7480   38.3400 H   0  0  0  0  0  0  0  0  0  0  0  0
   19.0630  -54.9040   34.0990 C   0  0  0  0  0  2  0  0  0  0  0  0
   18.3460  -55.0450   32.8780 N   0  0  0  0  0  0  0  0  0  0  0  0
   17.4780  -54.5020   32.7630 H   0  0  0  0  0  0  0  0  0  0  0  0
   18.7950  -55.9070   31.8230 C   0  0  1  0  0  0  0  0  0  0  0  0
   17.7010  -56.1480   30.8320 C   0  0  0  0  0  2  0  0  0  0  0  0
   18.2240  -56.9450   29.7310 N   0  0  1  0  0  0  0  0  0  0  0  0
   19.3110  -56.1930   29.1160 C   0  0  0  0  0  2  0  0  0  0  0  0
   18.6950  -58.2070   30.2430 C   0  0  0  0  0  2  0  0  0  0  0  0
   20.4120  -56.0030   30.0280 N   0  0  2  0  0  0  0  0  0  0  0  0
   20.8440  -57.2980   30.5470 C   0  0  0  0  0  2  0  0  0  0  0  0
   19.9770  -55.2070   31.1460 C   0  0  0  0  0  2  0  0  0  0  0  0
   19.7620  -58.0020   31.1960 N   0  0  1  0  0  0  0  0  0  0  0  0
   19.2770  -57.2470   32.3270 C   0  0  0  0  0  2  0  0  0  0  0  0
   15.8570  -56.6600   37.3050 C   0  0  0  0  0  0  0  0  0  0  0  0
   14.9390  -56.0440   38.1310 C   0  0  0  0  0  3  0  0  0  0  0  0
   13.8840  -56.7500   38.7040 C   0  0  0  0  0  3  0  0  0  0  0  0
   13.7370  -58.0810   38.4570 C   0  0  0  0  0  0  0  0  0  0  0  0
   12.2990  -59.1030   39.2230 Br  0  0  0  0  0  0  0  0  0  0  0  0
   14.6430  -58.7270   37.6310 C   0  0  0  0  0  3  0  0  0  0  0  0
   15.6770  -58.0070   37.0770 C   0  0  0  0  0  3  0  0  0  0  0  0
  1 22  1  0  0  0  0
  1  2  1  0  0  0  0
  2  8  1  0  0  0  0
  3  4  1  0  0  0  0
  3  2  1  0  0  0  0
  5  6  1  0  0  0  0
  5  3  2  0  0  0  0
  6  1  1  0  0  0  0
  7  6  2  0  0  0  0
  9  5  1  0  0  0  0
 10  9  1  0  0  0  0
 11 10  1  0  0  0  0
 12 21  1  0  0  0  0
 12 10  1  1  0  0  0
 13 12  1  0  0  0  0
 14 15  1  1  0  0  0
 14 16  1  0  0  0  0
 14 13  1  0  0  0  0
 17 15  1  6  0  0  0
 17 18  1  0  0  0  0
 17 19  1  0  0  0  0
 18 20  1  0  0  0  0
 19 12  1  0  0  0  0
 20 16  1  6  0  0  0
 20 21  1  0  0  0  0
 22 23  1  0  0  0  0
 23 24  2  0  0  0  0
 25 24  1  0  0  0  0
 25 26  1  0  0  0  0
 27 25  2  0  0  0  0
 28 22  2  0  0  0  0
 28 27  1  0  0  0  0
M  END
>  <Pose>
1

>  <Score>
-7.851

$$$$
