/Users/jonathanwahrer/Desktop/Msc/3_Semester/Drug_Design_Praktikum/waehrer_HTS_screening/HTS_experiment/out/docking_results/vina_output/6s1j/0441_docked.pdbqt
 OpenBabel03222221213D

 36 39  0  0  1  0  0  0  0  0999 V2000
   13.2070  -57.8140   37.3420 C   0  0  0  0  0  0  0  0  0  0  0  0
   13.6390  -58.2640   36.1490 N   0  0  0  0  0  0  0  0  0  0  0  0
   13.2940  -59.4740   35.7430 C   0  0  0  0  0  0  0  0  0  0  0  0
   13.5950  -60.1340   34.6160 N   0  0  0  0  0  0  0  0  0  0  0  0
   12.9800  -61.3350   34.7220 C   0  0  0  0  0  3  0  0  0  0  0  0
   12.3190  -61.4130   35.8800 N   0  0  0  0  0  0  0  0  0  0  0  0
   12.4830  -60.2740   36.5560 C   0  0  0  0  0  0  0  0  0  0  0  0
   12.0350  -59.8190   37.7820 C   0  0  0  0  0  0  0  0  0  0  0  0
   12.4150  -58.5890   38.1390 N   0  0  0  0  0  0  0  0  0  0  0  0
   13.5620  -56.5160   37.8160 N   0  0  0  0  0  0  0  0  0  0  0  0
   14.8110  -56.2350   38.4050 C   0  0  0  0  0  0  0  0  0  0  0  0
   15.6610  -57.1340   38.5330 O   0  0  0  0  0  0  0  0  0  0  0  0
   12.8360  -55.7500   37.7060 H   0  0  0  0  0  0  0  0  0  0  0  0
   15.1080  -54.8680   38.8710 C   0  0  0  0  0  2  0  0  0  0  0  0
   16.4350  -54.7010   39.2790 O   0  0  0  0  0  0  0  0  0  0  0  0
   17.2600  -53.8490   38.5780 C   0  0  0  0  0  0  0  0  0  0  0  0
   16.9150  -52.5290   38.4030 C   0  0  0  0  0  3  0  0  0  0  0  0
   17.7450  -51.6570   37.6930 C   0  0  0  0  0  3  0  0  0  0  0  0
   18.9270  -52.1220   37.1610 C   0  0  0  0  0  0  0  0  0  0  0  0
   20.0680  -50.9240   36.1860 Br  0  0  0  0  0  0  0  0  0  0  0  0
   19.2690  -53.4470   37.3390 C   0  0  0  0  0  3  0  0  0  0  0  0
   18.4420  -54.2930   38.0400 C   0  0  0  0  0  3  0  0  0  0  0  0
   11.2340  -60.6540   38.5480 O   0  0  0  0  0  0  0  0  0  0  0  0
   11.5300  -60.7820   39.5220 H   0  0  0  0  0  0  0  0  0  0  0  0
   14.3700  -59.7620   33.4960 C   0  0  2  0  0  3  0  0  0  0  0  0
   14.7690  -60.8740   32.7430 O   0  0  0  0  0  0  0  0  0  0  0  0
   16.0680  -61.0960   33.1920 C   0  0  2  0  0  3  0  0  0  0  0  0
   16.6500  -59.6990   33.0390 C   0  0  1  0  0  3  0  0  0  0  0  0
   15.5420  -58.9060   33.7280 C   0  0  1  0  0  3  0  0  0  0  0  0
   16.8000  -62.1090   32.3600 C   0  0  0  0  0  2  0  0  0  0  0  0
   18.0420  -62.4270   32.8370 O   0  0  0  0  0  0  0  0  0  0  0  0
   18.7200  -61.9470   32.2940 H   0  0  0  0  0  0  0  0  0  0  0  0
   17.8750  -59.5470   33.6270 O   0  0  0  0  0  0  0  0  0  0  0  0
   18.3690  -60.4200   33.7480 H   0  0  0  0  0  0  0  0  0  0  0  0
   15.4070  -57.6400   33.1150 O   0  0  0  0  0  0  0  0  0  0  0  0
   15.9440  -57.6910   32.2850 H   0  0  0  0  0  0  0  0  0  0  0  0
  1 10  1  0  0  0  0
  1  9  1  0  0  0  0
  2  1  2  0  0  0  0
  3  2  1  0  0  0  0
  3  7  2  0  0  0  0
  4  5  1  0  0  0  0
  4  3  1  0  0  0  0
  5  6  2  0  0  0  0
  6  7  1  0  0  0  0
  7  8  1  0  0  0  0
  8  9  2  0  0  0  0
  8 23  1  0  0  0  0
 10 11  1  0  0  0  0
 11 12  2  0  0  0  0
 11 14  1  0  0  0  0
 13 10  1  0  0  0  0
 14 15  1  0  0  0  0
 16 15  1  0  0  0  0
 17 16  1  0  0  0  0
 18 17  2  0  0  0  0
 19 21  2  0  0  0  0
 19 18  1  0  0  0  0
 20 19  1  0  0  0  0
 21 22  1  0  0  0  0
 22 16  2  0  0  0  0
 23 24  1  0  0  0  0
 25 29  1  0  0  0  0
 25  4  1  1  0  0  0
 26 27  1  0  0  0  0
 26 25  1  0  0  0  0
 27 30  1  6  0  0  0
 28 27  1  0  0  0  0
 28 33  1  1  0  0  0
 28 29  1  0  0  0  0
 29 35  1  6  0  0  0
 30 31  1  0  0  0  0
 32 31  1  0  0  0  0
 33 34  1  0  0  0  0
 36 35  1  0  0  0  0
M  END
>  <Pose>
1

>  <Score>
-9.026

$$$$
