/Users/jonathanwahrer/Desktop/Msc/3_Semester/Drug_Design_Praktikum/waehrer_HTS_screening/HTS_experiment/out/docking_results/vina_output/6s1j/0444_docked.pdbqt
 OpenBabel03222221213D

 33 36  0  0  1  0  0  0  0  0999 V2000
   14.2780  -58.6970   35.0060 N   0  0  0  0  0  0  0  0  0  0  0  0
   13.4750  -59.7430   34.7040 C   0  0  0  0  0  0  0  0  0  0  0  0
   14.0560  -60.4530   33.6780 C   0  0  0  0  0  0  0  0  0  0  0  0
   15.1730  -59.8130   33.4010 N   0  0  0  0  0  0  0  0  0  0  0  0
   15.3500  -58.7140   34.1990 C   0  0  0  0  0  0  0  0  0  0  0  0
   13.5120  -61.5760   33.1230 N   0  0  0  0  0  0  0  0  0  0  0  0
   12.3460  -61.9980   33.6140 C   0  0  0  0  0  0  0  0  0  0  0  0
   11.8290  -63.0340   33.1140 O   0  0  0  0  0  0  0  0  0  0  0  0
   11.7560  -61.3270   34.6110 N   0  0  0  0  0  0  0  0  0  0  0  0
   12.2710  -60.2120   35.1810 C   0  0  0  0  0  0  0  0  0  0  0  0
   11.7010  -59.6100   36.1030 O   0  0  0  0  0  0  0  0  0  0  0  0
   14.2120  -62.2670   32.0400 C   0  0  0  0  0  1  0  0  0  0  0  0
   10.8460  -61.6870   34.9680 H   0  0  0  0  0  0  0  0  0  0  0  0
   14.0600  -57.7370   36.0660 C   0  0  0  0  0  2  0  0  0  0  0  0
   14.6340  -58.1070   37.4020 C   0  0  1  0  0  3  0  0  0  0  0  0
   14.3420  -57.1850   38.5430 C   0  0  0  0  0  2  0  0  0  0  0  0
   15.2080  -56.2100   38.7240 O   0  0  0  0  0  0  0  0  0  0  0  0
   15.9220  -55.1630   38.3920 C   0  0  0  0  0  0  0  0  0  0  0  0
   16.9620  -55.1700   37.4830 C   0  0  0  0  0  3  0  0  0  0  0  0
   17.6800  -54.0350   37.1760 C   0  0  0  0  0  3  0  0  0  0  0  0
   17.3560  -52.8550   37.7890 C   0  0  0  0  0  0  0  0  0  0  0  0
   18.3500  -51.2940   37.3610 Br  0  0  0  0  0  0  0  0  0  0  0  0
   16.3210  -52.8160   38.7020 C   0  0  0  0  0  3  0  0  0  0  0  0
   15.6120  -53.9290   39.0070 C   0  0  0  0  0  3  0  0  0  0  0  0
   14.2600  -59.3990   37.7990 O   0  0  0  0  0  0  0  0  0  0  0  0
   13.4680  -59.3290   38.4230 H   0  0  0  0  0  0  0  0  0  0  0  0
   16.4520  -57.7960   34.0600 N   0  0  0  0  0  0  0  0  0  0  0  0
   16.0870  -56.5380   33.3720 C   0  0  0  0  0  2  0  0  0  0  0  0
   17.0920  -55.4640   33.4780 C   0  0  0  0  0  2  0  0  0  0  0  0
   18.4510  -55.9470   33.4860 N   0  0  0  0  0  0  0  0  0  0  0  0
   18.5820  -56.7400   34.6670 C   0  0  0  0  0  2  0  0  0  0  0  0
   18.8130  -56.5930   32.2680 C   0  0  0  0  0  1  0  0  0  0  0  0
   17.7550  -58.0220   34.5770 C   0  0  0  0  0  2  0  0  0  0  0  0
  1 14  1  0  0  0  0
  2  1  1  0  0  0  0
  2 10  1  0  0  0  0
  3  2  2  0  0  0  0
  4  3  1  0  0  0  0
  4  5  2  0  0  0  0
  5  1  1  0  0  0  0
  6  7  1  0  0  0  0
  6  3  1  0  0  0  0
  7  9  1  0  0  0  0
  8  7  2  0  0  0  0
  9 13  1  0  0  0  0
  9 10  1  0  0  0  0
 10 11  2  0  0  0  0
 12  6  1  0  0  0  0
 15 14  1  6  0  0  0
 15 25  1  0  0  0  0
 15 16  1  0  0  0  0
 16 17  1  0  0  0  0
 18 17  1  0  0  0  0
 18 24  1  0  0  0  0
 19 18  2  0  0  0  0
 20 19  1  0  0  0  0
 20 21  2  0  0  0  0
 21 23  1  0  0  0  0
 22 21  1  0  0  0  0
 23 24  2  0  0  0  0
 25 26  1  0  0  0  0
 27  5  1  0  0  0  0
 27 33  1  0  0  0  0
 28 29  1  0  0  0  0
 28 27  1  0  0  0  0
 29 30  1  0  0  0  0
 30 31  1  0  0  0  0
 32 30  1  0  0  0  0
 33 31  1  0  0  0  0
M  END
>  <Pose>
1

>  <Score>
-8.733

$$$$
