/Users/jonathanwahrer/Desktop/Msc/3_Semester/Drug_Design_Praktikum/waehrer_HTS_screening/HTS_experiment/out/docking_results/vina_output/6s1j/0454_docked.pdbqt
 OpenBabel03222221223D

 21 25  0  0  1  0  0  0  0  0999 V2000
   18.3000  -55.7470   35.4900 C   0  0  0  0  0  2  0  0  0  0  0  0
   17.2040  -56.4570   34.8310 C   0  0  0  0  0  0  0  0  0  0  0  0
   16.9340  -56.1350   33.4890 C   0  0  0  0  0  0  0  0  0  0  0  0
   18.0270  -54.9530   32.4550 Br  0  0  0  0  0  0  0  0  0  0  0  0
   15.8080  -56.7110   32.9320 C   0  0  0  0  0  3  0  0  0  0  0  0
   15.0070  -57.5610   33.6680 C   0  0  0  0  0  0  0  0  0  0  0  0
   15.2400  -57.8960   34.9800 C   0  0  0  0  0  0  0  0  0  0  0  0
   13.8160  -58.2360   33.2580 O   0  0  0  0  0  0  0  0  0  0  0  0
   16.3550  -57.3220   35.5260 C   0  0  0  0  0  3  0  0  0  0  0  0
   14.2030  -58.7470   35.3260 O   0  0  0  0  0  0  0  0  0  0  0  0
   13.0590  -58.4090   34.4940 C   0  0  0  0  0  2  0  0  0  0  0  0
   18.0330  -54.6730   36.3520 N   0  0  2  0  0  4  0  0  0  0  0  0
   19.4320  -54.1910   36.6410 C   0  0  0  0  0  2  0  0  0  0  0  0
   19.5340  -53.3000   37.7180 N   0  0  2  0  0  0  0  0  0  0  0  0
   18.9670  -53.9590   38.8810 C   0  0  0  0  0  2  0  0  0  0  0  0
   18.7920  -52.0970   37.3220 C   0  0  0  0  0  2  0  0  0  0  0  0
   17.5640  -54.1590   38.6170 N   0  0  2  0  0  0  0  0  0  0  0  0
   17.3620  -55.1130   37.5740 C   0  0  0  0  0  2  0  0  0  0  0  0
   16.8510  -52.9270   38.2600 C   0  0  0  0  0  2  0  0  0  0  0  0
   17.4270  -52.4500   37.0140 N   0  0  2  0  0  0  0  0  0  0  0  0
   17.3540  -53.4800   35.9550 C   0  0  0  0  0  2  0  0  0  0  0  0
  2  1  1  0  0  0  0
  2  9  1  0  0  0  0
  3  2  2  0  0  0  0
  4  3  1  0  0  0  0
  5  3  1  0  0  0  0
  5  6  2  0  0  0  0
  6  7  1  0  0  0  0
  7 10  1  0  0  0  0
  7  9  2  0  0  0  0
  8  6  1  0  0  0  0
  8 11  1  0  0  0  0
 11 10  1  0  0  0  0
 12  1  1  6  0  0  0
 12 13  1  0  0  0  0
 12 18  1  0  0  0  0
 14 13  1  6  0  0  0
 14 15  1  0  0  0  0
 16 14  1  0  0  0  0
 17 18  1  6  0  0  0
 17 15  1  0  0  0  0
 19 17  1  0  0  0  0
 20 21  1  6  0  0  0
 20 16  1  0  0  0  0
 20 19  1  0  0  0  0
 21 12  1  0  0  0  0
M  END
>  <Pose>
1

>  <Score>
-7.674

$$$$
