/Users/jonathanwahrer/Desktop/Msc/3_Semester/Drug_Design_Praktikum/waehrer_HTS_screening/HTS_experiment/out/docking_results/vina_output/6s1j/0455_docked.pdbqt
 OpenBabel03222221223D

 26 29  0  0  0  0  0  0  0  0999 V2000
   18.6900  -53.4970   36.5260 N   0  0  0  0  0  0  0  0  0  0  0  0
   19.3000  -54.0720   37.7530 C   0  0  0  0  0  2  0  0  0  0  0  0
   18.3740  -53.5830   38.8620 C   0  0  0  0  0  2  0  0  0  0  0  0
   17.4590  -52.5840   38.4490 N   0  0  0  0  0  0  0  0  0  0  0  0
   18.0840  -51.5160   37.7130 C   0  0  0  0  0  2  0  0  0  0  0  0
   19.0020  -52.0730   36.6640 C   0  0  0  0  0  2  0  0  0  0  0  0
   19.3460  -54.0520   35.3580 C   0  0  0  0  0  2  0  0  0  0  0  0
   18.4270  -54.9640   34.6310 C   0  0  0  0  0  0  0  0  0  0  0  0
   18.5810  -55.2050   33.2680 C   0  0  0  0  0  0  0  0  0  0  0  0
   20.0000  -54.2900   32.3750 Br  0  0  0  0  0  0  0  0  0  0  0  0
   17.7580  -56.0620   32.5730 C   0  0  0  0  0  3  0  0  0  0  0  0
   16.7340  -56.7260   33.2010 C   0  0  0  0  0  0  0  0  0  0  0  0
   16.5560  -56.5120   34.5380 C   0  0  0  0  0  0  0  0  0  0  0  0
   15.8830  -57.5990   32.5360 O   0  0  0  0  0  0  0  0  0  0  0  0
   17.3910  -55.6430   35.2380 C   0  0  0  0  0  3  0  0  0  0  0  0
   15.5280  -57.1740   35.1910 O   0  0  0  0  0  0  0  0  0  0  0  0
   14.4920  -57.8490   34.5250 C   0  0  0  0  0  2  0  0  0  0  0  0
   14.9540  -58.4050   33.2160 C   0  0  0  0  0  2  0  0  0  0  0  0
   16.1890  -52.9950   37.9830 C   0  0  0  0  0  2  0  0  0  0  0  0
   15.5500  -54.0720   38.7160 C   0  0  0  0  0  0  0  0  0  0  0  0
   15.0270  -53.8720   39.8320 O   0  0  0  0  0  0  0  0  0  0  0  0
   15.4980  -55.3820   38.1850 N   0  0  0  0  0  0  0  0  0  0  0  0
   15.9160  -55.6320   37.2430 H   0  0  0  0  0  0  0  0  0  0  0  0
   14.8650  -56.4890   38.8930 C   0  0  0  0  0  3  0  0  0  0  0  0
   14.9750  -57.8640   38.3810 C   0  0  0  0  0  2  0  0  0  0  0  0
   13.6890  -57.1260   38.1580 C   0  0  0  0  0  2  0  0  0  0  0  0
  1  6  1  0  0  0  0
  1  2  1  0  0  0  0
  2  3  1  0  0  0  0
  4  3  1  0  0  0  0
  5  4  1  0  0  0  0
  6  5  1  0  0  0  0
  7  1  1  0  0  0  0
  8 15  1  0  0  0  0
  8  7  1  0  0  0  0
  9  8  2  0  0  0  0
 10  9  1  0  0  0  0
 11 12  2  0  0  0  0
 11  9  1  0  0  0  0
 12 13  1  0  0  0  0
 13 16  1  0  0  0  0
 13 15  2  0  0  0  0
 14 12  1  0  0  0  0
 14 18  1  0  0  0  0
 17 16  1  0  0  0  0
 18 17  1  0  0  0  0
 19  4  1  0  0  0  0
 19 20  1  0  0  0  0
 20 21  2  0  0  0  0
 22 20  1  0  0  0  0
 22 24  1  0  0  0  0
 23 22  1  0  0  0  0
 25 24  1  0  0  0  0
 26 25  1  0  0  0  0
 26 24  1  0  0  0  0
M  END
>  <Pose>
1

>  <Score>
-8.481

$$$$
