/Users/jonathanwahrer/Desktop/Msc/3_Semester/Drug_Design_Praktikum/waehrer_HTS_screening/HTS_experiment/out/docking_results/vina_output/6s1j/0459_docked.pdbqt
 OpenBabel03222221223D

 29 32  0  0  0  0  0  0  0  0999 V2000
   17.8810  -54.3960   34.7110 C   0  0  0  0  0  0  0  0  0  0  0  0
   17.0270  -55.0570   33.8170 C   0  0  0  0  0  3  0  0  0  0  0  0
   17.4350  -55.4890   32.5750 C   0  0  0  0  0  3  0  0  0  0  0  0
   18.7300  -55.2820   32.1540 C   0  0  0  0  0  0  0  0  0  0  0  0
   19.5830  -54.6320   33.0200 C   0  0  0  0  0  3  0  0  0  0  0  0
   19.1720  -54.1930   34.2800 C   0  0  0  0  0  3  0  0  0  0  0  0
   17.4170  -53.9800   35.9460 O   0  0  0  0  0  0  0  0  0  0  0  0
   17.6860  -54.6430   37.1450 C   0  0  0  0  0  2  0  0  0  0  0  0
   16.5620  -55.4470   37.6550 C   0  0  0  0  0  0  0  0  0  0  0  0
   15.6790  -54.9100   38.6020 C   0  0  0  0  0  0  0  0  0  0  0  0
   16.0380  -53.1340   39.2210 Br  0  0  0  0  0  0  0  0  0  0  0  0
   14.6050  -55.6300   39.0630 C   0  0  0  0  0  3  0  0  0  0  0  0
   14.3610  -56.9090   38.6050 C   0  0  0  0  0  0  0  0  0  0  0  0
   15.2140  -57.4610   37.6730 C   0  0  0  0  0  0  0  0  0  0  0  0
   13.3790  -57.8640   38.8760 O   0  0  0  0  0  0  0  0  0  0  0  0
   16.3020  -56.7230   37.2100 C   0  0  0  0  0  3  0  0  0  0  0  0
   14.7420  -58.7290   37.3970 O   0  0  0  0  0  0  0  0  0  0  0  0
   13.4300  -58.8900   37.9080 C   0  0  0  0  0  2  0  0  0  0  0  0
   19.1790  -55.7350   30.8350 C   0  0  0  0  0  0  0  0  0  0  0  0
   20.3870  -55.5970   30.2640 N   0  0  0  0  0  0  0  0  0  0  0  0
   20.3550  -56.1620   29.0520 N   0  0  0  0  0  0  0  0  0  0  0  0
   19.1410  -56.6530   28.8520 N   0  0  0  0  0  0  0  0  0  0  0  0
   18.4290  -56.3930   29.9360 N   0  0  0  0  0  0  0  0  0  0  0  0
   21.4220  -56.2530   28.0780 C   0  0  0  0  0  2  0  0  0  0  0  0
   22.7070  -56.5370   28.7530 C   0  0  0  0  0  0  0  0  0  0  0  0
   23.1940  -57.6770   28.6930 O   0  0  0  0  0  0  0  0  0  0  0  0
   23.3600  -55.5030   29.4580 N   0  0  0  0  0  0  0  0  0  0  0  0
   22.8360  -54.7130   29.9280 H   0  0  0  0  0  0  0  0  0  0  0  0
   24.3990  -55.4980   29.5310 H   0  0  0  0  0  0  0  0  0  0  0  0
  1  7  1  0  0  0  0
  2  1  2  0  0  0  0
  3  2  1  0  0  0  0
  4  3  2  0  0  0  0
  4  5  1  0  0  0  0
  5  6  2  0  0  0  0
  6  1  1  0  0  0  0
  7  8  1  0  0  0  0
  8  9  1  0  0  0  0
  9 10  1  0  0  0  0
 10 12  2  0  0  0  0
 10 11  1  0  0  0  0
 13 15  1  0  0  0  0
 13 12  1  0  0  0  0
 14 13  2  0  0  0  0
 16  9  2  0  0  0  0
 16 14  1  0  0  0  0
 17 14  1  0  0  0  0
 17 18  1  0  0  0  0
 18 15  1  0  0  0  0
 19  4  1  0  0  0  0
 20 19  2  0  0  0  0
 21 20  1  0  0  0  0
 22 21  1  0  0  0  0
 22 23  2  0  0  0  0
 23 19  1  0  0  0  0
 24 25  1  0  0  0  0
 24 21  1  0  0  0  0
 25 27  1  0  0  0  0
 26 25  2  0  0  0  0
 27 29  1  0  0  0  0
 27 28  1  0  0  0  0
M  END
>  <Pose>
1

>  <Score>
-9.070

$$$$
