/Users/jonathanwahrer/Desktop/Msc/3_Semester/Drug_Design_Praktikum/waehrer_HTS_screening/HTS_experiment/out/docking_results/vina_output/6s1j/0467_docked.pdbqt
 OpenBabel03222221223D

 28 31  0  0  1  0  0  0  0  0999 V2000
   19.9720  -55.0750   31.7900 C   0  0  0  0  0  0  0  0  0  0  0  0
   19.0340  -55.9380   32.2160 N   0  0  0  0  0  0  0  0  0  0  0  0
   18.6070  -56.9880   31.4650 C   0  0  1  0  0  3  0  0  0  0  0  0
   19.1770  -57.1170   30.2680 N   0  0  0  0  0  0  0  0  0  0  0  0
   20.1090  -56.2980   29.7880 C   0  0  0  0  0  0  0  0  0  0  0  0
   20.5030  -55.2580   30.5830 N   0  0  0  0  0  0  0  0  0  0  0  0
   20.2910  -54.0130   32.6640 N   0  0  0  0  0  0  0  0  0  0  0  0
   21.1430  -53.4430   32.4680 H   0  0  0  0  0  0  0  0  0  0  0  0
   19.5240  -53.6970   33.7680 N   0  0  0  0  0  0  0  0  0  0  0  0
   19.9110  -53.4130   34.9380 C   0  0  0  0  0  3  0  0  0  0  0  0
   18.9740  -53.1040   35.9980 C   0  0  0  0  0  0  0  0  0  0  0  0
   18.9900  -51.8950   36.6570 C   0  0  0  0  0  0  0  0  0  0  0  0
   20.2700  -50.5890   36.1630 Br  0  0  0  0  0  0  0  0  0  0  0  0
   18.0850  -51.6330   37.6680 C   0  0  0  0  0  3  0  0  0  0  0  0
   17.1250  -52.5650   38.0670 C   0  0  0  0  0  0  0  0  0  0  0  0
   17.1000  -53.7910   37.4070 C   0  0  0  0  0  0  0  0  0  0  0  0
   16.1200  -52.5800   39.0210 O   0  0  0  0  0  0  0  0  0  0  0  0
   18.0130  -54.0300   36.4010 C   0  0  0  0  0  3  0  0  0  0  0  0
   16.0810  -54.5210   37.9760 O   0  0  0  0  0  0  0  0  0  0  0  0
   15.5610  -53.8640   39.1160 C   0  0  0  0  0  2  0  0  0  0  0  0
   17.6350  -57.8450   31.9870 N   0  0  0  0  0  0  0  0  0  0  0  0
   17.2990  -59.0870   31.3340 C   0  0  0  0  0  2  0  0  0  0  0  0
   16.5450  -60.0090   32.2700 C   0  0  0  0  0  2  0  0  0  0  0  0
   16.8950  -59.9370   33.5780 O   0  0  0  0  0  0  0  0  0  0  0  0
   17.2000  -58.7280   34.1200 C   0  0  0  0  0  2  0  0  0  0  0  0
   16.9410  -57.5310   33.2100 C   0  0  0  0  0  2  0  0  0  0  0  0
   20.6820  -56.4580   28.5380 O   0  0  0  0  0  0  0  0  0  0  0  0
   21.4370  -55.4280   27.9580 C   0  0  0  0  0  1  0  0  0  0  0  0
  1  2  2  0  0  0  0
  1  7  1  0  0  0  0
  3 21  1  1  0  0  0
  3  2  1  0  0  0  0
  4  3  1  0  0  0  0
  5  4  2  0  0  0  0
  5  6  2  0  0  0  0
  6  1  1  0  0  0  0
  7  9  1  0  0  0  0
  8  7  1  0  0  0  0
  9 10  2  0  0  0  0
 10 11  1  0  0  0  0
 11 18  2  0  0  0  0
 11 12  1  0  0  0  0
 12 14  2  0  0  0  0
 13 12  1  0  0  0  0
 14 15  1  0  0  0  0
 15 17  1  0  0  0  0
 16 19  1  0  0  0  0
 16 15  2  0  0  0  0
 17 20  1  0  0  0  0
 18 16  1  0  0  0  0
 19 20  1  0  0  0  0
 21 26  1  0  0  0  0
 22 21  1  0  0  0  0
 22 23  1  0  0  0  0
 23 24  1  0  0  0  0
 24 25  1  0  0  0  0
 26 25  1  0  0  0  0
 27  5  1  0  0  0  0
 28 27  1  0  0  0  0
M  END
>  <Pose>
1

>  <Score>
-8.340

$$$$
