/Users/jonathanwahrer/Desktop/Msc/3_Semester/Drug_Design_Praktikum/waehrer_HTS_screening/HTS_experiment/out/docking_results/vina_output/6s1j/0469_docked.pdbqt
 OpenBabel03222221233D

 32 36  0  0  0  0  0  0  0  0999 V2000
   16.2840  -57.6700   33.5120 N   0  0  0  0  0  0  0  0  0  0  0  0
   16.2220  -56.7720   32.4590 C   0  0  0  0  0  2  0  0  0  0  0  0
   17.4130  -55.9850   32.0670 C   0  0  0  0  0  2  0  0  0  0  0  0
   18.3500  -55.9860   33.1540 N   0  0  0  0  0  0  0  0  0  0  0  0
   18.7180  -57.3020   33.6120 C   0  0  0  0  0  2  0  0  0  0  0  0
   17.4800  -57.9050   34.2240 C   0  0  0  0  0  2  0  0  0  0  0  0
   15.4070  -58.8150   33.4240 C   0  0  0  0  0  2  0  0  0  0  0  0
   14.2550  -58.7080   34.3970 C   0  0  0  0  0  0  0  0  0  0  0  0
   14.4210  -59.2930   35.6690 N   0  0  0  0  0  0  0  0  0  0  0  0
   15.3530  -59.7750   35.8680 H   0  0  0  0  0  0  0  0  0  0  0  0
   13.2410  -58.1090   34.0000 O   0  0  0  0  0  0  0  0  0  0  0  0
   13.4550  -59.2920   36.7040 C   0  0  0  0  0  0  0  0  0  0  0  0
   13.7000  -58.4930   37.8300 C   0  0  0  0  0  0  0  0  0  0  0  0
   15.2980  -57.4720   37.8880 Br  0  0  0  0  0  0  0  0  0  0  0  0
   12.7870  -58.4670   38.8580 C   0  0  0  0  0  3  0  0  0  0  0  0
   11.6380  -59.1940   38.8260 C   0  0  0  0  0  0  0  0  0  0  0  0
   11.3690  -59.9880   37.7330 C   0  0  0  0  0  0  0  0  0  0  0  0
   10.6900  -59.1980   39.8400 O   0  0  0  0  0  0  0  0  0  0  0  0
   12.2840  -60.0310   36.6750 C   0  0  0  0  0  3  0  0  0  0  0  0
   10.2040  -60.7120   37.7230 O   0  0  0  0  0  0  0  0  0  0  0  0
    9.5050  -61.1020   38.8800 C   0  0  0  0  0  2  0  0  0  0  0  0
    9.9810  -60.4120   40.1190 C   0  0  0  0  0  2  0  0  0  0  0  0
   18.9090  -54.8590   33.7780 C   0  0  0  0  0  0  0  0  0  0  0  0
   19.9990  -54.1990   33.3100 N   0  0  0  0  0  0  0  0  0  0  0  0
   20.5120  -53.1210   33.9300 C   0  0  0  0  0  3  0  0  0  0  0  0
   19.9580  -52.6390   35.0570 N   0  0  0  0  0  0  0  0  0  0  0  0
   18.8720  -53.2310   35.5940 C   0  0  0  0  0  0  0  0  0  0  0  0
   18.1210  -52.9710   36.6950 N   0  0  0  0  0  0  0  0  0  0  0  0
   18.3610  -54.3300   34.9510 C   0  0  0  0  0  0  0  0  0  0  0  0
   17.1740  -53.8910   36.7210 N   0  0  0  0  0  0  0  0  0  0  0  0
   18.3440  -51.8790   37.6440 C   0  0  0  0  0  1  0  0  0  0  0  0
   17.2740  -54.7360   35.6920 C   0  0  0  0  0  3  0  0  0  0  0  0
  1  6  1  0  0  0  0
  2  1  1  0  0  0  0
  3  2  1  0  0  0  0
  3  4  1  0  0  0  0
  4  5  1  0  0  0  0
  4 23  1  0  0  0  0
  5  6  1  0  0  0  0
  7  1  1  0  0  0  0
  7  8  1  0  0  0  0
  8  9  1  0  0  0  0
  9 10  1  0  0  0  0
  9 12  1  0  0  0  0
 11  8  2  0  0  0  0
 12 13  1  0  0  0  0
 13 14  1  0  0  0  0
 13 15  2  0  0  0  0
 16 15  1  0  0  0  0
 16 18  1  0  0  0  0
 17 16  2  0  0  0  0
 18 22  1  0  0  0  0
 19 12  2  0  0  0  0
 19 17  1  0  0  0  0
 20 17  1  0  0  0  0
 20 21  1  0  0  0  0
 21 22  1  0  0  0  0
 23 29  1  0  0  0  0
 24 23  2  0  0  0  0
 24 25  1  0  0  0  0
 25 26  2  0  0  0  0
 26 27  1  0  0  0  0
 27 28  1  0  0  0  0
 28 30  1  0  0  0  0
 28 31  1  0  0  0  0
 29 27  2  0  0  0  0
 29 32  1  0  0  0  0
 32 30  2  0  0  0  0
M  END
>  <Pose>
1

>  <Score>
-8.826

$$$$
