/Users/jonathanwahrer/Desktop/Msc/3_Semester/Drug_Design_Praktikum/waehrer_HTS_screening/HTS_experiment/out/docking_results/vina_output/6s1j/0473_docked.pdbqt
 OpenBabel03222221233D

 29 32  0  0  0  0  0  0  0  0999 V2000
   14.8340  -59.2680   35.4680 C   0  0  0  0  0  2  0  0  0  0  0  0
   14.0510  -58.4960   36.4920 C   0  0  0  0  0  2  0  0  0  0  0  0
   14.8840  -58.2730   37.6990 C   0  0  0  0  0  2  0  0  0  0  0  0
   15.3910  -56.9230   37.8130 N   0  0  0  0  0  0  0  0  0  0  0  0
   14.8920  -55.9850   38.7550 C   0  0  0  0  0  0  0  0  0  0  0  0
   15.6240  -54.7410   38.5890 C   0  0  0  0  0  0  0  0  0  0  0  0
   13.9680  -56.1530   39.6150 O   0  0  0  0  0  0  0  0  0  0  0  0
   16.5360  -54.9390   37.5710 C   0  0  0  0  0  0  0  0  0  0  0  0
   15.5460  -53.5240   39.2350 C   0  0  0  0  0  3  0  0  0  0  0  0
   17.3570  -53.8800   37.2290 C   0  0  0  0  0  3  0  0  0  0  0  0
   16.4090  -56.3130   37.0610 C   0  0  0  0  0  0  0  0  0  0  0  0
   17.2700  -52.6670   37.8820 C   0  0  0  0  0  0  0  0  0  0  0  0
   18.4350  -51.2500   37.3580 Br  0  0  0  0  0  0  0  0  0  0  0  0
   16.3620  -52.4620   38.9000 C   0  0  0  0  0  3  0  0  0  0  0  0
   17.0970  -56.8150   36.1300 O   0  0  0  0  0  0  0  0  0  0  0  0
   14.8620  -58.6460   34.1240 C   0  0  0  0  0  0  0  0  0  0  0  0
   13.8560  -58.1240   33.5770 O   0  0  0  0  0  0  0  0  0  0  0  0
   16.0830  -58.6110   33.3610 N   0  0  0  0  0  0  0  0  0  0  0  0
   16.1210  -58.0050   32.0490 C   0  0  0  0  0  2  0  0  0  0  0  0
   17.3230  -59.1750   33.8620 C   0  0  0  0  0  2  0  0  0  0  0  0
   17.3160  -57.1390   31.8270 C   0  0  0  0  0  2  0  0  0  0  0  0
   18.2190  -57.0720   32.9510 N   0  0  0  0  0  0  0  0  0  0  0  0
   18.4020  -58.1220   33.9170 C   0  0  0  0  0  2  0  0  0  0  0  0
   18.9880  -55.8760   33.1150 C   0  0  0  0  0  0  0  0  0  0  0  0
   19.2100  -55.3340   34.3430 N   0  0  0  0  0  0  0  0  0  0  0  0
   19.9200  -54.2240   34.5390 C   0  0  0  0  0  3  0  0  0  0  0  0
   20.4640  -53.5760   33.4400 C   0  0  0  0  0  3  0  0  0  0  0  0
   20.2620  -54.0880   32.2030 N   0  0  0  0  0  0  0  0  0  0  0  0
   19.5410  -55.2100   32.0450 C   0  0  0  0  0  3  0  0  0  0  0  0
  1  2  1  0  0  0  0
  2  3  1  0  0  0  0
  3  4  1  0  0  0  0
  4  5  1  0  0  0  0
  5  7  2  0  0  0  0
  6  5  1  0  0  0  0
  6  9  1  0  0  0  0
  8  6  2  0  0  0  0
 10  8  1  0  0  0  0
 10 12  2  0  0  0  0
 11  8  1  0  0  0  0
 11  4  1  0  0  0  0
 12 14  1  0  0  0  0
 13 12  1  0  0  0  0
 14  9  2  0  0  0  0
 15 11  2  0  0  0  0
 16  1  1  0  0  0  0
 17 16  2  0  0  0  0
 18 20  1  0  0  0  0
 18 16  1  0  0  0  0
 19 18  1  0  0  0  0
 20 23  1  0  0  0  0
 21 19  1  0  0  0  0
 21 22  1  0  0  0  0
 22 24  1  0  0  0  0
 22 23  1  0  0  0  0
 24 25  1  0  0  0  0
 25 26  2  0  0  0  0
 27 26  1  0  0  0  0
 28 27  2  0  0  0  0
 29 28  1  0  0  0  0
 29 24  2  0  0  0  0
M  END
>  <Pose>
1

>  <Score>
-9.490

$$$$
