/Users/jonathanwahrer/Desktop/Msc/3_Semester/Drug_Design_Praktikum/waehrer_HTS_screening/HTS_experiment/out/docking_results/vina_output/6s1j/0483_docked.pdbqt
 OpenBabel03222221233D

 31 34  0  0  0  0  0  0  0  0999 V2000
   11.1500  -60.8620   36.9770 C   0  0  0  0  0  2  0  0  0  0  0  0
   11.4700  -61.8300   38.0140 C   0  0  0  0  0  0  0  0  0  0  0  0
   11.7200  -62.6280   38.8790 C   0  0  0  0  0  3  0  0  0  0  0  0
   12.3480  -60.1720   36.5410 N   0  0  0  0  0  0  0  0  0  0  0  0
   13.0680  -59.1170   37.1680 C   0  0  0  0  0  0  0  0  0  0  0  0
   14.1740  -58.7500   36.3920 C   0  0  0  0  0  0  0  0  0  0  0  0
   12.8470  -58.4440   38.3610 C   0  0  0  0  0  3  0  0  0  0  0  0
   14.9990  -57.7380   36.8350 C   0  0  0  0  0  3  0  0  0  0  0  0
   14.2020  -59.5850   35.2000 C   0  0  0  0  0  0  0  0  0  0  0  0
   14.7650  -57.0660   38.0410 C   0  0  0  0  0  0  0  0  0  0  0  0
   15.9080  -55.6730   38.6460 Br  0  0  0  0  0  0  0  0  0  0  0  0
   13.6810  -57.4370   38.7860 C   0  0  0  0  0  3  0  0  0  0  0  0
   13.0280  -60.4730   35.3320 C   0  0  0  0  0  0  0  0  0  0  0  0
   15.0560  -59.5650   34.2340 N   0  0  0  0  0  0  0  0  0  0  0  0
   12.7620  -61.3340   34.4480 O   0  0  0  0  0  0  0  0  0  0  0  0
   16.1350  -58.6780   34.2110 N   0  0  0  0  0  0  0  0  0  0  0  0
   17.4120  -59.0430   33.7200 C   0  0  0  0  0  0  0  0  0  0  0  0
   17.5890  -60.2050   33.2870 O   0  0  0  0  0  0  0  0  0  0  0  0
   15.9880  -57.7160   34.5790 H   0  0  0  0  0  0  0  0  0  0  0  0
   18.5020  -58.0790   33.7190 C   0  0  0  0  0  2  0  0  0  0  0  0
   18.0680  -56.7290   34.0230 N   0  0  0  0  0  0  0  0  0  0  0  0
   17.1070  -56.0450   33.4260 N   0  0  0  0  0  2  0  0  0  0  0  0
   16.9890  -54.8450   33.9700 N   0  0  0  0  0  0  0  0  0  0  0  0
   17.9010  -54.7440   34.9520 C   0  0  0  0  0  0  0  0  0  0  0  0
   18.5450  -55.9180   34.9570 N   0  0  0  0  0  2  0  0  0  0  0  0
   18.1040  -53.5750   35.8020 C   0  0  0  0  0  0  0  0  0  0  0  0
   17.1060  -53.1620   36.6580 C   0  0  0  0  0  3  0  0  0  0  0  0
   17.2970  -52.0450   37.4740 C   0  0  0  0  0  3  0  0  0  0  0  0
   18.4710  -51.3270   37.4530 C   0  0  0  0  0  3  0  0  0  0  0  0
   19.4760  -51.7410   36.5950 C   0  0  0  0  0  3  0  0  0  0  0  0
   19.2770  -52.8520   35.7880 C   0  0  0  0  0  3  0  0  0  0  0  0
  1  2  1  0  0  0  0
  2  3  3  0  0  0  0
  4  1  1  0  0  0  0
  4  5  1  0  0  0  0
  5  7  1  0  0  0  0
  6  8  1  0  0  0  0
  6  5  2  0  0  0  0
  7 12  2  0  0  0  0
  8 10  2  0  0  0  0
  9 13  1  0  0  0  0
  9  6  1  0  0  0  0
 10 11  1  0  0  0  0
 10 12  1  0  0  0  0
 13  4  1  0  0  0  0
 14  9  2  0  0  0  0
 15 13  2  0  0  0  0
 16 14  1  0  0  0  0
 16 19  1  0  0  0  0
 17 16  1  0  0  0  0
 18 17  2  0  0  0  0
 20 17  1  0  0  0  0
 20 21  1  0  0  0  0
 21 25  1  0  0  0  0
 22 23  1  0  0  0  0
 22 21  1  0  0  0  0
 23 24  2  0  0  0  0
 24 25  1  0  0  0  0
 24 26  1  0  0  0  0
 26 27  1  0  0  0  0
 27 28  2  0  0  0  0
 29 28  1  0  0  0  0
 30 29  2  0  0  0  0
 31 26  2  0  0  0  0
 31 30  1  0  0  0  0
M  END
>  <Pose>
1

>  <Score>
-9.661

$$$$
