/Users/jonathanwahrer/Desktop/Msc/3_Semester/Drug_Design_Praktikum/waehrer_HTS_screening/HTS_experiment/out/docking_results/vina_output/6s1j/0484_docked.pdbqt
 OpenBabel03222221243D

 35 38  0  0  0  0  0  0  0  0999 V2000
   19.7290  -53.9880   33.5380 Br  0  0  0  0  0  0  0  0  0  0  0  0
   18.7970  -55.6550   33.5630 C   0  0  0  0  0  0  0  0  0  0  0  0
   17.7630  -55.9040   34.4780 C   0  0  0  0  0  3  0  0  0  0  0  0
   17.1620  -57.1270   34.3980 C   0  0  0  0  0  0  0  0  0  0  0  0
   17.5110  -58.1050   33.4910 C   0  0  0  0  0  0  0  0  0  0  0  0
   18.5300  -57.8590   32.5980 C   0  0  0  0  0  3  0  0  0  0  0  0
   19.1680  -56.6110   32.6440 C   0  0  0  0  0  3  0  0  0  0  0  0
   16.7170  -59.2750   33.6370 N   0  0  0  0  0  0  0  0  0  0  0  0
   15.8040  -59.0040   34.7330 C   0  0  0  0  0  0  0  0  0  0  0  0
   14.9320  -59.7930   35.1530 O   0  0  0  0  0  0  0  0  0  0  0  0
   16.1090  -57.6700   35.1990 C   0  0  0  0  0  0  0  0  0  0  0  0
   15.6730  -57.0720   36.2400 N   0  0  0  0  0  0  0  0  0  0  0  0
   14.9810  -57.1130   37.1780 N   0  0  0  0  0  0  0  0  0  0  0  0
   14.1290  -57.1710   38.3040 C   0  0  0  0  0  0  0  0  0  0  0  0
   13.9250  -57.6580   36.4600 H   0  0  0  0  0  0  0  0  0  0  0  0
   13.0240  -57.6360   38.4720 O   0  0  0  0  0  0  0  0  0  0  0  0
   14.8150  -56.4690   39.4980 C   0  0  0  0  0  2  0  0  0  0  0  0
   14.4500  -55.0810   39.3410 O   0  0  0  0  0  0  0  0  0  0  0  0
   15.4080  -54.2970   38.6370 N   0  0  0  0  0  0  0  0  0  0  0  0
   16.5600  -54.0560   39.1270 C   0  0  0  0  0  3  0  0  0  0  0  0
   17.5090  -53.2440   38.4000 C   0  0  0  0  0  0  0  0  0  0  0  0
   17.3440  -51.9380   38.0780 C   0  0  0  0  0  3  0  0  0  0  0  0
   18.3660  -51.3460   37.2930 C   0  0  0  0  0  3  0  0  0  0  0  0
   19.4760  -51.9310   36.8490 C   0  0  0  0  0  0  0  0  0  0  0  0
   19.5970  -53.2330   37.2000 C   0  0  0  0  0  3  0  0  0  0  0  0
   18.7370  -53.9670   37.9240 C   0  0  0  0  0  3  0  0  0  0  0  0
   20.4080  -51.2200   36.0850 O   0  0  0  0  0  0  0  0  0  0  0  0
   20.3930  -49.7980   36.0610 C   0  0  0  0  0  1  0  0  0  0  0  0
   16.6680  -60.5220   32.8910 C   0  0  0  0  0  2  0  0  0  0  0  0
   15.8580  -60.4290   31.7790 N   0  0  0  0  0  0  0  0  0  0  0  0
   16.5880  -60.3960   30.5770 C   0  0  0  0  0  2  0  0  0  0  0  0
   15.9350  -61.3280   29.5530 C   0  0  0  0  0  2  0  0  0  0  0  0
   15.8190  -62.5550   30.2630 O   0  0  0  0  0  0  0  0  0  0  0  0
   14.7490  -62.4620   31.1630 C   0  0  0  0  0  2  0  0  0  0  0  0
   14.6330  -61.1200   31.8160 C   0  0  0  0  0  2  0  0  0  0  0  0
  1  2  1  0  0  0  0
  2  3  1  0  0  0  0
  4  3  2  0  0  0  0
  4 11  1  0  0  0  0
  5  8  1  0  0  0  0
  5  4  1  0  0  0  0
  6  7  1  0  0  0  0
  6  5  2  0  0  0  0
  7  2  2  0  0  0  0
  8  9  1  0  0  0  0
  9 10  2  0  0  0  0
  9 11  1  0  0  0  0
 11 12  2  0  0  0  0
 12 13  1  0  0  0  0
 13 14  1  0  0  0  0
 14 16  2  0  0  0  0
 14 17  1  0  0  0  0
 15 13  1  0  0  0  0
 18 17  1  0  0  0  0
 19 20  2  0  0  0  0
 19 18  1  0  0  0  0
 21 20  1  0  0  0  0
 22 21  1  0  0  0  0
 23 22  2  0  0  0  0
 24 25  2  0  0  0  0
 24 23  1  0  0  0  0
 25 26  1  0  0  0  0
 26 21  2  0  0  0  0
 27 24  1  0  0  0  0
 28 27  1  0  0  0  0
 29  8  1  0  0  0  0
 30 35  1  0  0  0  0
 30 29  1  0  0  0  0
 31 30  1  0  0  0  0
 32 33  1  0  0  0  0
 32 31  1  0  0  0  0
 33 34  1  0  0  0  0
 34 35  1  0  0  0  0
M  END
>  <Pose>
1

>  <Score>
-9.878

$$$$
