/Users/jonathanwahrer/Desktop/Msc/3_Semester/Drug_Design_Praktikum/waehrer_HTS_screening/HTS_experiment/out/docking_results/vina_output/6s1j/0504_docked.pdbqt
 OpenBabel03222221253D

 29 32  0  0  1  0  0  0  0  0999 V2000
   14.7230  -60.3540   27.7730 Br  0  0  0  0  0  0  0  0  0  0  0  0
   15.3400  -61.3700   29.2550 C   0  0  0  0  0  0  0  0  0  0  0  0
   14.7390  -61.3340   30.4900 C   0  0  0  0  0  3  0  0  0  0  0  0
   15.2530  -62.1100   31.5280 C   0  0  0  0  0  0  0  0  0  0  0  0
   16.3320  -62.9160   31.3880 C   0  0  0  0  0  0  0  0  0  0  0  0
   16.9420  -62.9540   30.1310 C   0  0  0  0  0  3  0  0  0  0  0  0
   16.4490  -62.1930   29.0940 C   0  0  0  0  0  3  0  0  0  0  0  0
   16.6510  -63.5970   32.5860 N   0  0  0  0  0  0  0  0  0  0  0  0
   15.7140  -63.2000   33.5600 C   0  0  0  0  0  0  0  0  0  0  0  0
   15.6750  -63.5950   34.7580 O   0  0  0  0  0  0  0  0  0  0  0  0
   14.7690  -62.2300   32.9410 C   0  0  1  0  0  0  0  0  0  0  0  0
   14.8650  -60.9100   33.6150 C   0  0  0  0  0  0  0  0  0  0  0  0
   13.8400  -60.2970   34.0860 C   0  0  0  0  0  0  0  0  0  0  0  0
   12.4930  -60.8380   34.0020 N   0  0  0  0  0  0  0  0  0  0  0  0
   12.3870  -62.0930   33.3620 C   0  0  0  0  0  0  0  0  0  0  0  0
   13.4150  -62.7340   32.8770 C   0  0  0  0  0  0  0  0  0  0  0  0
   13.1510  -64.0210   32.2450 C   0  0  0  0  0  0  0  0  0  0  0  0
   12.9630  -65.0460   31.7390 N   0  0  0  0  0  0  0  0  0  0  0  0
   14.2900  -59.0070   34.6930 C   0  0  0  0  0  0  0  0  0  0  0  0
   15.6570  -58.9720   34.5110 O   0  0  0  0  0  0  0  0  0  0  0  0
   16.0940  -60.0880   33.8640 C   0  0  0  0  0  0  0  0  0  0  0  0
   17.2660  -60.4250   33.5170 O   0  0  0  0  0  0  0  0  0  0  0  0
   13.8720  -58.9470   36.1500 C   0  0  0  0  0  1  0  0  0  0  0  0
   13.6860  -57.8270   33.9530 C   0  0  0  0  0  1  0  0  0  0  0  0
   17.7490  -64.5480   32.8160 C   0  0  0  0  0  1  0  0  0  0  0  0
   11.7020  -60.3020   34.3980 H   0  0  0  0  0  0  0  0  0  0  0  0
   11.0630  -62.6840   33.2490 N   0  0  0  0  0  0  0  0  0  0  0  0
   10.6580  -62.7490   32.2930 H   0  0  0  0  0  0  0  0  0  0  0  0
   10.5490  -63.0180   34.0760 H   0  0  0  0  0  0  0  0  0  0  0  0
  1  2  1  0  0  0  0
  2  3  1  0  0  0  0
  3  4  2  0  0  0  0
  5  4  1  0  0  0  0
  5  8  1  0  0  0  0
  6  5  2  0  0  0  0
  7  2  2  0  0  0  0
  7  6  1  0  0  0  0
  8 25  1  0  0  0  0
  8  9  1  0  0  0  0
  9 10  2  0  0  0  0
 11  4  1  6  0  0  0
 11  9  1  0  0  0  0
 11 12  1  0  0  0  0
 12 21  1  0  0  0  0
 12 13  2  0  0  0  0
 13 19  1  0  0  0  0
 14 13  1  0  0  0  0
 14 26  1  0  0  0  0
 15 14  1  0  0  0  0
 16 11  1  0  0  0  0
 16 15  2  0  0  0  0
 17 16  1  0  0  0  0
 18 17  3  0  0  0  0
 19 23  1  0  0  0  0
 20 19  1  0  0  0  0
 21 20  1  0  0  0  0
 22 21  2  0  0  0  0
 24 19  1  0  0  0  0
 27 15  1  0  0  0  0
 27 29  1  0  0  0  0
 28 27  1  0  0  0  0
M  END
>  <Pose>
1

>  <Score>
-5.781

$$$$
