/Users/jonathanwahrer/Desktop/Msc/3_Semester/Drug_Design_Praktikum/waehrer_HTS_screening/HTS_experiment/out/docking_results/vina_output/6s1j/0513_docked.pdbqt
 OpenBabel03222221253D

 33 36  0  0  0  0  0  0  0  0999 V2000
   18.4320  -55.9090   34.2280 N   0  0  0  0  0  0  0  0  0  0  0  0
   17.2730  -56.7080   34.4280 C   0  0  0  0  0  0  0  0  0  0  0  0
   16.9510  -56.9540   35.6010 O   0  0  0  0  0  0  0  0  0  0  0  0
   18.7090  -55.7150   33.2410 H   0  0  0  0  0  0  0  0  0  0  0  0
   19.1950  -55.3930   35.2580 N   0  0  0  0  0  0  0  0  0  0  0  0
   19.5070  -56.0250   36.0450 H   0  0  0  0  0  0  0  0  0  0  0  0
   19.6040  -54.0550   35.3450 C   0  0  0  0  0  3  0  0  0  0  0  0
   19.0830  -53.1520   36.1480 C   0  0  0  0  0  0  0  0  0  0  0  0
   17.9920  -53.2930   37.1180 C   0  0  0  0  0  0  0  0  0  0  0  0
   19.4990  -51.7440   36.2500 C   0  0  0  0  0  0  0  0  0  0  0  0
   17.2040  -54.3620   37.4860 C   0  0  0  0  0  3  0  0  0  0  0  0
   17.7570  -52.0990   37.7560 C   0  0  0  0  0  0  0  0  0  0  0  0
   16.2060  -54.2740   38.4560 C   0  0  0  0  0  0  0  0  0  0  0  0
   15.1570  -55.8090   38.9140 Br  0  0  0  0  0  0  0  0  0  0  0  0
   16.0020  -53.0650   39.0690 C   0  0  0  0  0  3  0  0  0  0  0  0
   16.7620  -51.9740   38.7360 C   0  0  0  0  0  3  0  0  0  0  0  0
   18.6730  -51.1470   37.2330 N   0  0  0  0  0  0  0  0  0  0  0  0
   18.7380  -50.1420   37.5210 H   0  0  0  0  0  0  0  0  0  0  0  0
   20.4160  -51.2210   35.5730 O   0  0  0  0  0  0  0  0  0  0  0  0
   16.4540  -57.2410   33.3170 C   0  0  0  0  0  2  0  0  0  0  0  0
   16.3120  -58.6200   33.3760 N   0  0  0  0  0  0  0  0  0  0  0  0
   15.2990  -59.3980   33.7550 C   0  0  0  0  0  0  0  0  0  0  0  0
   15.7000  -60.7250   33.6810 C   0  0  0  0  0  0  0  0  0  0  0  0
   14.0540  -59.0580   34.1480 N   0  0  0  0  0  0  0  0  0  0  0  0
   16.9750  -60.7190   33.2470 N   0  0  0  0  0  0  0  0  0  0  0  0
   14.8190  -61.7330   34.0160 C   0  0  0  0  0  0  0  0  0  0  0  0
   17.3400  -59.4710   33.0650 C   0  0  0  0  0  3  0  0  0  0  0  0
   15.2120  -62.9260   33.9410 O   0  0  0  0  0  0  0  0  0  0  0  0
   13.6020  -61.3790   34.4010 N   0  0  0  0  0  0  0  0  0  0  0  0
   13.2230  -60.0900   34.4670 C   0  0  0  0  0  0  0  0  0  0  0  0
   12.6230  -62.4140   34.7730 C   0  0  0  0  0  1  0  0  0  0  0  0
   12.0610  -59.7980   34.8370 O   0  0  0  0  0  0  0  0  0  0  0  0
   13.6080  -57.6950   34.1940 C   0  0  0  0  0  1  0  0  0  0  0  0
  1  2  1  0  0  0  0
  1  5  1  0  0  0  0
  2  3  2  0  0  0  0
  4  1  1  0  0  0  0
  5  7  1  0  0  0  0
  5  6  1  0  0  0  0
  7  8  2  0  0  0  0
  8 10  1  0  0  0  0
  8  9  1  0  0  0  0
  9 11  2  0  0  0  0
  9 12  1  0  0  0  0
 10 17  1  0  0  0  0
 11 13  1  0  0  0  0
 12 16  2  0  0  0  0
 13 14  1  0  0  0  0
 13 15  2  0  0  0  0
 16 15  1  0  0  0  0
 17 18  1  0  0  0  0
 17 12  1  0  0  0  0
 19 10  2  0  0  0  0
 20 21  1  0  0  0  0
 20  2  1  0  0  0  0
 21 22  1  0  0  0  0
 22 24  1  0  0  0  0
 23 22  2  0  0  0  0
 23 26  1  0  0  0  0
 24 33  1  0  0  0  0
 24 30  1  0  0  0  0
 25 23  1  0  0  0  0
 26 29  1  0  0  0  0
 27 25  2  0  0  0  0
 27 21  1  0  0  0  0
 28 26  2  0  0  0  0
 29 30  1  0  0  0  0
 29 31  1  0  0  0  0
 30 32  2  0  0  0  0
M  END
>  <Pose>
1

>  <Score>
-10.332

$$$$
