/Users/jonathanwahrer/Desktop/Msc/3_Semester/Drug_Design_Praktikum/waehrer_HTS_screening/HTS_experiment/out/docking_results/vina_output/6s1j/0526_docked.pdbqt
 OpenBabel03222221253D

 31 34  0  0  0  0  0  0  0  0999 V2000
   15.0960  -57.5680   37.8280 N   0  0  0  0  0  0  0  0  0  0  0  0
   14.3470  -58.1150   36.7690 C   0  0  0  0  0  0  0  0  0  0  0  0
   14.3670  -57.5080   35.6390 O   0  0  0  0  0  0  0  0  0  0  0  0
   15.0800  -58.0490   38.7680 H   0  0  0  0  0  0  0  0  0  0  0  0
   13.5290  -59.3310   36.7890 C   0  0  0  0  0  2  0  0  0  0  0  0
   13.2880  -59.9140   38.0780 N   0  0  0  0  0  0  0  0  0  0  0  0
   11.9690  -60.0920   38.5830 C   0  0  0  0  0  0  0  0  0  0  0  0
   11.0150  -59.6930   37.8080 O   0  0  0  0  0  0  0  0  0  0  0  0
   14.0560  -60.2100   38.7000 H   0  0  0  0  0  0  0  0  0  0  0  0
   11.6120  -60.6600   39.8460 C   0  0  0  0  0  0  0  0  0  0  0  0
   11.2520  -61.9820   40.0610 C   0  0  0  0  0  3  0  0  0  0  0  0
   10.9320  -62.4580   41.2870 C   0  0  0  0  0  0  0  0  0  0  0  0
   10.9490  -61.6380   42.3970 C   0  0  0  0  0  0  0  0  0  0  0  0
   10.5390  -63.7480   41.8050 O   0  0  0  0  0  0  0  0  0  0  0  0
   11.2910  -60.3330   42.2330 C   0  0  0  0  0  3  0  0  0  0  0  0
   10.5850  -62.4000   43.5190 O   0  0  0  0  0  0  0  0  0  0  0  0
   11.6290  -59.8220   40.9710 C   0  0  0  0  0  3  0  0  0  0  0  0
   11.0900  -63.7110   43.1700 C   0  0  0  0  0  2  0  0  0  0  0  0
   15.8210  -56.4460   37.6440 N   0  0  0  0  0  0  0  0  0  0  0  0
   15.9490  -55.3320   38.0460 C   0  0  0  0  0  0  0  0  0  0  0  0
   16.8600  -54.2460   37.6600 C   0  0  0  0  0  0  0  0  0  0  0  0
   15.1000  -54.8220   39.1640 C   0  0  0  0  0  0  0  0  0  0  0  0
   17.8350  -54.1960   36.6880 C   0  0  0  0  0  3  0  0  0  0  0  0
   16.5810  -53.1880   38.4650 C   0  0  0  0  0  0  0  0  0  0  0  0
   18.5790  -53.0700   36.4810 C   0  0  0  0  0  0  0  0  0  0  0  0
   19.9230  -52.9830   35.1440 Br  0  0  0  0  0  0  0  0  0  0  0  0
   18.3110  -51.9750   37.2940 C   0  0  0  0  0  3  0  0  0  0  0  0
   17.3390  -52.0300   38.2610 C   0  0  0  0  0  3  0  0  0  0  0  0
   15.5450  -53.4800   39.3780 N   0  0  0  0  0  0  0  0  0  0  0  0
   15.1350  -52.8460   40.1040 H   0  0  0  0  0  0  0  0  0  0  0  0
   14.2250  -55.4820   39.7270 O   0  0  0  0  0  0  0  0  0  0  0  0
  1  4  1  0  0  0  0
  2  5  1  0  0  0  0
  2  1  1  0  0  0  0
  3  2  2  0  0  0  0
  5  6  1  0  0  0  0
  6  7  1  0  0  0  0
  6  9  1  0  0  0  0
  7 10  1  0  0  0  0
  8  7  2  0  0  0  0
 10 11  2  0  0  0  0
 10 17  1  0  0  0  0
 11 12  1  0  0  0  0
 12 14  1  0  0  0  0
 12 13  2  0  0  0  0
 13 16  1  0  0  0  0
 14 18  1  0  0  0  0
 15 13  1  0  0  0  0
 17 15  2  0  0  0  0
 18 16  1  0  0  0  0
 19  1  1  0  0  0  0
 19 20  2  0  0  0  0
 20 22  1  0  0  0  0
 21 20  1  0  0  0  0
 21 24  1  0  0  0  0
 22 29  1  0  0  0  0
 22 31  2  0  0  0  0
 23 21  2  0  0  0  0
 24 29  1  0  0  0  0
 25 23  1  0  0  0  0
 25 27  2  0  0  0  0
 26 25  1  0  0  0  0
 27 28  1  0  0  0  0
 28 24  2  0  0  0  0
 29 30  1  0  0  0  0
M  END
>  <Pose>
1

>  <Score>
-9.939

$$$$
