/Users/jonathanwahrer/Desktop/Msc/3_Semester/Drug_Design_Praktikum/waehrer_HTS_screening/HTS_experiment/out/docking_results/vina_output/6s1j/0550_docked.pdbqt
 OpenBabel03222221253D

 30 35  0  0  1  0  0  0  0  0999 V2000
   16.5900  -51.8320   38.0940 Br  0  0  0  0  0  0  0  0  0  0  0  0
   17.5980  -53.1530   37.1570 C   0  0  0  0  0  0  0  0  0  0  0  0
   17.0030  -54.2770   36.5970 C   0  0  0  0  0  3  0  0  0  0  0  0
   17.7330  -55.2210   35.9260 C   0  0  0  0  0  0  0  0  0  0  0  0
   19.1000  -55.0120   35.8230 C   0  0  0  0  0  0  0  0  0  0  0  0
   19.6970  -53.8990   36.3750 C   0  0  0  0  0  3  0  0  0  0  0  0
   18.9540  -52.9570   37.0480 C   0  0  0  0  0  3  0  0  0  0  0  0
   19.7070  -56.0810   35.0930 N   0  0  0  0  0  0  0  0  0  0  0  0
   18.7040  -57.0000   34.7190 C   0  0  0  0  0  0  0  0  0  0  0  0
   18.9110  -58.0360   34.0690 O   0  0  0  0  0  0  0  0  0  0  0  0
   17.4250  -56.4770   35.2460 C   0  0  1  0  0  0  0  0  0  0  0  0
   16.8480  -57.5070   36.0560 N   0  0  2  0  0  0  0  0  0  0  0  0
   16.3210  -58.4660   35.0870 C   0  0  2  0  0  3  0  0  0  0  0  0
   15.8890  -57.6710   33.8990 C   0  0  1  0  0  3  0  0  0  0  0  0
   16.3880  -56.2930   34.1670 C   0  0  2  0  0  3  0  0  0  0  0  0
   16.9420  -55.8390   32.8950 C   0  0  0  0  0  0  0  0  0  0  0  0
   17.3390  -54.6830   32.6300 O   0  0  0  0  0  0  0  0  0  0  0  0
   16.9680  -56.9130   31.9880 N   0  0  0  0  0  0  0  0  0  0  0  0
   16.5530  -58.1250   32.6360 C   0  0  0  0  0  0  0  0  0  0  0  0
   16.7010  -59.3140   32.2590 O   0  0  0  0  0  0  0  0  0  0  0  0
   15.0800  -59.0600   35.7380 C   0  0  0  0  0  2  0  0  0  0  0  0
   14.9790  -58.4190   37.1070 C   0  0  0  0  0  2  0  0  0  0  0  0
   15.7030  -57.0920   36.8400 C   0  0  0  0  0  2  0  0  0  0  0  0
   20.7460  -56.1520   34.8810 H   0  0  0  0  0  0  0  0  0  0  0  0
   17.3460  -56.8430   30.6110 C   0  0  0  0  0  2  0  0  0  0  0  0
   18.7770  -56.5320   30.3610 C   0  0  2  0  0  3  0  0  0  0  0  0
   19.0520  -56.1710   29.0470 O   0  0  0  0  0  0  0  0  0  0  0  0
   20.4390  -56.1660   28.9930 C   0  0  0  0  0  2  0  0  0  0  0  0
   20.9440  -57.2850   29.8490 C   0  0  0  0  0  2  0  0  0  0  0  0
   19.7440  -57.6000   30.7410 C   0  0  0  0  0  2  0  0  0  0  0  0
  2  1  1  0  0  0  0
  3  2  2  0  0  0  0
  4  3  1  0  0  0  0
  5  4  2  0  0  0  0
  5  6  1  0  0  0  0
  6  7  2  0  0  0  0
  7  2  1  0  0  0  0
  8  5  1  0  0  0  0
  9  8  1  0  0  0  0
 10  9  2  0  0  0  0
 11  9  1  6  0  0  0
 11  4  1  0  0  0  0
 11 12  1  0  0  0  0
 12 23  1  6  0  0  0
 13 21  1  1  0  0  0
 13 12  1  0  0  0  0
 14 19  1  6  0  0  0
 14 15  1  0  0  0  0
 14 13  1  0  0  0  0
 15 16  1  6  0  0  0
 15 11  1  0  0  0  0
 17 16  2  0  0  0  0
 18 19  1  0  0  0  0
 18 16  1  0  0  0  0
 20 19  2  0  0  0  0
 21 22  1  0  0  0  0
 23 22  1  0  0  0  0
 24  8  1  0  0  0  0
 25 18  1  0  0  0  0
 26 25  1  6  0  0  0
 26 30  1  0  0  0  0
 27 26  1  0  0  0  0
 28 27  1  0  0  0  0
 28 29  1  0  0  0  0
 29 30  1  0  0  0  0
M  END
>  <Pose>
1

>  <Score>
-8.652

$$$$
