/Users/jonathanwahrer/Desktop/Msc/3_Semester/Drug_Design_Praktikum/waehrer_HTS_screening/HTS_experiment/out/docking_results/vina_output/6s1j/0556_docked.pdbqt
 OpenBabel03222221263D

 30 33  0  0  1  0  0  0  0  0999 V2000
   15.4700  -59.5550   26.8380 Br  0  0  0  0  0  0  0  0  0  0  0  0
   16.3810  -60.4440   28.2580 C   0  0  0  0  0  0  0  0  0  0  0  0
   15.6750  -60.6640   29.4150 C   0  0  0  0  0  3  0  0  0  0  0  0
   16.3000  -61.3130   30.4860 C   0  0  0  0  0  0  0  0  0  0  0  0
   17.5910  -61.7110   30.3570 C   0  0  0  0  0  0  0  0  0  0  0  0
   18.3320  -61.4960   29.1800 C   0  0  0  0  0  3  0  0  0  0  0  0
   17.6930  -60.8550   28.1450 C   0  0  0  0  0  3  0  0  0  0  0  0
   18.0420  -62.3400   31.5430 N   0  0  0  0  0  0  0  0  0  0  0  0
   16.9830  -62.3320   32.4530 C   0  0  0  0  0  0  0  0  0  0  0  0
   16.9860  -62.8020   33.6560 O   0  0  0  0  0  0  0  0  0  0  0  0
   15.8070  -61.6780   31.8040 C   0  0  2  0  0  0  0  0  0  0  0  0
   14.7370  -62.6400   31.8590 C   0  0  0  0  0  0  0  0  0  0  0  0
   13.6490  -62.4340   32.6220 C   0  0  0  0  0  0  0  0  0  0  0  0
   12.8300  -63.5240   32.4520 N   0  0  0  0  0  0  0  0  0  0  0  0
   13.4110  -64.3550   31.6140 N   0  0  0  0  0  0  0  0  0  0  0  0
   14.5880  -63.8800   31.2060 C   0  0  0  0  0  0  0  0  0  0  0  0
   15.5650  -64.4970   30.2630 C   0  0  0  0  0  1  0  0  0  0  0  0
   13.4650  -61.2860   33.4150 O   0  0  0  0  0  0  0  0  0  0  0  0
   14.4870  -60.3460   33.3750 C   0  0  0  0  0  0  0  0  0  0  0  0
   15.5600  -60.4920   32.6590 C   0  0  0  0  0  0  0  0  0  0  0  0
   18.9980  -62.7510   31.7410 H   0  0  0  0  0  0  0  0  0  0  0  0
   11.9030  -63.6660   32.9130 H   0  0  0  0  0  0  0  0  0  0  0  0
   16.5980  -59.4210   32.6870 C   0  0  0  0  0  0  0  0  0  0  0  0
   17.5860  -59.5880   33.4240 O   0  0  0  0  0  0  0  0  0  0  0  0
   16.5140  -58.2750   31.9440 O   0  0  0  0  0  0  0  0  0  0  0  0
   17.6080  -57.4610   31.5960 C   0  0  0  0  0  2  0  0  0  0  0  0
   17.7790  -57.5560   30.0760 C   0  0  0  0  0  1  0  0  0  0  0  0
   14.3720  -59.1400   34.1630 N   0  0  0  0  0  0  0  0  0  0  0  0
   14.2430  -58.2530   33.6700 H   0  0  0  0  0  0  0  0  0  0  0  0
   14.4210  -59.2020   35.1810 H   0  0  0  0  0  0  0  0  0  0  0  0
  1  2  1  0  0  0  0
  2  3  1  0  0  0  0
  3  4  2  0  0  0  0
  5  4  1  0  0  0  0
  5  8  1  0  0  0  0
  6  5  2  0  0  0  0
  7  2  2  0  0  0  0
  7  6  1  0  0  0  0
  8 21  1  0  0  0  0
  8  9  1  0  0  0  0
  9 10  2  0  0  0  0
 11  4  1  6  0  0  0
 11 12  1  0  0  0  0
 11  9  1  0  0  0  0
 11 20  1  0  0  0  0
 12 13  2  0  0  0  0
 13 18  1  0  0  0  0
 14 13  1  0  0  0  0
 14 22  1  0  0  0  0
 15 14  1  0  0  0  0
 16 15  2  0  0  0  0
 16 12  1  0  0  0  0
 17 16  1  0  0  0  0
 19 18  1  0  0  0  0
 19 28  1  0  0  0  0
 20 23  1  0  0  0  0
 20 19  2  0  0  0  0
 23 24  2  0  0  0  0
 25 23  1  0  0  0  0
 26 25  1  0  0  0  0
 27 26  1  0  0  0  0
 28 30  1  0  0  0  0
 29 28  1  0  0  0  0
M  END
>  <Pose>
1

>  <Score>
-5.099

$$$$
