/Users/jonathanwahrer/Desktop/Msc/3_Semester/Drug_Design_Praktikum/waehrer_HTS_screening/HTS_experiment/out/docking_results/vina_output/6s1j/0559_docked.pdbqt
 OpenBabel03222221263D

 32 35  0  0  1  0  0  0  0  0999 V2000
   17.7080  -63.2080   32.4730 Br  0  0  0  0  0  0  0  0  0  0  0  0
   15.9290  -62.6230   32.8960 C   0  0  0  0  0  0  0  0  0  0  0  0
   15.6970  -61.4810   33.6400 C   0  0  0  0  0  3  0  0  0  0  0  0
   14.4230  -61.0520   33.9500 C   0  0  0  0  0  0  0  0  0  0  0  0
   13.3840  -61.8260   33.4760 C   0  0  0  0  0  0  0  0  0  0  0  0
   13.6130  -62.9760   32.7270 C   0  0  0  0  0  3  0  0  0  0  0  0
   14.8810  -63.3770   32.4350 C   0  0  0  0  0  3  0  0  0  0  0  0
   12.1420  -61.2390   33.8960 N   0  0  0  0  0  0  0  0  0  0  0  0
   12.4140  -60.0710   34.6510 C   0  0  0  0  0  0  0  0  0  0  0  0
   11.5320  -59.3430   35.1630 O   0  0  0  0  0  0  0  0  0  0  0  0
   13.8810  -59.8990   34.7050 C   0  0  1  0  0  0  0  0  0  0  0  0
   14.3480  -59.8600   36.0640 N   0  0  0  0  0  0  0  0  0  0  0  0
   14.0870  -58.4990   36.4830 C   0  0  2  0  0  3  0  0  0  0  0  0
   14.5060  -57.6760   35.2950 C   0  0  2  0  0  3  0  0  0  0  0  0
   14.2400  -58.5810   34.1160 C   0  0  1  0  0  3  0  0  0  0  0  0
   15.4740  -58.5550   33.3190 C   0  0  0  0  0  0  0  0  0  0  0  0
   15.6500  -59.0730   32.1870 O   0  0  0  0  0  0  0  0  0  0  0  0
   16.5000  -57.8280   34.0320 N   0  0  0  0  0  0  0  0  0  0  0  0
   15.9580  -57.3930   35.2680 C   0  0  0  0  0  0  0  0  0  0  0  0
   16.6300  -56.8560   36.1800 O   0  0  0  0  0  0  0  0  0  0  0  0
   11.2120  -61.6460   33.6590 H   0  0  0  0  0  0  0  0  0  0  0  0
   15.3690  -60.0150   36.0730 H   0  0  0  0  0  0  0  0  0  0  0  0
   14.8520  -58.1810   37.7400 C   0  0  0  0  0  2  0  0  0  0  0  0
   13.9850  -57.5270   38.7350 C   0  0  0  0  0  0  0  0  0  0  0  0
   14.3550  -56.4280   39.2300 O   0  0  0  0  0  0  0  0  0  0  0  0
   12.7450  -58.0440   39.1880 N   0  0  0  0  0  0  0  0  0  0  0  0
   12.5780  -59.0160   39.4880 H   0  0  0  0  0  0  0  0  0  0  0  0
   11.9330  -57.3740   39.2170 H   0  0  0  0  0  0  0  0  0  0  0  0
   17.8480  -57.5770   33.5840 C   0  0  0  0  0  0  0  0  0  0  0  0
   18.2200  -56.1190   33.7080 C   0  0  0  0  0  1  0  0  0  0  0  0
   18.8120  -58.4270   34.4170 C   0  0  0  0  0  1  0  0  0  0  0  0
   18.0120  -57.9580   32.1300 C   0  0  0  0  0  1  0  0  0  0  0  0
  1  2  1  0  0  0  0
  2  3  1  0  0  0  0
  3  4  2  0  0  0  0
  5  8  1  0  0  0  0
  5  4  1  0  0  0  0
  6  5  2  0  0  0  0
  7  6  1  0  0  0  0
  7  2  2  0  0  0  0
  8  9  1  0  0  0  0
  9 11  1  0  0  0  0
  9 10  2  0  0  0  0
 11  4  1  6  0  0  0
 11 12  1  0  0  0  0
 12 22  1  0  0  0  0
 12 13  1  0  0  0  0
 13 23  1  1  0  0  0
 14 19  1  1  0  0  0
 14 13  1  0  0  0  0
 15 16  1  6  0  0  0
 15 11  1  0  0  0  0
 15 14  1  0  0  0  0
 16 18  1  0  0  0  0
 17 16  2  0  0  0  0
 18 19  1  0  0  0  0
 19 20  2  0  0  0  0
 21  8  1  0  0  0  0
 23 24  1  0  0  0  0
 24 26  1  0  0  0  0
 24 25  2  0  0  0  0
 26 28  1  0  0  0  0
 26 27  1  0  0  0  0
 29 30  1  0  0  0  0
 29 18  1  0  0  0  0
 29 31  1  0  0  0  0
 32 29  1  0  0  0  0
M  END
>  <Pose>
1

>  <Score>
-7.724

$$$$
