/Users/jonathanwahrer/Desktop/Msc/3_Semester/Drug_Design_Praktikum/waehrer_HTS_screening/HTS_experiment/out/docking_results/vina_output/6s1j/0566_docked.pdbqt
 OpenBabel03222221263D

 30 33  0  0  1  0  0  0  0  0999 V2000
   19.6040  -54.2350   37.3900 Br  0  0  0  0  0  0  0  0  0  0  0  0
   19.2030  -54.5490   35.5510 C   0  0  0  0  0  0  0  0  0  0  0  0
   18.3110  -55.5240   35.1840 C   0  0  0  0  0  3  0  0  0  0  0  0
   18.0080  -55.7650   33.8310 C   0  0  0  0  0  0  0  0  0  0  0  0
   18.5930  -55.0350   32.8350 C   0  0  0  0  0  0  0  0  0  0  0  0
   19.5050  -54.0380   33.2100 C   0  0  0  0  0  3  0  0  0  0  0  0
   19.7870  -53.8190   34.5390 C   0  0  0  0  0  3  0  0  0  0  0  0
   18.1330  -55.4570   31.5590 N   0  0  0  0  0  0  0  0  0  0  0  0
   17.2110  -56.5070   31.7700 C   0  0  0  0  0  0  0  0  0  0  0  0
   16.6230  -57.0970   30.8040 O   0  0  0  0  0  0  0  0  0  0  0  0
   17.0960  -56.7430   33.1990 C   0  0  2  0  0  0  0  0  0  0  0  0
   15.7400  -56.6250   33.6990 N   0  0  0  0  0  0  0  0  0  0  0  0
   15.1600  -57.9500   33.5800 C   0  0  1  0  0  3  0  0  0  0  0  0
   16.2940  -58.8280   34.0260 C   0  0  2  0  0  3  0  0  0  0  0  0
   17.5240  -58.1620   33.5100 C   0  0  1  0  0  3  0  0  0  0  0  0
   17.9170  -58.9200   32.3120 C   0  0  0  0  0  0  0  0  0  0  0  0
   18.7210  -58.5830   31.3820 O   0  0  0  0  0  0  0  0  0  0  0  0
   17.2460  -60.1740   32.3020 N   0  0  0  0  0  0  0  0  0  0  0  0
   16.2970  -60.1420   33.3490 C   0  0  0  0  0  0  0  0  0  0  0  0
   15.5300  -61.0910   33.6950 O   0  0  0  0  0  0  0  0  0  0  0  0
   18.4560  -55.0280   30.6540 H   0  0  0  0  0  0  0  0  0  0  0  0
   15.1920  -55.8970   33.2060 H   0  0  0  0  0  0  0  0  0  0  0  0
   13.9550  -58.0420   34.4630 C   0  0  1  0  0  3  0  0  0  0  0  0
   14.2910  -57.5600   35.8530 C   0  0  0  0  0  1  0  0  0  0  0  0
   12.9820  -57.1750   33.9490 O   0  0  0  0  0  0  0  0  0  0  0  0
   12.1230  -57.2830   34.4310 H   0  0  0  0  0  0  0  0  0  0  0  0
   17.4840  -61.2790   31.3950 C   0  0  0  0  0  2  0  0  0  0  0  0
   16.4880  -61.3290   30.2820 C   0  0  0  0  0  2  0  0  0  0  0  0
   17.2410  -60.9640   28.9970 C   0  0  0  0  0  2  0  0  0  0  0  0
   16.7050  -59.6820   28.4200 C   0  0  0  0  0  1  0  0  0  0  0  0
  2  1  1  0  0  0  0
  3  2  1  0  0  0  0
  4  3  2  0  0  0  0
  5  6  2  0  0  0  0
  5  4  1  0  0  0  0
  6  7  1  0  0  0  0
  7  2  2  0  0  0  0
  8  9  1  0  0  0  0
  8  5  1  0  0  0  0
 10  9  2  0  0  0  0
 11  9  1  6  0  0  0
 11 15  1  0  0  0  0
 11 12  1  0  0  0  0
 11  4  1  0  0  0  0
 13 12  1  0  0  0  0
 13 14  1  0  0  0  0
 13 23  1  1  0  0  0
 14 19  1  6  0  0  0
 15 16  1  6  0  0  0
 15 14  1  0  0  0  0
 17 16  2  0  0  0  0
 18 16  1  0  0  0  0
 18 19  1  0  0  0  0
 19 20  2  0  0  0  0
 21  8  1  0  0  0  0
 22 12  1  0  0  0  0
 23 24  1  1  0  0  0
 25 26  1  0  0  0  0
 25 23  1  0  0  0  0
 27 18  1  0  0  0  0
 28 27  1  0  0  0  0
 29 28  1  0  0  0  0
 30 29  1  0  0  0  0
M  END
>  <Pose>
1

>  <Score>
-7.324

$$$$
