/Users/jonathanwahrer/Desktop/Msc/3_Semester/Drug_Design_Praktikum/waehrer_HTS_screening/HTS_experiment/out/docking_results/vina_output/6s1j/0579_docked.pdbqt
 OpenBabel03222221273D

 32 35  0  0  1  0  0  0  0  0999 V2000
   14.6760  -55.1440   39.2350 Br  0  0  0  0  0  0  0  0  0  0  0  0
   15.5610  -56.2940   37.9970 C   0  0  0  0  0  0  0  0  0  0  0  0
   16.3040  -55.8220   36.9380 C   0  0  0  0  0  3  0  0  0  0  0  0
   16.9490  -56.6680   36.0370 C   0  0  0  0  0  0  0  0  0  0  0  0
   16.8450  -58.0270   36.2020 C   0  0  0  0  0  0  0  0  0  0  0  0
   16.1030  -58.5310   37.2580 C   0  0  0  0  0  3  0  0  0  0  0  0
   15.4660  -57.6590   38.1480 C   0  0  0  0  0  3  0  0  0  0  0  0
   17.5810  -58.7040   35.1790 N   0  0  0  0  0  0  0  0  0  0  0  0
   18.1720  -57.7280   34.3380 C   0  0  0  0  0  0  0  0  0  0  0  0
   18.8880  -58.0120   33.3580 O   0  0  0  0  0  0  0  0  0  0  0  0
   17.7900  -56.4140   34.8320 C   0  0  2  0  0  0  0  0  0  0  0  0
   19.0210  -55.7170   35.2020 N   0  0  0  0  0  0  0  0  0  0  0  0
   18.8250  -54.3520   34.8140 C   0  0  2  0  0  3  0  0  0  0  0  0
   18.0520  -54.4480   33.5500 C   0  0  2  0  0  3  0  0  0  0  0  0
   17.0580  -55.5450   33.8540 C   0  0  1  0  0  3  0  0  0  0  0  0
   16.7670  -56.1480   32.5600 C   0  0  0  0  0  0  0  0  0  0  0  0
   15.7850  -56.8740   32.2940 O   0  0  0  0  0  0  0  0  0  0  0  0
   17.7980  -55.7640   31.6590 N   0  0  0  0  0  0  0  0  0  0  0  0
   18.7940  -55.0160   32.3970 C   0  0  0  0  0  0  0  0  0  0  0  0
   19.9800  -54.9440   32.0370 O   0  0  0  0  0  0  0  0  0  0  0  0
   17.6520  -59.7560   35.0920 H   0  0  0  0  0  0  0  0  0  0  0  0
   19.8310  -56.0930   34.6540 H   0  0  0  0  0  0  0  0  0  0  0  0
   20.0850  -53.5610   34.7360 C   0  0  0  0  0  2  0  0  0  0  0  0
   19.9720  -52.3590   35.5700 C   0  0  0  0  0  0  0  0  0  0  0  0
   20.4720  -51.2700   35.1690 O   0  0  0  0  0  0  0  0  0  0  0  0
   19.3040  -52.4030   36.8290 N   0  0  0  0  0  0  0  0  0  0  0  0
   18.8210  -51.5580   37.1960 H   0  0  0  0  0  0  0  0  0  0  0  0
   19.3030  -53.2870   37.3780 H   0  0  0  0  0  0  0  0  0  0  0  0
   17.8100  -56.0800   30.2600 C   0  0  0  0  0  2  0  0  0  0  0  0
   18.2250  -57.4730   29.9230 C   0  0  0  0  0  2  0  0  0  0  0  0
   17.1580  -58.3420   29.7660 O   0  0  0  0  0  0  0  0  0  0  0  0
   17.3320  -59.5100   30.5040 C   0  0  0  0  0  1  0  0  0  0  0  0
  2  7  1  0  0  0  0
  2  1  1  0  0  0  0
  3  2  2  0  0  0  0
  4  5  2  0  0  0  0
  4  3  1  0  0  0  0
  5  6  1  0  0  0  0
  6  7  2  0  0  0  0
  8  5  1  0  0  0  0
  9  8  1  0  0  0  0
 10  9  2  0  0  0  0
 11  9  1  6  0  0  0
 11 12  1  0  0  0  0
 11  4  1  0  0  0  0
 13 23  1  6  0  0  0
 13 12  1  0  0  0  0
 14 19  1  6  0  0  0
 14 15  1  0  0  0  0
 14 13  1  0  0  0  0
 15 16  1  6  0  0  0
 15 11  1  0  0  0  0
 17 16  2  0  0  0  0
 18 19  1  0  0  0  0
 18 16  1  0  0  0  0
 20 19  2  0  0  0  0
 21  8  1  0  0  0  0
 22 12  1  0  0  0  0
 23 24  1  0  0  0  0
 24 26  1  0  0  0  0
 25 24  2  0  0  0  0
 26 27  1  0  0  0  0
 26 28  1  0  0  0  0
 29 18  1  0  0  0  0
 30 29  1  0  0  0  0
 31 30  1  0  0  0  0
 31 32  1  0  0  0  0
M  END
>  <Pose>
1

>  <Score>
-8.754

$$$$
