/Users/jonathanwahrer/Desktop/Msc/3_Semester/Drug_Design_Praktikum/waehrer_HTS_screening/HTS_experiment/out/docking_results/vina_output/6s1j/0591_docked.pdbqt
 OpenBabel03222221273D

 23 26  0  0  0  0  0  0  0  0999 V2000
   19.2760  -55.7990   29.5110 Br  0  0  0  0  0  0  0  0  0  0  0  0
   18.6990  -55.8830   31.3410 C   0  0  0  0  0  0  0  0  0  0  0  0
   19.3460  -55.1470   32.3110 C   0  0  0  0  0  3  0  0  0  0  0  0
   18.9270  -55.2100   33.6240 C   0  0  0  0  0  0  0  0  0  0  0  0
   17.8640  -55.9930   34.0330 C   0  0  0  0  0  0  0  0  0  0  0  0
   17.2230  -56.7290   33.0400 C   0  0  0  0  0  3  0  0  0  0  0  0
   17.6350  -56.6710   31.7260 C   0  0  0  0  0  3  0  0  0  0  0  0
   17.3140  -56.1700   35.3180 N   0  0  0  0  0  0  0  0  0  0  0  0
   16.4680  -57.1400   35.6220 N   0  0  0  0  0  0  0  0  0  0  0  0
   16.1520  -57.0130   36.9010 N   0  0  0  0  0  0  0  0  0  0  0  0
   16.7920  -55.9780   37.3900 N   0  0  0  0  0  0  0  0  0  0  0  0
   17.5430  -55.4140   36.4120 C   0  0  0  0  0  0  0  0  0  0  0  0
   18.3630  -54.2330   36.6870 C   0  0  0  0  0  0  0  0  0  0  0  0
   19.5300  -54.0660   35.8930 N   0  0  0  0  0  0  0  0  0  0  0  0
   19.7230  -54.3700   34.5210 C   0  0  0  0  0  0  0  0  0  0  0  0
   20.7150  -53.8680   33.9260 O   0  0  0  0  0  0  0  0  0  0  0  0
   17.5500  -52.9370   36.5400 C   0  0  0  0  0  2  0  0  0  0  0  0
   18.0600  -51.9310   37.5410 C   0  0  0  0  0  2  0  0  0  0  0  0
   17.5210  -52.2920   38.8330 N   0  0  0  0  0  0  0  0  0  0  0  0
   17.7330  -53.6980   39.0530 C   0  0  0  0  0  2  0  0  0  0  0  0
   18.7880  -54.2890   38.1510 C   0  0  0  0  0  2  0  0  0  0  0  0
   16.0990  -51.9530   38.8290 C   0  0  0  0  0  1  0  0  0  0  0  0
   20.3530  -53.6650   36.3880 H   0  0  0  0  0  0  0  0  0  0  0  0
  1  2  1  0  0  0  0
  2  7  2  0  0  0  0
  2  3  1  0  0  0  0
  3  4  2  0  0  0  0
  4  5  1  0  0  0  0
  4 15  1  0  0  0  0
  5  8  1  0  0  0  0
  6  5  2  0  0  0  0
  7  6  1  0  0  0  0
  8  9  1  0  0  0  0
  8 12  1  0  0  0  0
  9 10  2  0  0  0  0
 10 11  1  0  0  0  0
 12 13  1  0  0  0  0
 12 11  2  0  0  0  0
 13 21  1  0  0  0  0
 14 23  1  0  0  0  0
 14 13  1  0  0  0  0
 15 14  1  0  0  0  0
 16 15  2  0  0  0  0
 17 13  1  0  0  0  0
 17 18  1  0  0  0  0
 18 19  1  0  0  0  0
 19 20  1  0  0  0  0
 21 20  1  0  0  0  0
 22 19  1  0  0  0  0
M  END
>  <Pose>
1

>  <Score>
-8.767

$$$$
