/Users/jonathanwahrer/Desktop/Msc/3_Semester/Drug_Design_Praktikum/waehrer_HTS_screening/HTS_experiment/out/docking_results/vina_output/6s1j/0592_docked.pdbqt
 OpenBabel03222221273D

 27 30  0  0  1  0  0  0  0  0999 V2000
   16.0710  -63.0930   32.9500 Br  0  0  0  0  0  0  0  0  0  0  0  0
   16.4360  -61.3250   32.3630 C   0  0  0  0  0  0  0  0  0  0  0  0
   16.5100  -60.3220   33.2890 C   0  0  0  0  0  3  0  0  0  0  0  0
   16.7780  -59.0190   32.8560 C   0  0  0  0  0  0  0  0  0  0  0  0
   16.9580  -58.7930   31.5310 C   0  0  0  0  0  0  0  0  0  0  0  0
   16.8810  -59.8310   30.5790 C   0  0  0  0  0  3  0  0  0  0  0  0
   16.6160  -61.1080   31.0080 C   0  0  0  0  0  3  0  0  0  0  0  0
   17.2260  -57.5240   31.0520 O   0  0  0  0  0  0  0  0  0  0  0  0
   17.3080  -56.4830   31.9520 C   0  0  0  0  0  0  0  0  0  0  0  0
   17.1470  -56.6250   33.2460 C   0  0  0  0  0  0  0  0  0  0  0  0
   16.8620  -57.9230   33.8430 C   0  0  1  0  0  0  0  0  0  0  0  0
   15.6730  -57.9000   34.7290 C   0  0  0  0  0  0  0  0  0  0  0  0
   16.0740  -58.1890   36.0030 C   0  0  0  0  0  0  0  0  0  0  0  0
   14.9770  -58.1660   36.8160 N   0  0  0  0  0  0  0  0  0  0  0  0
   13.9460  -57.8710   36.0450 N   0  0  0  0  0  0  0  0  0  0  0  0
   14.3210  -57.7010   34.7710 C   0  0  0  0  0  0  0  0  0  0  0  0
   13.3860  -57.3600   33.6560 C   0  0  0  0  0  1  0  0  0  0  0  0
   17.4670  -58.4100   36.0610 N   0  0  0  0  0  0  0  0  0  0  0  0
   17.9730  -58.2560   34.7600 C   0  0  0  0  0  0  0  0  0  0  0  0
   19.1730  -58.3730   34.3920 O   0  0  0  0  0  0  0  0  0  0  0  0
   17.2490  -55.4850   34.1260 C   0  0  0  0  0  0  0  0  0  0  0  0
   17.3480  -54.5780   34.8390 N   0  0  0  0  0  0  0  0  0  0  0  0
   12.9700  -57.7920   36.4370 H   0  0  0  0  0  0  0  0  0  0  0  0
   18.0170  -58.6530   36.9510 H   0  0  0  0  0  0  0  0  0  0  0  0
   17.5870  -55.1700   31.4390 N   0  0  0  0  0  0  0  0  0  0  0  0
   18.5760  -54.8820   31.2750 H   0  0  0  0  0  0  0  0  0  0  0  0
   16.8310  -54.4830   31.2210 H   0  0  0  0  0  0  0  0  0  0  0  0
  2  1  1  0  0  0  0
  2  3  1  0  0  0  0
  4  3  2  0  0  0  0
  5  4  1  0  0  0  0
  6  7  1  0  0  0  0
  6  5  2  0  0  0  0
  7  2  2  0  0  0  0
  8  5  1  0  0  0  0
  8  9  1  0  0  0  0
  9 10  2  0  0  0  0
 10 11  1  0  0  0  0
 10 21  1  0  0  0  0
 11  4  1  6  0  0  0
 11 12  1  0  0  0  0
 11 19  1  0  0  0  0
 12 16  2  0  0  0  0
 12 13  1  0  0  0  0
 13 18  1  0  0  0  0
 13 14  2  0  0  0  0
 15 23  1  0  0  0  0
 15 14  1  0  0  0  0
 16 15  1  0  0  0  0
 17 16  1  0  0  0  0
 18 24  1  0  0  0  0
 19 18  1  0  0  0  0
 20 19  2  0  0  0  0
 21 22  3  0  0  0  0
 25  9  1  0  0  0  0
 26 25  1  0  0  0  0
 27 25  1  0  0  0  0
M  END
>  <Pose>
1

>  <Score>
-6.753

$$$$
