/Users/jonathanwahrer/Desktop/Msc/3_Semester/Drug_Design_Praktikum/waehrer_HTS_screening/HTS_experiment/out/docking_results/vina_output/6s1j/0611_docked.pdbqt
 OpenBabel03222221283D

 33 36  0  0  0  0  0  0  0  0999 V2000
   16.9830  -52.9270   38.8280 Br  0  0  0  0  0  0  0  0  0  0  0  0
   17.7130  -53.5170   37.1630 C   0  0  0  0  0  0  0  0  0  0  0  0
   17.3140  -54.6990   36.5640 C   0  0  0  0  0  3  0  0  0  0  0  0
   17.8210  -55.1520   35.3650 C   0  0  0  0  0  0  0  0  0  0  0  0
   18.7800  -54.4070   34.7030 C   0  0  0  0  0  0  0  0  0  0  0  0
   19.2980  -54.8390   33.5260 N   0  0  0  0  0  0  0  0  0  0  0  0
   18.9150  -55.9900   32.9490 C   0  0  0  0  0  0  0  0  0  0  0  0
   17.9810  -56.7150   33.5920 N   0  0  0  0  0  0  0  0  0  0  0  0
   17.4330  -56.3290   34.7680 C   0  0  0  0  0  0  0  0  0  0  0  0
   19.1830  -53.2290   35.2910 C   0  0  0  0  0  3  0  0  0  0  0  0
   18.6690  -52.7780   36.5000 C   0  0  0  0  0  3  0  0  0  0  0  0
   19.4800  -56.4110   31.7120 N   0  0  0  0  0  4  0  0  0  0  0  0
   18.7130  -55.9090   30.5940 C   0  0  0  0  0  2  0  0  0  0  0  0
   19.5630  -55.9790   29.3650 C   0  0  0  0  0  2  0  0  0  0  0  0
   20.6940  -56.8430   29.6340 N   0  0  0  0  0  0  0  0  0  0  0  0
   20.4280  -58.0920   30.3250 C   0  0  0  0  0  2  0  0  0  0  0  0
   21.9750  -56.4390   29.2190 C   0  0  0  0  0  0  0  0  0  0  0  0
   19.5730  -57.8410   31.5730 C   0  0  0  0  0  2  0  0  0  0  0  0
   22.9400  -57.2030   29.4670 O   0  0  0  0  0  0  0  0  0  0  0  0
   20.4460  -56.0240   31.6700 H   0  0  0  0  0  0  0  0  0  0  0  0
   22.2130  -55.1750   28.5210 C   0  0  0  0  0  2  0  0  0  0  0  0
   23.6260  -55.1290   28.0150 C   0  0  0  0  0  2  0  0  0  0  0  0
   24.0670  -53.7310   27.6410 C   0  0  0  0  0  2  0  0  0  0  0  0
   25.2300  -53.2620   28.4200 C   0  0  0  0  0  0  0  0  0  0  0  0
   25.8620  -54.1170   29.0840 O   0  0  0  0  0  1  0  0  0  0  0  0
   25.5870  -51.9220   28.3990 O   0  0  0  0  0  0  0  0  0  0  0  0
   16.4280  -57.1530   35.4220 C   0  0  0  0  0  0  0  0  0  0  0  0
   15.2050  -57.4240   34.8280 C   0  0  0  0  0  0  0  0  0  0  0  0
   14.2330  -58.1900   35.4480 C   0  0  0  0  0  3  0  0  0  0  0  0
   14.8650  -56.7760   33.2320 Cl  0  0  0  0  0  0  0  0  0  0  0  0
   14.5250  -58.6970   36.7200 C   0  0  0  0  0  3  0  0  0  0  0  0
   15.7310  -58.4450   37.3380 C   0  0  0  0  0  3  0  0  0  0  0  0
   16.6550  -57.6870   36.6920 C   0  0  0  0  0  3  0  0  0  0  0  0
  2  1  1  0  0  0  0
  3  2  1  0  0  0  0
  4  3  2  0  0  0  0
  5 10  2  0  0  0  0
  5  4  1  0  0  0  0
  6  5  1  0  0  0  0
  7  6  2  0  0  0  0
  7  8  1  0  0  0  0
  8  9  2  0  0  0  0
  9  4  1  0  0  0  0
  9 27  1  0  0  0  0
 10 11  1  0  0  0  0
 11  2  2  0  0  0  0
 12  7  1  0  0  0  0
 13 12  1  0  0  0  0
 14 15  1  0  0  0  0
 14 13  1  0  0  0  0
 15 16  1  0  0  0  0
 16 18  1  0  0  0  0
 17 19  2  0  0  0  0
 17 15  1  0  0  0  0
 18 12  1  0  0  0  0
 20 12  1  0  0  0  0
 21 17  1  0  0  0  0
 22 21  1  0  0  0  0
 23 22  1  0  0  0  0
 23 24  1  0  0  0  0
 24 25  1  0  0  0  0
 26 24  2  0  0  0  0
 27 33  1  0  0  0  0
 28 27  2  0  0  0  0
 28 29  1  0  0  0  0
 29 31  2  0  0  0  0
 30 28  1  0  0  0  0
 31 32  1  0  0  0  0
 33 32  2  0  0  0  0
M  END
>  <Pose>
1

>  <Score>
-9.515

$$$$
