/Users/jonathanwahrer/Desktop/Msc/3_Semester/Drug_Design_Praktikum/waehrer_HTS_screening/HTS_experiment/out/docking_results/vina_output/6s1j/0616_docked.pdbqt
 OpenBabel03222221283D

 28 31  0  0  0  0  0  0  0  0999 V2000
   15.9720  -56.9250   36.9200 C   0  0  0  0  0  0  0  0  0  0  0  0
   15.8250  -57.6260   37.9930 O   0  0  0  0  0  0  0  0  0  0  0  0
   15.5450  -57.5310   35.7380 N   0  0  0  0  0  0  0  0  0  0  0  0
   15.6150  -56.9690   34.4160 C   0  0  0  0  0  2  0  0  0  0  0  0
   15.1080  -57.9440   33.3460 C   0  0  0  0  0  2  0  0  0  0  0  0
   15.7320  -59.2400   33.5670 N   0  0  0  0  0  0  0  0  0  0  0  0
   15.8360  -59.7740   34.9260 C   0  0  0  0  0  2  0  0  0  0  0  0
   14.9400  -58.8880   35.7960 C   0  0  0  0  0  2  0  0  0  0  0  0
   16.2470  -59.9970   32.4920 C   0  0  0  0  0  0  0  0  0  0  0  0
   16.1460  -59.5030   31.3440 O   0  0  0  0  0  0  0  0  0  0  0  0
   16.5540  -55.6020   37.0360 C   0  0  0  0  0  0  0  0  0  0  0  0
   16.2290  -54.5430   37.7820 N   0  0  0  0  0  0  0  0  0  0  0  0
   17.0730  -53.4920   37.5430 C   0  0  0  0  0  0  0  0  0  0  0  0
   15.4640  -54.4610   38.4680 H   0  0  0  0  0  0  0  0  0  0  0  0
   17.9870  -53.8790   36.6020 C   0  0  0  0  0  0  0  0  0  0  0  0
   17.1410  -52.2110   38.0580 C   0  0  0  0  0  3  0  0  0  0  0  0
   18.9690  -52.9800   36.1780 C   0  0  0  0  0  3  0  0  0  0  0  0
   17.6770  -55.1710   36.2860 C   0  0  0  0  0  3  0  0  0  0  0  0
   19.0430  -51.7070   36.6820 C   0  0  0  0  0  0  0  0  0  0  0  0
   20.3860  -50.4650   36.1060 Br  0  0  0  0  0  0  0  0  0  0  0  0
   18.1190  -51.3250   37.6300 C   0  0  0  0  0  3  0  0  0  0  0  0
   16.8630  -61.2880   32.7580 C   0  0  0  0  0  2  0  0  0  0  0  0
   16.2420  -62.4100   32.0900 N   0  0  0  0  0  0  0  0  0  0  0  0
   14.8480  -62.5120   32.5280 C   0  0  0  0  0  2  0  0  0  0  0  0
   14.7010  -63.5100   33.6230 C   0  0  0  0  0  2  0  0  0  0  0  0
   15.8160  -63.4940   34.4580 O   0  0  0  0  0  0  0  0  0  0  0  0
   16.9410  -64.0100   33.8100 C   0  0  0  0  0  2  0  0  0  0  0  0
   16.9290  -63.6660   32.3380 C   0  0  0  0  0  2  0  0  0  0  0  0
  1 11  1  0  0  0  0
  1  2  2  0  0  0  0
  3  8  1  0  0  0  0
  3  1  1  0  0  0  0
  4  3  1  0  0  0  0
  5  6  1  0  0  0  0
  5  4  1  0  0  0  0
  6  7  1  0  0  0  0
  7  8  1  0  0  0  0
  9 22  1  0  0  0  0
  9  6  1  0  0  0  0
 10  9  2  0  0  0  0
 11 12  1  0  0  0  0
 12 14  1  0  0  0  0
 13 12  1  0  0  0  0
 13 16  1  0  0  0  0
 15 13  2  0  0  0  0
 17 15  1  0  0  0  0
 17 19  2  0  0  0  0
 18 15  1  0  0  0  0
 18 11  2  0  0  0  0
 19 21  1  0  0  0  0
 20 19  1  0  0  0  0
 21 16  2  0  0  0  0
 23 28  1  0  0  0  0
 23 24  1  0  0  0  0
 23 22  1  0  0  0  0
 24 25  1  0  0  0  0
 25 26  1  0  0  0  0
 27 26  1  0  0  0  0
 28 27  1  0  0  0  0
M  END
>  <Pose>
1

>  <Score>
-8.311

$$$$
