/Users/jonathanwahrer/Desktop/Msc/3_Semester/Drug_Design_Praktikum/waehrer_HTS_screening/HTS_experiment/out/docking_results/vina_output/6s1j/0617_docked.pdbqt
 OpenBabel03222221283D

 25 28  0  0  0  0  0  0  0  0999 V2000
   20.1900  -51.4600   35.8210 Br  0  0  0  0  0  0  0  0  0  0  0  0
   18.7390  -52.2130   36.7950 C   0  0  0  0  0  0  0  0  0  0  0  0
   18.3350  -53.5150   36.5880 C   0  0  0  0  0  3  0  0  0  0  0  0
   17.2840  -54.0760   37.2860 C   0  0  0  0  0  0  0  0  0  0  0  0
   16.6290  -53.2920   38.2170 C   0  0  0  0  0  0  0  0  0  0  0  0
   15.6680  -54.0770   38.7360 N   0  0  0  0  0  0  0  0  0  0  0  0
   15.6920  -55.3120   38.1750 C   0  0  0  0  0  0  0  0  0  0  0  0
   16.7150  -55.3310   37.2510 C   0  0  0  0  0  0  0  0  0  0  0  0
   16.9330  -56.4660   36.5590 N   0  0  0  0  0  0  0  0  0  0  0  0
   16.1870  -57.5720   36.7460 C   0  0  0  0  0  3  0  0  0  0  0  0
   15.1880  -57.5830   37.6380 N   0  0  0  0  0  0  0  0  0  0  0  0
   14.9530  -56.4620   38.3370 C   0  0  0  0  0  0  0  0  0  0  0  0
   14.0200  -56.4540   39.1780 O   0  0  0  0  0  0  0  0  0  0  0  0
   17.0440  -51.9880   38.4130 C   0  0  0  0  0  3  0  0  0  0  0  0
   18.0930  -51.4180   37.7190 C   0  0  0  0  0  3  0  0  0  0  0  0
   14.9870  -53.8010   39.4670 H   0  0  0  0  0  0  0  0  0  0  0  0
   14.3670  -58.7880   37.8460 C   0  0  0  0  0  2  0  0  0  0  0  0
   12.9620  -58.5310   37.4560 C   0  0  0  0  0  2  0  0  0  0  0  0
   12.4780  -59.2180   36.3150 N   0  0  0  0  0  0  0  0  0  0  0  0
   11.3640  -60.0720   36.5420 C   0  0  0  0  0  2  0  0  0  0  0  0
   11.7430  -61.5100   36.7530 C   0  0  0  0  0  2  0  0  0  0  0  0
   12.8540  -61.9200   35.9200 N   0  0  0  0  0  0  0  0  0  0  0  0
   13.0590  -60.9910   34.8220 C   0  0  0  0  0  2  0  0  0  0  0  0
   13.7340  -62.0500   36.4680 H   0  0  0  0  0  0  0  0  0  0  0  0
   13.4950  -59.6860   35.4420 C   0  0  0  0  0  2  0  0  0  0  0  0
  1  2  1  0  0  0  0
  2 15  1  0  0  0  0
  3  2  2  0  0  0  0
  3  4  1  0  0  0  0
  4  5  2  0  0  0  0
  5 14  1  0  0  0  0
  5  6  1  0  0  0  0
  6 16  1  0  0  0  0
  7 12  1  0  0  0  0
  7  6  1  0  0  0  0
  8  4  1  0  0  0  0
  8  7  2  0  0  0  0
  9 10  2  0  0  0  0
  9  8  1  0  0  0  0
 10 11  1  0  0  0  0
 11 17  1  0  0  0  0
 11 12  1  0  0  0  0
 12 13  2  0  0  0  0
 15 14  2  0  0  0  0
 18 17  1  0  0  0  0
 19 20  1  0  0  0  0
 19 18  1  0  0  0  0
 20 21  1  0  0  0  0
 22 24  1  0  0  0  0
 22 21  1  0  0  0  0
 23 25  1  0  0  0  0
 23 22  1  0  0  0  0
 25 19  1  0  0  0  0
M  END
>  <Pose>
1

>  <Score>
-8.843

$$$$
