/Users/jonathanwahrer/Desktop/Msc/3_Semester/Drug_Design_Praktikum/waehrer_HTS_screening/HTS_experiment/out/docking_results/vina_output/6s1j/0624_docked.pdbqt
 OpenBabel03222221283D

 22 25  0  0  0  0  0  0  0  0999 V2000
   20.3330  -50.6400   36.1530 Br  0  0  0  0  0  0  0  0  0  0  0  0
   19.0180  -51.8940   36.7220 C   0  0  0  0  0  0  0  0  0  0  0  0
   18.1470  -51.5350   37.7290 C   0  0  0  0  0  3  0  0  0  0  0  0
   17.1690  -52.4350   38.1700 C   0  0  0  0  0  0  0  0  0  0  0  0
   17.1070  -53.6560   37.5790 C   0  0  0  0  0  0  0  0  0  0  0  0
   17.9540  -54.0590   36.5700 C   0  0  0  0  0  0  0  0  0  0  0  0
   18.9030  -53.1610   36.1560 C   0  0  0  0  0  3  0  0  0  0  0  0
   17.7800  -55.3190   36.0640 C   0  0  0  0  0  0  0  0  0  0  0  0
   18.5370  -55.6950   35.1530 O   0  0  0  0  0  0  0  0  0  0  0  0
   16.7990  -56.1830   36.5260 C   0  0  0  0  0  0  0  0  0  0  0  0
   15.9850  -55.7190   37.5360 C   0  0  0  0  0  3  0  0  0  0  0  0
   16.1510  -54.4580   38.0510 N   0  0  0  0  0  0  0  0  0  0  0  0
   15.4550  -53.7330   39.0900 C   0  0  0  0  0  3  0  0  0  0  0  0
   16.1100  -52.3830   39.1930 C   0  0  0  0  0  3  0  0  0  0  0  0
   16.6260  -57.5230   35.9740 C   0  0  0  0  0  0  0  0  0  0  0  0
   16.9360  -58.5150   36.6730 O   0  0  0  0  0  0  0  0  0  0  0  0
   16.1100  -57.7110   34.6490 N   0  0  0  0  0  0  0  0  0  0  0  0
   15.9300  -59.0280   34.0790 C   0  0  0  0  0  2  0  0  0  0  0  0
   15.7450  -56.5780   33.8220 C   0  0  0  0  0  2  0  0  0  0  0  0
   16.6820  -59.0180   32.7420 C   0  0  0  0  0  2  0  0  0  0  0  0
   16.2560  -57.9520   31.9880 O   0  0  0  0  0  0  0  0  0  0  0  0
   16.5550  -56.7200   32.5300 C   0  0  0  0  0  2  0  0  0  0  0  0
  1  2  1  0  0  0  0
  2  3  1  0  0  0  0
  3  4  2  0  0  0  0
  4 14  1  0  0  0  0
  5 12  1  0  0  0  0
  5  4  1  0  0  0  0
  6  5  2  0  0  0  0
  7  6  1  0  0  0  0
  7  2  2  0  0  0  0
  8 10  1  0  0  0  0
  8  6  1  0  0  0  0
  9  8  2  0  0  0  0
 10 11  2  0  0  0  0
 11 12  1  0  0  0  0
 12 13  1  0  0  0  0
 13 14  2  0  0  0  0
 15 10  1  0  0  0  0
 15 16  2  0  0  0  0
 17 15  1  0  0  0  0
 18 17  1  0  0  0  0
 19 17  1  0  0  0  0
 20 18  1  0  0  0  0
 21 22  1  0  0  0  0
 21 20  1  0  0  0  0
 22 19  1  0  0  0  0
M  END
>  <Pose>
1

>  <Score>
-9.987

$$$$
