/Users/jonathanwahrer/Desktop/Msc/3_Semester/Drug_Design_Praktikum/waehrer_HTS_screening/HTS_experiment/out/docking_results/vina_output/6s1j/0626_docked.pdbqt
 OpenBabel03222221293D

 32 35  0  0  0  0  0  0  0  0999 V2000
   16.4510  -56.9470   32.8530 N   0  0  0  0  0  0  0  0  0  0  0  0
   16.1760  -58.2210   33.3670 C   0  0  0  0  0  0  0  0  0  0  0  0
   16.9380  -59.1860   33.1070 O   0  0  0  0  0  0  0  0  0  0  0  0
   15.7600  -56.1900   33.1440 H   0  0  0  0  0  0  0  0  0  0  0  0
   15.0230  -58.5280   34.2210 C   0  0  0  0  0  2  0  0  0  0  0  0
   15.0310  -58.0530   35.5470 N   0  0  0  0  0  0  0  0  0  0  0  0
   13.8210  -58.1000   36.2850 C   0  0  0  0  0  2  0  0  0  0  0  0
   13.8430  -57.1580   37.4890 C   0  0  0  0  0  2  0  0  0  0  0  0
   14.9770  -57.4580   38.2530 N   0  0  0  0  0  0  0  0  0  0  0  0
   15.9100  -58.3880   37.7490 C   0  0  0  0  0  2  0  0  0  0  0  0
   16.2220  -58.3000   36.2860 C   0  0  0  0  0  2  0  0  0  0  0  0
   15.3650  -56.5120   39.1990 C   0  0  0  0  0  2  0  0  0  0  0  0
   15.5830  -55.1320   38.7640 C   0  0  0  0  0  0  0  0  0  0  0  0
   14.7440  -54.2700   39.2370 O   0  0  0  0  0  0  0  0  0  0  0  0
   16.5710  -54.6440   37.9170 N   0  0  0  0  0  0  0  0  0  0  0  0
   17.2820  -55.2860   37.5120 H   0  0  0  0  0  0  0  0  0  0  0  0
   16.6910  -53.2350   37.5530 C   0  0  0  0  0  3  0  0  0  0  0  0
   17.2520  -52.2550   38.4960 C   0  0  0  0  0  2  0  0  0  0  0  0
   18.0810  -52.6910   37.3020 C   0  0  0  0  0  2  0  0  0  0  0  0
   17.5320  -56.5670   32.0270 C   0  0  0  0  0  0  0  0  0  0  0  0
   18.5160  -55.7390   32.5450 C   0  0  0  0  0  0  0  0  0  0  0  0
   18.3120  -55.1470   34.3580 Br  0  0  0  0  0  0  0  0  0  0  0  0
   19.6140  -55.3210   31.8280 C   0  0  0  0  0  3  0  0  0  0  0  0
   19.7880  -55.7170   30.5250 C   0  0  0  0  0  0  0  0  0  0  0  0
   20.7090  -55.5080   29.5660 N   0  0  0  0  0  0  0  0  0  0  0  0
   18.8290  -56.5330   29.9950 C   0  0  0  0  0  0  0  0  0  0  0  0
   20.3710  -56.1620   28.4390 C   0  0  0  0  0  0  0  0  0  0  0  0
   19.2140  -56.7840   28.7270 N   0  0  0  0  0  0  0  0  0  0  0  0
   18.6680  -57.3930   28.0560 H   0  0  0  0  0  0  0  0  0  0  0  0
   17.7090  -56.9620   30.7210 C   0  0  0  0  0  3  0  0  0  0  0  0
   21.0890  -56.1810   27.2270 O   0  0  0  0  0  0  0  0  0  0  0  0
   20.6670  -55.6380   26.4620 H   0  0  0  0  0  0  0  0  0  0  0  0
  1  4  1  0  0  0  0
  1  2  1  0  0  0  0
  2  5  1  0  0  0  0
  3  2  2  0  0  0  0
  5  6  1  0  0  0  0
  6  7  1  0  0  0  0
  6 11  1  0  0  0  0
  7  8  1  0  0  0  0
  8  9  1  0  0  0  0
  9 12  1  0  0  0  0
 10  9  1  0  0  0  0
 11 10  1  0  0  0  0
 13 12  1  0  0  0  0
 13 14  2  0  0  0  0
 15 13  1  0  0  0  0
 16 15  1  0  0  0  0
 17 15  1  0  0  0  0
 17 18  1  0  0  0  0
 19 17  1  0  0  0  0
 19 18  1  0  0  0  0
 20 21  1  0  0  0  0
 20  1  1  0  0  0  0
 21 22  1  0  0  0  0
 23 21  2  0  0  0  0
 24 23  1  0  0  0  0
 25 24  1  0  0  0  0
 26 24  2  0  0  0  0
 26 30  1  0  0  0  0
 27 28  1  0  0  0  0
 27 25  2  0  0  0  0
 28 26  1  0  0  0  0
 29 28  1  0  0  0  0
 30 20  2  0  0  0  0
 31 27  1  0  0  0  0
 32 31  1  0  0  0  0
M  END
>  <Pose>
1

>  <Score>
-8.052

$$$$
