/Users/jonathanwahrer/Desktop/Msc/3_Semester/Drug_Design_Praktikum/waehrer_HTS_screening/HTS_experiment/out/docking_results/vina_output/6s1j/0648_docked.pdbqt
 OpenBabel03222221293D

 32 35  0  0  0  0  0  0  0  0999 V2000
   15.6040  -58.3290   36.7780 C   0  0  0  0  0  0  0  0  0  0  0  0
   16.5920  -59.0540   37.1590 O   0  0  0  0  0  0  0  0  0  0  0  0
   15.0010  -58.6510   35.5910 N   0  0  0  0  0  0  0  0  0  0  0  0
   13.9030  -57.9580   34.9930 C   0  0  0  0  0  2  0  0  0  0  0  0
   14.3980  -57.2110   33.7990 C   0  0  0  0  0  2  0  0  0  0  0  0
   15.5730  -57.8470   33.2200 N   0  0  0  0  0  0  0  0  0  0  0  0
   15.9020  -59.2190   33.4230 C   0  0  0  0  0  2  0  0  0  0  0  0
   15.4660  -59.7880   34.7690 C   0  0  0  0  0  2  0  0  0  0  0  0
   16.4050  -56.9450   32.4740 C   0  0  0  0  0  0  0  0  0  0  0  0
   16.0620  -55.6890   32.4860 O   0  0  0  0  0  0  0  0  0  0  0  0
   17.5600  -57.3220   31.7370 C   0  0  0  0  0  0  0  0  0  0  0  0
   18.7900  -57.5730   32.3310 N   0  0  0  0  0  0  0  0  0  0  0  0
   19.6710  -57.8340   31.4210 N   0  0  0  0  0  0  0  0  0  0  0  0
   19.0560  -57.5520   33.7500 C   0  0  0  0  0  1  0  0  0  0  0  0
   19.1380  -57.7830   30.2030 C   0  0  0  0  0  0  0  0  0  0  0  0
   17.7840  -57.4540   30.4110 C   0  0  0  0  0  3  0  0  0  0  0  0
   19.7550  -58.0280   28.9120 C   0  0  0  0  0  0  0  0  0  0  0  0
   19.6940  -59.2310   28.4710 O   0  0  0  0  0  0  0  0  0  0  0  0
   20.3950  -57.0780   28.1310 N   0  0  0  0  0  0  0  0  0  0  0  0
   20.9410  -57.5030   26.8380 C   0  0  0  0  0  2  0  0  0  0  0  0
   20.5850  -55.7100   28.5010 C   0  0  0  0  0  2  0  0  0  0  0  0
   22.3920  -57.0690   26.8410 C   0  0  0  0  0  2  0  0  0  0  0  0
   22.3590  -55.6620   26.8390 O   0  0  0  0  0  0  0  0  0  0  0  0
   21.9520  -55.2030   28.0600 C   0  0  0  0  0  2  0  0  0  0  0  0
   15.2470  -57.2480   37.6610 C   0  0  0  0  0  0  0  0  0  0  0  0
   14.1710  -57.1930   38.5520 C   0  0  0  0  0  0  0  0  0  0  0  0
   12.8910  -58.6100   38.7890 Br  0  0  0  0  0  0  0  0  0  0  0  0
   14.1960  -55.9880   39.2000 C   0  0  0  0  0  3  0  0  0  0  0  0
   15.2500  -55.3120   38.7320 N   0  0  0  0  0  0  0  0  0  0  0  0
   15.8630  -56.0420   37.8380 N   0  0  0  0  0  0  0  0  0  0  0  0
   15.5760  -53.9720   39.2050 C   0  0  0  0  0  2  0  0  0  0  0  0
   16.5400  -53.2500   38.3020 C   0  0  0  0  0  1  0  0  0  0  0  0
  1  2  2  0  0  0  0
  1 25  1  0  0  0  0
  3  1  1  0  0  0  0
  4  3  1  0  0  0  0
  5  4  1  0  0  0  0
  6  7  1  0  0  0  0
  6  5  1  0  0  0  0
  7  8  1  0  0  0  0
  8  3  1  0  0  0  0
  9 10  2  0  0  0  0
  9  6  1  0  0  0  0
 11 12  1  0  0  0  0
 11  9  1  0  0  0  0
 12 14  1  0  0  0  0
 13 12  1  0  0  0  0
 15 16  1  0  0  0  0
 15 13  2  0  0  0  0
 16 11  2  0  0  0  0
 17 15  1  0  0  0  0
 18 17  2  0  0  0  0
 19 21  1  0  0  0  0
 19 17  1  0  0  0  0
 20 22  1  0  0  0  0
 20 19  1  0  0  0  0
 23 22  1  0  0  0  0
 23 24  1  0  0  0  0
 24 21  1  0  0  0  0
 25 30  2  0  0  0  0
 25 26  1  0  0  0  0
 26 27  1  0  0  0  0
 26 28  2  0  0  0  0
 29 28  1  0  0  0  0
 29 31  1  0  0  0  0
 30 29  1  0  0  0  0
 32 31  1  0  0  0  0
M  END
>  <Pose>
1

>  <Score>
-8.124

$$$$
