/Users/jonathanwahrer/Desktop/Msc/3_Semester/Drug_Design_Praktikum/waehrer_HTS_screening/HTS_experiment/out/docking_results/vina_output/6s1j/0670_docked.pdbqt
 OpenBabel03222221303D

 23 27  0  0  1  0  0  0  0  0999 V2000
   18.6360  -54.8750   33.8570 C   0  0  0  0  0  2  0  0  0  0  0  0
   17.4420  -55.7210   34.1690 C   0  0  1  0  0  3  0  0  0  0  0  0
   16.6490  -56.2110   32.9740 C   0  0  2  0  0  3  0  0  0  0  0  0
   16.3920  -57.3800   33.7640 N   0  0  0  0  0  0  0  0  0  0  0  0
   17.7210  -57.2160   34.2810 C   0  0  2  0  0  3  0  0  0  0  0  0
   15.3240  -58.2670   33.9380 C   0  0  0  0  0  0  0  0  0  0  0  0
   15.1870  -59.4250   33.2570 N   0  0  0  0  0  0  0  0  0  0  0  0
   14.1840  -60.2810   33.4060 C   0  0  0  0  0  3  0  0  0  0  0  0
   13.1870  -60.0050   34.3140 C   0  0  0  0  0  0  0  0  0  0  0  0
   11.7280  -61.2190   34.5520 Br  0  0  0  0  0  0  0  0  0  0  0  0
   13.2920  -58.8320   35.0300 C   0  0  0  0  0  3  0  0  0  0  0  0
   14.3320  -58.0010   34.8380 N   0  0  0  0  0  0  0  0  0  0  0  0
   18.7540  -53.8770   34.8870 N   0  0  0  0  0  0  0  0  0  0  0  0
   17.8090  -53.8050   35.9100 N   0  0  0  0  0  0  0  0  0  0  0  0
   17.8830  -52.8370   36.9480 C   0  0  0  0  0  0  0  0  0  0  0  0
   17.0170  -54.5120   35.8820 H   0  0  0  0  0  0  0  0  0  0  0  0
   16.9620  -52.8130   37.8920 C   0  0  0  0  0  0  0  0  0  0  0  0
   18.9680  -51.8760   36.9750 C   0  0  0  0  0  3  0  0  0  0  0  0
   15.7430  -53.2520   38.5990 C   0  0  0  0  0  2  0  0  0  0  0  0
   16.4810  -52.1300   39.1570 C   0  0  0  0  0  2  0  0  0  0  0  0
   19.8760  -51.9260   36.0140 C   0  0  0  0  0  3  0  0  0  0  0  0
   19.8090  -52.9280   34.9310 C   0  0  0  0  0  0  0  0  0  0  0  0
   20.6860  -52.9540   34.0280 O   0  0  0  0  0  0  0  0  0  0  0  0
  1 13  1  0  0  0  0
  2  1  1  6  0  0  0
  2  5  1  0  0  0  0
  3  4  1  1  0  0  0
  3  2  1  0  0  0  0
  3  5  1  0  0  0  0
  4  6  1  0  0  0  0
  5  4  1  1  0  0  0
  6 12  1  0  0  0  0
  7  8  1  0  0  0  0
  7  6  2  0  0  0  0
  8  9  2  0  0  0  0
  9 10  1  0  0  0  0
  9 11  1  0  0  0  0
 12 11  2  0  0  0  0
 13 22  1  0  0  0  0
 13 14  1  0  0  0  0
 14 15  1  0  0  0  0
 15 18  1  0  0  0  0
 15 17  2  0  0  0  0
 16 14  1  0  0  0  0
 17 19  1  0  0  0  0
 17 20  1  0  0  0  0
 19 20  1  0  0  0  0
 21 18  2  0  0  0  0
 22 21  1  0  0  0  0
 23 22  2  0  0  0  0
M  END
>  <Pose>
1

>  <Score>
-8.577

$$$$
