/Users/jonathanwahrer/Desktop/Msc/3_Semester/Drug_Design_Praktikum/waehrer_HTS_screening/HTS_experiment/out/docking_results/vina_output/6s1j/0677_docked.pdbqt
 OpenBabel03222221303D

 29 32  0  0  0  0  0  0  0  0999 V2000
   16.5470  -56.4820   36.8230 C   0  0  0  0  0  0  0  0  0  0  0  0
   15.4060  -56.9440   37.5710 C   0  0  0  0  0  0  0  0  0  0  0  0
   14.8770  -56.1670   38.5360 C   0  0  0  0  0  0  0  0  0  0  0  0
   15.4190  -54.9030   38.8310 C   0  0  0  0  0  0  0  0  0  0  0  0
   16.5090  -54.4480   38.1290 C   0  0  0  0  0  0  0  0  0  0  0  0
   17.0710  -55.2500   37.1230 C   0  0  0  0  0  0  0  0  0  0  0  0
   18.3050  -54.8150   36.4190 C   0  0  0  0  0  2  0  0  0  0  0  0
   19.0730  -53.7200   37.1520 C   0  0  0  0  0  2  0  0  0  0  0  0
   18.1960  -52.6680   37.6100 N   0  0  0  0  0  0  0  0  0  0  0  0
   17.0790  -53.1280   38.3820 C   0  0  0  0  0  0  0  0  0  0  0  0
   16.6450  -52.3470   39.2540 O   0  0  0  0  0  0  0  0  0  0  0  0
   18.4280  -51.2700   37.3140 C   0  0  0  0  0  1  0  0  0  0  0  0
   13.7930  -56.8700   39.0840 O   0  0  0  0  0  0  0  0  0  0  0  0
   13.4910  -57.9900   38.2790 C   0  0  0  0  0  2  0  0  0  0  0  0
   14.6660  -58.1280   37.5040 O   0  0  0  0  0  0  0  0  0  0  0  0
   16.9540  -57.4530   35.8290 C   0  0  0  0  0  2  0  0  0  0  0  0
   17.0120  -57.2330   34.4510 N   0  0  0  0  0  0  0  0  0  0  0  0
   18.1860  -57.8080   33.7640 C   0  0  0  0  0  0  0  0  0  0  0  0
   19.0190  -58.4350   34.4390 O   0  0  0  0  0  0  0  0  0  0  0  0
   16.3770  -56.7730   33.7830 H   0  0  0  0  0  0  0  0  0  0  0  0
   18.3600  -57.6460   32.3400 C   0  0  0  0  0  0  0  0  0  0  0  0
   17.2180  -57.5610   31.5510 C   0  0  0  0  0  3  0  0  0  0  0  0
   17.2940  -57.4150   30.2210 N   0  0  0  0  0  0  0  0  0  0  0  0
   18.4860  -57.3500   29.6300 C   0  0  0  0  0  3  0  0  0  0  0  0
   19.6350  -57.4280   30.3520 C   0  0  0  0  0  0  0  0  0  0  0  0
   21.3340  -57.3320   29.4860 Br  0  0  0  0  0  0  0  0  0  0  0  0
   19.5960  -57.5800   31.7370 C   0  0  0  0  0  3  0  0  0  0  0  0
   14.8330  -54.1880   39.8080 O   0  0  0  0  0  0  0  0  0  0  0  0
   13.9480  -54.2230   40.1830 H   0  0  0  0  0  0  0  0  0  0  0  0
  1  6  2  0  0  0  0
  1  2  1  0  0  0  0
  2  3  2  0  0  0  0
  3  4  1  0  0  0  0
  3 13  1  0  0  0  0
  4 28  1  0  0  0  0
  5 10  1  0  0  0  0
  5  4  2  0  0  0  0
  6  5  1  0  0  0  0
  7  6  1  0  0  0  0
  7  8  1  0  0  0  0
  8  9  1  0  0  0  0
  9 10  1  0  0  0  0
 10 11  2  0  0  0  0
 12  9  1  0  0  0  0
 14 13  1  0  0  0  0
 15  2  1  0  0  0  0
 15 14  1  0  0  0  0
 16  1  1  0  0  0  0
 17 16  1  0  0  0  0
 18 19  2  0  0  0  0
 18 17  1  0  0  0  0
 20 17  1  0  0  0  0
 21 18  1  0  0  0  0
 22 21  2  0  0  0  0
 23 22  1  0  0  0  0
 24 23  2  0  0  0  0
 24 25  1  0  0  0  0
 25 27  2  0  0  0  0
 26 25  1  0  0  0  0
 27 21  1  0  0  0  0
 28 29  1  0  0  0  0
M  END
>  <Pose>
1

>  <Score>
-9.675

$$$$
