/Users/jonathanwahrer/Desktop/Msc/3_Semester/Drug_Design_Praktikum/waehrer_HTS_screening/HTS_experiment/out/docking_results/vina_output/6s1j/0680_docked.pdbqt
 OpenBabel03222221303D

 24 27  0  0  1  0  0  0  0  0999 V2000
   17.7790  -57.1800   31.5100 C   0  0  0  0  0  0  0  0  0  0  0  0
   16.6300  -57.3450   30.9580 O   0  0  0  0  0  0  0  0  0  0  0  0
   17.8010  -56.6460   32.8120 N   0  0  0  0  0  0  0  0  0  0  0  0
   18.7420  -56.2620   33.8170 C   0  0  0  0  0  2  0  0  0  0  0  0
   17.6880  -55.2620   34.3240 C   0  0  1  0  0  3  0  0  0  0  0  0
   16.7410  -56.2560   33.7650 C   0  0  0  0  0  2  0  0  0  0  0  0
   17.7320  -55.1180   35.7530 N   0  0  0  0  0  0  0  0  0  0  0  0
   16.9350  -55.7930   36.7440 C   0  0  0  0  0  0  0  0  0  0  0  0
   16.3930  -56.9000   36.5870 O   0  0  0  0  0  0  0  0  0  0  0  0
   16.9250  -54.8810   37.9400 C   0  0  1  0  0  3  0  0  0  0  0  0
   18.3520  -54.3880   37.9090 C   0  0  2  0  0  3  0  0  0  0  0  0
   15.9070  -53.8250   37.6750 C   0  0  0  0  0  2  0  0  0  0  0  0
   18.5010  -53.0990   38.6680 C   0  0  0  0  0  2  0  0  0  0  0  0
   18.6080  -54.2490   36.4620 C   0  0  0  0  0  0  0  0  0  0  0  0
   17.6100  -52.0650   38.0770 C   0  0  0  0  0  3  0  0  0  0  0  0
   16.4300  -52.4520   37.6370 C   0  0  0  0  0  3  0  0  0  0  0  0
   19.4730  -53.4720   35.9870 O   0  0  0  0  0  0  0  0  0  0  0  0
   18.9110  -57.5740   30.7030 C   0  0  0  0  0  0  0  0  0  0  0  0
   18.9290  -58.8230   30.0690 C   0  0  0  0  0  3  0  0  0  0  0  0
   19.9580  -59.2410   29.3230 N   0  0  0  0  0  0  0  0  0  0  0  0
   21.0540  -58.4610   29.1400 C   0  0  0  0  0  3  0  0  0  0  0  0
   21.1190  -57.2200   29.7270 C   0  0  0  0  0  0  0  0  0  0  0  0
   22.6670  -56.1450   29.4570 Br  0  0  0  0  0  0  0  0  0  0  0  0
   20.0390  -56.8140   30.4950 C   0  0  0  0  0  3  0  0  0  0  0  0
  1  3  1  0  0  0  0
  2  1  2  0  0  0  0
  3  6  1  0  0  0  0
  3  4  1  0  0  0  0
  4  5  1  0  0  0  0
  5  6  1  1  0  0  0
  5  7  1  0  0  0  0
  7 14  1  0  0  0  0
  7  8  1  0  0  0  0
  8 10  1  0  0  0  0
  9  8  2  0  0  0  0
 10 12  1  6  0  0  0
 11 10  1  0  0  0  0
 11 13  1  1  0  0  0
 14 11  1  0  0  0  0
 15 13  1  0  0  0  0
 16 12  1  0  0  0  0
 16 15  2  0  0  0  0
 17 14  2  0  0  0  0
 18  1  1  0  0  0  0
 19 18  2  0  0  0  0
 20 19  1  0  0  0  0
 21 20  2  0  0  0  0
 21 22  1  0  0  0  0
 22 24  2  0  0  0  0
 23 22  1  0  0  0  0
 24 18  1  0  0  0  0
M  END
>  <Pose>
1

>  <Score>
-8.836

$$$$
