/Users/jonathanwahrer/Desktop/Msc/3_Semester/Drug_Design_Praktikum/waehrer_HTS_screening/HTS_experiment/out/docking_results/vina_output/6s1j/0681_docked.pdbqt
 OpenBabel03222221313D

 25 28  0  0  1  0  0  0  0  0999 V2000
   19.5900  -54.8010   32.6330 C   0  0  0  0  0  0  0  0  0  0  0  0
   20.4280  -53.8770   32.8690 O   0  0  0  0  0  0  0  0  0  0  0  0
   18.6900  -55.1640   33.6430 N   0  0  0  0  0  0  0  0  0  0  0  0
   17.6000  -56.0690   33.8930 C   0  0  0  0  0  2  0  0  0  0  0  0
   17.2730  -55.4080   35.2240 C   0  0  2  0  0  3  0  0  0  0  0  0
   18.5560  -54.6620   35.0250 C   0  0  0  0  0  2  0  0  0  0  0  0
   17.2090  -56.2380   36.3410 O   0  0  0  0  0  0  0  0  0  0  0  0
   16.1820  -56.2840   37.2630 C   0  0  2  0  0  3  0  0  0  0  0  0
   15.4020  -57.3590   37.3280 C   0  0  0  0  0  3  0  0  0  0  0  0
   14.3020  -57.4680   38.2790 C   0  0  0  0  0  0  0  0  0  0  0  0
   13.5470  -58.5520   38.3170 C   0  0  0  0  0  1  0  0  0  0  0  0
   14.0790  -56.3700   39.1530 N   0  0  0  0  0  0  0  0  0  0  0  0
   14.9370  -55.2230   39.0580 C   0  0  0  0  0  0  0  0  0  0  0  0
   13.3020  -56.4370   39.8320 H   0  0  0  0  0  0  0  0  0  0  0  0
   15.9320  -55.1840   38.1610 N   0  0  0  0  0  0  0  0  0  0  0  0
   14.9590  -54.0700   39.7330 N   0  0  0  0  0  0  0  0  0  0  0  0
   16.5710  -54.0150   38.2760 N   0  0  0  0  0  0  0  0  0  0  0  0
   15.9620  -53.3300   39.2510 C   0  0  0  0  0  3  0  0  0  0  0  0
   19.6170  -55.4250   31.3330 C   0  0  0  0  0  0  0  0  0  0  0  0
   18.5550  -55.9910   30.6750 C   0  0  0  0  0  3  0  0  0  0  0  0
   18.6630  -56.5550   29.4370 N   0  0  0  0  0  0  0  0  0  0  0  0
   19.8210  -56.5980   28.7680 C   0  0  0  0  0  3  0  0  0  0  0  0
   20.9240  -56.0440   29.3770 C   0  0  0  0  0  0  0  0  0  0  0  0
   22.6040  -56.0880   28.4450 Br  0  0  0  0  0  0  0  0  0  0  0  0
   20.8300  -55.4750   30.6210 C   0  0  0  0  0  3  0  0  0  0  0  0
  1  2  2  0  0  0  0
  1  3  1  0  0  0  0
  3  4  1  0  0  0  0
  3  6  1  0  0  0  0
  4  5  1  0  0  0  0
  5  7  1  1  0  0  0
  6  5  1  0  0  0  0
  8  7  1  6  0  0  0
  8  9  1  0  0  0  0
  8 15  1  0  0  0  0
  9 10  2  0  0  0  0
 10 11  1  0  0  0  0
 10 12  1  0  0  0  0
 12 14  1  0  0  0  0
 13 12  1  0  0  0  0
 13 16  2  0  0  0  0
 15 17  1  0  0  0  0
 15 13  1  0  0  0  0
 17 18  2  0  0  0  0
 18 16  1  0  0  0  0
 19  1  1  0  0  0  0
 20 19  1  0  0  0  0
 21 20  2  0  0  0  0
 22 23  2  0  0  0  0
 22 21  1  0  0  0  0
 23 25  1  0  0  0  0
 24 23  1  0  0  0  0
 25 19  2  0  0  0  0
M  END
>  <Pose>
1

>  <Score>
-8.356

$$$$
