/Users/jonathanwahrer/Desktop/Msc/3_Semester/Drug_Design_Praktikum/waehrer_HTS_screening/HTS_experiment/out/docking_results/vina_output/6s1j/0684_docked.pdbqt
 OpenBabel03222221313D

 10 10  0  0  0  0  0  0  0  0999 V2000
   16.0260  -52.3840   39.2280 Br  0  0  0  0  0  0  0  0  0  0  0  0
   17.6800  -52.7840   38.3720 C   0  0  0  0  0  0  0  0  0  0  0  0
   18.3910  -53.9310   38.6520 C   0  0  0  0  0  3  0  0  0  0  0  0
   19.5590  -54.2190   38.0510 N   0  0  0  0  0  0  0  0  0  0  0  0
   20.0480  -53.3580   37.1460 C   0  0  0  0  0  3  0  0  0  0  0  0
   19.3990  -52.1920   36.8110 C   0  0  0  0  0  0  0  0  0  0  0  0
   18.2110  -51.9220   37.4380 C   0  0  0  0  0  3  0  0  0  0  0  0
   19.9430  -51.2660   35.8250 C   0  0  0  0  0  0  0  0  0  0  0  0
   20.4320  -51.7140   34.7590 O   0  0  0  0  0  0  0  0  0  0  0  0
   19.8990  -49.9080   36.1020 O   0  0  0  0  0  1  0  0  0  0  0  0
  2  3  1  0  0  0  0
  2  1  1  0  0  0  0
  4  3  2  0  0  0  0
  5  4  1  0  0  0  0
  6  5  2  0  0  0  0
  6  7  1  0  0  0  0
  7  2  2  0  0  0  0
  8 10  1  0  0  0  0
  8  6  1  0  0  0  0
  9  8  2  0  0  0  0
M  END
>  <Pose>
1

>  <Score>
-5.740

$$$$
