/Users/jonathanwahrer/Desktop/Msc/3_Semester/Drug_Design_Praktikum/waehrer_HTS_screening/HTS_experiment/out/docking_results/vina_output/6s1j/0695_docked.pdbqt
 OpenBabel03222221313D

 22 25  0  0  0  0  0  0  0  0999 V2000
   18.4550  -56.0950   34.9950 C   0  0  0  0  0  2  0  0  0  0  0  0
   18.6320  -54.7280   35.5480 C   0  0  0  0  0  0  0  0  0  0  0  0
   19.6140  -53.8590   35.1340 C   0  0  0  0  0  3  0  0  0  0  0  0
   19.7600  -52.5790   35.6720 C   0  0  0  0  0  0  0  0  0  0  0  0
   18.9070  -52.1360   36.6530 C   0  0  0  0  0  0  0  0  0  0  0  0
   20.6540  -51.5350   35.4280 O   0  0  0  0  0  0  0  0  0  0  0  0
   17.9190  -52.9990   37.0750 C   0  0  0  0  0  0  0  0  0  0  0  0
   19.2920  -50.8340   36.9940 O   0  0  0  0  0  0  0  0  0  0  0  0
   16.7270  -52.3780   38.4480 Br  0  0  0  0  0  0  0  0  0  0  0  0
   17.7700  -54.2660   36.5470 C   0  0  0  0  0  3  0  0  0  0  0  0
   20.0200  -50.3240   35.8680 C   0  0  0  0  0  2  0  0  0  0  0  0
   17.0930  -56.2590   34.5480 N   0  0  0  0  0  0  0  0  0  0  0  0
   16.7280  -55.7730   33.7120 H   0  0  0  0  0  0  0  0  0  0  0  0
   16.2280  -57.1300   35.3000 C   0  0  0  0  0  0  0  0  0  0  0  0
   16.5780  -57.5730   36.5150 N   0  0  0  0  0  0  0  0  0  0  0  0
   15.7630  -58.3860   37.2110 C   0  0  0  0  0  3  0  0  0  0  0  0
   14.5360  -58.7930   36.6950 C   0  0  0  0  0  3  0  0  0  0  0  0
   14.1950  -58.3490   35.4860 N   0  0  0  0  0  0  0  0  0  0  0  0
   15.0160  -57.5280   34.7810 C   0  0  0  0  0  0  0  0  0  0  0  0
   13.1150  -58.5370   34.7060 C   0  0  0  0  0  3  0  0  0  0  0  0
   14.4110  -57.2510   33.6140 N   0  0  0  0  0  0  0  0  0  0  0  0
   13.2420  -57.8670   33.5580 N   0  0  0  0  0  0  0  0  0  0  0  0
  1  2  1  0  0  0  0
  2 10  1  0  0  0  0
  3  2  2  0  0  0  0
  3  4  1  0  0  0  0
  4  5  2  0  0  0  0
  5  8  1  0  0  0  0
  5  7  1  0  0  0  0
  6  4  1  0  0  0  0
  6 11  1  0  0  0  0
  7  9  1  0  0  0  0
 10  7  2  0  0  0  0
 11  8  1  0  0  0  0
 12  1  1  0  0  0  0
 12 14  1  0  0  0  0
 13 12  1  0  0  0  0
 14 15  2  0  0  0  0
 15 16  1  0  0  0  0
 17 16  2  0  0  0  0
 18 17  1  0  0  0  0
 19 14  1  0  0  0  0
 19 18  1  0  0  0  0
 20 18  1  0  0  0  0
 21 19  2  0  0  0  0
 22 21  1  0  0  0  0
 22 20  2  0  0  0  0
M  END
>  <Pose>
1

>  <Score>
-8.440

$$$$
