/Users/jonathanwahrer/Desktop/Msc/3_Semester/Drug_Design_Praktikum/waehrer_HTS_screening/HTS_experiment/out/docking_results/vina_output/6s1j/0699_docked.pdbqt
 OpenBabel03222221323D

 32 35  0  0  1  0  0  0  0  0999 V2000
   12.7610  -59.6630   35.9680 C   0  0  2  0  0  3  0  0  0  0  0  0
   13.0890  -58.9020   34.7090 C   0  0  0  0  0  2  0  0  0  0  0  0
   14.2630  -59.3860   34.0850 O   0  0  0  0  0  0  0  0  0  0  0  0
   15.1630  -58.4470   33.5840 C   0  0  0  0  0  0  0  0  0  0  0  0
   16.3500  -58.8230   32.9870 C   0  0  0  0  0  0  0  0  0  0  0  0
   16.7360  -60.6810   32.8610 Br  0  0  0  0  0  0  0  0  0  0  0  0
   17.2550  -57.9090   32.4830 C   0  0  0  0  0  0  0  0  0  0  0  0
   17.0010  -56.5550   32.5600 C   0  0  0  0  0  0  0  0  0  0  0  0
   18.4430  -58.2920   31.8860 C   0  0  0  0  0  3  0  0  0  0  0  0
   15.8170  -56.1700   33.1550 C   0  0  0  0  0  3  0  0  0  0  0  0
   17.9090  -55.6390   32.0550 C   0  0  0  0  0  3  0  0  0  0  0  0
   14.9180  -57.0900   33.6550 C   0  0  0  0  0  3  0  0  0  0  0  0
   19.0930  -56.0230   31.4590 C   0  0  0  0  0  3  0  0  0  0  0  0
   19.3480  -57.3780   31.3830 C   0  0  0  0  0  3  0  0  0  0  0  0
   11.4190  -59.6870   36.2490 O   0  0  0  0  0  0  0  0  0  0  0  0
   10.8590  -59.1820   35.6320 H   0  0  0  0  0  0  0  0  0  0  0  0
   13.5720  -59.1690   37.1140 C   0  0  0  0  0  2  0  0  0  0  0  0
   14.1500  -57.8600   36.9030 N   0  0  0  0  0  4  0  0  0  0  0  0
   15.5700  -57.9760   37.1830 C   0  0  0  0  0  2  0  0  0  0  0  0
   16.2580  -56.6040   37.2420 C   0  0  0  0  0  2  0  0  0  0  0  0
   15.6160  -55.8140   38.2310 N   0  0  0  0  0  0  0  0  0  0  0  0
   14.4560  -56.4570   38.8810 C   0  0  0  0  0  2  0  0  0  0  0  0
   16.0010  -54.5230   38.6090 C   0  0  0  0  0  0  0  0  0  0  0  0
   13.5180  -56.9210   37.8170 C   0  0  0  0  0  2  0  0  0  0  0  0
   15.2330  -54.0060   39.5540 O   0  0  0  0  0  0  0  0  0  0  0  0
   14.0490  -57.5090   35.9270 H   0  0  0  0  0  0  0  0  0  0  0  0
   17.0550  -53.6660   38.1700 C   0  0  0  0  0  0  0  0  0  0  0  0
   18.3160  -54.0420   37.8020 C   0  0  0  0  0  3  0  0  0  0  0  0
   19.2980  -53.1550   37.3830 C   0  0  0  0  0  3  0  0  0  0  0  0
   19.0320  -51.8250   37.3200 C   0  0  0  0  0  3  0  0  0  0  0  0
   17.7670  -51.4120   37.6860 C   0  0  0  0  0  3  0  0  0  0  0  0
   16.7960  -52.2890   38.1000 C   0  0  0  0  0  3  0  0  0  0  0  0
  1  2  1  6  0  0  0
  1 15  1  0  0  0  0
  1 17  1  0  0  0  0
  3  2  1  0  0  0  0
  4 12  1  0  0  0  0
  4  3  1  0  0  0  0
  5  4  2  0  0  0  0
  6  5  1  0  0  0  0
  7  8  1  0  0  0  0
  7  5  1  0  0  0  0
  8 10  1  0  0  0  0
  9  7  2  0  0  0  0
 10 12  2  0  0  0  0
 11  8  2  0  0  0  0
 13 11  1  0  0  0  0
 14 13  2  0  0  0  0
 14  9  1  0  0  0  0
 16 15  1  0  0  0  0
 18 17  1  0  0  0  0
 18 19  1  0  0  0  0
 18 24  1  0  0  0  0
 19 20  1  0  0  0  0
 20 21  1  0  0  0  0
 21 23  1  0  0  0  0
 21 22  1  0  0  0  0
 23 25  2  0  0  0  0
 24 22  1  0  0  0  0
 26 18  1  0  0  0  0
 27 23  1  0  0  0  0
 28 27  2  0  0  0  0
 29 28  1  0  0  0  0
 30 29  2  0  0  0  0
 30 31  1  0  0  0  0
 31 32  2  0  0  0  0
 32 27  1  0  0  0  0
M  END
>  <Pose>
1

>  <Score>
-9.821

$$$$
