/Users/jonathanwahrer/Desktop/Msc/3_Semester/Drug_Design_Praktikum/waehrer_HTS_screening/HTS_experiment/out/docking_results/vina_output/6s1j/0706_docked.pdbqt
 OpenBabel03222221323D

 30 33  0  0  0  0  0  0  0  0999 V2000
   18.2420  -56.1950   34.6510 C   0  0  0  0  0  3  0  0  0  0  0  0
   17.2610  -56.4700   35.6460 N   0  0  0  0  0  0  0  0  0  0  0  0
   16.5810  -57.6310   35.7060 C   0  0  0  0  0  0  0  0  0  0  0  0
   16.7620  -59.1460   34.5260 Br  0  0  0  0  0  0  0  0  0  0  0  0
   15.7440  -57.5340   36.7530 N   0  0  0  0  0  0  0  0  0  0  0  0
   15.8830  -56.3420   37.3480 C   0  0  0  0  0  0  0  0  0  0  0  0
   16.8540  -55.6620   36.6380 C   0  0  0  0  0  0  0  0  0  0  0  0
   15.3090  -55.7340   38.4050 N   0  0  0  0  0  0  0  0  0  0  0  0
   17.1620  -54.3910   37.0760 C   0  0  0  0  0  0  0  0  0  0  0  0
   16.5830  -53.7940   38.1320 N   0  0  0  0  0  0  0  0  0  0  0  0
   18.0350  -53.7590   36.4470 O   0  0  0  0  0  0  0  0  0  0  0  0
   15.6420  -54.4850   38.8010 C   0  0  0  0  0  0  0  0  0  0  0  0
   16.9220  -52.4550   38.5740 C   0  0  0  0  0  1  0  0  0  0  0  0
   15.0770  -53.9500   39.8010 O   0  0  0  0  0  0  0  0  0  0  0  0
   14.2920  -56.4540   39.1440 C   0  0  0  0  0  1  0  0  0  0  0  0
   17.7670  -55.6220   33.3660 C   0  0  0  0  0  3  0  0  0  0  0  0
   18.6970  -55.5600   32.2890 N   0  0  0  0  0  0  0  0  0  0  0  0
   18.6530  -56.3180   31.1660 C   0  0  0  0  0  0  0  0  0  0  0  0
   19.7120  -55.9930   30.3550 C   0  0  0  0  0  0  0  0  0  0  0  0
   17.7940  -57.3050   30.6980 C   0  0  0  0  0  0  0  0  0  0  0  0
   20.3790  -55.0330   31.0170 N   0  0  0  0  0  0  0  0  0  0  0  0
   19.9390  -56.5850   29.1520 N   0  0  0  0  0  0  0  0  0  0  0  0
   19.7700  -54.7710   32.1820 C   0  0  0  0  0  0  0  0  0  0  0  0
   20.3040  -53.4900   33.5200 Br  0  0  0  0  0  0  0  0  0  0  0  0
   19.0630  -57.5310   28.7680 C   0  0  0  0  0  0  0  0  0  0  0  0
   21.0740  -56.2130   28.3170 C   0  0  0  0  0  1  0  0  0  0  0  0
   19.2620  -58.0880   27.6540 O   0  0  0  0  0  0  0  0  0  0  0  0
   18.0080  -57.8910   29.5200 N   0  0  0  0  0  0  0  0  0  0  0  0
   17.0950  -58.9150   29.0610 C   0  0  0  0  0  1  0  0  0  0  0  0
   16.8260  -57.5960   31.4500 O   0  0  0  0  0  0  0  0  0  0  0  0
  1  2  1  0  0  0  0
  2  3  1  0  0  0  0
  2  7  1  0  0  0  0
  3  5  2  0  0  0  0
  4  3  1  0  0  0  0
  5  6  1  0  0  0  0
  6  8  1  0  0  0  0
  7  9  1  0  0  0  0
  7  6  2  0  0  0  0
  8 12  1  0  0  0  0
  8 15  1  0  0  0  0
  9 10  1  0  0  0  0
 10 13  1  0  0  0  0
 10 12  1  0  0  0  0
 11  9  2  0  0  0  0
 12 14  2  0  0  0  0
 16  1  2  0  0  0  0
 17 16  1  0  0  0  0
 18 17  1  0  0  0  0
 19 21  1  0  0  0  0
 19 18  2  0  0  0  0
 20 18  1  0  0  0  0
 20 30  2  0  0  0  0
 21 23  2  0  0  0  0
 22 19  1  0  0  0  0
 23 17  1  0  0  0  0
 23 24  1  0  0  0  0
 25 22  1  0  0  0  0
 25 28  1  0  0  0  0
 26 22  1  0  0  0  0
 27 25  2  0  0  0  0
 28 20  1  0  0  0  0
 29 28  1  0  0  0  0
M  END
>  <Pose>
1

>  <Score>
-9.303

$$$$
