/Users/jonathanwahrer/Desktop/Msc/3_Semester/Drug_Design_Praktikum/waehrer_HTS_screening/HTS_experiment/out/docking_results/vina_output/6s1j/0708_docked.pdbqt
 OpenBabel03162215473D

 31 34  0  0  0  0  0  0  0  0999 V2000
   15.7790  -57.6350   34.8420 C   0  0  0  0  0  2  0  0  0  0  0  0
   15.8190  -56.9450   33.5110 C   0  0  0  0  0  2  0  0  0  0  0  0
   16.7510  -57.5340   32.5720 N   0  0  0  0  0  0  0  0  0  0  0  0
   16.8340  -58.8700   32.2890 C   0  0  0  0  0  0  0  0  0  0  0  0
   15.6970  -60.1690   33.0920 Br  0  0  0  0  0  0  0  0  0  0  0  0
   17.8060  -59.0950   31.3930 N   0  0  0  0  0  0  0  0  0  0  0  0
   18.3820  -57.9180   31.0680 C   0  0  0  0  0  0  0  0  0  0  0  0
   17.7090  -56.9640   31.8140 C   0  0  0  0  0  0  0  0  0  0  0  0
   19.3930  -57.6430   30.2250 N   0  0  0  0  0  0  0  0  0  0  0  0
   18.1040  -55.6680   31.6830 C   0  0  0  0  0  0  0  0  0  0  0  0
   19.1280  -55.3930   30.8280 N   0  0  0  0  0  0  0  0  0  0  0  0
   17.5350  -54.7670   32.3340 O   0  0  0  0  0  0  0  0  0  0  0  0
   19.7540  -56.3520   30.1210 C   0  0  0  0  0  0  0  0  0  0  0  0
   19.3960  -54.3880   30.7590 H   0  0  0  0  0  0  0  0  0  0  0  0
   20.7080  -56.0390   29.3320 O   0  0  0  0  0  0  0  0  0  0  0  0
   20.0900  -58.6460   29.4480 C   0  0  0  0  0  1  0  0  0  0  0  0
   16.9730  -57.3800   35.7170 C   0  0  0  0  0  2  0  0  0  0  0  0
   16.6830  -56.3060   36.6560 N   0  0  0  0  0  0  0  0  0  0  0  0
   17.2470  -55.0790   36.7300 C   0  0  0  0  0  0  0  0  0  0  0  0
   16.6900  -54.3590   37.7610 C   0  0  0  0  0  0  0  0  0  0  0  0
   18.2250  -54.4760   35.9840 C   0  0  0  0  0  0  0  0  0  0  0  0
   15.7740  -55.1740   38.3170 N   0  0  0  0  0  0  0  0  0  0  0  0
   17.0540  -53.1020   38.0750 N   0  0  0  0  0  0  0  0  0  0  0  0
   15.7760  -56.3450   37.6460 C   0  0  0  0  0  0  0  0  0  0  0  0
   14.6780  -57.8670   37.9990 Br  0  0  0  0  0  0  0  0  0  0  0  0
   18.0260  -52.5450   37.3120 C   0  0  0  0  0  0  0  0  0  0  0  0
   16.4350  -52.3760   39.1820 C   0  0  0  0  0  1  0  0  0  0  0  0
   18.3710  -51.3600   37.6040 O   0  0  0  0  0  0  0  0  0  0  0  0
   18.5980  -53.2160   36.2900 N   0  0  0  0  0  0  0  0  0  0  0  0
   19.3380  -52.7380   35.7390 H   0  0  0  0  0  0  0  0  0  0  0  0
   18.7370  -55.1270   35.0410 O   0  0  0  0  0  0  0  0  0  0  0  0
  1 17  1  0  0  0  0
  2  1  1  0  0  0  0
  3  2  1  0  0  0  0
  4  3  1  0  0  0  0
  4  5  1  0  0  0  0
  6  4  2  0  0  0  0
  7  6  1  0  0  0  0
  7  8  2  0  0  0  0
  8  3  1  0  0  0  0
  9  7  1  0  0  0  0
 10  8  1  0  0  0  0
 10 12  2  0  0  0  0
 11 10  1  0  0  0  0
 13  9  1  0  0  0  0
 13 11  1  0  0  0  0
 14 11  1  0  0  0  0
 15 13  2  0  0  0  0
 16  9  1  0  0  0  0
 17 18  1  0  0  0  0
 18 19  1  0  0  0  0
 18 24  1  0  0  0  0
 19 20  2  0  0  0  0
 20 23  1  0  0  0  0
 20 22  1  0  0  0  0
 21 29  1  0  0  0  0
 21 19  1  0  0  0  0
 23 27  1  0  0  0  0
 24 25  1  0  0  0  0
 24 22  2  0  0  0  0
 26 28  2  0  0  0  0
 26 23  1  0  0  0  0
 29 26  1  0  0  0  0
 30 29  1  0  0  0  0
 31 21  2  0  0  0  0
M  END
>  <Pose>
1

>  <Score>
-8.745

$$$$
