/Users/jonathanwahrer/Desktop/Msc/3_Semester/Drug_Design_Praktikum/waehrer_HTS_screening/HTS_experiment/out/docking_results/vina_output/6s1j/0709_docked.pdbqt
 OpenBabel03222221323D

 30 33  0  0  0  0  0  0  0  0999 V2000
   17.7160  -55.9760   33.5740 C   0  0  0  0  0  3  0  0  0  0  0  0
   18.3110  -56.7030   32.5050 N   0  0  0  0  0  0  0  0  0  0  0  0
   18.0710  -58.0040   32.2170 C   0  0  0  0  0  0  0  0  0  0  0  0
   16.8530  -59.0830   33.2160 Br  0  0  0  0  0  0  0  0  0  0  0  0
   18.8110  -58.3670   31.1570 N   0  0  0  0  0  0  0  0  0  0  0  0
   19.5490  -57.3170   30.7290 C   0  0  0  0  0  0  0  0  0  0  0  0
   19.2180  -56.2780   31.5940 C   0  0  0  0  0  0  0  0  0  0  0  0
   20.4400  -57.1390   29.7380 N   0  0  0  0  0  0  0  0  0  0  0  0
   19.8560  -55.0820   31.3680 C   0  0  0  0  0  0  0  0  0  0  0  0
   20.7550  -54.9070   30.3660 N   0  0  0  0  0  0  0  0  0  0  0  0
   19.5680  -54.1280   32.1500 O   0  0  0  0  0  0  0  0  0  0  0  0
   21.0350  -55.9470   29.5590 C   0  0  0  0  0  0  0  0  0  0  0  0
   21.2050  -53.9740   30.2450 H   0  0  0  0  0  0  0  0  0  0  0  0
   21.8780  -55.7690   28.6240 O   0  0  0  0  0  0  0  0  0  0  0  0
   20.7880  -58.2130   28.8360 C   0  0  0  0  0  1  0  0  0  0  0  0
   18.4440  -55.9610   34.8700 C   0  0  0  0  0  3  0  0  0  0  0  0
   17.9470  -55.1350   35.9140 N   0  0  0  0  0  0  0  0  0  0  0  0
   16.9760  -55.4200   36.7960 C   0  0  0  0  0  0  0  0  0  0  0  0
   16.7970  -54.3390   37.6340 C   0  0  0  0  0  0  0  0  0  0  0  0
   16.1650  -56.5200   37.0310 C   0  0  0  0  0  0  0  0  0  0  0  0
   17.6940  -53.4250   37.2110 N   0  0  0  0  0  0  0  0  0  0  0  0
   15.8850  -54.3850   38.6040 N   0  0  0  0  0  0  0  0  0  0  0  0
   18.4000  -53.8740   36.1800 C   0  0  0  0  0  0  0  0  0  0  0  0
   19.7950  -52.9540   35.2220 Br  0  0  0  0  0  0  0  0  0  0  0  0
   15.1340  -55.4750   38.7780 C   0  0  0  0  0  0  0  0  0  0  0  0
   15.6870  -53.2600   39.4880 C   0  0  0  0  0  1  0  0  0  0  0  0
   14.2510  -55.5480   39.6970 O   0  0  0  0  0  0  0  0  0  0  0  0
   15.2470  -56.5690   38.0040 N   0  0  0  0  0  0  0  0  0  0  0  0
   14.6390  -57.4120   38.1680 H   0  0  0  0  0  0  0  0  0  0  0  0
   16.2800  -57.5350   36.3070 O   0  0  0  0  0  0  0  0  0  0  0  0
  1 16  2  0  0  0  0
  2  1  1  0  0  0  0
  3  2  1  0  0  0  0
  3  4  1  0  0  0  0
  5  3  2  0  0  0  0
  6  5  1  0  0  0  0
  6  7  2  0  0  0  0
  7  2  1  0  0  0  0
  8  6  1  0  0  0  0
  9  7  1  0  0  0  0
  9 11  2  0  0  0  0
 10  9  1  0  0  0  0
 12  8  1  0  0  0  0
 12 10  1  0  0  0  0
 13 10  1  0  0  0  0
 14 12  2  0  0  0  0
 15  8  1  0  0  0  0
 16 17  1  0  0  0  0
 17 23  1  0  0  0  0
 17 18  1  0  0  0  0
 18 20  1  0  0  0  0
 18 19  2  0  0  0  0
 19 22  1  0  0  0  0
 20 28  1  0  0  0  0
 21 19  1  0  0  0  0
 22 25  1  0  0  0  0
 22 26  1  0  0  0  0
 23 21  2  0  0  0  0
 24 23  1  0  0  0  0
 25 27  2  0  0  0  0
 28 29  1  0  0  0  0
 28 25  1  0  0  0  0
 30 20  2  0  0  0  0
M  END
>  <Pose>
1

>  <Score>
-9.039

$$$$
