/Users/jonathanwahrer/Desktop/Msc/3_Semester/Drug_Design_Praktikum/waehrer_HTS_screening/HTS_experiment/out/docking_results/vina_output/6s1j/0723_docked.pdbqt
 OpenBabel03222221333D

 23 26  0  0  1  0  0  0  0  0999 V2000
   17.2150  -57.6070   34.4660 N   0  0  0  0  0  0  0  0  0  0  0  0
   16.3860  -57.7140   33.3060 C   0  0  1  0  0  3  0  0  0  0  0  0
   16.9370  -58.6170   32.2710 C   0  0  0  0  0  2  0  0  0  0  0  0
   18.2190  -59.0630   32.4440 O   0  0  0  0  0  0  0  0  0  0  0  0
   19.0580  -58.1050   33.0020 C   0  0  0  0  0  2  0  0  0  0  0  0
   18.6390  -57.7160   34.3830 C   0  0  0  0  0  2  0  0  0  0  0  0
   16.6680  -57.3660   35.7710 C   0  0  0  0  0  0  0  0  0  0  0  0
   16.1450  -58.4210   36.4700 N   0  0  0  0  0  0  0  0  0  0  0  0
   15.6690  -58.2620   37.7180 C   0  0  0  0  0  3  0  0  0  0  0  0
   15.6950  -57.0570   38.3150 N   0  0  0  0  0  0  0  0  0  0  0  0
   16.1910  -55.9810   37.6940 C   0  0  0  0  0  0  0  0  0  0  0  0
   16.3020  -54.6980   38.0810 N   0  0  0  0  0  0  0  0  0  0  0  0
   16.6840  -56.1500   36.3940 C   0  0  0  0  0  0  0  0  0  0  0  0
   16.8470  -54.0580   37.0720 N   0  0  0  0  0  0  0  0  0  0  0  0
   15.9090  -54.1170   39.3510 C   0  0  0  0  0  1  0  0  0  0  0  0
   17.0930  -54.8880   36.0340 C   0  0  0  0  0  0  0  0  0  0  0  0
   17.8350  -54.4310   34.3420 Br  0  0  0  0  0  0  0  0  0  0  0  0
   14.9800  -58.0070   33.6630 C   0  0  0  0  0  0  0  0  0  0  0  0
   14.5040  -59.1850   34.0690 N   0  0  0  0  0  0  0  0  0  0  0  0
   13.1690  -59.0050   34.2850 C   0  0  0  0  0  0  0  0  0  0  0  0
   12.9050  -57.7190   33.9950 N   0  0  0  0  0  0  0  0  0  0  0  0
   12.1910  -60.0170   34.7470 C   0  0  0  0  0  1  0  0  0  0  0  0
   14.0100  -57.1410   33.6240 O   0  0  0  0  0  0  0  0  0  0  0  0
  1  7  1  0  0  0  0
  2 18  1  1  0  0  0
  2  1  1  0  0  0  0
  3  4  1  0  0  0  0
  3  2  1  0  0  0  0
  4  5  1  0  0  0  0
  5  6  1  0  0  0  0
  6  1  1  0  0  0  0
  7 13  2  0  0  0  0
  7  8  1  0  0  0  0
  8  9  2  0  0  0  0
  9 10  1  0  0  0  0
 11 12  1  0  0  0  0
 11 10  2  0  0  0  0
 12 15  1  0  0  0  0
 13 11  1  0  0  0  0
 14 12  1  0  0  0  0
 16 13  1  0  0  0  0
 16 14  2  0  0  0  0
 17 16  1  0  0  0  0
 18 19  2  0  0  0  0
 19 20  1  0  0  0  0
 20 22  1  0  0  0  0
 21 20  2  0  0  0  0
 23 18  1  0  0  0  0
 23 21  1  0  0  0  0
M  END
>  <Pose>
1

>  <Score>
-7.163

$$$$
