/Users/jonathanwahrer/Desktop/Msc/3_Semester/Drug_Design_Praktikum/waehrer_HTS_screening/HTS_experiment/out/docking_results/vina_output/6s1j/0729_docked.pdbqt
 OpenBabel03222221333D

 27 30  0  0  1  0  0  0  0  0999 V2000
   15.4750  -57.8070   35.1980 N   0  0  0  0  0  0  0  0  0  0  0  0
   16.7790  -58.3880   35.0470 C   0  0  0  0  0  2  0  0  0  0  0  0
   17.7230  -57.1990   34.8480 C   0  0  0  0  0  2  0  0  0  0  0  0
   16.9820  -56.0110   34.4090 N   0  0  0  0  0  0  0  0  0  0  0  0
   16.0050  -56.3950   33.3870 C   0  0  0  0  0  2  0  0  0  0  0  0
   14.8980  -57.2240   34.0110 C   0  0  0  0  0  2  0  0  0  0  0  0
   14.8190  -57.7820   36.4340 C   0  0  0  0  0  0  0  0  0  0  0  0
   15.1150  -56.8470   37.3680 N   0  0  0  0  0  0  0  0  0  0  0  0
   14.5340  -56.8170   38.5620 C   0  0  0  0  0  3  0  0  0  0  0  0
   13.6190  -57.7420   38.8650 N   0  0  0  0  0  0  0  0  0  0  0  0
   13.2590  -58.7090   38.0040 C   0  0  0  0  0  0  0  0  0  0  0  0
   12.3750  -59.7230   38.0760 N   0  0  0  0  0  0  0  0  0  0  0  0
   13.8660  -58.7420   36.7520 C   0  0  0  0  0  0  0  0  0  0  0  0
   12.4180  -60.3600   36.9370 N   0  0  0  0  0  0  0  0  0  0  0  0
   11.5620  -59.9810   39.2560 C   0  0  0  0  0  1  0  0  0  0  0  0
   13.3070  -59.8100   36.0890 C   0  0  0  0  0  0  0  0  0  0  0  0
   13.7300  -60.3370   34.3180 Br  0  0  0  0  0  0  0  0  0  0  0  0
   17.9570  -55.1230   33.7960 C   0  0  2  0  0  3  0  0  0  0  0  0
   18.8750  -56.0090   32.9100 C   0  0  0  0  0  1  0  0  0  0  0  0
   18.7920  -54.4620   34.8150 C   0  0  0  0  0  0  0  0  0  0  0  0
   20.0400  -54.3470   34.4660 O   0  0  0  0  0  0  0  0  0  0  0  0
   18.4150  -53.9660   36.0740 N   0  0  0  0  0  0  0  0  0  0  0  0
   17.1280  -54.0030   36.7000 C   0  0  0  0  0  2  0  0  0  0  0  0
   19.4770  -53.3260   36.8840 C   0  0  0  0  0  2  0  0  0  0  0  0
   16.7100  -52.6970   37.3440 C   0  0  0  0  0  2  0  0  0  0  0  0
   17.8270  -51.9240   37.9540 C   0  0  0  0  0  2  0  0  0  0  0  0
   19.0560  -51.8910   37.0710 C   0  0  0  0  0  2  0  0  0  0  0  0
  1  7  1  0  0  0  0
  2  1  1  0  0  0  0
  3  2  1  0  0  0  0
  4  3  1  0  0  0  0
  5  6  1  0  0  0  0
  5  4  1  0  0  0  0
  6  1  1  0  0  0  0
  7 13  2  0  0  0  0
  7  8  1  0  0  0  0
  8  9  2  0  0  0  0
  9 10  1  0  0  0  0
 11 12  1  0  0  0  0
 11 10  2  0  0  0  0
 12 15  1  0  0  0  0
 13 11  1  0  0  0  0
 14 12  1  0  0  0  0
 16 13  1  0  0  0  0
 16 14  2  0  0  0  0
 17 16  1  0  0  0  0
 18 19  1  6  0  0  0
 18  4  1  0  0  0  0
 18 20  1  0  0  0  0
 20 22  1  0  0  0  0
 21 20  2  0  0  0  0
 22 23  1  0  0  0  0
 22 24  1  0  0  0  0
 23 25  1  0  0  0  0
 24 27  1  0  0  0  0
 25 26  1  0  0  0  0
 27 26  1  0  0  0  0
M  END
>  <Pose>
1

>  <Score>
-9.173

$$$$
