/Users/jonathanwahrer/Desktop/Msc/3_Semester/Drug_Design_Praktikum/waehrer_HTS_screening/HTS_experiment/out/docking_results/vina_output/6s1j/0737_docked.pdbqt
 OpenBabel03222221333D

 21 24  0  0  1  0  0  0  0  0999 V2000
   13.9840  -57.9990   37.5420 C   0  0  1  0  0  3  0  0  0  0  0  0
   13.4880  -58.6030   38.5980 C   0  0  0  0  0  3  0  0  0  0  0  0
   12.4810  -59.6690   38.4770 C   0  0  0  0  0  0  0  0  0  0  0  0
   11.9730  -60.2850   39.5300 C   0  0  0  0  0  1  0  0  0  0  0  0
   12.0930  -59.9900   37.1500 N   0  0  0  0  0  0  0  0  0  0  0  0
   12.6460  -59.3190   36.0100 C   0  0  0  0  0  0  0  0  0  0  0  0
   13.5710  -58.3480   36.2360 N   0  0  0  0  0  0  0  0  0  0  0  0
   13.9180  -57.8920   35.0270 N   0  0  0  0  0  0  0  0  0  0  0  0
   13.2500  -58.5360   34.0580 C   0  0  0  0  0  3  0  0  0  0  0  0
   12.4600  -59.4240   34.6830 N   0  0  0  0  0  0  0  0  0  0  0  0
   11.3820  -60.7370   36.9980 H   0  0  0  0  0  0  0  0  0  0  0  0
   14.9450  -56.9850   37.7160 N   0  0  2  0  0  0  0  0  0  0  0  0
   16.2170  -57.1400   37.0550 C   0  0  0  0  0  2  0  0  0  0  0  0
   16.8510  -55.8080   36.8270 C   0  0  0  0  0  0  0  0  0  0  0  0
   16.6250  -54.7960   37.6630 N   0  0  0  0  0  0  0  0  0  0  0  0
   17.6920  -55.3480   35.8630 N   0  0  0  0  0  0  0  0  0  0  0  0
   17.2990  -53.7160   37.2520 C   0  0  0  0  0  0  0  0  0  0  0  0
   15.7620  -54.9440   38.8190 C   0  0  0  0  0  2  0  0  0  0  0  0
   17.3560  -51.9760   38.0540 Br  0  0  0  0  0  0  0  0  0  0  0  0
   17.9830  -54.0570   36.1030 C   0  0  0  0  0  3  0  0  0  0  0  0
   14.6010  -55.8540   38.5460 C   0  0  0  0  0  2  0  0  0  0  0  0
  1 12  1  0  0  0  0
  1  2  1  1  0  0  0
  3  2  2  0  0  0  0
  3  4  1  0  0  0  0
  5  3  1  0  0  0  0
  6  7  1  0  0  0  0
  6  5  1  0  0  0  0
  7  1  1  0  0  0  0
  8  7  1  0  0  0  0
  9 10  1  0  0  0  0
  9  8  2  0  0  0  0
 10  6  2  0  0  0  0
 11  5  1  0  0  0  0
 12 13  1  1  0  0  0
 12 21  1  0  0  0  0
 14 13  1  0  0  0  0
 14 15  1  0  0  0  0
 15 18  1  0  0  0  0
 16 20  1  0  0  0  0
 16 14  2  0  0  0  0
 17 15  1  0  0  0  0
 17 19  1  0  0  0  0
 20 17  2  0  0  0  0
 21 18  1  0  0  0  0
M  END
>  <Pose>
1

>  <Score>
-7.839

$$$$
