/Users/jonathanwahrer/Desktop/Msc/3_Semester/Drug_Design_Praktikum/waehrer_HTS_screening/HTS_experiment/out/docking_results/vina_output/6s1j/0743_docked.pdbqt
 OpenBabel03222221333D

 30 33  0  0  1  0  0  0  0  0999 V2000
   14.5830  -57.7370   36.8650 C   0  0  0  0  0  0  0  0  0  0  0  0
   13.3980  -57.2990   37.0370 O   0  0  0  0  0  0  0  0  0  0  0  0
   15.0830  -57.9570   35.5530 N   0  0  0  0  0  0  0  0  0  0  0  0
   14.2450  -57.6820   34.4180 C   0  0  0  0  0  2  0  0  0  0  0  0
   14.9900  -57.1950   33.2130 C   0  0  0  0  0  2  0  0  0  0  0  0
   16.4300  -57.6160   33.1860 C   0  0  1  0  0  0  0  0  0  0  0  0
   16.8980  -57.7440   31.8390 N   0  0  0  0  0  0  0  0  0  0  0  0
   18.2460  -58.1830   31.7220 C   0  0  0  0  0  2  0  0  0  0  0  0
   19.2150  -57.5350   32.6550 C   0  0  0  0  0  2  0  0  0  0  0  0
   18.5800  -56.5360   33.5540 C   0  0  0  0  0  0  0  0  0  0  0  0
   19.0880  -55.5060   34.2330 N   0  0  0  0  0  0  0  0  0  0  0  0
   18.1060  -54.8950   34.9100 C   0  0  0  0  0  3  0  0  0  0  0  0
   16.9520  -55.5320   34.6680 N   0  0  0  0  0  0  0  0  0  0  0  0
   17.2360  -56.5420   33.8360 C   0  0  0  0  0  0  0  0  0  0  0  0
   16.6210  -58.8830   34.0040 C   0  0  0  0  0  2  0  0  0  0  0  0
   16.4490  -58.4600   35.4480 C   0  0  0  0  0  2  0  0  0  0  0  0
   16.2790  -58.4240   31.3450 H   0  0  0  0  0  0  0  0  0  0  0  0
   15.9880  -55.2850   35.0630 H   0  0  0  0  0  0  0  0  0  0  0  0
   15.3740  -57.9940   38.0790 C   0  0  0  0  0  2  0  0  0  0  0  0
   15.4210  -56.8220   39.0100 C   0  0  0  0  0  2  0  0  0  0  0  0
   16.2320  -55.7460   38.5320 N   0  0  0  0  0  0  0  0  0  0  0  0
   15.9670  -54.3880   38.8540 C   0  0  0  0  0  0  0  0  0  0  0  0
   14.9680  -54.1420   39.5930 O   0  0  0  0  0  0  0  0  0  0  0  0
   17.0500  -55.9510   37.9270 H   0  0  0  0  0  0  0  0  0  0  0  0
   16.7700  -53.2870   38.3860 C   0  0  0  0  0  0  0  0  0  0  0  0
   17.8240  -53.3590   37.6430 O   0  0  0  0  0  0  0  0  0  0  0  0
   18.3330  -52.1910   37.3860 C   0  0  0  0  0  0  0  0  0  0  0  0
   19.8870  -51.7530   36.3390 Br  0  0  0  0  0  0  0  0  0  0  0  0
   17.5430  -51.2580   38.0190 C   0  0  0  0  0  3  0  0  0  0  0  0
   16.5330  -51.9360   38.6680 C   0  0  0  0  0  3  0  0  0  0  0  0
  1  2  2  0  0  0  0
  1 19  1  0  0  0  0
  3  1  1  0  0  0  0
  4  3  1  0  0  0  0
  5  4  1  0  0  0  0
  6  5  1  6  0  0  0
  6 14  1  0  0  0  0
  6 15  1  0  0  0  0
  7  6  1  0  0  0  0
  8  7  1  0  0  0  0
  8  9  1  0  0  0  0
  9 10  1  0  0  0  0
 10 14  2  0  0  0  0
 10 11  1  0  0  0  0
 11 12  2  0  0  0  0
 13 12  1  0  0  0  0
 13 18  1  0  0  0  0
 14 13  1  0  0  0  0
 15 16  1  0  0  0  0
 16  3  1  0  0  0  0
 17  7  1  0  0  0  0
 19 20  1  0  0  0  0
 21 22  1  0  0  0  0
 21 20  1  0  0  0  0
 22 23  2  0  0  0  0
 24 21  1  0  0  0  0
 25 30  2  0  0  0  0
 25 22  1  0  0  0  0
 26 25  1  0  0  0  0
 27 26  1  0  0  0  0
 27 29  2  0  0  0  0
 28 27  1  0  0  0  0
 29 30  1  0  0  0  0
M  END
>  <Pose>
1

>  <Score>
-8.803

$$$$
