/Users/jonathanwahrer/Desktop/Msc/3_Semester/Drug_Design_Praktikum/waehrer_HTS_screening/HTS_experiment/out/docking_results/vina_output/6s1j/0746_docked.pdbqt
 OpenBabel03222221333D

 30 33  0  0  1  0  0  0  0  0999 V2000
   18.2990  -56.2470   32.4280 C   0  0  0  0  0  0  0  0  0  0  0  0
   17.0930  -55.8180   32.3970 O   0  0  0  0  0  0  0  0  0  0  0  0
   18.9540  -56.3870   31.1990 N   0  0  0  0  0  0  0  0  0  0  0  0
   20.3200  -56.8560   31.0850 C   0  0  0  0  0  2  0  0  0  0  0  0
   20.3050  -58.1300   30.2980 C   0  0  0  0  0  2  0  0  0  0  0  0
   19.5730  -57.9850   29.0020 C   0  0  1  0  0  0  0  0  0  0  0  0
   20.4710  -58.3610   27.9230 N   0  0  0  0  0  0  0  0  0  0  0  0
   20.7690  -59.7740   28.0630 C   0  0  0  0  0  2  0  0  0  0  0  0
   19.5830  -60.5220   27.4430 C   0  0  0  0  0  2  0  0  0  0  0  0
   18.3840  -60.0560   28.1810 C   0  0  0  0  0  0  0  0  0  0  0  0
   17.1690  -60.6260   28.2900 N   0  0  0  0  0  0  0  0  0  0  0  0
   16.4210  -59.8260   29.0640 C   0  0  0  0  0  3  0  0  0  0  0  0
   17.1730  -58.7710   29.4270 N   0  0  0  0  0  0  0  0  0  0  0  0
   18.4020  -58.8820   28.8940 C   0  0  0  0  0  0  0  0  0  0  0  0
   19.1590  -56.5270   28.8050 C   0  0  0  0  0  2  0  0  0  0  0  0
   18.3070  -56.0630   29.9410 C   0  0  0  0  0  2  0  0  0  0  0  0
   21.3990  -57.8580   28.0060 H   0  0  0  0  0  0  0  0  0  0  0  0
   16.8170  -61.5250   27.8730 H   0  0  0  0  0  0  0  0  0  0  0  0
   18.8440  -56.5370   33.7650 C   0  0  2  0  0  3  0  0  0  0  0  0
   18.5260  -57.8840   34.3040 C   0  0  0  0  0  1  0  0  0  0  0  0
   18.4590  -55.5390   34.7420 N   0  0  0  0  0  0  0  0  0  0  0  0
   19.2540  -54.4240   35.0650 C   0  0  0  0  0  0  0  0  0  0  0  0
   20.3520  -54.2650   34.4950 O   0  0  0  0  0  0  0  0  0  0  0  0
   17.5450  -55.6620   35.2240 H   0  0  0  0  0  0  0  0  0  0  0  0
   18.8090  -53.4570   36.0570 C   0  0  0  0  0  0  0  0  0  0  0  0
   17.8110  -53.6530   36.9190 O   0  0  0  0  0  0  0  0  0  0  0  0
   17.6510  -52.6020   37.6810 C   0  0  0  0  0  0  0  0  0  0  0  0
   16.3350  -52.4160   39.0740 Br  0  0  0  0  0  0  0  0  0  0  0  0
   18.5820  -51.6370   37.3280 C   0  0  0  0  0  3  0  0  0  0  0  0
   19.3020  -52.1950   36.3030 C   0  0  0  0  0  3  0  0  0  0  0  0
  1 19  1  0  0  0  0
  2  1  2  0  0  0  0
  3  1  1  0  0  0  0
  4  3  1  0  0  0  0
  5  4  1  0  0  0  0
  6 15  1  6  0  0  0
  6  5  1  0  0  0  0
  7 17  1  0  0  0  0
  7  8  1  0  0  0  0
  7  6  1  0  0  0  0
  9  8  1  0  0  0  0
  9 10  1  0  0  0  0
 10 11  1  0  0  0  0
 10 14  2  0  0  0  0
 11 12  1  0  0  0  0
 12 13  2  0  0  0  0
 14  6  1  0  0  0  0
 14 13  1  0  0  0  0
 15 16  1  0  0  0  0
 16  3  1  0  0  0  0
 18 11  1  0  0  0  0
 19 20  1  1  0  0  0
 19 21  1  0  0  0  0
 21 22  1  0  0  0  0
 21 24  1  0  0  0  0
 22 25  1  0  0  0  0
 23 22  2  0  0  0  0
 25 30  2  0  0  0  0
 25 26  1  0  0  0  0
 26 27  1  0  0  0  0
 27 28  1  0  0  0  0
 29 27  2  0  0  0  0
 30 29  1  0  0  0  0
M  END
>  <Pose>
1

>  <Score>
-7.921

$$$$
