/Users/jonathanwahrer/Desktop/Msc/3_Semester/Drug_Design_Praktikum/waehrer_HTS_screening/HTS_experiment/out/docking_results/vina_output/6s1j/0754_docked.pdbqt
 OpenBabel03222221343D

 27 30  0  0  0  0  0  0  0  0999 V2000
   16.1450  -57.8630   36.6180 C   0  0  0  0  0  0  0  0  0  0  0  0
   16.7030  -58.8270   37.1620 O   0  0  0  0  0  0  0  0  0  0  0  0
   15.8660  -57.9010   35.2300 N   0  0  0  0  0  0  0  0  0  0  0  0
   16.2320  -59.0680   34.4540 C   0  0  0  0  0  2  0  0  0  0  0  0
   17.2050  -58.7350   33.3490 C   0  0  0  0  0  2  0  0  0  0  0  0
   16.9320  -57.3420   32.9600 N   0  0  0  0  0  0  0  0  0  0  0  0
   15.5680  -56.9360   33.0020 C   0  0  0  0  0  2  0  0  0  0  0  0
   15.2200  -56.8280   34.4990 C   0  0  0  0  0  2  0  0  0  0  0  0
   18.0460  -56.5530   32.5850 C   0  0  0  0  0  0  0  0  0  0  0  0
   18.7730  -56.8330   31.4680 N   0  0  0  0  0  0  0  0  0  0  0  0
   19.8330  -56.0950   31.1020 C   0  0  0  0  0  0  0  0  0  0  0  0
   20.2110  -55.0350   31.8490 N   0  0  0  0  0  0  0  0  0  0  0  0
   19.5530  -54.6830   32.9670 C   0  0  0  0  0  0  0  0  0  0  0  0
   18.4520  -55.4770   33.3200 C   0  0  0  0  0  3  0  0  0  0  0  0
   19.9520  -53.5200   33.8050 C   0  0  0  0  0  1  0  0  0  0  0  0
   20.5560  -56.4270   29.9290 N   0  0  0  0  0  0  0  0  0  0  0  0
   21.2330  -55.4480   29.1120 C   0  0  0  0  0  2  0  0  0  0  0  0
   22.6610  -55.8520   28.9030 C   0  0  0  0  0  2  0  0  0  0  0  0
   22.9290  -57.1520   29.3280 O   0  0  0  0  0  0  0  0  0  0  0  0
   21.9680  -58.0360   28.8470 C   0  0  0  0  0  2  0  0  0  0  0  0
   20.6330  -57.8110   29.5140 C   0  0  0  0  0  2  0  0  0  0  0  0
   15.7850  -56.6960   37.4430 C   0  0  0  0  0  0  0  0  0  0  0  0
   16.4290  -55.5770   37.5810 O   0  0  0  0  0  0  0  0  0  0  0  0
   15.8320  -54.7710   38.3820 C   0  0  0  0  0  0  0  0  0  0  0  0
   16.3760  -52.9940   38.9170 Br  0  0  0  0  0  0  0  0  0  0  0  0
   14.6870  -55.3820   38.8330 C   0  0  0  0  0  3  0  0  0  0  0  0
   14.6600  -56.6140   38.2310 C   0  0  0  0  0  3  0  0  0  0  0  0
  1  2  2  0  0  0  0
  1 22  1  0  0  0  0
  3  1  1  0  0  0  0
  4  3  1  0  0  0  0
  5  4  1  0  0  0  0
  6  7  1  0  0  0  0
  6  5  1  0  0  0  0
  7  8  1  0  0  0  0
  8  3  1  0  0  0  0
  9  6  1  0  0  0  0
  9 14  2  0  0  0  0
 10  9  1  0  0  0  0
 11 10  2  0  0  0  0
 11 12  1  0  0  0  0
 12 13  2  0  0  0  0
 13 14  1  0  0  0  0
 13 15  1  0  0  0  0
 16 11  1  0  0  0  0
 17 16  1  0  0  0  0
 18 17  1  0  0  0  0
 18 19  1  0  0  0  0
 20 19  1  0  0  0  0
 20 21  1  0  0  0  0
 21 16  1  0  0  0  0
 22 23  1  0  0  0  0
 22 27  2  0  0  0  0
 23 24  1  0  0  0  0
 24 26  2  0  0  0  0
 24 25  1  0  0  0  0
 27 26  1  0  0  0  0
M  END
>  <Pose>
1

>  <Score>
-8.434

$$$$
