/Users/jonathanwahrer/Desktop/Msc/3_Semester/Drug_Design_Praktikum/waehrer_HTS_screening/HTS_experiment/out/docking_results/vina_output/6s1j/0767_docked.pdbqt
 OpenBabel03222221343D

 32 35  0  0  0  0  0  0  0  0999 V2000
   12.9810  -58.8260   36.5530 C   0  0  0  0  0  2  0  0  0  0  0  0
   14.1170  -58.6920   35.7070 N   0  0  0  0  0  0  0  0  0  0  0  0
   14.0200  -58.1340   34.4020 C   0  0  0  0  0  0  0  0  0  0  0  0
   12.8720  -57.7480   33.9960 O   0  0  0  0  0  0  0  0  0  0  0  0
   15.0460  -59.0070   36.0430 H   0  0  0  0  0  0  0  0  0  0  0  0
   15.1810  -57.9960   33.5310 C   0  0  0  0  0  0  0  0  0  0  0  0
   15.5420  -58.8970   32.6530 O   0  0  0  0  0  0  0  0  0  0  0  0
   16.6120  -58.5070   32.0210 N   0  0  0  0  0  0  0  0  0  0  0  0
   16.9960  -57.2970   32.4840 C   0  0  0  0  0  0  0  0  0  0  0  0
   16.0800  -57.0090   33.4250 N   0  0  0  0  0  0  0  0  0  0  0  0
   18.1380  -56.4990   32.0550 C   0  0  0  0  0  0  0  0  0  0  0  0
   19.0330  -56.8010   31.1480 O   0  0  0  0  0  0  0  0  0  0  0  0
   19.9250  -55.8690   31.0040 C   0  0  0  0  0  0  0  0  0  0  0  0
   21.4170  -55.8180   29.8330 Br  0  0  0  0  0  0  0  0  0  0  0  0
   19.6260  -54.8290   31.8860 C   0  0  0  0  0  3  0  0  0  0  0  0
   18.4830  -55.2530   32.5460 C   0  0  0  0  0  3  0  0  0  0  0  0
   13.2100  -58.2660   37.9410 C   0  0  0  0  0  2  0  0  0  0  0  0
   13.7520  -56.9160   37.8840 N   0  0  0  0  0  0  0  0  0  0  0  0
   15.1420  -56.7340   37.9730 C   0  0  0  0  0  0  0  0  0  0  0  0
   15.8280  -57.8110   38.0990 O   0  0  0  0  0  0  0  0  0  0  0  0
   13.1380  -56.0880   37.7770 H   0  0  0  0  0  0  0  0  0  0  0  0
   15.8800  -55.4970   37.9390 C   0  0  0  0  0  0  0  0  0  0  0  0
   16.9350  -55.3750   37.0360 C   0  0  0  0  0  3  0  0  0  0  0  0
   17.6480  -54.2040   36.9750 C   0  0  0  0  0  0  0  0  0  0  0  0
   17.3290  -53.1640   37.7920 C   0  0  0  0  0  0  0  0  0  0  0  0
   18.7110  -54.0460   36.0820 C   0  0  0  0  0  3  0  0  0  0  0  0
   18.0580  -51.9730   37.7270 C   0  0  0  0  0  3  0  0  0  0  0  0
   16.3390  -53.3080   38.6240 O   0  0  0  0  0  0  0  0  0  0  0  0
   19.1030  -51.8140   36.8500 C   0  0  0  0  0  3  0  0  0  0  0  0
   19.4200  -52.8660   36.0290 C   0  0  0  0  0  3  0  0  0  0  0  0
   15.6090  -54.4120   38.7340 C   0  0  0  0  0  0  0  0  0  0  0  0
   14.6820  -54.4210   39.5780 O   0  0  0  0  0  0  0  0  0  0  0  0
  1 17  1  0  0  0  0
  2  5  1  0  0  0  0
  2  1  1  0  0  0  0
  3  2  1  0  0  0  0
  4  3  2  0  0  0  0
  6  3  1  0  0  0  0
  7  6  1  0  0  0  0
  8  9  2  0  0  0  0
  8  7  1  0  0  0  0
  9 10  1  0  0  0  0
 10  6  2  0  0  0  0
 11  9  1  0  0  0  0
 11 16  2  0  0  0  0
 12 11  1  0  0  0  0
 13 12  1  0  0  0  0
 13 15  2  0  0  0  0
 14 13  1  0  0  0  0
 15 16  1  0  0  0  0
 18 17  1  0  0  0  0
 18 19  1  0  0  0  0
 19 20  2  0  0  0  0
 21 18  1  0  0  0  0
 22 19  1  0  0  0  0
 22 31  1  0  0  0  0
 23 22  2  0  0  0  0
 24 23  1  0  0  0  0
 24 25  1  0  0  0  0
 25 28  1  0  0  0  0
 26 24  2  0  0  0  0
 27 25  2  0  0  0  0
 28 31  1  0  0  0  0
 29 27  1  0  0  0  0
 30 26  1  0  0  0  0
 30 29  2  0  0  0  0
 31 32  2  0  0  0  0
M  END
>  <Pose>
1

>  <Score>
-10.362

$$$$
