/Users/jonathanwahrer/Desktop/Msc/3_Semester/Drug_Design_Praktikum/waehrer_HTS_screening/HTS_experiment/out/docking_results/vina_output/6s1j/0776_docked.pdbqt
 OpenBabel03222221353D

 38 41  0  0  1  0  0  0  0  0999 V2000
   17.3180  -57.3660   30.6640 C   0  0  2  0  0  3  0  0  0  0  0  0
   18.6940  -56.7250   30.4410 C   0  0  1  0  0  0  0  0  0  0  0  0
   19.4530  -56.7380   31.7230 C   0  0  0  0  0  2  0  0  0  0  0  0
   18.7120  -55.8870   32.7300 C   0  0  1  0  0  0  0  0  0  0  0  0
   17.3880  -55.6890   32.3890 O   0  0  0  0  0  0  0  0  0  0  0  0
   16.7510  -56.8370   31.9390 C   0  0  0  0  0  2  0  0  0  0  0  0
   18.9090  -56.4970   34.0700 C   0  0  0  0  0  2  0  0  0  0  0  0
   18.1930  -55.6200   35.1100 C   0  0  0  0  0  2  0  0  0  0  0  0
   18.8820  -54.3740   35.1730 N   0  0  0  0  0  0  0  0  0  0  0  0
   19.9200  -54.1810   34.1050 C   0  0  0  0  0  2  0  0  0  0  0  0
   19.3800  -54.5280   32.7570 C   0  0  0  0  0  2  0  0  0  0  0  0
   18.6760  -53.3680   36.0970 C   0  0  0  0  0  0  0  0  0  0  0  0
   19.4540  -52.3140   35.9630 O   0  0  0  0  0  0  0  0  0  0  0  0
   19.4130  -57.3690   29.2990 C   0  0  0  0  0  1  0  0  0  0  0  0
   18.4550  -55.3920   30.0990 O   0  0  0  0  0  0  0  0  0  0  0  0
   18.0430  -54.8740   30.8350 H   0  0  0  0  0  0  0  0  0  0  0  0
   17.3500  -58.7880   30.5400 N   0  0  0  0  0  0  0  0  0  0  0  0
   17.4000  -59.4460   29.3680 C   0  0  0  0  0  3  0  0  0  0  0  0
   17.4300  -60.8150   29.2810 C   0  0  0  0  0  0  0  0  0  0  0  0
   17.5000  -61.6110   27.5540 Br  0  0  0  0  0  0  0  0  0  0  0  0
   17.4080  -61.5670   30.4300 C   0  0  0  0  0  0  0  0  0  0  0  0
   17.3580  -60.9100   31.6000 N   0  0  0  0  0  0  0  0  0  0  0  0
   17.4340  -62.8190   30.3410 O   0  0  0  0  0  0  0  0  0  0  0  0
   17.3300  -59.5870   31.6490 C   0  0  0  0  0  0  0  0  0  0  0  0
   17.3420  -61.4940   32.4630 H   0  0  0  0  0  0  0  0  0  0  0  0
   17.2830  -59.0430   32.7900 O   0  0  0  0  0  0  0  0  0  0  0  0
   17.7620  -53.2700   37.1790 C   0  0  0  0  0  0  0  0  0  0  0  0
   17.1150  -54.4220   37.6630 C   0  0  0  0  0  3  0  0  0  0  0  0
   16.2360  -54.4610   38.6990 C   0  0  0  0  0  0  0  0  0  0  0  0
   15.9590  -53.2330   39.3340 C   0  0  0  0  0  3  0  0  0  0  0  0
   16.5690  -52.1120   38.8860 C   0  0  0  0  0  3  0  0  0  0  0  0
   17.4740  -52.1040   37.8110 C   0  0  0  0  0  3  0  0  0  0  0  0
   15.6250  -55.5980   39.1370 O   0  0  0  0  0  0  0  0  0  0  0  0
   14.3370  -56.0350   39.0540 C   0  0  0  0  0  2  0  0  0  0  0  0
   14.1110  -56.9720   37.9160 C   0  0  0  0  0  2  0  0  0  0  0  0
   12.8250  -57.6480   38.0870 N   0  0  0  0  0  0  0  0  0  0  0  0
   12.0440  -56.9820   38.1770 H   0  0  0  0  0  0  0  0  0  0  0  0
   12.8530  -58.3870   38.7970 H   0  0  0  0  0  0  0  0  0  0  0  0
  1 17  1  1  0  0  0
  1  6  1  0  0  0  0
  2 14  1  6  0  0  0
  2  1  1  0  0  0  0
  2  3  1  0  0  0  0
  4  3  1  6  0  0  0
  4 11  1  0  0  0  0
  4  7  1  0  0  0  0
  5  4  1  0  0  0  0
  6  5  1  0  0  0  0
  7  8  1  0  0  0  0
  8  9  1  0  0  0  0
  9 12  1  0  0  0  0
 10  9  1  0  0  0  0
 11 10  1  0  0  0  0
 12 27  1  0  0  0  0
 13 12  2  0  0  0  0
 15  2  1  0  0  0  0
 15 16  1  0  0  0  0
 17 24  1  0  0  0  0
 18 17  1  0  0  0  0
 19 18  2  0  0  0  0
 19 21  1  0  0  0  0
 20 19  1  0  0  0  0
 21 22  1  0  0  0  0
 22 24  1  0  0  0  0
 22 25  1  0  0  0  0
 23 21  2  0  0  0  0
 24 26  2  0  0  0  0
 27 28  2  0  0  0  0
 27 32  1  0  0  0  0
 28 29  1  0  0  0  0
 29 33  1  0  0  0  0
 29 30  2  0  0  0  0
 31 30  1  0  0  0  0
 32 31  2  0  0  0  0
 34 33  1  0  0  0  0
 35 36  1  0  0  0  0
 35 34  1  0  0  0  0
 36 37  1  0  0  0  0
 36 38  1  0  0  0  0
M  END
>  <Pose>
1

>  <Score>
-10.334

$$$$
