/Users/jonathanwahrer/Desktop/Msc/3_Semester/Drug_Design_Praktikum/waehrer_HTS_screening/HTS_experiment/out/docking_results/vina_output/6s1j/0784_docked.pdbqt
 OpenBabel03222221363D

 39 42  0  0  1  0  0  0  0  0999 V2000
   15.3970  -59.3220   34.3710 C   0  0  1  0  0  3  0  0  0  0  0  0
   14.7450  -57.9340   34.2740 C   0  0  2  0  0  0  0  0  0  0  0  0
   14.9040  -57.3510   35.6850 C   0  0  0  0  0  2  0  0  0  0  0  0
   14.3790  -58.3100   36.7170 C   0  0  2  0  0  0  0  0  0  0  0  0
   13.7390  -59.3490   36.0840 O   0  0  0  0  0  0  0  0  0  0  0  0
   14.5530  -60.1300   35.2690 C   0  0  0  0  0  2  0  0  0  0  0  0
   13.3170  -57.5510   37.5000 C   0  0  0  0  0  2  0  0  0  0  0  0
   13.9690  -56.7520   38.5990 C   0  0  0  0  0  2  0  0  0  0  0  0
   15.3870  -56.5120   38.2860 N   0  0  0  0  0  0  0  0  0  0  0  0
   16.2230  -57.6760   38.3000 C   0  0  0  0  0  2  0  0  0  0  0  0
   15.3930  -58.8010   37.6880 C   0  0  0  0  0  2  0  0  0  0  0  0
   15.8780  -55.2480   37.9590 C   0  0  0  0  0  0  0  0  0  0  0  0
   15.0850  -54.2320   37.8680 O   0  0  0  0  0  0  0  0  0  0  0  0
   13.3090  -58.0340   33.8670 C   0  0  0  0  0  1  0  0  0  0  0  0
   15.4000  -57.1130   33.3820 O   0  0  0  0  0  0  0  0  0  0  0  0
   16.2360  -57.5560   33.0880 H   0  0  0  0  0  0  0  0  0  0  0  0
   15.7810  -59.8350   33.1180 N   0  0  0  0  0  0  0  0  0  0  0  0
   15.0330  -60.6160   32.3350 C   0  0  0  0  0  3  0  0  0  0  0  0
   15.4880  -61.0830   31.1020 C   0  0  0  0  0  0  0  0  0  0  0  0
   14.3460  -62.1870   30.0700 Br  0  0  0  0  0  0  0  0  0  0  0  0
   16.7470  -60.7380   30.6640 C   0  0  0  0  0  0  0  0  0  0  0  0
   17.4890  -59.9520   31.4630 N   0  0  0  0  0  0  0  0  0  0  0  0
   17.1880  -61.1520   29.5420 O   0  0  0  0  0  0  0  0  0  0  0  0
   17.0230  -59.5160   32.6460 C   0  0  0  0  0  0  0  0  0  0  0  0
   18.4600  -59.6590   31.1720 H   0  0  0  0  0  0  0  0  0  0  0  0
   17.7690  -58.7810   33.3490 O   0  0  0  0  0  0  0  0  0  0  0  0
   17.2840  -54.9800   37.7010 C   0  0  1  0  0  3  0  0  0  0  0  0
   17.4900  -54.5660   36.3340 N   0  0  0  0  0  0  0  0  0  0  0  0
   17.8280  -55.3420   35.2320 C   0  0  0  0  0  0  0  0  0  0  0  0
   18.0300  -56.5730   35.2450 O   0  0  0  0  0  0  0  0  0  0  0  0
   17.9820  -54.7110   33.8600 C   0  0  0  0  0  1  0  0  0  0  0  0
   17.3640  -53.5200   36.1690 H   0  0  0  0  0  0  0  0  0  0  0  0
   17.8410  -53.8710   38.6480 C   0  0  0  0  0  2  0  0  0  0  0  0
   18.4970  -52.8160   37.8540 C   0  0  0  0  0  0  0  0  0  0  0  0
   19.6300  -52.8500   37.1720 N   0  0  0  0  0  0  0  0  0  0  0  0
   19.8860  -51.6550   36.5710 C   0  0  0  0  0  3  0  0  0  0  0  0
   18.8620  -50.8450   36.8980 N   0  0  0  0  0  0  0  0  0  0  0  0
   18.0040  -51.5340   37.6800 C   0  0  0  0  0  3  0  0  0  0  0  0
   18.7900  -49.8500   36.5730 H   0  0  0  0  0  0  0  0  0  0  0  0
  1 17  1  6  0  0  0
  1  6  1  0  0  0  0
  2 14  1  6  0  0  0
  2  1  1  0  0  0  0
  2  3  1  0  0  0  0
  4  3  1  6  0  0  0
  4  7  1  0  0  0  0
  4 11  1  0  0  0  0
  5  4  1  0  0  0  0
  6  5  1  0  0  0  0
  7  8  1  0  0  0  0
  9 10  1  0  0  0  0
  9  8  1  0  0  0  0
 11 10  1  0  0  0  0
 12  9  1  0  0  0  0
 13 12  2  0  0  0  0
 15  2  1  0  0  0  0
 16 15  1  0  0  0  0
 18 17  1  0  0  0  0
 19 18  2  0  0  0  0
 20 19  1  0  0  0  0
 21 19  1  0  0  0  0
 21 22  1  0  0  0  0
 22 24  1  0  0  0  0
 23 21  2  0  0  0  0
 24 17  1  0  0  0  0
 24 26  2  0  0  0  0
 25 22  1  0  0  0  0
 27 12  1  0  0  0  0
 27 33  1  1  0  0  0
 28 27  1  0  0  0  0
 29 30  2  0  0  0  0
 29 28  1  0  0  0  0
 31 29  1  0  0  0  0
 32 28  1  0  0  0  0
 34 33  1  0  0  0  0
 35 34  1  0  0  0  0
 36 37  1  0  0  0  0
 36 35  2  0  0  0  0
 37 38  1  0  0  0  0
 38 34  2  0  0  0  0
 39 37  1  0  0  0  0
M  END
>  <Pose>
1

>  <Score>
-8.322

$$$$
