/Users/jonathanwahrer/Desktop/Msc/3_Semester/Drug_Design_Praktikum/waehrer_HTS_screening/HTS_experiment/out/docking_results/vina_output/6s1j/0786_docked.pdbqt
 OpenBabel03222221363D

 25 28  0  0  1  0  0  0  0  0999 V2000
   14.4530  -57.2940   36.5360 N   0  0  0  0  0  0  0  0  0  0  0  0
   13.8080  -58.5280   36.3570 C   0  0  0  0  0  0  0  0  0  0  0  0
   13.8840  -59.4070   37.2410 O   0  0  0  0  0  0  0  0  0  0  0  0
   14.3840  -56.5720   35.7950 H   0  0  0  0  0  0  0  0  0  0  0  0
   15.2030  -57.0490   37.7480 C   0  0  0  0  0  2  0  0  0  0  0  0
   15.9710  -55.7820   37.6580 C   0  0  0  0  0  0  0  0  0  0  0  0
   15.8010  -54.6640   38.3880 N   0  0  0  0  0  0  0  0  0  0  0  0
   16.6940  -53.7360   38.0020 C   0  0  0  0  0  0  0  0  0  0  0  0
   17.4480  -54.2560   37.0170 N   0  0  0  0  0  0  0  0  0  0  0  0
   16.9150  -52.4370   38.4510 C   0  0  0  0  0  3  0  0  0  0  0  0
   18.4290  -53.4850   36.4680 C   0  0  0  0  0  3  0  0  0  0  0  0
   17.0130  -55.5110   36.7970 C   0  0  0  0  0  3  0  0  0  0  0  0
   18.6720  -52.1960   36.8900 C   0  0  0  0  0  0  0  0  0  0  0  0
   20.0530  -51.1160   36.1170 Br  0  0  0  0  0  0  0  0  0  0  0  0
   17.9020  -51.6590   37.8990 C   0  0  0  0  0  3  0  0  0  0  0  0
   13.0380  -58.7990   35.1290 C   0  0  1  0  0  3  0  0  0  0  0  0
   13.5840  -57.9990   33.9740 C   0  0  0  0  0  2  0  0  0  0  0  0
   14.9640  -58.4080   33.7920 N   0  0  0  0  0  0  0  0  0  0  0  0
   15.3170  -59.6900   33.9830 C   0  0  0  0  0  0  0  0  0  0  0  0
   16.0650  -57.7410   33.4440 C   0  0  0  0  0  0  0  0  0  0  0  0
   16.6410  -59.7700   33.7450 N   0  0  0  0  0  0  0  0  0  0  0  0
   14.3920  -60.7640   34.3770 C   0  0  0  0  0  2  0  0  0  0  0  0
   17.0960  -58.5960   33.4200 N   0  0  0  0  0  0  0  0  0  0  0  0
   13.0630  -60.2760   34.8340 C   0  0  0  0  0  2  0  0  0  0  0  0
   16.2140  -56.2880   33.1220 C   0  0  0  0  0  1  0  0  0  0  0  0
  1  5  1  0  0  0  0
  2  1  1  0  0  0  0
  2  3  2  0  0  0  0
  4  1  1  0  0  0  0
  6  5  1  0  0  0  0
  6  7  1  0  0  0  0
  8  7  2  0  0  0  0
  8 10  1  0  0  0  0
  9  8  1  0  0  0  0
 11 13  2  0  0  0  0
 11  9  1  0  0  0  0
 12  9  1  0  0  0  0
 12  6  2  0  0  0  0
 13 15  1  0  0  0  0
 14 13  1  0  0  0  0
 15 10  2  0  0  0  0
 16  2  1  1  0  0  0
 17 16  1  0  0  0  0
 18 17  1  0  0  0  0
 18 19  1  0  0  0  0
 19 22  1  0  0  0  0
 20 18  1  0  0  0  0
 21 19  2  0  0  0  0
 22 24  1  0  0  0  0
 23 20  2  0  0  0  0
 23 21  1  0  0  0  0
 24 16  1  0  0  0  0
 25 20  1  0  0  0  0
M  END
>  <Pose>
1

>  <Score>
-8.744

$$$$
