/Users/jonathanwahrer/Desktop/Msc/3_Semester/Drug_Design_Praktikum/waehrer_HTS_screening/HTS_experiment/out/docking_results/vina_output/6s1j/0800_docked.pdbqt
 OpenBabel03222221363D

 29 32  0  0  1  0  0  0  0  0999 V2000
   19.2460  -54.4230   33.3820 C   0  0  0  0  0  0  0  0  0  0  0  0
   19.8350  -53.8480   32.4300 O   0  0  0  0  0  0  0  0  0  0  0  0
   18.0260  -55.0040   33.1350 O   0  0  0  0  0  0  0  0  0  0  0  0
   17.8710  -56.3850   32.8660 C   0  0  0  0  0  2  0  0  0  0  0  0
   16.7610  -56.9090   33.7010 C   0  0  0  0  0  0  0  0  0  0  0  0
   16.9650  -57.3340   34.9600 N   0  0  0  0  0  0  0  0  0  0  0  0
   15.9600  -57.8140   35.7310 C   0  0  1  0  0  3  0  0  0  0  0  0
   14.7000  -57.8860   35.2570 N   0  0  0  0  0  0  0  0  0  0  0  0
   16.2240  -58.2380   37.0190 C   0  0  0  0  0  3  0  0  0  0  0  0
   13.6880  -58.3580   36.0040 C   0  0  0  0  0  3  0  0  0  0  0  0
   14.4440  -57.4700   33.9960 C   0  0  0  0  0  0  0  0  0  0  0  0
   13.9450  -58.7830   37.2900 C   0  0  0  0  0  0  0  0  0  0  0  0
   12.5040  -59.4550   38.3490 Br  0  0  0  0  0  0  0  0  0  0  0  0
   15.2230  -58.7320   37.8250 C   0  0  0  0  0  3  0  0  0  0  0  0
   15.4820  -56.9740   33.2000 C   0  0  0  0  0  2  0  0  0  0  0  0
   13.2850  -57.5330   33.5530 O   0  0  0  0  0  0  0  0  0  0  0  0
   19.9280  -54.4240   34.7020 C   0  0  0  0  0  2  0  0  0  0  0  0
   19.3220  -53.5210   35.6350 N   0  0  0  0  0  0  0  0  0  0  0  0
   19.6750  -52.1550   35.8470 C   0  0  0  0  0  0  0  0  0  0  0  0
   20.5890  -51.5380   35.2280 O   0  0  0  0  0  0  0  0  0  0  0  0
   18.8240  -51.6310   36.8600 N   0  0  0  0  0  0  0  0  0  0  0  0
   18.0360  -52.7060   37.4080 C   0  0  0  0  0  0  0  0  0  0  0  0
   18.8000  -50.6340   37.1330 H   0  0  0  0  0  0  0  0  0  0  0  0
   18.4500  -53.0830   38.8050 C   0  0  0  0  0  2  0  0  0  0  0  0
   16.5900  -52.3760   37.5630 C   0  0  0  0  0  2  0  0  0  0  0  0
   18.2480  -53.8480   36.5200 C   0  0  0  0  0  0  0  0  0  0  0  0
   17.2550  -53.8140   39.3320 C   0  0  0  0  0  2  0  0  0  0  0  0
   16.0940  -53.5140   38.4290 C   0  0  0  0  0  2  0  0  0  0  0  0
   17.6320  -54.9400   36.4920 O   0  0  0  0  0  0  0  0  0  0  0  0
  1 17  1  0  0  0  0
  2  1  2  0  0  0  0
  3  1  1  0  0  0  0
  4  3  1  0  0  0  0
  4  5  1  0  0  0  0
  5  6  2  0  0  0  0
  6  7  1  0  0  0  0
  7  9  1  6  0  0  0
  8  7  1  0  0  0  0
  8 10  1  0  0  0  0
  9 14  2  0  0  0  0
 10 12  2  0  0  0  0
 11  8  1  0  0  0  0
 12 14  1  0  0  0  0
 12 13  1  0  0  0  0
 15  5  1  0  0  0  0
 15 11  1  0  0  0  0
 16 11  2  0  0  0  0
 17 18  1  0  0  0  0
 18 19  1  0  0  0  0
 18 26  1  0  0  0  0
 19 21  1  0  0  0  0
 20 19  2  0  0  0  0
 21 23  1  0  0  0  0
 21 22  1  0  0  0  0
 22 25  1  0  0  0  0
 22 24  1  0  0  0  0
 24 27  1  0  0  0  0
 25 28  1  0  0  0  0
 26 22  1  0  0  0  0
 28 27  1  0  0  0  0
 29 26  2  0  0  0  0
M  END
>  <Pose>
1

>  <Score>
-9.958

$$$$
