/Users/jonathanwahrer/Desktop/Msc/3_Semester/Drug_Design_Praktikum/waehrer_HTS_screening/HTS_experiment/out/docking_results/vina_output/6s1j/0803_docked.pdbqt
 OpenBabel03222221373D

 31 34  0  0  0  0  0  0  0  0999 V2000
   17.7500  -55.1130   32.6410 Br  0  0  0  0  0  0  0  0  0  0  0  0
   16.6820  -56.0020   33.9360 C   0  0  0  0  0  0  0  0  0  0  0  0
   15.7640  -56.9430   33.6230 C   0  0  0  0  0  2  0  0  0  0  0  0
   15.0710  -57.6340   34.5340 N   0  0  0  0  0  0  0  0  0  0  0  0
   15.2960  -57.3840   35.8230 C   0  0  0  0  0  0  0  0  0  0  0  0
   14.5960  -58.0700   36.7700 N   0  0  0  0  0  0  0  0  0  0  0  0
   13.6870  -58.9880   36.4740 C   0  0  0  0  0  0  0  0  0  0  0  0
   13.4370  -59.2650   35.1490 C   0  0  0  0  0  0  0  0  0  0  0  0
   12.4960  -60.2050   34.7780 C   0  0  0  0  0  3  0  0  0  0  0  0
   11.7520  -60.9240   35.7150 C   0  0  0  0  0  3  0  0  0  0  0  0
   12.0110  -60.6380   37.0380 C   0  0  0  0  0  3  0  0  0  0  0  0
   12.9530  -59.6970   37.4150 C   0  0  0  0  0  3  0  0  0  0  0  0
   14.1620  -58.5550   34.2000 C   0  0  0  0  0  0  0  0  0  0  0  0
   13.9430  -58.7970   32.9920 O   0  0  0  0  0  0  0  0  0  0  0  0
   16.2100  -56.4450   36.1630 N   0  0  0  0  0  0  0  0  0  0  0  0
   16.9330  -55.7200   35.3200 C   0  0  0  0  0  0  0  0  0  0  0  0
   16.2970  -56.3410   37.2250 H   0  0  0  0  0  0  0  0  0  0  0  0
   17.7850  -54.6940   35.5830 N   0  0  0  0  0  0  0  0  0  0  0  0
   18.0230  -55.1530   36.8480 H   0  0  0  0  0  0  0  0  0  0  0  0
   18.6250  -53.6840   35.8420 C   0  0  0  0  0  0  0  0  0  0  0  0
   18.4150  -52.8860   36.9740 C   0  0  0  0  0  0  0  0  0  0  0  0
   19.0940  -51.7240   37.1390 C   0  0  0  0  0  3  0  0  0  0  0  0
   20.0060  -51.3100   36.1980 C   0  0  0  0  0  3  0  0  0  0  0  0
   20.2630  -52.0520   35.0670 C   0  0  0  0  0  3  0  0  0  0  0  0
   19.5600  -53.2250   34.9210 C   0  0  0  0  0  3  0  0  0  0  0  0
   17.5770  -53.3350   38.0920 C   0  0  0  0  0  0  0  0  0  0  0  0
   18.1390  -53.9550   39.0300 O   0  0  0  0  0  0  0  0  0  0  0  0
   16.2300  -53.1420   38.2020 O   0  0  0  0  0  0  0  0  0  0  0  0
   15.4550  -53.7150   39.2370 C   0  0  0  0  0  2  0  0  0  0  0  0
   14.6610  -54.9120   38.7050 C   0  0  0  0  0  2  0  0  0  0  0  0
   14.8790  -56.0850   39.6300 C   0  0  0  0  0  1  0  0  0  0  0  0
  1  2  1  0  0  0  0
  2 16  2  0  0  0  0
  3  2  1  0  0  0  0
  3  4  1  0  0  0  0
  4  5  1  0  0  0  0
  5 15  1  0  0  0  0
  5  6  2  0  0  0  0
  7  6  1  0  0  0  0
  7 12  1  0  0  0  0
  8  7  2  0  0  0  0
  9  8  1  0  0  0  0
  9 10  2  0  0  0  0
 10 11  1  0  0  0  0
 11 12  2  0  0  0  0
 13  4  1  0  0  0  0
 13  8  1  0  0  0  0
 14 13  2  0  0  0  0
 15 17  1  0  0  0  0
 16 18  1  0  0  0  0
 16 15  1  0  0  0  0
 18 20  1  0  0  0  0
 18 19  1  0  0  0  0
 20 21  1  0  0  0  0
 21 22  2  0  0  0  0
 21 26  1  0  0  0  0
 23 22  1  0  0  0  0
 24 23  2  0  0  0  0
 25 24  1  0  0  0  0
 25 20  2  0  0  0  0
 26 28  1  0  0  0  0
 26 27  2  0  0  0  0
 28 29  1  0  0  0  0
 30 29  1  0  0  0  0
 30 31  1  0  0  0  0
M  END
>  <Pose>
1

>  <Score>
-9.196

$$$$
