/Users/jonathanwahrer/Desktop/Msc/3_Semester/Drug_Design_Praktikum/waehrer_HTS_screening/HTS_experiment/out/docking_results/vina_output/6s1j/0833_docked.pdbqt
 OpenBabel03222221373D

 28 31  0  0  1  0  0  0  0  0999 V2000
   17.0450  -55.7740   32.7670 C   0  0  1  0  0  0  0  0  0  0  0  0
   17.1740  -56.8530   33.7360 N   0  0  0  0  0  0  0  0  0  0  0  0
   17.8000  -58.1300   33.4130 C   0  0  0  0  0  2  0  0  0  0  0  0
   17.5540  -59.1790   34.4340 C   0  0  0  0  0  2  0  0  0  0  0  0
   16.1020  -59.3600   34.7920 C   0  0  0  0  0  2  0  0  0  0  0  0
   15.8780  -58.5430   36.0510 C   0  0  0  0  0  2  0  0  0  0  0  0
   16.0430  -57.1260   35.9140 C   0  0  0  0  0  3  0  0  0  0  0  0
   16.5990  -56.3960   34.9200 C   0  0  0  0  0  0  0  0  0  0  0  0
   16.6660  -54.9920   35.0080 N   0  0  0  0  0  4  0  0  0  0  0  0
   17.0500  -54.6000   33.6830 C   0  0  0  0  0  2  0  0  0  0  0  0
   15.7580  -54.5290   35.2440 H   0  0  0  0  0  0  0  0  0  0  0  0
   18.1740  -55.7930   31.8160 C   0  0  0  0  0  0  0  0  0  0  0  0
   18.0400  -56.5430   30.6440 C   0  0  0  0  0  3  0  0  0  0  0  0
   19.1360  -56.5730   29.7820 C   0  0  0  0  0  3  0  0  0  0  0  0
   20.2910  -55.8920   30.0900 C   0  0  0  0  0  0  0  0  0  0  0  0
   21.7720  -55.9590   28.8790 Br  0  0  0  0  0  0  0  0  0  0  0  0
   20.3870  -55.1580   31.2600 C   0  0  0  0  0  3  0  0  0  0  0  0
   19.3100  -55.1150   32.1290 C   0  0  0  0  0  3  0  0  0  0  0  0
   15.8630  -55.9620   32.0990 O   0  0  0  0  0  0  0  0  0  0  0  0
   15.9670  -56.2810   31.1780 H   0  0  0  0  0  0  0  0  0  0  0  0
   17.6750  -54.7030   35.9760 C   0  0  0  0  0  0  0  0  0  0  0  0
   17.3340  -54.3030   37.2570 C   0  0  0  0  0  0  0  0  0  0  0  0
   18.3880  -53.9710   38.0990 C   0  0  0  0  0  3  0  0  0  0  0  0
   19.7200  -54.0190   37.7320 C   0  0  0  0  0  3  0  0  0  0  0  0
   20.0180  -54.4330   36.4160 C   0  0  0  0  0  3  0  0  0  0  0  0
   18.9860  -54.7540   35.6100 C   0  0  0  0  0  3  0  0  0  0  0  0
   16.0260  -54.2540   37.6320 O   0  0  0  0  0  0  0  0  0  0  0  0
   15.6380  -53.7730   38.8930 C   0  0  0  0  0  1  0  0  0  0  0  0
  1 19  1  6  0  0  0
  1 10  1  0  0  0  0
  1  2  1  0  0  0  0
  2  8  1  0  0  0  0
  3  2  1  0  0  0  0
  3  4  1  0  0  0  0
  4  5  1  0  0  0  0
  5  6  1  0  0  0  0
  7  6  1  0  0  0  0
  8  9  1  0  0  0  0
  8  7  2  0  0  0  0
  9 11  1  0  0  0  0
  9 21  1  0  0  0  0
 10  9  1  0  0  0  0
 12 18  1  0  0  0  0
 12  1  1  0  0  0  0
 13 12  2  0  0  0  0
 14 15  2  0  0  0  0
 14 13  1  0  0  0  0
 15 17  1  0  0  0  0
 16 15  1  0  0  0  0
 17 18  2  0  0  0  0
 20 19  1  0  0  0  0
 21 22  1  0  0  0  0
 22 27  1  0  0  0  0
 22 23  2  0  0  0  0
 24 23  1  0  0  0  0
 25 24  2  0  0  0  0
 26 21  2  0  0  0  0
 26 25  1  0  0  0  0
 27 28  1  0  0  0  0
M  END
>  <Pose>
1

>  <Score>
-8.113

$$$$
