/Users/jonathanwahrer/Desktop/Msc/3_Semester/Drug_Design_Praktikum/waehrer_HTS_screening/HTS_experiment/out/docking_results/vina_output/6s1j/0834_docked.pdbqt
 OpenBabel03222221383D

 28 31  0  0  1  0  0  0  0  0999 V2000
   17.2380  -56.4620   34.1160 C   0  0  2  0  0  0  0  0  0  0  0  0
   16.2020  -57.3540   33.7040 N   0  0  0  0  0  0  0  0  0  0  0  0
   14.8300  -57.0490   33.4420 C   0  0  0  0  0  3  0  0  0  0  0  0
   13.8080  -57.9530   34.0150 C   0  0  0  0  0  3  0  0  0  0  0  0
   14.2930  -59.1330   34.7760 C   0  0  0  0  0  2  0  0  0  0  0  0
   14.8890  -60.2050   33.8620 C   0  0  0  0  0  2  0  0  0  0  0  0
   16.3240  -59.8390   33.6550 C   0  0  0  0  0  3  0  0  0  0  0  0
   16.8740  -58.6380   33.5890 C   0  0  0  0  0  0  0  0  0  0  0  0
   18.2650  -58.4070   33.4040 N   0  0  0  0  0  4  0  0  0  0  0  0
   18.4760  -57.3380   34.3330 C   0  0  0  0  0  2  0  0  0  0  0  0
   18.7750  -59.2850   33.6770 H   0  0  0  0  0  0  0  0  0  0  0  0
   17.0630  -55.7460   35.3780 C   0  0  0  0  0  0  0  0  0  0  0  0
   16.6160  -56.2320   36.5610 C   0  0  0  0  0  3  0  0  0  0  0  0
   16.5000  -55.4360   37.6930 C   0  0  0  0  0  3  0  0  0  0  0  0
   16.8450  -54.1020   37.6420 C   0  0  0  0  0  0  0  0  0  0  0  0
   16.7010  -52.9840   39.1870 Br  0  0  0  0  0  0  0  0  0  0  0  0
   17.3000  -53.6060   36.4440 C   0  0  0  0  0  3  0  0  0  0  0  0
   17.4190  -54.3820   35.3200 C   0  0  0  0  0  3  0  0  0  0  0  0
   17.5110  -55.4750   33.1490 O   0  0  0  0  0  0  0  0  0  0  0  0
   16.7480  -54.8450   33.2050 H   0  0  0  0  0  0  0  0  0  0  0  0
   18.4980  -58.0470   32.0670 C   0  0  0  0  0  0  0  0  0  0  0  0
   19.6870  -57.3920   31.6940 C   0  0  0  0  0  3  0  0  0  0  0  0
   19.9420  -57.0240   30.4010 C   0  0  0  0  0  3  0  0  0  0  0  0
   19.0320  -57.2840   29.3980 C   0  0  0  0  0  0  0  0  0  0  0  0
   17.8660  -57.9210   29.7370 C   0  0  0  0  0  3  0  0  0  0  0  0
   17.6100  -58.2920   31.0410 C   0  0  0  0  0  3  0  0  0  0  0  0
   19.3040  -56.9020   28.0710 O   0  0  0  0  0  0  0  0  0  0  0  0
   20.6210  -56.9290   27.5880 C   0  0  0  0  0  1  0  0  0  0  0  0
  1 19  1  6  0  0  0
  1 10  1  0  0  0  0
  1 12  1  0  0  0  0
  2  1  1  0  0  0  0
  3  2  1  0  0  0  0
  3  4  2  0  0  0  0
  4  5  1  0  0  0  0
  6  5  1  0  0  0  0
  7  6  1  0  0  0  0
  8  7  2  0  0  0  0
  8  2  1  0  0  0  0
  9  8  1  0  0  0  0
  9 11  1  0  0  0  0
  9 10  1  0  0  0  0
 12 13  1  0  0  0  0
 13 14  2  0  0  0  0
 15 14  1  0  0  0  0
 15 16  1  0  0  0  0
 17 15  2  0  0  0  0
 18 12  2  0  0  0  0
 18 17  1  0  0  0  0
 19 20  1  0  0  0  0
 21  9  1  0  0  0  0
 22 21  1  0  0  0  0
 23 22  2  0  0  0  0
 24 25  2  0  0  0  0
 24 23  1  0  0  0  0
 25 26  1  0  0  0  0
 26 21  2  0  0  0  0
 27 24  1  0  0  0  0
 28 27  1  0  0  0  0
M  END
>  <Pose>
1

>  <Score>
-8.508

$$$$
