/Users/jonathanwahrer/Desktop/Msc/3_Semester/Drug_Design_Praktikum/waehrer_HTS_screening/HTS_experiment/out/docking_results/vina_output/6s1j/0835_docked.pdbqt
 OpenBabel03222221383D

 27 30  0  0  1  0  0  0  0  0999 V2000
   17.7610  -57.0350   33.4100 C   0  0  2  0  0  0  0  0  0  0  0  0
   18.4410  -55.8020   33.7430 N   0  0  0  0  0  0  0  0  0  0  0  0
   18.8530  -55.0940   34.9370 C   0  0  0  0  0  2  0  0  0  0  0  0
   20.1630  -54.3580   34.7420 C   0  0  0  0  0  2  0  0  0  0  0  0
   20.0000  -53.4060   33.6060 C   0  0  0  0  0  2  0  0  0  0  0  0
   19.4500  -54.0750   32.4080 C   0  0  0  0  0  3  0  0  0  0  0  0
   18.7230  -55.1930   32.4840 C   0  0  0  0  0  0  0  0  0  0  0  0
   18.1240  -55.9090   31.4270 N   0  0  0  0  0  4  0  0  0  0  0  0
   17.0730  -56.6790   32.1230 C   0  0  0  0  0  2  0  0  0  0  0  0
   17.5460  -55.2570   30.8020 H   0  0  0  0  0  0  0  0  0  0  0  0
   16.8040  -57.4740   34.4550 C   0  0  0  0  0  0  0  0  0  0  0  0
   15.4500  -57.2910   34.2680 C   0  0  0  0  0  3  0  0  0  0  0  0
   14.5010  -57.6900   35.2080 C   0  0  0  0  0  3  0  0  0  0  0  0
   14.9310  -58.2910   36.3690 C   0  0  0  0  0  0  0  0  0  0  0  0
   13.6350  -58.8390   37.6770 Br  0  0  0  0  0  0  0  0  0  0  0  0
   16.2810  -58.4800   36.5710 C   0  0  0  0  0  3  0  0  0  0  0  0
   17.2100  -58.0790   35.6290 C   0  0  0  0  0  3  0  0  0  0  0  0
   18.6390  -58.0820   33.1540 O   0  0  0  0  0  0  0  0  0  0  0  0
   19.2360  -58.1490   33.9390 H   0  0  0  0  0  0  0  0  0  0  0  0
   18.9470  -56.7430   30.6780 C   0  0  0  0  0  0  0  0  0  0  0  0
   18.4810  -57.7770   29.9050 C   0  0  0  0  0  0  0  0  0  0  0  0
   19.3670  -58.5890   29.1930 C   0  0  0  0  0  3  0  0  0  0  0  0
   20.7200  -58.3730   29.2490 C   0  0  0  0  0  3  0  0  0  0  0  0
   21.1970  -57.3360   30.0210 C   0  0  0  0  0  3  0  0  0  0  0  0
   20.3210  -56.5420   30.7180 C   0  0  0  0  0  3  0  0  0  0  0  0
   17.1360  -58.0650   29.7890 O   0  0  0  0  0  0  0  0  0  0  0  0
   16.6950  -59.1910   29.1060 C   0  0  0  0  0  1  0  0  0  0  0  0
  1 18  1  6  0  0  0
  1  2  1  0  0  0  0
  1 11  1  0  0  0  0
  2  3  1  0  0  0  0
  4  3  1  0  0  0  0
  5  4  1  0  0  0  0
  6  7  2  0  0  0  0
  6  5  1  0  0  0  0
  7  2  1  0  0  0  0
  8  9  1  0  0  0  0
  8  7  1  0  0  0  0
  9  1  1  0  0  0  0
 10  8  1  0  0  0  0
 11 17  1  0  0  0  0
 12 11  2  0  0  0  0
 12 13  1  0  0  0  0
 13 14  2  0  0  0  0
 14 16  1  0  0  0  0
 14 15  1  0  0  0  0
 17 16  2  0  0  0  0
 18 19  1  0  0  0  0
 20 25  1  0  0  0  0
 20  8  1  0  0  0  0
 21 20  2  0  0  0  0
 22 23  2  0  0  0  0
 22 21  1  0  0  0  0
 23 24  1  0  0  0  0
 24 25  2  0  0  0  0
 26 21  1  0  0  0  0
 27 26  1  0  0  0  0
M  END
>  <Pose>
1

>  <Score>
-7.854

$$$$
