/Users/jonathanwahrer/Desktop/Msc/3_Semester/Drug_Design_Praktikum/waehrer_HTS_screening/HTS_experiment/out/docking_results/vina_output/6s1j/0836_docked.pdbqt
 OpenBabel03222221383D

 27 30  0  0  1  0  0  0  0  0999 V2000
   17.2220  -58.3000   33.9220 C   0  0  2  0  0  0  0  0  0  0  0  0
   15.8770  -57.8430   34.1700 N   0  0  0  0  0  0  0  0  0  0  0  0
   14.7640  -57.3800   33.3520 C   0  0  0  0  0  2  0  0  0  0  0  0
   13.4230  -57.6600   33.9080 C   0  0  0  0  0  2  0  0  0  0  0  0
   13.3950  -58.4840   35.1710 C   0  0  0  0  0  2  0  0  0  0  0  0
   14.5150  -58.2060   36.0650 C   0  0  0  0  0  3  0  0  0  0  0  0
   15.7030  -57.8990   35.5780 C   0  0  0  0  0  0  0  0  0  0  0  0
   16.9510  -57.5840   36.1870 N   0  0  0  0  0  4  0  0  0  0  0  0
   17.9290  -57.9570   35.2120 C   0  0  0  0  0  2  0  0  0  0  0  0
   17.0310  -58.1960   37.0440 H   0  0  0  0  0  0  0  0  0  0  0  0
   17.8610  -57.7170   32.7440 C   0  0  0  0  0  0  0  0  0  0  0  0
   17.7890  -58.3550   31.5240 C   0  0  0  0  0  3  0  0  0  0  0  0
   18.3730  -57.8510   30.3800 C   0  0  0  0  0  3  0  0  0  0  0  0
   19.0720  -56.6590   30.4050 C   0  0  0  0  0  0  0  0  0  0  0  0
   19.8920  -55.9440   28.8380 Br  0  0  0  0  0  0  0  0  0  0  0  0
   19.1540  -56.0080   31.6170 C   0  0  0  0  0  3  0  0  0  0  0  0
   18.5650  -56.5190   32.7590 C   0  0  0  0  0  3  0  0  0  0  0  0
   17.1550  -59.6970   33.7410 O   0  0  0  0  0  0  0  0  0  0  0  0
   17.9550  -60.0650   34.1910 H   0  0  0  0  0  0  0  0  0  0  0  0
   16.9510  -56.2460   36.5560 C   0  0  0  0  0  0  0  0  0  0  0  0
   16.2620  -55.8240   37.6690 C   0  0  0  0  0  3  0  0  0  0  0  0
   16.2630  -54.4690   38.0410 C   0  0  0  0  0  3  0  0  0  0  0  0
   16.9410  -53.5280   37.3190 C   0  0  0  0  0  0  0  0  0  0  0  0
   17.6450  -53.9630   36.1800 C   0  0  0  0  0  3  0  0  0  0  0  0
   17.6250  -55.3000   35.8420 C   0  0  0  0  0  3  0  0  0  0  0  0
   16.9850  -52.1700   37.6290 O   0  0  0  0  0  0  0  0  0  0  0  0
   18.1100  -51.3530   37.6030 C   0  0  0  0  0  1  0  0  0  0  0  0
  1 18  1  6  0  0  0
  1  2  1  0  0  0  0
  1  9  1  0  0  0  0
  2  7  1  0  0  0  0
  3  4  1  0  0  0  0
  3  2  1  0  0  0  0
  4  5  1  0  0  0  0
  5  6  1  0  0  0  0
  7  6  2  0  0  0  0
  7  8  1  0  0  0  0
  8 20  1  0  0  0  0
  8 10  1  0  0  0  0
  9  8  1  0  0  0  0
 11 17  1  0  0  0  0
 11  1  1  0  0  0  0
 12 11  2  0  0  0  0
 13 14  2  0  0  0  0
 13 12  1  0  0  0  0
 14 16  1  0  0  0  0
 15 14  1  0  0  0  0
 16 17  2  0  0  0  0
 18 19  1  0  0  0  0
 20 21  1  0  0  0  0
 21 22  2  0  0  0  0
 23 26  1  0  0  0  0
 23 22  1  0  0  0  0
 24 23  2  0  0  0  0
 25 24  1  0  0  0  0
 25 20  2  0  0  0  0
 27 26  1  0  0  0  0
M  END
>  <Pose>
1

>  <Score>
-8.122

$$$$
