/Users/jonathanwahrer/Desktop/Msc/3_Semester/Drug_Design_Praktikum/waehrer_HTS_screening/HTS_experiment/out/docking_results/vina_output/6s1j/0847_docked.pdbqt
 OpenBabel03222221383D

 31 34  0  0  1  0  0  0  0  0999 V2000
   15.0720  -58.5300   37.0560 C   0  0  0  0  0  0  0  0  0  0  0  0
   13.8820  -59.1540   37.0620 N   0  0  0  0  0  0  0  0  0  0  0  0
   13.7040  -59.7200   35.8540 C   0  0  1  0  0  3  0  0  0  0  0  0
   14.8070  -59.4410   35.0830 N   0  0  0  0  0  0  0  0  0  0  0  0
   15.6100  -58.7200   35.8460 N   0  0  0  0  0  0  0  0  0  0  0  0
   12.6170  -60.5220   35.2840 C   0  0  0  0  0  2  0  0  0  0  0  0
   11.2390  -60.1670   35.7760 C   0  0  0  0  0  2  0  0  0  0  0  0
   11.0610  -60.3510   37.2480 C   0  0  0  0  0  2  0  0  0  0  0  0
   11.5590  -59.0910   37.9170 C   0  0  0  0  0  2  0  0  0  0  0  0
   13.0370  -59.1560   38.2110 C   0  0  0  0  0  2  0  0  0  0  0  0
   15.0960  -59.8580   33.7690 C   0  0  0  0  0  3  0  0  0  0  0  0
   15.9590  -59.0370   32.9610 C   0  0  0  0  0  0  0  0  0  0  0  0
   16.1190  -59.5220   31.7290 O   0  0  0  0  0  1  0  0  0  0  0  0
   16.6840  -57.8180   33.1810 C   0  0  0  0  0  0  0  0  0  0  0  0
   18.0390  -57.8510   33.5780 C   0  0  0  0  0  3  0  0  0  0  0  0
   18.7760  -56.7190   33.8060 C   0  0  0  0  0  3  0  0  0  0  0  0
   18.2180  -55.4750   33.6570 C   0  0  0  0  0  0  0  0  0  0  0  0
   16.9070  -55.3970   33.2740 C   0  0  0  0  0  3  0  0  0  0  0  0
   16.1620  -56.5680   33.0430 C   0  0  0  0  0  3  0  0  0  0  0  0
   18.9690  -54.3240   33.8900 O   0  0  0  0  0  0  0  0  0  0  0  0
   19.9590  -53.8750   32.9980 C   0  0  0  0  0  1  0  0  0  0  0  0
   15.7490  -57.7480   38.1400 C   0  0  0  0  0  2  0  0  0  0  0  0
   15.1630  -56.4360   38.3300 N   0  0  0  0  0  0  0  0  0  0  0  0
   14.1710  -56.3300   38.6350 H   0  0  0  0  0  0  0  0  0  0  0  0
   15.8940  -55.2230   38.1140 C   0  0  0  0  0  0  0  0  0  0  0  0
   15.5690  -54.0790   38.8100 C   0  0  0  0  0  3  0  0  0  0  0  0
   16.2730  -52.9230   38.6030 C   0  0  0  0  0  3  0  0  0  0  0  0
   17.3210  -52.8950   37.6890 C   0  0  0  0  0  0  0  0  0  0  0  0
   18.2990  -51.2910   37.4040 Br  0  0  0  0  0  0  0  0  0  0  0  0
   17.6630  -54.0330   36.9810 C   0  0  0  0  0  3  0  0  0  0  0  0
   16.9360  -55.1780   37.2120 C   0  0  0  0  0  3  0  0  0  0  0  0
  1  2  1  0  0  0  0
  1 22  1  0  0  0  0
  2 10  1  0  0  0  0
  3  6  1  1  0  0  0
  3  2  1  0  0  0  0
  4  5  1  0  0  0  0
  4  3  1  0  0  0  0
  5  1  2  0  0  0  0
  6  7  1  0  0  0  0
  7  8  1  0  0  0  0
  8  9  1  0  0  0  0
  9 10  1  0  0  0  0
 11  4  1  0  0  0  0
 12 14  1  0  0  0  0
 12 11  2  0  0  0  0
 13 12  1  0  0  0  0
 14 15  1  0  0  0  0
 15 16  2  0  0  0  0
 17 16  1  0  0  0  0
 17 20  1  0  0  0  0
 18 17  2  0  0  0  0
 19 14  2  0  0  0  0
 19 18  1  0  0  0  0
 21 20  1  0  0  0  0
 22 23  1  0  0  0  0
 23 24  1  0  0  0  0
 25 23  1  0  0  0  0
 25 26  1  0  0  0  0
 27 26  2  0  0  0  0
 28 27  1  0  0  0  0
 29 28  1  0  0  0  0
 30 31  1  0  0  0  0
 30 28  2  0  0  0  0
 31 25  2  0  0  0  0
M  END
>  <Pose>
1

>  <Score>
-9.209

$$$$
