/Users/jonathanwahrer/Desktop/Msc/3_Semester/Drug_Design_Praktikum/waehrer_HTS_screening/HTS_experiment/out/docking_results/vina_output/6s1j/0850_docked.pdbqt
 OpenBabel03222221383D

 29 32  0  0  1  0  0  0  0  0999 V2000
   17.7030  -56.0840   32.4090 N   0  0  0  0  0  4  0  0  0  0  0  0
   18.8310  -55.8960   33.2730 C   0  0  1  0  0  0  0  0  0  0  0  0
   18.9700  -57.3110   33.8330 C   0  0  0  0  0  2  0  0  0  0  0  0
   17.5720  -57.7260   34.0260 N   0  0  0  0  0  0  0  0  0  0  0  0
   17.2440  -58.8050   34.8900 C   0  0  0  0  0  2  0  0  0  0  0  0
   15.7770  -59.0760   35.0350 C   0  0  0  0  0  2  0  0  0  0  0  0
   15.0600  -57.7900   35.3440 C   0  0  0  0  0  2  0  0  0  0  0  0
   14.4590  -57.3370   34.0060 C   0  0  0  0  0  2  0  0  0  0  0  0
   15.5090  -56.6480   33.2290 C   0  0  0  0  0  3  0  0  0  0  0  0
   16.8110  -56.8280   33.2210 C   0  0  0  0  0  0  0  0  0  0  0  0
   17.3320  -55.1120   32.1720 H   0  0  0  0  0  0  0  0  0  0  0  0
   19.9590  -55.3680   32.7310 O   0  0  0  0  0  0  0  0  0  0  0  0
   20.2030  -54.5000   33.1030 H   0  0  0  0  0  0  0  0  0  0  0  0
   18.4930  -55.0460   34.4510 C   0  0  0  0  0  0  0  0  0  0  0  0
   17.3390  -54.3360   34.6010 C   0  0  0  0  0  3  0  0  0  0  0  0
   17.0780  -53.5550   35.7460 C   0  0  0  0  0  3  0  0  0  0  0  0
   17.9910  -53.4790   36.7700 C   0  0  0  0  0  0  0  0  0  0  0  0
   19.1590  -54.1900   36.6290 C   0  0  0  0  0  3  0  0  0  0  0  0
   19.4100  -54.9500   35.5100 C   0  0  0  0  0  3  0  0  0  0  0  0
   17.7400  -52.7080   37.9160 O   0  0  0  0  0  0  0  0  0  0  0  0
   17.3320  -53.2990   39.1270 C   0  0  0  0  0  2  0  0  0  0  0  0
   15.8430  -53.3980   39.2460 C   0  0  0  0  0  1  0  0  0  0  0  0
   17.9160  -56.6970   31.1920 C   0  0  0  0  0  0  0  0  0  0  0  0
   18.7660  -56.0980   30.2650 C   0  0  0  0  0  3  0  0  0  0  0  0
   19.0420  -56.6750   29.0340 C   0  0  0  0  0  3  0  0  0  0  0  0
   18.4780  -57.8800   28.6780 C   0  0  0  0  0  0  0  0  0  0  0  0
   18.8630  -58.7030   26.9910 Br  0  0  0  0  0  0  0  0  0  0  0  0
   17.6430  -58.4890   29.5630 C   0  0  0  0  0  3  0  0  0  0  0  0
   17.3830  -57.8870   30.7910 C   0  0  0  0  0  3  0  0  0  0  0  0
  1 10  1  0  0  0  0
  1  2  1  0  0  0  0
  2 12  1  6  0  0  0
  2  3  1  0  0  0  0
  2 14  1  0  0  0  0
  3  4  1  0  0  0  0
  4  5  1  0  0  0  0
  5  6  1  0  0  0  0
  6  7  1  0  0  0  0
  8  7  1  0  0  0  0
  9  8  1  0  0  0  0
 10  9  2  0  0  0  0
 10  4  1  0  0  0  0
 11  1  1  0  0  0  0
 12 13  1  0  0  0  0
 14 15  2  0  0  0  0
 14 19  1  0  0  0  0
 15 16  1  0  0  0  0
 16 17  2  0  0  0  0
 17 20  1  0  0  0  0
 18 17  1  0  0  0  0
 19 18  2  0  0  0  0
 20 21  1  0  0  0  0
 21 22  1  0  0  0  0
 23  1  1  0  0  0  0
 24 23  2  0  0  0  0
 25 24  1  0  0  0  0
 26 25  2  0  0  0  0
 26 28  1  0  0  0  0
 27 26  1  0  0  0  0
 28 29  2  0  0  0  0
 29 23  1  0  0  0  0
M  END
>  <Pose>
1

>  <Score>
-7.844

$$$$
