/Users/jonathanwahrer/Desktop/Msc/3_Semester/Drug_Design_Praktikum/waehrer_HTS_screening/HTS_experiment/out/docking_results/vina_output/6s1j/0860_docked.pdbqt
 OpenBabel03222221393D

 29 32  0  0  1  0  0  0  0  0999 V2000
   19.6040  -55.8250   27.9980 Br  0  0  0  0  0  0  0  0  0  0  0  0
   19.4110  -56.4580   29.7950 C   0  0  0  0  0  0  0  0  0  0  0  0
   18.7430  -55.7220   30.7540 C   0  0  0  0  0  3  0  0  0  0  0  0
   18.6070  -56.1810   32.0450 C   0  0  0  0  0  0  0  0  0  0  0  0
   19.1700  -57.4070   32.3320 C   0  0  0  0  0  0  0  0  0  0  0  0
   19.8390  -58.1470   31.3780 C   0  0  0  0  0  3  0  0  0  0  0  0
   19.9730  -57.6840   30.0870 C   0  0  0  0  0  0  0  0  0  0  0  0
   20.6980  -58.4920   29.0650 C   0  0  0  0  0  1  0  0  0  0  0  0
   19.0190  -57.8500   33.6450 O   0  0  0  0  0  0  0  0  0  0  0  0
   18.6370  -57.0360   34.7020 C   0  0  0  0  0  2  0  0  0  0  0  0
   17.7030  -55.9260   34.3570 C   0  0  2  0  0  0  0  0  0  0  0  0
   17.8830  -55.3380   33.0020 C   0  0  2  0  0  3  0  0  0  0  0  0
   17.9930  -54.8580   35.3200 N   0  0  0  0  0  4  0  0  0  0  0  0
   19.3830  -54.6010   35.4760 C   0  0  0  0  0  2  0  0  0  0  0  0
   19.4910  -53.2490   36.1980 C   0  0  0  0  0  2  0  0  0  0  0  0
   18.9310  -53.4330   37.4510 O   0  0  0  0  0  0  0  0  0  0  0  0
   17.5910  -53.8010   37.4050 C   0  0  0  0  0  2  0  0  0  0  0  0
   17.4070  -55.0980   36.6030 C   0  0  0  0  0  2  0  0  0  0  0  0
   17.5440  -54.0020   34.9230 H   0  0  0  0  0  0  0  0  0  0  0  0
   16.2490  -56.3000   34.5590 C   0  0  0  0  0  2  0  0  0  0  0  0
   16.0200  -57.7090   34.6450 N   0  0  0  0  0  4  0  0  0  0  0  0
   15.3940  -58.1020   35.8940 C   0  0  0  0  0  2  0  0  0  0  0  0
   14.2650  -59.0970   35.6730 C   0  0  0  0  0  2  0  0  0  0  0  0
   13.2280  -58.5600   34.9290 O   0  0  0  0  0  0  0  0  0  0  0  0
   13.7000  -57.6680   33.9710 C   0  0  0  0  0  2  0  0  0  0  0  0
   15.0890  -58.1330   33.5860 C   0  0  0  0  0  2  0  0  0  0  0  0
   16.8550  -58.3020   34.5280 H   0  0  0  0  0  0  0  0  0  0  0  0
   16.6310  -55.0360   32.4120 O   0  0  0  0  0  0  0  0  0  0  0  0
   16.0820  -54.4620   32.9840 H   0  0  0  0  0  0  0  0  0  0  0  0
  1  2  1  0  0  0  0
  2  7  2  0  0  0  0
  2  3  1  0  0  0  0
  3  4  2  0  0  0  0
  4  5  1  0  0  0  0
  4 12  1  0  0  0  0
  5  9  1  0  0  0  0
  6  5  2  0  0  0  0
  7  6  1  0  0  0  0
  8  7  1  0  0  0  0
  9 10  1  0  0  0  0
 11 20  1  1  0  0  0
 11 10  1  0  0  0  0
 11 13  1  0  0  0  0
 12 28  1  6  0  0  0
 12 11  1  0  0  0  0
 13 14  1  0  0  0  0
 13 18  1  0  0  0  0
 14 15  1  0  0  0  0
 15 16  1  0  0  0  0
 17 16  1  0  0  0  0
 18 17  1  0  0  0  0
 19 13  1  0  0  0  0
 20 21  1  0  0  0  0
 21 22  1  0  0  0  0
 23 22  1  0  0  0  0
 24 23  1  0  0  0  0
 25 24  1  0  0  0  0
 26 25  1  0  0  0  0
 26 21  1  0  0  0  0
 27 21  1  0  0  0  0
 28 29  1  0  0  0  0
M  END
>  <Pose>
1

>  <Score>
-6.980

$$$$
