/Users/jonathanwahrer/Desktop/Msc/3_Semester/Drug_Design_Praktikum/waehrer_HTS_screening/HTS_experiment/out/docking_results/vina_output/6s1j/0862_docked.pdbqt
 OpenBabel03222221393D

 30 33  0  0  0  0  0  0  0  0999 V2000
   16.9470  -61.1230   32.8360 Br  0  0  0  0  0  0  0  0  0  0  0  0
   15.8450  -60.0380   33.9190 C   0  0  0  0  0  0  0  0  0  0  0  0
   16.4190  -58.9550   34.5380 C   0  0  0  0  0  0  0  0  0  0  0  0
   15.7010  -58.0750   35.3660 C   0  0  0  0  0  0  0  0  0  0  0  0
   14.3370  -58.3140   35.5720 C   0  0  0  0  0  3  0  0  0  0  0  0
   13.7750  -59.4050   34.9450 C   0  0  0  0  0  0  0  0  0  0  0  0
   14.5000  -60.2580   34.1340 C   0  0  0  0  0  0  0  0  0  0  0  0
   13.8580  -61.4410   33.4650 C   0  0  0  0  0  1  0  0  0  0  0  0
   11.9180  -59.7280   35.2250 Br  0  0  0  0  0  0  0  0  0  0  0  0
   16.3630  -56.9500   35.9990 C   0  0  0  0  0  0  0  0  0  0  0  0
   15.9170  -56.6000   37.1200 O   0  0  0  0  0  0  0  0  0  0  0  0
   17.4870  -56.3310   35.2730 C   0  0  0  0  0  0  0  0  0  0  0  0
   18.4170  -57.6120   35.0790 C   0  0  0  0  0  2  0  0  0  0  0  0
   17.7550  -58.6230   34.4070 O   0  0  0  0  0  0  0  0  0  0  0  0
   18.2970  -55.3720   35.9990 C   0  0  0  0  0  2  0  0  0  0  0  0
   17.9220  -54.5150   37.0220 N   0  0  0  0  0  4  0  0  0  0  0  0
   16.9520  -53.5040   36.8620 C   0  0  0  0  0  2  0  0  0  0  0  0
   17.1530  -52.3100   37.7860 C   0  0  0  0  0  2  0  0  0  0  0  0
   18.4110  -51.5660   37.4700 C   0  0  0  0  0  2  0  0  0  0  0  0
   19.4380  -52.5540   37.0100 C   0  0  0  0  0  2  0  0  0  0  0  0
   19.1360  -53.8940   37.5980 C   0  0  0  0  0  2  0  0  0  0  0  0
   17.5910  -55.0820   37.9100 H   0  0  0  0  0  0  0  0  0  0  0  0
   17.0460  -55.9060   33.9250 C   0  0  0  0  0  2  0  0  0  0  0  0
   17.8230  -56.1810   32.7900 N   0  0  0  0  0  4  0  0  0  0  0  0
   16.9350  -56.6910   31.7370 C   0  0  0  0  0  2  0  0  0  0  0  0
   17.7070  -57.2910   30.5810 C   0  0  0  0  0  2  0  0  0  0  0  0
   18.4750  -56.1200   29.9460 C   0  0  0  0  0  2  0  0  0  0  0  0
   19.3840  -55.6290   31.0500 C   0  0  0  0  0  2  0  0  0  0  0  0
   18.4910  -55.0530   32.1620 C   0  0  0  0  0  2  0  0  0  0  0  0
   18.5600  -56.9120   32.8590 H   0  0  0  0  0  0  0  0  0  0  0  0
  1  2  1  0  0  0  0
  2  7  2  0  0  0  0
  2  3  1  0  0  0  0
  3  4  2  0  0  0  0
  4  5  1  0  0  0  0
  4 10  1  0  0  0  0
  6  9  1  0  0  0  0
  6  5  2  0  0  0  0
  7  6  1  0  0  0  0
  8  7  1  0  0  0  0
 10 11  2  0  0  0  0
 12 10  1  0  0  0  0
 12 15  1  0  0  0  0
 13 12  1  0  0  0  0
 14  3  1  0  0  0  0
 14 13  1  0  0  0  0
 15 16  1  0  0  0  0
 16 21  1  0  0  0  0
 16 22  1  0  0  0  0
 17 16  1  0  0  0  0
 17 18  1  0  0  0  0
 19 18  1  0  0  0  0
 20 19  1  0  0  0  0
 20 21  1  0  0  0  0
 23 12  1  0  0  0  0
 24 30  1  0  0  0  0
 24 23  1  0  0  0  0
 25 24  1  0  0  0  0
 26 25  1  0  0  0  0
 27 26  1  0  0  0  0
 27 28  1  0  0  0  0
 28 29  1  0  0  0  0
 29 24  1  0  0  0  0
M  END
>  <Pose>
1

>  <Score>
-8.703

$$$$
