/Users/jonathanwahrer/Desktop/Msc/3_Semester/Drug_Design_Praktikum/waehrer_HTS_screening/HTS_experiment/out/docking_results/vina_output/6s1j/0872_docked.pdbqt
 OpenBabel03222221403D

 32 35  0  0  0  0  0  0  0  0999 V2000
   14.3820  -57.2070   38.3970 N   0  0  0  0  0  0  0  0  0  0  0  0
   13.1530  -57.6450   38.6030 N   0  0  0  0  0  0  0  0  0  0  0  0
   12.7400  -58.1250   37.4430 N   0  0  0  0  0  0  0  0  0  0  0  0
   13.6930  -57.9960   36.4970 C   0  0  0  0  0  0  0  0  0  0  0  0
   14.7320  -57.4120   37.1160 C   0  0  0  0  0  0  0  0  0  0  0  0
   15.6920  -57.2870   36.1400 C   0  0  0  0  0  0  0  0  0  0  0  0
   16.8320  -56.7800   36.3180 O   0  0  0  0  0  0  0  0  0  0  0  0
   15.2700  -57.7750   34.9560 N   0  0  0  0  0  0  0  0  0  0  0  0
   14.0210  -58.2200   35.1720 C   0  0  0  0  0  0  0  0  0  0  0  0
   13.2800  -58.7520   34.3040 O   0  0  0  0  0  0  0  0  0  0  0  0
   12.5980  -57.6250   39.5070 H   0  0  0  0  0  0  0  0  0  0  0  0
   11.7820  -58.5440   37.3130 H   0  0  0  0  0  0  0  0  0  0  0  0
   15.1950  -56.6070   39.4320 C   0  0  0  0  0  2  0  0  0  0  0  0
   15.5900  -55.2090   39.0010 C   0  0  0  0  0  0  0  0  0  0  0  0
   16.8990  -54.9670   38.5940 N   0  0  0  0  0  0  0  0  0  0  0  0
   17.5600  -55.8180   38.6120 H   0  0  0  0  0  0  0  0  0  0  0  0
   14.7070  -54.3470   39.0390 O   0  0  0  0  0  0  0  0  0  0  0  0
   17.3980  -53.7240   38.1730 C   0  0  0  0  0  0  0  0  0  0  0  0
   18.5720  -53.7010   37.4020 C   0  0  0  0  0  0  0  0  0  0  0  0
   19.1570  -54.8950   37.1080 F   0  0  0  0  0  0  0  0  0  0  0  0
   19.0920  -52.5080   36.9710 C   0  0  0  0  0  3  0  0  0  0  0  0
   18.4780  -51.3130   37.2840 C   0  0  0  0  0  0  0  0  0  0  0  0
   17.3260  -51.2930   38.0360 C   0  0  0  0  0  3  0  0  0  0  0  0
   19.0240  -50.1580   36.8390 F   0  0  0  0  0  0  0  0  0  0  0  0
   16.8100  -52.5340   38.4680 C   0  0  0  0  0  3  0  0  0  0  0  0
   16.0330  -57.7960   33.7370 C   0  0  0  0  0  0  0  0  0  0  0  0
   16.2220  -56.6410   33.0040 C   0  0  0  0  0  3  0  0  0  0  0  0
   16.9460  -56.6140   31.8300 C   0  0  0  0  0  3  0  0  0  0  0  0
   17.4910  -57.8080   31.3970 C   0  0  0  0  0  0  0  0  0  0  0  0
   17.3340  -58.9960   32.0910 C   0  0  0  0  0  3  0  0  0  0  0  0
   18.4950  -57.7450   29.7610 Br  0  0  0  0  0  0  0  0  0  0  0  0
   16.5980  -58.9540   33.2580 C   0  0  0  0  0  3  0  0  0  0  0  0
  1  2  1  0  0  0  0
  1 13  1  0  0  0  0
  2 11  1  0  0  0  0
  3  2  1  0  0  0  0
  4  5  2  0  0  0  0
  4  3  1  0  0  0  0
  5  1  1  0  0  0  0
  6  7  2  0  0  0  0
  6  5  1  0  0  0  0
  8  9  1  0  0  0  0
  8  6  1  0  0  0  0
  9  4  1  0  0  0  0
 10  9  2  0  0  0  0
 12  3  1  0  0  0  0
 14 17  2  0  0  0  0
 14 13  1  0  0  0  0
 15 16  1  0  0  0  0
 15 14  1  0  0  0  0
 18 25  1  0  0  0  0
 18 15  1  0  0  0  0
 19 18  2  0  0  0  0
 20 19  1  0  0  0  0
 21 22  2  0  0  0  0
 21 19  1  0  0  0  0
 22 23  1  0  0  0  0
 23 25  2  0  0  0  0
 24 22  1  0  0  0  0
 26  8  1  0  0  0  0
 27 26  2  0  0  0  0
 28 27  1  0  0  0  0
 29 28  2  0  0  0  0
 29 30  1  0  0  0  0
 30 32  2  0  0  0  0
 31 29  1  0  0  0  0
 32 26  1  0  0  0  0
M  END
>  <Pose>
1

>  <Score>
-10.218

$$$$
