/Users/jonathanwahrer/Desktop/Msc/3_Semester/Drug_Design_Praktikum/waehrer_HTS_screening/HTS_experiment/out/docking_results/vina_output/6s1j/0892_docked.pdbqt
 OpenBabel03222221413D

 27 30  0  0  1  0  0  0  0  0999 V2000
   16.8630  -56.1470   33.4250 C   0  0  2  0  0  3  0  0  0  0  0  0
   15.4680  -56.3990   33.1430 N   0  0  0  0  0  0  0  0  0  0  0  0
   14.8780  -57.6380   33.5490 C   0  0  0  0  0  0  0  0  0  0  0  0
   13.2470  -58.1170   33.9150 S   0  0  0  0  0  0  0  0  0  0  0  0
   13.5150  -59.7530   34.2910 C   0  0  0  0  0  0  0  0  0  0  0  0
   14.8500  -59.8850   34.1270 C   0  0  0  0  0  0  0  0  0  0  0  0
   15.5560  -58.8060   33.7470 C   0  0  0  0  0  0  0  0  0  0  0  0
   17.0130  -58.6370   33.4850 C   0  0  0  0  0  0  0  0  0  0  0  0
   17.8100  -59.5970   33.6080 O   0  0  0  0  0  0  0  0  0  0  0  0
   17.5410  -57.3880   33.0890 N   0  0  0  0  0  0  0  0  0  0  0  0
   15.3840  -61.2850   34.4020 C   0  0  0  0  0  2  0  0  0  0  0  0
   14.2570  -62.2540   34.2500 C   0  0  0  0  0  2  0  0  0  0  0  0
   13.2790  -61.8900   35.2880 N   0  0  0  0  0  4  0  0  0  0  0  0
   12.5420  -60.7920   34.6990 C   0  0  0  0  0  2  0  0  0  0  0  0
   12.4310  -63.0080   35.6260 C   0  0  0  0  0  1  0  0  0  0  0  0
   14.8520  -55.7160   32.6490 H   0  0  0  0  0  0  0  0  0  0  0  0
   18.4370  -57.3300   32.5420 H   0  0  0  0  0  0  0  0  0  0  0  0
   13.7930  -61.5140   36.1130 H   0  0  0  0  0  0  0  0  0  0  0  0
   16.9590  -55.8800   34.8840 C   0  0  0  0  0  0  0  0  0  0  0  0
   17.7970  -54.9450   35.4420 C   0  0  0  0  0  0  0  0  0  0  0  0
   17.8580  -54.7410   36.8210 C   0  0  0  0  0  0  0  0  0  0  0  0
   18.6010  -54.1840   34.6230 O   0  0  0  0  0  1  0  0  0  0  0  0
   19.1630  -53.2930   37.6120 I   0  0  0  0  0  0  0  0  0  0  0  0
   17.0840  -55.4640   37.6740 C   0  0  0  0  0  3  0  0  0  0  0  0
   16.2370  -56.4060   37.1360 C   0  0  0  0  0  0  0  0  0  0  0  0
   16.1710  -56.6130   35.7830 C   0  0  0  0  0  3  0  0  0  0  0  0
   15.1520  -57.4210   38.3260 Br  0  0  0  0  0  0  0  0  0  0  0  0
  1 19  1  1  0  0  0
  2  1  1  0  0  0  0
  2  3  1  0  0  0  0
  3  7  2  0  0  0  0
  3  4  1  0  0  0  0
  4  5  1  0  0  0  0
  5 14  1  0  0  0  0
  6  5  2  0  0  0  0
  6 11  1  0  0  0  0
  7  6  1  0  0  0  0
  8  9  2  0  0  0  0
  8  7  1  0  0  0  0
 10  1  1  0  0  0  0
 10  8  1  0  0  0  0
 12 11  1  0  0  0  0
 12 13  1  0  0  0  0
 13 15  1  0  0  0  0
 13 18  1  0  0  0  0
 14 13  1  0  0  0  0
 16  2  1  0  0  0  0
 17 10  1  0  0  0  0
 19 20  2  0  0  0  0
 19 26  1  0  0  0  0
 20 21  1  0  0  0  0
 21 23  1  0  0  0  0
 21 24  2  0  0  0  0
 22 20  1  0  0  0  0
 25 24  1  0  0  0  0
 25 27  1  0  0  0  0
 26 25  2  0  0  0  0
M  END
>  <Pose>
1

>  <Score>
-7.914

$$$$
