/Users/jonathanwahrer/Desktop/Msc/3_Semester/Drug_Design_Praktikum/waehrer_HTS_screening/HTS_experiment/out/docking_results/vina_output/6s1j/0906_docked.pdbqt
 OpenBabel03222221413D

 27 30  0  0  1  0  0  0  0  0999 V2000
   17.5590  -55.6470   35.8260 C   0  0  2  0  0  3  0  0  0  0  0  0
   17.7860  -55.4960   34.5260 N   0  0  0  0  0  0  0  0  0  0  0  0
   17.2470  -56.2360   33.5430 C   0  0  0  0  0  0  0  0  0  0  0  0
   17.2940  -56.3100   32.2080 N   0  0  0  0  0  2  0  0  0  0  0  0
   16.5280  -57.2710   31.7780 O   0  0  0  0  0  0  0  0  0  0  0  0
   15.9570  -57.8580   32.7910 N   0  0  0  0  0  0  0  0  0  0  0  0
   16.3670  -57.2570   33.9190 C   0  0  0  0  0  0  0  0  0  0  0  0
   16.1040  -57.4530   35.1980 N   0  0  0  0  0  0  0  0  0  0  0  0
   16.6660  -56.6900   36.1390 C   0  0  0  0  0  0  0  0  0  0  0  0
   16.2090  -57.1280   37.3010 N   0  0  0  0  0  0  0  0  0  0  0  0
   15.3670  -58.1560   37.0910 N   0  0  0  0  0  0  0  0  0  0  0  0
   15.2850  -58.3810   35.7710 C   0  0  0  0  0  0  0  0  0  0  0  0
   18.1190  -54.8770   36.8650 N   0  0  0  0  0  0  0  0  0  0  0  0
   18.2760  -55.3670   37.8160 H   0  0  0  0  0  0  0  0  0  0  0  0
   18.5120  -53.5230   36.8320 C   0  0  0  0  0  0  0  0  0  0  0  0
   17.7770  -52.5840   37.5890 C   0  0  0  0  0  0  0  0  0  0  0  0
   16.1370  -53.2390   38.7480 I   0  0  0  0  0  0  0  0  0  0  0  0
   18.1250  -51.2560   37.5760 C   0  0  0  0  0  3  0  0  0  0  0  0
   19.2090  -50.8300   36.8110 C   0  0  0  0  0  3  0  0  0  0  0  0
   19.9010  -51.7610   36.0880 C   0  0  0  0  0  3  0  0  0  0  0  0
   19.5780  -53.1200   36.0800 C   0  0  0  0  0  3  0  0  0  0  0  0
   14.4880  -59.3980   35.0350 C   0  0  0  0  0  2  0  0  0  0  0  0
   13.1060  -58.9520   34.7360 C   0  0  0  0  0  0  0  0  0  0  0  0
   12.8470  -58.0010   33.9690 O   0  0  0  0  0  0  0  0  0  0  0  0
   12.0630  -59.6080   35.3290 O   0  0  0  0  0  0  0  0  0  0  0  0
   12.0380  -60.0530   36.6380 C   0  0  0  0  0  2  0  0  0  0  0  0
   10.7850  -59.8140   37.3900 C   0  0  0  0  0  1  0  0  0  0  0  0
  1  9  1  0  0  0  0
  1 13  1  6  0  0  0
  2  1  1  0  0  0  0
  3  7  1  0  0  0  0
  3  2  2  0  0  0  0
  4  3  1  0  0  0  0
  5  4  1  0  0  0  0
  5  6  1  0  0  0  0
  6  7  2  0  0  0  0
  7  8  1  0  0  0  0
  8 12  1  0  0  0  0
  8  9  1  0  0  0  0
  9 10  2  0  0  0  0
 11 10  1  0  0  0  0
 12 11  2  0  0  0  0
 13 14  1  0  0  0  0
 15 13  1  0  0  0  0
 15 16  1  0  0  0  0
 16 17  1  0  0  0  0
 18 16  2  0  0  0  0
 19 18  1  0  0  0  0
 20 19  2  0  0  0  0
 21 20  1  0  0  0  0
 21 15  2  0  0  0  0
 22 12  1  0  0  0  0
 23 22  1  0  0  0  0
 23 25  1  0  0  0  0
 24 23  2  0  0  0  0
 25 26  1  0  0  0  0
 26 27  1  0  0  0  0
M  END
>  <Pose>
1

>  <Score>
-8.953

$$$$
