/Users/jonathanwahrer/Desktop/Msc/3_Semester/Drug_Design_Praktikum/waehrer_HTS_screening/HTS_experiment/out/docking_results/vina_output/6s1j/0908_docked.pdbqt
 OpenBabel03222221413D

 25 28  0  0  0  0  0  0  0  0999 V2000
   16.6830  -58.1080   33.6020 N   0  0  0  0  0  0  0  0  0  0  0  0
   16.9980  -57.3830   34.6900 C   0  0  0  0  0  0  0  0  0  0  0  0
   16.8840  -57.7780   35.8890 O   0  0  0  0  0  0  0  0  0  0  0  0
   17.4690  -56.1330   34.3440 C   0  0  0  0  0  0  0  0  0  0  0  0
   17.4410  -56.0980   33.0220 C   0  0  0  0  0  0  0  0  0  0  0  0
   17.9060  -54.8690   32.6970 N   0  0  0  0  0  0  0  0  0  0  0  0
   18.2060  -54.1840   33.7860 N   0  0  0  0  0  0  0  0  0  0  0  0
   17.9440  -54.9470   34.8150 N   0  0  0  0  0  0  0  0  0  0  0  0
   16.9580  -57.3100   32.5540 C   0  0  0  0  0  0  0  0  0  0  0  0
   16.8070  -57.5990   31.3230 O   0  0  0  0  0  0  0  0  0  0  0  0
   18.0200  -54.4940   31.7320 H   0  0  0  0  0  0  0  0  0  0  0  0
   18.5810  -53.2150   33.8210 H   0  0  0  0  0  0  0  0  0  0  0  0
   16.1670  -59.4380   33.5320 C   0  0  0  0  0  0  0  0  0  0  0  0
   14.8360  -59.7110   33.7760 C   0  0  0  0  0  0  0  0  0  0  0  0
   13.5830  -58.0750   34.2600 I   0  0  0  0  0  0  0  0  0  0  0  0
   14.3160  -60.9880   33.7150 C   0  0  0  0  0  3  0  0  0  0  0  0
   15.1230  -62.0620   33.4000 C   0  0  0  0  0  3  0  0  0  0  0  0
   16.4540  -61.8020   33.1550 C   0  0  0  0  0  3  0  0  0  0  0  0
   16.9670  -60.5170   33.2180 C   0  0  0  0  0  3  0  0  0  0  0  0
   18.1030  -54.6500   36.1960 C   0  0  0  0  0  0  0  0  0  0  0  0
   17.0510  -54.7040   37.0830 C   0  0  0  0  0  3  0  0  0  0  0  0
   17.2400  -54.4090   38.4230 C   0  0  0  0  0  3  0  0  0  0  0  0
   18.4740  -54.0510   38.9240 C   0  0  0  0  0  3  0  0  0  0  0  0
   19.5290  -53.9970   38.0380 C   0  0  0  0  0  3  0  0  0  0  0  0
   19.3510  -54.2870   36.7070 C   0  0  0  0  0  3  0  0  0  0  0  0
  1  2  1  0  0  0  0
  2  3  2  0  0  0  0
  4  2  1  0  0  0  0
  4  8  1  0  0  0  0
  5  4  2  0  0  0  0
  6  5  1  0  0  0  0
  6  7  1  0  0  0  0
  7 12  1  0  0  0  0
  7  8  1  0  0  0  0
  8 20  1  0  0  0  0
  9  5  1  0  0  0  0
  9  1  1  0  0  0  0
 10  9  2  0  0  0  0
 11  6  1  0  0  0  0
 13  1  1  0  0  0  0
 13 14  1  0  0  0  0
 14 15  1  0  0  0  0
 16 14  2  0  0  0  0
 17 16  1  0  0  0  0
 18 19  1  0  0  0  0
 18 17  2  0  0  0  0
 19 13  2  0  0  0  0
 20 25  2  0  0  0  0
 20 21  1  0  0  0  0
 21 22  2  0  0  0  0
 22 23  1  0  0  0  0
 24 23  2  0  0  0  0
 25 24  1  0  0  0  0
M  END
>  <Pose>
1

>  <Score>
-7.988

$$$$
