/Users/jonathanwahrer/Desktop/Msc/3_Semester/Drug_Design_Praktikum/waehrer_HTS_screening/HTS_experiment/out/docking_results/vina_output/6s1j/0935_docked.pdbqt
 OpenBabel03222221423D

 34 38  0  0  1  0  0  0  0  0999 V2000
   18.1650  -56.6130   33.3620 N   0  0  0  0  0  0  0  0  0  0  0  0
   18.3140  -56.3410   32.0540 C   0  0  0  0  0  0  0  0  0  0  0  0
   18.3290  -57.3260   31.0910 C   0  0  2  0  0  3  0  0  0  0  0  0
   18.1780  -58.6200   31.5480 C   0  0  0  0  0  0  0  0  0  0  0  0
   18.1700  -59.6370   30.7900 O   0  0  0  0  0  0  0  0  0  0  0  0
   18.0250  -58.9110   32.8770 N   0  0  0  0  0  0  0  0  0  0  0  0
   18.0230  -57.8900   33.7520 C   0  0  0  0  0  0  0  0  0  0  0  0
   17.8860  -58.1080   34.9830 O   0  0  0  0  0  0  0  0  0  0  0  0
   18.4580  -55.0420   31.6400 O   0  0  0  0  0  0  0  0  0  0  0  0
   17.9130  -59.8840   33.2160 H   0  0  0  0  0  0  0  0  0  0  0  0
   18.5020  -57.1130   29.6650 C   0  0  1  0  0  3  0  0  0  0  0  0
   19.2380  -55.9600   29.2560 N   0  0  0  0  0  4  0  0  0  0  0  0
   20.6200  -55.9590   29.6530 C   0  0  0  0  0  2  0  0  0  0  0  0
   19.2670  -56.0290   27.7710 C   0  0  0  0  0  1  0  0  0  0  0  0
   18.7830  -55.0430   29.4040 H   0  0  0  0  0  0  0  0  0  0  0  0
   21.0830  -57.2870   30.2130 C   0  0  0  0  0  2  0  0  0  0  0  0
   20.5570  -58.3880   29.3240 C   0  0  0  0  0  0  0  0  0  0  0  0
   19.2220  -58.2740   29.0310 C   0  0  0  0  0  0  0  0  0  0  0  0
   21.3200  -59.3910   28.8210 C   0  0  0  0  0  3  0  0  0  0  0  0
   18.6090  -59.1860   28.2050 C   0  0  0  0  0  0  0  0  0  0  0  0
   19.3950  -60.2080   27.6930 C   0  0  0  0  0  0  0  0  0  0  0  0
   20.7380  -60.3380   27.9790 C   0  0  0  0  0  0  0  0  0  0  0  0
   19.0980  -61.2820   26.8380 O   0  0  0  0  0  0  0  0  0  0  0  0
   21.2240  -61.4540   27.3160 O   0  0  0  0  0  0  0  0  0  0  0  0
   20.1140  -62.2650   26.8950 C   0  0  0  0  0  2  0  0  0  0  0  0
   17.2800  -59.0630   27.9170 O   0  0  0  0  0  0  0  0  0  0  0  0
   16.2790  -60.0050   28.1430 C   0  0  0  0  0  1  0  0  0  0  0  0
   18.1540  -55.5820   34.3370 C   0  0  0  0  0  0  0  0  0  0  0  0
   19.3020  -55.1650   34.9920 C   0  0  0  0  0  3  0  0  0  0  0  0
   19.2940  -54.1740   35.9300 C   0  0  0  0  0  3  0  0  0  0  0  0
   18.1060  -53.5350   36.2680 C   0  0  0  0  0  0  0  0  0  0  0  0
   18.1080  -52.0120   37.7130 I   0  0  0  0  0  0  0  0  0  0  0  0
   16.9650  -53.9460   35.6200 C   0  0  0  0  0  3  0  0  0  0  0  0
   16.9630  -54.9470   34.6710 C   0  0  0  0  0  3  0  0  0  0  0  0
  1  7  1  0  0  0  0
  1 28  1  0  0  0  0
  2  1  1  0  0  0  0
  3  4  1  1  0  0  0
  3  2  1  0  0  0  0
  4  6  1  0  0  0  0
  5  4  2  0  0  0  0
  6 10  1  0  0  0  0
  6  7  1  0  0  0  0
  7  8  2  0  0  0  0
  9  2  2  0  0  0  0
 11 18  1  1  0  0  0
 11  3  1  0  0  0  0
 12 15  1  0  0  0  0
 12 13  1  0  0  0  0
 12 11  1  0  0  0  0
 13 16  1  0  0  0  0
 14 12  1  0  0  0  0
 17 16  1  0  0  0  0
 18 17  1  0  0  0  0
 19 17  2  0  0  0  0
 20 18  2  0  0  0  0
 21 22  2  0  0  0  0
 21 20  1  0  0  0  0
 22 19  1  0  0  0  0
 23 25  1  0  0  0  0
 23 21  1  0  0  0  0
 24 22  1  0  0  0  0
 25 24  1  0  0  0  0
 26 27  1  0  0  0  0
 26 20  1  0  0  0  0
 28 34  2  0  0  0  0
 28 29  1  0  0  0  0
 29 30  2  0  0  0  0
 30 31  1  0  0  0  0
 31 32  1  0  0  0  0
 33 31  2  0  0  0  0
 34 33  1  0  0  0  0
M  END
>  <Pose>
1

>  <Score>
-7.816

$$$$
