/Users/jonathanwahrer/Desktop/Msc/3_Semester/Drug_Design_Praktikum/waehrer_HTS_screening/HTS_experiment/out/docking_results/vina_output/6s1j/0937_docked.pdbqt
 OpenBabel03222221423D

 26 29  0  0  1  0  0  0  0  0999 V2000
   15.7450  -56.5040   37.7430 N   0  0  0  0  0  0  0  0  0  0  0  0
   15.7890  -57.8630   37.3410 C   0  0  0  0  0  0  0  0  0  0  0  0
   16.8270  -58.4320   36.9140 O   0  0  0  0  0  0  0  0  0  0  0  0
   14.4430  -58.4790   37.5080 C   0  0  1  0  0  3  0  0  0  0  0  0
   13.8800  -57.6650   38.6600 C   0  0  0  0  0  2  0  0  0  0  0  0
   14.6150  -56.3860   38.6050 C   0  0  0  0  0  0  0  0  0  0  0  0
   14.3180  -55.3210   39.2210 O   0  0  0  0  0  0  0  0  0  0  0  0
   13.7330  -58.3250   36.3060 N   0  0  1  0  0  0  0  0  0  0  0  0
   14.2880  -57.6540   35.2170 C   0  0  0  0  0  2  0  0  0  0  0  0
   13.5990  -58.2100   33.9430 C   0  0  0  0  0  2  0  0  0  0  0  0
   13.6430  -59.6630   34.0080 N   0  0  0  0  0  0  0  0  0  0  0  0
   12.9800  -60.2750   35.1320 C   0  0  0  0  0  2  0  0  0  0  0  0
   12.6170  -59.1580   36.1060 C   0  0  0  0  0  2  0  0  0  0  0  0
   14.3080  -60.4200   33.0220 C   0  0  0  0  0  0  0  0  0  0  0  0
   13.9150  -61.6920   32.7400 N   0  0  0  0  0  0  0  0  0  0  0  0
   14.4970  -62.4510   31.8140 C   0  0  0  0  0  3  0  0  0  0  0  0
   15.5630  -61.9570   31.0750 C   0  0  0  0  0  3  0  0  0  0  0  0
   15.9580  -60.6630   31.3660 C   0  0  0  0  0  3  0  0  0  0  0  0
   15.3440  -59.9330   32.3070 N   0  0  0  0  0  0  0  0  0  0  0  0
   16.6380  -55.4360   37.3760 C   0  0  0  0  0  0  0  0  0  0  0  0
   17.2420  -54.6850   38.3620 C   0  0  0  0  0  3  0  0  0  0  0  0
   18.1040  -53.6500   38.0590 C   0  0  0  0  0  3  0  0  0  0  0  0
   18.3930  -53.3300   36.7490 C   0  0  0  0  0  0  0  0  0  0  0  0
   19.7080  -51.7560   36.2410 I   0  0  0  0  0  0  0  0  0  0  0  0
   17.7990  -54.0710   35.7500 C   0  0  0  0  0  3  0  0  0  0  0  0
   16.9400  -55.1010   36.0770 C   0  0  0  0  0  3  0  0  0  0  0  0
  1  6  1  0  0  0  0
  2  4  1  0  0  0  0
  2  1  1  0  0  0  0
  3  2  2  0  0  0  0
  4  5  1  1  0  0  0
  6  5  1  0  0  0  0
  6  7  2  0  0  0  0
  8  9  1  6  0  0  0
  8  4  1  0  0  0  0
 10 11  1  0  0  0  0
 10  9  1  0  0  0  0
 11 12  1  0  0  0  0
 12 13  1  0  0  0  0
 13  8  1  0  0  0  0
 14 11  1  0  0  0  0
 15 14  2  0  0  0  0
 16 15  1  0  0  0  0
 17 18  1  0  0  0  0
 17 16  2  0  0  0  0
 18 19  2  0  0  0  0
 19 14  1  0  0  0  0
 20  1  1  0  0  0  0
 20 21  1  0  0  0  0
 22 21  2  0  0  0  0
 23 22  1  0  0  0  0
 24 23  1  0  0  0  0
 25 26  1  0  0  0  0
 25 23  2  0  0  0  0
 26 20  2  0  0  0  0
M  END
>  <Pose>
1

>  <Score>
-8.775

$$$$
