/Users/jonathanwahrer/Desktop/Msc/3_Semester/Drug_Design_Praktikum/waehrer_HTS_screening/HTS_experiment/out/docking_results/vina_output/6s1j/0961_docked.pdbqt
 OpenBabel03222221423D

 29 33  0  0  1  0  0  0  0  0999 V2000
   18.8430  -53.3450   35.9610 C   0  0  1  0  0  3  0  0  0  0  0  0
   19.2290  -52.1250   36.2470 N   0  0  0  0  0  0  0  0  0  0  0  0
   18.6270  -51.4390   37.2650 C   0  0  0  0  0  3  0  0  0  0  0  0
   17.6250  -51.9490   38.0320 C   0  0  0  0  0  3  0  0  0  0  0  0
   17.1940  -53.2300   37.7640 C   0  0  0  0  0  0  0  0  0  0  0  0
   16.2350  -54.0560   38.3070 N   0  0  0  0  0  0  0  0  0  0  0  0
   16.2310  -55.2090   37.6590 C   0  0  0  0  0  0  0  0  0  0  0  0
   17.1950  -55.1050   36.7040 N   0  0  0  0  0  0  0  0  0  0  0  0
   17.7970  -53.9100   36.7460 C   0  0  0  0  0  0  0  0  0  0  0  0
   15.4470  -53.6130   39.4220 C   0  0  0  0  0  1  0  0  0  0  0  0
   20.3240  -51.4900   35.5750 C   0  0  0  0  0  1  0  0  0  0  0  0
   19.3010  -54.1680   34.8570 C   0  0  0  0  0  3  0  0  0  0  0  0
   18.6710  -54.8210   33.9450 C   0  0  0  0  0  3  0  0  0  0  0  0
   19.1250  -55.6330   32.8390 C   0  0  0  0  0  0  0  0  0  0  0  0
   18.9920  -56.9750   32.7080 C   0  0  0  0  0  0  0  0  0  0  0  0
   18.2720  -58.0210   34.1290 Br  0  0  0  0  0  0  0  0  0  0  0  0
   19.4200  -57.6640   31.5450 C   0  0  0  0  0  3  0  0  0  0  0  0
   19.9910  -56.9860   30.5030 C   0  0  0  0  0  0  0  0  0  0  0  0
   20.1410  -55.6210   30.6090 C   0  0  0  0  0  0  0  0  0  0  0  0
   20.5040  -57.3500   29.2540 O   0  0  0  0  0  0  0  0  0  0  0  0
   19.7220  -54.9620   31.7420 C   0  0  0  0  0  3  0  0  0  0  0  0
   20.7450  -55.1790   29.4200 O   0  0  0  0  0  0  0  0  0  0  0  0
   20.4740  -56.1710   28.4510 C   0  0  0  0  0  2  0  0  0  0  0  0
   15.4050  -56.4010   37.8860 C   0  0  0  0  0  0  0  0  0  0  0  0
   14.2820  -56.4430   38.6430 C   0  0  0  0  0  3  0  0  0  0  0  0
   13.5860  -57.6540   38.8120 C   0  0  0  0  0  3  0  0  0  0  0  0
   14.0410  -58.8050   38.2090 C   0  0  0  0  0  3  0  0  0  0  0  0
   15.1880  -58.7900   37.4270 C   0  0  0  0  0  3  0  0  0  0  0  0
   15.8270  -57.6020   37.2910 C   0  0  0  0  0  3  0  0  0  0  0  0
  1 12  1  6  0  0  0
  1  2  1  0  0  0  0
  1  9  1  0  0  0  0
  2  3  1  0  0  0  0
  3  4  2  0  0  0  0
  5  4  1  0  0  0  0
  5  6  1  0  0  0  0
  6 10  1  0  0  0  0
  7 24  1  0  0  0  0
  7  6  1  0  0  0  0
  8  9  1  0  0  0  0
  8  7  2  0  0  0  0
  9  5  2  0  0  0  0
 11  2  1  0  0  0  0
 13 12  2  0  0  0  0
 14 13  1  0  0  0  0
 15 14  1  0  0  0  0
 15 16  1  0  0  0  0
 17 15  2  0  0  0  0
 18 19  2  0  0  0  0
 18 17  1  0  0  0  0
 19 21  1  0  0  0  0
 20 18  1  0  0  0  0
 21 14  2  0  0  0  0
 22 19  1  0  0  0  0
 23 20  1  0  0  0  0
 23 22  1  0  0  0  0
 24 25  1  0  0  0  0
 25 26  2  0  0  0  0
 27 26  1  0  0  0  0
 28 27  2  0  0  0  0
 29 28  1  0  0  0  0
 29 24  2  0  0  0  0
M  END
>  <Pose>
1

>  <Score>
-11.107

$$$$
