/Users/jonathanwahrer/Desktop/Msc/3_Semester/Drug_Design_Praktikum/waehrer_HTS_screening/HTS_experiment/out/docking_results/vina_output/6s1j/0971_docked.pdbqt
 OpenBabel03222221433D

 29 33  0  0  1  0  0  0  0  0999 V2000
   11.9870  -61.4790   35.1210 Br  0  0  0  0  0  0  0  0  0  0  0  0
   13.5930  -60.8940   34.2750 C   0  0  0  0  0  0  0  0  0  0  0  0
   14.3570  -59.8360   34.8020 C   0  0  0  0  0  0  0  0  0  0  0  0
   15.5100  -59.3880   34.2280 C   0  0  0  0  0  0  0  0  0  0  0  0
   15.9370  -60.0220   33.0590 C   0  0  0  0  0  3  0  0  0  0  0  0
   15.1960  -61.0460   32.5480 C   0  0  0  0  0  0  0  0  0  0  0  0
   14.0300  -61.5050   33.1250 C   0  0  0  0  0  0  0  0  0  0  0  0
   13.3180  -62.5670   32.5420 O   0  0  0  0  0  1  0  0  0  0  0  0
   15.7730  -61.9180   30.9520 Br  0  0  0  0  0  0  0  0  0  0  0  0
   16.2800  -58.2910   34.7980 C   0  0  1  0  0  0  0  0  0  0  0  0
   17.5490  -58.8310   35.1630 O   0  0  0  0  0  0  0  0  0  0  0  0
   18.5770  -58.2260   34.4940 C   0  0  0  0  0  0  0  0  0  0  0  0
   19.7920  -58.5020   34.6220 O   0  0  0  0  0  0  0  0  0  0  0  0
   17.9640  -57.2290   33.6380 C   0  0  0  0  0  0  0  0  0  0  0  0
   16.5960  -57.2380   33.7910 C   0  0  0  0  0  0  0  0  0  0  0  0
   15.8640  -56.3620   33.0590 C   0  0  0  0  0  3  0  0  0  0  0  0
   16.4940  -55.4940   32.1910 C   0  0  0  0  0  3  0  0  0  0  0  0
   17.8630  -55.4830   32.0340 C   0  0  0  0  0  3  0  0  0  0  0  0
   18.6170  -56.3610   32.7680 C   0  0  0  0  0  3  0  0  0  0  0  0
   15.7010  -57.7370   36.0170 C   0  0  0  0  0  0  0  0  0  0  0  0
   14.5410  -58.2300   36.5460 C   0  0  0  0  0  0  0  0  0  0  0  0
   13.9960  -57.6810   37.7250 C   0  0  0  0  0  0  0  0  0  0  0  0
   14.6540  -56.6400   38.3370 C   0  0  0  0  0  0  0  0  0  0  0  0
   15.8320  -56.1340   37.8060 C   0  0  0  0  0  0  0  0  0  0  0  0
   16.3530  -56.6700   36.6630 C   0  0  0  0  0  3  0  0  0  0  0  0
   16.7540  -54.6920   38.6420 Br  0  0  0  0  0  0  0  0  0  0  0  0
   14.1070  -56.1100   39.4960 O   0  0  0  0  0  1  0  0  0  0  0  0
   12.3700  -58.3980   38.4350 Br  0  0  0  0  0  0  0  0  0  0  0  0
   13.8360  -59.2780   35.9720 O   0  0  0  0  0  0  0  0  0  0  0  0
  2  3  1  0  0  0  0
  2  1  1  0  0  0  0
  3 29  1  0  0  0  0
  4 10  1  0  0  0  0
  4  3  2  0  0  0  0
  5  4  1  0  0  0  0
  6  5  2  0  0  0  0
  6  7  1  0  0  0  0
  7  2  2  0  0  0  0
  8  7  1  0  0  0  0
  9  6  1  0  0  0  0
 10 15  1  6  0  0  0
 10 11  1  0  0  0  0
 10 20  1  0  0  0  0
 12 13  2  0  0  0  0
 12 11  1  0  0  0  0
 14 15  1  0  0  0  0
 14 12  1  0  0  0  0
 16 15  2  0  0  0  0
 17 16  1  0  0  0  0
 18 17  2  0  0  0  0
 18 19  1  0  0  0  0
 19 14  2  0  0  0  0
 20 21  2  0  0  0  0
 20 25  1  0  0  0  0
 21 22  1  0  0  0  0
 22 23  2  0  0  0  0
 22 28  1  0  0  0  0
 23 27  1  0  0  0  0
 24 23  1  0  0  0  0
 24 26  1  0  0  0  0
 25 24  2  0  0  0  0
 29 21  1  0  0  0  0
M  END
>  <Pose>
1

>  <Score>
-9.077

$$$$
