/Users/jonathanwahrer/Desktop/Msc/3_Semester/Drug_Design_Praktikum/waehrer_HTS_screening/HTS_experiment/out/docking_results/vina_output/6s1j/0978_docked.pdbqt
 OpenBabel03222221433D

 33 37  0  0  1  0  0  0  0  0999 V2000
   11.2000  -61.5030   36.8360 I   0  0  0  0  0  0  0  0  0  0  0  0
   11.8630  -62.0720   34.9130 C   0  0  0  0  0  0  0  0  0  0  0  0
   13.0100  -61.4520   34.4280 C   0  0  0  0  0  0  0  0  0  0  0  0
   13.4610  -61.7970   33.1960 C   0  0  0  0  0  0  0  0  0  0  0  0
   12.7610  -62.7570   32.4600 C   0  0  0  0  0  3  0  0  0  0  0  0
   11.6240  -63.3770   32.9320 C   0  0  0  0  0  0  0  0  0  0  0  0
   11.1730  -63.0210   34.1870 C   0  0  0  0  0  0  0  0  0  0  0  0
   10.0300  -63.6310   34.6820 O   0  0  0  0  0  1  0  0  0  0  0  0
   10.5990  -64.8280   31.7770 I   0  0  0  0  0  0  0  0  0  0  0  0
   14.6450  -61.2130   32.5950 C   0  0  2  0  0  0  0  0  0  0  0  0
   14.3340  -60.5550   31.3580 O   0  0  0  0  0  0  0  0  0  0  0  0
   15.0490  -61.0660   30.3070 C   0  0  0  0  0  0  0  0  0  0  0  0
   15.0350  -60.7380   29.0850 O   0  0  0  0  0  0  0  0  0  0  0  0
   15.8860  -62.1220   30.8580 C   0  0  0  0  0  0  0  0  0  0  0  0
   15.6520  -62.2100   32.1970 C   0  0  0  0  0  0  0  0  0  0  0  0
   16.3310  -63.1510   32.9710 C   0  0  0  0  0  0  0  0  0  0  0  0
   17.2500  -64.0080   32.4040 C   0  0  0  0  0  0  0  0  0  0  0  0
   17.4870  -63.9160   31.0350 C   0  0  0  0  0  0  0  0  0  0  0  0
   16.8210  -62.9920   30.2710 C   0  0  0  0  0  0  0  0  0  0  0  0
   17.1260  -62.8900   28.5790 Cl  0  0  0  0  0  0  0  0  0  0  0  0
   18.6360  -64.9690   30.2580 Cl  0  0  0  0  0  0  0  0  0  0  0  0
   18.0840  -65.1750   33.4040 Cl  0  0  0  0  0  0  0  0  0  0  0  0
   15.9860  -63.2090   34.6670 Cl  0  0  0  0  0  0  0  0  0  0  0  0
   15.2870  -60.2090   33.4870 C   0  0  0  0  0  0  0  0  0  0  0  0
   14.8100  -59.8890   34.7120 C   0  0  0  0  0  0  0  0  0  0  0  0
   15.5080  -58.9310   35.4430 C   0  0  0  0  0  0  0  0  0  0  0  0
   16.6440  -58.3120   34.9730 C   0  0  0  0  0  0  0  0  0  0  0  0
   17.1020  -58.6640   33.7190 C   0  0  0  0  0  0  0  0  0  0  0  0
   16.4390  -59.6020   32.9700 C   0  0  0  0  0  3  0  0  0  0  0  0
   18.8370  -57.7340   32.9700 I   0  0  0  0  0  0  0  0  0  0  0  0
   17.3320  -57.3700   35.6930 O   0  0  0  0  0  1  0  0  0  0  0  0
   14.7790  -58.4250   37.3450 I   0  0  0  0  0  0  0  0  0  0  0  0
   13.6720  -60.4910   35.2170 O   0  0  0  0  0  0  0  0  0  0  0  0
  2  1  1  0  0  0  0
  3  2  1  0  0  0  0
  3 33  1  0  0  0  0
  4  3  2  0  0  0  0
  5  6  2  0  0  0  0
  5  4  1  0  0  0  0
  6  7  1  0  0  0  0
  7  8  1  0  0  0  0
  7  2  2  0  0  0  0
  9  6  1  0  0  0  0
 10 11  1  6  0  0  0
 10  4  1  0  0  0  0
 10 24  1  0  0  0  0
 12 14  1  0  0  0  0
 12 11  1  0  0  0  0
 13 12  2  0  0  0  0
 14 15  1  0  0  0  0
 15 10  1  0  0  0  0
 15 16  2  0  0  0  0
 16 23  1  0  0  0  0
 17 16  1  0  0  0  0
 17 22  1  0  0  0  0
 18 17  2  0  0  0  0
 19 14  2  0  0  0  0
 19 18  1  0  0  0  0
 20 19  1  0  0  0  0
 21 18  1  0  0  0  0
 24 25  1  0  0  0  0
 25 33  1  0  0  0  0
 25 26  2  0  0  0  0
 26 32  1  0  0  0  0
 27 26  1  0  0  0  0
 27 31  1  0  0  0  0
 28 27  2  0  0  0  0
 29 24  2  0  0  0  0
 29 28  1  0  0  0  0
 30 28  1  0  0  0  0
M  END
>  <Pose>
1

>  <Score>
-6.801

$$$$
