/Users/jonathanwahrer/Desktop/Msc/3_Semester/Drug_Design_Praktikum/waehrer_HTS_screening/HTS_experiment/out/docking_results/vina_output/6s1j/0979_docked.pdbqt
 OpenBabel03222221433D

 29 33  0  0  1  0  0  0  0  0999 V2000
   11.1440  -61.2960   37.2040 I   0  0  0  0  0  0  0  0  0  0  0  0
   11.8400  -61.8780   35.2890 C   0  0  0  0  0  0  0  0  0  0  0  0
   12.9690  -61.1960   34.8060 C   0  0  0  0  0  0  0  0  0  0  0  0
   13.4350  -61.5510   33.5790 C   0  0  0  0  0  0  0  0  0  0  0  0
   12.7780  -62.5660   32.8610 C   0  0  0  0  0  3  0  0  0  0  0  0
   11.6770  -63.2310   33.3350 C   0  0  0  0  0  0  0  0  0  0  0  0
   11.2060  -62.8710   34.5780 C   0  0  0  0  0  0  0  0  0  0  0  0
   10.0920  -63.5230   35.0890 O   0  0  0  0  0  1  0  0  0  0  0  0
   10.7360  -64.7530   32.2000 I   0  0  0  0  0  0  0  0  0  0  0  0
   14.6090  -60.8980   32.9870 C   0  0  2  0  0  0  0  0  0  0  0  0
   14.3360  -60.4040   31.6900 O   0  0  0  0  0  0  0  0  0  0  0  0
   15.1320  -60.9770   30.7340 C   0  0  0  0  0  0  0  0  0  0  0  0
   15.1520  -60.7680   29.4920 O   0  0  0  0  0  0  0  0  0  0  0  0
   16.0050  -61.9230   31.4150 C   0  0  0  0  0  0  0  0  0  0  0  0
   15.7050  -61.8850   32.7380 C   0  0  0  0  0  0  0  0  0  0  0  0
   16.4210  -62.7180   33.6050 C   0  0  0  0  0  3  0  0  0  0  0  0
   17.4010  -63.5500   33.1160 C   0  0  0  0  0  3  0  0  0  0  0  0
   17.7070  -63.5920   31.7720 C   0  0  0  0  0  3  0  0  0  0  0  0
   17.0110  -62.7780   30.9110 C   0  0  0  0  0  3  0  0  0  0  0  0
   15.1920  -59.8560   33.8500 C   0  0  0  0  0  0  0  0  0  0  0  0
   14.6810  -59.5490   35.0640 C   0  0  0  0  0  0  0  0  0  0  0  0
   15.2840  -58.5520   35.8240 C   0  0  0  0  0  0  0  0  0  0  0  0
   16.3820  -57.8860   35.3570 C   0  0  0  0  0  0  0  0  0  0  0  0
   16.9290  -58.1730   34.1280 C   0  0  0  0  0  0  0  0  0  0  0  0
   16.3180  -59.1560   33.3990 C   0  0  0  0  0  3  0  0  0  0  0  0
   18.6290  -57.1390   33.4120 I   0  0  0  0  0  0  0  0  0  0  0  0
   16.9650  -56.8960   36.1380 O   0  0  0  0  0  1  0  0  0  0  0  0
   14.4740  -58.0750   37.7310 I   0  0  0  0  0  0  0  0  0  0  0  0
   13.5540  -60.2000   35.5910 O   0  0  0  0  0  0  0  0  0  0  0  0
  2  1  1  0  0  0  0
  3  2  1  0  0  0  0
  3 29  1  0  0  0  0
  4  3  2  0  0  0  0
  5  6  2  0  0  0  0
  5  4  1  0  0  0  0
  6  7  1  0  0  0  0
  7  8  1  0  0  0  0
  7  2  2  0  0  0  0
  9  6  1  0  0  0  0
 10 11  1  6  0  0  0
 10  4  1  0  0  0  0
 10 20  1  0  0  0  0
 12 14  1  0  0  0  0
 12 11  1  0  0  0  0
 13 12  2  0  0  0  0
 14 15  1  0  0  0  0
 15 10  1  0  0  0  0
 15 16  2  0  0  0  0
 17 16  1  0  0  0  0
 18 17  2  0  0  0  0
 19 14  2  0  0  0  0
 19 18  1  0  0  0  0
 20 21  1  0  0  0  0
 21 29  1  0  0  0  0
 21 22  2  0  0  0  0
 22 28  1  0  0  0  0
 23 22  1  0  0  0  0
 23 27  1  0  0  0  0
 24 23  2  0  0  0  0
 25 20  2  0  0  0  0
 25 24  1  0  0  0  0
 26 24  1  0  0  0  0
M  END
>  <Pose>
1

>  <Score>
-7.574

$$$$
