/Users/jonathanwahrer/Desktop/Msc/3_Semester/Drug_Design_Praktikum/waehrer_HTS_screening/HTS_experiment/out/docking_results/vina_output/6s1j/0983_docked.pdbqt
 OpenBabel03222221433D

 34 37  0  0  0  0  0  0  0  0999 V2000
   17.0570  -57.7040   32.1130 C   0  0  0  0  0  0  0  0  0  0  0  0
   17.7500  -57.9790   30.9260 C   0  0  0  0  0  0  0  0  0  0  0  0
   18.8650  -57.1710   30.9760 C   0  0  0  0  0  0  0  0  0  0  0  0
   18.8320  -56.4660   32.1150 N   0  0  0  0  0  0  0  0  0  0  0  0
   17.7230  -56.7670   32.8580 C   0  0  0  0  0  0  0  0  0  0  0  0
   19.7670  -57.2180   29.9160 C   0  0  0  0  0  0  0  0  0  0  0  0
   19.5270  -58.0590   28.8640 C   0  0  0  0  0  3  0  0  0  0  0  0
   18.3970  -58.8800   28.8090 C   0  0  0  0  0  0  0  0  0  0  0  0
   17.4930  -58.8300   29.8750 C   0  0  0  0  0  3  0  0  0  0  0  0
   18.1210  -60.0250   27.3200 Br  0  0  0  0  0  0  0  0  0  0  0  0
   21.3090  -56.1190   29.9560 Br  0  0  0  0  0  0  0  0  0  0  0  0
   19.5620  -55.7620   32.4200 H   0  0  0  0  0  0  0  0  0  0  0  0
   17.4090  -56.2060   34.1670 C   0  0  0  0  0  0  0  0  0  0  0  0
   16.7550  -56.9090   35.1320 N   0  0  0  0  0  0  0  0  0  0  0  0
   16.5800  -56.1590   36.2310 C   0  0  0  0  0  0  0  0  0  0  0  0
   16.4220  -57.8960   35.0610 H   0  0  0  0  0  0  0  0  0  0  0  0
   17.1260  -54.9130   36.0120 C   0  0  0  0  0  0  0  0  0  0  0  0
   15.9930  -56.3770   37.4690 C   0  0  0  0  0  0  0  0  0  0  0  0
   17.6340  -54.9800   34.7100 C   0  0  0  0  0  0  0  0  0  0  0  0
   17.1000  -53.9200   36.9690 C   0  0  0  0  0  3  0  0  0  0  0  0
   16.5100  -54.1480   38.2030 C   0  0  0  0  0  0  0  0  0  0  0  0
   15.9560  -55.3960   38.4380 C   0  0  0  0  0  3  0  0  0  0  0  0
   16.4600  -52.7830   39.5470 Br  0  0  0  0  0  0  0  0  0  0  0  0
   15.2110  -58.0720   37.8590 Br  0  0  0  0  0  0  0  0  0  0  0  0
   18.2660  -53.9080   34.1070 O   0  0  0  0  0  0  0  0  0  0  0  0
   19.9420  -53.6330   34.2590 S   0  0  0  0  0  0  0  0  0  0  0  0
   20.6630  -54.0040   32.9960 O   0  0  0  0  0  1  0  0  0  0  0  0
   20.5410  -54.4450   35.3720 O   0  0  0  0  0  1  0  0  0  0  0  0
   20.2130  -52.0060   34.6610 O   0  0  0  0  0  1  0  0  0  0  0  0
   15.8580  -58.3250   32.4430 O   0  0  0  0  0  0  0  0  0  0  0  0
   15.8320  -59.8470   33.2260 S   0  0  0  0  0  0  0  0  0  0  0  0
   15.4730  -59.5860   34.6620 O   0  0  0  0  0  1  0  0  0  0  0  0
   14.7890  -60.7500   32.6140 O   0  0  0  0  0  1  0  0  0  0  0  0
   17.3500  -60.5710   33.1960 O   0  0  0  0  0  1  0  0  0  0  0  0
  1 30  1  0  0  0  0
  1  5  2  0  0  0  0
  2  3  1  0  0  0  0
  2  1  1  0  0  0  0
  3  4  1  0  0  0  0
  4 12  1  0  0  0  0
  4  5  1  0  0  0  0
  5 13  1  0  0  0  0
  6 11  1  0  0  0  0
  6  3  2  0  0  0  0
  7  6  1  0  0  0  0
  8  7  2  0  0  0  0
  8  9  1  0  0  0  0
  9  2  2  0  0  0  0
 10  8  1  0  0  0  0
 13 19  2  0  0  0  0
 13 14  1  0  0  0  0
 14 15  1  0  0  0  0
 15 18  1  0  0  0  0
 16 14  1  0  0  0  0
 17 15  2  0  0  0  0
 17 20  1  0  0  0  0
 18 24  1  0  0  0  0
 18 22  2  0  0  0  0
 19 17  1  0  0  0  0
 20 21  2  0  0  0  0
 21 22  1  0  0  0  0
 21 23  1  0  0  0  0
 25 26  1  0  0  0  0
 25 19  1  0  0  0  0
 26 29  1  0  0  0  0
 26 28  1  0  0  0  0
 27 26  1  0  0  0  0
 30 31  1  0  0  0  0
 31 32  1  0  0  0  0
 33 31  1  0  0  0  0
 34 31  1  0  0  0  0
M  END
>  <Pose>
1

>  <Score>
-9.238

$$$$
