/Users/jonathanwahrer/Desktop/Msc/3_Semester/Drug_Design_Praktikum/waehrer_HTS_screening/HTS_experiment/out/docking_results/vina_output/6s1j/0985_docked.pdbqt
 OpenBabel03222221443D

 28 31  0  0  1  0  0  0  0  0999 V2000
   16.8880  -55.6270   36.4610 N   0  0  0  0  0  0  0  0  0  0  0  0
   16.9860  -54.4730   37.1320 C   0  0  0  0  0  0  0  0  0  0  0  0
   17.6420  -53.3130   36.8510 N   0  0  0  0  0  0  0  0  0  0  0  0
   17.6230  -52.2520   37.6540 C   0  0  0  0  0  0  0  0  0  0  0  0
   16.9230  -52.3280   38.8000 N   0  0  0  0  0  0  0  0  0  0  0  0
   16.2500  -53.4470   39.1390 C   0  0  0  0  0  0  0  0  0  0  0  0
   16.2680  -54.5480   38.3090 C   0  0  0  0  0  0  0  0  0  0  0  0
   15.7310  -55.7770   38.3350 N   0  0  0  0  0  0  0  0  0  0  0  0
   16.1110  -56.4290   37.2100 C   0  0  0  0  0  0  0  0  0  0  0  0
   15.6310  -58.2200   36.7310 Br  0  0  0  0  0  0  0  0  0  0  0  0
   17.5290  -55.8640   35.1910 C   0  0  2  0  0  3  0  0  0  0  0  0
   18.5850  -54.9820   34.9630 O   0  0  0  0  0  0  0  0  0  0  0  0
   18.9550  -55.3290   33.6870 C   0  0  1  0  0  3  0  0  0  0  0  0
   17.6230  -55.2170   32.9350 C   0  0  1  0  0  3  0  0  0  0  0  0
   19.9300  -54.4200   33.0370 C   0  0  0  0  0  2  0  0  0  0  0  0
   17.6560  -56.2040   31.9540 O   0  0  0  0  0  0  0  0  0  0  0  0
   16.6110  -55.5190   34.0200 C   0  0  1  0  0  3  0  0  0  0  0  0
   19.2470  -56.2110   31.3350 P   0  0  2  0  0  0  0  0  0  0  0  0
   19.9840  -57.4660   31.7480 O   0  0  0  0  0  1  0  0  0  0  0  0
   20.0750  -54.8110   31.7020 O   0  0  0  0  0  0  0  0  0  0  0  0
   19.0790  -56.3010   29.6350 O   0  0  0  0  0  0  0  0  0  0  0  0
   15.7570  -56.5440   33.6980 O   0  0  0  0  0  0  0  0  0  0  0  0
   15.8140  -57.2700   34.3960 H   0  0  0  0  0  0  0  0  0  0  0  0
   18.3270  -51.0600   37.3170 N   0  0  0  0  0  0  0  0  0  0  0  0
   17.7460  -50.2330   37.0610 H   0  0  0  0  0  0  0  0  0  0  0  0
   19.3760  -51.0040   37.3210 H   0  0  0  0  0  0  0  0  0  0  0  0
   15.5240  -53.5290   40.3240 O   0  0  0  0  0  0  0  0  0  0  0  0
   15.0020  -54.4060   40.4710 H   0  0  0  0  0  0  0  0  0  0  0  0
  1  2  1  0  0  0  0
  1  9  1  0  0  0  0
  2  7  2  0  0  0  0
  3  2  1  0  0  0  0
  3  4  2  0  0  0  0
  4  5  1  0  0  0  0
  5  6  2  0  0  0  0
  6 27  1  0  0  0  0
  7  8  1  0  0  0  0
  7  6  1  0  0  0  0
  9  8  2  0  0  0  0
 10  9  1  0  0  0  0
 11  1  1  1  0  0  0
 12 11  1  0  0  0  0
 13 15  1  6  0  0  0
 13 12  1  0  0  0  0
 14 16  1  6  0  0  0
 14 13  1  0  0  0  0
 14 17  1  0  0  0  0
 17 22  1  6  0  0  0
 17 11  1  0  0  0  0
 18 21  2  6  0  0  0
 18 20  1  0  0  0  0
 18 19  1  0  0  0  0
 18 16  1  0  0  0  0
 20 15  1  0  0  0  0
 22 23  1  0  0  0  0
 24 26  1  0  0  0  0
 24  4  1  0  0  0  0
 25 24  1  0  0  0  0
 27 28  1  0  0  0  0
M  END
>  <Pose>
1

>  <Score>
-8.410

$$$$
