/Users/jonathanwahrer/Desktop/Msc/3_Semester/Drug_Design_Praktikum/waehrer_HTS_screening/HTS_experiment/out/docking_results/vina_output/6s1j/0993_docked.pdbqt
 OpenBabel03222221443D

 26 29  0  0  1  0  0  0  0  0999 V2000
   17.2700  -57.8190   31.9600 P   0  0  2  0  0  0  0  0  0  0  0  0
   17.7710  -56.1760   31.6510 S   0  0  0  0  0  1  0  0  0  0  0  0
   15.8040  -57.8180   32.8350 O   0  0  0  0  0  0  0  0  0  0  0  0
   16.1040  -57.4140   34.1130 C   0  0  2  0  0  3  0  0  0  0  0  0
   17.0590  -58.4390   34.7390 C   0  0  2  0  0  3  0  0  0  0  0  0
   16.9640  -58.0720   36.0810 O   0  0  0  0  0  0  0  0  0  0  0  0
   15.6200  -57.9570   36.3420 C   0  0  2  0  0  3  0  0  0  0  0  0
   14.9320  -57.5380   35.0670 C   0  0  2  0  0  3  0  0  0  0  0  0
   18.4440  -58.2990   34.1900 C   0  0  0  0  0  2  0  0  0  0  0  0
   18.4200  -58.6420   32.8500 O   0  0  0  0  0  0  0  0  0  0  0  0
   16.9970  -58.5630   30.4900 O   0  0  0  0  0  0  0  0  0  0  0  0
   15.3230  -56.9530   37.3460 N   0  0  0  0  0  0  0  0  0  0  0  0
   16.0320  -55.8070   37.5090 C   0  0  0  0  0  0  0  0  0  0  0  0
   17.1130  -55.3060   36.8570 N   0  0  0  0  0  0  0  0  0  0  0  0
   15.4760  -55.0900   38.5480 C   0  0  0  0  0  0  0  0  0  0  0  0
   17.6500  -54.1220   37.2080 C   0  0  0  0  0  3  0  0  0  0  0  0
   17.1080  -53.4130   38.2290 N   0  0  0  0  0  0  0  0  0  0  0  0
   16.0380  -53.8760   38.8990 C   0  0  0  0  0  0  0  0  0  0  0  0
   14.4330  -55.8000   39.0130 N   0  0  0  0  0  0  0  0  0  0  0  0
   14.3520  -56.9290   38.2740 C   0  0  0  0  0  0  0  0  0  0  0  0
   13.0670  -58.3440   38.4570 Br  0  0  0  0  0  0  0  0  0  0  0  0
   15.4770  -53.1160   39.9740 N   0  0  0  0  0  0  0  0  0  0  0  0
   15.2440  -52.0990   39.8020 H   0  0  0  0  0  0  0  0  0  0  0  0
   15.2910  -53.5250   40.9110 H   0  0  0  0  0  0  0  0  0  0  0  0
   14.1770  -58.6340   34.6300 O   0  0  0  0  0  0  0  0  0  0  0  0
   14.6000  -59.1260   33.9020 H   0  0  0  0  0  0  0  0  0  0  0  0
  1 11  2  6  0  0  0
  1  3  1  0  0  0  0
  1 10  1  0  0  0  0
  2  1  1  0  0  0  0
  4  3  1  6  0  0  0
  4  5  1  0  0  0  0
  4  8  1  0  0  0  0
  5  9  1  6  0  0  0
  5  6  1  0  0  0  0
  6  7  1  0  0  0  0
  7 12  1  1  0  0  0
  8 25  1  6  0  0  0
  8  7  1  0  0  0  0
 10  9  1  0  0  0  0
 12 13  1  0  0  0  0
 12 20  1  0  0  0  0
 13 15  1  0  0  0  0
 14 16  1  0  0  0  0
 14 13  2  0  0  0  0
 15 18  2  0  0  0  0
 15 19  1  0  0  0  0
 16 17  2  0  0  0  0
 17 18  1  0  0  0  0
 18 22  1  0  0  0  0
 20 21  1  0  0  0  0
 20 19  2  0  0  0  0
 22 24  1  0  0  0  0
 23 22  1  0  0  0  0
 26 25  1  0  0  0  0
M  END
>  <Pose>
1

>  <Score>
-7.863

$$$$
