/Users/jonathanwahrer/Desktop/Msc/3_Semester/Drug_Design_Praktikum/waehrer_HTS_screening/HTS_experiment/out/docking_results/vina_output/6s1j/0999_docked.pdbqt
 OpenBabel03222221453D

 35 39  0  0  1  0  0  0  0  0999 V2000
   11.7690  -60.1590   39.8140 N   0  0  0  0  0  0  0  0  0  0  0  0
   12.4770  -60.0020   38.5980 C   0  0  0  0  0  0  0  0  0  0  0  0
   12.4860  -60.9650   37.7850 O   0  0  0  0  0  0  0  0  0  0  0  0
   11.7750  -59.3420   40.4770 H   0  0  0  0  0  0  0  0  0  0  0  0
   11.0940  -61.3890   40.0780 C   0  0  1  0  0  3  0  0  0  0  0  0
   10.3730  -61.5380   41.3510 C   0  0  1  0  0  0  0  0  0  0  0  0
   11.0530  -60.9230   42.8900 S   0  0  0  0  0  0  0  0  0  0  0  0
    9.4650  -60.5620   40.8390 N   0  0  0  0  0  0  0  0  0  0  0  0
    9.4660  -60.5070   43.7020 C   0  0  0  0  0  2  0  0  0  0  0  0
    8.8140  -59.4410   42.8100 C   0  0  0  0  0  0  0  0  0  0  0  0
    8.8200  -59.4780   41.5150 C   0  0  0  0  0  0  0  0  0  0  0  0
    9.6580  -61.2330   39.6060 C   0  0  1  0  0  0  0  0  0  0  0  0
    9.1050  -61.6030   38.5640 O   0  0  0  0  0  1  0  0  0  0  0  0
    8.2140  -58.4160   43.6250 C   0  0  0  0  0  2  0  0  0  0  0  0
    8.2050  -58.4480   44.9790 O   0  0  0  0  0  0  0  0  0  0  0  0
    8.8820  -57.5180   45.7770 C   0  0  0  0  0  0  0  0  0  0  0  0
    8.2580  -56.4920   46.1050 O   0  0  0  0  0  0  0  0  0  0  0  0
   10.2790  -57.8250   46.1660 C   0  0  0  0  0  1  0  0  0  0  0  0
    8.1850  -58.4530   40.6370 C   0  0  0  0  0  0  0  0  0  0  0  0
    8.3260  -57.2510   40.7070 O   0  0  0  0  0  1  0  0  0  0  0  0
    7.3260  -58.8870   39.6100 O   0  0  0  0  0  0  0  0  0  0  0  0
   13.1910  -58.7660   38.2640 C   0  0  0  0  0  0  0  0  0  0  0  0
   13.3660  -57.6970   38.9780 O   0  0  0  0  0  0  0  0  0  0  0  0
   14.0530  -56.7950   38.3560 C   0  0  0  0  0  0  0  0  0  0  0  0
   14.3710  -57.3100   37.0940 C   0  0  0  0  0  3  0  0  0  0  0  0
   13.8150  -58.5610   37.0550 C   0  0  0  0  0  3  0  0  0  0  0  0
   14.4640  -55.4290   38.8470 C   0  0  0  0  0  2  0  0  0  0  0  0
   15.8610  -55.3360   38.9530 O   0  0  0  0  0  0  0  0  0  0  0  0
   16.6440  -54.3460   38.4320 C   0  0  0  0  0  0  0  0  0  0  0  0
   16.4270  -52.9840   38.6230 C   0  0  0  0  0  3  0  0  0  0  0  0
   17.2820  -52.0700   38.0510 C   0  0  0  0  0  3  0  0  0  0  0  0
   18.3650  -52.4250   37.2810 C   0  0  0  0  0  0  0  0  0  0  0  0
   18.5890  -53.7770   37.0860 C   0  0  0  0  0  3  0  0  0  0  0  0
   19.5170  -51.1130   36.5140 Br  0  0  0  0  0  0  0  0  0  0  0  0
   17.7300  -54.7050   37.6610 C   0  0  0  0  0  3  0  0  0  0  0  0
  1  4  1  0  0  0  0
  2  1  1  0  0  0  0
  3  2  2  0  0  0  0
  5  1  1  1  0  0  0
  5  6  1  0  0  0  0
  6  7  1  1  0  0  0
  7  9  1  0  0  0  0
  8  6  1  0  0  0  0
  8 11  1  0  0  0  0
 10 14  1  0  0  0  0
 10  9  1  0  0  0  0
 11 10  2  0  0  0  0
 12 13  1  6  0  0  0
 12  5  1  0  0  0  0
 12  8  1  0  0  0  0
 12  6  1  0  0  0  0
 14 15  1  0  0  0  0
 15 16  1  0  0  0  0
 16 17  2  0  0  0  0
 16 18  1  0  0  0  0
 19 20  1  0  0  0  0
 19 11  1  0  0  0  0
 21 19  2  0  0  0  0
 22  2  1  0  0  0  0
 22 23  1  0  0  0  0
 24 27  1  0  0  0  0
 24 23  1  0  0  0  0
 25 24  2  0  0  0  0
 26 25  1  0  0  0  0
 26 22  2  0  0  0  0
 27 28  1  0  0  0  0
 29 30  1  0  0  0  0
 29 28  1  0  0  0  0
 31 30  2  0  0  0  0
 32 31  1  0  0  0  0
 33 32  2  0  0  0  0
 33 35  1  0  0  0  0
 34 32  1  0  0  0  0
 35 29  2  0  0  0  0
M  END
>  <Pose>
1

>  <Score>
-8.073

$$$$
