/Users/jonathanwahrer/Desktop/Msc/3_Semester/Drug_Design_Praktikum/waehrer_HTS_screening/HTS_experiment/out/docking_results/vina_output/6s1j/1011_docked.pdbqt
 OpenBabel03222221453D

 29 32  0  0  0  0  0  0  0  0999 V2000
   18.6470  -55.8770   33.4140 C   0  0  0  0  0  0  0  0  0  0  0  0
   18.2790  -55.5960   34.7330 C   0  0  0  0  0  3  0  0  0  0  0  0
   18.7520  -54.4680   35.3670 C   0  0  0  0  0  0  0  0  0  0  0  0
   19.6020  -53.5700   34.7460 C   0  0  0  0  0  0  0  0  0  0  0  0
   19.9680  -53.8360   33.4560 C   0  0  0  0  0  3  0  0  0  0  0  0
   19.4910  -54.9790   32.8060 C   0  0  0  0  0  0  0  0  0  0  0  0
   20.0170  -55.3490   31.0000 Br  0  0  0  0  0  0  0  0  0  0  0  0
   19.9390  -52.4730   35.6960 C   0  0  0  0  0  2  0  0  0  0  0  0
   19.5990  -53.1230   37.0550 C   0  0  0  0  0  2  0  0  0  0  0  0
   18.4920  -53.9970   36.7020 N   0  0  0  0  0  0  0  0  0  0  0  0
   17.3500  -54.3570   37.4540 C   0  0  0  0  0  0  0  0  0  0  0  0
   16.4540  -55.1130   37.0120 O   0  0  0  0  0  0  0  0  0  0  0  0
   18.0280  -57.3080   32.6350 S   0  0  0  0  0  0  0  0  0  0  0  0
   17.0780  -56.9150   31.5100 O   0  0  0  0  0  0  0  0  0  0  0  0
   19.1110  -58.1110   31.9970 O   0  0  0  0  0  0  0  0  0  0  0  0
   17.0880  -58.2410   33.7360 N   0  0  0  0  0  0  0  0  0  0  0  0
   17.5890  -59.1340   33.9100 H   0  0  0  0  0  0  0  0  0  0  0  0
   15.7430  -58.4850   33.2560 C   0  0  0  0  0  2  0  0  0  0  0  0
   14.8300  -57.5720   34.0600 C   0  0  0  0  0  2  0  0  0  0  0  0
   13.5250  -58.2540   34.3730 C   0  0  0  0  0  2  0  0  0  0  0  0
   13.5280  -58.6510   35.7300 N   0  0  0  0  0  0  0  0  0  0  0  0
   14.1300  -57.7560   36.6530 C   0  0  0  0  0  2  0  0  0  0  0  0
   14.4960  -58.5330   37.9060 C   0  0  0  0  0  2  0  0  0  0  0  0
   13.4940  -59.4100   38.2700 O   0  0  0  0  0  0  0  0  0  0  0  0
   12.2620  -59.1140   37.6990 C   0  0  0  0  0  2  0  0  0  0  0  0
   12.3980  -59.3680   36.1950 C   0  0  0  0  0  2  0  0  0  0  0  0
   17.2030  -53.8170   38.8270 C   0  0  0  0  0  3  0  0  0  0  0  0
   15.8130  -53.7100   39.3070 C   0  0  0  0  0  2  0  0  0  0  0  0
   16.6260  -52.4660   39.0420 C   0  0  0  0  0  2  0  0  0  0  0  0
  1  2  1  0  0  0  0
  2  3  2  0  0  0  0
  3 10  1  0  0  0  0
  4  3  1  0  0  0  0
  4  8  1  0  0  0  0
  5  4  2  0  0  0  0
  6  1  2  0  0  0  0
  6  5  1  0  0  0  0
  7  6  1  0  0  0  0
  8  9  1  0  0  0  0
 10  9  1  0  0  0  0
 10 11  1  0  0  0  0
 11 27  1  0  0  0  0
 12 11  2  0  0  0  0
 13  1  1  0  0  0  0
 13 16  1  0  0  0  0
 14 13  2  0  0  0  0
 15 13  2  0  0  0  0
 16 17  1  0  0  0  0
 18 16  1  0  0  0  0
 18 19  1  0  0  0  0
 19 20  1  0  0  0  0
 20 21  1  0  0  0  0
 21 26  1  0  0  0  0
 21 22  1  0  0  0  0
 22 23  1  0  0  0  0
 23 24  1  0  0  0  0
 25 24  1  0  0  0  0
 26 25  1  0  0  0  0
 27 29  1  0  0  0  0
 27 28  1  0  0  0  0
 29 28  1  0  0  0  0
M  END
>  <Pose>
1

>  <Score>
-8.556

$$$$
