/Users/jonathanwahrer/Desktop/Msc/3_Semester/Drug_Design_Praktikum/waehrer_HTS_screening/HTS_experiment/out/docking_results/vina_output/6s1j/1028_docked.pdbqt
 OpenBabel03222221463D

 25 28  0  0  1  0  0  0  0  0999 V2000
   18.0840  -57.8040   33.3170 N   0  0  0  0  0  0  0  0  0  0  0  0
   18.3030  -56.6240   32.5610 C   0  0  0  0  0  2  0  0  0  0  0  0
   17.7580  -55.7840   33.6490 C   0  0  1  0  0  3  0  0  0  0  0  0
   17.7440  -57.0330   34.4600 C   0  0  0  0  0  2  0  0  0  0  0  0
   18.6440  -54.7730   34.1930 N   0  0  0  0  0  0  0  0  0  0  0  0
   19.8120  -54.3910   33.7470 N   0  0  0  0  0  0  0  0  0  0  0  0
   20.3180  -53.4280   34.5300 N   0  0  0  0  0  0  0  0  0  0  0  0
   19.4440  -53.1780   35.5210 C   0  0  0  0  0  0  0  0  0  0  0  0
   18.3840  -54.0440   35.2910 C   0  0  0  0  0  3  0  0  0  0  0  0
   19.5760  -52.1820   36.6370 C   0  0  0  0  0  2  0  0  0  0  0  0
   18.5620  -52.4910   37.6290 N   0  0  0  0  0  0  0  0  0  0  0  0
   17.3730  -51.7310   37.8720 C   0  0  0  0  0  2  0  0  0  0  0  0
   16.6090  -52.4820   38.9250 C   0  0  0  0  0  2  0  0  0  0  0  0
   17.2450  -53.8220   39.1050 C   0  0  0  0  0  2  0  0  0  0  0  0
   18.6100  -53.6090   38.5090 C   0  0  0  0  0  0  0  0  0  0  0  0
   19.5920  -54.3250   38.7760 O   0  0  0  0  0  0  0  0  0  0  0  0
   16.9140  -58.9120   32.8150 S   0  0  0  0  0  0  0  0  0  0  0  0
   17.4420  -60.3030   33.0150 O   0  0  0  0  0  0  0  0  0  0  0  0
   16.6020  -58.7820   31.3430 O   0  0  0  0  0  0  0  0  0  0  0  0
   15.4050  -58.8060   33.7190 C   0  0  0  0  0  0  0  0  0  0  0  0
   14.7930  -59.9110   34.8780 S   0  0  0  0  0  0  0  0  0  0  0  0
   13.3340  -59.1150   35.2730 C   0  0  0  0  0  0  0  0  0  0  0  0
   13.3740  -58.0000   34.4770 C   0  0  0  0  0  3  0  0  0  0  0  0
   11.9570  -59.6280   36.5190 Br  0  0  0  0  0  0  0  0  0  0  0  0
   14.4370  -57.8480   33.6850 C   0  0  0  0  0  3  0  0  0  0  0  0
  1  4  1  0  0  0  0
  2  1  1  0  0  0  0
  3  2  1  6  0  0  0
  3  5  1  0  0  0  0
  3  4  1  0  0  0  0
  5  9  1  0  0  0  0
  6  5  1  0  0  0  0
  6  7  2  0  0  0  0
  7  8  1  0  0  0  0
  8 10  1  0  0  0  0
  9  8  2  0  0  0  0
 10 11  1  0  0  0  0
 11 12  1  0  0  0  0
 11 15  1  0  0  0  0
 12 13  1  0  0  0  0
 13 14  1  0  0  0  0
 15 16  2  0  0  0  0
 15 14  1  0  0  0  0
 17 18  2  0  0  0  0
 17  1  1  0  0  0  0
 17 20  1  0  0  0  0
 19 17  2  0  0  0  0
 20 21  1  0  0  0  0
 21 22  1  0  0  0  0
 22 24  1  0  0  0  0
 23 22  2  0  0  0  0
 25 20  2  0  0  0  0
 25 23  1  0  0  0  0
M  END
>  <Pose>
1

>  <Score>
-8.254

$$$$
