/Users/jonathanwahrer/Desktop/Msc/3_Semester/Drug_Design_Praktikum/waehrer_HTS_screening/HTS_experiment/out/docking_results/vina_output/6s1j/1037_docked.pdbqt
 OpenBabel03222221463D

 31 34  0  0  0  0  0  0  0  0999 V2000
   18.2630  -57.4910   32.8760 N   0  0  0  0  0  0  0  0  0  0  0  0
   18.8290  -56.3970   32.1640 C   0  0  0  0  0  3  0  0  0  0  0  0
   19.1830  -55.1890   32.9000 C   0  0  0  0  0  3  0  0  0  0  0  0
   19.2460  -55.2580   34.3470 N   0  0  0  0  0  0  0  0  0  0  0  0
   18.7120  -56.3840   35.0490 C   0  0  0  0  0  2  0  0  0  0  0  0
   18.7410  -57.6510   34.2020 C   0  0  0  0  0  2  0  0  0  0  0  0
   19.8630  -54.2060   35.0240 C   0  0  0  0  0  0  0  0  0  0  0  0
   20.4090  -53.3340   34.1490 O   0  0  0  0  0  0  0  0  0  0  0  0
   16.6010  -57.7440   32.6660 S   0  0  0  0  0  0  0  0  0  0  0  0
   16.3910  -58.8780   31.7000 O   0  0  0  0  0  0  0  0  0  0  0  0
   15.9550  -56.5240   32.0320 O   0  0  0  0  0  0  0  0  0  0  0  0
   15.7470  -58.1870   34.1290 C   0  0  0  0  0  0  0  0  0  0  0  0
   15.5930  -57.2550   35.1550 C   0  0  0  0  0  3  0  0  0  0  0  0
   14.9440  -57.5470   36.3350 C   0  0  0  0  0  0  0  0  0  0  0  0
   14.4090  -58.7960   36.5550 C   0  0  0  0  0  0  0  0  0  0  0  0
   14.8080  -56.5740   37.3850 N   0  0  0  0  0  0  0  0  0  0  0  0
   14.5570  -59.7220   35.5450 C   0  0  0  0  0  3  0  0  0  0  0  0
   13.7450  -59.1050   37.7590 O   0  0  0  0  0  0  0  0  0  0  0  0
   15.2110  -59.4350   34.3530 C   0  0  0  0  0  3  0  0  0  0  0  0
   13.1360  -58.0480   38.5220 C   0  0  0  0  0  2  0  0  0  0  0  0
   14.1420  -56.9560   38.5760 C   0  0  0  0  0  0  0  0  0  0  0  0
   14.4260  -56.3560   39.6380 O   0  0  0  0  0  0  0  0  0  0  0  0
   15.2110  -55.6420   37.2120 H   0  0  0  0  0  0  0  0  0  0  0  0
   20.0330  -53.8680   36.4080 C   0  0  0  0  0  2  0  0  0  0  0  0
   18.9180  -53.3840   37.2180 C   0  0  0  0  0  0  0  0  0  0  0  0
   18.6160  -52.0470   37.2950 C   0  0  0  0  0  0  0  0  0  0  0  0
   17.5440  -51.5980   38.0670 C   0  0  0  0  0  3  0  0  0  0  0  0
   19.6710  -50.7580   36.3460 Br  0  0  0  0  0  0  0  0  0  0  0  0
   16.7870  -52.5010   38.7530 C   0  0  0  0  0  3  0  0  0  0  0  0
   17.0870  -53.8630   38.6770 C   0  0  0  0  0  3  0  0  0  0  0  0
   18.1320  -54.2960   37.9240 C   0  0  0  0  0  3  0  0  0  0  0  0
  1  6  1  0  0  0  0
  2  1  1  0  0  0  0
  2  3  2  0  0  0  0
  3  4  1  0  0  0  0
  4  7  1  0  0  0  0
  4  5  1  0  0  0  0
  6  5  1  0  0  0  0
  7 24  1  0  0  0  0
  8  7  2  0  0  0  0
  9  1  1  0  0  0  0
  9 12  1  0  0  0  0
 10  9  2  0  0  0  0
 11  9  2  0  0  0  0
 12 19  2  0  0  0  0
 12 13  1  0  0  0  0
 13 14  2  0  0  0  0
 14 15  1  0  0  0  0
 14 16  1  0  0  0  0
 15 18  1  0  0  0  0
 16 21  1  0  0  0  0
 17 15  2  0  0  0  0
 18 20  1  0  0  0  0
 19 17  1  0  0  0  0
 20 21  1  0  0  0  0
 21 22  2  0  0  0  0
 23 16  1  0  0  0  0
 24 25  1  0  0  0  0
 25 26  2  0  0  0  0
 25 31  1  0  0  0  0
 26 27  1  0  0  0  0
 27 29  2  0  0  0  0
 28 26  1  0  0  0  0
 30 29  1  0  0  0  0
 31 30  2  0  0  0  0
M  END
>  <Pose>
1

>  <Score>
-10.576

$$$$
