/Users/jonathanwahrer/Desktop/Msc/3_Semester/Drug_Design_Praktikum/waehrer_HTS_screening/HTS_experiment/out/docking_results/vina_output/6s1j/1042_docked.pdbqt
 OpenBabel03222221473D

 31 34  0  0  0  0  0  0  0  0999 V2000
   16.2660  -57.1370   33.8310 N   0  0  0  0  0  0  0  0  0  0  0  0
   16.2810  -56.0950   32.9180 C   0  0  0  0  0  2  0  0  0  0  0  0
   17.7560  -55.8330   32.5100 C   0  0  0  0  0  2  0  0  0  0  0  0
   18.5610  -55.6700   33.6890 N   0  0  0  0  0  0  0  0  0  0  0  0
   18.5810  -56.7750   34.6200 C   0  0  0  0  0  2  0  0  0  0  0  0
   17.5200  -57.7530   34.1660 C   0  0  0  0  0  2  0  0  0  0  0  0
   19.3120  -54.5130   33.9690 C   0  0  0  0  0  0  0  0  0  0  0  0
   19.2900  -53.5600   33.1580 O   0  0  0  0  0  0  0  0  0  0  0  0
   20.1130  -54.4080   35.1890 C   0  0  0  0  0  2  0  0  0  0  0  0
   19.5050  -53.4660   36.1250 N   0  0  0  0  0  0  0  0  0  0  0  0
   19.6220  -52.0600   36.1940 C   0  0  0  0  0  0  0  0  0  0  0  0
   20.3190  -51.3430   35.4020 O   0  0  0  0  0  0  0  0  0  0  0  0
   18.8300  -51.6190   37.2900 N   0  0  0  0  0  0  0  0  0  0  0  0
   17.8820  -52.6640   37.5720 C   0  0  0  0  0  0  0  0  0  0  0  0
   18.9790  -50.6860   37.7490 H   0  0  0  0  0  0  0  0  0  0  0  0
   16.5900  -52.5210   36.8360 C   0  0  0  0  0  2  0  0  0  0  0  0
   17.4730  -52.6870   39.0270 C   0  0  0  0  0  2  0  0  0  0  0  0
   18.6320  -53.8850   37.1930 C   0  0  0  0  0  0  0  0  0  0  0  0
   15.6840  -53.4870   37.6110 C   0  0  0  0  0  2  0  0  0  0  0  0
   16.1230  -53.3250   39.0400 C   0  0  0  0  0  2  0  0  0  0  0  0
   18.5220  -55.0250   37.6980 O   0  0  0  0  0  0  0  0  0  0  0  0
   14.8930  -57.9320   34.3070 S   0  0  0  0  0  0  0  0  0  0  0  0
   13.6970  -57.3020   33.5800 O   0  0  0  0  0  0  0  0  0  0  0  0
   14.8680  -59.3820   33.8130 O   0  0  0  0  0  0  0  0  0  0  0  0
   14.4700  -57.9080   35.9910 C   0  0  0  0  0  0  0  0  0  0  0  0
   13.3880  -58.5180   36.5660 C   0  0  0  0  0  0  0  0  0  0  0  0
   13.1070  -58.3940   37.9310 C   0  0  0  0  0  3  0  0  0  0  0  0
   12.2700  -59.6200   35.4990 Br  0  0  0  0  0  0  0  0  0  0  0  0
   13.8970  -57.6600   38.7590 C   0  0  0  0  0  3  0  0  0  0  0  0
   14.9900  -57.0390   38.2160 C   0  0  0  0  0  3  0  0  0  0  0  0
   15.2680  -57.1580   36.8750 C   0  0  0  0  0  3  0  0  0  0  0  0
  1  6  1  0  0  0  0
  1 22  1  0  0  0  0
  2  1  1  0  0  0  0
  3  2  1  0  0  0  0
  3  4  1  0  0  0  0
  4  7  1  0  0  0  0
  4  5  1  0  0  0  0
  6  5  1  0  0  0  0
  7  9  1  0  0  0  0
  8  7  2  0  0  0  0
  9 10  1  0  0  0  0
 10 11  1  0  0  0  0
 10 18  1  0  0  0  0
 11 13  1  0  0  0  0
 12 11  2  0  0  0  0
 13 14  1  0  0  0  0
 13 15  1  0  0  0  0
 14 17  1  0  0  0  0
 16 14  1  0  0  0  0
 16 19  1  0  0  0  0
 17 20  1  0  0  0  0
 18 14  1  0  0  0  0
 18 21  2  0  0  0  0
 19 20  1  0  0  0  0
 22 25  1  0  0  0  0
 23 22  2  0  0  0  0
 24 22  2  0  0  0  0
 25 26  2  0  0  0  0
 25 31  1  0  0  0  0
 26 27  1  0  0  0  0
 27 29  2  0  0  0  0
 28 26  1  0  0  0  0
 30 29  1  0  0  0  0
 31 30  2  0  0  0  0
M  END
>  <Pose>
1

>  <Score>
-9.665

$$$$
