/Users/jonathanwahrer/Desktop/Msc/3_Semester/Drug_Design_Praktikum/waehrer_HTS_screening/HTS_experiment/out/docking_results/vina_output/6s1j/1051_docked.pdbqt
 OpenBabel03222221473D

 27 30  0  0  0  0  0  0  0  0999 V2000
   14.2820  -59.9100   33.5050 N   0  0  0  0  0  0  0  0  0  0  0  0
   14.0390  -58.5180   33.6100 C   0  0  0  0  0  2  0  0  0  0  0  0
   14.3010  -57.8910   34.9360 C   0  0  0  0  0  2  0  0  0  0  0  0
   14.0140  -58.7470   36.0560 N   0  0  0  0  0  0  0  0  0  0  0  0
   13.4970  -60.0620   35.7480 C   0  0  0  0  0  2  0  0  0  0  0  0
   14.4600  -60.6250   34.7230 C   0  0  0  0  0  2  0  0  0  0  0  0
   14.2000  -58.3850   37.4030 C   0  0  0  0  0  0  0  0  0  0  0  0
   13.9220  -59.1990   38.3110 O   0  0  0  0  0  0  0  0  0  0  0  0
   14.7170  -57.0660   37.7520 C   0  0  0  0  0  0  0  0  0  0  0  0
   15.6940  -56.4210   37.1220 N   0  0  0  0  0  0  0  0  0  0  0  0
   15.9180  -55.2380   37.6990 N   0  0  0  0  0  0  0  0  0  0  0  0
   15.0720  -55.0810   38.7430 C   0  0  0  0  0  0  0  0  0  0  0  0
   16.7930  -54.2480   37.4230 C   0  0  0  0  0  3  0  0  0  0  0  0
   14.3050  -56.2510   38.7750 C   0  0  0  0  0  3  0  0  0  0  0  0
   15.0810  -53.9640   39.5130 N   0  0  0  0  0  0  0  0  0  0  0  0
   15.9670  -52.9650   39.2310 C   0  0  0  0  0  3  0  0  0  0  0  0
   16.8410  -53.0950   38.1730 C   0  0  0  0  0  0  0  0  0  0  0  0
   18.0880  -51.6850   37.7790 Br  0  0  0  0  0  0  0  0  0  0  0  0
   15.5690  -60.3180   32.4360 S   0  0  0  0  0  0  0  0  0  0  0  0
   15.0790  -60.3410   31.0250 O   0  0  0  0  0  0  0  0  0  0  0  0
   16.0110  -61.7260   32.8120 O   0  0  0  0  0  0  0  0  0  0  0  0
   16.9020  -59.1980   32.5600 C   0  0  0  0  0  0  0  0  0  0  0  0
   17.4090  -58.3900   31.5680 C   0  0  0  0  0  3  0  0  0  0  0  0
   18.4280  -57.6750   32.0460 N   0  0  0  0  0  0  0  0  0  0  0  0
   18.6000  -57.9910   33.3150 N   0  0  0  0  0  0  0  0  0  0  0  0
   19.2280  -56.7130   31.3370 C   0  0  0  0  0  1  0  0  0  0  0  0
   17.6860  -58.9250   33.6810 C   0  0  0  0  0  3  0  0  0  0  0  0
  1  2  1  0  0  0  0
  1  6  1  0  0  0  0
  2  3  1  0  0  0  0
  3  4  1  0  0  0  0
  4  7  1  0  0  0  0
  5  4  1  0  0  0  0
  6  5  1  0  0  0  0
  7  9  1  0  0  0  0
  7  8  2  0  0  0  0
  9 14  1  0  0  0  0
 10 11  1  0  0  0  0
 10  9  2  0  0  0  0
 11 12  1  0  0  0  0
 12 14  2  0  0  0  0
 12 15  1  0  0  0  0
 13 11  1  0  0  0  0
 13 17  2  0  0  0  0
 16 15  2  0  0  0  0
 17 16  1  0  0  0  0
 18 17  1  0  0  0  0
 19 22  1  0  0  0  0
 19 21  2  0  0  0  0
 19  1  1  0  0  0  0
 20 19  2  0  0  0  0
 22 27  1  0  0  0  0
 23 24  1  0  0  0  0
 23 22  2  0  0  0  0
 24 25  1  0  0  0  0
 25 27  2  0  0  0  0
 26 24  1  0  0  0  0
M  END
>  <Pose>
1

>  <Score>
-8.578

$$$$
