/Users/jonathanwahrer/Desktop/Msc/3_Semester/Drug_Design_Praktikum/waehrer_HTS_screening/HTS_experiment/out/docking_results/vina_output/6s1j/1056_docked.pdbqt
 OpenBabel03222221473D

 30 33  0  0  1  0  0  0  0  0999 V2000
   13.6170  -59.5230   33.7150 N   0  0  0  0  0  0  0  0  0  0  0  0
   14.7130  -60.0760   33.0150 C   0  0  0  0  0  2  0  0  0  0  0  0
   16.0610  -59.7860   33.5310 C   0  0  0  0  0  2  0  0  0  0  0  0
   16.1800  -58.4390   34.0030 N   0  0  0  0  0  0  0  0  0  0  0  0
   15.0660  -57.5450   33.8680 C   0  0  0  0  0  2  0  0  0  0  0  0
   13.7450  -58.1840   34.1640 C   0  0  0  0  0  2  0  0  0  0  0  0
   17.3750  -57.9850   34.5960 C   0  0  0  0  0  0  0  0  0  0  0  0
   18.3370  -58.7800   34.7070 O   0  0  0  0  0  0  0  0  0  0  0  0
   17.5670  -56.6310   35.0980 C   0  0  1  0  0  3  0  0  0  0  0  0
   18.3480  -55.7380   34.3880 C   0  0  0  0  0  3  0  0  0  0  0  0
   18.5250  -54.4900   34.8480 N   0  0  0  0  0  0  0  0  0  0  0  0
   17.9630  -54.0540   35.9960 C   0  0  2  0  0  3  0  0  0  0  0  0
   17.1970  -54.8960   36.7100 N   0  0  0  0  0  0  0  0  0  0  0  0
   18.1630  -52.7540   36.4490 C   0  0  0  0  0  3  0  0  0  0  0  0
   16.6280  -54.4610   37.8700 C   0  0  0  0  0  3  0  0  0  0  0  0
   17.0010  -56.1670   36.2680 C   0  0  0  0  0  0  0  0  0  0  0  0
   16.8150  -53.1760   38.3360 C   0  0  0  0  0  0  0  0  0  0  0  0
   17.6000  -52.2900   37.6160 C   0  0  0  0  0  3  0  0  0  0  0  0
   16.2120  -52.6660   39.5920 C   0  0  0  0  0  1  0  0  0  0  0  0
   16.2940  -56.9430   36.9280 O   0  0  0  0  0  0  0  0  0  0  0  0
   12.7570  -60.5750   34.7230 S   0  0  0  0  0  0  0  0  0  0  0  0
   11.4170  -60.8700   34.1460 O   0  0  0  0  0  0  0  0  0  0  0  0
   13.5270  -61.8680   34.8320 O   0  0  0  0  0  0  0  0  0  0  0  0
   12.6130  -59.8910   36.3200 C   0  0  0  0  0  0  0  0  0  0  0  0
   11.4040  -59.9240   36.9820 C   0  0  0  0  0  3  0  0  0  0  0  0
   11.3600  -59.3610   38.2530 C   0  0  0  0  0  0  0  0  0  0  0  0
   12.4600  -58.7920   38.8390 C   0  0  0  0  0  3  0  0  0  0  0  0
    9.7220  -59.3750   39.2180 Br  0  0  0  0  0  0  0  0  0  0  0  0
   13.6720  -58.7640   38.1640 C   0  0  0  0  0  3  0  0  0  0  0  0
   13.7380  -59.3250   36.8840 C   0  0  0  0  0  3  0  0  0  0  0  0
  1  6  1  0  0  0  0
  1 21  1  0  0  0  0
  2  3  1  0  0  0  0
  2  1  1  0  0  0  0
  3  4  1  0  0  0  0
  4  7  1  0  0  0  0
  5  4  1  0  0  0  0
  5  6  1  0  0  0  0
  7  8  2  0  0  0  0
  9  7  1  6  0  0  0
  9 16  1  0  0  0  0
 10 11  2  0  0  0  0
 10  9  1  0  0  0  0
 11 12  1  0  0  0  0
 12 14  1  6  0  0  0
 12 13  1  0  0  0  0
 13 15  1  0  0  0  0
 14 18  2  0  0  0  0
 15 17  2  0  0  0  0
 16 13  1  0  0  0  0
 16 20  2  0  0  0  0
 17 19  1  0  0  0  0
 18 17  1  0  0  0  0
 21 23  2  0  0  0  0
 21 24  1  0  0  0  0
 22 21  2  0  0  0  0
 24 30  2  0  0  0  0
 24 25  1  0  0  0  0
 25 26  2  0  0  0  0
 26 27  1  0  0  0  0
 26 28  1  0  0  0  0
 29 27  2  0  0  0  0
 30 29  1  0  0  0  0
M  END
>  <Pose>
1

>  <Score>
-9.957

$$$$
