/Users/jonathanwahrer/Desktop/Msc/3_Semester/Drug_Design_Praktikum/waehrer_HTS_screening/HTS_experiment/out/docking_results/vina_output/6s1j/1076_docked.pdbqt
 OpenBabel03222221483D

 29 32  0  0  0  0  0  0  0  0999 V2000
   16.1680  -57.8530   33.8300 N   0  0  0  0  0  0  0  0  0  0  0  0
   17.1770  -58.4800   34.6240 C   0  0  0  0  0  2  0  0  0  0  0  0
   18.4840  -57.7310   34.3110 C   0  0  0  0  0  2  0  0  0  0  0  0
   18.5020  -57.2470   33.0000 N   0  0  0  0  0  0  0  0  0  0  0  0
   17.7870  -58.0250   32.0250 C   0  0  0  0  0  2  0  0  0  0  0  0
   16.3800  -58.3620   32.4630 C   0  0  0  0  0  2  0  0  0  0  0  0
   18.5890  -55.8730   32.7310 C   0  0  0  0  0  2  0  0  0  0  0  0
   18.5560  -54.9600   33.8280 N   0  0  0  0  0  0  0  0  0  0  0  0
   17.4300  -54.8910   34.6890 N   0  0  0  0  0  0  0  0  0  0  0  0
   17.7480  -53.8990   35.6600 C   0  0  0  0  0  0  0  0  0  0  0  0
   16.5480  -55.4520   34.6230 H   0  0  0  0  0  0  0  0  0  0  0  0
   16.9210  -53.5570   36.6410 C   0  0  0  0  0  3  0  0  0  0  0  0
   19.0360  -53.3500   35.4300 N   0  0  0  0  0  0  0  0  0  0  0  0
   16.9890  -52.5890   37.7590 C   0  0  0  0  0  2  0  0  0  0  0  0
   17.8990  -51.4330   37.4180 C   0  0  0  0  0  2  0  0  0  0  0  0
   19.3130  -51.9840   37.4610 C   0  0  0  0  0  2  0  0  0  0  0  0
   19.8110  -52.3480   36.0960 C   0  0  0  0  0  2  0  0  0  0  0  0
   19.5270  -54.0260   34.2770 C   0  0  0  0  0  0  0  0  0  0  0  0
   20.6530  -53.8000   33.7680 O   0  0  0  0  0  0  0  0  0  0  0  0
   14.5700  -58.2770   34.2700 S   0  0  0  0  0  0  0  0  0  0  0  0
   14.2220  -59.6810   33.8510 O   0  0  0  0  0  0  0  0  0  0  0  0
   13.6380  -57.3630   33.5080 O   0  0  0  0  0  0  0  0  0  0  0  0
   14.2370  -58.0940   35.9490 C   0  0  0  0  0  0  0  0  0  0  0  0
   14.6390  -57.0590   36.7400 C   0  0  0  0  0  3  0  0  0  0  0  0
   14.3150  -57.0070   38.0880 C   0  0  0  0  0  0  0  0  0  0  0  0
   13.5790  -57.9890   38.6800 C   0  0  0  0  0  3  0  0  0  0  0  0
   14.8940  -55.5390   39.1840 Br  0  0  0  0  0  0  0  0  0  0  0  0
   13.1550  -59.0550   37.9010 C   0  0  0  0  0  3  0  0  0  0  0  0
   13.4820  -59.0950   36.5690 C   0  0  0  0  0  3  0  0  0  0  0  0
  1 20  1  0  0  0  0
  1  2  1  0  0  0  0
  3  2  1  0  0  0  0
  4  3  1  0  0  0  0
  5  6  1  0  0  0  0
  5  4  1  0  0  0  0
  6  1  1  0  0  0  0
  7  4  1  0  0  0  0
  7  8  1  0  0  0  0
  8 18  1  0  0  0  0
  8  9  1  0  0  0  0
  9 10  1  0  0  0  0
 10 12  2  0  0  0  0
 11  9  1  0  0  0  0
 12 14  1  0  0  0  0
 13 10  1  0  0  0  0
 13 17  1  0  0  0  0
 15 16  1  0  0  0  0
 15 14  1  0  0  0  0
 17 16  1  0  0  0  0
 18 13  1  0  0  0  0
 19 18  2  0  0  0  0
 20 23  1  0  0  0  0
 21 20  2  0  0  0  0
 22 20  2  0  0  0  0
 23 29  2  0  0  0  0
 23 24  1  0  0  0  0
 24 25  2  0  0  0  0
 25 26  1  0  0  0  0
 25 27  1  0  0  0  0
 28 26  2  0  0  0  0
 29 28  1  0  0  0  0
M  END
>  <Pose>
1

>  <Score>
-9.671

$$$$
