/Users/jonathanwahrer/Desktop/Msc/3_Semester/Drug_Design_Praktikum/waehrer_HTS_screening/HTS_experiment/out/docking_results/vina_output/6s1j/1081_docked.pdbqt
 OpenBabel03222221483D

 27 30  0  0  0  0  0  0  0  0999 V2000
   16.6270  -57.4910   34.0620 N   0  0  0  0  0  0  0  0  0  0  0  0
   16.3020  -56.4290   33.1890 C   0  0  0  0  0  2  0  0  0  0  0  0
   16.8330  -55.0790   33.5370 C   0  0  0  0  0  2  0  0  0  0  0  0
   17.6270  -55.0390   34.7400 N   0  0  0  0  0  0  0  0  0  0  0  0
   17.2880  -55.8950   35.8310 C   0  0  0  0  0  3  0  0  0  0  0  0
   16.7250  -57.2180   35.4460 C   0  0  0  0  0  3  0  0  0  0  0  0
   18.7260  -54.1180   34.7750 C   0  0  0  0  0  0  0  0  0  0  0  0
   19.0390  -53.3050   35.7980 N   0  0  0  0  0  0  0  0  0  0  0  0
   20.1140  -52.6210   35.3890 N   0  0  0  0  0  0  0  0  0  0  0  0
   20.4440  -52.9960   34.1730 N   0  0  0  0  0  0  0  0  0  0  0  0
   19.6070  -53.9230   33.7570 N   0  0  0  0  0  0  0  0  0  0  0  0
   18.3710  -53.2080   37.0480 C   0  0  0  0  0  0  0  0  0  0  0  0
   17.2700  -52.4000   37.2110 C   0  0  0  0  0  3  0  0  0  0  0  0
   16.6360  -52.3280   38.4510 C   0  0  0  0  0  3  0  0  0  0  0  0
   17.0900  -53.0540   39.5300 C   0  0  0  0  0  3  0  0  0  0  0  0
   18.2110  -53.8770   39.3650 C   0  0  0  0  0  3  0  0  0  0  0  0
   18.8330  -53.9360   38.1160 C   0  0  0  0  0  3  0  0  0  0  0  0
   17.7010  -58.6730   33.4760 S   0  0  0  0  0  0  0  0  0  0  0  0
   17.1600  -60.0470   33.4440 O   0  0  0  0  0  0  0  0  0  0  0  0
   18.9060  -58.7060   34.4080 O   0  0  0  0  0  0  0  0  0  0  0  0
   18.2890  -58.2090   31.9030 C   0  0  0  0  0  0  0  0  0  0  0  0
   17.7660  -58.7010   30.7350 C   0  0  0  0  0  3  0  0  0  0  0  0
   18.2450  -58.3200   29.4820 C   0  0  0  0  0  3  0  0  0  0  0  0
   19.2980  -57.4010   29.4310 C   0  0  0  0  0  0  0  0  0  0  0  0
   19.8320  -56.9000   30.5980 C   0  0  0  0  0  3  0  0  0  0  0  0
   20.0040  -56.8300   27.7470 Br  0  0  0  0  0  0  0  0  0  0  0  0
   19.3340  -57.3000   31.8070 C   0  0  0  0  0  3  0  0  0  0  0  0
  1  6  1  0  0  0  0
  2  3  1  0  0  0  0
  2  1  1  0  0  0  0
  3  4  1  0  0  0  0
  4  7  1  0  0  0  0
  4  5  1  0  0  0  0
  6  5  2  0  0  0  0
  7  8  1  0  0  0  0
  8 12  1  0  0  0  0
  9  8  1  0  0  0  0
 10  9  2  0  0  0  0
 11 10  1  0  0  0  0
 11  7  2  0  0  0  0
 12 13  2  0  0  0  0
 12 17  1  0  0  0  0
 13 14  1  0  0  0  0
 14 15  2  0  0  0  0
 16 15  1  0  0  0  0
 17 16  2  0  0  0  0
 18  1  1  0  0  0  0
 18 20  2  0  0  0  0
 19 18  2  0  0  0  0
 21 18  1  0  0  0  0
 22 21  2  0  0  0  0
 23 22  1  0  0  0  0
 24 23  2  0  0  0  0
 24 25  1  0  0  0  0
 25 27  2  0  0  0  0
 26 24  1  0  0  0  0
 27 21  1  0  0  0  0
M  END
>  <Pose>
1

>  <Score>
-9.738

$$$$
