/Users/jonathanwahrer/Desktop/Msc/3_Semester/Drug_Design_Praktikum/waehrer_HTS_screening/HTS_experiment/out/docking_results/vina_output/6s1j/1084_docked.pdbqt
 OpenBabel03222221493D

 29 32  0  0  0  0  0  0  0  0999 V2000
   15.2070  -57.9510   34.5260 N   0  0  0  0  0  0  0  0  0  0  0  0
   15.1270  -57.0160   33.4540 C   0  0  0  0  0  2  0  0  0  0  0  0
   16.4800  -56.5900   32.9240 C   0  0  0  0  0  2  0  0  0  0  0  0
   17.4270  -56.7340   33.9900 N   0  0  0  0  0  0  0  0  0  0  0  0
   17.6650  -58.0420   34.5250 C   0  0  0  0  0  2  0  0  0  0  0  0
   16.3680  -58.8090   34.4800 C   0  0  0  0  0  2  0  0  0  0  0  0
   18.1020  -55.6080   34.4910 C   0  0  0  0  0  0  0  0  0  0  0  0
   17.7740  -55.0240   35.6560 N   0  0  0  0  0  0  0  0  0  0  0  0
   18.3690  -53.9660   36.1780 C   0  0  0  0  0  0  0  0  0  0  0  0
   19.4210  -53.4080   35.4720 C   0  0  0  0  0  3  0  0  0  0  0  0
   19.7950  -53.9720   34.2730 C   0  0  0  0  0  0  0  0  0  0  0  0
   19.1340  -55.0500   33.8130 N   0  0  0  0  0  0  0  0  0  0  0  0
   20.9210  -53.4020   33.4840 C   0  0  0  0  0  1  0  0  0  0  0  0
   17.9260  -53.4440   37.4170 N   0  0  0  0  0  0  0  0  0  0  0  0
   17.5820  -52.0520   37.6230 C   0  0  0  0  0  2  0  0  0  0  0  0
   16.6400  -52.0190   38.8260 C   0  0  0  0  0  2  0  0  0  0  0  0
   15.7540  -53.0880   38.6780 O   0  0  0  0  0  0  0  0  0  0  0  0
   16.3250  -54.3100   38.9520 C   0  0  0  0  0  2  0  0  0  0  0  0
   17.8040  -54.3350   38.5490 C   0  0  0  0  0  2  0  0  0  0  0  0
   13.8160  -58.9750   34.4510 S   0  0  0  0  0  0  0  0  0  0  0  0
   12.8130  -58.3270   33.5110 O   0  0  0  0  0  0  0  0  0  0  0  0
   14.2120  -60.2990   33.8640 O   0  0  0  0  0  0  0  0  0  0  0  0
   13.0730  -59.1590   36.0140 C   0  0  0  0  0  0  0  0  0  0  0  0
   13.7740  -58.7400   37.1370 C   0  0  0  0  0  3  0  0  0  0  0  0
   13.2500  -58.8540   38.4060 C   0  0  0  0  0  3  0  0  0  0  0  0
   12.0000  -59.3970   38.5790 C   0  0  0  0  0  0  0  0  0  0  0  0
   11.2710  -59.8260   37.4860 C   0  0  0  0  0  3  0  0  0  0  0  0
   11.2890  -59.5480   40.3410 Br  0  0  0  0  0  0  0  0  0  0  0  0
   11.8290  -59.6960   36.2170 C   0  0  0  0  0  3  0  0  0  0  0  0
  2  1  1  0  0  0  0
  3  2  1  0  0  0  0
  3  4  1  0  0  0  0
  4  7  1  0  0  0  0
  4  5  1  0  0  0  0
  6  5  1  0  0  0  0
  6  1  1  0  0  0  0
  7  8  2  0  0  0  0
  8  9  1  0  0  0  0
  9 14  1  0  0  0  0
 10  9  2  0  0  0  0
 11 10  1  0  0  0  0
 12 11  2  0  0  0  0
 12  7  1  0  0  0  0
 13 11  1  0  0  0  0
 14 15  1  0  0  0  0
 14 19  1  0  0  0  0
 15 16  1  0  0  0  0
 17 16  1  0  0  0  0
 17 18  1  0  0  0  0
 19 18  1  0  0  0  0
 20  1  1  0  0  0  0
 20 23  1  0  0  0  0
 21 20  2  0  0  0  0
 22 20  2  0  0  0  0
 23 29  2  0  0  0  0
 23 24  1  0  0  0  0
 24 25  2  0  0  0  0
 25 26  1  0  0  0  0
 26 28  1  0  0  0  0
 27 26  2  0  0  0  0
 29 27  1  0  0  0  0
M  END
>  <Pose>
1

>  <Score>
-9.007

$$$$
