/Users/jonathanwahrer/Desktop/Msc/3_Semester/Drug_Design_Praktikum/waehrer_HTS_screening/HTS_experiment/out/docking_results/vina_output/6s1j/1100_docked.pdbqt
 OpenBabel03222221493D

 26 29  0  0  1  0  0  0  0  0999 V2000
   16.9100  -57.2000   33.9080 N   0  0  0  0  0  0  0  0  0  0  0  0
   15.6530  -56.6020   33.6030 C   0  0  0  0  0  2  0  0  0  0  0  0
   14.4810  -57.5190   33.8810 C   0  0  0  0  0  2  0  0  0  0  0  0
   14.8200  -58.3080   35.0370 N   0  0  2  0  0  0  0  0  0  0  0  0
   15.9030  -59.2430   34.8660 C   0  0  0  0  0  2  0  0  0  0  0  0
   16.9400  -58.6200   34.0020 C   0  0  0  0  0  2  0  0  0  0  0  0
   14.1510  -58.1970   36.2780 C   0  0  1  0  0  3  0  0  0  0  0  0
   13.0730  -58.9250   36.5730 C   0  0  0  0  0  3  0  0  0  0  0  0
   12.3600  -58.8410   37.8350 C   0  0  0  0  0  0  0  0  0  0  0  0
   11.2950  -59.5880   38.0720 C   0  0  0  0  0  1  0  0  0  0  0  0
   12.8260  -57.9380   38.8160 N   0  0  0  0  0  0  0  0  0  0  0  0
   13.9880  -57.1730   38.4650 C   0  0  0  0  0  0  0  0  0  0  0  0
   12.3930  -57.8040   39.7400 H   0  0  0  0  0  0  0  0  0  0  0  0
   14.6120  -57.2880   37.2820 N   0  0  0  0  0  0  0  0  0  0  0  0
   14.6830  -56.2350   39.1560 N   0  0  0  0  0  0  0  0  0  0  0  0
   15.6520  -56.4510   37.2550 N   0  0  0  0  0  0  0  0  0  0  0  0
   15.7130  -55.7830   38.4200 C   0  0  0  0  0  3  0  0  0  0  0  0
   18.1200  -56.5810   32.8900 S   0  0  0  0  0  0  0  0  0  0  0  0
   17.6370  -56.3440   31.4830 O   0  0  0  0  0  0  0  0  0  0  0  0
   19.2190  -57.6280   32.7860 O   0  0  0  0  0  0  0  0  0  0  0  0
   18.8830  -55.1340   33.5480 C   0  0  0  0  0  0  0  0  0  0  0  0
   18.5260  -54.3820   35.0280 S   0  0  0  0  0  0  0  0  0  0  0  0
   19.6360  -53.0940   34.9610 C   0  0  0  0  0  0  0  0  0  0  0  0
   20.2690  -53.2870   33.7620 C   0  0  0  0  0  3  0  0  0  0  0  0
   19.9580  -51.6830   36.2390 Br  0  0  0  0  0  0  0  0  0  0  0  0
   19.8750  -54.3530   33.0270 C   0  0  0  0  0  3  0  0  0  0  0  0
  1  6  1  0  0  0  0
  2  3  1  0  0  0  0
  2  1  1  0  0  0  0
  4  3  1  6  0  0  0
  4  7  1  0  0  0  0
  5  4  1  0  0  0  0
  6  5  1  0  0  0  0
  7  8  1  1  0  0  0
  7 14  1  0  0  0  0
  8  9  2  0  0  0  0
  9 10  1  0  0  0  0
  9 11  1  0  0  0  0
 11 13  1  0  0  0  0
 12 11  1  0  0  0  0
 12 15  2  0  0  0  0
 14 12  1  0  0  0  0
 16 14  1  0  0  0  0
 16 17  2  0  0  0  0
 17 15  1  0  0  0  0
 18 21  1  0  0  0  0
 18  1  1  0  0  0  0
 19 18  2  0  0  0  0
 20 18  2  0  0  0  0
 21 22  1  0  0  0  0
 23 22  1  0  0  0  0
 23 25  1  0  0  0  0
 24 23  2  0  0  0  0
 26 21  2  0  0  0  0
 26 24  1  0  0  0  0
M  END
>  <Pose>
1

>  <Score>
-8.622

$$$$
