/Users/jonathanwahrer/Desktop/Msc/3_Semester/Drug_Design_Praktikum/waehrer_HTS_screening/HTS_experiment/out/docking_results/vina_output/6s1j/1101_docked.pdbqt
 OpenBabel03222221493D

 26 29  0  0  0  0  0  0  0  0999 V2000
   16.4100  -57.7010   33.3580 N   0  0  0  0  0  0  0  0  0  0  0  0
   16.2040  -59.0980   33.2840 C   0  0  0  0  0  2  0  0  0  0  0  0
   15.2990  -59.6840   34.3090 C   0  0  0  0  0  2  0  0  0  0  0  0
   14.1200  -58.8330   34.5360 N   0  0  0  0  0  0  0  0  0  0  0  0
   13.9700  -57.7470   33.5910 C   0  0  0  0  0  2  0  0  0  0  0  0
   15.2420  -56.9260   33.6740 C   0  0  0  0  0  2  0  0  0  0  0  0
   17.7990  -57.2040   34.2050 S   0  0  0  0  0  0  0  0  0  0  0  0
   18.7360  -56.5500   33.1960 O   0  0  0  0  0  0  0  0  0  0  0  0
   18.5410  -58.3860   34.7550 O   0  0  0  0  0  0  0  0  0  0  0  0
   17.4740  -56.0020   35.4250 C   0  0  0  0  0  0  0  0  0  0  0  0
   16.8580  -56.3280   36.6250 C   0  0  0  0  0  3  0  0  0  0  0  0
   16.6010  -55.3780   37.5890 C   0  0  0  0  0  3  0  0  0  0  0  0
   16.9720  -54.0650   37.3440 C   0  0  0  0  0  0  0  0  0  0  0  0
   17.5890  -53.6910   36.1660 C   0  0  0  0  0  3  0  0  0  0  0  0
   16.6070  -52.7560   38.6940 Br  0  0  0  0  0  0  0  0  0  0  0  0
   17.8270  -54.6710   35.2300 C   0  0  0  0  0  3  0  0  0  0  0  0
   13.2310  -59.0940   35.6040 C   0  0  0  0  0  0  0  0  0  0  0  0
   13.6060  -58.7240   36.8900 C   0  0  0  0  0  3  0  0  0  0  0  0
   12.7220  -58.9860   37.9350 C   0  0  0  0  0  0  0  0  0  0  0  0
   11.5500  -59.5720   37.7250 N   0  0  0  0  0  0  0  0  0  0  0  0
   12.8540  -58.7270   39.2470 N   0  0  0  0  0  0  0  0  0  0  0  0
   10.9360  -59.6850   38.9140 C   0  0  0  0  0  0  0  0  0  0  0  0
   11.1860  -59.9250   36.5240 N   0  0  0  0  0  0  0  0  0  0  0  0
   11.7560  -59.1580   39.8430 N   0  0  0  0  0  0  0  0  0  0  0  0
    9.5870  -60.2860   39.1680 C   0  0  0  0  0  1  0  0  0  0  0  0
   12.0110  -59.6920   35.4700 C   0  0  0  0  0  3  0  0  0  0  0  0
  1  6  1  0  0  0  0
  1  7  1  0  0  0  0
  2  1  1  0  0  0  0
  2  3  1  0  0  0  0
  3  4  1  0  0  0  0
  4 17  1  0  0  0  0
  5  6  1  0  0  0  0
  5  4  1  0  0  0  0
  7  9  2  0  0  0  0
  7 10  1  0  0  0  0
  8  7  2  0  0  0  0
 10 11  1  0  0  0  0
 11 12  2  0  0  0  0
 13 12  1  0  0  0  0
 13 15  1  0  0  0  0
 14 13  2  0  0  0  0
 16 10  2  0  0  0  0
 16 14  1  0  0  0  0
 17 18  2  0  0  0  0
 18 19  1  0  0  0  0
 19 21  2  0  0  0  0
 20 19  1  0  0  0  0
 20 22  1  0  0  0  0
 21 24  1  0  0  0  0
 22 25  1  0  0  0  0
 22 24  2  0  0  0  0
 23 20  1  0  0  0  0
 26 17  1  0  0  0  0
 26 23  2  0  0  0  0
M  END
>  <Pose>
1

>  <Score>
-8.613

$$$$
