/Users/jonathanwahrer/Desktop/Msc/3_Semester/Drug_Design_Praktikum/waehrer_HTS_screening/HTS_experiment/out/docking_results/vina_output/6s1j/1112_docked.pdbqt
 OpenBabel03222221503D

 32 35  0  0  0  0  0  0  0  0999 V2000
   13.5500  -58.7800   34.9250 C   0  0  0  0  0  2  0  0  0  0  0  0
   14.7610  -58.3010   34.2150 C   0  0  0  0  0  0  0  0  0  0  0  0
   15.9270  -58.9980   34.1090 C   0  0  0  0  0  3  0  0  0  0  0  0
   17.0230  -58.4770   33.4270 C   0  0  0  0  0  3  0  0  0  0  0  0
   16.9770  -57.2480   32.8360 C   0  0  0  0  0  0  0  0  0  0  0  0
   15.7960  -56.5380   32.9400 C   0  0  0  0  0  3  0  0  0  0  0  0
   14.7060  -57.0530   33.6170 C   0  0  0  0  0  3  0  0  0  0  0  0
   18.3410  -56.5600   31.9670 S   0  0  0  0  0  0  0  0  0  0  0  0
   19.5350  -57.4490   32.0300 O   0  0  0  0  0  0  0  0  0  0  0  0
   17.9200  -56.4790   30.5130 O   0  0  0  0  0  0  0  0  0  0  0  0
   18.7060  -54.9730   32.4820 N   0  0  0  0  0  0  0  0  0  0  0  0
   20.0980  -54.6360   32.3400 C   0  0  0  0  0  2  0  0  0  0  0  0
   20.3520  -53.4350   33.2560 C   0  0  0  0  0  2  0  0  0  0  0  0
   20.3790  -53.8310   34.5750 O   0  0  0  0  0  0  0  0  0  0  0  0
   19.6230  -55.0090   34.7130 C   0  0  0  0  0  2  0  0  0  0  0  0
   18.3620  -54.8190   33.8840 C   0  0  0  0  0  2  0  0  0  0  0  0
   13.8400  -59.2220   36.2330 O   0  0  0  0  0  0  0  0  0  0  0  0
   13.8670  -58.4220   37.3480 C   0  0  0  0  0  0  0  0  0  0  0  0
   12.8190  -57.8550   37.7170 O   0  0  0  0  0  0  0  0  0  0  0  0
   15.1010  -58.2250   38.1030 C   0  0  0  0  0  2  0  0  0  0  0  0
   15.4950  -56.8520   38.2190 N   0  0  0  0  0  0  0  0  0  0  0  0
   16.4800  -56.2470   37.3710 C   0  0  0  0  0  0  0  0  0  0  0  0
   17.1100  -56.8260   36.4400 O   0  0  0  0  0  0  0  0  0  0  0  0
   16.6430  -54.8490   37.7510 C   0  0  0  0  0  0  0  0  0  0  0  0
   15.7990  -54.5790   38.7970 C   0  0  0  0  0  0  0  0  0  0  0  0
   17.4360  -53.8260   37.2850 C   0  0  0  0  0  3  0  0  0  0  0  0
   15.7550  -53.3150   39.3540 C   0  0  0  0  0  3  0  0  0  0  0  0
   15.0740  -55.8250   39.0990 C   0  0  0  0  0  0  0  0  0  0  0  0
   16.5570  -52.2980   38.8730 C   0  0  0  0  0  3  0  0  0  0  0  0
   17.4110  -52.5560   37.8220 C   0  0  0  0  0  0  0  0  0  0  0  0
   18.5380  -51.1860   37.1240 Br  0  0  0  0  0  0  0  0  0  0  0  0
   14.2110  -55.9840   39.9910 O   0  0  0  0  0  0  0  0  0  0  0  0
  1 17  1  0  0  0  0
  2  1  1  0  0  0  0
  3  2  1  0  0  0  0
  4  3  2  0  0  0  0
  5  6  2  0  0  0  0
  5  4  1  0  0  0  0
  6  7  1  0  0  0  0
  7  2  2  0  0  0  0
  8  9  2  0  0  0  0
  8 11  1  0  0  0  0
  8  5  1  0  0  0  0
 10  8  2  0  0  0  0
 11 16  1  0  0  0  0
 12 11  1  0  0  0  0
 12 13  1  0  0  0  0
 13 14  1  0  0  0  0
 14 15  1  0  0  0  0
 16 15  1  0  0  0  0
 17 18  1  0  0  0  0
 18 19  2  0  0  0  0
 18 20  1  0  0  0  0
 20 21  1  0  0  0  0
 21 28  1  0  0  0  0
 22 24  1  0  0  0  0
 22 21  1  0  0  0  0
 23 22  2  0  0  0  0
 24 25  1  0  0  0  0
 25 28  1  0  0  0  0
 25 27  2  0  0  0  0
 26 24  2  0  0  0  0
 26 30  1  0  0  0  0
 28 32  2  0  0  0  0
 29 27  1  0  0  0  0
 30 29  2  0  0  0  0
 31 30  1  0  0  0  0
M  END
>  <Pose>
1

>  <Score>
-9.635

$$$$
