/Users/jonathanwahrer/Desktop/Msc/3_Semester/Drug_Design_Praktikum/waehrer_HTS_screening/HTS_experiment/out/docking_results/vina_output/6s1j/1113_docked.pdbqt
 OpenBabel03222221503D

 28 31  0  0  0  0  0  0  0  0999 V2000
   16.0620  -57.8110   34.0430 C   0  0  0  0  0  0  0  0  0  0  0  0
   14.8960  -57.8990   33.3810 N   0  0  0  0  0  0  0  0  0  0  0  0
   13.8790  -57.8850   34.2810 C   0  0  0  0  0  3  0  0  0  0  0  0
   14.3870  -57.7880   35.5210 N   0  0  0  0  0  0  0  0  0  0  0  0
   15.7050  -57.7420   35.3930 C   0  0  0  0  0  3  0  0  0  0  0  0
   13.5990  -57.7450   36.7360 C   0  0  0  0  0  2  0  0  0  0  0  0
   14.2820  -56.9740   37.8030 C   0  0  0  0  0  0  0  0  0  0  0  0
   14.9830  -57.5180   38.8330 N   0  0  0  0  0  0  0  0  0  0  0  0
   15.4390  -56.5480   39.5660 O   0  0  0  0  0  0  0  0  0  0  0  0
   15.0850  -55.3820   39.0890 C   0  0  0  0  0  0  0  0  0  0  0  0
   14.3560  -55.6540   37.9770 N   0  0  0  0  0  0  0  0  0  0  0  0
   15.4010  -54.0240   39.6280 C   0  0  0  0  0  2  0  0  0  0  0  0
   16.5370  -53.4950   38.8230 C   0  0  0  0  0  0  0  0  0  0  0  0
   16.5640  -52.1390   38.5340 C   0  0  0  0  0  3  0  0  0  0  0  0
   17.5690  -51.5660   37.8010 C   0  0  0  0  0  3  0  0  0  0  0  0
   18.5770  -52.3710   37.3440 C   0  0  0  0  0  0  0  0  0  0  0  0
   18.5950  -53.7070   37.6000 C   0  0  0  0  0  3  0  0  0  0  0  0
   19.9940  -51.6090   36.3190 Br  0  0  0  0  0  0  0  0  0  0  0  0
   17.5610  -54.2630   38.3480 C   0  0  0  0  0  3  0  0  0  0  0  0
   17.6780  -57.7870   33.3760 S   0  0  0  0  0  0  0  0  0  0  0  0
   18.6140  -58.4110   34.4040 O   0  0  0  0  0  0  0  0  0  0  0  0
   17.7410  -58.7110   32.1760 O   0  0  0  0  0  0  0  0  0  0  0  0
   18.2520  -56.2590   32.9990 N   0  0  0  0  0  0  0  0  0  0  0  0
   18.2830  -55.2860   34.0100 C   0  0  0  0  0  2  0  0  0  0  0  0
   19.5820  -54.5370   34.0010 C   0  0  0  0  0  2  0  0  0  0  0  0
   19.7380  -53.9840   32.7420 O   0  0  0  0  0  0  0  0  0  0  0  0
   19.9240  -54.9440   31.7550 C   0  0  0  0  0  2  0  0  0  0  0  0
   18.9650  -56.0700   31.8110 C   0  0  0  0  0  2  0  0  0  0  0  0
  1  5  2  0  0  0  0
  2  1  1  0  0  0  0
  2  3  2  0  0  0  0
  3  4  1  0  0  0  0
  4  6  1  0  0  0  0
  5  4  1  0  0  0  0
  6  7  1  0  0  0  0
  7 11  1  0  0  0  0
  7  8  2  0  0  0  0
  8  9  1  0  0  0  0
 10  9  1  0  0  0  0
 10 12  1  0  0  0  0
 11 10  2  0  0  0  0
 13 12  1  0  0  0  0
 14 13  1  0  0  0  0
 15 14  2  0  0  0  0
 16 17  2  0  0  0  0
 16 15  1  0  0  0  0
 17 19  1  0  0  0  0
 18 16  1  0  0  0  0
 19 13  2  0  0  0  0
 20  1  1  0  0  0  0
 20 21  2  0  0  0  0
 22 20  2  0  0  0  0
 23 20  1  0  0  0  0
 23 24  1  0  0  0  0
 25 24  1  0  0  0  0
 26 25  1  0  0  0  0
 27 28  1  0  0  0  0
 27 26  1  0  0  0  0
 28 23  1  0  0  0  0
M  END
>  <Pose>
1

>  <Score>
-9.305

$$$$
