/Users/jonathanwahrer/Desktop/Msc/3_Semester/Drug_Design_Praktikum/waehrer_HTS_screening/HTS_experiment/out/docking_results/vina_output/6s1j/1114_docked.pdbqt
 OpenBabel03222221513D

 27 30  0  0  0  0  0  0  0  0999 V2000
   14.2230  -58.2080   35.9400 C   0  0  0  0  0  0  0  0  0  0  0  0
   13.8000  -59.1670   36.7830 N   0  0  0  0  0  0  0  0  0  0  0  0
   13.9230  -58.7130   38.0440 C   0  0  0  0  0  3  0  0  0  0  0  0
   14.4230  -57.4680   38.0460 N   0  0  0  0  0  0  0  0  0  0  0  0
   14.6070  -57.1560   36.7530 C   0  0  0  0  0  3  0  0  0  0  0  0
   14.6980  -56.6450   39.2050 C   0  0  0  0  0  2  0  0  0  0  0  0
   15.3680  -55.3710   38.8560 C   0  0  0  0  0  0  0  0  0  0  0  0
   15.0010  -54.1610   39.3180 N   0  0  0  0  0  0  0  0  0  0  0  0
   15.7960  -53.2670   38.8130 O   0  0  0  0  0  0  0  0  0  0  0  0
   16.6830  -53.8190   38.0310 C   0  0  0  0  0  0  0  0  0  0  0  0
   16.4180  -55.1360   38.0560 N   0  0  0  0  0  0  0  0  0  0  0  0
   17.7320  -53.1060   37.3020 C   0  0  0  0  0  0  0  0  0  0  0  0
   18.3990  -53.6760   36.2370 C   0  0  0  0  0  3  0  0  0  0  0  0
   19.3950  -52.9840   35.5520 C   0  0  0  0  0  0  0  0  0  0  0  0
   19.7480  -51.7030   35.9150 C   0  0  0  0  0  3  0  0  0  0  0  0
   20.3070  -53.7920   34.0790 Br  0  0  0  0  0  0  0  0  0  0  0  0
   19.0830  -51.1310   36.9790 C   0  0  0  0  0  3  0  0  0  0  0  0
   18.0850  -51.8280   37.6640 C   0  0  0  0  0  3  0  0  0  0  0  0
   14.2740  -58.2790   34.1740 S   0  0  0  0  0  0  0  0  0  0  0  0
   13.9330  -59.6900   33.7760 O   0  0  0  0  0  0  0  0  0  0  0  0
   13.2390  -57.3830   33.5740 O   0  0  0  0  0  0  0  0  0  0  0  0
   15.8380  -57.9130   33.5880 N   0  0  0  0  0  0  0  0  0  0  0  0
   16.8890  -58.5810   34.2600 C   0  0  0  0  0  2  0  0  0  0  0  0
   18.1600  -57.8190   34.4430 C   0  0  0  0  0  2  0  0  0  0  0  0
   18.3290  -57.0080   33.2970 O   0  0  0  0  0  0  0  0  0  0  0  0
   17.3870  -55.9860   33.4560 C   0  0  0  0  0  2  0  0  0  0  0  0
   16.0270  -56.5500   33.2460 C   0  0  0  0  0  2  0  0  0  0  0  0
  1  5  2  0  0  0  0
  1  2  1  0  0  0  0
  2  3  2  0  0  0  0
  3  4  1  0  0  0  0
  4  6  1  0  0  0  0
  5  4  1  0  0  0  0
  7  6  1  0  0  0  0
  7  8  2  0  0  0  0
  9  8  1  0  0  0  0
 10 11  2  0  0  0  0
 10  9  1  0  0  0  0
 11  7  1  0  0  0  0
 12 18  1  0  0  0  0
 12 10  1  0  0  0  0
 13 12  2  0  0  0  0
 14 15  2  0  0  0  0
 14 13  1  0  0  0  0
 15 17  1  0  0  0  0
 16 14  1  0  0  0  0
 17 18  2  0  0  0  0
 19  1  1  0  0  0  0
 20 19  2  0  0  0  0
 21 19  2  0  0  0  0
 22 19  1  0  0  0  0
 22 23  1  0  0  0  0
 23 24  1  0  0  0  0
 25 26  1  0  0  0  0
 25 24  1  0  0  0  0
 27 26  1  0  0  0  0
 27 22  1  0  0  0  0
M  END
>  <Pose>
1

>  <Score>
-9.948

$$$$
