/Users/jonathanwahrer/Desktop/Msc/3_Semester/Drug_Design_Praktikum/waehrer_HTS_screening/HTS_experiment/out/docking_results/vina_output/6s1j/1133_docked.pdbqt
 OpenBabel03222221513D

 35 38  0  0  1  0  0  0  0  0999 V2000
   18.0060  -55.6060   32.5400 C   0  0  0  0  0  0  0  0  0  0  0  0
   17.6410  -56.8070   32.0940 N   0  0  0  0  0  0  0  0  0  0  0  0
   18.3450  -57.0310   30.9530 C   0  0  0  0  0  0  0  0  0  0  0  0
   18.4070  -57.9720   29.9970 N   0  0  0  0  0  0  0  0  0  0  0  0
   19.1650  -57.9230   28.8980 C   0  0  0  0  0  0  0  0  0  0  0  0
   19.9750  -56.8090   28.7210 N   0  0  0  0  0  0  0  0  0  0  0  0
   19.9800  -55.8390   29.6010 C   0  0  0  0  0  0  0  0  0  0  0  0
   19.1820  -55.9060   30.7260 C   0  0  0  0  0  0  0  0  0  0  0  0
   18.9260  -55.0700   31.7250 N   0  0  0  0  0  0  0  0  0  0  0  0
   16.7410  -57.7700   32.6410 C   0  0  2  0  0  3  0  0  0  0  0  0
   15.4430  -57.2700   32.8860 O   0  0  0  0  0  0  0  0  0  0  0  0
   14.9010  -58.3840   33.5670 C   0  0  1  0  0  3  0  0  0  0  0  0
   15.9210  -58.4280   34.7350 C   0  0  2  0  0  3  0  0  0  0  0  0
   17.1910  -58.4830   33.8750 C   0  0  1  0  0  3  0  0  0  0  0  0
   13.5170  -58.1410   34.0380 C   0  0  0  0  0  2  0  0  0  0  0  0
   13.5190  -57.6490   35.3490 O   0  0  0  0  0  0  0  0  0  0  0  0
   14.4100  -57.2040   35.4940 H   0  0  0  0  0  0  0  0  0  0  0  0
   15.7630  -59.5300   35.5300 O   0  0  0  0  0  0  0  0  0  0  0  0
   15.8320  -60.3540   34.9900 H   0  0  0  0  0  0  0  0  0  0  0  0
   17.4420  -59.8550   33.6160 O   0  0  0  0  0  0  0  0  0  0  0  0
   17.4020  -60.2780   34.5020 H   0  0  0  0  0  0  0  0  0  0  0  0
   17.3170  -54.7510   33.9640 S   0  0  0  0  0  0  0  0  0  0  0  0
   18.3650  -55.0410   35.4560 C   0  0  0  0  0  2  0  0  0  0  0  0
   18.0460  -54.0300   36.4900 C   0  0  0  0  0  0  0  0  0  0  0  0
   17.0220  -54.1470   37.3980 C   0  0  0  0  0  0  0  0  0  0  0  0
   16.6790  -53.1430   38.2350 C   0  0  0  0  0  3  0  0  0  0  0  0
   16.1980  -55.8700   37.5030 Br  0  0  0  0  0  0  0  0  0  0  0  0
   17.3550  -51.9280   38.2270 C   0  0  0  0  0  3  0  0  0  0  0  0
   18.4030  -51.7720   37.3100 C   0  0  0  0  0  3  0  0  0  0  0  0
   18.7410  -52.8060   36.4580 C   0  0  0  0  0  3  0  0  0  0  0  0
   19.1810  -58.9170   27.8620 N   0  0  0  0  0  0  0  0  0  0  0  0
   19.5620  -59.8590   27.9220 H   0  0  0  0  0  0  0  0  0  0  0  0
   18.7790  -58.6230   26.9040 H   0  0  0  0  0  0  0  0  0  0  0  0
   20.7670  -54.7220   29.4800 O   0  0  0  0  0  0  0  0  0  0  0  0
   20.6880  -54.0570   28.7180 H   0  0  0  0  0  0  0  0  0  0  0  0
  1 22  1  0  0  0  0
  2  1  1  0  0  0  0
  3  2  1  0  0  0  0
  4  3  1  0  0  0  0
  5  4  2  0  0  0  0
  6  5  1  0  0  0  0
  6  7  2  0  0  0  0
  7  8  1  0  0  0  0
  8  3  2  0  0  0  0
  8  9  1  0  0  0  0
  9  1  2  0  0  0  0
 10  2  1  1  0  0  0
 10 11  1  0  0  0  0
 10 14  1  0  0  0  0
 11 12  1  0  0  0  0
 12 15  1  1  0  0  0
 12 13  1  0  0  0  0
 13 18  1  1  0  0  0
 14 20  1  6  0  0  0
 14 13  1  0  0  0  0
 15 16  1  0  0  0  0
 16 17  1  0  0  0  0
 19 18  1  0  0  0  0
 20 21  1  0  0  0  0
 22 23  1  0  0  0  0
 23 24  1  0  0  0  0
 24 25  1  0  0  0  0
 25 27  1  0  0  0  0
 25 26  2  0  0  0  0
 28 26  1  0  0  0  0
 29 28  2  0  0  0  0
 30 24  2  0  0  0  0
 30 29  1  0  0  0  0
 31 32  1  0  0  0  0
 31  5  1  0  0  0  0
 33 31  1  0  0  0  0
 34  7  1  0  0  0  0
 35 34  1  0  0  0  0
M  END
>  <Pose>
1

>  <Score>
-8.653

$$$$
