/Users/jonathanwahrer/Desktop/Msc/3_Semester/Drug_Design_Praktikum/waehrer_HTS_screening/HTS_experiment/out/docking_results/vina_output/6s1j/1151_docked.pdbqt
 OpenBabel03222221523D

 24 27  0  0  1  0  0  0  0  0999 V2000
   14.5750  -59.7530   34.3130 S   0  0  0  0  0  0  0  0  0  0  0  0
   14.0050  -60.7120   33.3090 O   0  0  0  0  0  0  0  0  0  0  0  0
   14.4370  -60.2680   35.7180 O   0  0  0  0  0  0  0  0  0  0  0  0
   16.2820  -59.3880   33.9650 C   0  0  0  0  0  2  0  0  0  0  0  0
   16.5440  -58.0190   34.5580 C   0  0  2  0  0  3  0  0  0  0  0  0
   15.8370  -57.0280   33.7720 N   0  0  0  0  0  0  0  0  0  0  0  0
   14.5280  -57.3190   33.2240 C   0  0  0  0  0  2  0  0  0  0  0  0
   13.7300  -58.1680   34.2150 C   0  0  0  0  0  2  0  0  0  0  0  0
   16.7010  -55.9000   33.7320 C   0  0  0  0  0  0  0  0  0  0  0  0
   16.3790  -54.7210   33.3610 O   0  0  0  0  0  0  0  0  0  0  0  0
   18.0070  -56.2510   34.1700 N   0  0  0  0  0  0  0  0  0  0  0  0
   17.9570  -57.6340   34.4910 C   0  0  0  0  0  0  0  0  0  0  0  0
   18.9390  -58.4090   34.6860 O   0  0  0  0  0  0  0  0  0  0  0  0
   19.1770  -55.3940   34.2800 C   0  0  1  0  0  3  0  0  0  0  0  0
   19.4210  -54.6290   32.9900 C   0  0  0  0  0  2  0  0  0  0  0  0
   20.7210  -53.8510   33.2040 C   0  0  0  0  0  2  0  0  0  0  0  0
   20.4400  -52.8850   34.2010 O   0  0  0  0  0  0  0  0  0  0  0  0
   19.6160  -53.1950   35.2770 C   0  0  0  0  0  0  0  0  0  0  0  0
   18.9830  -54.4020   35.3540 C   0  0  0  0  0  0  0  0  0  0  0  0
   19.4710  -52.2240   36.2570 C   0  0  0  0  0  0  0  0  0  0  0  0
   18.1730  -54.7070   36.4120 C   0  0  0  0  0  3  0  0  0  0  0  0
   18.0030  -53.7710   37.4040 C   0  0  0  0  0  3  0  0  0  0  0  0
   18.6460  -52.5620   37.3140 C   0  0  0  0  0  3  0  0  0  0  0  0
   20.3560  -50.5450   36.1430 Br  0  0  0  0  0  0  0  0  0  0  0  0
  1  3  2  0  0  0  0
  2  1  2  0  0  0  0
  4  1  1  0  0  0  0
  5  4  1  6  0  0  0
  6  5  1  0  0  0  0
  7  6  1  0  0  0  0
  7  8  1  0  0  0  0
  8  1  1  0  0  0  0
  9  6  1  0  0  0  0
  9 11  1  0  0  0  0
 10  9  2  0  0  0  0
 11 14  1  0  0  0  0
 11 12  1  0  0  0  0
 12  5  1  0  0  0  0
 12 13  2  0  0  0  0
 14 15  1  6  0  0  0
 14 19  1  0  0  0  0
 15 16  1  0  0  0  0
 16 17  1  0  0  0  0
 17 18  1  0  0  0  0
 18 19  2  0  0  0  0
 18 20  1  0  0  0  0
 19 21  1  0  0  0  0
 20 23  2  0  0  0  0
 21 22  2  0  0  0  0
 23 22  1  0  0  0  0
 24 20  1  0  0  0  0
M  END
>  <Pose>
1

>  <Score>
-8.434

$$$$
