/Users/jonathanwahrer/Desktop/Msc/3_Semester/Drug_Design_Praktikum/waehrer_HTS_screening/HTS_experiment/out/docking_results/vina_output/6s1j/1157_docked.pdbqt
 OpenBabel03222221523D

 24 27  0  0  1  0  0  0  0  0999 V2000
   17.1650  -53.6180   38.5320 C   0  0  2  0  0  3  0  0  0  0  0  0
   17.5870  -52.7470   37.3760 C   0  0  0  0  0  2  0  0  0  0  0  0
   18.7640  -53.4520   36.8920 N   0  0  0  0  0  0  0  0  0  0  0  0
   19.5370  -53.7550   38.0720 C   0  0  0  0  0  2  0  0  0  0  0  0
   18.5020  -53.9330   39.1670 C   0  0  0  0  0  2  0  0  0  0  0  0
   16.5960  -54.8790   38.0790 N   0  0  0  0  0  0  0  0  0  0  0  0
   15.4110  -55.4080   38.6370 C   0  0  0  0  0  0  0  0  0  0  0  0
   14.7690  -54.8350   39.5530 O   0  0  0  0  0  0  0  0  0  0  0  0
   17.0650  -55.4230   37.3210 H   0  0  0  0  0  0  0  0  0  0  0  0
   14.8470  -56.6930   38.1640 C   0  0  0  0  0  0  0  0  0  0  0  0
   15.5490  -57.8830   37.1640 S   0  0  0  0  0  0  0  0  0  0  0  0
   14.2620  -58.9990   37.1180 C   0  0  0  0  0  3  0  0  0  0  0  0
   13.3070  -58.4010   37.8990 C   0  0  0  0  0  0  0  0  0  0  0  0
   13.6100  -57.2160   38.4350 C   0  0  0  0  0  3  0  0  0  0  0  0
   11.6100  -59.3020   38.1660 Br  0  0  0  0  0  0  0  0  0  0  0  0
   19.0450  -53.7520   35.5150 C   0  0  0  0  0  0  0  0  0  0  0  0
   20.0910  -53.1920   34.8800 N   0  0  0  0  0  0  0  0  0  0  0  0
   20.3270  -53.4920   33.5910 C   0  0  0  0  0  3  0  0  0  0  0  0
   19.5320  -54.3590   32.8870 C   0  0  0  0  0  3  0  0  0  0  0  0
   18.4830  -54.9270   33.5060 N   0  0  0  0  0  0  0  0  0  0  0  0
   18.2560  -54.6190   34.7980 C   0  0  0  0  0  0  0  0  0  0  0  0
   17.5450  -55.8030   33.0750 C   0  0  0  0  0  3  0  0  0  0  0  0
   17.1610  -55.3280   35.1340 N   0  0  0  0  0  0  0  0  0  0  0  0
   16.7240  -56.0420   34.1110 N   0  0  0  0  0  0  0  0  0  0  0  0
  1  6  1  6  0  0  0
  1  5  1  0  0  0  0
  2  1  1  0  0  0  0
  3  2  1  0  0  0  0
  3  4  1  0  0  0  0
  4  5  1  0  0  0  0
  6  7  1  0  0  0  0
  7  8  2  0  0  0  0
  9  6  1  0  0  0  0
 10 14  2  0  0  0  0
 10  7  1  0  0  0  0
 11 10  1  0  0  0  0
 12 11  1  0  0  0  0
 12 13  2  0  0  0  0
 13 15  1  0  0  0  0
 13 14  1  0  0  0  0
 16  3  1  0  0  0  0
 17 16  2  0  0  0  0
 18 17  1  0  0  0  0
 19 20  1  0  0  0  0
 19 18  2  0  0  0  0
 20 21  1  0  0  0  0
 21 23  2  0  0  0  0
 21 16  1  0  0  0  0
 22 20  1  0  0  0  0
 22 24  2  0  0  0  0
 24 23  1  0  0  0  0
M  END
>  <Pose>
1

>  <Score>
-8.443

$$$$
