/Users/jonathanwahrer/Desktop/Msc/3_Semester/Drug_Design_Praktikum/waehrer_HTS_screening/HTS_experiment/out/docking_results/vina_output/6s1j/1160_docked.pdbqt
 OpenBabel03222221523D

 25 28  0  0  1  0  0  0  0  0999 V2000
   15.7310  -55.0000   38.8250 C   0  0  0  0  0  0  0  0  0  0  0  0
   15.4920  -56.0010   37.9580 N   0  0  0  0  0  0  0  0  0  0  0  0
   14.3950  -56.6840   38.3270 C   0  0  0  0  0  0  0  0  0  0  0  0
   13.9670  -56.0740   39.4450 N   0  0  0  0  0  0  0  0  0  0  0  0
   14.7760  -55.0760   39.7210 O   0  0  0  0  0  0  0  0  0  0  0  0
   13.7790  -57.8400   37.6760 C   0  0  0  0  0  0  0  0  0  0  0  0
   14.1220  -58.3550   36.4830 N   0  0  0  0  0  0  0  0  0  0  0  0
   13.3490  -59.4080   36.1990 N   0  0  0  0  0  0  0  0  0  0  0  0
   12.4860  -59.5840   37.2250 C   0  0  0  0  0  3  0  0  0  0  0  0
   12.7700  -58.6080   38.1190 N   0  0  0  0  0  0  0  0  0  0  0  0
   13.4160  -60.2280   35.0010 C   0  0  0  0  0  2  0  0  0  0  0  0
   13.7600  -59.3600   33.8540 C   0  0  0  0  0  0  0  0  0  0  0  0
   14.5620  -59.7900   32.9960 O   0  0  0  0  0  0  0  0  0  0  0  0
   13.1860  -58.0720   33.7430 N   0  0  0  0  0  0  0  0  0  0  0  0
   12.8200  -57.7040   32.8220 H   0  0  0  0  0  0  0  0  0  0  0  0
   13.0840  -57.4060   34.5470 H   0  0  0  0  0  0  0  0  0  0  0  0
   16.8530  -53.9980   38.7840 C   0  0  1  0  0  3  0  0  0  0  0  0
   16.6220  -52.8680   37.7720 C   0  0  1  0  0  3  0  0  0  0  0  0
   16.5970  -52.6040   39.2120 C   0  0  0  0  0  2  0  0  0  0  0  0
   17.8840  -52.4980   37.0130 C   0  0  0  0  0  0  0  0  0  0  0  0
   18.3370  -53.2450   35.9810 C   0  0  0  0  0  3  0  0  0  0  0  0
   19.4830  -52.8130   35.3660 C   0  0  0  0  0  0  0  0  0  0  0  0
   19.8890  -51.4060   36.2270 S   0  0  0  0  0  0  0  0  0  0  0  0
   20.3870  -53.6410   33.8740 Br  0  0  0  0  0  0  0  0  0  0  0  0
   18.6070  -51.3870   37.3450 C   0  0  0  0  0  3  0  0  0  0  0  0
  1  5  1  0  0  0  0
  2  3  1  0  0  0  0
  2  1  2  0  0  0  0
  3  4  2  0  0  0  0
  4  5  1  0  0  0  0
  6 10  1  0  0  0  0
  6  3  1  0  0  0  0
  7  6  2  0  0  0  0
  8  7  1  0  0  0  0
  8  9  1  0  0  0  0
  9 10  2  0  0  0  0
 11  8  1  0  0  0  0
 12 11  1  0  0  0  0
 13 12  2  0  0  0  0
 14 12  1  0  0  0  0
 14 16  1  0  0  0  0
 15 14  1  0  0  0  0
 17  1  1  1  0  0  0
 17 19  1  0  0  0  0
 18 20  1  6  0  0  0
 18 17  1  0  0  0  0
 18 19  1  0  0  0  0
 20 25  2  0  0  0  0
 21 20  1  0  0  0  0
 22 21  2  0  0  0  0
 22 23  1  0  0  0  0
 23 25  1  0  0  0  0
 24 22  1  0  0  0  0
M  END
>  <Pose>
1

>  <Score>
-8.442

$$$$
