/Users/jonathanwahrer/Desktop/Msc/3_Semester/Drug_Design_Praktikum/waehrer_HTS_screening/HTS_experiment/out/docking_results/vina_output/6s1j/1161_docked.pdbqt
 OpenBabel03222221523D

 29 32  0  0  0  0  0  0  0  0999 V2000
   16.5080  -57.8030   33.8820 N   0  0  0  0  0  0  0  0  0  0  0  0
   17.1270  -57.3060   32.7850 C   0  0  0  0  0  0  0  0  0  0  0  0
   17.9930  -56.3200   33.1520 C   0  0  0  0  0  0  0  0  0  0  0  0
   18.7480  -55.6590   32.2000 C   0  0  0  0  0  3  0  0  0  0  0  0
   18.6120  -56.0110   30.8760 C   0  0  0  0  0  3  0  0  0  0  0  0
   17.7480  -57.0000   30.4810 C   0  0  0  0  0  3  0  0  0  0  0  0
   17.0110  -57.6390   31.4540 C   0  0  0  0  0  3  0  0  0  0  0  0
   17.9040  -56.2090   34.4800 N   0  0  0  0  0  0  0  0  0  0  0  0
   16.9910  -57.1200   34.9230 C   0  0  0  0  0  0  0  0  0  0  0  0
   15.5280  -58.8600   33.8550 C   0  0  0  0  0  2  0  0  0  0  0  0
   14.1580  -58.3530   34.1130 C   0  0  0  0  0  0  0  0  0  0  0  0
   13.6620  -57.4400   33.4090 O   0  0  0  0  0  0  0  0  0  0  0  0
   13.3250  -58.8890   35.1950 C   0  0  0  0  0  0  0  0  0  0  0  0
   13.5230  -58.7820   36.8930 S   0  0  0  0  0  0  0  0  0  0  0  0
   12.1590  -59.6620   37.3950 C   0  0  0  0  0  0  0  0  0  0  0  0
   11.5780  -60.0210   36.2100 C   0  0  0  0  0  3  0  0  0  0  0  0
   11.6020  -60.0370   39.1800 Br  0  0  0  0  0  0  0  0  0  0  0  0
   12.1730  -59.6260   35.0830 C   0  0  0  0  0  3  0  0  0  0  0  0
   16.7150  -57.2040   36.1710 N   0  0  0  0  0  0  0  0  0  0  0  0
   17.0640  -56.6400   36.9440 H   0  0  0  0  0  0  0  0  0  0  0  0
   18.6760  -55.2740   35.2870 C   0  0  0  0  0  2  0  0  0  0  0  0
   17.6930  -54.4190   36.1020 C   0  0  0  0  0  2  0  0  0  0  0  0
   17.9280  -54.5290   37.5130 N   0  0  0  0  0  4  0  0  0  0  0  0
   19.1050  -53.8200   37.9720 C   0  0  0  0  0  2  0  0  0  0  0  0
   19.1140  -52.3890   37.5140 C   0  0  0  0  0  2  0  0  0  0  0  0
   17.8220  -51.6820   37.7550 C   0  0  0  0  0  2  0  0  0  0  0  0
   16.6070  -52.5380   37.7860 C   0  0  0  0  0  2  0  0  0  0  0  0
   16.8050  -53.9500   38.2090 C   0  0  0  0  0  2  0  0  0  0  0  0
   18.0740  -55.5260   37.7820 H   0  0  0  0  0  0  0  0  0  0  0  0
  1  9  1  0  0  0  0
  2  3  1  0  0  0  0
  2  1  1  0  0  0  0
  3  8  1  0  0  0  0
  4  3  2  0  0  0  0
  5  4  1  0  0  0  0
  6  5  2  0  0  0  0
  6  7  1  0  0  0  0
  7  2  2  0  0  0  0
  8  9  1  0  0  0  0
  8 21  1  0  0  0  0
  9 19  2  0  0  0  0
 10  1  1  0  0  0  0
 10 11  1  0  0  0  0
 11 13  1  0  0  0  0
 12 11  2  0  0  0  0
 13 14  1  0  0  0  0
 14 15  1  0  0  0  0
 15 17  1  0  0  0  0
 16 15  2  0  0  0  0
 18 13  2  0  0  0  0
 18 16  1  0  0  0  0
 19 20  1  0  0  0  0
 21 22  1  0  0  0  0
 22 23  1  0  0  0  0
 23 29  1  0  0  0  0
 23 24  1  0  0  0  0
 23 28  1  0  0  0  0
 25 26  1  0  0  0  0
 25 24  1  0  0  0  0
 26 27  1  0  0  0  0
 27 28  1  0  0  0  0
M  END
>  <Pose>
1

>  <Score>
-8.449

$$$$
