/Users/jonathanwahrer/Desktop/Msc/3_Semester/Drug_Design_Praktikum/waehrer_HTS_screening/HTS_experiment/out/docking_results/vina_output/6s1j/1177_docked.pdbqt
 OpenBabel03222221533D

 33 36  0  0  1  0  0  0  0  0999 V2000
   17.7720  -57.5150   32.4280 C   0  0  2  0  0  3  0  0  0  0  0  0
   16.7930  -56.4660   32.8670 C   0  0  2  0  0  3  0  0  0  0  0  0
   17.6190  -55.4380   33.4190 N   0  0  0  0  0  0  0  0  0  0  0  0
   18.8220  -55.4670   32.6000 C   0  0  0  0  0  0  0  0  0  0  0  0
   19.6040  -54.4830   32.4990 O   0  0  0  0  0  0  0  0  0  0  0  0
   18.9340  -56.7680   31.9650 C   0  0  0  0  0  0  0  0  0  0  0  0
   19.8500  -57.1700   31.1730 O   0  0  0  0  0  0  0  0  0  0  0  0
   17.3910  -54.4950   34.4730 C   0  0  0  0  0  2  0  0  0  0  0  0
   18.2440  -54.6430   35.6910 C   0  0  0  0  0  2  0  0  0  0  0  0
   17.3800  -54.6840   36.9600 C   0  0  0  0  0  2  0  0  0  0  0  0
   18.1290  -54.1170   38.0300 N   0  0  0  0  0  4  0  0  0  0  0  0
   18.8220  -52.9020   37.7440 C   0  0  0  0  0  2  0  0  0  0  0  0
   17.9180  -51.6940   37.6790 C   0  0  0  0  0  2  0  0  0  0  0  0
   16.5980  -52.1630   37.8690 O   0  0  0  0  0  0  0  0  0  0  0  0
   16.5680  -52.6160   39.2030 C   0  0  0  0  0  2  0  0  0  0  0  0
   17.3280  -53.9260   39.2250 C   0  0  0  0  0  2  0  0  0  0  0  0
   18.8700  -54.8320   38.3010 H   0  0  0  0  0  0  0  0  0  0  0  0
   15.7490  -57.0190   33.7210 C   0  0  0  0  0  0  0  0  0  0  0  0
   16.1050  -57.4090   35.0210 C   0  0  0  0  0  3  0  0  0  0  0  0
   15.2080  -57.9190   35.9250 C   0  0  0  0  0  0  0  0  0  0  0  0
   13.8910  -58.0640   35.5640 C   0  0  0  0  0  3  0  0  0  0  0  0
   15.7210  -58.4430   37.6890 Br  0  0  0  0  0  0  0  0  0  0  0  0
   13.5010  -57.6880   34.2880 C   0  0  0  0  0  3  0  0  0  0  0  0
   14.4310  -57.1790   33.4060 C   0  0  0  0  0  3  0  0  0  0  0  0
   17.6130  -58.8240   32.4000 C   0  0  1  0  0  3  0  0  0  0  0  0
   18.0760  -59.5920   33.4940 O   0  0  0  0  0  1  0  0  0  0  0  0
   16.9710  -59.4830   31.2650 C   0  0  0  0  0  0  0  0  0  0  0  0
   17.4210  -59.3530   29.6190 S   0  0  0  0  0  0  0  0  0  0  0  0
   16.1980  -60.3260   28.9360 C   0  0  0  0  0  0  0  0  0  0  0  0
   15.5100  -60.6970   29.9990 N   0  0  0  0  0  0  0  0  0  0  0  0
   15.9580  -60.6740   27.4850 C   0  0  0  0  0  1  0  0  0  0  0  0
   15.8690  -60.2930   31.1810 C   0  0  0  0  0  0  0  0  0  0  0  0
   15.0460  -60.6900   32.4000 C   0  0  0  0  0  1  0  0  0  0  0  0
  1 25  1  6  0  0  0
  1  2  1  0  0  0  0
  2  3  1  0  0  0  0
  2 18  1  1  0  0  0
  3  8  1  0  0  0  0
  4  3  1  0  0  0  0
  5  4  2  0  0  0  0
  6  1  1  0  0  0  0
  6  4  1  0  0  0  0
  7  6  2  0  0  0  0
  8  9  1  0  0  0  0
  9 10  1  0  0  0  0
 10 11  1  0  0  0  0
 11 17  1  0  0  0  0
 11 16  1  0  0  0  0
 12 11  1  0  0  0  0
 13 12  1  0  0  0  0
 13 14  1  0  0  0  0
 14 15  1  0  0  0  0
 15 16  1  0  0  0  0
 18 19  1  0  0  0  0
 19 20  2  0  0  0  0
 20 22  1  0  0  0  0
 21 20  1  0  0  0  0
 23 21  2  0  0  0  0
 24 18  2  0  0  0  0
 24 23  1  0  0  0  0
 25 26  1  1  0  0  0
 27 25  1  0  0  0  0
 28 27  1  0  0  0  0
 29 28  1  0  0  0  0
 29 30  2  0  0  0  0
 30 32  1  0  0  0  0
 31 29  1  0  0  0  0
 32 27  2  0  0  0  0
 32 33  1  0  0  0  0
M  END
>  <Pose>
1

>  <Score>
-8.553

$$$$
