/Users/jonathanwahrer/Desktop/Msc/3_Semester/Drug_Design_Praktikum/waehrer_HTS_screening/HTS_experiment/out/docking_results/vina_output/6s1j/1180_docked.pdbqt
 OpenBabel03222221543D

 32 35  0  0  1  0  0  0  0  0999 V2000
   18.8750  -54.9270   33.3120 C   0  0  1  0  0  3  0  0  0  0  0  0
   18.4550  -55.7720   34.4720 C   0  0  1  0  0  3  0  0  0  0  0  0
   18.2470  -54.7850   35.4600 N   0  0  0  0  0  0  0  0  0  0  0  0
   19.4740  -53.9640   35.3380 C   0  0  0  0  0  0  0  0  0  0  0  0
   20.0480  -53.3170   36.2540 O   0  0  0  0  0  0  0  0  0  0  0  0
   19.8740  -54.0620   33.9390 C   0  0  0  0  0  0  0  0  0  0  0  0
   20.8590  -53.5410   33.3290 O   0  0  0  0  0  0  0  0  0  0  0  0
   18.4830  -54.9810   32.0570 C   0  0  1  0  0  3  0  0  0  0  0  0
   17.3690  -54.2710   31.6470 O   0  0  0  0  0  1  0  0  0  0  0  0
   19.2800  -55.8170   31.1460 C   0  0  0  0  0  0  0  0  0  0  0  0
   20.9270  -55.6340   30.6730 S   0  0  0  0  0  0  0  0  0  0  0  0
   21.0710  -57.0090   29.6820 C   0  0  0  0  0  0  0  0  0  0  0  0
   19.8660  -57.5390   29.7590 N   0  0  0  0  0  0  0  0  0  0  0  0
   22.2650  -57.5000   28.9090 C   0  0  0  0  0  1  0  0  0  0  0  0
   18.9490  -56.9730   30.4790 C   0  0  0  0  0  0  0  0  0  0  0  0
   17.5660  -57.5930   30.6160 C   0  0  0  0  0  1  0  0  0  0  0  0
   17.5990  -56.8750   34.2080 C   0  0  0  0  0  0  0  0  0  0  0  0
   16.2470  -56.6370   33.9430 C   0  0  0  0  0  3  0  0  0  0  0  0
   15.3510  -57.6440   33.6960 C   0  0  0  0  0  3  0  0  0  0  0  0
   15.8150  -58.9420   33.7120 C   0  0  0  0  0  0  0  0  0  0  0  0
   17.1460  -59.1990   33.9710 C   0  0  0  0  0  3  0  0  0  0  0  0
   14.6320  -60.4060   33.3770 Br  0  0  0  0  0  0  0  0  0  0  0  0
   18.0270  -58.1710   34.2170 C   0  0  0  0  0  3  0  0  0  0  0  0
   17.3340  -54.4270   36.4920 C   0  0  0  0  0  2  0  0  0  0  0  0
   17.0030  -55.3850   37.5530 C   0  0  0  0  0  2  0  0  0  0  0  0
   15.8280  -56.1570   37.5290 N   0  0  0  0  0  4  0  0  0  0  0  0
   16.0420  -57.5850   37.4250 C   0  0  0  0  0  2  0  0  0  0  0  0
   14.6600  -58.2130   37.2750 C   0  0  0  0  0  2  0  0  0  0  0  0
   13.6610  -57.3160   37.6500 O   0  0  0  0  0  0  0  0  0  0  0  0
   14.0170  -56.8730   38.9400 C   0  0  0  0  0  2  0  0  0  0  0  0
   15.2460  -56.0100   38.9040 C   0  0  0  0  0  2  0  0  0  0  0  0
   15.1250  -55.7730   36.8890 H   0  0  0  0  0  0  0  0  0  0  0  0
  1  8  1  6  0  0  0
  1  6  1  0  0  0  0
  1  2  1  0  0  0  0
  2 17  1  6  0  0  0
  2  3  1  0  0  0  0
  3 24  1  0  0  0  0
  4  3  1  0  0  0  0
  4  5  2  0  0  0  0
  6  4  1  0  0  0  0
  7  6  2  0  0  0  0
  8  9  1  6  0  0  0
 10  8  1  0  0  0  0
 11 10  1  0  0  0  0
 12 13  2  0  0  0  0
 12 11  1  0  0  0  0
 13 15  1  0  0  0  0
 14 12  1  0  0  0  0
 15 16  1  0  0  0  0
 15 10  2  0  0  0  0
 17 23  1  0  0  0  0
 18 17  2  0  0  0  0
 19 20  2  0  0  0  0
 19 18  1  0  0  0  0
 20 21  1  0  0  0  0
 21 23  2  0  0  0  0
 22 20  1  0  0  0  0
 24 25  1  0  0  0  0
 26 25  1  0  0  0  0
 26 31  1  0  0  0  0
 27 26  1  0  0  0  0
 28 27  1  0  0  0  0
 28 29  1  0  0  0  0
 29 30  1  0  0  0  0
 31 30  1  0  0  0  0
 32 26  1  0  0  0  0
M  END
>  <Pose>
1

>  <Score>
-7.852

$$$$
