/Users/jonathanwahrer/Desktop/Msc/3_Semester/Drug_Design_Praktikum/waehrer_HTS_screening/HTS_experiment/out/docking_results/vina_output/6s1j/1192_docked.pdbqt
 OpenBabel03222221543D

 27 30  0  0  1  0  0  0  0  0999 V2000
   17.0740  -58.7960   35.8050 S   0  0  0  0  0  0  0  0  0  0  0  0
   17.6220  -57.5230   34.7900 C   0  0  0  0  0  0  0  0  0  0  0  0
   16.5080  -57.2350   34.0490 C   0  0  0  0  0  0  0  0  0  0  0  0
   15.3990  -57.9520   34.2910 C   0  0  0  0  0  0  0  0  0  0  0  0
   15.4700  -58.9160   35.2610 C   0  0  0  0  0  0  0  0  0  0  0  0
   14.2200  -59.7060   35.5170 C   0  0  0  0  0  2  0  0  0  0  0  0
   13.1410  -58.7600   35.7960 N   0  0  0  0  0  4  0  0  0  0  0  0
   12.9830  -57.7670   34.7800 C   0  0  0  0  0  2  0  0  0  0  0  0
   14.0140  -57.8950   33.6640 C   0  0  0  0  0  2  0  0  0  0  0  0
   13.5290  -58.0720   37.0280 C   0  0  0  0  0  1  0  0  0  0  0  0
   16.6990  -56.1420   33.0560 C   0  0  0  0  0  0  0  0  0  0  0  0
   15.7460  -55.7760   32.3060 O   0  0  0  0  0  0  0  0  0  0  0  0
   17.9690  -55.5160   32.9650 N   0  0  0  0  0  0  0  0  0  0  0  0
   18.9520  -55.5150   34.0090 C   0  0  2  0  0  3  0  0  0  0  0  0
   18.8820  -56.8280   34.6300 N   0  0  0  0  0  0  0  0  0  0  0  0
   12.2660  -59.2730   36.0240 H   0  0  0  0  0  0  0  0  0  0  0  0
   18.1890  -55.0200   32.0550 H   0  0  0  0  0  0  0  0  0  0  0  0
   19.7270  -57.3200   34.9860 H   0  0  0  0  0  0  0  0  0  0  0  0
   18.7030  -54.4700   35.0310 C   0  0  0  0  0  0  0  0  0  0  0  0
   17.7210  -54.6080   35.9900 C   0  0  0  0  0  3  0  0  0  0  0  0
   17.4760  -53.6490   36.9480 C   0  0  0  0  0  0  0  0  0  0  0  0
   18.2300  -52.4940   36.9690 C   0  0  0  0  0  0  0  0  0  0  0  0
   16.1240  -53.8510   38.2610 Br  0  0  0  0  0  0  0  0  0  0  0  0
   19.2140  -52.3340   36.0230 C   0  0  0  0  0  0  0  0  0  0  0  0
   17.9880  -51.5230   37.9310 O   0  0  0  0  0  1  0  0  0  0  0  0
   19.4540  -53.3010   35.0660 C   0  0  0  0  0  3  0  0  0  0  0  0
   20.2390  -50.7100   36.0900 Br  0  0  0  0  0  0  0  0  0  0  0  0
  2  1  1  0  0  0  0
  3  4  1  0  0  0  0
  3  2  2  0  0  0  0
  4  5  2  0  0  0  0
  5  6  1  0  0  0  0
  5  1  1  0  0  0  0
  6  7  1  0  0  0  0
  7 16  1  0  0  0  0
  7 10  1  0  0  0  0
  8  7  1  0  0  0  0
  9  4  1  0  0  0  0
  9  8  1  0  0  0  0
 11  3  1  0  0  0  0
 12 11  2  0  0  0  0
 13 11  1  0  0  0  0
 13 14  1  0  0  0  0
 14 15  1  0  0  0  0
 14 19  1  1  0  0  0
 15  2  1  0  0  0  0
 15 18  1  0  0  0  0
 17 13  1  0  0  0  0
 19 26  2  0  0  0  0
 19 20  1  0  0  0  0
 20 21  2  0  0  0  0
 21 22  1  0  0  0  0
 21 23  1  0  0  0  0
 22 25  1  0  0  0  0
 24 27  1  0  0  0  0
 24 22  2  0  0  0  0
 26 24  1  0  0  0  0
M  END
>  <Pose>
1

>  <Score>
-8.052

$$$$
