/Users/jonathanwahrer/Desktop/Msc/3_Semester/Drug_Design_Praktikum/waehrer_HTS_screening/HTS_experiment/out/docking_results/vina_output/6s1j/1206_docked.pdbqt
 OpenBabel03222221543D

 25 28  0  0  1  0  0  0  0  0999 V2000
   19.5710  -53.9020   36.4770 S   0  0  0  0  0  0  0  0  0  0  0  0
   18.5150  -53.3690   37.8490 C   0  0  2  0  0  3  0  0  0  0  0  0
   17.7260  -54.6330   38.0540 C   0  0  0  0  0  2  0  0  0  0  0  0
   17.5030  -55.3360   36.8270 N   0  0  0  0  0  0  0  0  0  0  0  0
   18.3710  -55.0660   35.8390 C   0  0  2  0  0  3  0  0  0  0  0  0
   18.0330  -55.7670   34.7500 N   0  0  0  0  0  0  0  0  0  0  0  0
   16.9340  -56.5000   35.0350 C   0  0  0  0  0  3  0  0  0  0  0  0
   16.5880  -56.2420   36.3400 C   0  0  0  0  0  0  0  0  0  0  0  0
   17.5540  -52.2880   37.4170 C   0  0  0  0  0  1  0  0  0  0  0  0
   15.4560  -56.8310   37.0150 C   0  0  0  0  0  0  0  0  0  0  0  0
   14.6910  -57.7760   36.3100 C   0  0  0  0  0  3  0  0  0  0  0  0
   13.6270  -58.4040   36.9040 C   0  0  0  0  0  3  0  0  0  0  0  0
   13.2430  -58.1600   38.1990 C   0  0  0  0  0  0  0  0  0  0  0  0
   13.9760  -57.2390   38.9110 C   0  0  0  0  0  3  0  0  0  0  0  0
   15.0630  -56.5970   38.3060 C   0  0  0  0  0  3  0  0  0  0  0  0
   12.1330  -58.8490   38.7390 N   0  0  0  0  0  0  0  0  0  0  0  0
   11.1930  -59.1990   38.0160 O   0  0  0  0  0  0  0  0  0  0  0  0
   12.1040  -59.1280   40.0710 O   0  0  0  0  0  0  0  0  0  0  0  0
   18.7010  -55.7590   33.4940 C   0  0  0  0  0  0  0  0  0  0  0  0
   19.2800  -54.6200   32.9830 C   0  0  0  0  0  3  0  0  0  0  0  0
   19.9330  -54.5860   31.7690 C   0  0  0  0  0  3  0  0  0  0  0  0
   20.0200  -55.7340   31.0130 C   0  0  0  0  0  0  0  0  0  0  0  0
   19.4490  -56.8980   31.4940 C   0  0  0  0  0  3  0  0  0  0  0  0
   20.9180  -55.7240   29.3230 Br  0  0  0  0  0  0  0  0  0  0  0  0
   18.8020  -56.9060   32.7130 C   0  0  0  0  0  3  0  0  0  0  0  0
  1  2  1  0  0  0  0
  2  9  1  6  0  0  0
  2  3  1  0  0  0  0
  4  3  1  0  0  0  0
  5  1  1  1  0  0  0
  5  4  1  0  0  0  0
  6  7  1  0  0  0  0
  6  5  1  0  0  0  0
  7  8  2  0  0  0  0
  8  4  1  0  0  0  0
  8 10  1  0  0  0  0
 10 15  1  0  0  0  0
 11 12  1  0  0  0  0
 11 10  2  0  0  0  0
 12 13  2  0  0  0  0
 13 16  1  0  0  0  0
 13 14  1  0  0  0  0
 15 14  2  0  0  0  0
 16 18  2  0  0  0  0
 17 16  2  0  0  0  0
 19  6  1  0  0  0  0
 20 19  1  0  0  0  0
 21 20  2  0  0  0  0
 22 23  2  0  0  0  0
 22 21  1  0  0  0  0
 23 25  1  0  0  0  0
 24 22  1  0  0  0  0
 25 19  2  0  0  0  0
M  END
>  <Pose>
1

>  <Score>
-8.833

$$$$
