/Users/jonathanwahrer/Desktop/Msc/3_Semester/Drug_Design_Praktikum/waehrer_HTS_screening/HTS_experiment/out/docking_results/vina_output/6s1j/1209_docked.pdbqt
 OpenBabel03222221543D

 24 27  0  0  1  0  0  0  0  0999 V2000
   19.8620  -53.7330   34.9850 S   0  0  0  0  0  0  0  0  0  0  0  0
   19.9780  -51.9750   35.4200 C   0  0  0  0  0  2  0  0  0  0  0  0
   19.1250  -51.7620   36.6580 C   0  0  0  0  0  2  0  0  0  0  0  0
   19.3790  -52.8660   37.6630 C   0  0  0  0  0  2  0  0  0  0  0  0
   18.5100  -53.9720   37.2960 N   0  0  0  0  0  0  0  0  0  0  0  0
   18.6430  -54.4650   36.0620 C   0  0  2  0  0  3  0  0  0  0  0  0
   17.7430  -55.4980   35.9000 N   0  0  0  0  0  0  0  0  0  0  0  0
   17.0570  -55.6460   37.0210 C   0  0  0  0  0  0  0  0  0  0  0  0
   17.5530  -54.6760   37.8890 C   0  0  0  0  0  3  0  0  0  0  0  0
   16.0000  -56.5790   37.3770 C   0  0  0  0  0  0  0  0  0  0  0  0
   14.9000  -56.1200   38.1160 C   0  0  0  0  0  3  0  0  0  0  0  0
   13.8760  -56.9500   38.4790 C   0  0  0  0  0  3  0  0  0  0  0  0
   13.8450  -58.2860   38.1510 C   0  0  0  0  0  0  0  0  0  0  0  0
   14.9160  -58.7450   37.4280 C   0  0  0  0  0  3  0  0  0  0  0  0
   15.9770  -57.9120   37.0450 C   0  0  0  0  0  3  0  0  0  0  0  0
   12.7880  -59.0970   38.5380 O   0  0  0  0  0  0  0  0  0  0  0  0
   11.8800  -59.5960   37.5730 C   0  0  0  0  0  1  0  0  0  0  0  0
   17.6470  -56.2270   34.6800 C   0  0  0  0  0  0  0  0  0  0  0  0
   16.7230  -55.8730   33.7120 C   0  0  0  0  0  3  0  0  0  0  0  0
   16.6250  -56.5400   32.5080 C   0  0  0  0  0  3  0  0  0  0  0  0
   17.4850  -57.5950   32.2780 C   0  0  0  0  0  0  0  0  0  0  0  0
   18.4020  -57.9420   33.2480 C   0  0  0  0  0  3  0  0  0  0  0  0
   17.4230  -58.5850   30.6330 Br  0  0  0  0  0  0  0  0  0  0  0  0
   18.5180  -57.2900   34.4570 C   0  0  0  0  0  3  0  0  0  0  0  0
  1  2  1  0  0  0  0
  2  3  1  0  0  0  0
  3  4  1  0  0  0  0
  5  4  1  0  0  0  0
  5  9  1  0  0  0  0
  6  1  1  1  0  0  0
  6  5  1  0  0  0  0
  7  6  1  0  0  0  0
  7  8  1  0  0  0  0
  8 10  1  0  0  0  0
  8  9  2  0  0  0  0
 10 11  1  0  0  0  0
 11 12  2  0  0  0  0
 13 12  1  0  0  0  0
 13 16  1  0  0  0  0
 14 13  2  0  0  0  0
 15 10  2  0  0  0  0
 15 14  1  0  0  0  0
 17 16  1  0  0  0  0
 18  7  1  0  0  0  0
 19 18  2  0  0  0  0
 20 19  1  0  0  0  0
 21 20  2  0  0  0  0
 21 22  1  0  0  0  0
 22 24  2  0  0  0  0
 23 21  1  0  0  0  0
 24 18  1  0  0  0  0
M  END
>  <Pose>
1

>  <Score>
-8.936

$$$$
