/Users/jonathanwahrer/Desktop/Msc/3_Semester/Drug_Design_Praktikum/waehrer_HTS_screening/HTS_experiment/out/docking_results/vina_output/6s1j/1211_docked.pdbqt
 OpenBabel03222221543D

 26 29  0  0  1  0  0  0  0  0999 V2000
   17.8650  -58.7260   34.1520 S   0  0  0  0  0  0  0  0  0  0  0  0
   16.3600  -59.2610   35.0560 C   0  0  0  0  0  2  0  0  0  0  0  0
   15.2040  -58.6440   34.2640 C   0  0  0  0  0  2  0  0  0  0  0  0
   15.2920  -57.1290   34.4220 C   0  0  0  0  0  2  0  0  0  0  0  0
   16.2320  -56.6500   33.4390 N   0  0  1  0  0  0  0  0  0  0  0  0
   17.3680  -57.2680   33.2450 C   0  0  2  0  0  3  0  0  0  0  0  0
   18.0690  -56.5580   32.1890 N   0  0  0  0  0  0  0  0  0  0  0  0
   17.7030  -55.1880   32.4770 C   0  0  2  0  0  0  0  0  0  0  0  0
   16.1640  -55.5170   32.5110 C   0  0  0  0  0  2  0  0  0  0  0  0
   17.9990  -54.2770   31.5130 O   0  0  0  0  0  0  0  0  0  0  0  0
   17.1550  -54.0640   31.0060 H   0  0  0  0  0  0  0  0  0  0  0  0
   18.1230  -54.8390   33.8390 C   0  0  0  0  0  0  0  0  0  0  0  0
   17.2610  -54.3060   34.7820 C   0  0  0  0  0  3  0  0  0  0  0  0
   17.7460  -53.9670   36.0540 C   0  0  0  0  0  3  0  0  0  0  0  0
   19.0310  -54.1380   36.4050 C   0  0  0  0  0  0  0  0  0  0  0  0
   19.9360  -54.6810   35.4700 C   0  0  0  0  0  3  0  0  0  0  0  0
   19.4190  -55.0030   34.2270 C   0  0  0  0  0  3  0  0  0  0  0  0
   19.5600  -53.8060   37.6800 O   0  0  0  0  0  0  0  0  0  0  0  0
   18.7770  -53.9720   38.8420 C   0  0  0  0  0  1  0  0  0  0  0  0
   18.8230  -57.1230   31.1410 C   0  0  0  0  0  0  0  0  0  0  0  0
   18.1590  -58.0080   30.2560 C   0  0  0  0  0  3  0  0  0  0  0  0
   18.8280  -58.6520   29.2300 C   0  0  0  0  0  3  0  0  0  0  0  0
   20.1670  -58.4580   29.0300 C   0  0  0  0  0  0  0  0  0  0  0  0
   20.8420  -57.6030   29.8750 C   0  0  0  0  0  3  0  0  0  0  0  0
   21.1380  -59.3400   27.6410 Br  0  0  0  0  0  0  0  0  0  0  0  0
   20.1540  -56.9490   30.9150 C   0  0  0  0  0  3  0  0  0  0  0  0
  1  2  1  0  0  0  0
  3  4  1  0  0  0  0
  3  2  1  0  0  0  0
  5  9  1  6  0  0  0
  5  4  1  0  0  0  0
  6  5  1  0  0  0  0
  6  1  1  6  0  0  0
  7  8  1  0  0  0  0
  7  6  1  0  0  0  0
  8 10  1  6  0  0  0
  8  9  1  0  0  0  0
  8 12  1  0  0  0  0
 11 10  1  0  0  0  0
 12 17  2  0  0  0  0
 12 13  1  0  0  0  0
 13 14  2  0  0  0  0
 14 15  1  0  0  0  0
 15 18  1  0  0  0  0
 16 15  2  0  0  0  0
 17 16  1  0  0  0  0
 18 19  1  0  0  0  0
 20  7  1  0  0  0  0
 21 20  2  0  0  0  0
 22 21  1  0  0  0  0
 23 22  2  0  0  0  0
 23 24  1  0  0  0  0
 24 26  2  0  0  0  0
 25 23  1  0  0  0  0
 26 20  1  0  0  0  0
M  END
>  <Pose>
1

>  <Score>
-7.116

$$$$
