/Users/jonathanwahrer/Desktop/Msc/3_Semester/Drug_Design_Praktikum/waehrer_HTS_screening/HTS_experiment/out/docking_results/vina_output/6s1j/1217_docked.pdbqt
 OpenBabel03222221553D

 28 31  0  0  1  0  0  0  0  0999 V2000
   14.3820  -57.7130   33.3750 S   0  0  0  0  0  0  0  0  0  0  0  0
   12.8750  -58.3720   34.0440 C   0  0  0  0  0  2  0  0  0  0  0  0
   12.9410  -58.3550   35.5580 C   0  0  0  0  0  2  0  0  0  0  0  0
   14.1050  -59.2150   36.0180 C   0  0  0  0  0  2  0  0  0  0  0  0
   15.3510  -58.5220   35.7860 N   0  0  2  0  0  0  0  0  0  0  0  0
   16.4230  -58.1690   36.6590 C   0  0  2  0  0  0  0  0  0  0  0  0
   17.5910  -58.2970   35.6940 C   0  0  0  0  0  2  0  0  0  0  0  0
   17.0330  -57.8310   34.4450 N   0  0  0  0  0  0  0  0  0  0  0  0
   15.7600  -58.0160   34.5030 C   0  0  2  0  0  3  0  0  0  0  0  0
   17.7270  -57.2370   33.3570 C   0  0  0  0  0  0  0  0  0  0  0  0
   17.9430  -58.0300   32.2380 C   0  0  0  0  0  0  0  0  0  0  0  0
   18.6420  -57.5240   31.1360 C   0  0  0  0  0  3  0  0  0  0  0  0
   19.1210  -56.2260   31.1660 C   0  0  0  0  0  3  0  0  0  0  0  0
   18.9240  -55.4140   32.2570 C   0  0  0  0  0  0  0  0  0  0  0  0
   18.2140  -55.9820   33.3320 C   0  0  0  0  0  3  0  0  0  0  0  0
   17.4670  -59.3230   32.2140 O   0  0  0  0  0  0  0  0  0  0  0  0
   16.8610  -59.9440   31.1050 C   0  0  0  0  0  1  0  0  0  0  0  0
   19.3770  -54.1090   32.3480 O   0  0  0  0  0  0  0  0  0  0  0  0
   20.3390  -53.6340   33.2450 C   0  0  0  0  0  1  0  0  0  0  0  0
   16.5270  -59.0920   37.6940 O   0  0  0  0  0  0  0  0  0  0  0  0
   16.9620  -58.6800   38.4750 H   0  0  0  0  0  0  0  0  0  0  0  0
   16.4110  -56.7800   37.1580 C   0  0  0  0  0  0  0  0  0  0  0  0
   17.2700  -55.7880   36.8030 C   0  0  0  0  0  3  0  0  0  0  0  0
   17.1880  -54.5140   37.3680 C   0  0  0  0  0  3  0  0  0  0  0  0
   16.2310  -54.2110   38.3140 C   0  0  0  0  0  0  0  0  0  0  0  0
   15.3660  -55.1970   38.6770 C   0  0  0  0  0  3  0  0  0  0  0  0
   16.1370  -52.4580   39.0860 Br  0  0  0  0  0  0  0  0  0  0  0  0
   15.4460  -56.4440   38.1240 C   0  0  0  0  0  3  0  0  0  0  0  0
  1  2  1  0  0  0  0
  2  3  1  0  0  0  0
  3  4  1  0  0  0  0
  5  4  1  1  0  0  0
  5  6  1  0  0  0  0
  6 22  1  0  0  0  0
  6 20  1  1  0  0  0
  7  6  1  0  0  0  0
  8  9  1  0  0  0  0
  8  7  1  0  0  0  0
  9  1  1  1  0  0  0
  9  5  1  0  0  0  0
 10  8  1  0  0  0  0
 11 10  2  0  0  0  0
 12 13  2  0  0  0  0
 12 11  1  0  0  0  0
 13 14  1  0  0  0  0
 14 18  1  0  0  0  0
 14 15  2  0  0  0  0
 15 10  1  0  0  0  0
 16 11  1  0  0  0  0
 17 16  1  0  0  0  0
 18 19  1  0  0  0  0
 20 21  1  0  0  0  0
 22 28  1  0  0  0  0
 23 22  2  0  0  0  0
 23 24  1  0  0  0  0
 24 25  2  0  0  0  0
 25 26  1  0  0  0  0
 25 27  1  0  0  0  0
 28 26  2  0  0  0  0
M  END
>  <Pose>
1

>  <Score>
-7.237

$$$$
