/Users/jonathanwahrer/Desktop/Msc/3_Semester/Drug_Design_Praktikum/waehrer_HTS_screening/HTS_experiment/out/docking_results/vina_output/6s1j/1222_docked.pdbqt
 OpenBabel03222221553D

 24 27  0  0  1  0  0  0  0  0999 V2000
   14.0100  -57.2580   33.9530 S   0  0  0  0  0  0  0  0  0  0  0  0
   12.9410  -58.6790   34.4600 C   0  0  0  0  0  2  0  0  0  0  0  0
   13.6930  -59.9760   34.3130 C   0  0  0  0  0  2  0  0  0  0  0  0
   14.7540  -59.9500   33.2350 C   0  0  0  0  0  2  0  0  0  0  0  0
   15.8880  -59.1760   33.5560 N   0  0  1  0  0  0  0  0  0  0  0  0
   17.3530  -59.1760   33.3940 C   0  0  1  0  0  0  0  0  0  0  0  0
   17.7070  -58.5760   34.7340 C   0  0  0  0  0  2  0  0  0  0  0  0
   16.7060  -57.5270   34.8530 N   0  0  0  0  0  0  0  0  0  0  0  0
   15.6800  -57.9210   34.2610 C   0  0  1  0  0  3  0  0  0  0  0  0
   17.8790  -60.4260   33.2730 O   0  0  0  0  0  0  0  0  0  0  0  0
   18.3440  -60.6220   32.4220 H   0  0  0  0  0  0  0  0  0  0  0  0
   17.7640  -58.2360   32.3000 C   0  0  0  0  0  0  0  0  0  0  0  0
   17.0870  -58.1400   31.0990 C   0  0  0  0  0  3  0  0  0  0  0  0
   17.5300  -57.2380   30.1410 C   0  0  0  0  0  3  0  0  0  0  0  0
   18.6330  -56.4160   30.3370 C   0  0  0  0  0  3  0  0  0  0  0  0
   19.3080  -56.5040   31.5240 C   0  0  0  0  0  3  0  0  0  0  0  0
   18.8670  -57.4120   32.4860 C   0  0  0  0  0  3  0  0  0  0  0  0
   16.9100  -56.2440   35.4840 C   0  0  0  0  0  0  0  0  0  0  0  0
   17.3730  -55.1280   34.8610 C   0  0  0  0  0  3  0  0  0  0  0  0
   17.5990  -53.9240   35.5170 C   0  0  0  0  0  3  0  0  0  0  0  0
   17.3520  -53.8310   36.8610 C   0  0  0  0  0  0  0  0  0  0  0  0
   16.8800  -54.9630   37.4980 C   0  0  0  0  0  3  0  0  0  0  0  0
   17.6380  -52.2110   37.8510 Br  0  0  0  0  0  0  0  0  0  0  0  0
   16.6580  -56.1460   36.8500 C   0  0  0  0  0  3  0  0  0  0  0  0
  1  2  1  0  0  0  0
  3  2  1  0  0  0  0
  4  3  1  0  0  0  0
  5  4  1  6  0  0  0
  5  9  1  0  0  0  0
  6 10  1  6  0  0  0
  6  5  1  0  0  0  0
  6  7  1  0  0  0  0
  7  8  1  0  0  0  0
  8 18  1  0  0  0  0
  9  1  1  6  0  0  0
  9  8  1  0  0  0  0
 11 10  1  0  0  0  0
 12 17  1  0  0  0  0
 12  6  1  0  0  0  0
 13 12  2  0  0  0  0
 14 15  2  0  0  0  0
 14 13  1  0  0  0  0
 15 16  1  0  0  0  0
 16 17  2  0  0  0  0
 18 24  1  0  0  0  0
 19 18  2  0  0  0  0
 19 20  1  0  0  0  0
 20 21  2  0  0  0  0
 21 22  1  0  0  0  0
 21 23  1  0  0  0  0
 24 22  2  0  0  0  0
M  END
>  <Pose>
1

>  <Score>
-8.311

$$$$
