/Users/jonathanwahrer/Desktop/Msc/3_Semester/Drug_Design_Praktikum/waehrer_HTS_screening/HTS_experiment/out/docking_results/vina_output/6s1j/1224_docked.pdbqt
 OpenBabel03222221553D

 26 29  0  0  1  0  0  0  0  0999 V2000
   15.7570  -58.4340   37.5360 S   0  0  0  0  0  0  0  0  0  0  0  0
   16.5100  -56.8630   36.9480 C   0  0  0  0  0  2  0  0  0  0  0  0
   16.6760  -57.0380   35.4450 C   0  0  0  0  0  2  0  0  0  0  0  0
   15.3600  -57.0490   34.7330 C   0  0  0  0  0  2  0  0  0  0  0  0
   14.5050  -58.1450   35.0680 N   0  0  2  0  0  0  0  0  0  0  0  0
   13.6090  -59.0400   34.3300 C   0  0  1  0  0  0  0  0  0  0  0  0
   12.4650  -59.0480   35.3610 C   0  0  0  0  0  2  0  0  0  0  0  0
   13.2010  -59.1640   36.6060 N   0  0  0  0  0  0  0  0  0  0  0  0
   14.3450  -58.6400   36.4250 C   0  0  1  0  0  3  0  0  0  0  0  0
   13.2170  -58.4450   33.1540 O   0  0  0  0  0  0  0  0  0  0  0  0
   13.8870  -57.8130   32.8000 H   0  0  0  0  0  0  0  0  0  0  0  0
   14.1560  -60.4010   34.1810 C   0  0  0  0  0  0  0  0  0  0  0  0
   13.4620  -61.5720   34.3910 C   0  0  0  0  0  3  0  0  0  0  0  0
   14.0680  -62.8050   34.2130 C   0  0  0  0  0  3  0  0  0  0  0  0
   15.3740  -62.8800   33.8230 C   0  0  0  0  0  0  0  0  0  0  0  0
   16.0830  -61.7180   33.6090 C   0  0  0  0  0  3  0  0  0  0  0  0
   16.2730  -64.5580   33.5600 Br  0  0  0  0  0  0  0  0  0  0  0  0
   15.4710  -60.5030   33.7880 C   0  0  0  0  0  3  0  0  0  0  0  0
   12.6430  -59.7840   37.7870 C   0  0  0  0  0  0  0  0  0  0  0  0
   12.4080  -59.0180   38.9250 C   0  0  0  0  0  3  0  0  0  0  0  0
   11.8800  -59.5800   40.0660 C   0  0  0  0  0  3  0  0  0  0  0  0
   11.5560  -60.9180   40.1520 C   0  0  0  0  0  0  0  0  0  0  0  0
   11.7860  -61.6810   39.0330 C   0  0  0  0  0  3  0  0  0  0  0  0
   12.3240  -61.1040   37.8720 C   0  0  0  0  0  3  0  0  0  0  0  0
   11.0220  -61.4490   41.3210 O   0  0  0  0  0  0  0  0  0  0  0  0
   11.2460  -60.9610   42.6130 C   0  0  0  0  0  1  0  0  0  0  0  0
  2  1  1  0  0  0  0
  3  2  1  0  0  0  0
  4  3  1  0  0  0  0
  5  4  1  1  0  0  0
  5  9  1  0  0  0  0
  6 10  1  6  0  0  0
  6  5  1  0  0  0  0
  6  7  1  0  0  0  0
  7  8  1  0  0  0  0
  8 19  1  0  0  0  0
  9  8  1  0  0  0  0
  9  1  1  6  0  0  0
 11 10  1  0  0  0  0
 12  6  1  0  0  0  0
 12 13  1  0  0  0  0
 14 13  2  0  0  0  0
 15 14  1  0  0  0  0
 16 18  1  0  0  0  0
 16 15  2  0  0  0  0
 17 15  1  0  0  0  0
 18 12  2  0  0  0  0
 19 24  2  0  0  0  0
 19 20  1  0  0  0  0
 20 21  2  0  0  0  0
 21 22  1  0  0  0  0
 22 25  1  0  0  0  0
 23 22  2  0  0  0  0
 24 23  1  0  0  0  0
 25 26  1  0  0  0  0
M  END
>  <Pose>
1

>  <Score>
-6.720

$$$$
