/Users/jonathanwahrer/Desktop/Msc/3_Semester/Drug_Design_Praktikum/waehrer_HTS_screening/HTS_experiment/out/docking_results/vina_output/6s1j/1231_docked.pdbqt
 OpenBabel03222221563D

 37 40  0  0  0  0  0  0  0  0999 V2000
   17.5000  -55.3400   36.0510 C   0  0  0  0  0  0  0  0  0  0  0  0
   18.0650  -54.1610   36.3420 N   0  0  0  0  0  0  0  0  0  0  0  0
   17.5380  -53.7910   37.5220 N   0  0  0  0  0  0  0  0  0  0  0  0
   16.7020  -54.6650   37.9540 N   0  0  0  0  0  0  0  0  0  0  0  0
   16.6090  -55.7160   37.0610 C   0  0  0  0  0  0  0  0  0  0  0  0
   15.7670  -56.8670   37.2590 C   0  0  0  0  0  0  0  0  0  0  0  0
   16.3670  -58.0010   37.4260 O   0  0  0  0  0  0  0  0  0  0  0  0
   14.3770  -56.9290   37.2970 N   0  0  0  0  0  0  0  0  0  0  0  0
   13.6920  -56.1630   37.1820 H   0  0  0  0  0  0  0  0  0  0  0  0
   13.7240  -58.1920   37.5130 N   0  0  0  0  0  0  0  0  0  0  0  0
   13.1100  -58.4550   38.5980 C   0  0  0  0  0  3  0  0  0  0  0  0
   12.4360  -59.7200   38.8570 C   0  0  0  0  0  0  0  0  0  0  0  0
   11.9110  -60.0210   40.0930 C   0  0  0  0  0  3  0  0  0  0  0  0
   11.2640  -61.2120   40.3520 C   0  0  0  0  0  0  0  0  0  0  0  0
   11.1180  -62.1600   39.3720 C   0  0  0  0  0  0  0  0  0  0  0  0
   10.5510  -61.5840   42.0850 Br  0  0  0  0  0  0  0  0  0  0  0  0
   11.6410  -61.8870   38.0980 C   0  0  0  0  0  0  0  0  0  0  0  0
   10.4650  -63.3500   39.6540 O   0  0  0  0  0  1  0  0  0  0  0  0
   12.2810  -60.6870   37.8720 C   0  0  0  0  0  3  0  0  0  0  0  0
   11.4590  -62.8790   37.1630 O   0  0  0  0  0  0  0  0  0  0  0  0
   10.5190  -62.8610   36.1180 C   0  0  0  0  0  1  0  0  0  0  0  0
   17.7600  -56.1810   34.8720 C   0  0  0  0  0  2  0  0  0  0  0  0
   16.5420  -56.1650   33.5740 S   0  0  0  0  0  0  0  0  0  0  0  0
   15.2740  -57.4050   33.8000 C   0  0  0  0  0  0  0  0  0  0  0  0
   15.6600  -59.1380   34.0540 S   0  0  0  0  0  0  0  0  0  0  0  0
   13.9400  -59.7230   33.9580 C   0  0  0  0  0  2  0  0  0  0  0  0
   13.2230  -58.4130   34.0150 C   0  0  0  0  0  2  0  0  0  0  0  0
   14.0390  -57.3240   33.8250 N   0  0  0  0  0  0  0  0  0  0  0  0
   19.0450  -53.3760   35.6680 C   0  0  0  0  0  0  0  0  0  0  0  0
   19.7820  -53.7020   34.5870 N   0  0  0  0  0  0  0  0  0  0  0  0
   20.5540  -52.7480   34.2220 O   0  0  0  0  0  0  0  0  0  0  0  0
   20.3710  -51.7530   35.0320 N   0  0  0  0  0  0  0  0  0  0  0  0
   19.4310  -52.0860   35.9660 C   0  0  0  0  0  0  0  0  0  0  0  0
   18.9480  -51.2580   37.0040 N   0  0  0  0  0  4  0  0  0  0  0  0
   18.0040  -50.8890   36.7130 H   0  0  0  0  0  0  0  0  0  0  0  0
   19.5740  -50.4750   37.2600 H   0  0  0  0  0  0  0  0  0  0  0  0
   18.7750  -51.8520   37.8600 H   0  0  0  0  0  0  0  0  0  0  0  0
  1  2  1  0  0  0  0
  1  5  2  0  0  0  0
  2  3  1  0  0  0  0
  3  4  2  0  0  0  0
  5  6  1  0  0  0  0
  5  4  1  0  0  0  0
  6  8  1  0  0  0  0
  6  7  2  0  0  0  0
  8 10  1  0  0  0  0
  9  8  1  0  0  0  0
 10 11  2  0  0  0  0
 11 12  1  0  0  0  0
 12 13  1  0  0  0  0
 13 14  2  0  0  0  0
 14 16  1  0  0  0  0
 15 18  1  0  0  0  0
 15 14  1  0  0  0  0
 17 15  2  0  0  0  0
 19 17  1  0  0  0  0
 19 12  2  0  0  0  0
 20 17  1  0  0  0  0
 21 20  1  0  0  0  0
 22  1  1  0  0  0  0
 23 24  1  0  0  0  0
 23 22  1  0  0  0  0
 24 28  2  0  0  0  0
 24 25  1  0  0  0  0
 26 27  1  0  0  0  0
 26 25  1  0  0  0  0
 28 27  1  0  0  0  0
 29 33  1  0  0  0  0
 29  2  1  0  0  0  0
 30 29  2  0  0  0  0
 31 30  1  0  0  0  0
 31 32  1  0  0  0  0
 32 33  2  0  0  0  0
 33 34  1  0  0  0  0
 34 36  1  0  0  0  0
 34 37  1  0  0  0  0
 35 34  1  0  0  0  0
M  END
>  <Pose>
1

>  <Score>
-8.257

$$$$
