/Users/jonathanwahrer/Desktop/Msc/3_Semester/Drug_Design_Praktikum/waehrer_HTS_screening/HTS_experiment/out/docking_results/vina_output/6s1j/1236_docked.pdbqt
 OpenBabel03222221563D

 30 34  0  0  1  0  0  0  0  0999 V2000
   16.4230  -57.9530   34.4150 C   0  0  2  0  0  3  0  0  0  0  0  0
   16.9200  -56.6360   33.9290 C   0  0  1  0  0  3  0  0  0  0  0  0
   18.3930  -56.6100   34.1420 C   0  0  0  0  0  0  0  0  0  0  0  0
   19.2090  -57.3090   33.1810 N   0  0  0  0  0  0  0  0  0  0  0  0
   18.8710  -55.9940   35.1270 O   0  0  0  0  0  0  0  0  0  0  0  0
   18.8120  -57.5700   32.0090 C   0  0  0  0  0  0  0  0  0  0  0  0
   19.5660  -58.3990   30.6240 S   0  0  0  0  0  0  0  0  0  0  0  0
   17.5390  -57.1620   31.5600 N   0  0  0  0  0  0  0  0  0  0  0  0
   18.4590  -57.5940   29.3690 C   0  0  0  0  0  2  0  0  0  0  0  0
   17.2140  -57.5510   30.2170 C   0  0  0  0  0  2  0  0  0  0  0  0
   16.6910  -56.4270   32.4810 C   0  0  0  0  0  0  0  0  0  0  0  0
   15.8230  -55.6640   31.9930 O   0  0  0  0  0  0  0  0  0  0  0  0
   15.3640  -58.5680   33.5350 C   0  0  2  0  0  3  0  0  0  0  0  0
   13.9900  -58.4090   34.0370 C   0  0  0  0  0  0  0  0  0  0  0  0
   13.3950  -57.2800   33.9200 O   0  0  0  0  0  0  0  0  0  0  0  0
   13.3070  -59.5220   34.6670 N   0  0  0  0  0  0  0  0  0  0  0  0
   12.0780  -59.4650   35.4080 C   0  0  0  0  0  2  0  0  0  0  0  0
   13.8660  -60.8130   34.5380 C   0  0  0  0  0  0  0  0  0  0  0  0
   12.0510  -60.5250   36.4800 C   0  0  0  0  0  2  0  0  0  0  0  0
   12.7760  -61.8930   35.4610 S   0  0  0  0  0  0  0  0  0  0  0  0
   14.9420  -61.0410   33.8900 N   0  0  0  0  0  0  0  0  0  0  0  0
   15.6740  -59.9900   33.2390 C   0  0  0  0  0  0  0  0  0  0  0  0
   16.5700  -60.3170   32.4220 O   0  0  0  0  0  0  0  0  0  0  0  0
   15.9730  -57.8110   35.8170 C   0  0  0  0  0  0  0  0  0  0  0  0
   15.7990  -56.5560   36.3860 C   0  0  0  0  0  3  0  0  0  0  0  0
   15.3760  -56.4120   37.6910 C   0  0  0  0  0  0  0  0  0  0  0  0
   15.1140  -57.5210   38.4650 C   0  0  0  0  0  3  0  0  0  0  0  0
   15.1340  -54.6920   38.4810 Br  0  0  0  0  0  0  0  0  0  0  0  0
   15.2860  -58.7510   37.9050 C   0  0  0  0  0  3  0  0  0  0  0  0
   15.7090  -58.9110   36.6010 C   0  0  0  0  0  3  0  0  0  0  0  0
  1 24  1  1  0  0  0
  2  3  1  0  0  0  0
  2  1  1  6  0  0  0
  3  5  2  0  0  0  0
  4  3  1  0  0  0  0
  6  4  2  0  0  0  0
  7  6  1  0  0  0  0
  8  6  1  0  0  0  0
  8 11  1  0  0  0  0
  9 10  1  0  0  0  0
  9  7  1  0  0  0  0
 10  8  1  0  0  0  0
 11  2  1  0  0  0  0
 12 11  2  0  0  0  0
 13 14  1  0  0  0  0
 13  1  1  1  0  0  0
 14 16  1  0  0  0  0
 15 14  2  0  0  0  0
 16 17  1  0  0  0  0
 17 19  1  0  0  0  0
 18 16  1  0  0  0  0
 18 20  1  0  0  0  0
 20 19  1  0  0  0  0
 21 18  2  0  0  0  0
 22 13  1  0  0  0  0
 22 21  1  0  0  0  0
 23 22  2  0  0  0  0
 24 25  2  0  0  0  0
 24 30  1  0  0  0  0
 25 26  1  0  0  0  0
 26 27  2  0  0  0  0
 26 28  1  0  0  0  0
 29 27  1  0  0  0  0
 30 29  2  0  0  0  0
M  END
>  <Pose>
1

>  <Score>
-7.721

$$$$
