/Users/jonathanwahrer/Desktop/Msc/3_Semester/Drug_Design_Praktikum/waehrer_HTS_screening/HTS_experiment/out/docking_results/vina_output/6s1j/1237_docked.pdbqt
 OpenBabel03222221563D

 30 34  0  0  1  0  0  0  0  0999 V2000
   16.2650  -57.4150   34.0890 C   0  0  2  0  0  3  0  0  0  0  0  0
   15.0030  -57.9090   34.6610 C   0  0  1  0  0  3  0  0  0  0  0  0
   13.7550  -57.8800   33.9510 C   0  0  0  0  0  0  0  0  0  0  0  0
   13.4110  -59.0560   33.1680 N   0  0  0  0  0  0  0  0  0  0  0  0
   12.8810  -56.9810   33.8960 O   0  0  0  0  0  0  0  0  0  0  0  0
   13.8920  -60.2180   33.4780 C   0  0  0  0  0  0  0  0  0  0  0  0
   13.6620  -61.8480   32.7210 S   0  0  0  0  0  0  0  0  0  0  0  0
   14.7970  -60.4450   34.5350 N   0  0  0  0  0  0  0  0  0  0  0  0
   15.1770  -62.5780   33.4810 C   0  0  0  0  0  2  0  0  0  0  0  0
   15.2070  -61.7820   34.7470 C   0  0  0  0  0  2  0  0  0  0  0  0
   15.1830  -59.2720   35.2890 C   0  0  0  0  0  0  0  0  0  0  0  0
   15.6520  -59.3960   36.4340 O   0  0  0  0  0  0  0  0  0  0  0  0
   17.3140  -58.3280   33.6160 C   0  0  1  0  0  3  0  0  0  0  0  0
   17.1770  -58.4280   32.0960 C   0  0  0  0  0  0  0  0  0  0  0  0
   16.2880  -59.1550   31.5980 O   0  0  0  0  0  0  0  0  0  0  0  0
   18.0720  -57.6850   31.2370 N   0  0  0  0  0  0  0  0  0  0  0  0
   17.9010  -57.3920   29.8560 C   0  0  0  0  0  2  0  0  0  0  0  0
   19.2700  -57.2050   31.8200 C   0  0  0  0  0  0  0  0  0  0  0  0
   18.5730  -56.0940   29.4820 C   0  0  0  0  0  2  0  0  0  0  0  0
   20.1000  -56.3210   30.5110 S   0  0  0  0  0  0  0  0  0  0  0  0
   19.5990  -57.3920   33.0360 N   0  0  0  0  0  0  0  0  0  0  0  0
   18.7090  -58.1450   33.9140 C   0  0  0  0  0  0  0  0  0  0  0  0
   19.2510  -58.6180   34.9300 O   0  0  0  0  0  0  0  0  0  0  0  0
   16.8030  -56.2120   34.8330 C   0  0  0  0  0  0  0  0  0  0  0  0
   17.2350  -55.0970   34.1560 C   0  0  0  0  0  3  0  0  0  0  0  0
   17.7220  -54.0290   34.8660 C   0  0  0  0  0  3  0  0  0  0  0  0
   17.8000  -54.0150   36.2230 C   0  0  0  0  0  0  0  0  0  0  0  0
   17.3760  -55.1140   36.9270 C   0  0  0  0  0  3  0  0  0  0  0  0
   18.4820  -52.5150   37.2060 Br  0  0  0  0  0  0  0  0  0  0  0  0
   16.8820  -56.2020   36.2060 C   0  0  0  0  0  3  0  0  0  0  0  0
  1 24  1  1  0  0  0
  2  1  1  6  0  0  0
  2 11  1  0  0  0  0
  3  2  1  0  0  0  0
  4  6  2  0  0  0  0
  4  3  1  0  0  0  0
  5  3  2  0  0  0  0
  6  8  1  0  0  0  0
  7  6  1  0  0  0  0
  7  9  1  0  0  0  0
  8 10  1  0  0  0  0
  8 11  1  0  0  0  0
  9 10  1  0  0  0  0
 11 12  2  0  0  0  0
 13 22  1  0  0  0  0
 13  1  1  6  0  0  0
 14 13  1  0  0  0  0
 15 14  2  0  0  0  0
 16 18  1  0  0  0  0
 16 14  1  0  0  0  0
 17 16  1  0  0  0  0
 18 21  2  0  0  0  0
 19 17  1  0  0  0  0
 19 20  1  0  0  0  0
 20 18  1  0  0  0  0
 21 22  1  0  0  0  0
 22 23  2  0  0  0  0
 24 30  1  0  0  0  0
 25 24  2  0  0  0  0
 25 26  1  0  0  0  0
 26 27  2  0  0  0  0
 27 28  1  0  0  0  0
 27 29  1  0  0  0  0
 30 28  2  0  0  0  0
M  END
>  <Pose>
1

>  <Score>
-7.336

$$$$
