/Users/jonathanwahrer/Desktop/Msc/3_Semester/Drug_Design_Praktikum/waehrer_HTS_screening/HTS_experiment/out/docking_results/vina_output/6s1j/1248_docked.pdbqt
 OpenBabel03222221563D

 21 24  0  0  0  0  0  0  0  0999 V2000
   19.8930  -53.8490   34.7380 S   0  0  0  0  0  0  0  0  0  0  0  0
   19.3390  -53.7290   36.3590 C   0  0  0  0  0  0  0  0  0  0  0  0
   18.2340  -54.4710   36.3110 N   0  0  0  0  0  0  0  0  0  0  0  0
   17.7380  -54.4140   37.5930 C   0  0  0  0  0  0  0  0  0  0  0  0
   18.5380  -53.6610   38.3460 N   0  0  0  0  0  0  0  0  0  0  0  0
   19.5410  -53.2190   37.6160 N   0  0  0  0  0  0  0  0  0  0  0  0
   17.9040  -55.0180   35.2120 N   0  0  0  0  0  0  0  0  0  0  0  0
   18.6370  -54.8610   34.1270 C   0  0  0  0  0  0  0  0  0  0  0  0
   18.4490  -55.3900   32.7720 C   0  0  0  0  0  0  0  0  0  0  0  0
   18.3510  -54.6800   31.6420 N   0  0  0  0  0  0  0  0  0  0  0  0
   18.1860  -55.5190   30.6070 N   0  0  0  0  0  0  0  0  0  0  0  0
   18.1780  -56.7840   31.0720 C   0  0  0  0  0  3  0  0  0  0  0  0
   18.0820  -55.2200   29.6100 H   0  0  0  0  0  0  0  0  0  0  0  0
   18.3470  -56.7000   32.4560 C   0  0  0  0  0  0  0  0  0  0  0  0
   18.4070  -58.1980   33.6000 Br  0  0  0  0  0  0  0  0  0  0  0  0
   16.5110  -55.0770   38.0800 C   0  0  0  0  0  0  0  0  0  0  0  0
   16.1530  -56.2950   37.6320 N   0  0  0  0  0  0  0  0  0  0  0  0
   15.0280  -56.8910   38.0850 C   0  0  0  0  0  3  0  0  0  0  0  0
   14.2360  -56.2630   39.0070 C   0  0  0  0  0  3  0  0  0  0  0  0
   14.6040  -55.0570   39.4420 N   0  0  0  0  0  0  0  0  0  0  0  0
   15.7230  -54.4380   39.0060 C   0  0  0  0  0  3  0  0  0  0  0  0
  1  2  1  0  0  0  0
  2  6  2  0  0  0  0
  3  2  1  0  0  0  0
  3  4  1  0  0  0  0
  4 16  1  0  0  0  0
  4  5  2  0  0  0  0
  6  5  1  0  0  0  0
  7  3  1  0  0  0  0
  8  1  1  0  0  0  0
  8  7  2  0  0  0  0
  9  8  1  0  0  0  0
 10  9  2  0  0  0  0
 11 12  1  0  0  0  0
 11 10  1  0  0  0  0
 12 14  2  0  0  0  0
 13 11  1  0  0  0  0
 14  9  1  0  0  0  0
 14 15  1  0  0  0  0
 16 21  1  0  0  0  0
 17 16  2  0  0  0  0
 17 18  1  0  0  0  0
 18 19  2  0  0  0  0
 19 20  1  0  0  0  0
 21 20  2  0  0  0  0
M  END
>  <Pose>
1

>  <Score>
-7.780

$$$$
