/Users/jonathanwahrer/Desktop/Msc/3_Semester/Drug_Design_Praktikum/waehrer_HTS_screening/HTS_experiment/out/docking_results/vina_output/6s1j/1255_docked.pdbqt
 OpenBabel03222221573D

 34 38  0  0  1  0  0  0  0  0999 V2000
   16.2590  -57.8170   34.2920 C   0  0  1  0  0  3  0  0  0  0  0  0
   17.2910  -58.9080   34.3560 C   0  0  2  0  0  3  0  0  0  0  0  0
   18.6690  -58.2710   34.1910 C   0  0  0  0  0  0  0  0  0  0  0  0
   18.9400  -57.6600   32.9090 N   0  0  0  0  0  0  0  0  0  0  0  0
   19.4480  -58.3170   35.1420 O   0  0  0  0  0  0  0  0  0  0  0  0
   18.3640  -58.1210   31.8470 C   0  0  0  0  0  0  0  0  0  0  0  0
   18.4730  -57.6100   30.1400 S   0  0  0  0  0  0  0  0  0  0  0  0
   17.4750  -59.2180   31.8630 N   0  0  0  0  0  0  0  0  0  0  0  0
   17.3510  -58.8530   29.5170 C   0  0  0  0  0  0  0  0  0  0  0  0
   16.9550  -59.5920   30.6530 N   0  0  0  0  0  0  0  0  0  0  0  0
   16.9890  -59.0170   28.2480 C   0  0  0  0  0  2  0  0  0  0  0  0
   16.2720  -60.4200   30.5230 H   0  0  0  0  0  0  0  0  0  0  0  0
   17.2360  -59.8180   33.1690 C   0  0  0  0  0  0  0  0  0  0  0  0
   17.0000  -61.0570   33.2560 O   0  0  0  0  0  0  0  0  0  0  0  0
   14.9150  -58.1170   34.8250 C   0  0  2  0  0  3  0  0  0  0  0  0
   14.6950  -59.4230   35.4270 C   0  0  0  0  0  0  0  0  0  0  0  0
   14.6740  -59.5450   36.6990 O   0  0  0  0  0  0  0  0  0  0  0  0
   14.4930  -60.6110   34.6170 N   0  0  0  0  0  0  0  0  0  0  0  0
   14.7120  -61.9060   34.9620 N   0  0  0  0  0  0  0  0  0  0  0  0
   14.0030  -60.3690   33.3180 C   0  0  0  0  0  0  0  0  0  0  0  0
   14.4280  -62.8960   33.9880 C   0  0  0  0  0  0  0  0  0  0  0  0
   15.0820  -62.2390   35.9190 H   0  0  0  0  0  0  0  0  0  0  0  0
   14.5430  -64.2040   34.0620 C   0  0  0  0  0  2  0  0  0  0  0  0
   13.8530  -61.9770   32.5620 S   0  0  0  0  0  0  0  0  0  0  0  0
   13.7430  -59.1990   32.8540 N   0  0  0  0  0  0  0  0  0  0  0  0
   13.9460  -58.0260   33.6590 C   0  0  0  0  0  0  0  0  0  0  0  0
   13.3830  -56.9380   33.4670 O   0  0  0  0  0  0  0  0  0  0  0  0
   16.7720  -56.5480   34.8820 C   0  0  0  0  0  0  0  0  0  0  0  0
   17.1160  -55.4790   34.0870 C   0  0  0  0  0  3  0  0  0  0  0  0
   17.5910  -54.3060   34.6260 C   0  0  0  0  0  3  0  0  0  0  0  0
   17.7270  -54.1930   35.9910 C   0  0  0  0  0  0  0  0  0  0  0  0
   17.3900  -55.2530   36.8340 C   0  0  0  0  0  3  0  0  0  0  0  0
   18.3840  -52.5750   36.7710 Br  0  0  0  0  0  0  0  0  0  0  0  0
   16.9170  -56.4130   36.2550 C   0  0  0  0  0  3  0  0  0  0  0  0
  1 28  1  1  0  0  0
  2  1  1  6  0  0  0
  3  2  1  0  0  0  0
  3  5  2  0  0  0  0
  4  3  1  0  0  0  0
  6  8  1  0  0  0  0
  6  4  2  0  0  0  0
  7  6  1  0  0  0  0
  8 13  1  0  0  0  0
  9  7  1  0  0  0  0
  9 10  1  0  0  0  0
 10  8  1  0  0  0  0
 11  9  2  0  0  0  0
 12 10  1  0  0  0  0
 13 14  2  0  0  0  0
 13  2  1  0  0  0  0
 15  1  1  6  0  0  0
 15 16  1  0  0  0  0
 16 17  2  0  0  0  0
 18 19  1  0  0  0  0
 18 16  1  0  0  0  0
 19 22  1  0  0  0  0
 20 18  1  0  0  0  0
 21 23  2  0  0  0  0
 21 19  1  0  0  0  0
 24 20  1  0  0  0  0
 24 21  1  0  0  0  0
 25 20  2  0  0  0  0
 25 26  1  0  0  0  0
 26 15  1  0  0  0  0
 27 26  2  0  0  0  0
 28 34  1  0  0  0  0
 29 30  1  0  0  0  0
 29 28  2  0  0  0  0
 30 31  2  0  0  0  0
 31 33  1  0  0  0  0
 31 32  1  0  0  0  0
 34 32  2  0  0  0  0
M  END
>  <Pose>
1

>  <Score>
-8.174

$$$$
