/Users/jonathanwahrer/Desktop/Msc/3_Semester/Drug_Design_Praktikum/waehrer_HTS_screening/HTS_experiment/out/docking_results/vina_output/6s1j/1256_docked.pdbqt
 OpenBabel03222221573D

 30 33  0  0  0  0  0  0  0  0999 V2000
   15.5800  -58.4230   33.3080 S   0  0  0  0  0  0  0  0  0  0  0  0
   16.7530  -57.5450   32.4220 C   0  0  0  0  0  0  0  0  0  0  0  0
   17.1050  -57.4840   31.1000 N   0  0  0  0  0  0  0  0  0  0  0  0
   18.0730  -56.6550   30.6760 C   0  0  0  0  0  0  0  0  0  0  0  0
   18.4570  -56.5320   29.4980 O   0  0  0  0  0  0  0  0  0  0  0  0
   18.6610  -55.8940   31.6590 C   0  0  0  0  0  3  0  0  0  0  0  0
   18.3170  -55.9480   32.9770 C   0  0  0  0  0  0  0  0  0  0  0  0
   17.3230  -56.8060   33.3790 N   0  0  0  0  0  0  0  0  0  0  0  0
   16.8860  -56.9370   34.5710 N   0  0  0  0  0  0  0  0  0  0  0  0
   15.9190  -57.7590   34.8660 C   0  0  0  0  0  0  0  0  0  0  0  0
   19.0260  -55.0680   33.9040 C   0  0  0  0  0  0  0  0  0  0  0  0
   19.5590  -53.9860   33.4580 O   0  0  0  0  0  0  0  0  0  0  0  0
   19.1860  -55.3130   35.2830 N   0  0  0  0  0  0  0  0  0  0  0  0
   18.8090  -56.1720   35.7270 H   0  0  0  0  0  0  0  0  0  0  0  0
   19.9050  -54.3520   36.1110 C   0  0  0  0  0  2  0  0  0  0  0  0
   18.9570  -53.4490   36.8080 C   0  0  0  0  0  0  0  0  0  0  0  0
   19.1750  -52.0800   36.7700 C   0  0  0  0  0  0  0  0  0  0  0  0
   18.3270  -51.2390   37.4460 C   0  0  0  0  0  3  0  0  0  0  0  0
   17.2600  -51.7050   38.1690 C   0  0  0  0  0  3  0  0  0  0  0  0
   17.0350  -53.0680   38.2130 C   0  0  0  0  0  0  0  0  0  0  0  0
   17.8920  -53.9140   37.5280 C   0  0  0  0  0  3  0  0  0  0  0  0
   15.5680  -53.7980   39.1920 Br  0  0  0  0  0  0  0  0  0  0  0  0
   20.2510  -51.6240   36.0410 O   0  0  0  0  0  0  0  0  0  0  0  0
   20.4690  -50.2150   35.9680 C   0  0  0  0  0  1  0  0  0  0  0  0
   15.2780  -58.0320   36.1340 N   0  0  0  0  0  0  0  0  0  0  0  0
   14.1150  -58.8320   36.1940 C   0  0  0  0  0  2  0  0  0  0  0  0
   13.5890  -58.8880   37.6090 C   0  0  0  0  0  2  0  0  0  0  0  0
   13.7110  -57.6300   38.2040 O   0  0  0  0  0  0  0  0  0  0  0  0
   15.0540  -57.3590   38.4920 C   0  0  0  0  0  2  0  0  0  0  0  0
   15.9080  -57.4370   37.2640 C   0  0  0  0  0  2  0  0  0  0  0  0
  1 10  1  0  0  0  0
  2  1  1  0  0  0  0
  2  8  1  0  0  0  0
  3  2  2  0  0  0  0
  4  3  1  0  0  0  0
  4  6  1  0  0  0  0
  5  4  2  0  0  0  0
  6  7  2  0  0  0  0
  7  8  1  0  0  0  0
  7 11  1  0  0  0  0
  8  9  1  0  0  0  0
  9 10  2  0  0  0  0
 10 25  1  0  0  0  0
 11 13  1  0  0  0  0
 12 11  2  0  0  0  0
 13 14  1  0  0  0  0
 13 15  1  0  0  0  0
 15 16  1  0  0  0  0
 16 21  1  0  0  0  0
 17 16  2  0  0  0  0
 17 18  1  0  0  0  0
 18 19  2  0  0  0  0
 19 20  1  0  0  0  0
 20 22  1  0  0  0  0
 21 20  2  0  0  0  0
 23 17  1  0  0  0  0
 24 23  1  0  0  0  0
 25 26  1  0  0  0  0
 25 30  1  0  0  0  0
 26 27  1  0  0  0  0
 27 28  1  0  0  0  0
 28 29  1  0  0  0  0
 30 29  1  0  0  0  0
M  END
>  <Pose>
1

>  <Score>
-9.647

$$$$
