/Users/jonathanwahrer/Desktop/Msc/3_Semester/Drug_Design_Praktikum/waehrer_HTS_screening/HTS_experiment/out/docking_results/vina_output/6s1j/1265_docked.pdbqt
 OpenBabel03222221573D

 24 27  0  0  1  0  0  0  0  0999 V2000
   16.2240  -56.8950   37.0160 S   0  0  0  0  0  0  0  0  0  0  0  0
   16.4290  -56.6540   35.2560 C   0  0  1  0  0  3  0  0  0  0  0  0
   16.1670  -57.1960   34.1120 N   0  0  0  0  0  0  0  0  0  0  0  0
   16.6530  -56.4120   33.0390 C   0  0  0  0  0  3  0  0  0  0  0  0
   17.2930  -55.2310   33.6940 C   0  0  0  0  0  3  0  0  0  0  0  0
   17.1160  -55.4310   35.1520 N   0  0  0  0  0  0  0  0  0  0  0  0
   17.4260  -54.7870   36.3550 C   0  0  0  0  0  0  0  0  0  0  0  0
   17.0520  -55.3770   37.4690 C   0  0  0  0  0  3  0  0  0  0  0  0
   15.4340  -58.4700   34.0150 C   0  0  0  0  0  2  0  0  0  0  0  0
   14.0030  -58.1590   34.2050 C   0  0  0  0  0  0  0  0  0  0  0  0
   13.4340  -57.2810   33.5260 O   0  0  0  0  0  0  0  0  0  0  0  0
   13.2250  -58.8810   35.2010 C   0  0  0  0  0  0  0  0  0  0  0  0
   13.5550  -58.8170   36.5560 C   0  0  0  0  0  3  0  0  0  0  0  0
   12.8390  -59.4990   37.5220 C   0  0  0  0  0  3  0  0  0  0  0  0
   11.7740  -60.2540   37.1080 C   0  0  0  0  0  0  0  0  0  0  0  0
   11.4060  -60.3490   35.7780 C   0  0  0  0  0  3  0  0  0  0  0  0
   10.7850  -61.1950   38.4560 Br  0  0  0  0  0  0  0  0  0  0  0  0
   12.1450  -59.6510   34.8220 C   0  0  0  0  0  3  0  0  0  0  0  0
   18.1380  -53.4710   36.4540 C   0  0  0  0  0  0  0  0  0  0  0  0
   17.6910  -52.4730   37.2900 C   0  0  0  0  0  3  0  0  0  0  0  0
   18.3040  -51.2440   37.4160 C   0  0  0  0  0  3  0  0  0  0  0  0
   19.4320  -50.9600   36.6810 C   0  0  0  0  0  3  0  0  0  0  0  0
   19.8950  -51.9350   35.8440 C   0  0  0  0  0  3  0  0  0  0  0  0
   19.2610  -53.1860   35.7220 C   0  0  0  0  0  3  0  0  0  0  0  0
  1  8  1  0  0  0  0
  2  1  1  6  0  0  0
  3  2  1  0  0  0  0
  4  5  2  0  0  0  0
  4  3  1  0  0  0  0
  5  6  1  0  0  0  0
  6  2  1  0  0  0  0
  6  7  1  0  0  0  0
  7 19  1  0  0  0  0
  7  8  2  0  0  0  0
  9  3  1  0  0  0  0
  9 10  1  0  0  0  0
 10 12  1  0  0  0  0
 11 10  2  0  0  0  0
 12 13  1  0  0  0  0
 13 14  2  0  0  0  0
 15 14  1  0  0  0  0
 15 17  1  0  0  0  0
 16 15  2  0  0  0  0
 18 12  2  0  0  0  0
 18 16  1  0  0  0  0
 19 20  1  0  0  0  0
 20 21  2  0  0  0  0
 22 21  1  0  0  0  0
 23 22  2  0  0  0  0
 24 23  1  0  0  0  0
 24 19  2  0  0  0  0
M  END
>  <Pose>
1

>  <Score>
-9.297

$$$$
