/Users/jonathanwahrer/Desktop/Msc/3_Semester/Drug_Design_Praktikum/waehrer_HTS_screening/HTS_experiment/out/docking_results/vina_output/6s1j/1271_docked.pdbqt
 OpenBabel03222221583D

 35 38  0  0  0  0  0  0  0  0999 V2000
   16.6700  -57.1050   35.7270 C   0  0  0  0  0  0  0  0  0  0  0  0
   17.1810  -57.9110   34.7870 N   0  0  0  0  0  0  0  0  0  0  0  0
   18.1230  -57.2310   34.1840 N   0  0  0  0  0  0  0  0  0  0  0  0
   18.2290  -56.0140   34.7110 N   0  0  0  0  0  0  0  0  0  0  0  0
   17.3430  -55.8740   35.6850 C   0  0  0  0  0  0  0  0  0  0  0  0
   15.6030  -57.4850   36.6340 C   0  0  0  0  0  0  0  0  0  0  0  0
   14.2350  -57.3340   36.3070 N   0  0  0  0  0  0  0  0  0  0  0  0
   13.9160  -56.9290   35.3860 H   0  0  0  0  0  0  0  0  0  0  0  0
   15.9110  -57.9680   37.7470 O   0  0  0  0  0  0  0  0  0  0  0  0
   13.2170  -57.7100   37.1840 N   0  0  0  0  0  0  0  0  0  0  0  0
   12.8200  -57.1150   37.9310 H   0  0  0  0  0  0  0  0  0  0  0  0
   12.6590  -59.0340   37.0480 C   0  0  0  0  0  0  0  0  0  0  0  0
   12.5380  -59.5420   35.8470 C   0  0  0  0  0  2  0  0  0  0  0  0
   12.2460  -59.7370   38.2470 C   0  0  0  0  0  0  0  0  0  0  0  0
   12.0280  -61.1130   38.2100 C   0  0  0  0  0  3  0  0  0  0  0  0
   11.6510  -61.7940   39.3420 C   0  0  0  0  0  0  0  0  0  0  0  0
   11.3480  -63.6710   39.3040 Br  0  0  0  0  0  0  0  0  0  0  0  0
   11.4740  -61.1460   40.5530 C   0  0  0  0  0  3  0  0  0  0  0  0
   11.6840  -59.8020   40.6010 C   0  0  0  0  0  3  0  0  0  0  0  0
   12.0680  -59.1160   39.4490 C   0  0  0  0  0  3  0  0  0  0  0  0
   16.9960  -54.7700   36.5510 C   0  0  0  0  0  2  0  0  0  0  0  0
   17.4190  -54.8800   37.9330 N   0  0  0  0  0  0  0  0  0  0  0  0
   18.5210  -53.9620   38.2110 C   0  0  0  0  0  2  0  0  0  0  0  0
   18.2410  -52.5710   37.6870 C   0  0  0  0  0  2  0  0  0  0  0  0
   16.9500  -52.0420   38.2860 C   0  0  0  0  0  2  0  0  0  0  0  0
   16.3520  -53.0390   39.2380 C   0  0  0  0  0  2  0  0  0  0  0  0
   16.3320  -54.4510   38.8080 C   0  0  0  0  0  2  0  0  0  0  0  0
   19.1440  -55.0380   34.2510 C   0  0  0  0  0  0  0  0  0  0  0  0
   20.0540  -54.4330   35.0640 N   0  0  0  0  0  0  0  0  0  0  0  0
   20.7300  -53.5970   34.3410 O   0  0  0  0  0  0  0  0  0  0  0  0
   20.3330  -53.6030   33.1200 N   0  0  0  0  0  0  0  0  0  0  0  0
   19.3380  -54.4940   33.0150 C   0  0  0  0  0  0  0  0  0  0  0  0
   18.6090  -54.8290   31.8640 N   0  0  0  0  0  0  0  0  0  0  0  0
   18.8790  -55.5430   31.1520 H   0  0  0  0  0  0  0  0  0  0  0  0
   17.7120  -54.3300   31.6790 H   0  0  0  0  0  0  0  0  0  0  0  0
  1  6  1  0  0  0  0
  2  1  1  0  0  0  0
  3  4  1  0  0  0  0
  3  2  2  0  0  0  0
  4  5  1  0  0  0  0
  5  1  2  0  0  0  0
  5 21  1  0  0  0  0
  6  9  2  0  0  0  0
  7  6  1  0  0  0  0
  7 10  1  0  0  0  0
  8  7  1  0  0  0  0
 10 11  1  0  0  0  0
 12 10  1  0  0  0  0
 12 14  1  0  0  0  0
 13 12  2  0  0  0  0
 14 20  1  0  0  0  0
 15 14  2  0  0  0  0
 15 16  1  0  0  0  0
 16 18  2  0  0  0  0
 17 16  1  0  0  0  0
 18 19  1  0  0  0  0
 20 19  2  0  0  0  0
 21 22  1  0  0  0  0
 22 23  1  0  0  0  0
 22 27  1  0  0  0  0
 24 23  1  0  0  0  0
 24 25  1  0  0  0  0
 25 26  1  0  0  0  0
 27 26  1  0  0  0  0
 28  4  1  0  0  0  0
 28 29  2  0  0  0  0
 30 29  1  0  0  0  0
 31 30  1  0  0  0  0
 32 31  2  0  0  0  0
 32 28  1  0  0  0  0
 33 32  1  0  0  0  0
 34 33  1  0  0  0  0
 35 33  1  0  0  0  0
M  END
>  <Pose>
1

>  <Score>
-9.292

$$$$
