/Users/jonathanwahrer/Desktop/Msc/3_Semester/Drug_Design_Praktikum/waehrer_HTS_screening/HTS_experiment/out/docking_results/vina_output/6s1j/1285_docked.pdbqt
 OpenBabel03222221593D

 34 37  0  0  1  0  0  0  0  0999 V2000
   16.0950  -58.2030   35.4320 C   0  0  1  0  0  3  0  0  0  0  0  0
   14.7810  -58.5910   34.9580 N   0  0  0  0  0  0  0  0  0  0  0  0
   14.3650  -57.6290   33.9650 C   0  0  0  0  0  0  0  0  0  0  0  0
   13.2120  -57.3450   33.6190 O   0  0  0  0  0  0  0  0  0  0  0  0
   15.6100  -57.0610   33.4570 C   0  0  0  0  0  0  0  0  0  0  0  0
   15.7670  -56.1680   32.5720 O   0  0  0  0  0  0  0  0  0  0  0  0
   16.7150  -57.7000   34.1540 C   0  0  0  0  0  0  0  0  0  0  0  0
   17.9830  -57.7840   33.7870 C   0  0  0  0  0  0  0  0  0  0  0  0
   18.8890  -58.4140   34.6870 O   0  0  0  0  0  1  0  0  0  0  0  0
   16.0900  -57.1460   36.4530 C   0  0  0  0  0  0  0  0  0  0  0  0
   16.9550  -56.0630   36.2730 C   0  0  0  0  0  3  0  0  0  0  0  0
   16.9970  -55.0510   37.1810 C   0  0  0  0  0  0  0  0  0  0  0  0
   18.1870  -53.5800   36.9150 Br  0  0  0  0  0  0  0  0  0  0  0  0
   16.1930  -55.0660   38.2940 C   0  0  0  0  0  3  0  0  0  0  0  0
   15.3300  -56.1170   38.5000 C   0  0  0  0  0  3  0  0  0  0  0  0
   15.2880  -57.1510   37.5730 C   0  0  0  0  0  3  0  0  0  0  0  0
   18.4440  -57.2710   32.5210 C   0  0  0  0  0  0  0  0  0  0  0  0
   18.3970  -57.8630   31.3090 N   0  0  0  0  0  0  0  0  0  0  0  0
   18.9100  -57.0060   30.3920 C   0  0  0  0  0  0  0  0  0  0  0  0
   17.9850  -59.0640   30.8680 C   0  0  0  0  0  3  0  0  0  0  0  0
   19.2890  -55.8560   31.0150 N   0  0  0  0  0  0  0  0  0  0  0  0
   19.0320  -57.2790   29.0540 C   0  0  0  0  0  0  0  0  0  0  0  0
   18.9980  -56.0310   32.3250 C   0  0  0  0  0  0  0  0  0  0  0  0
   19.2520  -55.0110   33.3790 C   0  0  0  0  0  1  0  0  0  0  0  0
   18.6060  -58.5120   28.6130 C   0  0  0  0  0  3  0  0  0  0  0  0
   19.6030  -56.2960   28.0890 C   0  0  0  0  0  1  0  0  0  0  0  0
   18.0850  -59.3890   29.5430 C   0  0  0  0  0  3  0  0  0  0  0  0
   14.0020  -59.7370   35.3960 C   0  0  0  0  0  2  0  0  0  0  0  0
   13.5030  -60.5990   34.2870 C   0  0  0  0  0  2  0  0  0  0  0  0
   14.5680  -61.0940   33.3410 C   0  0  0  0  0  2  0  0  0  0  0  0
   13.9730  -61.4260   32.0680 N   0  0  0  0  0  4  0  0  0  0  0  0
   14.9450  -61.2810   31.0000 C   0  0  0  0  0  1  0  0  0  0  0  0
   13.5900  -62.8240   32.0910 C   0  0  0  0  0  1  0  0  0  0  0  0
   13.1000  -60.8870   31.8810 H   0  0  0  0  0  0  0  0  0  0  0  0
  1 10  1  1  0  0  0
  2 28  1  0  0  0  0
  2  1  1  0  0  0  0
  3  2  1  0  0  0  0
  4  3  2  0  0  0  0
  5  3  1  0  0  0  0
  5  7  1  0  0  0  0
  6  5  2  0  0  0  0
  7  1  1  0  0  0  0
  8  7  2  0  0  0  0
  8  9  1  0  0  0  0
 10 16  1  0  0  0  0
 11 10  2  0  0  0  0
 11 12  1  0  0  0  0
 12 14  2  0  0  0  0
 13 12  1  0  0  0  0
 14 15  1  0  0  0  0
 16 15  2  0  0  0  0
 17  8  1  0  0  0  0
 18 17  1  0  0  0  0
 19 21  2  0  0  0  0
 19 18  1  0  0  0  0
 20 18  1  0  0  0  0
 21 23  1  0  0  0  0
 22 19  1  0  0  0  0
 23 17  2  0  0  0  0
 23 24  1  0  0  0  0
 25 22  2  0  0  0  0
 25 27  1  0  0  0  0
 26 22  1  0  0  0  0
 27 20  2  0  0  0  0
 29 28  1  0  0  0  0
 30 29  1  0  0  0  0
 31 33  1  0  0  0  0
 31 30  1  0  0  0  0
 32 31  1  0  0  0  0
 34 31  1  0  0  0  0
M  END
>  <Pose>
1

>  <Score>
-9.705

$$$$
