/Users/jonathanwahrer/Desktop/Msc/3_Semester/Drug_Design_Praktikum/waehrer_HTS_screening/HTS_experiment/out/docking_results/vina_output/6s1j/1295_docked.pdbqt
 OpenBabel03222221593D

 26 29  0  0  1  0  0  0  0  0999 V2000
   17.4740  -56.1180   36.2780 C   0  0  0  0  0  0  0  0  0  0  0  0
   17.6730  -54.7430   36.6810 C   0  0  0  0  0  0  0  0  0  0  0  0
   16.8540  -54.1480   37.5990 C   0  0  1  0  0  3  0  0  0  0  0  0
   15.7760  -54.8520   38.2280 N   0  0  0  0  0  0  0  0  0  0  0  0
   15.6110  -56.2100   37.8390 C   0  0  0  0  0  0  0  0  0  0  0  0
   16.3810  -56.8010   36.9680 C   0  0  0  0  0  0  0  0  0  0  0  0
   15.9440  -58.2250   36.8300 C   0  0  0  0  0  0  0  0  0  0  0  0
   16.5110  -59.0470   36.0490 O   0  0  0  0  0  0  0  0  0  0  0  0
   14.8930  -58.3770   37.6740 O   0  0  0  0  0  0  0  0  0  0  0  0
   14.5650  -57.1970   38.3260 C   0  0  0  0  0  2  0  0  0  0  0  0
   17.0680  -52.8380   37.9460 N   0  0  0  0  0  0  0  0  0  0  0  0
   18.0690  -52.1430   37.3950 C   0  0  0  0  0  0  0  0  0  0  0  0
   18.2490  -50.9380   37.7300 O   0  0  0  0  0  0  0  0  0  0  0  0
   18.8700  -52.7360   36.4940 N   0  0  0  0  0  0  0  0  0  0  0  0
   18.7290  -54.0010   36.1040 C   0  0  0  0  0  0  0  0  0  0  0  0
   19.4730  -54.5640   35.2620 O   0  0  0  0  0  0  0  0  0  0  0  0
   19.9510  -51.9360   35.9190 C   0  0  0  0  0  1  0  0  0  0  0  0
   16.1620  -52.2620   38.9280 C   0  0  0  0  0  1  0  0  0  0  0  0
   15.1760  -54.3640   38.9170 H   0  0  0  0  0  0  0  0  0  0  0  0
   17.4870  -56.3660   34.8400 C   0  0  0  0  0  0  0  0  0  0  0  0
   16.5490  -55.8440   34.0010 C   0  0  0  0  0  3  0  0  0  0  0  0
   16.5840  -56.1060   32.6200 C   0  0  0  0  0  3  0  0  0  0  0  0
   17.5780  -56.8980   32.1080 C   0  0  0  0  0  0  0  0  0  0  0  0
   17.6680  -57.2840   30.2260 Br  0  0  0  0  0  0  0  0  0  0  0  0
   18.5240  -57.4270   32.9370 C   0  0  0  0  0  3  0  0  0  0  0  0
   18.4780  -57.1590   34.3170 C   0  0  0  0  0  3  0  0  0  0  0  0
  1  2  2  0  0  0  0
  1  6  1  0  0  0  0
  3  2  1  1  0  0  0
  3 11  1  0  0  0  0
  3  4  1  0  0  0  0
  4 19  1  0  0  0  0
  5  4  1  0  0  0  0
  5 10  1  0  0  0  0
  6  5  2  0  0  0  0
  7  6  1  0  0  0  0
  7  9  1  0  0  0  0
  8  7  2  0  0  0  0
  9 10  1  0  0  0  0
 11 18  1  0  0  0  0
 12 13  2  0  0  0  0
 12 11  1  0  0  0  0
 14 12  1  0  0  0  0
 15 14  1  0  0  0  0
 15  2  1  0  0  0  0
 16 15  2  0  0  0  0
 17 14  1  0  0  0  0
 20  1  1  0  0  0  0
 21 20  2  0  0  0  0
 22 21  1  0  0  0  0
 23 22  2  0  0  0  0
 23 25  1  0  0  0  0
 24 23  1  0  0  0  0
 25 26  2  0  0  0  0
 26 20  1  0  0  0  0
M  END
>  <Pose>
1

>  <Score>
-9.820

$$$$
