/Users/jonathanwahrer/Desktop/Msc/3_Semester/Drug_Design_Praktikum/waehrer_HTS_screening/HTS_experiment/out/docking_results/vina_output/6s1j/1299_docked.pdbqt
 OpenBabel03222222003D

 36 39  0  0  0  0  0  0  0  0999 V2000
   17.7830  -58.6040   30.7580 C   0  0  0  0  0  0  0  0  0  0  0  0
   17.1010  -59.7560   31.0560 N   0  0  0  0  0  0  0  0  0  0  0  0
   17.2680  -60.5440   30.0140 N   0  0  0  0  0  0  0  0  0  0  0  0
   17.9910  -59.9880   29.0990 N   0  0  0  0  0  0  0  0  0  0  0  0
   18.3500  -58.7420   29.5200 C   0  0  0  0  0  0  0  0  0  0  0  0
   17.8110  -57.4960   31.7040 C   0  0  0  0  0  0  0  0  0  0  0  0
   18.8060  -57.2320   32.6720 N   0  0  0  0  0  0  0  0  0  0  0  0
   19.6650  -57.8020   32.8390 H   0  0  0  0  0  0  0  0  0  0  0  0
   16.8490  -56.6360   31.7010 O   0  0  0  0  0  0  0  0  0  0  0  0
   18.6090  -56.0720   33.4930 N   0  0  0  0  0  0  0  0  0  0  0  0
   18.5590  -56.1540   34.7660 C   0  0  0  0  0  3  0  0  0  0  0  0
   18.3570  -54.9650   35.6060 C   0  0  0  0  0  0  0  0  0  0  0  0
   19.1610  -53.8740   35.4890 C   0  0  0  0  0  3  0  0  0  0  0  0
   18.9700  -52.7560   36.2800 C   0  0  0  0  0  0  0  0  0  0  0  0
   17.9620  -52.7100   37.2110 C   0  0  0  0  0  0  0  0  0  0  0  0
   20.1130  -51.2200   36.1040 Br  0  0  0  0  0  0  0  0  0  0  0  0
   17.1450  -53.8150   37.3330 C   0  0  0  0  0  0  0  0  0  0  0  0
   15.7400  -53.7610   38.6250 Br  0  0  0  0  0  0  0  0  0  0  0  0
   17.3430  -54.9260   36.5390 C   0  0  0  0  0  3  0  0  0  0  0  0
   17.8010  -51.5700   37.9860 O   0  0  0  0  0  0  0  0  0  0  0  0
   17.6570  -51.5940   38.9800 H   0  0  0  0  0  0  0  0  0  0  0  0
   16.3720  -60.0350   32.2330 C   0  0  0  0  0  0  0  0  0  0  0  0
   16.6850  -59.7750   33.5270 N   0  0  0  0  0  0  0  0  0  0  0  0
   15.7350  -60.1990   34.2800 O   0  0  0  0  0  0  0  0  0  0  0  0
   14.7730  -60.7400   33.6030 N   0  0  0  0  0  0  0  0  0  0  0  0
   15.1390  -60.6570   32.2950 C   0  0  0  0  0  0  0  0  0  0  0  0
   14.3570  -61.1380   31.2150 N   0  0  0  0  0  0  0  0  0  0  0  0
   14.5160  -60.7270   30.2770 H   0  0  0  0  0  0  0  0  0  0  0  0
   13.6360  -61.8780   31.3070 H   0  0  0  0  0  0  0  0  0  0  0  0
   19.1550  -57.7450   28.8140 C   0  0  0  0  0  2  0  0  0  0  0  0
   20.4730  -57.5290   29.3920 N   0  0  0  0  0  0  0  0  0  0  0  0
   21.4880  -58.2090   28.5980 C   0  0  0  0  0  2  0  0  0  0  0  0
   22.0570  -57.3140   27.5340 C   0  0  0  0  0  2  0  0  0  0  0  0
   21.2310  -56.2640   27.1770 O   0  0  0  0  0  0  0  0  0  0  0  0
   20.8890  -55.4200   28.2220 C   0  0  0  0  0  2  0  0  0  0  0  0
   20.8070  -56.1340   29.5430 C   0  0  0  0  0  2  0  0  0  0  0  0
  1  2  1  0  0  0  0
  1  6  1  0  0  0  0
  2 22  1  0  0  0  0
  3  2  1  0  0  0  0
  4  5  1  0  0  0  0
  4  3  2  0  0  0  0
  5  1  2  0  0  0  0
  6  7  1  0  0  0  0
  7  8  1  0  0  0  0
  7 10  1  0  0  0  0
  9  6  2  0  0  0  0
 10 11  2  0  0  0  0
 11 12  1  0  0  0  0
 12 19  1  0  0  0  0
 13 12  2  0  0  0  0
 13 14  1  0  0  0  0
 14 15  2  0  0  0  0
 15 17  1  0  0  0  0
 15 20  1  0  0  0  0
 16 14  1  0  0  0  0
 17 18  1  0  0  0  0
 19 17  2  0  0  0  0
 20 21  1  0  0  0  0
 22 26  1  0  0  0  0
 22 23  2  0  0  0  0
 23 24  1  0  0  0  0
 25 24  1  0  0  0  0
 26 25  2  0  0  0  0
 27 29  1  0  0  0  0
 27 26  1  0  0  0  0
 28 27  1  0  0  0  0
 30 31  1  0  0  0  0
 30  5  1  0  0  0  0
 31 36  1  0  0  0  0
 32 31  1  0  0  0  0
 33 32  1  0  0  0  0
 34 33  1  0  0  0  0
 34 35  1  0  0  0  0
 35 36  1  0  0  0  0
M  END
>  <Pose>
1

>  <Score>
-8.326

$$$$
