/Users/jonathanwahrer/Desktop/Msc/3_Semester/Drug_Design_Praktikum/waehrer_HTS_screening/HTS_experiment/out/docking_results/vina_output/6s1j/1301_docked.pdbqt
 OpenBabel03222222003D

 24 27  0  0  1  0  0  0  0  0999 V2000
   16.6640  -57.0630   36.4720 N   0  0  0  0  0  0  0  0  0  0  0  0
   16.1010  -58.3010   36.8910 C   0  0  0  0  0  0  0  0  0  0  0  0
   15.8530  -58.6660   38.0610 O   0  0  0  0  0  0  0  0  0  0  0  0
   15.8310  -59.1530   35.6940 C   0  0  1  0  0  3  0  0  0  0  0  0
   14.4870  -58.8820   35.1030 C   0  0  1  0  0  0  0  0  0  0  0  0
   14.6930  -57.6820   34.3780 O   0  0  0  0  0  0  0  0  0  0  0  0
   15.7540  -58.1690   33.5730 C   0  0  1  0  0  0  0  0  0  0  0  0
   16.7420  -58.5570   34.6240 C   0  0  1  0  0  3  0  0  0  0  0  0
   17.3320  -57.3500   35.2510 C   0  0  0  0  0  0  0  0  0  0  0  0
   18.2760  -56.6870   34.7730 O   0  0  0  0  0  0  0  0  0  0  0  0
   15.0850  -59.3790   33.0050 C   0  0  0  0  0  2  0  0  0  0  0  0
   14.2680  -59.8260   33.9750 C   0  0  0  0  0  2  0  0  0  0  0  0
   16.2190  -57.1970   32.5750 C   0  0  0  0  0  1  0  0  0  0  0  0
   16.5420  -55.8290   37.1670 C   0  0  0  0  0  0  0  0  0  0  0  0
   15.5440  -55.5870   38.0890 C   0  0  0  0  0  3  0  0  0  0  0  0
   15.4260  -54.3720   38.7730 C   0  0  0  0  0  3  0  0  0  0  0  0
   16.3180  -53.3500   38.5470 C   0  0  0  0  0  0  0  0  0  0  0  0
   17.3190  -53.5760   37.6310 C   0  0  0  0  0  0  0  0  0  0  0  0
   16.1880  -52.0540   39.2760 C   0  0  0  0  0  1  0  0  0  0  0  0
   18.5730  -52.1850   37.2910 Br  0  0  0  0  0  0  0  0  0  0  0  0
   17.4320  -54.7920   36.9510 C   0  0  0  0  0  3  0  0  0  0  0  0
   13.3690  -58.8010   36.0590 C   0  0  0  0  0  2  0  0  0  0  0  0
   13.2600  -59.9530   36.8360 O   0  0  0  0  0  0  0  0  0  0  0  0
   12.4690  -60.5120   36.5950 H   0  0  0  0  0  0  0  0  0  0  0  0
  1  2  1  0  0  0  0
  1 14  1  0  0  0  0
  2  3  2  0  0  0  0
  4  2  1  1  0  0  0
  5  4  1  0  0  0  0
  5 22  1  1  0  0  0
  6  5  1  0  0  0  0
  7 13  1  6  0  0  0
  7  6  1  0  0  0  0
  7  8  1  0  0  0  0
  8  9  1  1  0  0  0
  8  4  1  0  0  0  0
  9  1  1  0  0  0  0
 10  9  2  0  0  0  0
 11  7  1  0  0  0  0
 11 12  1  0  0  0  0
 12  5  1  0  0  0  0
 14 15  1  0  0  0  0
 15 16  2  0  0  0  0
 17 16  1  0  0  0  0
 17 19  1  0  0  0  0
 18 17  2  0  0  0  0
 20 18  1  0  0  0  0
 21 14  2  0  0  0  0
 21 18  1  0  0  0  0
 22 23  1  0  0  0  0
 24 23  1  0  0  0  0
M  END
>  <Pose>
1

>  <Score>
-8.496

$$$$
