/Users/jonathanwahrer/Desktop/Msc/3_Semester/Drug_Design_Praktikum/waehrer_HTS_screening/HTS_experiment/out/docking_results/vina_output/6s1j/1314_docked.pdbqt
 OpenBabel03222222013D

 32 35  0  0  0  0  0  0  0  0999 V2000
   16.7280  -57.1110   33.1870 C   0  0  0  0  0  0  0  0  0  0  0  0
   16.9290  -57.7430   32.0720 N   0  0  0  0  0  0  0  0  0  0  0  0
   16.2310  -58.8260   32.0580 N   0  0  0  0  0  0  0  0  0  0  0  0
   15.4880  -58.9860   33.2200 N   0  0  0  0  0  0  0  0  0  0  0  0
   15.7710  -57.9290   33.9480 C   0  0  0  0  0  0  0  0  0  0  0  0
   17.4150  -56.0410   33.7890 C   0  0  0  0  0  0  0  0  0  0  0  0
   18.6930  -56.2610   34.6290 N   0  0  0  0  0  0  0  0  0  0  0  0
   19.0070  -57.2280   34.6680 H   0  0  0  0  0  0  0  0  0  0  0  0
   17.0830  -54.8630   33.7270 O   0  0  0  0  0  0  0  0  0  0  0  0
   18.9680  -55.0870   35.0900 N   0  0  0  0  0  2  0  0  0  0  0  0
   19.5340  -54.2360   35.7980 C   0  0  0  0  0  2  0  0  0  0  0  0
   18.4640  -53.4240   36.5690 C   0  0  0  0  0  0  0  0  0  0  0  0
   18.7610  -52.1050   36.8140 C   0  0  0  0  0  0  0  0  0  0  0  0
   20.2190  -51.2900   35.9340 Br  0  0  0  0  0  0  0  0  0  0  0  0
   17.9960  -51.4300   37.7710 C   0  0  0  0  0  3  0  0  0  0  0  0
   16.9480  -52.0790   38.4320 C   0  0  0  0  0  3  0  0  0  0  0  0
   16.6630  -53.3720   38.1490 C   0  0  0  0  0  3  0  0  0  0  0  0
   17.4670  -54.0580   37.1860 C   0  0  0  0  0  3  0  0  0  0  0  0
   15.2730  -57.3140   35.1750 C   0  0  0  0  0  2  0  0  0  0  0  0
   15.4880  -57.6080   36.4610 N   0  0  0  0  0  0  0  0  0  0  0  0
   14.9030  -56.5840   37.3160 C   0  0  0  0  0  2  0  0  0  0  0  0
   15.5440  -58.7700   37.1780 C   0  0  0  0  0  2  0  0  0  0  0  0
   14.1540  -57.2970   38.4010 C   0  0  0  0  0  2  0  0  0  0  0  0
   14.2930  -58.7840   38.0910 C   0  0  0  0  0  2  0  0  0  0  0  0
   14.7380  -60.1550   33.3400 C   0  0  0  0  0  0  0  0  0  0  0  0
   14.3870  -60.6710   34.5870 N   0  0  0  0  0  0  0  0  0  0  0  0
   13.8100  -61.7920   34.4100 O   0  0  0  0  0  0  0  0  0  0  0  0
   13.7260  -62.0910   33.1750 N   0  0  0  0  0  0  0  0  0  0  0  0
   14.3060  -61.0750   32.4770 C   0  0  0  0  0  0  0  0  0  0  0  0
   14.3850  -61.1310   31.0470 N   0  0  0  0  0  0  0  0  0  0  0  0
   15.0520  -60.4940   30.5890 H   0  0  0  0  0  0  0  0  0  0  0  0
   13.7600  -61.7300   30.5130 H   0  0  0  0  0  0  0  0  0  0  0  0
  1  6  1  0  0  0  0
  1  5  2  0  0  0  0
  2  1  1  0  0  0  0
  3  2  2  0  0  0  0
  3  4  1  0  0  0  0
  4 25  1  0  0  0  0
  4  5  1  0  0  0  0
  5 19  1  0  0  0  0
  6  7  1  0  0  0  0
  7  8  1  0  0  0  0
  7 10  1  0  0  0  0
  9  6  2  0  0  0  0
 10 11  1  0  0  0  0
 11 12  1  0  0  0  0
 12 13  2  0  0  0  0
 12 18  1  0  0  0  0
 13 15  1  0  0  0  0
 14 13  1  0  0  0  0
 15 16  2  0  0  0  0
 17 16  1  0  0  0  0
 18 17  2  0  0  0  0
 19 20  1  0  0  0  0
 20 22  1  0  0  0  0
 20 21  1  0  0  0  0
 21 23  1  0  0  0  0
 22 24  1  0  0  0  0
 24 23  1  0  0  0  0
 25 26  2  0  0  0  0
 27 26  1  0  0  0  0
 28 27  1  0  0  0  0
 29 28  2  0  0  0  0
 29 25  1  0  0  0  0
 30 29  1  0  0  0  0
 31 30  1  0  0  0  0
 32 30  1  0  0  0  0
M  END
>  <Pose>
1

>  <Score>
-9.095

$$$$
