/Users/jonathanwahrer/Desktop/Msc/3_Semester/Drug_Design_Praktikum/waehrer_HTS_screening/HTS_experiment/out/docking_results/vina_output/6s1j/1325_docked.pdbqt
 OpenBabel03222222013D

 31 34  0  0  1  0  0  0  0  0999 V2000
   16.2260  -56.1800   34.2970 C   0  0  1  0  0  3  0  0  0  0  0  0
   17.0020  -55.7270   35.4130 N   0  0  0  0  0  0  0  0  0  0  0  0
   17.8800  -54.7180   34.8310 C   0  0  0  0  0  0  0  0  0  0  0  0
   18.4010  -53.7560   35.4360 O   0  0  0  0  0  0  0  0  0  0  0  0
   18.0390  -55.0370   33.4240 C   0  0  0  0  0  0  0  0  0  0  0  0
   18.7110  -54.4300   32.5380 O   0  0  0  0  0  0  0  0  0  0  0  0
   17.2390  -56.2470   33.2040 C   0  0  0  0  0  0  0  0  0  0  0  0
   17.4000  -57.1080   32.2390 C   0  0  0  0  0  0  0  0  0  0  0  0
   16.5050  -58.1810   32.1470 O   0  0  0  0  0  1  0  0  0  0  0  0
   15.4100  -57.3580   34.4460 C   0  0  0  0  0  0  0  0  0  0  0  0
   14.0900  -57.3090   33.9630 C   0  0  0  0  0  3  0  0  0  0  0  0
   13.2280  -58.3730   34.0330 C   0  0  0  0  0  3  0  0  0  0  0  0
   13.6280  -59.5610   34.5920 C   0  0  0  0  0  0  0  0  0  0  0  0
   12.4500  -61.0690   34.7080 Br  0  0  0  0  0  0  0  0  0  0  0  0
   14.9170  -59.6170   35.0670 C   0  0  0  0  0  3  0  0  0  0  0  0
   15.7850  -58.5450   34.9960 C   0  0  0  0  0  3  0  0  0  0  0  0
   18.4970  -56.9800   31.2590 C   0  0  0  0  0  0  0  0  0  0  0  0
   18.4280  -56.3180   30.1090 O   0  0  0  0  0  0  0  0  0  0  0  0
   19.5570  -56.3810   29.4510 C   0  0  0  0  0  0  0  0  0  0  0  0
   20.4710  -57.1250   30.1670 C   0  0  0  0  0  0  0  0  0  0  0  0
   19.9840  -55.8640   28.2240 C   0  0  0  0  0  3  0  0  0  0  0  0
   19.7720  -57.4900   31.3050 C   0  0  0  0  0  3  0  0  0  0  0  0
   21.7410  -57.3360   29.6790 C   0  0  0  0  0  3  0  0  0  0  0  0
   22.1720  -56.8310   28.4720 C   0  0  0  0  0  3  0  0  0  0  0  0
   21.2580  -56.0850   27.7490 C   0  0  0  0  0  3  0  0  0  0  0  0
   16.9830  -56.0370   36.8250 C   0  0  0  0  0  2  0  0  0  0  0  0
   16.1740  -55.1870   37.7130 C   0  0  0  0  0  2  0  0  0  0  0  0
   16.7810  -53.9760   38.2010 N   0  0  0  0  0  4  0  0  0  0  0  0
   15.8660  -53.1650   38.9530 C   0  0  0  0  0  1  0  0  0  0  0  0
   18.0720  -54.1460   38.8040 C   0  0  0  0  0  1  0  0  0  0  0  0
   16.9640  -53.4070   37.3050 H   0  0  0  0  0  0  0  0  0  0  0  0
  1 10  1  1  0  0  0
  1  2  1  0  0  0  0
  2 26  1  0  0  0  0
  3  2  1  0  0  0  0
  3  4  2  0  0  0  0
  5  3  1  0  0  0  0
  6  5  2  0  0  0  0
  7  5  1  0  0  0  0
  7  1  1  0  0  0  0
  8  7  2  0  0  0  0
  9  8  1  0  0  0  0
 10 16  1  0  0  0  0
 11 12  1  0  0  0  0
 11 10  2  0  0  0  0
 12 13  2  0  0  0  0
 13 14  1  0  0  0  0
 13 15  1  0  0  0  0
 16 15  2  0  0  0  0
 17 22  2  0  0  0  0
 17  8  1  0  0  0  0
 18 17  1  0  0  0  0
 19 18  1  0  0  0  0
 19 20  1  0  0  0  0
 20 22  1  0  0  0  0
 21 19  2  0  0  0  0
 23 20  2  0  0  0  0
 24 23  1  0  0  0  0
 25 21  1  0  0  0  0
 25 24  2  0  0  0  0
 26 27  1  0  0  0  0
 27 28  1  0  0  0  0
 28 30  1  0  0  0  0
 28 29  1  0  0  0  0
 31 28  1  0  0  0  0
M  END
>  <Pose>
1

>  <Score>
-8.532

$$$$
