/Users/jonathanwahrer/Desktop/Msc/3_Semester/Drug_Design_Praktikum/waehrer_HTS_screening/HTS_experiment/out/docking_results/vina_output/6s1j/1329_docked.pdbqt
 OpenBabel03222222013D

 28 31  0  0  0  0  0  0  0  0999 V2000
   15.4290  -54.9450   38.6770 C   0  0  0  0  0  3  0  0  0  0  0  0
   16.3430  -54.1480   38.1210 C   0  0  0  0  0  0  0  0  0  0  0  0
   17.2000  -54.4570   37.0670 O   0  0  0  0  0  0  0  0  0  0  0  0
   17.9950  -53.3880   36.7600 C   0  0  0  0  0  0  0  0  0  0  0  0
   17.7040  -52.3150   37.5960 C   0  0  0  0  0  0  0  0  0  0  0  0
   18.4130  -51.1370   37.4230 C   0  0  0  0  0  3  0  0  0  0  0  0
   19.3760  -51.0460   36.4440 C   0  0  0  0  0  3  0  0  0  0  0  0
   19.6410  -52.1440   35.6230 C   0  0  0  0  0  0  0  0  0  0  0  0
   18.9570  -53.3210   35.7730 C   0  0  0  0  0  0  0  0  0  0  0  0
   20.6280  -51.9520   34.6680 O   0  0  0  0  0  1  0  0  0  0  0  0
   16.6320  -52.7670   38.5000 C   0  0  0  0  0  0  0  0  0  0  0  0
   16.1120  -52.0630   39.4040 O   0  0  0  0  0  0  0  0  0  0  0  0
   19.3280  -54.4670   34.9410 C   0  0  0  0  0  2  0  0  0  0  0  0
   18.2660  -55.1510   34.2980 N   0  0  0  0  0  4  0  0  0  0  0  0
   18.5000  -56.5800   34.4270 C   0  0  0  0  0  2  0  0  0  0  0  0
   18.1440  -57.3920   33.2300 C   0  0  0  0  0  2  0  0  0  0  0  0
   18.6540  -56.9130   31.9940 N   0  0  0  0  0  0  0  0  0  0  0  0
   19.1280  -55.5720   32.0960 C   0  0  0  0  0  2  0  0  0  0  0  0
   17.6540  -57.0640   30.9580 C   0  0  0  0  0  1  0  0  0  0  0  0
   18.1800  -54.7590   32.9110 C   0  0  0  0  0  2  0  0  0  0  0  0
   17.3130  -54.9120   34.7070 H   0  0  0  0  0  0  0  0  0  0  0  0
   15.2300  -56.3000   38.2020 C   0  0  0  0  0  0  0  0  0  0  0  0
   14.1230  -57.0280   38.5780 C   0  0  0  0  0  3  0  0  0  0  0  0
   13.9500  -58.3340   38.1250 C   0  0  0  0  0  0  0  0  0  0  0  0
   12.4200  -59.3480   38.6540 Br  0  0  0  0  0  0  0  0  0  0  0  0
   14.8990  -58.9050   37.2910 C   0  0  0  0  0  3  0  0  0  0  0  0
   15.9920  -58.1450   36.9400 C   0  0  0  0  0  3  0  0  0  0  0  0
   16.1770  -56.8540   37.3770 C   0  0  0  0  0  3  0  0  0  0  0  0
  2 11  1  0  0  0  0
  2  1  2  0  0  0  0
  3  2  1  0  0  0  0
  4  3  1  0  0  0  0
  4  5  1  0  0  0  0
  5 11  1  0  0  0  0
  6  5  2  0  0  0  0
  7  6  1  0  0  0  0
  8  9  1  0  0  0  0
  8  7  2  0  0  0  0
  9  4  2  0  0  0  0
 10  8  1  0  0  0  0
 11 12  2  0  0  0  0
 13  9  1  0  0  0  0
 14 15  1  0  0  0  0
 14 21  1  0  0  0  0
 14 13  1  0  0  0  0
 16 15  1  0  0  0  0
 17 18  1  0  0  0  0
 17 16  1  0  0  0  0
 18 20  1  0  0  0  0
 19 17  1  0  0  0  0
 20 14  1  0  0  0  0
 22 23  1  0  0  0  0
 22  1  1  0  0  0  0
 24 23  2  0  0  0  0
 24 25  1  0  0  0  0
 26 24  1  0  0  0  0
 27 26  2  0  0  0  0
 27 28  1  0  0  0  0
 28 22  2  0  0  0  0
M  END
>  <Pose>
1

>  <Score>
-11.242

$$$$
