/Users/jonathanwahrer/Desktop/Msc/3_Semester/Drug_Design_Praktikum/waehrer_HTS_screening/HTS_experiment/out/docking_results/vina_output/6s1j/1337_docked.pdbqt
 OpenBabel03222222023D

 32 35  0  0  1  0  0  0  0  0999 V2000
   14.9210  -58.7950   36.4100 C   0  0  2  0  0  3  0  0  0  0  0  0
   16.0490  -58.3990   35.7950 O   0  0  0  0  0  0  0  0  0  0  0  0
   16.3480  -58.9270   34.5780 C   0  0  2  0  0  3  0  0  0  0  0  0
   17.3400  -58.1240   33.9970 O   0  0  0  0  0  0  0  0  0  0  0  0
   16.7060  -57.1280   33.2940 C   0  0  0  0  0  0  0  0  0  0  0  0
   15.3560  -57.4090   33.2460 O   0  0  0  0  0  0  0  0  0  0  0  0
   15.2390  -58.7830   33.5620 C   0  0  2  0  0  3  0  0  0  0  0  0
   13.9100  -59.1220   34.1190 C   0  0  1  0  0  3  0  0  0  0  0  0
   13.4200  -60.3340   33.5810 O   0  0  0  0  0  0  0  0  0  0  0  0
   12.8670  -61.0480   34.6130 C   0  0  0  0  0  0  0  0  0  0  0  0
   13.5940  -60.6770   35.7140 O   0  0  0  0  0  0  0  0  0  0  0  0
   13.8060  -59.2980   35.5720 C   0  0  1  0  0  3  0  0  0  0  0  0
   13.0670  -62.5320   34.2830 C   0  0  0  0  0  1  0  0  0  0  0  0
   11.3810  -60.8460   34.7560 C   0  0  0  0  0  1  0  0  0  0  0  0
   17.1890  -57.0580   31.8450 C   0  0  0  0  0  1  0  0  0  0  0  0
   16.9470  -55.7510   33.8910 C   0  0  0  0  0  1  0  0  0  0  0  0
   14.4600  -57.7080   37.3130 C   0  0  0  0  0  0  0  0  0  0  0  0
   15.3020  -57.2490   38.3560 N   0  0  0  0  0  0  0  0  0  0  0  0
   16.2380  -57.6950   38.4630 H   0  0  0  0  0  0  0  0  0  0  0  0
   13.3290  -57.1650   37.1900 O   0  0  0  0  0  0  0  0  0  0  0  0
   14.9380  -56.2090   39.2710 C   0  0  0  0  0  2  0  0  0  0  0  0
   15.6230  -54.9350   38.9320 C   0  0  0  0  0  0  0  0  0  0  0  0
   16.7550  -54.8810   38.0990 N   0  0  0  0  0  0  0  0  0  0  0  0
   17.0880  -55.8290   37.7270 H   0  0  0  0  0  0  0  0  0  0  0  0
   15.1400  -53.8970   39.4260 O   0  0  0  0  0  0  0  0  0  0  0  0
   17.4910  -53.7710   37.6990 C   0  0  0  0  0  0  0  0  0  0  0  0
   18.5380  -53.9350   36.8020 C   0  0  0  0  0  3  0  0  0  0  0  0
   19.3240  -52.9010   36.3470 C   0  0  0  0  0  3  0  0  0  0  0  0
   19.0830  -51.6190   36.7880 C   0  0  0  0  0  0  0  0  0  0  0  0
   20.1920  -50.1990   36.1380 Br  0  0  0  0  0  0  0  0  0  0  0  0
   18.0680  -51.4120   37.6670 C   0  0  0  0  0  3  0  0  0  0  0  0
   17.2760  -52.4780   38.1210 C   0  0  0  0  0  3  0  0  0  0  0  0
  1 17  1  6  0  0  0
  2  1  1  0  0  0  0
  3  4  1  6  0  0  0
  3  2  1  0  0  0  0
  5 16  1  0  0  0  0
  5  4  1  0  0  0  0
  6  5  1  0  0  0  0
  7  6  1  1  0  0  0
  7  8  1  0  0  0  0
  7  3  1  0  0  0  0
  8  9  1  6  0  0  0
  8 12  1  0  0  0  0
  9 10  1  0  0  0  0
 10 14  1  0  0  0  0
 10 11  1  0  0  0  0
 12 11  1  6  0  0  0
 12  1  1  0  0  0  0
 13 10  1  0  0  0  0
 15  5  1  0  0  0  0
 17 18  1  0  0  0  0
 18 19  1  0  0  0  0
 18 21  1  0  0  0  0
 20 17  2  0  0  0  0
 22 21  1  0  0  0  0
 22 25  2  0  0  0  0
 23 22  1  0  0  0  0
 24 23  1  0  0  0  0
 26 23  1  0  0  0  0
 26 32  1  0  0  0  0
 27 26  2  0  0  0  0
 28 29  2  0  0  0  0
 28 27  1  0  0  0  0
 29 31  1  0  0  0  0
 30 29  1  0  0  0  0
 31 32  2  0  0  0  0
M  END
>  <Pose>
1

>  <Score>
-9.808

$$$$
