/Users/jonathanwahrer/Desktop/Msc/3_Semester/Drug_Design_Praktikum/waehrer_HTS_screening/HTS_experiment/out/docking_results/vina_output/6s1j/1341_docked.pdbqt
 OpenBabel03222222023D

 28 31  0  0  0  0  0  0  0  0999 V2000
   17.3260  -54.8490   36.7430 C   0  0  0  0  0  0  0  0  0  0  0  0
   16.4130  -55.2600   37.6530 N   0  0  0  0  0  0  0  0  0  0  0  0
   16.0270  -56.5140   37.3380 C   0  0  0  0  0  0  0  0  0  0  0  0
   16.6710  -56.9380   36.2300 N   0  0  0  0  0  0  0  0  0  0  0  0
   17.4690  -55.9060   35.8720 C   0  0  0  0  0  3  0  0  0  0  0  0
   15.0240  -56.9920   38.3240 C   0  0  0  0  0  3  0  0  0  0  0  0
   14.7650  -55.8480   39.2420 C   0  0  0  0  0  3  0  0  0  0  0  0
   15.7280  -54.7940   38.8380 C   0  0  0  0  0  3  0  0  0  0  0  0
   16.5550  -58.2130   35.5530 C   0  0  0  0  0  2  0  0  0  0  0  0
   17.3840  -58.2070   34.3140 C   0  0  0  0  0  0  0  0  0  0  0  0
   18.4750  -58.7790   34.3460 O   0  0  0  0  0  0  0  0  0  0  0  0
   16.8750  -57.5520   33.1910 N   0  0  0  0  0  0  0  0  0  0  0  0
   15.9160  -57.0670   33.2200 H   0  0  0  0  0  0  0  0  0  0  0  0
   17.5350  -57.4620   31.9380 C   0  0  0  0  0  0  0  0  0  0  0  0
   18.2970  -56.3210   31.6560 C   0  0  0  0  0  3  0  0  0  0  0  0
   18.9260  -56.1940   30.4590 C   0  0  0  0  0  3  0  0  0  0  0  0
   18.8350  -57.1810   29.4910 C   0  0  0  0  0  0  0  0  0  0  0  0
   18.0900  -58.2890   29.7740 C   0  0  0  0  0  3  0  0  0  0  0  0
   17.4290  -58.4490   30.9990 C   0  0  0  0  0  3  0  0  0  0  0  0
   19.5330  -57.0200   28.1900 C   0  0  0  0  0  2  0  0  0  0  0  0
   20.3340  -55.7160   28.2380 C   0  0  0  0  0  1  0  0  0  0  0  0
   18.0420  -53.5780   36.6420 C   0  0  0  0  0  0  0  0  0  0  0  0
   19.0810  -53.4180   35.7450 C   0  0  0  0  0  3  0  0  0  0  0  0
   19.7760  -52.2270   35.6310 C   0  0  0  0  0  3  0  0  0  0  0  0
   19.4590  -51.1380   36.4140 C   0  0  0  0  0  0  0  0  0  0  0  0
   20.3370  -49.6210   36.2740 Cl  0  0  0  0  0  0  0  0  0  0  0  0
   18.4250  -51.2830   37.3150 C   0  0  0  0  0  3  0  0  0  0  0  0
   17.7240  -52.4900   37.4270 C   0  0  0  0  0  3  0  0  0  0  0  0
  1  2  1  0  0  0  0
  2  8  1  0  0  0  0
  3  2  1  0  0  0  0
  3  6  2  0  0  0  0
  4  3  1  0  0  0  0
  5  4  1  0  0  0  0
  5  1  2  0  0  0  0
  6  7  1  0  0  0  0
  8  7  2  0  0  0  0
  9  4  1  0  0  0  0
 10 11  2  0  0  0  0
 10  9  1  0  0  0  0
 12 13  1  0  0  0  0
 12 10  1  0  0  0  0
 14 12  1  0  0  0  0
 15 14  1  0  0  0  0
 16 15  2  0  0  0  0
 17 18  2  0  0  0  0
 17 16  1  0  0  0  0
 18 19  1  0  0  0  0
 19 14  2  0  0  0  0
 20 21  1  0  0  0  0
 20 17  1  0  0  0  0
 22  1  1  0  0  0  0
 22 28  1  0  0  0  0
 23 22  2  0  0  0  0
 24 23  1  0  0  0  0
 24 25  2  0  0  0  0
 25 27  1  0  0  0  0
 26 25  1  0  0  0  0
 27 28  2  0  0  0  0
M  END
>  <Pose>
1

>  <Score>
-9.662

$$$$
