/Users/jonathanwahrer/Desktop/Msc/3_Semester/Drug_Design_Praktikum/waehrer_HTS_screening/HTS_experiment/out/docking_results/vina_output/6s1j/1355_docked.pdbqt
 OpenBabel03222222033D

 27 30  0  0  1  0  0  0  0  0999 V2000
   18.6110  -55.0580   32.3360 N   0  0  0  0  0  0  0  0  0  0  0  0
   18.9090  -56.0310   31.3660 C   0  0  0  0  0  0  0  0  0  0  0  0
   20.0950  -56.1950   31.0030 O   0  0  0  0  0  0  0  0  0  0  0  0
   17.6240  -54.9270   32.6350 H   0  0  0  0  0  0  0  0  0  0  0  0
   19.6510  -54.2360   32.9260 C   0  0  0  0  0  2  0  0  0  0  0  0
   19.4560  -54.1390   34.4180 C   0  0  0  0  0  0  0  0  0  0  0  0
   20.3750  -54.1490   35.3500 O   0  0  0  0  0  0  0  0  0  0  0  0
   19.8110  -54.0440   36.5350 N   0  0  0  0  0  0  0  0  0  0  0  0
   18.4790  -53.9630   36.3890 C   0  0  0  0  0  0  0  0  0  0  0  0
   18.2740  -54.0230   35.0610 N   0  0  0  0  0  0  0  0  0  0  0  0
   17.4750  -53.8380   37.4410 C   0  0  0  0  0  0  0  0  0  0  0  0
   17.2320  -52.6470   38.0910 C   0  0  0  0  0  0  0  0  0  0  0  0
   18.1760  -51.2550   37.6200 Cl  0  0  0  0  0  0  0  0  0  0  0  0
   16.2770  -52.5230   39.0950 C   0  0  0  0  0  3  0  0  0  0  0  0
   15.5300  -53.6100   39.4730 C   0  0  0  0  0  3  0  0  0  0  0  0
   15.7610  -54.8290   38.8230 C   0  0  0  0  0  3  0  0  0  0  0  0
   16.7160  -54.9140   37.8350 C   0  0  0  0  0  3  0  0  0  0  0  0
   17.8380  -56.8520   30.7810 C   0  0  1  0  0  3  0  0  0  0  0  0
   18.3860  -58.0190   29.9800 C   0  0  0  0  0  2  0  0  0  0  0  0
   17.2970  -58.9460   29.5540 C   0  0  0  0  0  2  0  0  0  0  0  0
   17.0210  -60.0720   30.4950 C   0  0  0  0  0  2  0  0  0  0  0  0
   17.3500  -59.7110   31.9410 C   0  0  0  0  0  2  0  0  0  0  0  0
   16.6190  -58.5070   32.2610 N   0  0  0  0  0  0  0  0  0  0  0  0
   15.6260  -58.4680   33.1090 N   0  0  0  0  0  0  0  0  0  0  0  0
   16.8310  -57.2820   31.7620 C   0  0  0  0  0  0  0  0  0  0  0  0
   15.1800  -57.2380   33.1760 N   0  0  0  0  0  0  0  0  0  0  0  0
   15.9090  -56.5050   32.3570 N   0  0  0  0  0  0  0  0  0  0  0  0
  1  4  1  0  0  0  0
  1  5  1  0  0  0  0
  2  1  1  0  0  0  0
  3  2  2  0  0  0  0
  5  6  1  0  0  0  0
  6 10  2  0  0  0  0
  6  7  1  0  0  0  0
  7  8  1  0  0  0  0
  9  8  2  0  0  0  0
  9 11  1  0  0  0  0
 10  9  1  0  0  0  0
 11 17  2  0  0  0  0
 11 12  1  0  0  0  0
 12 14  2  0  0  0  0
 13 12  1  0  0  0  0
 14 15  1  0  0  0  0
 16 15  2  0  0  0  0
 17 16  1  0  0  0  0
 18  2  1  1  0  0  0
 18 25  1  0  0  0  0
 19 18  1  0  0  0  0
 20 19  1  0  0  0  0
 20 21  1  0  0  0  0
 21 22  1  0  0  0  0
 22 23  1  0  0  0  0
 23 24  1  0  0  0  0
 24 26  2  0  0  0  0
 25 23  1  0  0  0  0
 25 27  2  0  0  0  0
 27 26  1  0  0  0  0
M  END
>  <Pose>
1

>  <Score>
-9.529

$$$$
