/Users/jonathanwahrer/Desktop/Msc/3_Semester/Drug_Design_Praktikum/waehrer_HTS_screening/HTS_experiment/out/docking_results/vina_output/6s1j/1360_docked.pdbqt
 OpenBabel03222222033D

 34 37  0  0  1  0  0  0  0  0999 V2000
   15.9530  -58.1980   33.0560 C   0  0  1  0  0  3  0  0  0  0  0  0
   16.5660  -59.2480   32.2840 N   0  0  0  0  0  0  0  0  0  0  0  0
   16.5740  -60.3610   33.2610 C   0  0  2  0  0  3  0  0  0  0  0  0
   17.0010  -61.5110   32.5620 N   0  0  0  0  0  0  0  0  0  0  0  0
   17.3740  -61.1050   31.2420 C   0  0  0  0  0  0  0  0  0  0  0  0
   17.1040  -59.7420   31.1010 C   0  0  0  0  0  0  0  0  0  0  0  0
   17.3900  -59.1310   29.8980 C   0  0  0  0  0  0  0  0  0  0  0  0
   17.1390  -57.9030   29.7950 O   0  0  0  0  0  0  0  0  0  0  0  0
   17.9160  -59.8500   28.8990 N   0  0  0  0  0  0  0  0  0  0  0  0
   18.1620  -61.1390   29.0610 C   0  0  0  0  0  0  0  0  0  0  0  0
   18.6580  -61.7800   28.0950 O   0  0  0  0  0  0  0  0  0  0  0  0
   17.8990  -61.8010   30.2300 N   0  0  0  0  0  0  0  0  0  0  0  0
   18.2170  -63.2110   30.2780 C   0  0  0  0  0  1  0  0  0  0  0  0
   18.2050  -59.1610   27.6370 C   0  0  0  0  0  1  0  0  0  0  0  0
   17.1000  -62.8640   33.0460 C   0  0  0  0  0  1  0  0  0  0  0  0
   15.2530  -60.2990   33.9030 C   0  0  1  0  0  3  0  0  0  0  0  0
   14.6750  -58.9460   33.4670 C   0  0  1  0  0  3  0  0  0  0  0  0
   16.7180  -57.8750   34.2390 C   0  0  2  0  0  3  0  0  0  0  0  0
   17.3500  -58.8940   34.7480 O   0  0  0  0  0  1  0  0  0  0  0  0
   16.8940  -56.6240   34.9430 C   0  0  0  0  0  0  0  0  0  0  0  0
   17.2610  -55.4570   34.3160 C   0  0  0  0  0  3  0  0  0  0  0  0
   17.4390  -54.3170   35.0600 C   0  0  0  0  0  3  0  0  0  0  0  0
   17.2570  -54.3090   36.4350 C   0  0  0  0  0  0  0  0  0  0  0  0
   17.5100  -52.7110   37.4430 Br  0  0  0  0  0  0  0  0  0  0  0  0
   16.8870  -55.4860   37.0600 C   0  0  0  0  0  3  0  0  0  0  0  0
   16.7070  -56.6340   36.3280 C   0  0  0  0  0  3  0  0  0  0  0  0
   13.9490  -58.2890   34.5500 C   0  0  0  0  0  0  0  0  0  0  0  0
   13.2050  -57.2830   34.2990 O   0  0  0  0  0  0  0  0  0  0  0  0
   14.0350  -58.7160   35.8470 O   0  0  0  0  0  0  0  0  0  0  0  0
   12.9040  -59.1720   36.5950 C   0  0  0  0  0  1  0  0  0  0  0  0
   14.3010  -61.3770   33.6680 C   0  0  0  0  0  0  0  0  0  0  0  0
   13.8990  -62.0800   34.6320 O   0  0  0  0  0  0  0  0  0  0  0  0
   13.8170  -61.6590   32.4090 O   0  0  0  0  0  0  0  0  0  0  0  0
   13.5360  -62.9820   32.0080 C   0  0  0  0  0  1  0  0  0  0  0  0
  1 17  1  0  0  0  0
  1 18  1  1  0  0  0
  2  1  1  0  0  0  0
  3  2  1  6  0  0  0
  3 16  1  0  0  0  0
  4 15  1  0  0  0  0
  4  3  1  0  0  0  0
  5  4  1  0  0  0  0
  6  5  2  0  0  0  0
  6  2  1  0  0  0  0
  7  6  1  0  0  0  0
  8  7  2  0  0  0  0
  9 10  1  0  0  0  0
  9  7  1  0  0  0  0
 10 12  1  0  0  0  0
 11 10  2  0  0  0  0
 12 13  1  0  0  0  0
 12  5  1  0  0  0  0
 14  9  1  0  0  0  0
 16 31  1  6  0  0  0
 17 16  1  0  0  0  0
 17 27  1  1  0  0  0
 18 19  1  1  0  0  0
 18 20  1  0  0  0  0
 20 26  1  0  0  0  0
 21 20  2  0  0  0  0
 21 22  1  0  0  0  0
 22 23  2  0  0  0  0
 23 25  1  0  0  0  0
 23 24  1  0  0  0  0
 26 25  2  0  0  0  0
 27 29  1  0  0  0  0
 28 27  2  0  0  0  0
 29 30  1  0  0  0  0
 31 32  2  0  0  0  0
 33 31  1  0  0  0  0
 34 33  1  0  0  0  0
M  END
>  <Pose>
1

>  <Score>
-7.628

$$$$
