/Users/jonathanwahrer/Desktop/Msc/3_Semester/Drug_Design_Praktikum/waehrer_HTS_screening/HTS_experiment/out/docking_results/vina_output/6s1j/1381_docked.pdbqt
 OpenBabel03222222043D

 31 34  0  0  0  0  0  0  0  0999 V2000
   18.1140  -55.1350   35.2290 C   0  0  0  0  0  0  0  0  0  0  0  0
   19.2890  -55.4620   35.1340 O   0  0  0  0  0  0  0  0  0  0  0  0
   17.5750  -54.7740   33.9630 O   0  0  0  0  0  0  0  0  0  0  0  0
   17.7710  -55.6590   32.8940 C   0  0  0  0  0  2  0  0  0  0  0  0
   16.9980  -56.8820   33.1850 C   0  0  0  0  0  0  0  0  0  0  0  0
   15.7010  -56.7900   33.5220 N   0  0  0  0  0  0  0  0  0  0  0  0
   14.9490  -57.8690   33.7960 C   0  0  0  0  0  0  0  0  0  0  0  0
   15.4780  -59.0960   33.7430 N   0  0  0  0  0  0  0  0  0  0  0  0
   13.6300  -57.7330   34.1360 C   0  0  0  0  0  3  0  0  0  0  0  0
   14.7240  -60.1880   34.0200 C   0  0  0  0  0  3  0  0  0  0  0  0
   16.7730  -59.2790   33.4130 C   0  0  0  0  0  0  0  0  0  0  0  0
   13.3900  -60.0720   34.3650 C   0  0  0  0  0  0  0  0  0  0  0  0
   12.3390  -61.6360   34.7530 Br  0  0  0  0  0  0  0  0  0  0  0  0
   12.8300  -58.8200   34.4250 C   0  0  0  0  0  3  0  0  0  0  0  0
   17.5420  -58.1410   33.1300 C   0  0  0  0  0  3  0  0  0  0  0  0
   17.3020  -60.4170   33.3530 O   0  0  0  0  0  0  0  0  0  0  0  0
   17.2550  -55.0720   36.3950 C   0  0  0  0  0  0  0  0  0  0  0  0
   16.5180  -56.1590   36.7730 N   0  0  0  0  0  0  0  0  0  0  0  0
   15.7290  -56.1280   37.8320 N   0  0  0  0  0  0  0  0  0  0  0  0
   15.6130  -55.0230   38.5880 C   0  0  0  0  0  0  0  0  0  0  0  0
   14.8460  -55.0040   39.6080 O   0  0  0  0  0  0  0  0  0  0  0  0
   16.3190  -53.8860   38.2750 C   0  0  0  0  0  0  0  0  0  0  0  0
   17.1470  -53.9460   37.1510 C   0  0  0  0  0  0  0  0  0  0  0  0
   16.1860  -52.7710   39.0590 C   0  0  0  0  0  3  0  0  0  0  0  0
   17.8340  -52.7890   36.8760 C   0  0  0  0  0  3  0  0  0  0  0  0
   17.7070  -51.6500   37.6650 C   0  0  0  0  0  3  0  0  0  0  0  0
   16.8820  -51.6260   38.7640 C   0  0  0  0  0  3  0  0  0  0  0  0
   14.9530  -57.2870   38.2230 C   0  0  0  0  0  2  0  0  0  0  0  0
   15.3490  -58.5270   37.4640 C   0  0  0  0  0  2  0  0  0  0  0  0
   14.3950  -59.5250   37.5390 O   0  0  0  0  0  0  0  0  0  0  0  0
   13.7200  -59.2430   38.2000 H   0  0  0  0  0  0  0  0  0  0  0  0
  1 17  1  0  0  0  0
  2  1  2  0  0  0  0
  3  1  1  0  0  0  0
  4  5  1  0  0  0  0
  4  3  1  0  0  0  0
  5  6  1  0  0  0  0
  6  7  2  0  0  0  0
  7  9  1  0  0  0  0
  8  7  1  0  0  0  0
  8 10  1  0  0  0  0
  9 14  2  0  0  0  0
 10 12  2  0  0  0  0
 11  8  1  0  0  0  0
 12 14  1  0  0  0  0
 12 13  1  0  0  0  0
 15  5  2  0  0  0  0
 15 11  1  0  0  0  0
 16 11  2  0  0  0  0
 17 18  2  0  0  0  0
 17 23  1  0  0  0  0
 18 19  1  0  0  0  0
 19 28  1  0  0  0  0
 19 20  1  0  0  0  0
 20 21  2  0  0  0  0
 22 20  1  0  0  0  0
 22 24  1  0  0  0  0
 23 22  2  0  0  0  0
 25 23  1  0  0  0  0
 25 26  2  0  0  0  0
 26 27  1  0  0  0  0
 27 24  2  0  0  0  0
 29 30  1  0  0  0  0
 29 28  1  0  0  0  0
 30 31  1  0  0  0  0
M  END
>  <Pose>
1

>  <Score>
-9.770

$$$$
