/Users/jonathanwahrer/Desktop/Msc/3_Semester/Drug_Design_Praktikum/waehrer_HTS_screening/HTS_experiment/out/docking_results/vina_output/6s1j/1386_docked.pdbqt
 OpenBabel03222222043D

 33 36  0  0  1  0  0  0  0  0999 V2000
   16.0250  -58.8610   34.4920 C   0  0  0  0  0  0  0  0  0  0  0  0
   16.5020  -60.0140   34.3840 O   0  0  0  0  0  0  0  0  0  0  0  0
   16.2930  -57.8960   33.4530 N   0  0  0  0  0  0  0  0  0  0  0  0
   17.0970  -58.2900   32.3290 C   0  0  0  0  0  2  0  0  0  0  0  0
   18.3970  -57.5160   32.4140 C   0  0  2  0  0  3  0  0  0  0  0  0
   18.2470  -56.1660   33.0150 C   0  0  2  0  0  0  0  0  0  0  0  0
   16.8720  -55.6070   33.0080 C   0  0  0  0  0  2  0  0  0  0  0  0
   15.8030  -56.5450   33.4650 C   0  0  0  0  0  2  0  0  0  0  0  0
   19.1350  -55.2080   32.2100 C   0  0  0  0  0  1  0  0  0  0  0  0
   15.2040  -58.4520   35.6380 C   0  0  0  0  0  2  0  0  0  0  0  0
   15.8850  -58.1640   36.9070 C   0  0  0  0  0  2  0  0  0  0  0  0
   16.1070  -56.7350   37.2490 C   0  0  0  0  0  0  0  0  0  0  0  0
   17.0080  -55.9130   36.6060 N   0  0  0  0  0  0  0  0  0  0  0  0
   17.0060  -54.7080   37.1940 C   0  0  0  0  0  0  0  0  0  0  0  0
   17.6990  -53.5310   36.9630 C   0  0  0  0  0  3  0  0  0  0  0  0
   16.1020  -54.7300   38.2300 C   0  0  0  0  0  0  0  0  0  0  0  0
   17.4880  -52.4200   37.7460 C   0  0  0  0  0  0  0  0  0  0  0  0
   18.4000  -50.9390   37.4090 Cl  0  0  0  0  0  0  0  0  0  0  0  0
   16.5760  -52.4590   38.7820 C   0  0  0  0  0  3  0  0  0  0  0  0
   15.8830  -53.6210   39.0200 C   0  0  0  0  0  3  0  0  0  0  0  0
   15.5840  -55.9930   38.2180 N   0  0  0  0  0  0  0  0  0  0  0  0
   14.6140  -56.4010   39.2190 C   0  0  0  0  0  1  0  0  0  0  0  0
   18.9890  -57.5020   31.0980 N   0  0  0  0  0  0  0  0  0  0  0  0
   20.3250  -57.6100   30.9540 C   0  0  0  0  0  3  0  0  0  0  0  0
   20.9320  -57.6010   29.7190 C   0  0  0  0  0  3  0  0  0  0  0  0
   20.1400  -57.4790   28.6000 C   0  0  0  0  0  0  0  0  0  0  0  0
   20.6420  -57.4640   27.4280 O   0  0  0  0  0  0  0  0  0  0  0  0
   18.8140  -57.3730   28.7740 N   0  0  0  0  0  0  0  0  0  0  0  0
   18.2490  -57.3840   29.9820 C   0  0  0  0  0  0  0  0  0  0  0  0
   18.1650  -57.2750   27.9370 H   0  0  0  0  0  0  0  0  0  0  0  0
   16.9940  -57.2810   30.0910 O   0  0  0  0  0  0  0  0  0  0  0  0
   18.7340  -56.0990   34.3310 O   0  0  0  0  0  0  0  0  0  0  0  0
   18.3350  -56.8690   34.8450 H   0  0  0  0  0  0  0  0  0  0  0  0
  1 10  1  0  0  0  0
  2  1  2  0  0  0  0
  3  8  1  0  0  0  0
  3  1  1  0  0  0  0
  4  5  1  0  0  0  0
  4  3  1  0  0  0  0
  5 23  1  6  0  0  0
  5  6  1  0  0  0  0
  6  9  1  6  0  0  0
  6 32  1  0  0  0  0
  7  6  1  0  0  0  0
  7  8  1  0  0  0  0
 10 11  1  0  0  0  0
 11 12  1  0  0  0  0
 12 21  1  0  0  0  0
 13 14  1  0  0  0  0
 13 12  2  0  0  0  0
 14 16  1  0  0  0  0
 15 14  2  0  0  0  0
 15 17  1  0  0  0  0
 16 20  2  0  0  0  0
 17 19  2  0  0  0  0
 18 17  1  0  0  0  0
 19 20  1  0  0  0  0
 21 16  1  0  0  0  0
 21 22  1  0  0  0  0
 24 23  1  0  0  0  0
 25 24  2  0  0  0  0
 26 28  1  0  0  0  0
 26 25  1  0  0  0  0
 27 26  2  0  0  0  0
 28 29  1  0  0  0  0
 29 31  2  0  0  0  0
 29 23  1  0  0  0  0
 30 28  1  0  0  0  0
 32 33  1  0  0  0  0
M  END
>  <Pose>
1

>  <Score>
-10.051

$$$$
