/Users/jonathanwahrer/Desktop/Msc/3_Semester/Drug_Design_Praktikum/waehrer_HTS_screening/HTS_experiment/out/docking_results/vina_output/6s1j/1388_docked.pdbqt
 OpenBabel03222222043D

 30 33  0  0  1  0  0  0  0  0999 V2000
   17.1420  -57.6080   33.5680 C   0  0  0  0  0  0  0  0  0  0  0  0
   17.1430  -57.8740   32.3410 O   0  0  0  0  0  0  0  0  0  0  0  0
   15.9200  -57.5440   34.2550 N   0  0  0  0  0  0  0  0  0  0  0  0
   15.8380  -57.2440   35.6630 C   0  0  0  0  0  2  0  0  0  0  0  0
   15.2760  -58.4740   36.3420 C   0  0  0  0  0  2  0  0  0  0  0  0
   14.0180  -58.9160   35.6330 C   0  0  1  0  0  0  0  0  0  0  0  0
   14.2520  -60.2370   35.0890 N   0  0  0  0  0  0  0  0  0  0  0  0
   13.1160  -60.8500   34.4950 C   0  0  0  0  0  2  0  0  0  0  0  0
   11.8100  -60.6600   35.1750 C   0  0  0  0  0  2  0  0  0  0  0  0
   11.8830  -59.9270   36.4570 C   0  0  0  0  0  0  0  0  0  0  0  0
   11.0630  -59.8980   37.5520 N   0  0  0  0  0  0  0  0  0  0  0  0
   11.6200  -59.0490   38.4250 C   0  0  0  0  0  3  0  0  0  0  0  0
   12.7550  -58.5580   37.9010 N   0  0  0  0  0  0  0  0  0  0  0  0
   12.9520  -59.0850   36.6660 C   0  0  0  0  0  0  0  0  0  0  0  0
   13.5480  -57.9810   34.5670 C   0  0  0  0  0  2  0  0  0  0  0  0
   14.6820  -57.7800   33.5570 C   0  0  0  0  0  2  0  0  0  0  0  0
   15.0040  -60.1610   34.3540 H   0  0  0  0  0  0  0  0  0  0  0  0
   10.1670  -60.4590   37.6420 H   0  0  0  0  0  0  0  0  0  0  0  0
   18.4630  -57.3790   34.2100 C   0  0  0  0  0  2  0  0  0  0  0  0
   18.4350  -56.2330   35.0940 N   0  0  0  0  0  0  0  0  0  0  0  0
   18.8680  -54.9540   34.6760 C   0  0  0  0  0  0  0  0  0  0  0  0
   19.2830  -54.8400   33.4950 O   0  0  0  0  0  0  0  0  0  0  0  0
   18.0870  -56.3520   36.0660 H   0  0  0  0  0  0  0  0  0  0  0  0
   18.8500  -53.7870   35.5460 C   0  0  0  0  0  0  0  0  0  0  0  0
   17.9240  -53.6070   36.5560 C   0  0  0  0  0  3  0  0  0  0  0  0
   17.9320  -52.4870   37.3680 C   0  0  0  0  0  0  0  0  0  0  0  0
   16.6260  -52.3230   38.7290 Br  0  0  0  0  0  0  0  0  0  0  0  0
   18.8930  -51.4920   37.1800 C   0  0  0  0  0  3  0  0  0  0  0  0
   19.8070  -51.6870   36.1690 C   0  0  0  0  0  3  0  0  0  0  0  0
   19.8050  -52.7980   35.3590 C   0  0  0  0  0  3  0  0  0  0  0  0
  1 19  1  0  0  0  0
  1  3  1  0  0  0  0
  2  1  2  0  0  0  0
  3  4  1  0  0  0  0
  4  5  1  0  0  0  0
  6 15  1  6  0  0  0
  6  5  1  0  0  0  0
  6 14  1  0  0  0  0
  7  6  1  0  0  0  0
  8  7  1  0  0  0  0
  8  9  1  0  0  0  0
  9 10  1  0  0  0  0
 10 14  2  0  0  0  0
 10 11  1  0  0  0  0
 11 18  1  0  0  0  0
 11 12  1  0  0  0  0
 13 12  2  0  0  0  0
 14 13  1  0  0  0  0
 16  3  1  0  0  0  0
 16 15  1  0  0  0  0
 17  7  1  0  0  0  0
 19 20  1  0  0  0  0
 20 23  1  0  0  0  0
 21 20  1  0  0  0  0
 21 24  1  0  0  0  0
 22 21  2  0  0  0  0
 24 25  1  0  0  0  0
 25 26  2  0  0  0  0
 26 27  1  0  0  0  0
 28 26  1  0  0  0  0
 29 28  2  0  0  0  0
 30 24  2  0  0  0  0
 30 29  1  0  0  0  0
M  END
>  <Pose>
1

>  <Score>
-9.915

$$$$
