/Users/jonathanwahrer/Desktop/Msc/3_Semester/Drug_Design_Praktikum/waehrer_HTS_screening/HTS_experiment/out/docking_results/vina_output/6s1j/1413_docked.pdbqt
 OpenBabel03222222053D

 24 27  0  0  0  0  0  0  0  0999 V2000
   15.7310  -56.9440   38.8120 C   0  0  0  0  0  2  0  0  0  0  0  0
   14.9040  -57.5590   37.7860 N   0  0  0  0  0  0  0  0  0  0  0  0
   14.9600  -57.2110   36.4900 C   0  0  0  0  0  2  0  0  0  0  0  0
   14.1490  -57.8260   35.5430 C   0  0  0  0  0  0  0  0  0  0  0  0
   13.2600  -58.8140   35.9040 C   0  0  0  0  0  0  0  0  0  0  0  0
   13.9840  -57.6930   34.2010 N   0  0  0  0  0  0  0  0  0  0  0  0
   13.1990  -59.1680   37.2090 C   0  0  0  0  0  0  0  0  0  0  0  0
   12.5880  -59.2570   34.8240 N   0  0  0  0  0  0  0  0  0  0  0  0
   11.9840  -60.5230   37.7320 Br  0  0  0  0  0  0  0  0  0  0  0  0
   14.0280  -58.5290   38.1290 C   0  0  0  0  0  3  0  0  0  0  0  0
   13.0710  -58.5390   33.8140 N   0  0  0  0  0  0  0  0  0  0  0  0
   11.5870  -60.2450   34.6810 C   0  0  0  0  0  1  0  0  0  0  0  0
   15.4160  -55.5430   39.0770 C   0  0  0  0  0  0  0  0  0  0  0  0
   14.3710  -55.3220   39.7610 O   0  0  0  0  0  0  0  0  0  0  0  0
   16.1830  -54.3840   38.6320 C   0  0  0  0  0  0  0  0  0  0  0  0
   17.2550  -54.5760   37.8070 C   0  0  0  0  0  3  0  0  0  0  0  0
   17.9980  -53.5070   37.3790 C   0  0  0  0  0  0  0  0  0  0  0  0
   17.7010  -52.2100   37.7560 C   0  0  0  0  0  0  0  0  0  0  0  0
   19.0790  -53.7260   36.5430 C   0  0  0  0  0  3  0  0  0  0  0  0
   16.6030  -52.0490   38.5980 C   0  0  0  0  0  3  0  0  0  0  0  0
   18.4330  -51.1180   37.3380 C   0  0  0  0  0  3  0  0  0  0  0  0
   15.8590  -53.1130   39.0270 C   0  0  0  0  0  3  0  0  0  0  0  0
   19.5070  -51.3510   36.5060 C   0  0  0  0  0  3  0  0  0  0  0  0
   19.8130  -52.6410   36.1230 C   0  0  0  0  0  3  0  0  0  0  0  0
  1 13  1  0  0  0  0
  2 10  1  0  0  0  0
  2  1  1  0  0  0  0
  3  2  1  0  0  0  0
  4  5  2  0  0  0  0
  4  3  1  0  0  0  0
  5  7  1  0  0  0  0
  6  4  1  0  0  0  0
  7  9  1  0  0  0  0
  7 10  2  0  0  0  0
  8  5  1  0  0  0  0
 11  6  2  0  0  0  0
 11  8  1  0  0  0  0
 12  8  1  0  0  0  0
 13 14  2  0  0  0  0
 15 22  1  0  0  0  0
 15 13  1  0  0  0  0
 16 15  2  0  0  0  0
 17 18  1  0  0  0  0
 17 16  1  0  0  0  0
 18 20  1  0  0  0  0
 19 17  2  0  0  0  0
 20 22  2  0  0  0  0
 21 18  2  0  0  0  0
 23 21  1  0  0  0  0
 24 23  2  0  0  0  0
 24 19  1  0  0  0  0
M  END
>  <Pose>
1

>  <Score>
-10.542

$$$$
