/Users/jonathanwahrer/Desktop/Msc/3_Semester/Drug_Design_Praktikum/waehrer_HTS_screening/HTS_experiment/out/docking_results/vina_output/6s1j/1432_docked.pdbqt
 OpenBabel03222222053D

 21 24  0  0  0  0  0  0  0  0999 V2000
   15.4770  -55.4430   38.7390 C   0  0  0  0  0  0  0  0  0  0  0  0
   15.3870  -54.1480   39.0870 N   0  0  0  0  0  0  0  0  0  0  0  0
   16.3590  -53.4320   38.4970 N   0  0  0  0  0  0  0  0  0  0  0  0
   17.0840  -54.2890   37.7560 C   0  0  0  0  0  0  0  0  0  0  0  0
   16.5400  -55.5110   37.9090 N   0  0  0  0  0  0  0  0  0  0  0  0
   18.1530  -53.7780   37.0450 C   0  0  0  0  0  0  0  0  0  0  0  0
   18.4860  -52.4370   37.0790 C   0  0  0  0  0  0  0  0  0  0  0  0
   19.5660  -52.2040   36.3020 N   0  0  0  0  0  0  0  0  0  0  0  0
   19.9020  -53.3730   35.7910 N   0  0  0  0  0  0  0  0  0  0  0  0
   19.0810  -54.3540   36.2100 C   0  0  0  0  0  3  0  0  0  0  0  0
   20.2070  -50.9080   36.0900 C   0  0  0  0  0  1  0  0  0  0  0  0
   17.7180  -51.6390   37.8400 N   0  0  0  0  0  0  0  0  0  0  0  0
   16.6760  -52.1240   38.5350 C   0  0  0  0  0  3  0  0  0  0  0  0
   14.6120  -56.5800   39.1580 C   0  0  0  0  0  2  0  0  0  0  0  0
   14.1070  -57.3210   38.0130 N   0  0  0  0  0  0  0  0  0  0  0  0
   13.1800  -58.3000   38.0310 C   0  0  0  0  0  3  0  0  0  0  0  0
   12.9840  -58.7410   36.7240 C   0  0  0  0  0  0  0  0  0  0  0  0
   11.8030  -60.1040   36.1070 Br  0  0  0  0  0  0  0  0  0  0  0  0
   13.8280  -57.9870   35.9370 C   0  0  0  0  0  0  0  0  0  0  0  0
   14.4900  -57.1400   36.7490 N   0  0  0  0  0  0  0  0  0  0  0  0
   13.9330  -58.1390   34.4670 C   0  0  0  0  0  1  0  0  0  0  0  0
  1  2  2  0  0  0  0
  1 14  1  0  0  0  0
  3 13  1  0  0  0  0
  3  2  1  0  0  0  0
  4  5  2  0  0  0  0
  4  3  1  0  0  0  0
  5  1  1  0  0  0  0
  6  7  2  0  0  0  0
  6  4  1  0  0  0  0
  7 12  1  0  0  0  0
  8  7  1  0  0  0  0
  9 10  2  0  0  0  0
  9  8  1  0  0  0  0
 10  6  1  0  0  0  0
 11  8  1  0  0  0  0
 12 13  2  0  0  0  0
 15 16  1  0  0  0  0
 15 14  1  0  0  0  0
 17 16  2  0  0  0  0
 18 17  1  0  0  0  0
 19 17  1  0  0  0  0
 19 20  2  0  0  0  0
 20 15  1  0  0  0  0
 21 19  1  0  0  0  0
M  END
>  <Pose>
1

>  <Score>
-8.116

$$$$
