/Users/jonathanwahrer/Desktop/Msc/3_Semester/Drug_Design_Praktikum/waehrer_HTS_screening/HTS_experiment/out/docking_results/vina_output/6s1j/1435_docked.pdbqt
 OpenBabel03222222063D

 32 35  0  0  0  0  0  0  0  0999 V2000
   16.8530  -56.7020   32.9880 C   0  0  0  0  0  2  0  0  0  0  0  0
   18.2530  -57.2640   32.7820 C   0  0  0  0  0  2  0  0  0  0  0  0
   18.5120  -57.5360   31.3880 N   0  0  0  0  0  0  0  0  0  0  0  0
   18.0750  -58.5690   30.6280 C   0  0  0  0  0  0  0  0  0  0  0  0
   16.9560  -59.9620   31.3010 Br  0  0  0  0  0  0  0  0  0  0  0  0
   18.5420  -58.4580   29.3710 N   0  0  0  0  0  0  0  0  0  0  0  0
   19.2980  -57.3380   29.2890 C   0  0  0  0  0  0  0  0  0  0  0  0
   19.2640  -56.7850   30.5530 C   0  0  0  0  0  0  0  0  0  0  0  0
   19.9840  -56.7770   28.2670 N   0  0  0  0  0  0  0  0  0  0  0  0
   19.9630  -55.6090   30.7650 C   0  0  0  0  0  0  0  0  0  0  0  0
   20.6410  -55.0610   29.7460 N   0  0  0  0  0  0  0  0  0  0  0  0
   19.9230  -55.1200   31.9160 O   0  0  0  0  0  0  0  0  0  0  0  0
   20.6520  -55.6360   28.5120 C   0  0  0  0  0  0  0  0  0  0  0  0
   21.1730  -54.1720   29.8970 H   0  0  0  0  0  0  0  0  0  0  0  0
   21.3130  -55.0570   27.6100 O   0  0  0  0  0  0  0  0  0  0  0  0
   20.0100  -57.3730   26.9450 C   0  0  0  0  0  1  0  0  0  0  0  0
   16.2650  -57.1780   34.2900 C   0  0  0  0  0  2  0  0  0  0  0  0
   17.2340  -57.2410   35.4320 C   0  0  0  0  0  2  0  0  0  0  0  0
   16.9040  -56.2690   36.4210 N   0  0  0  0  0  0  0  0  0  0  0  0
   17.3290  -55.0180   36.5890 C   0  0  0  0  0  0  0  0  0  0  0  0
   16.6760  -54.4680   37.6860 C   0  0  0  0  0  0  0  0  0  0  0  0
   18.2340  -54.2220   35.9380 C   0  0  0  0  0  0  0  0  0  0  0  0
   15.8720  -55.4230   38.1440 N   0  0  0  0  0  0  0  0  0  0  0  0
   16.9280  -53.2140   38.0750 N   0  0  0  0  0  0  0  0  0  0  0  0
   15.9940  -56.5200   37.3950 C   0  0  0  0  0  0  0  0  0  0  0  0
   15.0250  -58.1340   37.6950 Br  0  0  0  0  0  0  0  0  0  0  0  0
   17.8220  -52.4510   37.4160 C   0  0  0  0  0  0  0  0  0  0  0  0
   16.2570  -52.6120   39.2210 C   0  0  0  0  0  1  0  0  0  0  0  0
   18.0530  -51.2740   37.7880 O   0  0  0  0  0  0  0  0  0  0  0  0
   18.4580  -52.9690   36.3610 N   0  0  0  0  0  0  0  0  0  0  0  0
   19.1690  -52.4030   35.8150 H   0  0  0  0  0  0  0  0  0  0  0  0
   18.8390  -54.6880   34.9520 O   0  0  0  0  0  0  0  0  0  0  0  0
  1 17  1  0  0  0  0
  2  1  1  0  0  0  0
  3  2  1  0  0  0  0
  4  5  1  0  0  0  0
  4  3  1  0  0  0  0
  6  4  2  0  0  0  0
  7  6  1  0  0  0  0
  7  8  2  0  0  0  0
  8 10  1  0  0  0  0
  8  3  1  0  0  0  0
  9 13  1  0  0  0  0
  9  7  1  0  0  0  0
 10 12  2  0  0  0  0
 11 14  1  0  0  0  0
 11 10  1  0  0  0  0
 13 11  1  0  0  0  0
 15 13  2  0  0  0  0
 16  9  1  0  0  0  0
 17 18  1  0  0  0  0
 18 19  1  0  0  0  0
 19 20  1  0  0  0  0
 19 25  1  0  0  0  0
 20 21  2  0  0  0  0
 21 24  1  0  0  0  0
 21 23  1  0  0  0  0
 22 30  1  0  0  0  0
 22 20  1  0  0  0  0
 24 28  1  0  0  0  0
 25 26  1  0  0  0  0
 25 23  2  0  0  0  0
 27 29  2  0  0  0  0
 27 24  1  0  0  0  0
 30 27  1  0  0  0  0
 31 30  1  0  0  0  0
 32 22  2  0  0  0  0
M  END
>  <Pose>
1

>  <Score>
-8.902

$$$$
