/Users/jonathanwahrer/Desktop/Msc/3_Semester/Drug_Design_Praktikum/waehrer_HTS_screening/HTS_experiment/out/docking_results/vina_output/6s1j/1444_docked.pdbqt
 OpenBabel03222222073D

 33 36  0  0  0  0  0  0  0  0999 V2000
   18.9750  -56.6200   34.1930 N   0  0  0  0  0  0  0  0  0  0  0  0
   17.9630  -57.2490   34.8450 C   0  0  0  0  0  0  0  0  0  0  0  0
   18.2470  -58.5940   34.8570 O   0  0  0  0  0  0  0  0  0  0  0  0
   19.7690  -57.3410   33.8560 H   0  0  0  0  0  0  0  0  0  0  0  0
   16.7030  -57.0040   35.5290 C   0  0  0  0  0  2  0  0  0  0  0  0
   15.4430  -57.4760   35.1440 N   0  0  0  0  0  0  0  0  0  0  0  0
   14.9170  -57.3360   33.7600 C   0  0  0  0  0  2  0  0  0  0  0  0
   13.4390  -57.6400   33.8830 C   0  0  0  0  0  2  0  0  0  0  0  0
   13.2760  -59.0750   34.3090 C   0  0  0  0  0  2  0  0  0  0  0  0
   13.7660  -59.2340   35.7330 C   0  0  0  0  0  2  0  0  0  0  0  0
   14.5680  -58.0410   36.1300 C   0  0  0  0  0  0  0  0  0  0  0  0
   14.3880  -57.4780   37.3270 C   0  0  0  0  0  0  0  0  0  0  0  0
   13.5150  -58.0670   38.3070 N   0  0  0  0  0  0  0  0  0  0  0  0
   14.8500  -56.2930   37.8910 N   0  0  0  0  0  0  0  0  0  0  0  0
   13.4620  -57.2370   39.4420 N   0  0  0  0  0  0  0  0  0  0  0  0
   12.9670  -58.9480   38.2980 H   0  0  0  0  0  0  0  0  0  0  0  0
   14.2910  -56.1210   39.2050 C   0  0  0  0  0  0  0  0  0  0  0  0
   12.9160  -57.3890   40.3260 H   0  0  0  0  0  0  0  0  0  0  0  0
   14.5360  -55.1410   39.9440 O   0  0  0  0  0  0  0  0  0  0  0  0
   15.4820  -55.6110   37.4390 H   0  0  0  0  0  0  0  0  0  0  0  0
   19.2810  -55.3440   33.7350 C   0  0  0  0  0  0  0  0  0  0  0  0
   19.7690  -54.3040   34.4760 N   0  0  0  0  0  0  0  0  0  0  0  0
   19.9870  -53.2760   33.6650 N   0  0  0  0  0  0  0  0  0  0  0  0
   19.6700  -53.5720   32.4160 C   0  0  0  0  0  3  0  0  0  0  0  0
   19.2140  -54.8980   32.4350 C   0  0  0  0  0  3  0  0  0  0  0  0
   19.9910  -54.3390   35.8790 C   0  0  0  0  0  2  0  0  0  0  0  0
   19.0250  -53.5550   36.6700 C   0  0  0  0  0  0  0  0  0  0  0  0
   19.1030  -52.2040   36.8430 C   0  0  0  0  0  0  0  0  0  0  0  0
   20.4080  -51.3070   36.1020 Cl  0  0  0  0  0  0  0  0  0  0  0  0
   18.1710  -51.5240   37.5930 C   0  0  0  0  0  3  0  0  0  0  0  0
   17.1260  -52.1870   38.1960 C   0  0  0  0  0  3  0  0  0  0  0  0
   17.0380  -53.5520   38.0280 C   0  0  0  0  0  3  0  0  0  0  0  0
   17.9760  -54.2110   37.2760 C   0  0  0  0  0  3  0  0  0  0  0  0
  1  2  1  0  0  0  0
  2  3  2  0  0  0  0
  2  5  1  0  0  0  0
  4  1  1  0  0  0  0
  6  5  1  0  0  0  0
  6 11  1  0  0  0  0
  7  8  1  0  0  0  0
  7  6  1  0  0  0  0
  8  9  1  0  0  0  0
  9 10  1  0  0  0  0
 10 11  1  0  0  0  0
 11 12  2  0  0  0  0
 12 14  1  0  0  0  0
 12 13  1  0  0  0  0
 13 15  1  0  0  0  0
 14 17  1  0  0  0  0
 15 18  1  0  0  0  0
 16 13  1  0  0  0  0
 17 15  1  0  0  0  0
 17 19  2  0  0  0  0
 20 14  1  0  0  0  0
 21  1  1  0  0  0  0
 21 22  1  0  0  0  0
 22 26  1  0  0  0  0
 23 22  1  0  0  0  0
 24 25  1  0  0  0  0
 24 23  2  0  0  0  0
 25 21  2  0  0  0  0
 26 27  1  0  0  0  0
 27 28  2  0  0  0  0
 27 33  1  0  0  0  0
 28 30  1  0  0  0  0
 29 28  1  0  0  0  0
 30 31  2  0  0  0  0
 32 31  1  0  0  0  0
 33 32  2  0  0  0  0
M  END
>  <Pose>
1

>  <Score>
-10.285

$$$$
