/Users/jonathanwahrer/Desktop/Msc/3_Semester/Drug_Design_Praktikum/waehrer_HTS_screening/HTS_experiment/out/docking_results/vina_output/6s1j/1466_docked.pdbqt
 OpenBabel03222222073D

 29 32  0  0  0  0  0  0  0  0999 V2000
   14.7620  -57.7450   37.4600 N   0  0  0  0  0  0  0  0  0  0  0  0
   15.7220  -58.6370   37.6430 N   0  0  0  0  0  0  0  0  0  0  0  0
   16.4460  -58.7730   36.5400 N   0  0  0  0  0  0  0  0  0  0  0  0
   15.9640  -57.9550   35.5900 C   0  0  0  0  0  0  0  0  0  0  0  0
   14.9020  -57.3110   36.1790 C   0  0  0  0  0  3  0  0  0  0  0  0
   13.7440  -57.2980   38.4180 C   0  0  0  0  0  2  0  0  0  0  0  0
   14.3940  -56.2080   39.2400 C   0  0  0  0  0  2  0  0  0  0  0  0
   15.4960  -55.5990   38.5110 N   0  0  0  0  0  0  0  0  0  0  0  0
   15.7750  -54.2260   38.7470 C   0  0  0  0  0  0  0  0  0  0  0  0
   15.0640  -53.5710   39.5790 O   0  0  0  0  0  0  0  0  0  0  0  0
   16.0660  -56.1460   37.8360 H   0  0  0  0  0  0  0  0  0  0  0  0
   16.8520  -53.5170   38.0730 C   0  0  0  0  0  0  0  0  0  0  0  0
   17.0640  -52.1930   38.3340 C   0  0  0  0  0  3  0  0  0  0  0  0
   18.0320  -51.4500   37.7650 N   0  0  0  0  0  0  0  0  0  0  0  0
   18.8570  -52.0410   36.8690 C   0  0  0  0  0  3  0  0  0  0  0  0
   18.6970  -53.3730   36.5600 C   0  0  0  0  0  0  0  0  0  0  0  0
   19.8840  -54.1650   35.2910 Br  0  0  0  0  0  0  0  0  0  0  0  0
   17.6890  -54.1280   37.1600 C   0  0  0  0  0  3  0  0  0  0  0  0
   16.4550  -57.7850   34.2340 C   0  0  0  0  0  0  0  0  0  0  0  0
   17.6440  -57.2830   33.8570 N   0  0  0  0  0  0  0  0  0  0  0  0
   17.7230  -57.2890   32.5160 C   0  0  0  0  0  0  0  0  0  0  0  0
   16.5610  -57.8040   32.0850 N   0  0  0  0  0  0  0  0  0  0  0  0
   15.8350  -58.0860   33.1230 O   0  0  0  0  0  0  0  0  0  0  0  0
   18.8560  -56.8240   31.6870 C   0  0  0  0  0  0  0  0  0  0  0  0
   19.4820  -57.7000   30.8310 C   0  0  0  0  0  3  0  0  0  0  0  0
   20.5140  -57.2880   30.0700 N   0  0  0  0  0  0  0  0  0  0  0  0
   20.9880  -56.0260   30.0960 C   0  0  0  0  0  3  0  0  0  0  0  0
   20.3520  -55.1530   30.9580 C   0  0  0  0  0  3  0  0  0  0  0  0
   19.2990  -55.5310   31.7500 C   0  0  0  0  0  3  0  0  0  0  0  0
  1  2  1  0  0  0  0
  1  6  1  0  0  0  0
  3  2  2  0  0  0  0
  4  5  2  0  0  0  0
  4  3  1  0  0  0  0
  5  1  1  0  0  0  0
  6  7  1  0  0  0  0
  8  9  1  0  0  0  0
  8  7  1  0  0  0  0
  9 10  2  0  0  0  0
 11  8  1  0  0  0  0
 12 13  1  0  0  0  0
 12  9  1  0  0  0  0
 14 13  2  0  0  0  0
 15 14  1  0  0  0  0
 16 15  2  0  0  0  0
 16 18  1  0  0  0  0
 17 16  1  0  0  0  0
 18 12  2  0  0  0  0
 19  4  1  0  0  0  0
 20 19  2  0  0  0  0
 21 20  1  0  0  0  0
 22 21  2  0  0  0  0
 22 23  1  0  0  0  0
 23 19  1  0  0  0  0
 24 29  1  0  0  0  0
 24 21  1  0  0  0  0
 25 24  2  0  0  0  0
 26 27  2  0  0  0  0
 26 25  1  0  0  0  0
 27 28  1  0  0  0  0
 28 29  2  0  0  0  0
M  END
>  <Pose>
1

>  <Score>
-8.841

$$$$
