/Users/jonathanwahrer/Desktop/Msc/3_Semester/Drug_Design_Praktikum/waehrer_HTS_screening/HTS_experiment/out/docking_results/vina_output/6s1j/1491_docked.pdbqt
 OpenBabel03222222093D

 34 38  0  0  0  0  0  0  0  0999 V2000
   20.8140  -53.9290   32.5090 F   0  0  0  0  0  0  0  0  0  0  0  0
   19.8760  -54.4770   33.3020 C   0  0  0  0  0  0  0  0  0  0  0  0
   19.8160  -53.9230   34.5780 C   0  0  0  0  0  3  0  0  0  0  0  0
   18.8970  -54.3800   35.4960 C   0  0  0  0  0  0  0  0  0  0  0  0
   18.0490  -55.3910   35.1130 C   0  0  0  0  0  0  0  0  0  0  0  0
   18.1230  -55.9310   33.8330 C   0  0  0  0  0  3  0  0  0  0  0  0
   19.0330  -55.4860   32.9120 C   0  0  0  0  0  0  0  0  0  0  0  0
   17.1570  -55.8220   36.0280 N   0  0  0  0  0  0  0  0  0  0  0  0
   17.0800  -55.3030   37.2660 C   0  0  0  0  0  3  0  0  0  0  0  0
   17.9160  -54.2900   37.6810 C   0  0  0  0  0  0  0  0  0  0  0  0
   18.8420  -53.8190   36.7800 C   0  0  0  0  0  0  0  0  0  0  0  0
   19.6320  -52.8980   37.0920 O   0  0  0  0  0  0  0  0  0  0  0  0
   19.0830  -56.0590   31.6410 N   0  0  0  0  0  4  0  0  0  0  0  0
   17.8090  -56.2990   31.0140 C   0  0  0  0  0  2  0  0  0  0  0  0
   18.0230  -56.7930   29.5640 C   0  0  0  0  0  2  0  0  0  0  0  0
   18.6940  -58.0270   29.6810 N   0  0  0  0  0  0  0  0  0  0  0  0
   20.1020  -57.8080   30.1950 C   0  0  0  0  0  2  0  0  0  0  0  0
   18.3210  -59.3130   29.4820 C   0  0  0  0  0  0  0  0  0  0  0  0
   19.8690  -57.2470   31.5640 C   0  0  0  0  0  2  0  0  0  0  0  0
   19.2740  -60.2030   29.6260 O   0  0  0  0  0  0  0  0  0  0  0  0
   19.5710  -55.3480   31.0140 H   0  0  0  0  0  0  0  0  0  0  0  0
   17.0530  -59.8900   29.1340 C   0  0  0  0  0  0  0  0  0  0  0  0
   16.3880  -60.7960   29.8960 C   0  0  0  0  0  3  0  0  0  0  0  0
   15.1360  -61.2860   29.5470 C   0  0  0  0  0  0  0  0  0  0  0  0
   14.5450  -60.8460   28.3910 C   0  0  0  0  0  3  0  0  0  0  0  0
   14.3090  -62.4610   30.5720 Cl  0  0  0  0  0  0  0  0  0  0  0  0
   15.1710  -59.9370   27.5860 C   0  0  0  0  0  3  0  0  0  0  0  0
   16.3970  -59.4740   27.9560 C   0  0  0  0  0  3  0  0  0  0  0  0
   16.2590  -56.9020   35.6010 C   0  0  0  0  0  3  0  0  0  0  0  0
   15.3550  -57.5540   36.5530 C   0  0  0  0  0  2  0  0  0  0  0  0
   16.5890  -58.2830   36.2590 C   0  0  0  0  0  2  0  0  0  0  0  0
   17.8190  -53.7320   39.0440 C   0  0  0  0  0  0  0  0  0  0  0  0
   18.5860  -54.0710   39.9590 O   0  0  0  0  0  1  0  0  0  0  0  0
   16.8370  -52.8000   39.2920 O   0  0  0  0  0  0  0  0  0  0  0  0
  1  2  1  0  0  0  0
  2  3  1  0  0  0  0
  3  4  2  0  0  0  0
  4 11  1  0  0  0  0
  5  4  1  0  0  0  0
  5  8  1  0  0  0  0
  6  5  2  0  0  0  0
  7  2  2  0  0  0  0
  7  6  1  0  0  0  0
  8  9  1  0  0  0  0
  9 10  2  0  0  0  0
 10 32  1  0  0  0  0
 11 12  2  0  0  0  0
 11 10  1  0  0  0  0
 13  7  1  0  0  0  0
 14 13  1  0  0  0  0
 15 16  1  0  0  0  0
 15 14  1  0  0  0  0
 16 17  1  0  0  0  0
 17 19  1  0  0  0  0
 18 20  2  0  0  0  0
 18 16  1  0  0  0  0
 19 13  1  0  0  0  0
 21 13  1  0  0  0  0
 22 18  1  0  0  0  0
 22 23  1  0  0  0  0
 24 23  2  0  0  0  0
 24 26  1  0  0  0  0
 25 24  1  0  0  0  0
 27 28  1  0  0  0  0
 27 25  2  0  0  0  0
 28 22  2  0  0  0  0
 29  8  1  0  0  0  0
 29 31  1  0  0  0  0
 29 30  1  0  0  0  0
 31 30  1  0  0  0  0
 32 34  2  0  0  0  0
 32 33  1  0  0  0  0
M  END
>  <Pose>
1

>  <Score>
-9.431

$$$$
