/Users/jonathanwahrer/Desktop/Msc/3_Semester/Drug_Design_Praktikum/waehrer_HTS_screening/HTS_experiment/out/docking_results/vina_output/6s1j/1506_docked.pdbqt
 OpenBabel03222222093D

 32 35  0  0  1  0  0  0  0  0999 V2000
   13.7500  -57.1460   37.1450 N   0  0  0  0  0  0  0  0  0  0  0  0
   13.8560  -58.5070   36.6800 C   0  0  0  0  0  0  0  0  0  0  0  0
   13.8060  -59.4320   37.5050 O   0  0  0  0  0  0  0  0  0  0  0  0
   13.7690  -56.4420   36.4120 H   0  0  0  0  0  0  0  0  0  0  0  0
   14.0220  -58.8240   35.2420 C   0  0  2  0  0  3  0  0  0  0  0  0
   15.4460  -59.2850   35.0260 C   0  0  0  0  0  2  0  0  0  0  0  0
   16.3360  -58.0700   35.1690 C   0  0  0  0  0  2  0  0  0  0  0  0
   16.0660  -57.2450   33.9960 N   0  0  0  0  0  0  0  0  0  0  0  0
   14.7510  -57.1850   33.4540 C   0  0  0  0  0  2  0  0  0  0  0  0
   13.6730  -57.7010   34.3370 C   0  0  0  0  0  2  0  0  0  0  0  0
   17.1500  -56.5270   33.4400 C   0  0  0  0  0  0  0  0  0  0  0  0
   17.7400  -56.8730   32.2800 N   0  0  0  0  0  0  0  0  0  0  0  0
   18.7530  -56.2150   31.7490 N   0  0  0  0  0  0  0  0  0  0  0  0
   19.4490  -56.4060   30.6330 N   0  0  0  0  0  0  0  0  0  0  0  0
   19.2860  -55.1330   32.3270 C   0  0  0  0  0  0  0  0  0  0  0  0
   20.3760  -55.4950   30.5080 N   0  0  0  0  0  0  0  0  0  0  0  0
   20.2950  -54.6910   31.5480 N   0  0  0  0  0  0  0  0  0  0  0  0
   18.7240  -54.7260   33.5240 C   0  0  0  0  0  3  0  0  0  0  0  0
   17.6640  -55.4130   34.0810 C   0  0  0  0  0  3  0  0  0  0  0  0
   13.5930  -56.9500   38.5320 C   0  0  0  0  0  2  0  0  0  0  0  0
   14.7040  -56.5110   39.3910 C   0  0  0  0  0  2  0  0  0  0  0  0
   15.6820  -55.6480   38.8470 N   0  0  0  0  0  0  0  0  0  0  0  0
   15.8530  -54.2760   38.9450 C   0  0  0  0  0  0  0  0  0  0  0  0
   15.0790  -53.5590   39.6150 O   0  0  0  0  0  0  0  0  0  0  0  0
   16.4680  -56.1180   38.2160 H   0  0  0  0  0  0  0  0  0  0  0  0
   16.9600  -53.5600   38.2680 C   0  0  0  0  0  0  0  0  0  0  0  0
   16.9690  -52.1830   38.2420 C   0  0  0  0  0  3  0  0  0  0  0  0
   17.9780  -51.4760   37.6330 C   0  0  0  0  0  3  0  0  0  0  0  0
   19.0170  -52.1630   37.0270 C   0  0  0  0  0  0  0  0  0  0  0  0
   20.3120  -51.2710   36.2450 Cl  0  0  0  0  0  0  0  0  0  0  0  0
   19.0410  -53.5320   37.0350 C   0  0  0  0  0  3  0  0  0  0  0  0
   17.9990  -54.2180   37.6630 C   0  0  0  0  0  3  0  0  0  0  0  0
  1 20  1  0  0  0  0
  2  1  1  0  0  0  0
  2  3  2  0  0  0  0
  4  1  1  0  0  0  0
  5  2  1  1  0  0  0
  6  7  1  0  0  0  0
  6  5  1  0  0  0  0
  8  7  1  0  0  0  0
  9  8  1  0  0  0  0
  9 10  1  0  0  0  0
 10  5  1  0  0  0  0
 11  8  1  0  0  0  0
 11 19  1  0  0  0  0
 12 11  2  0  0  0  0
 13 12  1  0  0  0  0
 13 15  1  0  0  0  0
 14 13  1  0  0  0  0
 15 18  1  0  0  0  0
 16 14  2  0  0  0  0
 16 17  1  0  0  0  0
 17 15  2  0  0  0  0
 18 19  2  0  0  0  0
 20 21  1  0  0  0  0
 22 23  1  0  0  0  0
 22 21  1  0  0  0  0
 23 24  2  0  0  0  0
 25 22  1  0  0  0  0
 26 23  1  0  0  0  0
 27 26  1  0  0  0  0
 28 27  2  0  0  0  0
 29 31  2  0  0  0  0
 29 28  1  0  0  0  0
 30 29  1  0  0  0  0
 31 32  1  0  0  0  0
 32 26  2  0  0  0  0
M  END
>  <Pose>
1

>  <Score>
-10.282

$$$$
