/Users/jonathanwahrer/Desktop/Msc/3_Semester/Drug_Design_Praktikum/waehrer_HTS_screening/HTS_experiment/out/docking_results/vina_output/6s1j/1507_docked.pdbqt
 OpenBabel03222222103D

 32 35  0  0  1  0  0  0  0  0999 V2000
   17.4400  -57.2640   31.9850 C   0  0  0  0  0  0  0  0  0  0  0  0
   17.3390  -56.3320   32.9100 C   0  0  0  0  0  0  0  0  0  0  0  0
   16.3710  -56.2170   34.0490 C   0  0  2  0  0  3  0  0  0  0  0  0
   17.2080  -55.7720   35.1030 N   0  0  0  0  0  0  0  0  0  0  0  0
   18.0360  -54.7460   34.4750 C   0  0  0  0  0  0  0  0  0  0  0  0
   18.5720  -53.7490   35.0230 O   0  0  0  0  0  0  0  0  0  0  0  0
   18.1210  -55.1060   33.0640 C   0  0  0  0  0  0  0  0  0  0  0  0
   18.7300  -54.5270   32.1040 O   0  0  0  0  0  0  0  0  0  0  0  0
   16.5840  -58.3510   31.9390 O   0  0  0  0  0  1  0  0  0  0  0  0
   18.4660  -57.1940   30.9510 C   0  0  0  0  0  0  0  0  0  0  0  0
   18.2010  -56.6870   29.6930 C   0  0  0  0  0  3  0  0  0  0  0  0
   19.2090  -56.6820   28.7700 C   0  0  0  0  0  3  0  0  0  0  0  0
   20.4790  -57.1520   29.0130 C   0  0  0  0  0  0  0  0  0  0  0  0
   21.8440  -57.1100   27.6600 Br  0  0  0  0  0  0  0  0  0  0  0  0
   20.7500  -57.6610   30.2670 C   0  0  0  0  0  3  0  0  0  0  0  0
   19.7280  -57.6720   31.2210 C   0  0  0  0  0  3  0  0  0  0  0  0
   15.4740  -57.3160   34.1770 C   0  0  0  0  0  0  0  0  0  0  0  0
   15.9100  -58.4700   34.7820 C   0  0  0  0  0  3  0  0  0  0  0  0
   15.1010  -59.5660   34.9580 C   0  0  0  0  0  3  0  0  0  0  0  0
   13.7840  -59.5460   34.5200 C   0  0  0  0  0  0  0  0  0  0  0  0
   13.3650  -58.3780   33.9140 C   0  0  0  0  0  3  0  0  0  0  0  0
   12.7440  -60.9310   34.7370 Cl  0  0  0  0  0  0  0  0  0  0  0  0
   14.1830  -57.2830   33.7420 C   0  0  0  0  0  3  0  0  0  0  0  0
   17.3160  -56.0820   36.5160 C   0  0  0  0  0  2  0  0  0  0  0  0
   16.1690  -55.7330   37.3810 C   0  0  0  0  0  2  0  0  0  0  0  0
   16.5440  -55.0760   38.6380 N   0  0  0  0  0  4  0  0  0  0  0  0
   15.4570  -54.3040   39.1360 C   0  0  0  0  0  2  0  0  0  0  0  0
   15.6560  -52.8300   39.1950 C   0  0  0  0  0  2  0  0  0  0  0  0
   16.9630  -52.4080   39.3430 O   0  0  0  0  0  0  0  0  0  0  0  0
   17.6350  -52.8960   38.1980 C   0  0  0  0  0  2  0  0  0  0  0  0
   17.7650  -54.3650   38.3960 C   0  0  0  0  0  2  0  0  0  0  0  0
   16.7600  -55.8820   39.3020 H   0  0  0  0  0  0  0  0  0  0  0  0
  1  2  2  0  0  0  0
  2  7  1  0  0  0  0
  2  3  1  0  0  0  0
  3 17  1  1  0  0  0
  3  4  1  0  0  0  0
  4 24  1  0  0  0  0
  5  6  2  0  0  0  0
  5  4  1  0  0  0  0
  7  5  1  0  0  0  0
  8  7  2  0  0  0  0
  9  1  1  0  0  0  0
 10 16  1  0  0  0  0
 10  1  1  0  0  0  0
 11 10  2  0  0  0  0
 12 13  2  0  0  0  0
 12 11  1  0  0  0  0
 13 15  1  0  0  0  0
 14 13  1  0  0  0  0
 15 16  2  0  0  0  0
 17 18  1  0  0  0  0
 18 19  2  0  0  0  0
 20 22  1  0  0  0  0
 20 19  1  0  0  0  0
 21 20  2  0  0  0  0
 23 21  1  0  0  0  0
 23 17  2  0  0  0  0
 24 25  1  0  0  0  0
 25 26  1  0  0  0  0
 26 27  1  0  0  0  0
 26 32  1  0  0  0  0
 27 28  1  0  0  0  0
 28 29  1  0  0  0  0
 30 31  1  0  0  0  0
 30 29  1  0  0  0  0
 31 26  1  0  0  0  0
M  END
>  <Pose>
1

>  <Score>
-8.589

$$$$
