/Users/jonathanwahrer/Desktop/Msc/3_Semester/Drug_Design_Praktikum/waehrer_HTS_screening/HTS_experiment/out/docking_results/vina_output/6s1j/1518_docked.pdbqt
 OpenBabel03222222113D

 31 34  0  0  1  0  0  0  0  0999 V2000
   15.6590  -58.0130   36.2450 C   0  0  0  0  0  0  0  0  0  0  0  0
   15.7510  -59.1910   36.6680 O   0  0  0  0  0  0  0  0  0  0  0  0
   16.3820  -57.6060   35.0990 N   0  0  0  0  0  0  0  0  0  0  0  0
   16.3200  -56.2620   34.5630 C   0  0  0  0  0  2  0  0  0  0  0  0
   16.4780  -56.3590   33.0530 C   0  0  0  0  0  2  0  0  0  0  0  0
   17.8580  -56.9120   32.6980 C   0  0  1  0  0  0  0  0  0  0  0  0
   17.6940  -57.7020   31.5120 N   0  0  0  0  0  0  0  0  0  0  0  0
   18.9430  -57.8840   30.8040 C   0  0  0  0  0  2  0  0  0  0  0  0
   19.3380  -56.5530   30.1670 C   0  0  0  0  0  2  0  0  0  0  0  0
   19.4960  -55.5850   31.2910 C   0  0  0  0  0  0  0  0  0  0  0  0
   20.2530  -54.4540   31.4160 N   0  0  0  0  0  0  0  0  0  0  0  0
   20.0310  -53.9430   32.6400 C   0  0  0  0  0  3  0  0  0  0  0  0
   19.1500  -54.7430   33.2690 N   0  0  0  0  0  0  0  0  0  0  0  0
   18.7910  -55.7810   32.4570 C   0  0  0  0  0  0  0  0  0  0  0  0
   18.3840  -57.7920   33.8120 C   0  0  0  0  0  2  0  0  0  0  0  0
   17.2340  -58.5510   34.4040 C   0  0  0  0  0  2  0  0  0  0  0  0
   17.2610  -58.6230   31.7190 H   0  0  0  0  0  0  0  0  0  0  0  0
   20.8700  -54.1160   30.6440 H   0  0  0  0  0  0  0  0  0  0  0  0
   14.7810  -57.0740   36.9780 C   0  0  0  0  0  2  0  0  0  0  0  0
   15.4510  -56.4590   38.1660 C   0  0  0  0  0  2  0  0  0  0  0  0
   16.4450  -55.5020   37.7220 N   0  0  0  0  0  0  0  0  0  0  0  0
   16.4340  -54.1500   38.0690 C   0  0  0  0  0  0  0  0  0  0  0  0
   15.5250  -53.6960   38.8090 O   0  0  0  0  0  0  0  0  0  0  0  0
   17.1980  -55.8950   37.1080 H   0  0  0  0  0  0  0  0  0  0  0  0
   17.4520  -53.2120   37.6020 C   0  0  0  0  0  0  0  0  0  0  0  0
   17.3830  -51.8620   37.8670 C   0  0  0  0  0  3  0  0  0  0  0  0
   18.3800  -51.0200   37.3970 C   0  0  0  0  0  3  0  0  0  0  0  0
   19.4520  -51.5030   36.6600 C   0  0  0  0  0  0  0  0  0  0  0  0
   20.6670  -50.3690   36.1040 Cl  0  0  0  0  0  0  0  0  0  0  0  0
   19.5310  -52.8530   36.3880 C   0  0  0  0  0  3  0  0  0  0  0  0
   18.5400  -53.6690   36.8610 C   0  0  0  0  0  3  0  0  0  0  0  0
  1  2  2  0  0  0  0
  1 19  1  0  0  0  0
  3  1  1  0  0  0  0
  4  3  1  0  0  0  0
  5  4  1  0  0  0  0
  6  5  1  1  0  0  0
  6 15  1  0  0  0  0
  7 17  1  0  0  0  0
  7  6  1  0  0  0  0
  8  7  1  0  0  0  0
  9  8  1  0  0  0  0
  9 10  1  0  0  0  0
 10 11  1  0  0  0  0
 10 14  2  0  0  0  0
 11 12  1  0  0  0  0
 12 13  2  0  0  0  0
 14  6  1  0  0  0  0
 14 13  1  0  0  0  0
 15 16  1  0  0  0  0
 16  3  1  0  0  0  0
 18 11  1  0  0  0  0
 19 20  1  0  0  0  0
 21 22  1  0  0  0  0
 21 20  1  0  0  0  0
 22 23  2  0  0  0  0
 24 21  1  0  0  0  0
 25 26  1  0  0  0  0
 25 22  1  0  0  0  0
 27 26  2  0  0  0  0
 28 27  1  0  0  0  0
 29 28  1  0  0  0  0
 30 28  2  0  0  0  0
 30 31  1  0  0  0  0
 31 25  2  0  0  0  0
M  END
>  <Pose>
1

>  <Score>
-10.269

$$$$
