/Users/jonathanwahrer/Desktop/Msc/3_Semester/Drug_Design_Praktikum/waehrer_HTS_screening/HTS_experiment/out/docking_results/vina_output/6s1j/1523_docked.pdbqt
 OpenBabel03222222113D

 25 28  0  0  0  0  0  0  0  0999 V2000
   15.0060  -58.5540   33.6420 C   0  0  0  0  0  0  0  0  0  0  0  0
   13.8000  -58.4180   34.0490 O   0  0  0  0  0  0  0  0  0  0  0  0
   15.4980  -59.8110   33.2910 N   0  0  0  0  0  0  0  0  0  0  0  0
   14.6460  -60.9640   33.3920 C   0  0  0  0  0  2  0  0  0  0  0  0
   14.3860  -61.4860   32.0060 C   0  0  0  0  0  2  0  0  0  0  0  0
   15.6170  -61.5170   31.2690 N   0  0  0  0  0  0  0  0  0  0  0  0
   16.8460  -61.4120   32.0790 C   0  0  0  0  0  2  0  0  0  0  0  0
   16.8380  -60.0810   32.8170 C   0  0  0  0  0  2  0  0  0  0  0  0
   15.7850  -61.6250   29.8880 C   0  0  0  0  0  0  0  0  0  0  0  0
   17.0190  -61.6660   29.4880 O   0  0  0  0  0  0  0  0  0  0  0  0
   15.7940  -57.3010   33.5840 C   0  0  0  0  0  0  0  0  0  0  0  0
   15.9960  -56.5110   32.5200 N   0  0  0  0  0  0  0  0  0  0  0  0
   16.7500  -55.4940   32.8720 N   0  0  0  0  0  0  0  0  0  0  0  0
   17.0710  -55.5750   34.1670 N   0  0  0  0  0  0  0  0  0  0  0  0
   16.4780  -56.6960   34.6120 C   0  0  0  0  0  3  0  0  0  0  0  0
   17.8690  -54.6530   34.8900 C   0  0  0  0  0  0  0  0  0  0  0  0
   17.3370  -53.9400   35.9370 C   0  0  0  0  0  3  0  0  0  0  0  0
   18.1420  -53.0320   36.6400 C   0  0  0  0  0  0  0  0  0  0  0  0
   17.4210  -52.0330   38.0940 Br  0  0  0  0  0  0  0  0  0  0  0  0
   19.4550  -52.8480   36.2970 C   0  0  0  0  0  3  0  0  0  0  0  0
   19.9960  -53.5580   35.2520 C   0  0  0  0  0  3  0  0  0  0  0  0
   19.1840  -54.4610   34.5560 C   0  0  0  0  0  3  0  0  0  0  0  0
   14.7980  -61.7010   28.8180 C   0  0  0  0  0  3  0  0  0  0  0  0
   14.4310  -60.5820   27.9500 C   0  0  0  0  0  2  0  0  0  0  0  0
   15.1300  -61.8110   27.3760 C   0  0  0  0  0  2  0  0  0  0  0  0
  1  2  2  0  0  0  0
  3  4  1  0  0  0  0
  3  1  1  0  0  0  0
  5  4  1  0  0  0  0
  6  5  1  0  0  0  0
  6  7  1  0  0  0  0
  7  8  1  0  0  0  0
  8  3  1  0  0  0  0
  9  6  1  0  0  0  0
 10  9  2  0  0  0  0
 11  1  1  0  0  0  0
 11 15  2  0  0  0  0
 12 13  2  0  0  0  0
 12 11  1  0  0  0  0
 13 14  1  0  0  0  0
 14 15  1  0  0  0  0
 14 16  1  0  0  0  0
 16 17  1  0  0  0  0
 17 18  2  0  0  0  0
 18 19  1  0  0  0  0
 20 18  1  0  0  0  0
 21 20  2  0  0  0  0
 22 16  2  0  0  0  0
 22 21  1  0  0  0  0
 23  9  1  0  0  0  0
 24 23  1  0  0  0  0
 25 24  1  0  0  0  0
 25 23  1  0  0  0  0
M  END
>  <Pose>
1

>  <Score>
-8.372

$$$$
