/Users/jonathanwahrer/Desktop/Msc/3_Semester/Drug_Design_Praktikum/waehrer_HTS_screening/HTS_experiment/out/docking_results/vina_output/6s1j/1531_docked.pdbqt
 OpenBabel03222222113D

 27 30  0  0  0  0  0  0  0  0999 V2000
   18.5980  -53.8060   36.2300 N   0  0  0  0  0  0  0  0  0  0  0  0
   17.9430  -53.0110   37.1330 C   0  0  0  0  0  0  0  0  0  0  0  0
   16.9810  -53.7660   37.6690 N   0  0  0  0  0  0  0  0  0  0  0  0
   16.9710  -55.0110   37.1650 C   0  0  0  0  0  0  0  0  0  0  0  0
   18.0050  -55.0320   36.2460 C   0  0  0  0  0  3  0  0  0  0  0  0
   16.2220  -52.9970   38.6510 C   0  0  0  0  0  3  0  0  0  0  0  0
   16.7780  -51.6050   38.5790 C   0  0  0  0  0  3  0  0  0  0  0  0
   17.9650  -51.6340   37.6830 C   0  0  0  0  0  3  0  0  0  0  0  0
   19.7290  -53.4350   35.4490 C   0  0  0  0  0  3  0  0  0  0  0  0
   19.9700  -54.0120   34.1470 C   0  0  0  0  0  0  0  0  0  0  0  0
   21.0510  -53.5560   33.5450 O   0  0  0  0  0  1  0  0  0  0  0  0
   19.2480  -54.9930   33.3840 C   0  0  0  0  0  0  0  0  0  0  0  0
   18.7390  -54.8390   32.1310 C   0  0  0  0  0  3  0  0  0  0  0  0
   18.0430  -55.8370   31.4330 C   0  0  0  0  0  3  0  0  0  0  0  0
   17.8410  -57.0610   32.0210 C   0  0  0  0  0  0  0  0  0  0  0  0
   18.3400  -57.2590   33.2880 C   0  0  0  0  0  0  0  0  0  0  0  0
   16.9740  -58.3090   31.1550 Cl  0  0  0  0  0  0  0  0  0  0  0  0
   18.0950  -58.8070   34.0500 Cl  0  0  0  0  0  0  0  0  0  0  0  0
   19.0100  -56.2750   33.9390 C   0  0  0  0  0  3  0  0  0  0  0  0
   16.0880  -56.1330   37.4790 C   0  0  0  0  0  0  0  0  0  0  0  0
   15.0540  -56.0860   38.3790 C   0  0  0  0  0  3  0  0  0  0  0  0
   14.2480  -57.2060   38.6260 C   0  0  0  0  0  3  0  0  0  0  0  0
   14.4520  -58.4060   37.9810 C   0  0  0  0  0  0  0  0  0  0  0  0
   15.4900  -58.4640   37.0760 C   0  0  0  0  0  3  0  0  0  0  0  0
   16.2800  -57.3600   36.8340 C   0  0  0  0  0  3  0  0  0  0  0  0
   13.6630  -59.5230   38.2160 O   0  0  0  0  0  0  0  0  0  0  0  0
   12.4430  -59.4040   38.9260 C   0  0  0  0  0  1  0  0  0  0  0  0
  1  5  1  0  0  0  0
  1  2  1  0  0  0  0
  2  3  1  0  0  0  0
  2  8  2  0  0  0  0
  3  6  1  0  0  0  0
  4 20  1  0  0  0  0
  4  3  1  0  0  0  0
  5  4  2  0  0  0  0
  7  6  2  0  0  0  0
  8  7  1  0  0  0  0
  9  1  1  0  0  0  0
 10  9  2  0  0  0  0
 11 10  1  0  0  0  0
 12 19  1  0  0  0  0
 12 10  1  0  0  0  0
 13 12  2  0  0  0  0
 14 15  2  0  0  0  0
 14 13  1  0  0  0  0
 15 16  1  0  0  0  0
 16 19  2  0  0  0  0
 16 18  1  0  0  0  0
 17 15  1  0  0  0  0
 20 21  1  0  0  0  0
 21 22  2  0  0  0  0
 23 26  1  0  0  0  0
 23 22  1  0  0  0  0
 24 23  2  0  0  0  0
 25 24  1  0  0  0  0
 25 20  2  0  0  0  0
 26 27  1  0  0  0  0
M  END
>  <Pose>
1

>  <Score>
-10.042

$$$$
