/Users/jonathanwahrer/Desktop/Msc/3_Semester/Drug_Design_Praktikum/waehrer_HTS_screening/HTS_experiment/out/docking_results/vina_output/6s1j/1536_docked.pdbqt
 OpenBabel03222222123D

 31 34  0  0  1  0  0  0  0  0999 V2000
   14.2740  -58.7330   34.7370 S   0  0  0  0  0  0  0  0  0  0  0  0
   13.2420  -57.6500   34.4070 O   0  0  0  0  0  0  0  0  0  0  0  0
   13.6490  -59.9990   34.1460 O   0  0  0  0  0  0  0  0  0  0  0  0
   14.3720  -58.8750   36.3810 N   0  0  0  0  0  0  0  0  0  0  0  0
   13.3650  -58.5040   37.2640 C   0  0  0  0  0  2  0  0  0  0  0  0
   13.4270  -57.1140   37.8100 C   0  0  0  0  0  2  0  0  0  0  0  0
   14.8640  -56.6060   37.7140 C   0  0  2  0  0  3  0  0  0  0  0  0
   15.7040  -57.8210   38.1400 C   0  0  0  0  0  2  0  0  0  0  0  0
   15.7170  -58.7360   36.9270 C   0  0  0  0  0  2  0  0  0  0  0  0
   15.1000  -55.4550   38.5680 C   0  0  0  0  0  0  0  0  0  0  0  0
   14.4860  -55.3570   39.6630 O   0  0  0  0  0  0  0  0  0  0  0  0
   16.0000  -54.4460   38.2080 N   0  0  0  0  0  0  0  0  0  0  0  0
   16.2910  -53.2910   39.0650 C   0  0  0  0  0  2  0  0  0  0  0  0
   16.6840  -54.4750   36.9460 C   0  0  0  0  0  2  0  0  0  0  0  0
   17.1370  -52.3480   38.2350 C   0  0  0  0  0  2  0  0  0  0  0  0
   18.3910  -52.9810   37.8730 N   0  0  0  0  0  0  0  0  0  0  0  0
   18.1680  -54.1920   37.1020 C   0  0  0  0  0  2  0  0  0  0  0  0
   19.2460  -52.0640   37.1510 C   0  0  0  0  0  1  0  0  0  0  0  0
   15.7040  -58.3010   33.8450 C   0  0  0  0  0  0  0  0  0  0  0  0
   16.0410  -56.9430   33.7080 C   0  0  0  0  0  3  0  0  0  0  0  0
   17.1220  -56.5220   32.9790 C   0  0  0  0  0  0  0  0  0  0  0  0
   17.9130  -57.4380   32.3570 C   0  0  0  0  0  0  0  0  0  0  0  0
   17.4260  -55.1590   32.8650 O   0  0  0  0  0  0  0  0  0  0  0  0
   17.6340  -58.7780   32.4560 C   0  0  0  0  0  3  0  0  0  0  0  0
   19.0400  -56.9770   31.5920 N   0  0  0  0  0  0  0  0  0  0  0  0
   16.5280  -59.1810   33.2060 C   0  0  0  0  0  0  0  0  0  0  0  0
   16.2630  -60.9090   33.3640 Cl  0  0  0  0  0  0  0  0  0  0  0  0
   19.3020  -55.5870   31.5030 C   0  0  0  0  0  0  0  0  0  0  0  0
   19.6500  -57.6700   31.1150 H   0  0  0  0  0  0  0  0  0  0  0  0
   20.4300  -55.1510   31.1940 O   0  0  0  0  0  0  0  0  0  0  0  0
   18.1780  -54.6580   31.7910 C   0  0  0  0  0  2  0  0  0  0  0  0
  1  4  1  0  0  0  0
  2  1  2  0  0  0  0
  3  1  2  0  0  0  0
  4  9  1  0  0  0  0
  4  5  1  0  0  0  0
  5  6  1  0  0  0  0
  7  6  1  0  0  0  0
  7  8  1  0  0  0  0
  7 10  1  1  0  0  0
  9  8  1  0  0  0  0
 10 11  2  0  0  0  0
 12 10  1  0  0  0  0
 12 13  1  0  0  0  0
 14 17  1  0  0  0  0
 14 12  1  0  0  0  0
 15 13  1  0  0  0  0
 16 15  1  0  0  0  0
 17 16  1  0  0  0  0
 18 16  1  0  0  0  0
 19  1  1  0  0  0  0
 20 19  1  0  0  0  0
 21 20  2  0  0  0  0
 22 24  2  0  0  0  0
 22 21  1  0  0  0  0
 23 21  1  0  0  0  0
 24 26  1  0  0  0  0
 25 22  1  0  0  0  0
 26 27  1  0  0  0  0
 26 19  2  0  0  0  0
 28 25  1  0  0  0  0
 28 31  1  0  0  0  0
 29 25  1  0  0  0  0
 30 28  2  0  0  0  0
 31 23  1  0  0  0  0
M  END
>  <Pose>
1

>  <Score>
-9.274

$$$$
