/Users/jonathanwahrer/Desktop/Msc/3_Semester/Drug_Design_Praktikum/waehrer_HTS_screening/HTS_experiment/out/docking_results/vina_output/6s1j/1548_docked.pdbqt
 OpenBabel03222222123D

 24 27  0  0  1  0  0  0  0  0999 V2000
   19.9640  -51.5730   36.5790 Cl  0  0  0  0  0  0  0  0  0  0  0  0
   18.9390  -52.9960   36.7070 C   0  0  0  0  0  0  0  0  0  0  0  0
   18.4150  -53.6240   35.5980 C   0  0  0  0  0  2  0  0  0  0  0  0
   17.6190  -54.7290   35.7010 N   0  0  0  0  0  0  0  0  0  0  0  0
   17.3070  -55.2600   36.8970 C   0  0  0  0  0  0  0  0  0  0  0  0
   16.5160  -56.3580   37.0010 N   0  0  0  0  0  0  0  0  0  0  0  0
   16.0060  -56.9680   35.9100 C   0  0  0  0  0  0  0  0  0  0  0  0
   16.3020  -56.4560   34.6810 C   0  0  2  0  0  3  0  0  0  0  0  0
   15.7630  -57.0940   33.4370 C   0  0  0  0  0  2  0  0  0  0  0  0
   15.5700  -58.5100   33.7930 N   0  0  0  0  0  0  0  0  0  0  0  0
   14.6230  -58.7210   34.8510 C   0  0  0  0  0  2  0  0  0  0  0  0
   15.1550  -58.1620   36.1590 C   0  0  0  0  0  2  0  0  0  0  0  0
   16.3040  -59.4610   33.0900 C   0  0  0  0  0  0  0  0  0  0  0  0
   17.1000  -59.0630   32.1700 O   0  0  0  0  0  0  0  0  0  0  0  0
   17.1140  -55.3320   34.6090 C   0  0  0  0  0  0  0  0  0  0  0  0
   17.3900  -54.8560   33.4910 O   0  0  0  0  0  0  0  0  0  0  0  0
   17.8310  -54.6340   38.0180 C   0  0  0  0  0  3  0  0  0  0  0  0
   18.6370  -53.5180   37.9450 C   0  0  0  0  0  3  0  0  0  0  0  0
   16.2560  -60.9130   33.3030 C   0  0  0  0  0  0  0  0  0  0  0  0
   17.2580  -61.7220   32.9490 N   0  0  0  0  0  0  0  0  0  0  0  0
   17.2060  -63.0430   33.1470 C   0  0  0  0  0  3  0  0  0  0  0  0
   16.1110  -63.6470   33.7290 C   0  0  0  0  0  3  0  0  0  0  0  0
   15.1130  -62.8180   34.0800 N   0  0  0  0  0  0  0  0  0  0  0  0
   15.1400  -61.4980   33.8930 C   0  0  0  0  0  3  0  0  0  0  0  0
  1  2  1  0  0  0  0
  2 18  2  0  0  0  0
  3  4  1  0  0  0  0
  3  2  1  0  0  0  0
  4  5  1  0  0  0  0
  5  6  1  0  0  0  0
  5 17  2  0  0  0  0
  7 12  1  0  0  0  0
  7  6  2  0  0  0  0
  8  9  1  6  0  0  0
  8  7  1  0  0  0  0
  9 10  1  0  0  0  0
 10 11  1  0  0  0  0
 11 12  1  0  0  0  0
 13 19  1  0  0  0  0
 13 10  1  0  0  0  0
 14 13  2  0  0  0  0
 15  8  1  0  0  0  0
 15  4  1  0  0  0  0
 16 15  2  0  0  0  0
 18 17  1  0  0  0  0
 19 24  1  0  0  0  0
 20 21  1  0  0  0  0
 20 19  2  0  0  0  0
 21 22  2  0  0  0  0
 22 23  1  0  0  0  0
 24 23  2  0  0  0  0
M  END
>  <Pose>
1

>  <Score>
-8.378

$$$$
