/Users/jonathanwahrer/Desktop/Msc/3_Semester/Drug_Design_Praktikum/waehrer_HTS_screening/HTS_experiment/out/docking_results/vina_output/6s1j/1571_docked.pdbqt
 OpenBabel03222222133D

 28 31  0  0  1  0  0  0  0  0999 V2000
   14.1120  -56.7310   37.7550 O   0  0  0  0  0  0  0  0  0  0  0  0
   14.9090  -56.3130   38.8270 C   0  0  0  0  0  2  0  0  0  0  0  0
   15.7670  -55.1530   38.4880 C   0  0  0  0  0  0  0  0  0  0  0  0
   16.7930  -55.2250   37.6170 N   0  0  0  0  0  0  0  0  0  0  0  0
   17.5500  -54.1640   37.3300 C   0  0  0  0  0  0  0  0  0  0  0  0
   17.3540  -52.9400   37.8830 N   0  0  0  0  0  0  0  0  0  0  0  0
   18.5930  -54.3200   36.4190 C   0  0  0  0  0  3  0  0  0  0  0  0
   18.1430  -51.9050   37.5600 C   0  0  0  0  0  3  0  0  0  0  0  0
   16.3280  -52.8340   38.7660 C   0  0  0  0  0  0  0  0  0  0  0  0
   19.1810  -52.0200   36.6670 C   0  0  0  0  0  0  0  0  0  0  0  0
   20.2890  -50.5050   36.2320 Br  0  0  0  0  0  0  0  0  0  0  0  0
   19.3970  -53.2480   36.0950 C   0  0  0  0  0  3  0  0  0  0  0  0
   15.5370  -53.9240   39.0710 C   0  0  0  0  0  3  0  0  0  0  0  0
   16.1510  -51.6930   39.2760 O   0  0  0  0  0  0  0  0  0  0  0  0
   13.5920  -57.9940   37.5890 C   0  0  0  0  0  0  0  0  0  0  0  0
   12.8050  -58.3900   38.4950 O   0  0  0  0  0  0  0  0  0  0  0  0
   13.9230  -58.8540   36.4210 C   0  0  0  0  0  2  0  0  0  0  0  0
   14.8020  -58.1620   35.4770 N   0  0  0  0  0  0  0  0  0  0  0  0
   16.1890  -57.8780   35.6370 C   0  0  0  0  0  0  0  0  0  0  0  0
   16.9410  -58.3270   36.5360 O   0  0  0  0  0  0  0  0  0  0  0  0
   16.5900  -56.9550   34.5490 C   0  0  2  0  0  3  0  0  0  0  0  0
   15.6530  -57.4010   33.4520 C   0  0  1  0  0  3  0  0  0  0  0  0
   18.0220  -56.9920   34.2020 C   0  0  0  0  0  2  0  0  0  0  0  0
   16.0810  -58.7040   32.8050 C   0  0  0  0  0  2  0  0  0  0  0  0
   14.4090  -57.6380   34.2200 C   0  0  0  0  0  0  0  0  0  0  0  0
   17.4340  -59.1760   33.2660 C   0  0  0  0  0  2  0  0  0  0  0  0
   18.4350  -58.0550   33.2460 C   0  0  0  0  0  2  0  0  0  0  0  0
   13.2130  -57.4230   33.8490 O   0  0  0  0  0  0  0  0  0  0  0  0
  1  2  1  0  0  0  0
  3  2  1  0  0  0  0
  3 13  2  0  0  0  0
  4  3  1  0  0  0  0
  5  4  2  0  0  0  0
  5  6  1  0  0  0  0
  6  9  1  0  0  0  0
  7  5  1  0  0  0  0
  8  6  1  0  0  0  0
  9 13  1  0  0  0  0
  9 14  2  0  0  0  0
 10  8  2  0  0  0  0
 11 10  1  0  0  0  0
 12  7  2  0  0  0  0
 12 10  1  0  0  0  0
 15  1  1  0  0  0  0
 15 16  2  0  0  0  0
 17 15  1  0  0  0  0
 18 19  1  0  0  0  0
 18 17  1  0  0  0  0
 19 20  2  0  0  0  0
 21 23  1  6  0  0  0
 21 19  1  0  0  0  0
 22 24  1  1  0  0  0
 22 25  1  0  0  0  0
 22 21  1  0  0  0  0
 24 26  1  0  0  0  0
 25 18  1  0  0  0  0
 27 26  1  0  0  0  0
 27 23  1  0  0  0  0
 28 25  2  0  0  0  0
M  END
>  <Pose>
1

>  <Score>
-9.544

$$$$
