/Users/jonathanwahrer/Desktop/Msc/3_Semester/Drug_Design_Praktikum/waehrer_HTS_screening/HTS_experiment/out/docking_results/vina_output/6s1j/1581_docked.pdbqt
 OpenBabel03222222133D

 27 30  0  0  1  0  0  0  0  0999 V2000
   15.0270  -59.1040   35.4660 N   0  0  0  0  0  0  0  0  0  0  0  0
   13.8940  -58.5280   34.8710 C   0  0  0  0  0  2  0  0  0  0  0  0
   14.1370  -57.3030   34.0540 C   0  0  0  0  0  2  0  0  0  0  0  0
   15.4760  -57.2830   33.4820 N   0  0  0  0  0  0  0  0  0  0  0  0
   15.9650  -56.3560   32.6600 N   0  0  0  0  0  0  0  0  0  0  0  0
   17.2250  -56.6680   32.3430 C   0  0  0  0  0  0  0  0  0  0  0  0
   17.5250  -57.8360   32.9980 C   0  0  0  0  0  3  0  0  0  0  0  0
   16.3980  -58.2260   33.7290 C   0  0  0  0  0  0  0  0  0  0  0  0
   16.1280  -59.3850   34.6160 C   0  0  0  0  0  2  0  0  0  0  0  0
   15.3080  -58.8040   36.8070 C   0  0  0  0  0  2  0  0  0  0  0  0
   15.6870  -57.4150   37.1020 C   0  0  0  0  0  0  0  0  0  0  0  0
   16.6640  -56.7450   36.4640 N   0  0  0  0  0  0  0  0  0  0  0  0
   16.9840  -55.4720   36.7630 C   0  0  0  0  0  0  0  0  0  0  0  0
   16.3520  -54.7740   37.7200 N   0  0  0  0  0  0  0  0  0  0  0  0
   18.0190  -54.8900   36.0250 C   0  0  0  0  0  3  0  0  0  0  0  0
   16.6800  -53.4910   38.0150 C   0  0  0  0  0  3  0  0  0  0  0  0
   15.3630  -55.3950   38.3940 C   0  0  0  0  0  0  0  0  0  0  0  0
   17.6990  -52.9130   37.2920 C   0  0  0  0  0  0  0  0  0  0  0  0
   18.1280  -51.2510   37.6700 Cl  0  0  0  0  0  0  0  0  0  0  0  0
   18.3750  -53.5930   36.3000 C   0  0  0  0  0  3  0  0  0  0  0  0
   15.0350  -56.6970   38.0890 C   0  0  0  0  0  3  0  0  0  0  0  0
   14.7370  -54.7740   39.3080 O   0  0  0  0  0  0  0  0  0  0  0  0
   18.1280  -55.8860   31.4440 C   0  0  1  0  0  3  0  0  0  0  0  0
   17.6250  -54.5760   31.3680 O   0  0  0  0  0  0  0  0  0  0  0  0
   17.9850  -54.0170   32.1170 H   0  0  0  0  0  0  0  0  0  0  0  0
   19.5130  -55.7610   32.0750 C   0  0  0  0  0  2  0  0  0  0  0  0
   19.7520  -54.2990   32.4180 C   0  0  0  0  0  1  0  0  0  0  0  0
  1 10  1  0  0  0  0
  2  1  1  0  0  0  0
  3  2  1  0  0  0  0
  4  8  1  0  0  0  0
  4  3  1  0  0  0  0
  5  4  1  0  0  0  0
  6  5  2  0  0  0  0
  6  7  1  0  0  0  0
  7  8  2  0  0  0  0
  8  9  1  0  0  0  0
  9  1  1  0  0  0  0
 10 11  1  0  0  0  0
 11 21  2  0  0  0  0
 12 13  2  0  0  0  0
 12 11  1  0  0  0  0
 13 14  1  0  0  0  0
 14 16  1  0  0  0  0
 14 17  1  0  0  0  0
 15 20  2  0  0  0  0
 15 13  1  0  0  0  0
 17 22  2  0  0  0  0
 18 19  1  0  0  0  0
 18 16  2  0  0  0  0
 20 18  1  0  0  0  0
 21 17  1  0  0  0  0
 23 26  1  1  0  0  0
 23  6  1  0  0  0  0
 24 23  1  0  0  0  0
 24 25  1  0  0  0  0
 26 27  1  0  0  0  0
M  END
>  <Pose>
1

>  <Score>
-9.207

$$$$
