/Users/jonathanwahrer/Desktop/Msc/3_Semester/Drug_Design_Praktikum/waehrer_HTS_screening/HTS_experiment/out/docking_results/vina_output/6s1j/1586_docked.pdbqt
 OpenBabel03222222133D

 29 32  0  0  1  0  0  0  0  0999 V2000
   16.7370  -54.3360   38.6680 C   0  0  0  0  0  0  0  0  0  0  0  0
   16.3040  -54.0090   39.8760 O   0  0  0  0  0  0  0  0  0  0  0  0
   16.3300  -55.5960   38.1990 N   0  0  0  0  0  0  0  0  0  0  0  0
   16.7020  -56.1520   36.9470 C   0  0  0  0  0  2  0  0  0  0  0  0
   16.2480  -57.6210   36.9010 C   0  0  1  0  0  3  0  0  0  0  0  0
   14.8220  -57.5890   37.1010 N   0  0  0  0  0  0  0  0  0  0  0  0
   14.3420  -57.0430   38.3250 C   0  0  0  0  0  2  0  0  0  0  0  0
   15.4510  -56.3510   39.0910 C   0  0  0  0  0  2  0  0  0  0  0  0
   13.9430  -58.0800   36.1190 C   0  0  0  0  0  0  0  0  0  0  0  0
   12.7870  -58.3970   36.4520 O   0  0  0  0  0  0  0  0  0  0  0  0
   14.4240  -58.2020   34.7280 C   0  0  1  0  0  3  0  0  0  0  0  0
   15.7070  -58.8380   34.7860 N   0  0  0  0  0  0  0  0  0  0  0  0
   16.6680  -58.3030   35.6790 C   0  0  0  0  0  0  0  0  0  0  0  0
   17.9150  -58.3990   35.4500 O   0  0  0  0  0  0  0  0  0  0  0  0
   15.9520  -59.6720   34.1960 H   0  0  0  0  0  0  0  0  0  0  0  0
   17.5500  -53.3080   38.0810 C   0  0  0  0  0  0  0  0  0  0  0  0
   17.2760  -51.9650   38.0040 C   0  0  0  0  0  3  0  0  0  0  0  0
   18.1050  -51.0300   37.3830 C   0  0  0  0  0  3  0  0  0  0  0  0
   19.2650  -51.4390   36.8110 C   0  0  0  0  0  0  0  0  0  0  0  0
   20.3450  -50.2850   36.0130 Cl  0  0  0  0  0  0  0  0  0  0  0  0
   19.6000  -52.7680   36.8540 C   0  0  0  0  0  3  0  0  0  0  0  0
   18.7640  -53.6740   37.4720 C   0  0  0  0  0  3  0  0  0  0  0  0
   13.4510  -58.8280   33.8040 C   0  0  0  0  0  2  0  0  0  0  0  0
   14.0100  -60.0700   33.2460 C   0  0  0  0  0  0  0  0  0  0  0  0
   14.8970  -60.2170   32.2600 N   0  0  0  0  0  0  0  0  0  0  0  0
   15.1370  -61.5470   32.0650 C   0  0  0  0  0  3  0  0  0  0  0  0
   14.3980  -62.2450   32.9290 N   0  0  0  0  0  0  0  0  0  0  0  0
   13.7030  -61.3680   33.6600 C   0  0  0  0  0  3  0  0  0  0  0  0
   14.3660  -63.2640   33.0200 H   0  0  0  0  0  0  0  0  0  0  0  0
  1  2  2  0  0  0  0
  3  1  1  0  0  0  0
  3  8  1  0  0  0  0
  4  3  1  0  0  0  0
  5  4  1  6  0  0  0
  5  6  1  0  0  0  0
  6  7  1  0  0  0  0
  7  8  1  0  0  0  0
  9 10  2  0  0  0  0
  9  6  1  0  0  0  0
 11 23  1  6  0  0  0
 11 12  1  0  0  0  0
 11  9  1  0  0  0  0
 12 13  1  0  0  0  0
 13  5  1  0  0  0  0
 14 13  2  0  0  0  0
 15 12  1  0  0  0  0
 16  1  1  0  0  0  0
 17 16  1  0  0  0  0
 18 17  2  0  0  0  0
 19 21  2  0  0  0  0
 19 18  1  0  0  0  0
 20 19  1  0  0  0  0
 21 22  1  0  0  0  0
 22 16  2  0  0  0  0
 24 28  2  0  0  0  0
 24 23  1  0  0  0  0
 25 24  1  0  0  0  0
 26 25  2  0  0  0  0
 26 27  1  0  0  0  0
 27 29  1  0  0  0  0
 27 28  1  0  0  0  0
M  END
>  <Pose>
1

>  <Score>
-9.194

$$$$
