/Users/jonathanwahrer/Desktop/Msc/3_Semester/Drug_Design_Praktikum/waehrer_HTS_screening/HTS_experiment/out/docking_results/vina_output/6s1j/1591_docked.pdbqt
 OpenBabel03222222133D

 26 29  0  0  0  0  0  0  0  0999 V2000
   17.1260  -56.1900   36.1390 Cl  0  0  0  0  0  0  0  0  0  0  0  0
   15.8070  -56.4970   37.2470 C   0  0  0  0  0  0  0  0  0  0  0  0
   15.6170  -55.6900   38.3330 C   0  0  0  0  0  0  0  0  0  0  0  0
   14.5430  -56.0390   39.1550 C   0  0  0  0  0  3  0  0  0  0  0  0
   13.7720  -57.0990   38.8660 N   0  0  0  0  0  0  0  0  0  0  0  0
   13.9370  -57.8870   37.8280 N   0  0  0  0  0  0  0  0  0  0  0  0
   14.9560  -57.5900   37.0110 C   0  0  0  0  0  0  0  0  0  0  0  0
   15.1950  -58.2850   35.9900 O   0  0  0  0  0  0  0  0  0  0  0  0
   16.4220  -54.5610   38.6170 N   0  0  0  0  0  0  0  0  0  0  0  0
   15.9230  -53.1980   38.5380 C   0  0  0  0  0  2  0  0  0  0  0  0
   16.6430  -52.4030   37.4790 C   0  0  0  0  0  2  0  0  0  0  0  0
   18.0370  -52.7640   37.5620 N   0  0  0  0  0  0  0  0  0  0  0  0
   18.5220  -53.2980   38.8080 C   0  0  0  0  0  2  0  0  0  0  0  0
   17.8280  -54.6670   38.9890 C   0  0  0  0  0  2  0  0  0  0  0  0
   18.9060  -52.5990   36.4570 C   0  0  0  0  0  0  0  0  0  0  0  0
   19.7340  -51.5450   36.2050 N   0  0  0  0  0  0  0  0  0  0  0  0
   20.3830  -51.7610   35.0790 N   0  0  0  0  0  0  0  0  0  0  0  0
   19.9870  -52.9340   34.6010 C   0  0  0  0  0  0  0  0  0  0  0  0
   19.1070  -53.4150   35.4390 O   0  0  0  0  0  0  0  0  0  0  0  0
   20.4200  -53.6360   33.3490 C   0  0  0  0  0  1  0  0  0  0  0  0
   13.0710  -58.9940   37.5940 C   0  0  0  0  0  0  0  0  0  0  0  0
   12.8270  -59.9640   38.5460 C   0  0  0  0  0  3  0  0  0  0  0  0
   11.9860  -61.0300   38.3090 C   0  0  0  0  0  3  0  0  0  0  0  0
   11.3510  -61.1670   37.0910 C   0  0  0  0  0  3  0  0  0  0  0  0
   11.5910  -60.2020   36.1360 C   0  0  0  0  0  3  0  0  0  0  0  0
   12.4340  -59.1340   36.3780 C   0  0  0  0  0  3  0  0  0  0  0  0
  1  2  1  0  0  0  0
  2  3  2  0  0  0  0
  3  9  1  0  0  0  0
  3  4  1  0  0  0  0
  5  4  2  0  0  0  0
  6  5  1  0  0  0  0
  7  2  1  0  0  0  0
  7  6  1  0  0  0  0
  8  7  2  0  0  0  0
  9 14  1  0  0  0  0
 10  9  1  0  0  0  0
 11 12  1  0  0  0  0
 11 10  1  0  0  0  0
 12 13  1  0  0  0  0
 13 14  1  0  0  0  0
 15 12  1  0  0  0  0
 16 15  2  0  0  0  0
 17 16  1  0  0  0  0
 18 17  2  0  0  0  0
 18 19  1  0  0  0  0
 19 15  1  0  0  0  0
 20 18  1  0  0  0  0
 21  6  1  0  0  0  0
 21 22  1  0  0  0  0
 23 22  2  0  0  0  0
 24 23  1  0  0  0  0
 25 26  1  0  0  0  0
 25 24  2  0  0  0  0
 26 21  2  0  0  0  0
M  END
>  <Pose>
1

>  <Score>
-8.980

$$$$
