/Users/jonathanwahrer/Desktop/Msc/3_Semester/Drug_Design_Praktikum/waehrer_HTS_screening/HTS_experiment/out/docking_results/vina_output/6s1j/1594_docked.pdbqt
 OpenBabel03222222143D

 27 30  0  0  0  0  0  0  0  0999 V2000
   15.5460  -57.5650   37.1620 C   0  0  0  0  0  0  0  0  0  0  0  0
   15.8100  -58.3990   38.1050 O   0  0  0  0  0  0  0  0  0  0  0  0
   14.7320  -58.0210   36.1440 N   0  0  0  0  0  0  0  0  0  0  0  0
   14.3290  -57.2190   35.0140 C   0  0  0  0  0  2  0  0  0  0  0  0
   14.9750  -57.7180   33.7380 C   0  0  0  0  0  2  0  0  0  0  0  0
   15.0450  -59.2180   33.7700 C   0  0  0  0  0  0  0  0  0  0  0  0
   14.6970  -59.9930   34.8420 C   0  0  0  0  0  0  0  0  0  0  0  0
   14.9100  -61.2750   34.4460 N   0  0  0  0  0  0  0  0  0  0  0  0
   15.3620  -61.3160   33.2140 N   0  0  0  0  0  0  0  0  0  0  0  0
   15.4670  -60.0690   32.7370 C   0  0  0  0  0  0  0  0  0  0  0  0
   15.8660  -59.6950   31.5870 O   0  0  0  0  0  0  0  0  0  0  0  0
   14.1990  -59.4050   36.1190 C   0  0  0  0  0  2  0  0  0  0  0  0
   14.7230  -62.0890   35.0810 H   0  0  0  0  0  0  0  0  0  0  0  0
   16.1350  -56.2410   37.2730 C   0  0  0  0  0  0  0  0  0  0  0  0
   15.8110  -55.2500   38.1040 N   0  0  0  0  0  0  0  0  0  0  0  0
   16.6090  -54.1970   37.8690 C   0  0  0  0  0  0  0  0  0  0  0  0
   17.4540  -54.5090   36.8800 N   0  0  0  0  0  0  0  0  0  0  0  0
   16.6230  -52.9440   38.5060 C   0  0  0  0  0  3  0  0  0  0  0  0
   18.3680  -53.5900   36.4630 C   0  0  0  0  0  3  0  0  0  0  0  0
   17.1940  -55.7620   36.4850 C   0  0  0  0  0  3  0  0  0  0  0  0
   18.4030  -52.3540   37.0690 C   0  0  0  0  0  0  0  0  0  0  0  0
   19.5620  -51.1390   36.5650 Cl  0  0  0  0  0  0  0  0  0  0  0  0
   17.5340  -52.0210   38.0940 C   0  0  0  0  0  3  0  0  0  0  0  0
   15.7150  -62.5040   32.4230 C   0  0  0  0  0  2  0  0  0  0  0  0
   16.9400  -63.1810   32.9910 C   0  0  0  0  0  2  0  0  0  0  0  0
   18.0990  -62.4490   32.7660 O   0  0  0  0  0  0  0  0  0  0  0  0
   18.1050  -62.0220   31.8580 H   0  0  0  0  0  0  0  0  0  0  0  0
  1 14  1  0  0  0  0
  1  2  2  0  0  0  0
  3  1  1  0  0  0  0
  4  3  1  0  0  0  0
  5  6  1  0  0  0  0
  5  4  1  0  0  0  0
  6  7  2  0  0  0  0
  7 12  1  0  0  0  0
  8  7  1  0  0  0  0
  8 13  1  0  0  0  0
  9  8  1  0  0  0  0
 10  9  1  0  0  0  0
 10  6  1  0  0  0  0
 11 10  2  0  0  0  0
 12  3  1  0  0  0  0
 14 15  1  0  0  0  0
 16 15  2  0  0  0  0
 16 18  1  0  0  0  0
 17 16  1  0  0  0  0
 19 17  1  0  0  0  0
 19 21  2  0  0  0  0
 20 17  1  0  0  0  0
 20 14  2  0  0  0  0
 21 23  1  0  0  0  0
 22 21  1  0  0  0  0
 23 18  2  0  0  0  0
 24 25  1  0  0  0  0
 24  9  1  0  0  0  0
 26 25  1  0  0  0  0
 27 26  1  0  0  0  0
M  END
>  <Pose>
1

>  <Score>
-8.493

$$$$
