/Users/jonathanwahrer/Desktop/Msc/3_Semester/Drug_Design_Praktikum/waehrer_HTS_screening/HTS_experiment/out/docking_results/vina_output/6s1j/1599_docked.pdbqt
 OpenBabel03222222143D

 30 33  0  0  1  0  0  0  0  0999 V2000
   17.4550  -56.3250   33.7840 C   0  0  0  0  0  0  0  0  0  0  0  0
   16.9360  -55.1730   33.5690 O   0  0  0  0  0  0  0  0  0  0  0  0
   16.7820  -57.5050   33.4390 N   0  0  0  0  0  0  0  0  0  0  0  0
   17.3270  -58.8050   33.6680 C   0  0  0  0  0  2  0  0  0  0  0  0
   16.2820  -59.8150   34.0460 C   0  0  0  0  0  2  0  0  0  0  0  0
   15.0070  -59.2280   34.6120 C   0  0  1  0  0  0  0  0  0  0  0  0
   14.0790  -60.3520   34.6120 N   0  0  0  0  0  0  0  0  0  0  0  0
   12.8550  -60.1480   35.2870 C   0  0  0  0  0  2  0  0  0  0  0  0
   12.7720  -59.0240   36.2530 C   0  0  0  0  0  2  0  0  0  0  0  0
   14.1080  -58.6970   36.8400 C   0  0  0  0  0  0  0  0  0  0  0  0
   14.4720  -58.3020   38.0590 N   0  0  0  0  0  0  0  0  0  0  0  0
   15.8120  -58.1570   38.0150 C   0  0  0  0  0  3  0  0  0  0  0  0
   16.2750  -58.4580   36.7820 N   0  0  0  0  0  0  0  0  0  0  0  0
   15.2000  -58.8040   36.0160 C   0  0  0  0  0  0  0  0  0  0  0  0
   14.4490  -58.0860   33.8020 C   0  0  0  0  0  2  0  0  0  0  0  0
   15.4530  -57.4810   32.8390 C   0  0  0  0  0  2  0  0  0  0  0  0
   13.9300  -60.5560   33.5820 H   0  0  0  0  0  0  0  0  0  0  0  0
   17.2650  -58.4260   36.4840 H   0  0  0  0  0  0  0  0  0  0  0  0
   18.8190  -56.2860   34.4250 C   0  0  0  0  0  2  0  0  0  0  0  0
   19.1330  -55.0140   34.8770 N   0  0  0  0  0  0  0  0  0  0  0  0
   19.4320  -53.8000   35.3080 C   0  0  0  0  0  0  0  0  0  0  0  0
   20.3630  -53.0160   34.9060 O   0  0  0  0  0  0  0  0  0  0  0  0
   20.1740  -54.9630   33.9670 H   0  0  0  0  0  0  0  0  0  0  0  0
   18.6010  -53.2140   36.4170 C   0  0  0  0  0  0  0  0  0  0  0  0
   17.5980  -53.9300   37.0140 C   0  0  0  0  0  3  0  0  0  0  0  0
   16.8170  -53.3680   38.0130 C   0  0  0  0  0  0  0  0  0  0  0  0
   15.4500  -54.3940   38.8130 Br  0  0  0  0  0  0  0  0  0  0  0  0
   17.0860  -52.0720   38.3760 C   0  0  0  0  0  3  0  0  0  0  0  0
   18.1000  -51.3530   37.7720 C   0  0  0  0  0  3  0  0  0  0  0  0
   18.8830  -51.9270   36.7660 C   0  0  0  0  0  3  0  0  0  0  0  0
  1 19  1  0  0  0  0
  2  1  2  0  0  0  0
  3  4  1  0  0  0  0
  3  1  1  0  0  0  0
  4  5  1  0  0  0  0
  5  6  1  0  0  0  0
  6 15  1  6  0  0  0
  6 14  1  0  0  0  0
  7  6  1  0  0  0  0
  7  8  1  0  0  0  0
  8  9  1  0  0  0  0
  9 10  1  0  0  0  0
 10 11  1  0  0  0  0
 12 11  2  0  0  0  0
 13 12  1  0  0  0  0
 14 13  1  0  0  0  0
 14 10  2  0  0  0  0
 16  3  1  0  0  0  0
 16 15  1  0  0  0  0
 17  7  1  0  0  0  0
 18 13  1  0  0  0  0
 19 20  1  0  0  0  0
 20 21  1  0  0  0  0
 21 24  1  0  0  0  0
 22 21  2  0  0  0  0
 23 20  1  0  0  0  0
 24 30  2  0  0  0  0
 24 25  1  0  0  0  0
 25 26  2  0  0  0  0
 26 28  1  0  0  0  0
 26 27  1  0  0  0  0
 29 28  2  0  0  0  0
 30 29  1  0  0  0  0
M  END
>  <Pose>
1

>  <Score>
-9.654

$$$$
