/Users/jonathanwahrer/Desktop/Msc/3_Semester/Drug_Design_Praktikum/waehrer_HTS_screening/HTS_experiment/out/docking_results/vina_output/6s1j/1612_docked.pdbqt
 OpenBabel03222222143D

 31 34  0  0  0  0  0  0  0  0999 V2000
   17.9340  -54.9890   33.8980 N   0  0  0  0  0  0  0  0  0  0  0  0
   17.9500  -55.5330   32.6640 C   0  0  0  0  0  0  0  0  0  0  0  0
   19.2420  -55.4410   32.2010 C   0  0  0  0  0  0  0  0  0  0  0  0
   19.9550  -54.8580   33.1440 N   0  0  0  0  0  0  0  0  0  0  0  0
   19.1650  -54.5700   34.2080 C   0  0  0  0  0  0  0  0  0  0  0  0
   19.5100  -55.9320   30.9590 N   0  0  0  0  0  0  0  0  0  0  0  0
   18.5580  -56.4900   30.2020 C   0  0  0  0  0  0  0  0  0  0  0  0
   18.8570  -56.9310   29.0570 O   0  0  0  0  0  0  0  0  0  0  0  0
   17.2880  -56.5990   30.6140 N   0  0  0  0  0  0  0  0  0  0  0  0
   16.9910  -56.1200   31.8450 C   0  0  0  0  0  0  0  0  0  0  0  0
   15.8080  -56.2210   32.2350 O   0  0  0  0  0  0  0  0  0  0  0  0
   20.8770  -55.8490   30.4510 C   0  0  0  0  0  1  0  0  0  0  0  0
   16.5760  -57.0420   29.9910 H   0  0  0  0  0  0  0  0  0  0  0  0
   19.6370  -53.9930   35.4350 N   0  0  0  0  0  0  0  0  0  0  0  0
   19.9370  -52.5470   35.4450 C   0  0  0  0  0  2  0  0  0  0  0  0
   19.1680  -51.8260   36.5040 C   0  0  0  0  0  2  0  0  0  0  0  0
   18.7730  -52.7230   37.5660 N   0  0  0  0  0  0  0  0  0  0  0  0
   19.6640  -53.8220   37.8750 C   0  0  0  0  0  2  0  0  0  0  0  0
   17.5600  -52.5210   38.2780 C   0  0  0  0  0  0  0  0  0  0  0  0
   19.8310  -54.7020   36.6490 C   0  0  0  0  0  2  0  0  0  0  0  0
   16.8200  -51.5500   38.0050 O   0  0  0  0  0  0  0  0  0  0  0  0
   17.1370  -53.4450   39.3570 C   0  0  0  0  0  2  0  0  0  0  0  0
   15.6110  -53.4290   39.3930 C   0  0  0  0  0  1  0  0  0  0  0  0
   16.7630  -54.9540   34.7140 C   0  0  0  0  0  2  0  0  0  0  0  0
   16.5530  -56.1240   35.5990 C   0  0  0  0  0  0  0  0  0  0  0  0
   15.9950  -56.0040   36.8410 C   0  0  0  0  0  3  0  0  0  0  0  0
   15.8730  -57.1420   37.6280 C   0  0  0  0  0  0  0  0  0  0  0  0
   15.1470  -56.9560   39.2230 Cl  0  0  0  0  0  0  0  0  0  0  0  0
   16.2860  -58.3910   37.2180 C   0  0  0  0  0  3  0  0  0  0  0  0
   16.8490  -58.4940   35.9580 C   0  0  0  0  0  3  0  0  0  0  0  0
   16.9820  -57.3930   35.1630 C   0  0  0  0  0  3  0  0  0  0  0  0
  1  5  1  0  0  0  0
  1 24  1  0  0  0  0
  2  1  1  0  0  0  0
  3  2  2  0  0  0  0
  3  4  1  0  0  0  0
  4  5  2  0  0  0  0
  5 14  1  0  0  0  0
  6  3  1  0  0  0  0
  7  9  1  0  0  0  0
  7  6  1  0  0  0  0
  8  7  2  0  0  0  0
  9 10  1  0  0  0  0
 10 11  2  0  0  0  0
 10  2  1  0  0  0  0
 12  6  1  0  0  0  0
 13  9  1  0  0  0  0
 14 15  1  0  0  0  0
 14 20  1  0  0  0  0
 15 16  1  0  0  0  0
 16 17  1  0  0  0  0
 17 18  1  0  0  0  0
 17 19  1  0  0  0  0
 19 22  1  0  0  0  0
 20 18  1  0  0  0  0
 21 19  2  0  0  0  0
 22 23  1  0  0  0  0
 24 25  1  0  0  0  0
 25 26  1  0  0  0  0
 26 27  2  0  0  0  0
 27 28  1  0  0  0  0
 29 27  1  0  0  0  0
 30 29  2  0  0  0  0
 31 25  2  0  0  0  0
 31 30  1  0  0  0  0
M  END
>  <Pose>
1

>  <Score>
-9.182

$$$$
