/Users/jonathanwahrer/Desktop/Msc/3_Semester/Drug_Design_Praktikum/waehrer_HTS_screening/HTS_experiment/out/docking_results/vina_output/6s1j/1622_docked.pdbqt
 OpenBabel03222222143D

 28 31  0  0  1  0  0  0  0  0999 V2000
   18.3920  -57.7170   33.8270 C   0  0  0  0  0  0  0  0  0  0  0  0
   19.1650  -58.4670   34.4780 O   0  0  0  0  0  0  0  0  0  0  0  0
   17.0830  -58.1200   33.4500 N   0  0  0  0  0  0  0  0  0  0  0  0
   16.6250  -59.4390   33.8300 C   0  0  0  0  0  2  0  0  0  0  0  0
   15.1120  -59.3700   33.9220 C   0  0  0  0  0  2  0  0  0  0  0  0
   14.6370  -58.0320   34.4440 C   0  0  1  0  0  0  0  0  0  0  0  0
   13.2200  -58.1540   34.7010 N   0  0  0  0  0  0  0  0  0  0  0  0
   13.0470  -58.6670   36.0130 C   0  0  0  0  0  0  0  0  0  0  0  0
   12.0210  -59.2380   36.5020 O   0  0  0  0  0  0  0  0  0  0  0  0
   14.2760  -58.4120   36.6990 N   0  0  0  0  0  0  0  0  0  0  0  0
   15.1720  -57.7530   35.8020 C   0  0  0  0  0  0  0  0  0  0  0  0
   16.1890  -57.0880   36.1350 O   0  0  0  0  0  0  0  0  0  0  0  0
   14.6110  -58.7480   38.0840 C   0  0  0  0  0  1  0  0  0  0  0  0
   14.9580  -56.9090   33.5040 C   0  0  0  0  0  2  0  0  0  0  0  0
   16.1660  -57.2900   32.7030 C   0  0  0  0  0  2  0  0  0  0  0  0
   12.4750  -57.9030   34.0240 H   0  0  0  0  0  0  0  0  0  0  0  0
   18.9220  -56.3960   33.4760 C   0  0  0  0  0  0  0  0  0  0  0  0
   19.3850  -56.1450   32.2030 C   0  0  0  0  0  0  0  0  0  0  0  0
   19.3270  -57.4470   31.0070 Cl  0  0  0  0  0  0  0  0  0  0  0  0
   19.8890  -54.9120   31.8440 C   0  0  0  0  0  3  0  0  0  0  0  0
   19.9120  -53.9350   32.8110 C   0  0  0  0  0  3  0  0  0  0  0  0
   19.4560  -54.1420   34.1030 C   0  0  0  0  0  0  0  0  0  0  0  0
   18.9620  -55.3900   34.4170 C   0  0  0  0  0  3  0  0  0  0  0  0
   19.5070  -53.0850   35.0600 N   0  0  0  0  0  0  0  0  0  0  0  0
   20.2360  -51.9960   35.0370 N   0  0  0  0  0  0  0  0  0  0  0  0
   19.9790  -51.2490   36.1500 C   0  0  0  0  0  3  0  0  0  0  0  0
   19.0380  -51.9160   36.9030 C   0  0  0  0  0  3  0  0  0  0  0  0
   18.7610  -53.0790   36.1780 C   0  0  0  0  0  3  0  0  0  0  0  0
  1  2  2  0  0  0  0
  3  1  1  0  0  0  0
  3  4  1  0  0  0  0
  4  5  1  0  0  0  0
  5  6  1  0  0  0  0
  6 14  1  6  0  0  0
  6  7  1  0  0  0  0
  6 11  1  0  0  0  0
  7  8  1  0  0  0  0
  8  9  2  0  0  0  0
  8 10  1  0  0  0  0
 10 13  1  0  0  0  0
 11 12  2  0  0  0  0
 11 10  1  0  0  0  0
 15  3  1  0  0  0  0
 15 14  1  0  0  0  0
 16  7  1  0  0  0  0
 17  1  1  0  0  0  0
 17 23  1  0  0  0  0
 18 17  2  0  0  0  0
 19 18  1  0  0  0  0
 20 18  1  0  0  0  0
 20 21  2  0  0  0  0
 21 22  1  0  0  0  0
 22 23  2  0  0  0  0
 22 24  1  0  0  0  0
 24 28  1  0  0  0  0
 25 24  1  0  0  0  0
 25 26  2  0  0  0  0
 26 27  1  0  0  0  0
 28 27  2  0  0  0  0
M  END
>  <Pose>
1

>  <Score>
-9.925

$$$$
