/Users/jonathanwahrer/Desktop/Msc/3_Semester/Drug_Design_Praktikum/waehrer_HTS_screening/HTS_experiment/out/docking_results/vina_output/6s1j/1624_docked.pdbqt
 OpenBabel03222222153D

 32 35  0  0  1  0  0  0  0  0999 V2000
   16.1810  -58.1190   35.5600 C   0  0  1  0  0  3  0  0  0  0  0  0
   14.7900  -58.4580   35.2060 N   0  0  0  0  0  0  0  0  0  0  0  0
   14.3950  -57.6300   34.1200 C   0  0  0  0  0  0  0  0  0  0  0  0
   13.2450  -57.3510   33.7720 O   0  0  0  0  0  0  0  0  0  0  0  0
   15.6270  -57.1500   33.4640 C   0  0  0  0  0  0  0  0  0  0  0  0
   15.7270  -56.3810   32.4550 O   0  0  0  0  0  0  0  0  0  0  0  0
   16.7240  -57.7380   34.2150 C   0  0  0  0  0  0  0  0  0  0  0  0
   17.9460  -57.8570   33.7600 C   0  0  0  0  0  0  0  0  0  0  0  0
   18.9080  -58.4000   34.6080 O   0  0  0  0  0  1  0  0  0  0  0  0
   14.0650  -59.4850   35.9080 C   0  0  0  0  0  2  0  0  0  0  0  0
   12.5950  -59.3110   35.9720 C   0  0  0  0  0  2  0  0  0  0  0  0
   11.9910  -59.0410   37.2240 N   0  0  0  0  0  4  0  0  0  0  0  0
   12.8090  -59.3980   38.3630 C   0  0  0  0  0  2  0  0  0  0  0  0
   12.1310  -60.3440   39.3250 C   0  0  0  0  0  2  0  0  0  0  0  0
   10.8600  -59.9810   39.6880 O   0  0  0  0  0  0  0  0  0  0  0  0
   10.0620  -59.6130   38.6220 C   0  0  0  0  0  2  0  0  0  0  0  0
   10.7870  -59.8900   37.3400 C   0  0  0  0  0  2  0  0  0  0  0  0
   11.6220  -58.0800   37.3070 H   0  0  0  0  0  0  0  0  0  0  0  0
   16.1900  -57.0150   36.5120 C   0  0  0  0  0  0  0  0  0  0  0  0
   15.4420  -57.0050   37.6450 C   0  0  0  0  0  3  0  0  0  0  0  0
   15.4540  -55.9610   38.5570 C   0  0  0  0  0  3  0  0  0  0  0  0
   16.2490  -54.8790   38.3220 C   0  0  0  0  0  0  0  0  0  0  0  0
   16.3120  -53.5340   39.4270 Cl  0  0  0  0  0  0  0  0  0  0  0  0
   17.0320  -54.8570   37.1650 C   0  0  0  0  0  3  0  0  0  0  0  0
   17.0030  -55.9060   36.2740 C   0  0  0  0  0  3  0  0  0  0  0  0
   18.4060  -57.4740   32.4300 C   0  0  0  0  0  0  0  0  0  0  0  0
   19.0060  -56.2250   32.3240 C   0  0  0  0  0  3  0  0  0  0  0  0
   19.4840  -55.8100   31.1130 C   0  0  0  0  0  3  0  0  0  0  0  0
   19.3810  -56.6080   29.9900 C   0  0  0  0  0  0  0  0  0  0  0  0
   18.7860  -57.8470   30.1000 C   0  0  0  0  0  3  0  0  0  0  0  0
   20.0010  -56.0390   28.4750 Cl  0  0  0  0  0  0  0  0  0  0  0  0
   18.3080  -58.2550   31.3290 C   0  0  0  0  0  3  0  0  0  0  0  0
  1 19  1  1  0  0  0
  2  1  1  0  0  0  0
  2 10  1  0  0  0  0
  3  2  1  0  0  0  0
  4  3  2  0  0  0  0
  5  3  1  0  0  0  0
  5  7  1  0  0  0  0
  6  5  2  0  0  0  0
  7  1  1  0  0  0  0
  8  7  2  0  0  0  0
  8  9  1  0  0  0  0
 10 11  1  0  0  0  0
 11 12  1  0  0  0  0
 12 18  1  0  0  0  0
 12 17  1  0  0  0  0
 12 13  1  0  0  0  0
 13 14  1  0  0  0  0
 14 15  1  0  0  0  0
 16 15  1  0  0  0  0
 17 16  1  0  0  0  0
 19 20  1  0  0  0  0
 20 21  2  0  0  0  0
 22 21  1  0  0  0  0
 22 23  1  0  0  0  0
 24 22  2  0  0  0  0
 25 19  2  0  0  0  0
 25 24  1  0  0  0  0
 26  8  1  0  0  0  0
 27 26  1  0  0  0  0
 28 27  2  0  0  0  0
 29 30  2  0  0  0  0
 29 28  1  0  0  0  0
 30 32  1  0  0  0  0
 31 29  1  0  0  0  0
 32 26  2  0  0  0  0
M  END
>  <Pose>
1

>  <Score>
-10.014

$$$$
