/Users/jonathanwahrer/Desktop/Msc/3_Semester/Drug_Design_Praktikum/waehrer_HTS_screening/HTS_experiment/out/docking_results/vina_output/6s1j/1630_docked.pdbqt
 OpenBabel03222222153D

 39 43  0  0  1  0  0  0  0  0999 V2000
   18.4960  -51.6760   37.0880 Cl  0  0  0  0  0  0  0  0  0  0  0  0
   17.7180  -53.2480   36.8480 C   0  0  0  0  0  0  0  0  0  0  0  0
   17.2000  -53.9300   37.9220 C   0  0  0  0  0  0  0  0  0  0  0  0
   16.5880  -55.1630   37.7360 C   0  0  0  0  0  0  0  0  0  0  0  0
   16.4640  -55.7620   36.5120 C   0  0  0  0  0  0  0  0  0  0  0  0
   17.0010  -55.0420   35.4330 C   0  0  0  0  0  3  0  0  0  0  0  0
   17.6100  -53.8180   35.6060 C   0  0  0  0  0  3  0  0  0  0  0  0
   15.7820  -57.0370   36.6630 C   0  0  1  0  0  0  0  0  0  0  0  0
   14.5280  -56.9650   35.9180 N   0  0  0  0  0  0  0  0  0  0  0  0
   14.8070  -57.7320   34.7350 C   0  0  1  0  0  3  0  0  0  0  0  0
   15.5320  -58.9310   35.3030 C   0  0  2  0  0  3  0  0  0  0  0  0
   16.5310  -58.2400   36.2060 C   0  0  1  0  0  3  0  0  0  0  0  0
   17.6930  -58.0250   35.3670 C   0  0  0  0  0  0  0  0  0  0  0  0
   18.6500  -57.2530   35.5970 O   0  0  0  0  0  0  0  0  0  0  0  0
   17.5880  -58.8410   34.2090 N   0  0  0  0  0  0  0  0  0  0  0  0
   16.3760  -59.5960   34.2790 C   0  0  0  0  0  0  0  0  0  0  0  0
   16.0290  -60.6170   33.6390 O   0  0  0  0  0  0  0  0  0  0  0  0
   15.4940  -57.1500   38.1120 C   0  0  0  0  0  0  0  0  0  0  0  0
   14.9040  -58.0950   38.7150 O   0  0  0  0  0  0  0  0  0  0  0  0
   16.0040  -55.9920   38.7330 N   0  0  0  0  0  0  0  0  0  0  0  0
   17.3110  -53.3200   39.2760 C   0  0  0  0  0  1  0  0  0  0  0  0
   14.2820  -55.9680   35.7410 H   0  0  0  0  0  0  0  0  0  0  0  0
   15.9500  -55.7900   39.7680 H   0  0  0  0  0  0  0  0  0  0  0  0
   13.5350  -58.1250   34.0170 C   0  0  0  0  0  2  0  0  0  0  0  0
   12.6780  -58.8670   35.0220 C   0  0  0  0  0  2  0  0  0  0  0  0
   12.3010  -60.2160   34.5330 C   0  0  0  0  0  0  0  0  0  0  0  0
   11.3120  -60.8090   35.0500 O   0  0  0  0  0  0  0  0  0  0  0  0
   13.0870  -60.7750   33.4900 N   0  0  0  0  0  0  0  0  0  0  0  0
   13.4420  -60.1430   32.7520 H   0  0  0  0  0  0  0  0  0  0  0  0
   13.2640  -61.8110   33.5280 H   0  0  0  0  0  0  0  0  0  0  0  0
   18.5070  -58.9590   33.0930 C   0  0  0  0  0  2  0  0  0  0  0  0
   18.4110  -57.8140   32.1700 C   0  0  0  0  0  0  0  0  0  0  0  0
   17.5990  -57.9440   31.0630 C   0  0  0  0  0  0  0  0  0  0  0  0
   17.5140  -56.8620   30.1980 C   0  0  0  0  0  3  0  0  0  0  0  0
   18.2060  -55.7060   30.4260 C   0  0  0  0  0  3  0  0  0  0  0  0
   19.0040  -55.6150   31.5420 C   0  0  0  0  0  3  0  0  0  0  0  0
   19.1320  -56.6540   32.4380 C   0  0  0  0  0  3  0  0  0  0  0  0
   16.9110  -59.1200   30.8530 O   0  0  0  0  0  0  0  0  0  0  0  0
   16.9620  -59.8770   29.6850 C   0  0  0  0  0  1  0  0  0  0  0  0
  2  1  1  0  0  0  0
  2  3  1  0  0  0  0
  3 21  1  0  0  0  0
  4  3  2  0  0  0  0
  4 20  1  0  0  0  0
  5  4  1  0  0  0  0
  6  7  1  0  0  0  0
  6  5  2  0  0  0  0
  7  2  2  0  0  0  0
  8  5  1  6  0  0  0
  8 18  1  0  0  0  0
  9  8  1  0  0  0  0
 10 24  1  1  0  0  0
 10 11  1  0  0  0  0
 10  9  1  0  0  0  0
 11 16  1  6  0  0  0
 11 12  1  0  0  0  0
 12 13  1  6  0  0  0
 12  8  1  0  0  0  0
 13 14  2  0  0  0  0
 15 16  1  0  0  0  0
 15 13  1  0  0  0  0
 17 16  2  0  0  0  0
 18 19  2  0  0  0  0
 18 20  1  0  0  0  0
 20 23  1  0  0  0  0
 22  9  1  0  0  0  0
 24 25  1  0  0  0  0
 26 25  1  0  0  0  0
 26 27  2  0  0  0  0
 28 30  1  0  0  0  0
 28 26  1  0  0  0  0
 29 28  1  0  0  0  0
 31 15  1  0  0  0  0
 32 37  1  0  0  0  0
 32 31  1  0  0  0  0
 33 32  2  0  0  0  0
 34 35  2  0  0  0  0
 34 33  1  0  0  0  0
 35 36  1  0  0  0  0
 36 37  2  0  0  0  0
 38 33  1  0  0  0  0
 39 38  1  0  0  0  0
M  END
>  <Pose>
1

>  <Score>
-7.895

$$$$
