/Users/jonathanwahrer/Desktop/Msc/3_Semester/Drug_Design_Praktikum/waehrer_HTS_screening/HTS_experiment/out/docking_results/vina_output/6s1j/1637_docked.pdbqt
 OpenBabel03222222153D

 29 32  0  0  0  0  0  0  0  0999 V2000
   19.7940  -56.7620   30.4060 C   0  0  0  0  0  0  0  0  0  0  0  0
   19.3030  -57.8150   31.0690 N   0  0  0  0  0  0  0  0  0  0  0  0
   18.2060  -57.7850   31.8190 C   0  0  0  0  0  0  0  0  0  0  0  0
   17.5330  -56.5560   31.9180 C   0  0  0  0  0  0  0  0  0  0  0  0
   18.0330  -55.4970   31.2470 C   0  0  0  0  0  0  0  0  0  0  0  0
   19.1610  -55.6070   30.4910 N   0  0  0  0  0  0  0  0  0  0  0  0
   16.4150  -56.5380   32.8650 C   0  0  0  0  0  2  0  0  0  0  0  0
   16.9310  -57.0920   34.0790 N   0  0  0  0  0  0  0  0  0  0  0  0
   16.8870  -58.5970   33.8030 C   0  0  0  0  0  2  0  0  0  0  0  0
   17.6560  -58.9400   32.5770 C   0  0  0  0  0  2  0  0  0  0  0  0
   18.4060  -56.9230   34.3360 C   0  0  0  0  0  2  0  0  0  0  0  0
   18.3630  -55.6100   35.1230 C   0  0  0  0  0  0  0  0  0  0  0  0
   17.5900  -55.3590   36.1890 C   0  0  0  0  0  0  0  0  0  0  0  0
   17.5840  -54.1230   36.8910 C   0  0  0  0  0  0  0  0  0  0  0  0
   16.5790  -56.6310   36.7850 Cl  0  0  0  0  0  0  0  0  0  0  0  0
   18.4680  -53.1670   36.3830 C   0  0  0  0  0  0  0  0  0  0  0  0
   16.8210  -53.8240   37.9680 C   0  0  0  0  0  3  0  0  0  0  0  0
   18.5060  -51.9600   37.0170 C   0  0  0  0  0  3  0  0  0  0  0  0
   19.2230  -53.4030   35.3660 O   0  0  0  0  0  0  0  0  0  0  0  0
   17.7170  -51.6240   38.1390 C   0  0  0  0  0  3  0  0  0  0  0  0
   16.8480  -52.6220   38.6170 C   0  0  0  0  0  3  0  0  0  0  0  0
   19.2060  -54.5780   34.7180 C   0  0  0  0  0  0  0  0  0  0  0  0
   19.9610  -54.7950   33.6940 O   0  0  0  0  0  0  0  0  0  0  0  0
   17.3640  -54.2850   31.3330 O   0  0  0  0  0  0  0  0  0  0  0  0
   17.8000  -53.3770   31.1440 H   0  0  0  0  0  0  0  0  0  0  0  0
   21.3270  -56.9560   29.5340 S   0  0  0  0  0  0  0  0  0  0  0  0
   21.7780  -58.3300   29.5110 O   0  0  0  0  0  0  0  0  0  0  0  0
   22.3140  -56.0500   30.2060 O   0  0  0  0  0  0  0  0  0  0  0  0
   21.0240  -56.2860   27.8810 C   0  0  0  0  0  1  0  0  0  0  0  0
  1  6  1  0  0  0  0
  1  2  2  0  0  0  0
  2  3  1  0  0  0  0
  3  4  2  0  0  0  0
  3 10  1  0  0  0  0
  4  7  1  0  0  0  0
  5 24  1  0  0  0  0
  5  4  1  0  0  0  0
  6  5  2  0  0  0  0
  7  8  1  0  0  0  0
  8 11  1  0  0  0  0
  9  8  1  0  0  0  0
 10  9  1  0  0  0  0
 11 12  1  0  0  0  0
 12 13  2  0  0  0  0
 13 15  1  0  0  0  0
 13 14  1  0  0  0  0
 14 17  1  0  0  0  0
 16 14  2  0  0  0  0
 16 18  1  0  0  0  0
 17 21  2  0  0  0  0
 18 20  2  0  0  0  0
 19 16  1  0  0  0  0
 20 21  1  0  0  0  0
 22 12  1  0  0  0  0
 22 19  1  0  0  0  0
 23 22  2  0  0  0  0
 25 24  1  0  0  0  0
 26 28  2  0  0  0  0
 26  1  1  0  0  0  0
 27 26  2  0  0  0  0
 29 26  1  0  0  0  0
M  END
>  <Pose>
1

>  <Score>
-8.950

$$$$
