/Users/jonathanwahrer/Desktop/Msc/3_Semester/Drug_Design_Praktikum/waehrer_HTS_screening/HTS_experiment/out/docking_results/vina_output/6s1j/1638_docked.pdbqt
 OpenBabel03222222163D

 38 41  0  0  1  0  0  0  0  0999 V2000
   15.1230  -58.8590   33.9070 C   0  0  0  0  0  0  0  0  0  0  0  0
   13.7680  -58.6260   34.1000 C   0  0  0  0  0  0  0  0  0  0  0  0
   12.9420  -59.6650   34.3990 N   0  0  0  0  0  0  0  0  0  0  0  0
   13.3770  -60.9260   34.5200 C   0  0  0  0  0  0  0  0  0  0  0  0
   14.6880  -61.1580   34.3340 N   0  0  0  0  0  0  0  0  0  0  0  0
   15.5440  -60.1650   34.0370 C   0  0  0  0  0  3  0  0  0  0  0  0
   12.5110  -62.0120   34.8380 N   0  0  0  0  0  0  0  0  0  0  0  0
   13.0120  -63.3080   35.2250 C   0  0  0  0  0  2  0  0  0  0  0  0
   12.4770  -63.8140   36.5360 C   0  0  0  0  0  2  0  0  0  0  0  0
   11.1300  -63.2000   36.8820 C   0  0  2  0  0  0  0  0  0  0  0  0
   10.4580  -63.0130   35.5110 C   0  0  0  0  0  2  0  0  0  0  0  0
   11.0680  -61.8620   34.7830 C   0  0  0  0  0  2  0  0  0  0  0  0
   11.1890  -61.9760   37.5270 N   0  0  0  0  0  0  0  0  0  0  0  0
   12.1790  -61.6830   38.4880 C   0  0  0  0  0  2  0  0  0  0  0  0
   12.4780  -60.1770   38.3880 C   0  0  0  0  0  2  0  0  0  0  0  0
   11.2740  -59.5050   37.7860 C   0  0  0  0  0  2  0  0  0  0  0  0
    9.9760  -60.0780   38.2970 C   0  0  0  0  0  2  0  0  0  0  0  0
    9.9270  -61.5830   38.0920 C   0  0  0  0  0  2  0  0  0  0  0  0
   10.3310  -64.2300   37.5830 C   0  0  0  0  0  0  0  0  0  0  0  0
    9.1730  -64.5580   37.1560 O   0  0  0  0  0  0  0  0  0  0  0  0
   10.7710  -64.9000   38.7300 N   0  0  0  0  0  0  0  0  0  0  0  0
   10.3500  -64.6270   39.6590 H   0  0  0  0  0  0  0  0  0  0  0  0
   11.4800  -65.6590   38.7730 H   0  0  0  0  0  0  0  0  0  0  0  0
   13.3160  -57.3000   33.9730 N   0  0  0  0  0  0  0  0  0  0  0  0
   13.0670  -56.8600   33.0630 H   0  0  0  0  0  0  0  0  0  0  0  0
   13.2190  -56.7150   34.8280 H   0  0  0  0  0  0  0  0  0  0  0  0
   16.2260  -57.5550   33.5220 S   0  0  0  0  0  0  0  0  0  0  0  0
   17.5140  -58.0650   32.9630 O   0  0  0  0  0  0  0  0  0  0  0  0
   15.5200  -56.6350   32.5580 O   0  0  0  0  0  0  0  0  0  0  0  0
   16.5220  -56.6440   35.0110 C   0  0  0  0  0  0  0  0  0  0  0  0
   17.3220  -55.5200   34.9850 C   0  0  0  0  0  0  0  0  0  0  0  0
   17.5250  -54.8410   36.1680 C   0  0  0  0  0  3  0  0  0  0  0  0
   16.9480  -55.2650   37.3610 C   0  0  0  0  0  3  0  0  0  0  0  0
   16.1560  -56.3930   37.3450 C   0  0  0  0  0  0  0  0  0  0  0  0
   15.9340  -57.0930   36.1770 C   0  0  0  0  0  3  0  0  0  0  0  0
   15.4140  -56.9470   38.8530 Cl  0  0  0  0  0  0  0  0  0  0  0  0
   17.8720  -55.1340   33.7940 O   0  0  0  0  0  0  0  0  0  0  0  0
   19.2090  -54.7640   33.5990 C   0  0  0  0  0  1  0  0  0  0  0  0
  1  6  1  0  0  0  0
  1  2  2  0  0  0  0
  2  3  1  0  0  0  0
  3  4  2  0  0  0  0
  4  7  1  0  0  0  0
  5  4  1  0  0  0  0
  6  5  2  0  0  0  0
  7  8  1  0  0  0  0
  8  9  1  0  0  0  0
  9 10  1  0  0  0  0
 10 13  1  0  0  0  0
 10 19  1  1  0  0  0
 11 10  1  0  0  0  0
 12  7  1  0  0  0  0
 12 11  1  0  0  0  0
 13 18  1  0  0  0  0
 13 14  1  0  0  0  0
 15 14  1  0  0  0  0
 16 17  1  0  0  0  0
 16 15  1  0  0  0  0
 18 17  1  0  0  0  0
 19 21  1  0  0  0  0
 20 19  2  0  0  0  0
 21 23  1  0  0  0  0
 21 22  1  0  0  0  0
 24  2  1  0  0  0  0
 24 26  1  0  0  0  0
 25 24  1  0  0  0  0
 27  1  1  0  0  0  0
 27 30  1  0  0  0  0
 28 27  2  0  0  0  0
 29 27  2  0  0  0  0
 30 35  1  0  0  0  0
 31 30  2  0  0  0  0
 31 32  1  0  0  0  0
 32 33  2  0  0  0  0
 34 33  1  0  0  0  0
 34 36  1  0  0  0  0
 35 34  2  0  0  0  0
 37 31  1  0  0  0  0
 38 37  1  0  0  0  0
M  END
>  <Pose>
1

>  <Score>
-7.756

$$$$
