/Users/jonathanwahrer/Desktop/Msc/3_Semester/Drug_Design_Praktikum/waehrer_HTS_screening/HTS_experiment/out/docking_results/vina_output/6s1j/1651_docked.pdbqt
 OpenBabel03222222163D

 23 26  0  0  1  0  0  0  0  0999 V2000
   16.6910  -55.0690   38.3550 Cl  0  0  0  0  0  0  0  0  0  0  0  0
   16.9660  -55.3660   36.6360 C   0  0  0  0  0  0  0  0  0  0  0  0
   16.5990  -56.5470   36.0390 C   0  0  0  0  0  3  0  0  0  0  0  0
   16.8280  -56.7580   34.6710 C   0  0  0  0  0  0  0  0  0  0  0  0
   17.4190  -55.8050   33.8910 C   0  0  0  0  0  0  0  0  0  0  0  0
   17.7980  -54.5920   34.4950 C   0  0  0  0  0  3  0  0  0  0  0  0
   17.5590  -54.4180   35.8360 C   0  0  0  0  0  3  0  0  0  0  0  0
   17.5540  -56.2220   32.5430 N   0  0  0  0  0  0  0  0  0  0  0  0
   17.0110  -57.5290   32.4720 C   0  0  0  0  0  0  0  0  0  0  0  0
   16.9640  -58.2160   31.4090 O   0  0  0  0  0  0  0  0  0  0  0  0
   16.5260  -57.9290   33.8110 C   0  0  1  0  0  0  0  0  0  0  0  0
   17.3320  -59.1420   34.2230 C   0  0  0  0  0  2  0  0  0  0  0  0
   16.8380  -60.2560   33.3440 C   0  0  0  0  0  0  0  0  0  0  0  0
   17.5910  -60.9560   32.6420 O   0  0  0  0  0  0  0  0  0  0  0  0
   15.4240  -60.4830   33.3480 N   0  0  0  0  0  0  0  0  0  0  0  0
   14.5420  -59.3970   33.6000 C   0  0  0  0  0  0  0  0  0  0  0  0
   13.1870  -59.3020   33.6760 N   0  0  0  0  0  0  0  0  0  0  0  0
   12.8780  -58.0560   33.9430 N   0  0  0  0  0  0  0  0  0  0  0  0
   13.9800  -57.2990   34.0530 C   0  0  0  0  0  3  0  0  0  0  0  0
   15.0690  -58.1510   33.8320 C   0  0  0  0  0  0  0  0  0  0  0  0
   18.1440  -55.4400   31.4520 C   0  0  0  0  0  1  0  0  0  0  0  0
   15.0300  -61.4330   33.1700 H   0  0  0  0  0  0  0  0  0  0  0  0
   12.5500  -60.1200   33.5350 H   0  0  0  0  0  0  0  0  0  0  0  0
  2  1  1  0  0  0  0
  3  2  1  0  0  0  0
  4  3  2  0  0  0  0
  5  6  2  0  0  0  0
  5  4  1  0  0  0  0
  6  7  1  0  0  0  0
  7  2  2  0  0  0  0
  8  5  1  0  0  0  0
  9  8  1  0  0  0  0
  9 11  1  0  0  0  0
 10  9  2  0  0  0  0
 11 20  1  0  0  0  0
 11 12  1  1  0  0  0
 11  4  1  0  0  0  0
 13 15  1  0  0  0  0
 13 12  1  0  0  0  0
 14 13  2  0  0  0  0
 15 16  1  0  0  0  0
 16 17  1  0  0  0  0
 16 20  2  0  0  0  0
 17 18  1  0  0  0  0
 18 19  2  0  0  0  0
 20 19  1  0  0  0  0
 21  8  1  0  0  0  0
 22 15  1  0  0  0  0
 23 17  1  0  0  0  0
M  END
>  <Pose>
1

>  <Score>
-8.147

$$$$
