/Users/jonathanwahrer/Desktop/Msc/3_Semester/Drug_Design_Praktikum/waehrer_HTS_screening/HTS_experiment/out/docking_results/vina_output/6s1j/1657_docked.pdbqt
 OpenBabel03222222163D

 33 36  0  0  1  0  0  0  0  0999 V2000
   18.0900  -51.2670   37.7130 Cl  0  0  0  0  0  0  0  0  0  0  0  0
   18.2180  -52.7890   36.8220 C   0  0  0  0  0  0  0  0  0  0  0  0
   17.3730  -53.8380   37.1160 C   0  0  0  0  0  3  0  0  0  0  0  0
   17.4730  -55.0040   36.4290 C   0  0  0  0  0  0  0  0  0  0  0  0
   18.4330  -55.1520   35.4180 C   0  0  0  0  0  0  0  0  0  0  0  0
   19.2640  -54.0930   35.1420 C   0  0  0  0  0  3  0  0  0  0  0  0
   19.1750  -52.8930   35.8350 C   0  0  0  0  0  3  0  0  0  0  0  0
   18.5430  -56.3720   34.6920 N   0  0  0  0  0  0  0  0  0  0  0  0
   17.3700  -57.2240   34.5660 C   0  0  2  0  0  0  0  0  0  0  0  0
   16.8110  -57.3460   35.8930 N   0  0  0  0  0  0  0  0  0  0  0  0
   16.6270  -56.1710   36.6650 C   0  0  0  0  0  0  0  0  0  0  0  0
   15.7550  -56.0710   37.5670 O   0  0  0  0  0  0  0  0  0  0  0  0
   17.8070  -58.5600   34.0650 C   0  0  0  0  0  2  0  0  0  0  0  0
   17.8820  -58.6400   32.5580 C   0  0  0  0  0  2  0  0  0  0  0  0
   18.5860  -57.5100   31.9880 N   0  0  0  0  0  0  0  0  0  0  0  0
   18.1340  -56.1410   32.1390 C   0  0  0  0  0  0  0  0  0  0  0  0
   18.9240  -55.2690   31.7110 O   0  0  0  0  0  0  0  0  0  0  0  0
   16.8880  -55.6130   32.7190 C   0  0  0  0  0  2  0  0  0  0  0  0
   16.3010  -56.5670   33.7170 C   0  0  0  0  0  2  0  0  0  0  0  0
   19.4730  -56.5960   34.2810 H   0  0  0  0  0  0  0  0  0  0  0  0
   16.5350  -58.2550   36.3130 H   0  0  0  0  0  0  0  0  0  0  0  0
   19.7790  -57.6850   31.2650 C   0  0  0  0  0  2  0  0  0  0  0  0
   19.7890  -57.9560   29.8460 C   0  0  0  0  0  0  0  0  0  0  0  0
   21.0370  -58.0490   29.3840 O   0  0  0  0  0  0  0  0  0  0  0  0
   18.7590  -58.1270   28.9480 N   0  0  0  0  0  0  0  0  0  0  0  0
   19.0950  -58.3960   27.5260 C   0  0  0  0  0  2  0  0  0  0  0  0
   17.3750  -58.0980   29.2170 C   0  0  0  0  0  2  0  0  0  0  0  0
   18.1550  -59.5470   27.1340 C   0  0  0  0  0  2  0  0  0  0  0  0
   17.7010  -60.2610   28.2790 N   0  0  0  0  0  0  0  0  0  0  0  0
   16.8160  -59.5480   29.1510 C   0  0  0  0  0  2  0  0  0  0  0  0
   17.3610  -61.6280   28.0720 C   0  0  0  0  0  3  0  0  0  0  0  0
   17.0260  -62.3740   29.3480 C   0  0  0  0  0  1  0  0  0  0  0  0
   16.2500  -61.8290   27.0770 C   0  0  0  0  0  1  0  0  0  0  0  0
  2  3  1  0  0  0  0
  2  1  1  0  0  0  0
  4 11  1  0  0  0  0
  4  3  2  0  0  0  0
  5  4  1  0  0  0  0
  6  5  2  0  0  0  0
  6  7  1  0  0  0  0
  7  2  2  0  0  0  0
  8  5  1  0  0  0  0
  9 19  1  6  0  0  0
  9  8  1  0  0  0  0
  9 10  1  0  0  0  0
 10 21  1  0  0  0  0
 10 11  1  0  0  0  0
 11 12  2  0  0  0  0
 13  9  1  0  0  0  0
 14 13  1  0  0  0  0
 15 16  1  0  0  0  0
 15 14  1  0  0  0  0
 16 18  1  0  0  0  0
 17 16  2  0  0  0  0
 18 19  1  0  0  0  0
 20  8  1  0  0  0  0
 22 15  1  0  0  0  0
 23 22  1  0  0  0  0
 24 23  2  0  0  0  0
 25 27  1  0  0  0  0
 25 23  1  0  0  0  0
 26 25  1  0  0  0  0
 28 26  1  0  0  0  0
 28 29  1  0  0  0  0
 29 30  1  0  0  0  0
 30 27  1  0  0  0  0
 31 29  1  0  0  0  0
 31 32  1  0  0  0  0
 33 31  1  0  0  0  0
M  END
>  <Pose>
1

>  <Score>
-9.788

$$$$
