/Users/jonathanwahrer/Desktop/Msc/3_Semester/Drug_Design_Praktikum/waehrer_HTS_screening/HTS_experiment/out/docking_results/vina_output/6s1j/1660_docked.pdbqt
 OpenBabel03222222173D

 31 34  0  0  0  0  0  0  0  0999 V2000
   16.4280  -54.2160   38.2060 N   0  0  0  0  0  0  0  0  0  0  0  0
   15.6090  -53.8780   39.1650 N   0  0  0  0  0  0  0  0  0  0  0  0
   14.7700  -54.8640   39.4970 C   0  0  0  0  0  3  0  0  0  0  0  0
   15.0750  -55.9410   38.6760 C   0  0  0  0  0  0  0  0  0  0  0  0
   16.1230  -55.4920   37.8780 C   0  0  0  0  0  0  0  0  0  0  0  0
   16.6000  -56.3620   36.9840 N   0  0  0  0  0  0  0  0  0  0  0  0
   16.0910  -57.6080   36.8640 C   0  0  0  0  0  3  0  0  0  0  0  0
   15.0810  -58.0690   37.6180 N   0  0  0  0  0  0  0  0  0  0  0  0
   14.5690  -57.2120   38.5390 C   0  0  0  0  0  0  0  0  0  0  0  0
   13.6210  -57.5990   39.2680 O   0  0  0  0  0  0  0  0  0  0  0  0
   14.5350  -59.4240   37.5020 C   0  0  0  0  0  2  0  0  0  0  0  0
   13.1450  -59.4210   37.0110 C   0  0  0  0  0  0  0  0  0  0  0  0
   12.9170  -58.5950   36.0590 O   0  0  0  0  0  0  0  0  0  0  0  0
   12.0910  -60.2080   37.4680 N   0  0  0  0  0  0  0  0  0  0  0  0
   10.7340  -60.0510   36.9230 C   0  0  0  0  0  2  0  0  0  0  0  0
   12.2500  -61.2390   38.4700 C   0  0  0  0  0  2  0  0  0  0  0  0
    9.9080  -59.5430   38.1120 C   0  0  0  0  0  2  0  0  0  0  0  0
   10.0870  -60.4040   39.2510 N   0  0  0  0  0  0  0  0  0  0  0  0
   10.9130  -61.5840   39.0730 C   0  0  0  0  0  2  0  0  0  0  0  0
    9.5040  -60.1030   40.5010 C   0  0  0  0  0  0  0  0  0  0  0  0
    8.8330  -59.0090   40.5930 O   0  0  0  0  0  0  0  0  0  0  0  0
    9.5800  -60.8710   41.6410 O   0  0  0  0  0  0  0  0  0  0  0  0
   10.2120  -60.3640   42.8320 C   0  0  0  0  0  2  0  0  0  0  0  0
   11.7020  -60.3410   42.5420 C   0  0  0  0  0  1  0  0  0  0  0  0
   17.4510  -53.4210   37.6270 C   0  0  0  0  0  0  0  0  0  0  0  0
   18.5020  -53.9010   36.8890 C   0  0  0  0  0  3  0  0  0  0  0  0
   19.4620  -53.0380   36.3980 C   0  0  0  0  0  3  0  0  0  0  0  0
   19.4310  -51.6790   36.6100 C   0  0  0  0  0  0  0  0  0  0  0  0
   20.6270  -50.5760   36.0090 Cl  0  0  0  0  0  0  0  0  0  0  0  0
   18.3780  -51.1750   37.3520 C   0  0  0  0  0  3  0  0  0  0  0  0
   17.4300  -52.0520   37.8330 C   0  0  0  0  0  3  0  0  0  0  0  0
  1  2  1  0  0  0  0
  2  3  2  0  0  0  0
  4  3  1  0  0  0  0
  5  1  1  0  0  0  0
  5  4  2  0  0  0  0
  6  5  1  0  0  0  0
  7  6  2  0  0  0  0
  7  8  1  0  0  0  0
  8  9  1  0  0  0  0
  9  4  1  0  0  0  0
  9 10  2  0  0  0  0
 11  8  1  0  0  0  0
 12 14  1  0  0  0  0
 12 11  1  0  0  0  0
 13 12  2  0  0  0  0
 14 16  1  0  0  0  0
 15 14  1  0  0  0  0
 15 17  1  0  0  0  0
 16 19  1  0  0  0  0
 17 18  1  0  0  0  0
 18 20  1  0  0  0  0
 19 18  1  0  0  0  0
 20 21  2  0  0  0  0
 20 22  1  0  0  0  0
 22 23  1  0  0  0  0
 24 23  1  0  0  0  0
 25 31  1  0  0  0  0
 25  1  1  0  0  0  0
 26 25  2  0  0  0  0
 27 28  2  0  0  0  0
 27 26  1  0  0  0  0
 28 30  1  0  0  0  0
 29 28  1  0  0  0  0
 30 31  2  0  0  0  0
M  END
>  <Pose>
1

>  <Score>
-9.118

$$$$
