/Users/jonathanwahrer/Desktop/Msc/3_Semester/Drug_Design_Praktikum/waehrer_HTS_screening/HTS_experiment/out/docking_results/vina_output/6s1j/1673_docked.pdbqt
 OpenBabel03222222173D

 35 38  0  0  1  0  0  0  0  0999 V2000
   19.5950  -55.3100   33.1850 C   0  0  2  0  0  3  0  0  0  0  0  0
   18.6010  -55.5940   34.2790 C   0  0  1  0  0  3  0  0  0  0  0  0
   18.2150  -54.3640   34.8110 N   0  0  0  0  0  0  0  0  0  0  0  0
   19.5000  -53.6250   34.8280 C   0  0  0  0  0  0  0  0  0  0  0  0
   19.8680  -52.7600   35.6680 O   0  0  0  0  0  0  0  0  0  0  0  0
   20.2640  -54.0870   33.6800 C   0  0  0  0  0  0  0  0  0  0  0  0
   21.2990  -53.5320   33.2150 O   0  0  0  0  0  0  0  0  0  0  0  0
   17.7610  -56.7490   34.0830 C   0  0  0  0  0  0  0  0  0  0  0  0
   16.4390  -56.7240   33.7660 C   0  0  0  0  0  3  0  0  0  0  0  0
   15.7220  -57.8950   33.5790 C   0  0  0  0  0  0  0  0  0  0  0  0
   16.3770  -59.1280   33.7220 C   0  0  0  0  0  0  0  0  0  0  0  0
   17.7050  -59.1510   34.0410 C   0  0  0  0  0  3  0  0  0  0  0  0
   18.4070  -58.0010   34.2230 C   0  0  0  0  0  3  0  0  0  0  0  0
   15.7100  -60.3240   33.5480 O   0  0  0  0  0  1  0  0  0  0  0  0
   19.0110  -55.0960   31.8610 C   0  0  0  0  0  0  0  0  0  0  0  0
   18.2740  -54.0700   31.6570 O   0  0  0  0  0  0  0  0  0  0  0  0
   19.1850  -55.9590   30.7010 C   0  0  0  0  0  0  0  0  0  0  0  0
   20.2300  -55.7940   29.8210 C   0  0  0  0  0  3  0  0  0  0  0  0
   20.3050  -56.6420   28.7200 C   0  0  0  0  0  3  0  0  0  0  0  0
   19.3960  -57.6350   28.4640 C   0  0  0  0  0  0  0  0  0  0  0  0
   19.5650  -58.7730   26.9180 Br  0  0  0  0  0  0  0  0  0  0  0  0
   18.3470  -57.8050   29.3440 C   0  0  0  0  0  3  0  0  0  0  0  0
   18.2720  -56.9670   30.4320 C   0  0  0  0  0  3  0  0  0  0  0  0
   17.1020  -53.6980   35.4120 C   0  0  0  0  0  2  0  0  0  0  0  0
   17.1800  -53.4170   36.8640 C   0  0  0  0  0  2  0  0  0  0  0  0
   17.4440  -54.4160   37.8100 N   0  0  0  0  0  4  0  0  0  0  0  0
   17.7370  -53.8780   39.1450 C   0  0  0  0  0  2  0  0  0  0  0  0
   16.5800  -53.1460   39.7390 C   0  0  0  0  0  2  0  0  0  0  0  0
   15.4640  -53.3250   38.9540 O   0  0  0  0  0  0  0  0  0  0  0  0
   15.2530  -54.7070   38.8190 C   0  0  0  0  0  2  0  0  0  0  0  0
   16.2900  -55.3280   37.9070 C   0  0  0  0  0  2  0  0  0  0  0  0
   18.2370  -55.0000   37.5560 H   0  0  0  0  0  0  0  0  0  0  0  0
   14.4030  -57.9030   33.2590 O   0  0  0  0  0  0  0  0  0  0  0  0
   13.3750  -57.6690   34.1670 C   0  0  0  0  0  2  0  0  0  0  0  0
   12.8080  -58.9340   34.7860 C   0  0  0  0  0  1  0  0  0  0  0  0
  1 15  1  6  0  0  0
  1  6  1  0  0  0  0
  1  2  1  0  0  0  0
  2  8  1  6  0  0  0
  2  3  1  0  0  0  0
  3  4  1  0  0  0  0
  3 24  1  0  0  0  0
  4  5  2  0  0  0  0
  6  4  1  0  0  0  0
  7  6  2  0  0  0  0
  8 13  1  0  0  0  0
  9  8  2  0  0  0  0
 10 11  2  0  0  0  0
 10  9  1  0  0  0  0
 11 12  1  0  0  0  0
 12 13  2  0  0  0  0
 14 11  1  0  0  0  0
 16 15  2  0  0  0  0
 17 15  1  0  0  0  0
 18 17  2  0  0  0  0
 19 18  1  0  0  0  0
 20 19  2  0  0  0  0
 20 22  1  0  0  0  0
 21 20  1  0  0  0  0
 22 23  2  0  0  0  0
 23 17  1  0  0  0  0
 24 25  1  0  0  0  0
 25 26  1  0  0  0  0
 26 31  1  0  0  0  0
 26 27  1  0  0  0  0
 27 28  1  0  0  0  0
 29 28  1  0  0  0  0
 30 29  1  0  0  0  0
 31 30  1  0  0  0  0
 32 26  1  0  0  0  0
 33 10  1  0  0  0  0
 33 34  1  0  0  0  0
 34 35  1  0  0  0  0
M  END
>  <Pose>
1

>  <Score>
-8.410

$$$$
