/Users/jonathanwahrer/Desktop/Msc/3_Semester/Drug_Design_Praktikum/waehrer_HTS_screening/HTS_experiment/out/docking_results/vina_output/6s1j/1676_docked.pdbqt
 OpenBabel03222222173D

 25 28  0  0  0  0  0  0  0  0999 V2000
   17.8210  -55.2040   34.9230 C   0  0  0  0  0  0  0  0  0  0  0  0
   18.6970  -56.0890   34.8760 O   0  0  0  0  0  0  0  0  0  0  0  0
   16.6310  -55.3810   34.1720 N   0  0  0  0  0  0  0  0  0  0  0  0
   15.8960  -54.6550   34.2020 H   0  0  0  0  0  0  0  0  0  0  0  0
   18.0600  -54.0260   35.7480 C   0  0  0  0  0  0  0  0  0  0  0  0
   19.0660  -53.1530   35.3700 C   0  0  0  0  0  0  0  0  0  0  0  0
   19.3110  -52.0370   36.1320 C   0  0  0  0  0  0  0  0  0  0  0  0
   19.9420  -53.1450   34.3300 N   0  0  0  0  0  0  0  0  0  0  0  0
   18.5530  -51.8070   37.2560 C   0  0  0  0  0  3  0  0  0  0  0  0
   20.3320  -51.3800   35.5310 N   0  0  0  0  0  0  0  0  0  0  0  0
   17.5510  -52.6730   37.6390 C   0  0  0  0  0  0  0  0  0  0  0  0
   16.5140  -52.3270   39.2070 Br  0  0  0  0  0  0  0  0  0  0  0  0
   17.3000  -53.7880   36.8840 C   0  0  0  0  0  3  0  0  0  0  0  0
   20.6760  -52.0760   34.4620 N   0  0  0  0  0  0  0  0  0  0  0  0
   19.9420  -53.9020   33.6150 H   0  0  0  0  0  0  0  0  0  0  0  0
   16.4210  -56.5560   33.3630 C   0  0  0  0  0  2  0  0  0  0  0  0
   15.1950  -57.2750   33.8570 C   0  0  0  0  0  0  0  0  0  0  0  0
   15.0990  -58.0580   34.9440 N   0  0  0  0  0  0  0  0  0  0  0  0
   13.8430  -58.5350   35.0770 C   0  0  0  0  0  0  0  0  0  0  0  0
   16.0520  -58.4640   35.9520 C   0  0  0  0  0  2  0  0  0  0  0  0
   13.1480  -58.0360   34.0480 N   0  0  0  0  0  0  0  0  0  0  0  0
   13.5940  -59.4220   36.2470 C   0  0  0  0  0  2  0  0  0  0  0  0
   13.9650  -57.2720   33.3070 N   0  0  0  0  0  0  0  0  0  0  0  0
   14.0710  -58.6090   37.4590 C   0  0  0  0  0  2  0  0  0  0  0  0
   15.4780  -58.1300   37.3120 C   0  0  0  0  0  2  0  0  0  0  0  0
  1  5  1  0  0  0  0
  2  1  2  0  0  0  0
  3  4  1  0  0  0  0
  3  1  1  0  0  0  0
  5 13  1  0  0  0  0
  6  5  2  0  0  0  0
  6  7  1  0  0  0  0
  7  9  2  0  0  0  0
  8 14  1  0  0  0  0
  8  6  1  0  0  0  0
  9 11  1  0  0  0  0
 10  7  1  0  0  0  0
 11 12  1  0  0  0  0
 13 11  2  0  0  0  0
 14 10  2  0  0  0  0
 15  8  1  0  0  0  0
 16 17  1  0  0  0  0
 16  3  1  0  0  0  0
 17 18  1  0  0  0  0
 18 19  1  0  0  0  0
 18 20  1  0  0  0  0
 19 22  1  0  0  0  0
 20 25  1  0  0  0  0
 21 19  2  0  0  0  0
 22 24  1  0  0  0  0
 23 17  2  0  0  0  0
 23 21  1  0  0  0  0
 25 24  1  0  0  0  0
M  END
>  <Pose>
1

>  <Score>
-9.549

$$$$
