/Users/jonathanwahrer/Desktop/Msc/3_Semester/Drug_Design_Praktikum/waehrer_HTS_screening/HTS_experiment/out/docking_results/vina_output/6s1j/1689_docked.pdbqt
 OpenBabel03222222183D

 32 35  0  0  1  0  0  0  0  0999 V2000
   16.8150  -58.2090   33.0130 C   0  0  0  0  0  0  0  0  0  0  0  0
   16.5770  -57.8130   31.8450 O   0  0  0  0  0  0  0  0  0  0  0  0
   15.7560  -58.7580   33.7650 N   0  0  0  0  0  0  0  0  0  0  0  0
   15.7260  -59.2790   35.1160 C   0  0  0  0  0  2  0  0  0  0  0  0
   14.4480  -58.7970   35.6390 C   0  0  2  0  0  3  0  0  0  0  0  0
   13.6500  -58.2500   34.4520 C   0  0  1  0  0  3  0  0  0  0  0  0
   14.4080  -58.9180   33.2850 C   0  0  0  0  0  2  0  0  0  0  0  0
   18.1930  -58.0730   33.5310 C   0  0  0  0  0  2  0  0  0  0  0  0
   18.9010  -56.9440   32.8460 C   0  0  0  0  0  2  0  0  0  0  0  0
   19.1060  -55.8040   33.7600 C   0  0  0  0  0  0  0  0  0  0  0  0
   19.5100  -54.5570   33.3910 N   0  0  0  0  0  0  0  0  0  0  0  0
   19.6150  -53.7450   34.4540 C   0  0  0  0  0  0  0  0  0  0  0  0
   19.7250  -54.2190   32.4200 H   0  0  0  0  0  0  0  0  0  0  0  0
   19.9740  -52.4200   34.6370 C   0  0  0  0  0  3  0  0  0  0  0  0
   19.2640  -54.4990   35.5480 C   0  0  0  0  0  0  0  0  0  0  0  0
   19.9810  -51.8550   35.9050 C   0  0  0  0  0  0  0  0  0  0  0  0
   20.4390  -50.1820   36.1140 Cl  0  0  0  0  0  0  0  0  0  0  0  0
   19.6300  -52.6070   37.0050 C   0  0  0  0  0  3  0  0  0  0  0  0
   19.2730  -53.9330   36.8040 C   0  0  0  0  0  3  0  0  0  0  0  0
   18.9640  -55.7280   35.1100 N   0  0  0  0  0  0  0  0  0  0  0  0
   14.3810  -57.9280   36.7490 N   0  0  0  0  0  0  0  0  0  0  0  0
   15.3810  -57.0170   36.8930 C   0  0  0  0  0  3  0  0  0  0  0  0
   15.4050  -56.1240   37.9410 C   0  0  0  0  0  0  0  0  0  0  0  0
   14.4020  -56.1320   38.8820 C   0  0  0  0  0  0  0  0  0  0  0  0
   16.5140  -55.1240   38.0850 C   0  0  0  0  0  1  0  0  0  0  0  0
   14.4000  -55.3210   39.8560 O   0  0  0  0  0  0  0  0  0  0  0  0
   13.4160  -57.0310   38.7390 N   0  0  0  0  0  0  0  0  0  0  0  0
   13.4460  -57.8720   37.7020 C   0  0  0  0  0  0  0  0  0  0  0  0
   12.6270  -57.0600   39.4560 H   0  0  0  0  0  0  0  0  0  0  0  0
   12.5030  -58.6840   37.6190 O   0  0  0  0  0  0  0  0  0  0  0  0
   12.3330  -58.6350   34.4650 O   0  0  0  0  0  0  0  0  0  0  0  0
   12.1480  -59.1340   33.6300 H   0  0  0  0  0  0  0  0  0  0  0  0
  1  8  1  0  0  0  0
  1  3  1  0  0  0  0
  2  1  2  0  0  0  0
  3  4  1  0  0  0  0
  5  4  1  6  0  0  0
  5 21  1  0  0  0  0
  6 31  1  1  0  0  0
  6  5  1  0  0  0  0
  7  3  1  0  0  0  0
  7  6  1  0  0  0  0
  9  8  1  0  0  0  0
  9 10  1  0  0  0  0
 10 20  2  0  0  0  0
 11 10  1  0  0  0  0
 11 12  1  0  0  0  0
 12 14  2  0  0  0  0
 12 15  1  0  0  0  0
 13 11  1  0  0  0  0
 14 16  1  0  0  0  0
 15 19  2  0  0  0  0
 16 17  1  0  0  0  0
 16 18  2  0  0  0  0
 19 18  1  0  0  0  0
 20 15  1  0  0  0  0
 21 22  1  0  0  0  0
 21 28  1  0  0  0  0
 22 23  2  0  0  0  0
 23 25  1  0  0  0  0
 23 24  1  0  0  0  0
 24 26  2  0  0  0  0
 27 24  1  0  0  0  0
 27 29  1  0  0  0  0
 28 27  1  0  0  0  0
 30 28  2  0  0  0  0
 32 31  1  0  0  0  0
M  END
>  <Pose>
1

>  <Score>
-9.934

$$$$
