/Users/jonathanwahrer/Desktop/Msc/3_Semester/Drug_Design_Praktikum/waehrer_HTS_screening/HTS_experiment/out/docking_results/vina_output/6s1j/1699_docked.pdbqt
 OpenBabel03222222193D

 31 34  0  0  1  0  0  0  0  0999 V2000
   20.3410  -54.6740   36.0760 Cl  0  0  0  0  0  0  0  0  0  0  0  0
   18.9920  -55.0780   35.0650 C   0  0  0  0  0  0  0  0  0  0  0  0
   18.0450  -56.0050   35.4770 C   0  0  0  0  0  3  0  0  0  0  0  0
   16.9660  -56.3360   34.6830 C   0  0  0  0  0  0  0  0  0  0  0  0
   16.8510  -55.7220   33.4680 C   0  0  0  0  0  0  0  0  0  0  0  0
   17.7830  -54.7820   33.0170 C   0  0  0  0  0  3  0  0  0  0  0  0
   18.8480  -54.4740   33.8340 C   0  0  0  0  0  3  0  0  0  0  0  0
   15.6960  -56.2050   32.7930 N   0  0  0  0  0  0  0  0  0  0  0  0
   15.0680  -57.1650   33.6280 C   0  0  0  0  0  0  0  0  0  0  0  0
   14.0220  -57.7860   33.2500 O   0  0  0  0  0  0  0  0  0  0  0  0
   15.8340  -57.2420   34.8650 C   0  0  2  0  0  0  0  0  0  0  0  0
   15.0280  -56.8790   36.0340 N   0  0  0  0  0  0  0  0  0  0  0  0
   14.2290  -58.0720   36.2030 C   0  0  1  0  0  3  0  0  0  0  0  0
   15.1360  -59.2280   35.9260 C   0  0  2  0  0  3  0  0  0  0  0  0
   16.3170  -58.5940   35.2550 C   0  0  1  0  0  3  0  0  0  0  0  0
   16.7150  -59.4620   34.1200 C   0  0  0  0  0  0  0  0  0  0  0  0
   17.7600  -59.2340   33.4570 O   0  0  0  0  0  0  0  0  0  0  0  0
   15.7380  -60.4830   33.9960 N   0  0  0  0  0  0  0  0  0  0  0  0
   14.6320  -60.1170   34.8300 C   0  0  0  0  0  0  0  0  0  0  0  0
   13.4490  -60.4510   34.7120 O   0  0  0  0  0  0  0  0  0  0  0  0
   15.3560  -55.9010   31.8330 H   0  0  0  0  0  0  0  0  0  0  0  0
   15.7030  -56.8360   36.8310 H   0  0  0  0  0  0  0  0  0  0  0  0
   13.5780  -58.1430   37.5600 C   0  0  2  0  0  3  0  0  0  0  0  0
   13.9690  -56.9920   38.4510 C   0  0  0  0  0  1  0  0  0  0  0  0
   13.9480  -59.3480   38.1450 O   0  0  0  0  0  0  0  0  0  0  0  0
   13.8280  -60.1210   37.5360 H   0  0  0  0  0  0  0  0  0  0  0  0
   15.8300  -61.6500   33.2050 C   0  0  0  0  0  2  0  0  0  0  0  0
   15.2340  -61.6550   31.8520 C   0  0  0  0  0  2  0  0  0  0  0  0
   16.0790  -61.2120   30.7210 C   0  0  0  0  0  2  0  0  0  0  0  0
   16.2060  -59.8410   30.5550 O   0  0  0  0  0  0  0  0  0  0  0  0
   17.4570  -59.6060   29.9350 C   0  0  0  0  0  1  0  0  0  0  0  0
  2  3  1  0  0  0  0
  2  1  1  0  0  0  0
  4 11  1  0  0  0  0
  4  3  2  0  0  0  0
  5  4  1  0  0  0  0
  6  5  2  0  0  0  0
  6  7  1  0  0  0  0
  7  2  2  0  0  0  0
  8  5  1  0  0  0  0
  8  9  1  0  0  0  0
 10  9  2  0  0  0  0
 11  9  1  6  0  0  0
 11 15  1  0  0  0  0
 11 12  1  0  0  0  0
 12 13  1  0  0  0  0
 12 22  1  0  0  0  0
 13 23  1  1  0  0  0
 14 19  1  6  0  0  0
 14 13  1  0  0  0  0
 15 16  1  6  0  0  0
 15 14  1  0  0  0  0
 17 16  2  0  0  0  0
 18 16  1  0  0  0  0
 18 19  1  0  0  0  0
 20 19  2  0  0  0  0
 21  8  1  0  0  0  0
 23 25  1  0  0  0  0
 23 24  1  1  0  0  0
 26 25  1  0  0  0  0
 27 18  1  0  0  0  0
 28 27  1  0  0  0  0
 29 28  1  0  0  0  0
 30 29  1  0  0  0  0
 31 30  1  0  0  0  0
M  END
>  <Pose>
1

>  <Score>
-7.296

$$$$
