/Users/jonathanwahrer/Desktop/Msc/3_Semester/Drug_Design_Praktikum/waehrer_HTS_screening/HTS_experiment/out/docking_results/vina_output/6s1j/1711_docked.pdbqt
 OpenBabel03222222193D

 30 33  0  0  0  0  0  0  0  0999 V2000
   14.2400  -59.0010   35.3470 N   0  0  0  0  0  0  0  0  0  0  0  0
   13.7480  -58.1560   34.3160 C   0  0  0  0  0  2  0  0  0  0  0  0
   14.7880  -57.8080   33.2810 C   0  0  0  0  0  2  0  0  0  0  0  0
   16.1130  -57.7220   33.8370 N   0  0  0  0  0  0  0  0  0  0  0  0
   16.6030  -58.7970   34.6660 C   0  0  0  0  0  2  0  0  0  0  0  0
   15.4490  -59.6740   35.0420 C   0  0  0  0  0  2  0  0  0  0  0  0
   16.9620  -56.6130   33.6000 C   0  0  0  0  0  0  0  0  0  0  0  0
   16.5480  -55.6800   32.8860 O   0  0  0  0  0  0  0  0  0  0  0  0
   18.3240  -56.5320   34.1750 C   0  0  0  0  0  2  0  0  0  0  0  0
   18.5600  -55.2500   34.7720 N   0  0  0  0  0  0  0  0  0  0  0  0
   19.4850  -54.2340   34.4080 C   0  0  0  0  0  0  0  0  0  0  0  0
   20.2800  -54.3190   33.4470 O   0  0  0  0  0  0  0  0  0  0  0  0
   19.3320  -53.1220   35.3310 C   0  0  0  0  0  0  0  0  0  0  0  0
   18.3480  -53.4260   36.2420 C   0  0  0  0  0  0  0  0  0  0  0  0
   19.9690  -51.9100   35.4260 C   0  0  0  0  0  3  0  0  0  0  0  0
   18.0250  -52.5060   37.2300 C   0  0  0  0  0  3  0  0  0  0  0  0
   17.8480  -54.7550   35.9130 C   0  0  0  0  0  0  0  0  0  0  0  0
   18.6610  -51.2990   37.3220 C   0  0  0  0  0  3  0  0  0  0  0  0
   19.6610  -50.9770   36.4050 C   0  0  0  0  0  3  0  0  0  0  0  0
   16.9340  -55.3160   36.5720 O   0  0  0  0  0  0  0  0  0  0  0  0
   14.0210  -58.4750   36.9260 S   0  0  0  0  0  0  0  0  0  0  0  0
   15.2770  -58.7980   37.7240 O   0  0  0  0  0  0  0  0  0  0  0  0
   13.9370  -56.9610   36.9210 O   0  0  0  0  0  0  0  0  0  0  0  0
   12.6180  -59.0720   37.7280 C   0  0  0  0  0  0  0  0  0  0  0  0
   12.5550  -59.0540   39.1110 C   0  0  0  0  0  3  0  0  0  0  0  0
   11.4560  -59.5190   39.8040 C   0  0  0  0  0  3  0  0  0  0  0  0
   10.3920  -60.0140   39.0720 C   0  0  0  0  0  0  0  0  0  0  0  0
   10.4680  -60.0260   37.6950 C   0  0  0  0  0  3  0  0  0  0  0  0
    8.8260  -60.6790   39.9750 Br  0  0  0  0  0  0  0  0  0  0  0  0
   11.5610  -59.5640   36.9890 C   0  0  0  0  0  3  0  0  0  0  0  0
  1 21  1  0  0  0  0
  2  1  1  0  0  0  0
  3  4  1  0  0  0  0
  3  2  1  0  0  0  0
  4  5  1  0  0  0  0
  5  6  1  0  0  0  0
  6  1  1  0  0  0  0
  7  4  1  0  0  0  0
  7  9  1  0  0  0  0
  8  7  2  0  0  0  0
  9 10  1  0  0  0  0
 10 17  1  0  0  0  0
 11 10  1  0  0  0  0
 11 13  1  0  0  0  0
 12 11  2  0  0  0  0
 13 15  2  0  0  0  0
 13 14  1  0  0  0  0
 14 16  2  0  0  0  0
 15 19  1  0  0  0  0
 16 18  1  0  0  0  0
 17 14  1  0  0  0  0
 17 20  2  0  0  0  0
 19 18  2  0  0  0  0
 21 22  2  0  0  0  0
 21 24  1  0  0  0  0
 23 21  2  0  0  0  0
 24 25  1  0  0  0  0
 25 26  2  0  0  0  0
 27 26  1  0  0  0  0
 27 29  1  0  0  0  0
 28 27  2  0  0  0  0
 30 28  1  0  0  0  0
 30 24  2  0  0  0  0
M  END
>  <Pose>
1

>  <Score>
-9.686

$$$$
