/Users/jonathanwahrer/Desktop/Msc/3_Semester/Drug_Design_Praktikum/waehrer_HTS_screening/HTS_experiment/out/docking_results/vina_output/6s1j/1718_docked.pdbqt
 OpenBabel03222222193D

 34 38  0  0  1  0  0  0  0  0999 V2000
   19.1860  -55.4290   28.3150 Cl  0  0  0  0  0  0  0  0  0  0  0  0
   18.8200  -56.7040   29.4550 C   0  0  0  0  0  0  0  0  0  0  0  0
   18.2500  -56.3250   30.6720 C   0  0  0  0  0  0  0  0  0  0  0  0
   17.9470  -57.3000   31.5960 C   0  0  0  0  0  0  0  0  0  0  0  0
   18.2290  -58.6270   31.2660 C   0  0  0  0  0  3  0  0  0  0  0  0
   18.7930  -58.9910   30.0630 C   0  0  0  0  0  3  0  0  0  0  0  0
   19.0950  -58.0140   29.1370 C   0  0  0  0  0  3  0  0  0  0  0  0
   17.3630  -56.7100   32.8010 C   0  0  1  0  0  0  0  0  0  0  0  0
   16.0540  -57.2490   33.1160 N   0  0  0  0  0  0  0  0  0  0  0  0
   15.8630  -56.9820   34.5350 C   0  0  2  0  0  3  0  0  0  0  0  0
   17.2240  -57.0740   35.1680 C   0  0  1  0  0  3  0  0  0  0  0  0
   18.2090  -56.9250   34.0350 C   0  0  2  0  0  3  0  0  0  0  0  0
   19.0220  -55.7260   34.3580 C   0  0  0  0  0  0  0  0  0  0  0  0
   19.8540  -55.2500   33.5370 O   0  0  0  0  0  0  0  0  0  0  0  0
   18.6970  -55.2700   35.6610 N   0  0  0  0  0  0  0  0  0  0  0  0
   17.4470  -55.8460   36.0070 C   0  0  0  0  0  0  0  0  0  0  0  0
   16.6090  -55.4490   36.8650 O   0  0  0  0  0  0  0  0  0  0  0  0
   17.3250  -55.2650   32.5260 C   0  0  0  0  0  0  0  0  0  0  0  0
   16.8830  -54.3350   33.2960 O   0  0  0  0  0  0  0  0  0  0  0  0
   17.8720  -55.0750   31.2320 N   0  0  0  0  0  0  0  0  0  0  0  0
   15.9910  -58.2710   32.9070 H   0  0  0  0  0  0  0  0  0  0  0  0
   17.9870  -54.1450   30.7450 H   0  0  0  0  0  0  0  0  0  0  0  0
   14.9020  -57.9880   35.0960 C   0  0  0  0  0  2  0  0  0  0  0  0
   13.9080  -58.2950   34.0190 C   0  0  0  0  0  0  0  0  0  0  0  0
   13.2620  -57.3200   33.5550 O   0  0  0  0  0  0  0  0  0  0  0  0
   13.6890  -59.6080   33.5320 N   0  0  0  0  0  0  0  0  0  0  0  0
   14.4120  -60.0270   32.9150 H   0  0  0  0  0  0  0  0  0  0  0  0
   12.8500  -60.1800   33.7530 H   0  0  0  0  0  0  0  0  0  0  0  0
   19.4780  -54.4050   36.4690 C   0  0  0  0  0  2  0  0  0  0  0  0
   19.1340  -52.9690   36.4560 C   0  0  2  0  0  3  0  0  0  0  0  0
   20.2140  -52.1010   36.4110 O   0  0  0  0  0  0  0  0  0  0  0  0
   19.5640  -50.8720   36.2980 C   0  0  0  0  0  2  0  0  0  0  0  0
   18.4330  -50.9320   37.3320 C   0  0  0  0  0  2  0  0  0  0  0  0
   18.3330  -52.4450   37.5910 C   0  0  0  0  0  2  0  0  0  0  0  0
  1  2  1  0  0  0  0
  2  3  1  0  0  0  0
  3 20  1  0  0  0  0
  3  4  2  0  0  0  0
  5  4  1  0  0  0  0
  6  5  2  0  0  0  0
  7  2  2  0  0  0  0
  7  6  1  0  0  0  0
  8  4  1  6  0  0  0
  8  9  1  0  0  0  0
  8 12  1  0  0  0  0
  9 10  1  0  0  0  0
 10 23  1  1  0  0  0
 10 11  1  0  0  0  0
 11 16  1  1  0  0  0
 12 13  1  1  0  0  0
 12 11  1  0  0  0  0
 13 15  1  0  0  0  0
 14 13  2  0  0  0  0
 15 16  1  0  0  0  0
 15 29  1  0  0  0  0
 16 17  2  0  0  0  0
 18  8  1  0  0  0  0
 18 19  2  0  0  0  0
 20 18  1  0  0  0  0
 21  9  1  0  0  0  0
 22 20  1  0  0  0  0
 24 23  1  0  0  0  0
 25 24  2  0  0  0  0
 26 28  1  0  0  0  0
 26 24  1  0  0  0  0
 27 26  1  0  0  0  0
 30 29  1  1  0  0  0
 30 34  1  0  0  0  0
 31 30  1  0  0  0  0
 32 31  1  0  0  0  0
 32 33  1  0  0  0  0
 33 34  1  0  0  0  0
M  END
>  <Pose>
1

>  <Score>
-9.133

$$$$
