/Users/jonathanwahrer/Desktop/Msc/3_Semester/Drug_Design_Praktikum/waehrer_HTS_screening/HTS_experiment/out/docking_results/vina_output/6s1j/1721_docked.pdbqt
 OpenBabel03222222203D

 28 31  0  0  1  0  0  0  0  0999 V2000
   15.0270  -59.1230   34.7240 C   0  0  0  0  0  2  0  0  0  0  0  0
   15.6350  -59.1640   36.0000 N   0  0  0  0  0  0  0  0  0  0  0  0
   16.4550  -59.7510   36.1760 H   0  0  0  0  0  0  0  0  0  0  0  0
   15.0790  -58.3730   37.0770 C   0  0  0  0  0  0  0  0  0  0  0  0
   13.9850  -58.8940   37.7250 C   0  0  1  0  0  3  0  0  0  0  0  0
   13.4180  -58.1630   38.7650 C   0  0  0  0  0  0  0  0  0  0  0  0
   13.2380  -60.0050   37.6320 N   0  0  0  0  0  0  0  0  0  0  0  0
   13.9970  -56.9930   39.0530 N   0  0  0  0  0  4  0  0  0  0  0  0
   12.3740  -58.8590   39.2420 N   0  0  0  0  0  0  0  0  0  0  0  0
   15.0540  -56.4820   38.4350 C   0  0  0  0  0  0  0  0  0  0  0  0
   15.7280  -54.9400   38.8940 Cl  0  0  0  0  0  0  0  0  0  0  0  0
   15.6040  -57.1910   37.4240 N   0  0  0  0  0  0  0  0  0  0  0  0
   12.2520  -60.0040   38.5480 C   0  0  0  0  0  3  0  0  0  0  0  0
   13.4450  -60.7500   36.9160 H   0  0  0  0  0  0  0  0  0  0  0  0
   15.3130  -57.9500   33.9130 C   0  0  0  0  0  0  0  0  0  0  0  0
   14.1980  -57.2450   33.6210 O   0  0  0  0  0  0  0  0  0  0  0  0
   16.4780  -57.4490   33.4030 N   0  0  0  0  0  0  0  0  0  0  0  0
   17.7810  -58.0200   33.4450 C   0  0  0  0  0  2  0  0  0  0  0  0
   16.3730  -56.1000   32.7260 C   0  0  0  0  0  2  0  0  0  0  0  0
   18.7500  -57.1650   34.2580 C   0  0  0  0  0  2  0  0  0  0  0  0
   18.3010  -55.8120   34.0890 N   0  0  0  0  0  0  0  0  0  0  0  0
   17.7550  -55.4440   32.8150 C   0  0  0  0  0  2  0  0  0  0  0  0
   18.3820  -54.8520   35.1120 C   0  0  0  0  0  0  0  0  0  0  0  0
   17.3070  -54.0920   35.4730 N   0  0  0  0  0  0  0  0  0  0  0  0
   17.3160  -53.1740   36.4230 C   0  0  0  0  0  3  0  0  0  0  0  0
   18.4430  -52.9000   37.1440 C   0  0  0  0  0  3  0  0  0  0  0  0
   19.5750  -53.6370   36.8280 C   0  0  0  0  0  3  0  0  0  0  0  0
   19.5420  -54.5970   35.8280 C   0  0  0  0  0  3  0  0  0  0  0  0
  1  2  1  0  0  0  0
  2  3  1  0  0  0  0
  2  4  1  0  0  0  0
  4 12  2  0  0  0  0
  5  4  1  6  0  0  0
  5  6  1  0  0  0  0
  6  8  2  0  0  0  0
  6  9  1  0  0  0  0
  7  5  1  0  0  0  0
  7 13  1  0  0  0  0
 10 11  1  0  0  0  0
 10  8  2  0  0  0  0
 12 10  1  0  0  0  0
 13  9  2  0  0  0  0
 14  7  1  0  0  0  0
 15  1  1  0  0  0  0
 16 15  2  0  0  0  0
 17 18  1  0  0  0  0
 17 15  1  0  0  0  0
 18 20  1  0  0  0  0
 19 22  1  0  0  0  0
 19 17  1  0  0  0  0
 21 20  1  0  0  0  0
 21 23  1  0  0  0  0
 22 21  1  0  0  0  0
 23 24  2  0  0  0  0
 23 28  1  0  0  0  0
 24 25  1  0  0  0  0
 25 26  2  0  0  0  0
 27 26  1  0  0  0  0
 28 27  2  0  0  0  0
M  END
>  <Pose>
1

>  <Score>
-8.628

$$$$
