/Users/jonathanwahrer/Desktop/Msc/3_Semester/Drug_Design_Praktikum/waehrer_HTS_screening/HTS_experiment/out/docking_results/vina_output/6s1j/1732_docked.pdbqt
 OpenBabel03222222203D

 28 31  0  0  0  0  0  0  0  0999 V2000
   16.5040  -57.1830   34.1560 N   0  0  0  0  0  0  0  0  0  0  0  0
   15.6110  -56.8680   33.2320 N   0  0  0  0  0  2  0  0  0  0  0  0
   16.2110  -56.7230   32.0550 N   0  0  0  0  0  0  0  0  0  0  0  0
   17.5300  -56.9520   32.2260 C   0  0  0  0  0  0  0  0  0  0  0  0
   17.6680  -57.2310   33.5320 N   0  0  0  0  0  2  0  0  0  0  0  0
   16.2540  -57.4300   35.5860 C   0  0  0  0  0  2  0  0  0  0  0  0
   16.5960  -56.2290   36.3930 C   0  0  0  0  0  0  0  0  0  0  0  0
   17.1170  -55.0770   35.8040 N   0  0  0  0  0  0  0  0  0  0  0  0
   17.2490  -55.1200   34.7500 H   0  0  0  0  0  0  0  0  0  0  0  0
   16.3960  -56.3040   37.6190 O   0  0  0  0  0  0  0  0  0  0  0  0
   17.4920  -53.8630   36.4170 C   0  0  0  0  0  0  0  0  0  0  0  0
   18.7220  -53.2710   36.1250 C   0  0  0  0  0  0  0  0  0  0  0  0
   19.8610  -54.1440   34.8900 Br  0  0  0  0  0  0  0  0  0  0  0  0
   19.1540  -52.0920   36.6810 C   0  0  0  0  0  3  0  0  0  0  0  0
   18.3450  -51.4370   37.5820 C   0  0  0  0  0  3  0  0  0  0  0  0
   17.1230  -51.9690   37.9100 C   0  0  0  0  0  3  0  0  0  0  0  0
   16.7140  -53.1700   37.3250 C   0  0  0  0  0  3  0  0  0  0  0  0
   18.5670  -56.9030   31.2060 C   0  0  0  0  0  0  0  0  0  0  0  0
   18.5630  -57.8750   30.2320 C   0  0  0  0  0  0  0  0  0  0  0  0
   19.5500  -57.8280   29.2620 C   0  0  0  0  0  3  0  0  0  0  0  0
   20.5160  -56.8530   29.2490 C   0  0  0  0  0  3  0  0  0  0  0  0
   20.5220  -55.8780   30.2250 C   0  0  0  0  0  3  0  0  0  0  0  0
   19.5340  -55.9260   31.1930 C   0  0  0  0  0  3  0  0  0  0  0  0
   17.5920  -58.9190   30.1790 N   0  0  0  0  0  0  0  0  0  0  0  0
   16.6040  -58.9710   29.2960 N   0  0  0  0  0  0  0  0  0  0  0  0
   15.8930  -60.0540   29.5190 N   0  0  0  0  0  0  0  0  0  0  0  0
   16.4340  -60.6950   30.5520 N   0  0  0  0  0  0  0  0  0  0  0  0
   17.5010  -59.9820   30.9670 C   0  0  0  0  0  3  0  0  0  0  0  0
  1  6  1  0  0  0  0
  2  1  1  0  0  0  0
  3  4  2  0  0  0  0
  3  2  1  0  0  0  0
  4  5  1  0  0  0  0
  5  1  1  0  0  0  0
  6  7  1  0  0  0  0
  7 10  2  0  0  0  0
  8  7  1  0  0  0  0
  8 11  1  0  0  0  0
  9  8  1  0  0  0  0
 11 17  1  0  0  0  0
 12 11  2  0  0  0  0
 12 14  1  0  0  0  0
 13 12  1  0  0  0  0
 14 15  2  0  0  0  0
 15 16  1  0  0  0  0
 17 16  2  0  0  0  0
 18  4  1  0  0  0  0
 19 18  2  0  0  0  0
 20 19  1  0  0  0  0
 21 20  2  0  0  0  0
 21 22  1  0  0  0  0
 22 23  2  0  0  0  0
 23 18  1  0  0  0  0
 24 19  1  0  0  0  0
 24 28  1  0  0  0  0
 25 26  2  0  0  0  0
 25 24  1  0  0  0  0
 26 27  1  0  0  0  0
 27 28  2  0  0  0  0
M  END
>  <Pose>
1

>  <Score>
-9.250

$$$$
