/Users/jonathanwahrer/Desktop/Msc/3_Semester/Drug_Design_Praktikum/waehrer_HTS_screening/HTS_experiment/out/docking_results/vina_output/6s1j/1744_docked.pdbqt
 OpenBabel03222222213D

 34 37  0  0  1  0  0  0  0  0999 V2000
   16.4580  -58.2780   33.4730 N   0  0  0  0  0  0  0  0  0  0  0  0
   17.1710  -59.4010   32.9570 C   0  0  0  0  0  0  0  0  0  0  0  0
   17.3280  -60.4750   33.5880 O   0  0  0  0  0  0  0  0  0  0  0  0
   17.7360  -59.2990   31.6520 N   0  0  0  0  0  0  0  0  0  0  0  0
   17.5720  -58.0830   30.9060 C   0  0  0  0  0  0  0  0  0  0  0  0
   17.8880  -58.1430   29.6710 O   0  0  0  0  0  0  0  0  0  0  0  0
   17.0720  -56.8380   31.5160 C   0  0  1  0  0  3  0  0  0  0  0  0
   16.2800  -57.0670   32.7500 C   0  0  0  0  0  0  0  0  0  0  0  0
   15.4750  -56.1760   33.1160 O   0  0  0  0  0  0  0  0  0  0  0  0
   18.2740  -60.0890   31.2100 H   0  0  0  0  0  0  0  0  0  0  0  0
   18.2140  -55.8930   31.8070 C   0  0  1  0  0  3  0  0  0  0  0  0
   19.3540  -56.2590   32.3640 C   0  0  0  0  0  2  0  0  0  0  0  0
   20.1580  -55.0200   32.4540 C   0  0  1  0  0  3  0  0  0  0  0  0
   19.6450  -54.2480   31.3370 N   0  0  0  0  0  0  0  0  0  0  0  0
   18.2610  -54.4980   31.5100 N   0  0  0  0  0  0  0  0  0  0  0  0
   19.8930  -53.2550   31.3410 H   0  0  0  0  0  0  0  0  0  0  0  0
   17.4410  -53.8940   31.4540 H   0  0  0  0  0  0  0  0  0  0  0  0
   19.9020  -54.3180   33.7430 C   0  0  0  0  0  0  0  0  0  0  0  0
   20.2490  -53.0250   34.0140 C   0  0  0  0  0  3  0  0  0  0  0  0
   19.9530  -52.4080   35.2130 C   0  0  0  0  0  0  0  0  0  0  0  0
   19.2780  -53.0960   36.2040 C   0  0  0  0  0  0  0  0  0  0  0  0
   18.9230  -54.4240   35.9200 C   0  0  0  0  0  3  0  0  0  0  0  0
   19.2270  -55.0240   34.7200 C   0  0  0  0  0  3  0  0  0  0  0  0
   20.3350  -51.0740   35.4430 O   0  0  0  0  0  0  0  0  0  0  0  0
   20.4800  -50.4740   34.6380 H   0  0  0  0  0  0  0  0  0  0  0  0
   18.9620  -52.5120   37.4080 O   0  0  0  0  0  0  0  0  0  0  0  0
   17.6520  -52.0750   37.7040 C   0  0  0  0  0  1  0  0  0  0  0  0
   15.9180  -58.3960   34.7850 C   0  0  0  0  0  0  0  0  0  0  0  0
   14.6380  -58.8780   34.9960 C   0  0  0  0  0  3  0  0  0  0  0  0
   14.0920  -59.0180   36.2470 C   0  0  0  0  0  0  0  0  0  0  0  0
   12.4710  -59.6240   36.4630 Cl  0  0  0  0  0  0  0  0  0  0  0  0
   14.8720  -58.6560   37.3310 C   0  0  0  0  0  3  0  0  0  0  0  0
   16.1530  -58.1710   37.1630 C   0  0  0  0  0  3  0  0  0  0  0  0
   16.6590  -58.0480   35.8730 C   0  0  0  0  0  3  0  0  0  0  0  0
  1 28  1  0  0  0  0
  2  1  1  0  0  0  0
  2  3  2  0  0  0  0
  4  2  1  0  0  0  0
  5  4  1  0  0  0  0
  6  5  2  0  0  0  0
  7  5  1  1  0  0  0
  7 11  1  0  0  0  0
  7  8  1  0  0  0  0
  8  9  2  0  0  0  0
  8  1  1  0  0  0  0
 10  4  1  0  0  0  0
 11 12  1  6  0  0  0
 12 13  1  0  0  0  0
 13 18  1  1  0  0  0
 14 16  1  0  0  0  0
 14 15  1  0  0  0  0
 14 13  1  0  0  0  0
 15 11  1  0  0  0  0
 17 15  1  0  0  0  0
 18 19  2  0  0  0  0
 18 23  1  0  0  0  0
 19 20  1  0  0  0  0
 20 24  1  0  0  0  0
 20 21  2  0  0  0  0
 21 26  1  0  0  0  0
 22 21  1  0  0  0  0
 23 22  2  0  0  0  0
 25 24  1  0  0  0  0
 26 27  1  0  0  0  0
 28 29  2  0  0  0  0
 28 34  1  0  0  0  0
 29 30  1  0  0  0  0
 30 31  1  0  0  0  0
 30 32  2  0  0  0  0
 33 32  1  0  0  0  0
 34 33  2  0  0  0  0
M  END
>  <Pose>
1

>  <Score>
-9.650

$$$$
