/Users/jonathanwahrer/Desktop/Msc/3_Semester/Drug_Design_Praktikum/waehrer_HTS_screening/HTS_experiment/out/docking_results/vina_output/6s1j/1745_docked.pdbqt
 OpenBabel03222222213D

 34 37  0  0  1  0  0  0  0  0999 V2000
   15.5330  -57.4660   34.6000 N   0  0  0  0  0  0  0  0  0  0  0  0
   14.1240  -57.5750   34.4770 C   0  0  0  0  0  0  0  0  0  0  0  0
   13.5140  -57.0520   33.5350 O   0  0  0  0  0  0  0  0  0  0  0  0
   13.3730  -58.3030   35.4600 N   0  0  0  0  0  0  0  0  0  0  0  0
   14.0230  -58.9270   36.5660 C   0  0  0  0  0  0  0  0  0  0  0  0
   13.5200  -59.8850   37.1790 O   0  0  0  0  0  0  0  0  0  0  0  0
   15.3660  -58.3960   36.9950 C   0  0  1  0  0  3  0  0  0  0  0  0
   16.1130  -58.1200   35.7500 C   0  0  0  0  0  0  0  0  0  0  0  0
   17.3460  -58.4570   35.6310 O   0  0  0  0  0  0  0  0  0  0  0  0
   12.3530  -58.3690   35.3530 H   0  0  0  0  0  0  0  0  0  0  0  0
   15.1650  -57.1820   37.8420 C   0  0  2  0  0  3  0  0  0  0  0  0
   15.6850  -56.8950   39.0170 C   0  0  0  0  0  2  0  0  0  0  0  0
   15.1770  -55.5640   39.4490 C   0  0  2  0  0  3  0  0  0  0  0  0
   13.9150  -55.4870   38.6690 N   0  0  0  0  0  0  0  0  0  0  0  0
   14.2980  -56.1020   37.4700 N   0  0  0  0  0  0  0  0  0  0  0  0
   13.1640  -56.0060   39.1650 H   0  0  0  0  0  0  0  0  0  0  0  0
   14.0320  -55.8560   36.5230 H   0  0  0  0  0  0  0  0  0  0  0  0
   16.0570  -54.5040   38.8870 C   0  0  0  0  0  0  0  0  0  0  0  0
   17.3630  -54.7930   38.4360 C   0  0  0  0  0  3  0  0  0  0  0  0
   18.1900  -53.8650   37.8840 C   0  0  0  0  0  0  0  0  0  0  0  0
   17.7530  -52.5610   37.7450 C   0  0  0  0  0  0  0  0  0  0  0  0
   16.4850  -52.2430   38.1740 C   0  0  0  0  0  3  0  0  0  0  0  0
   15.6580  -53.1930   38.7320 C   0  0  0  0  0  3  0  0  0  0  0  0
   19.4820  -54.2050   37.4560 O   0  0  0  0  0  0  0  0  0  0  0  0
   19.7060  -54.4980   36.0940 C   0  0  0  0  0  1  0  0  0  0  0  0
   18.5850  -51.6000   37.1810 O   0  0  0  0  0  0  0  0  0  0  0  0
   18.2970  -50.6300   37.1990 H   0  0  0  0  0  0  0  0  0  0  0  0
   16.3760  -56.8010   33.6690 C   0  0  0  0  0  0  0  0  0  0  0  0
   16.6950  -57.4760   32.4840 C   0  0  0  0  0  3  0  0  0  0  0  0
   17.5150  -56.9240   31.5260 C   0  0  0  0  0  0  0  0  0  0  0  0
   17.8600  -57.8400   30.0840 Cl  0  0  0  0  0  0  0  0  0  0  0  0
   18.0620  -55.6780   31.6890 C   0  0  0  0  0  3  0  0  0  0  0  0
   17.7480  -54.9960   32.8680 C   0  0  0  0  0  3  0  0  0  0  0  0
   16.9270  -55.5570   33.8230 C   0  0  0  0  0  3  0  0  0  0  0  0
  1  8  1  0  0  0  0
  2  1  1  0  0  0  0
  2  4  1  0  0  0  0
  3  2  2  0  0  0  0
  4  5  1  0  0  0  0
  5  7  1  0  0  0  0
  5  6  2  0  0  0  0
  7  8  1  6  0  0  0
  7 11  1  0  0  0  0
  9  8  2  0  0  0  0
 10  4  1  0  0  0  0
 11 12  1  1  0  0  0
 12 13  1  0  0  0  0
 13 18  1  6  0  0  0
 14 16  1  0  0  0  0
 14 13  1  0  0  0  0
 15 11  1  0  0  0  0
 15 14  1  0  0  0  0
 17 15  1  0  0  0  0
 19 18  2  0  0  0  0
 20 19  1  0  0  0  0
 21 20  2  0  0  0  0
 21 22  1  0  0  0  0
 22 23  2  0  0  0  0
 23 18  1  0  0  0  0
 24 20  1  0  0  0  0
 25 24  1  0  0  0  0
 26 27  1  0  0  0  0
 26 21  1  0  0  0  0
 28 34  1  0  0  0  0
 28  1  1  0  0  0  0
 29 28  2  0  0  0  0
 30 32  2  0  0  0  0
 30 29  1  0  0  0  0
 31 30  1  0  0  0  0
 32 33  1  0  0  0  0
 33 34  2  0  0  0  0
M  END
>  <Pose>
1

>  <Score>
-9.861

$$$$
