/Users/jonathanwahrer/Desktop/Msc/3_Semester/Drug_Design_Praktikum/waehrer_HTS_screening/HTS_experiment/out/docking_results/vina_output/6s1j/1750_docked.pdbqt
 OpenBabel03222222213D

 27 30  0  0  0  0  0  0  0  0999 V2000
   15.1090  -59.1260   33.4750 N   0  0  0  0  0  0  0  0  0  0  0  0
   14.4660  -57.8540   33.5940 C   0  0  0  0  0  2  0  0  0  0  0  0
   15.0210  -57.0240   34.7360 C   0  0  0  0  0  2  0  0  0  0  0  0
   15.0880  -57.8410   35.9180 N   0  0  0  0  0  0  0  0  0  0  0  0
   14.5280  -59.1760   35.8570 C   0  0  0  0  0  2  0  0  0  0  0  0
   15.1690  -59.8800   34.6810 C   0  0  0  0  0  2  0  0  0  0  0  0
   15.6770  -57.3930   37.1350 C   0  0  0  0  0  0  0  0  0  0  0  0
   15.7240  -58.1240   38.1510 O   0  0  0  0  0  0  0  0  0  0  0  0
   16.2510  -56.0490   37.2350 C   0  0  0  0  0  0  0  0  0  0  0  0
   15.8390  -55.0550   38.0690 N   0  0  0  0  0  0  0  0  0  0  0  0
   16.6070  -53.9730   37.8700 C   0  0  0  0  0  0  0  0  0  0  0  0
   17.4900  -54.2850   36.9220 N   0  0  0  0  0  0  0  0  0  0  0  0
   16.6270  -52.7080   38.4360 C   0  0  0  0  0  3  0  0  0  0  0  0
   17.2940  -55.5470   36.5170 C   0  0  0  0  0  3  0  0  0  0  0  0
   18.3850  -53.3540   36.5380 C   0  0  0  0  0  3  0  0  0  0  0  0
   18.4500  -52.0930   37.0620 C   0  0  0  0  0  0  0  0  0  0  0  0
   17.5370  -51.7480   38.0520 C   0  0  0  0  0  3  0  0  0  0  0  0
   19.6340  -50.9010   36.5350 Cl  0  0  0  0  0  0  0  0  0  0  0  0
   16.5190  -59.1480   32.5440 S   0  0  0  0  0  0  0  0  0  0  0  0
   17.5740  -59.9530   33.2310 O   0  0  0  0  0  0  0  0  0  0  0  0
   16.2120  -59.7960   31.2230 O   0  0  0  0  0  0  0  0  0  0  0  0
   17.1580  -57.5880   32.2110 N   0  0  0  0  0  0  0  0  0  0  0  0
   17.4850  -57.4130   30.8080 C   0  0  0  0  0  2  0  0  0  0  0  0
   18.5230  -56.3190   30.7250 C   0  0  0  0  0  2  0  0  0  0  0  0
   18.3330  -55.3530   31.7080 O   0  0  0  0  0  0  0  0  0  0  0  0
   18.5780  -55.8370   32.9910 C   0  0  0  0  0  2  0  0  0  0  0  0
   18.3810  -57.3390   32.9510 C   0  0  0  0  0  2  0  0  0  0  0  0
  1  2  1  0  0  0  0
  1  6  1  0  0  0  0
  2  3  1  0  0  0  0
  3  4  1  0  0  0  0
  4  7  1  0  0  0  0
  5  4  1  0  0  0  0
  6  5  1  0  0  0  0
  7  9  1  0  0  0  0
  7  8  2  0  0  0  0
  9 10  1  0  0  0  0
 11 10  2  0  0  0  0
 11 13  1  0  0  0  0
 12 11  1  0  0  0  0
 14 12  1  0  0  0  0
 14  9  2  0  0  0  0
 15 12  1  0  0  0  0
 15 16  2  0  0  0  0
 16 17  1  0  0  0  0
 17 13  2  0  0  0  0
 18 16  1  0  0  0  0
 19 20  2  0  0  0  0
 19  1  1  0  0  0  0
 21 19  2  0  0  0  0
 22 19  1  0  0  0  0
 22 27  1  0  0  0  0
 23 22  1  0  0  0  0
 24 23  1  0  0  0  0
 24 25  1  0  0  0  0
 25 26  1  0  0  0  0
 27 26  1  0  0  0  0
M  END
>  <Pose>
1

>  <Score>
-9.187

$$$$
