/Users/jonathanwahrer/Desktop/Msc/3_Semester/Drug_Design_Praktikum/waehrer_HTS_screening/HTS_experiment/out/docking_results/vina_output/6s1j/1758_docked.pdbqt
 OpenBabel03222222223D

 28 32  0  0  1  0  0  0  0  0999 V2000
   13.4160  -58.0710   38.2360 N   0  0  0  0  0  0  0  0  0  0  0  0
   13.5820  -57.0140   39.0090 N   0  0  0  0  0  0  0  0  0  0  0  0
   14.6350  -56.2680   38.6170 C   0  0  0  0  0  0  0  0  0  0  0  0
   15.1020  -55.1570   39.1360 C   0  0  0  0  0  1  0  0  0  0  0  0
   15.1730  -56.9020   37.5150 C   0  0  0  0  0  0  0  0  0  0  0  0
   14.3890  -58.0160   37.3100 C   0  0  0  0  0  0  0  0  0  0  0  0
   14.5530  -58.8620   36.3950 O   0  0  0  0  0  0  0  0  0  0  0  0
   12.9820  -56.7650   39.8310 H   0  0  0  0  0  0  0  0  0  0  0  0
   16.2390  -56.4950   36.8090 C   0  0  0  0  0  2  0  0  0  0  0  0
   16.9420  -57.5000   36.0900 N   0  0  0  0  0  0  0  0  0  0  0  0
   17.2280  -58.4130   36.4940 H   0  0  0  0  0  0  0  0  0  0  0  0
   17.2900  -57.2480   34.7010 C   0  0  2  0  0  0  0  0  0  0  0  0
   16.0870  -56.6850   33.9590 C   0  0  0  0  0  2  0  0  0  0  0  0
   16.4660  -56.3870   32.6060 N   0  0  2  0  0  0  0  0  0  0  0  0
   16.8910  -57.6380   31.9870 C   0  0  0  0  0  2  0  0  0  0  0  0
   17.5450  -55.4260   32.6310 C   0  0  0  0  0  2  0  0  0  0  0  0
   18.0530  -58.1790   32.6340 N   0  0  1  0  0  0  0  0  0  0  0  0
   19.1270  -57.2100   32.6450 C   0  0  0  0  0  2  0  0  0  0  0  0
   17.7110  -58.5030   33.9950 C   0  0  0  0  0  2  0  0  0  0  0  0
   18.7360  -55.9760   33.2700 N   0  0  2  0  0  0  0  0  0  0  0  0
   18.4080  -56.2300   34.6540 C   0  0  0  0  0  2  0  0  0  0  0  0
   12.3940  -59.0790   38.3630 C   0  0  0  0  0  0  0  0  0  0  0  0
   11.6070  -59.4810   37.3310 C   0  0  0  0  0  3  0  0  0  0  0  0
   10.6440  -60.4650   37.5540 C   0  0  0  0  0  3  0  0  0  0  0  0
   10.4680  -61.0430   38.7950 C   0  0  0  0  0  0  0  0  0  0  0  0
    9.0130  -62.5280   39.1280 I   0  0  0  0  0  0  0  0  0  0  0  0
   11.2630  -60.6390   39.8430 C   0  0  0  0  0  3  0  0  0  0  0  0
   12.2090  -59.6650   39.6020 C   0  0  0  0  0  3  0  0  0  0  0  0
  1 22  1  0  0  0  0
  1  2  1  0  0  0  0
  2  8  1  0  0  0  0
  3  2  1  0  0  0  0
  3  4  1  0  0  0  0
  5  3  2  0  0  0  0
  6  5  1  0  0  0  0
  6  1  1  0  0  0  0
  7  6  2  0  0  0  0
  9  5  1  0  0  0  0
 10 11  1  0  0  0  0
 10  9  1  0  0  0  0
 12 10  1  1  0  0  0
 13 12  1  0  0  0  0
 14 15  1  1  0  0  0
 14 16  1  0  0  0  0
 14 13  1  0  0  0  0
 17 15  1  1  0  0  0
 17 18  1  0  0  0  0
 17 19  1  0  0  0  0
 18 20  1  0  0  0  0
 19 12  1  0  0  0  0
 20 16  1  6  0  0  0
 20 21  1  0  0  0  0
 21 12  1  0  0  0  0
 22 28  1  0  0  0  0
 23 24  1  0  0  0  0
 23 22  2  0  0  0  0
 24 25  2  0  0  0  0
 25 26  1  0  0  0  0
 25 27  1  0  0  0  0
 28 27  2  0  0  0  0
M  END
>  <Pose>
1

>  <Score>
-7.753

$$$$
