/Users/jonathanwahrer/Desktop/Msc/3_Semester/Drug_Design_Praktikum/waehrer_HTS_screening/HTS_experiment/out/docking_results/vina_output/6s1j/1764_docked.pdbqt
 OpenBabel03222222223D

 34 37  0  0  1  0  0  0  0  0999 V2000
   17.6190  -56.5520   33.6120 N   0  0  0  0  0  0  0  0  0  0  0  0
   18.8670  -55.9610   33.6160 C   0  0  1  0  0  3  0  0  0  0  0  0
   19.2370  -55.7680   32.1390 C   0  0  0  0  0  2  0  0  0  0  0  0
   17.8940  -55.4190   31.5340 C   0  0  0  0  0  2  0  0  0  0  0  0
   16.8940  -56.1250   32.4180 C   0  0  0  0  0  2  0  0  0  0  0  0
   17.2810  -58.1070   34.0880 S   0  0  0  0  0  0  0  0  0  0  0  0
   18.4820  -58.8010   34.7280 O   0  0  0  0  0  0  0  0  0  0  0  0
   17.0100  -58.9450   32.8370 O   0  0  0  0  0  0  0  0  0  0  0  0
   15.9010  -58.2830   35.1290 C   0  0  0  0  0  0  0  0  0  0  0  0
   14.8970  -59.1990   34.7710 C   0  0  0  0  0  3  0  0  0  0  0  0
   13.7430  -59.3760   35.4790 C   0  0  0  0  0  0  0  0  0  0  0  0
   13.5710  -58.6010   36.6110 C   0  0  0  0  0  0  0  0  0  0  0  0
   12.7550  -60.2820   35.1200 O   0  0  0  0  0  0  0  0  0  0  0  0
   14.5040  -57.6950   37.0180 C   0  0  0  0  0  3  0  0  0  0  0  0
   12.3650  -58.7820   37.3680 N   0  0  0  0  0  0  0  0  0  0  0  0
   15.6610  -57.5550   36.2600 C   0  0  0  0  0  0  0  0  0  0  0  0
   16.8550  -56.4500   36.9030 Cl  0  0  0  0  0  0  0  0  0  0  0  0
   11.4000  -59.7390   36.9350 C   0  0  0  0  0  0  0  0  0  0  0  0
   12.2210  -58.2010   38.2310 H   0  0  0  0  0  0  0  0  0  0  0  0
   10.2080  -59.6170   37.2680 O   0  0  0  0  0  0  0  0  0  0  0  0
   11.8850  -60.8580   36.0900 C   0  0  0  0  0  2  0  0  0  0  0  0
   18.7490  -54.5900   34.2600 C   0  0  0  0  0  0  0  0  0  0  0  0
   17.6160  -54.2740   34.6470 O   0  0  0  0  0  0  0  0  0  0  0  0
   19.8910  -53.7800   34.3800 N   0  0  0  0  0  0  0  0  0  0  0  0
   20.8270  -54.0710   34.0310 H   0  0  0  0  0  0  0  0  0  0  0  0
   19.7980  -52.4790   34.9970 C   0  0  0  0  0  2  0  0  0  0  0  0
   19.9460  -52.4540   36.4700 C   0  0  0  0  0  2  0  0  0  0  0  0
   18.8020  -52.8130   37.2300 N   0  0  0  0  0  0  0  0  0  0  0  0
   18.1010  -51.7330   37.8430 C   0  0  0  0  0  2  0  0  0  0  0  0
   16.6170  -52.0220   37.7350 C   0  0  0  0  0  2  0  0  0  0  0  0
   16.3500  -53.4140   38.2700 C   0  0  0  0  0  2  0  0  0  0  0  0
   17.0760  -53.5640   39.5800 C   0  0  0  0  0  2  0  0  0  0  0  0
   18.5240  -53.8570   39.4540 C   0  0  0  0  0  2  0  0  0  0  0  0
   19.0580  -53.9340   38.0730 C   0  0  0  0  0  2  0  0  0  0  0  0
  1  2  1  0  0  0  0
  1  6  1  0  0  0  0
  2 22  1  1  0  0  0
  3  2  1  0  0  0  0
  4  3  1  0  0  0  0
  4  5  1  0  0  0  0
  5  1  1  0  0  0  0
  6  7  2  0  0  0  0
  6  9  1  0  0  0  0
  8  6  2  0  0  0  0
  9 16  1  0  0  0  0
 10  9  2  0  0  0  0
 10 11  1  0  0  0  0
 11 12  2  0  0  0  0
 12 14  1  0  0  0  0
 12 15  1  0  0  0  0
 13 11  1  0  0  0  0
 13 21  1  0  0  0  0
 15 19  1  0  0  0  0
 16 17  1  0  0  0  0
 16 14  2  0  0  0  0
 18 20  2  0  0  0  0
 18 15  1  0  0  0  0
 21 18  1  0  0  0  0
 22 24  1  0  0  0  0
 22 23  2  0  0  0  0
 24 26  1  0  0  0  0
 25 24  1  0  0  0  0
 26 27  1  0  0  0  0
 27 28  1  0  0  0  0
 28 29  1  0  0  0  0
 28 34  1  0  0  0  0
 30 29  1  0  0  0  0
 30 31  1  0  0  0  0
 31 32  1  0  0  0  0
 33 32  1  0  0  0  0
 34 33  1  0  0  0  0
M  END
>  <Pose>
1

>  <Score>
-9.472

$$$$
