/Users/jonathanwahrer/Desktop/Msc/3_Semester/Drug_Design_Praktikum/waehrer_HTS_screening/HTS_experiment/out/docking_results/vina_output/6s1j/1781_docked.pdbqt
 OpenBabel03222222223D

 24 27  0  0  0  0  0  0  0  0999 V2000
   15.1060  -57.7170   34.0160 C   0  0  0  0  0  0  0  0  0  0  0  0
   14.3520  -56.9540   33.2640 O   0  0  0  0  0  0  0  0  0  0  0  0
   16.4140  -57.8550   33.5770 N   0  0  0  0  0  0  0  0  0  0  0  0
   17.4990  -58.6300   34.0790 C   0  0  0  0  0  2  0  0  0  0  0  0
   18.3710  -57.6310   34.8660 C   0  0  0  0  0  2  0  0  0  0  0  0
   18.4220  -56.3870   34.0760 N   0  0  0  0  0  0  0  0  0  0  0  0
   18.2180  -56.4860   32.6590 C   0  0  0  0  0  2  0  0  0  0  0  0
   16.8210  -57.0170   32.4000 C   0  0  0  0  0  2  0  0  0  0  0  0
   14.4200  -58.2620   35.1530 C   0  0  0  0  0  0  0  0  0  0  0  0
   14.8320  -57.9090   36.4440 C   0  0  0  0  0  3  0  0  0  0  0  0
   14.2580  -58.4150   37.5870 C   0  0  0  0  0  3  0  0  0  0  0  0
   13.2240  -59.3150   37.5160 C   0  0  0  0  0  0  0  0  0  0  0  0
   12.4820  -59.9670   38.9840 Cl  0  0  0  0  0  0  0  0  0  0  0  0
   12.7870  -59.6900   36.2730 C   0  0  0  0  0  3  0  0  0  0  0  0
   13.3830  -59.1660   35.1120 C   0  0  0  0  0  3  0  0  0  0  0  0
   18.6720  -55.1490   34.7350 C   0  0  0  0  0  0  0  0  0  0  0  0
   17.9090  -54.7430   35.7740 N   0  0  0  0  0  0  0  0  0  0  0  0
   18.1100  -53.6010   36.4070 N   0  0  0  0  0  0  0  0  0  0  0  0
   19.0910  -52.7540   36.0670 C   0  0  0  0  0  0  0  0  0  0  0  0
   17.4740  -53.0070   37.4570 C   0  0  0  0  0  3  0  0  0  0  0  0
   19.0730  -51.6650   36.8750 N   0  0  0  0  0  0  0  0  0  0  0  0
   19.9180  -53.0990   35.0120 C   0  0  0  0  0  3  0  0  0  0  0  0
   18.0760  -51.8340   37.7240 N   0  0  0  0  0  0  0  0  0  0  0  0
   19.6870  -54.2930   34.3690 C   0  0  0  0  0  3  0  0  0  0  0  0
  1  9  1  0  0  0  0
  2  1  2  0  0  0  0
  3  1  1  0  0  0  0
  3  4  1  0  0  0  0
  4  5  1  0  0  0  0
  6 16  1  0  0  0  0
  6  5  1  0  0  0  0
  7  6  1  0  0  0  0
  8  7  1  0  0  0  0
  8  3  1  0  0  0  0
  9 10  1  0  0  0  0
 10 11  2  0  0  0  0
 12 11  1  0  0  0  0
 12 13  1  0  0  0  0
 14 12  2  0  0  0  0
 15  9  2  0  0  0  0
 15 14  1  0  0  0  0
 16 17  2  0  0  0  0
 17 18  1  0  0  0  0
 18 20  1  0  0  0  0
 19 18  1  0  0  0  0
 19 21  2  0  0  0  0
 20 23  2  0  0  0  0
 21 23  1  0  0  0  0
 22 19  1  0  0  0  0
 24 16  1  0  0  0  0
 24 22  2  0  0  0  0
M  END
>  <Pose>
1

>  <Score>
-8.655

$$$$
