/Users/jonathanwahrer/Desktop/Msc/3_Semester/Drug_Design_Praktikum/waehrer_HTS_screening/HTS_experiment/out/docking_results/vina_output/6s1j/1788_docked.pdbqt
 OpenBabel03222222223D

 30 33  0  0  0  0  0  0  0  0999 V2000
   15.7460  -57.1120   36.3410 N   0  0  0  0  0  0  0  0  0  0  0  0
   15.9640  -55.9500   36.8470 N   0  0  0  0  0  0  0  0  0  0  0  0
   17.1140  -55.3770   36.3280 C   0  0  0  0  0  0  0  0  0  0  0  0
   17.6020  -56.2530   35.4700 N   0  0  0  0  0  0  0  0  0  0  0  0
   16.7440  -57.3290   35.4810 C   0  0  0  0  0  0  0  0  0  0  0  0
   16.9120  -58.3450   34.7730 O   0  0  0  0  0  0  0  0  0  0  0  0
   18.8230  -56.2160   34.7290 C   0  0  0  0  0  2  0  0  0  0  0  0
   18.6980  -55.7840   33.3240 C   0  0  0  0  0  0  0  0  0  0  0  0
   18.4880  -54.5060   33.1990 O   0  0  0  0  0  0  0  0  0  0  0  0
   18.7650  -56.4910   32.1450 N   0  0  0  0  0  0  0  0  0  0  0  0
   18.9450  -57.9140   32.0300 C   0  0  0  0  0  2  0  0  0  0  0  0
   18.6610  -55.7670   30.8660 C   0  0  0  0  0  2  0  0  0  0  0  0
   18.9210  -58.3890   30.5660 C   0  0  0  0  0  2  0  0  0  0  0  0
   19.8990  -57.6120   29.7970 N   0  0  0  0  0  0  0  0  0  0  0  0
   19.8230  -56.1920   30.0500 C   0  0  0  0  0  0  0  0  0  0  0  0
   20.5690  -58.0290   29.1460 H   0  0  0  0  0  0  0  0  0  0  0  0
   20.6990  -55.4220   29.5950 O   0  0  0  0  0  0  0  0  0  0  0  0
   17.5530  -54.0630   36.7940 C   0  0  0  0  0  0  0  0  0  0  0  0
   16.6870  -53.3350   37.6200 C   0  0  0  0  0  3  0  0  0  0  0  0
   16.9480  -52.0720   38.0740 C   0  0  0  0  0  3  0  0  0  0  0  0
   18.1270  -51.4260   37.7260 C   0  0  0  0  0  3  0  0  0  0  0  0
   18.9780  -52.1260   36.9190 C   0  0  0  0  0  3  0  0  0  0  0  0
   18.7060  -53.4170   36.4560 C   0  0  0  0  0  3  0  0  0  0  0  0
   14.6520  -57.9660   36.6600 C   0  0  0  0  0  0  0  0  0  0  0  0
   14.4530  -58.3790   37.9630 C   0  0  0  0  0  3  0  0  0  0  0  0
   13.3950  -59.2090   38.2920 C   0  0  0  0  0  3  0  0  0  0  0  0
   12.4920  -59.6640   37.3490 C   0  0  0  0  0  0  0  0  0  0  0  0
   11.1500  -60.7180   37.7530 Cl  0  0  0  0  0  0  0  0  0  0  0  0
   12.6950  -59.2480   36.0420 C   0  0  0  0  0  3  0  0  0  0  0  0
   13.7580  -58.4130   35.7100 C   0  0  0  0  0  3  0  0  0  0  0  0
  1 24  1  0  0  0  0
  1  2  1  0  0  0  0
  3 18  1  0  0  0  0
  3  2  2  0  0  0  0
  4  5  1  0  0  0  0
  4  3  1  0  0  0  0
  5  1  1  0  0  0  0
  6  5  2  0  0  0  0
  7  4  1  0  0  0  0
  8  7  1  0  0  0  0
  9  8  2  0  0  0  0
 10  8  1  0  0  0  0
 11 10  1  0  0  0  0
 12 10  1  0  0  0  0
 13 11  1  0  0  0  0
 14 15  1  0  0  0  0
 14 13  1  0  0  0  0
 15 12  1  0  0  0  0
 16 14  1  0  0  0  0
 17 15  2  0  0  0  0
 18 19  1  0  0  0  0
 19 20  2  0  0  0  0
 21 20  1  0  0  0  0
 22 21  2  0  0  0  0
 23 18  2  0  0  0  0
 23 22  1  0  0  0  0
 24 25  1  0  0  0  0
 25 26  2  0  0  0  0
 27 28  1  0  0  0  0
 27 26  1  0  0  0  0
 29 27  2  0  0  0  0
 30 29  1  0  0  0  0
 30 24  2  0  0  0  0
M  END
>  <Pose>
1

>  <Score>
-9.600

$$$$
