/Users/jonathanwahrer/Desktop/Msc/3_Semester/Drug_Design_Praktikum/waehrer_HTS_screening/HTS_experiment/out/docking_results/vina_output/6s1j/1789_docked.pdbqt
 OpenBabel03222222233D

 29 32  0  0  0  0  0  0  0  0999 V2000
   16.7000  -54.5710   38.2520 N   0  0  0  0  0  0  0  0  0  0  0  0
   16.2200  -54.6280   39.4720 N   0  0  0  0  0  0  0  0  0  0  0  0
   15.4460  -55.7070   39.5260 N   0  0  0  0  0  0  0  0  0  0  0  0
   15.4280  -56.3450   38.3400 C   0  0  0  0  0  0  0  0  0  0  0  0
   16.2240  -55.6160   37.5520 C   0  0  0  0  0  0  0  0  0  0  0  0
   16.2070  -56.2690   36.3280 C   0  0  0  0  0  0  0  0  0  0  0  0
   16.8420  -55.8820   35.3210 O   0  0  0  0  0  0  0  0  0  0  0  0
   15.4320  -57.3640   36.3560 N   0  0  0  0  0  0  0  0  0  0  0  0
   14.9460  -57.4120   37.6100 C   0  0  0  0  0  0  0  0  0  0  0  0
   14.1620  -58.3030   38.0550 O   0  0  0  0  0  0  0  0  0  0  0  0
   16.4090  -53.9480   40.2670 H   0  0  0  0  0  0  0  0  0  0  0  0
   14.9320  -55.9960   40.3930 H   0  0  0  0  0  0  0  0  0  0  0  0
   15.1550  -58.2980   35.3160 C   0  0  0  0  0  0  0  0  0  0  0  0
   16.1450  -58.9110   34.5740 C   0  0  0  0  0  3  0  0  0  0  0  0
   15.8680  -59.8150   33.5690 C   0  0  0  0  0  0  0  0  0  0  0  0
   14.5680  -60.1500   33.2560 C   0  0  0  0  0  0  0  0  0  0  0  0
   13.5680  -59.5460   33.9890 C   0  0  0  0  0  3  0  0  0  0  0  0
   13.8550  -58.6410   34.9950 C   0  0  0  0  0  3  0  0  0  0  0  0
   16.8660  -60.4320   32.8210 O   0  0  0  0  0  0  0  0  0  0  0  0
   17.3320  -59.7500   31.6710 C   0  0  0  0  0  1  0  0  0  0  0  0
   14.2980  -61.0640   32.2390 O   0  0  0  0  0  0  0  0  0  0  0  0
   13.8370  -62.3600   32.4660 C   0  0  0  0  0  1  0  0  0  0  0  0
   17.5740  -53.5760   37.7630 C   0  0  0  0  0  0  0  0  0  0  0  0
   17.2490  -52.2300   37.9010 C   0  0  0  0  0  3  0  0  0  0  0  0
   18.1500  -51.3140   37.3990 C   0  0  0  0  0  3  0  0  0  0  0  0
   19.3230  -51.6450   36.7830 C   0  0  0  0  0  0  0  0  0  0  0  0
   20.4450  -50.4340   36.1560 Cl  0  0  0  0  0  0  0  0  0  0  0  0
   19.6350  -52.9760   36.6520 C   0  0  0  0  0  3  0  0  0  0  0  0
   18.7760  -53.9230   37.1330 C   0  0  0  0  0  3  0  0  0  0  0  0
  1  2  1  0  0  0  0
  2  3  1  0  0  0  0
  2 11  1  0  0  0  0
  3 12  1  0  0  0  0
  4  3  1  0  0  0  0
  5  1  1  0  0  0  0
  5  4  2  0  0  0  0
  6  8  1  0  0  0  0
  6  5  1  0  0  0  0
  7  6  2  0  0  0  0
  8  9  1  0  0  0  0
  9 10  2  0  0  0  0
  9  4  1  0  0  0  0
 13  8  1  0  0  0  0
 14 13  2  0  0  0  0
 15 14  1  0  0  0  0
 16 15  2  0  0  0  0
 16 17  1  0  0  0  0
 17 18  2  0  0  0  0
 18 13  1  0  0  0  0
 19 15  1  0  0  0  0
 20 19  1  0  0  0  0
 21 22  1  0  0  0  0
 21 16  1  0  0  0  0
 23 24  1  0  0  0  0
 23  1  1  0  0  0  0
 25 24  2  0  0  0  0
 26 25  1  0  0  0  0
 27 26  1  0  0  0  0
 28 26  2  0  0  0  0
 28 29  1  0  0  0  0
 29 23  2  0  0  0  0
M  END
>  <Pose>
1

>  <Score>
-8.693

$$$$
