/Users/jonathanwahrer/Desktop/Msc/3_Semester/Drug_Design_Praktikum/waehrer_HTS_screening/HTS_experiment/out/docking_results/vina_output/6s1j/1801_docked.pdbqt
 OpenBabel03222222233D

 26 29  0  0  0  0  0  0  0  0999 V2000
   20.0530  -50.9900   35.9790 Cl  0  0  0  0  0  0  0  0  0  0  0  0
   18.8490  -52.0790   36.6660 C   0  0  0  0  0  0  0  0  0  0  0  0
   18.6690  -53.3450   36.1370 C   0  0  0  0  0  3  0  0  0  0  0  0
   17.7390  -54.2000   36.6610 C   0  0  0  0  0  0  0  0  0  0  0  0
   17.0010  -53.7420   37.7260 C   0  0  0  0  0  0  0  0  0  0  0  0
   17.1600  -52.4940   38.2700 C   0  0  0  0  0  3  0  0  0  0  0  0
   18.1060  -51.6380   37.7290 C   0  0  0  0  0  3  0  0  0  0  0  0
   15.9870  -54.6370   38.3180 C   0  0  0  0  0  0  0  0  0  0  0  0
   15.1610  -54.5030   39.2950 N   0  0  0  0  0  0  0  0  0  0  0  0
   14.3610  -55.6760   39.4940 C   0  0  0  0  0  3  0  0  0  0  0  0
   14.8200  -56.6340   38.4450 C   0  0  0  0  0  3  0  0  0  0  0  0
   15.8510  -55.9200   37.7300 N   0  0  0  0  0  0  0  0  0  0  0  0
   16.6490  -56.3470   36.6170 C   0  0  0  0  0  0  0  0  0  0  0  0
   16.6920  -57.4890   35.9140 N   0  0  0  0  0  0  0  0  0  0  0  0
   17.6080  -57.4040   34.9660 N   0  0  0  0  0  0  0  0  0  0  0  0
   18.1420  -56.1760   35.0870 C   0  0  0  0  0  0  0  0  0  0  0  0
   19.0540  -55.7330   34.3480 O   0  0  0  0  0  0  0  0  0  0  0  0
   17.5590  -55.4960   36.1110 N   0  0  0  0  0  0  0  0  0  0  0  0
   17.9820  -58.4130   33.9790 C   0  0  0  0  0  2  0  0  0  0  0  0
   17.4870  -57.9880   32.6490 C   0  0  0  0  0  0  0  0  0  0  0  0
   16.2430  -58.0020   32.4300 O   0  0  0  0  0  0  0  0  0  0  0  0
   18.3530  -57.5650   31.6060 N   0  0  0  0  0  0  0  0  0  0  0  0
   19.3740  -57.5600   31.8040 H   0  0  0  0  0  0  0  0  0  0  0  0
   17.8240  -57.1610   30.3230 C   0  0  0  0  0  3  0  0  0  0  0  0
   18.7670  -56.1640   29.6430 C   0  0  0  0  0  1  0  0  0  0  0  0
   17.8250  -58.4010   29.4400 C   0  0  0  0  0  1  0  0  0  0  0  0
  1  2  1  0  0  0  0
  2  7  1  0  0  0  0
  3  4  1  0  0  0  0
  3  2  2  0  0  0  0
  4  5  2  0  0  0  0
  5  6  1  0  0  0  0
  5  8  1  0  0  0  0
  7  6  2  0  0  0  0
  8  9  2  0  0  0  0
  9 10  1  0  0  0  0
 11 10  2  0  0  0  0
 12  8  1  0  0  0  0
 12 11  1  0  0  0  0
 13 12  1  0  0  0  0
 14 13  2  0  0  0  0
 15 16  1  0  0  0  0
 15 14  1  0  0  0  0
 16 18  1  0  0  0  0
 17 16  2  0  0  0  0
 18 13  1  0  0  0  0
 18  4  1  0  0  0  0
 19 15  1  0  0  0  0
 20 19  1  0  0  0  0
 21 20  2  0  0  0  0
 22 23  1  0  0  0  0
 22 20  1  0  0  0  0
 24 22  1  0  0  0  0
 25 24  1  0  0  0  0
 26 24  1  0  0  0  0
M  END
>  <Pose>
1

>  <Score>
-9.666

$$$$
