/Users/jonathanwahrer/Desktop/Msc/3_Semester/Drug_Design_Praktikum/waehrer_HTS_screening/HTS_experiment/out/docking_results/vina_output/6s1j/1802_docked.pdbqt
 OpenBabel03222222233D

 27 30  0  0  0  0  0  0  0  0999 V2000
   19.5940  -50.6070   36.4950 Cl  0  0  0  0  0  0  0  0  0  0  0  0
   18.4570  -51.8490   37.0240 C   0  0  0  0  0  0  0  0  0  0  0  0
   18.4590  -53.0760   36.3550 C   0  0  0  0  0  3  0  0  0  0  0  0
   17.6020  -54.0930   36.7210 C   0  0  0  0  0  0  0  0  0  0  0  0
   16.7490  -53.8340   37.7760 C   0  0  0  0  0  0  0  0  0  0  0  0
   16.7140  -52.6600   38.4520 C   0  0  0  0  0  3  0  0  0  0  0  0
   17.5900  -51.6320   38.0720 C   0  0  0  0  0  3  0  0  0  0  0  0
   15.8370  -54.9420   38.1590 C   0  0  0  0  0  0  0  0  0  0  0  0
   14.9300  -55.0260   39.0850 N   0  0  0  0  0  0  0  0  0  0  0  0
   14.3010  -56.3270   39.0630 C   0  0  0  0  0  3  0  0  0  0  0  0
   14.9620  -57.1130   37.9570 C   0  0  0  0  0  3  0  0  0  0  0  0
   15.9100  -56.1420   37.4340 N   0  0  0  0  0  0  0  0  0  0  0  0
   16.8220  -56.3310   36.3530 C   0  0  0  0  0  0  0  0  0  0  0  0
   17.0560  -57.3860   35.5460 N   0  0  0  0  0  0  0  0  0  0  0  0
   18.0250  -57.0700   34.6880 N   0  0  0  0  0  0  0  0  0  0  0  0
   18.3680  -55.8200   34.9900 C   0  0  0  0  0  0  0  0  0  0  0  0
   19.2630  -55.1540   34.3990 O   0  0  0  0  0  0  0  0  0  0  0  0
   17.6320  -55.3290   36.0250 N   0  0  0  0  0  0  0  0  0  0  0  0
   18.5890  -57.9390   33.6520 C   0  0  0  0  0  2  0  0  0  0  0  0
   17.4210  -58.0450   32.6230 C   0  0  0  0  0  0  0  0  0  0  0  0
   17.5170  -57.0530   31.8180 O   0  0  0  0  0  0  0  0  0  0  0  0
   16.5360  -59.0490   32.6900 N   0  0  0  0  0  0  0  0  0  0  0  0
   15.9470  -58.6090   31.5490 H   0  0  0  0  0  0  0  0  0  0  0  0
   15.6260  -60.0800   32.7600 C   0  0  0  0  0  2  0  0  0  0  0  0
   14.3470  -59.6860   33.5090 C   0  0  0  0  0  2  0  0  0  0  0  0
   13.9540  -58.4080   33.1940 O   0  0  0  0  0  0  0  0  0  0  0  0
   13.6290  -57.6140   34.2560 C   0  0  0  0  0  1  0  0  0  0  0  0
  1  2  1  0  0  0  0
  2  7  1  0  0  0  0
  3  4  1  0  0  0  0
  3  2  2  0  0  0  0
  4  5  2  0  0  0  0
  5  8  1  0  0  0  0
  5  6  1  0  0  0  0
  7  6  2  0  0  0  0
  8  9  2  0  0  0  0
 10  9  1  0  0  0  0
 11 10  2  0  0  0  0
 12 11  1  0  0  0  0
 12  8  1  0  0  0  0
 13 12  1  0  0  0  0
 14 13  2  0  0  0  0
 15 16  1  0  0  0  0
 15 14  1  0  0  0  0
 16 18  1  0  0  0  0
 17 16  2  0  0  0  0
 18 13  1  0  0  0  0
 18  4  1  0  0  0  0
 19 15  1  0  0  0  0
 20 22  1  0  0  0  0
 20 19  1  0  0  0  0
 21 20  2  0  0  0  0
 22 24  1  0  0  0  0
 23 22  1  0  0  0  0
 24 25  1  0  0  0  0
 26 25  1  0  0  0  0
 26 27  1  0  0  0  0
M  END
>  <Pose>
1

>  <Score>
-9.126

$$$$
