/Users/jonathanwahrer/Desktop/Msc/3_Semester/Drug_Design_Praktikum/waehrer_HTS_screening/HTS_experiment/out/docking_results/vina_output/6s1j/1810_docked.pdbqt
 OpenBabel03222222243D

 32 35  0  0  1  0  0  0  0  0999 V2000
   14.9680  -58.4690   34.2520 N   0  0  0  0  0  0  0  0  0  0  0  0
   14.3510  -57.4370   33.4570 C   0  0  0  0  0  2  0  0  0  0  0  0
   15.4520  -56.5710   32.8900 C   0  0  0  0  0  2  0  0  0  0  0  0
   16.7220  -57.2190   33.0920 N   0  0  0  0  0  0  0  0  0  0  0  0
   16.8910  -58.6530   32.8860 C   0  0  0  0  0  2  0  0  0  0  0  0
   15.6280  -59.3870   33.3460 C   0  0  0  0  0  2  0  0  0  0  0  0
   17.8340  -56.4650   33.5080 C   0  0  0  0  0  0  0  0  0  0  0  0
   18.9640  -57.0500   33.6430 O   0  0  0  0  0  0  0  0  0  0  0  0
   17.6990  -55.0100   33.7900 C   0  0  1  0  0  3  0  0  0  0  0  0
   17.5970  -54.7100   35.2580 C   0  0  0  0  0  2  0  0  0  0  0  0
   18.9080  -54.1960   35.6430 N   0  0  0  0  0  0  0  0  0  0  0  0
   19.7840  -54.2420   34.5330 C   0  0  0  0  0  0  0  0  0  0  0  0
   21.0360  -54.2670   34.6140 O   0  0  0  0  0  0  0  0  0  0  0  0
   18.9150  -54.2500   33.3370 C   0  0  0  0  0  2  0  0  0  0  0  0
   19.2460  -53.7200   36.9650 C   0  0  0  0  0  2  0  0  0  0  0  0
   18.0440  -53.5500   37.8150 C   0  0  0  0  0  0  0  0  0  0  0  0
   17.5620  -52.2720   38.0570 C   0  0  0  0  0  0  0  0  0  0  0  0
   16.4460  -52.0350   38.8410 C   0  0  0  0  0  3  0  0  0  0  0  0
   18.4050  -50.9260   37.3400 Cl  0  0  0  0  0  0  0  0  0  0  0  0
   15.8140  -53.1340   39.3870 C   0  0  0  0  0  3  0  0  0  0  0  0
   16.2680  -54.4230   39.1650 C   0  0  0  0  0  3  0  0  0  0  0  0
   17.3940  -54.6310   38.3710 C   0  0  0  0  0  3  0  0  0  0  0  0
   13.8170  -59.2620   35.2520 S   0  0  0  0  0  0  0  0  0  0  0  0
   13.9730  -60.7550   35.2000 O   0  0  0  0  0  0  0  0  0  0  0  0
   12.4540  -58.9690   34.6620 O   0  0  0  0  0  0  0  0  0  0  0  0
   13.8630  -58.6630   36.8820 C   0  0  0  0  0  0  0  0  0  0  0  0
   12.9170  -58.6980   37.8820 C   0  0  0  0  0  0  0  0  0  0  0  0
   13.4510  -58.0760   38.9780 N   0  0  0  0  0  0  0  0  0  0  0  0
   11.5790  -59.3100   37.7670 C   0  0  0  0  0  1  0  0  0  0  0  0
   14.6320  -57.6930   38.6690 O   0  0  0  0  0  0  0  0  0  0  0  0
   14.9460  -58.0070   37.4350 C   0  0  0  0  0  0  0  0  0  0  0  0
   16.2510  -57.6850   36.8170 C   0  0  0  0  0  1  0  0  0  0  0  0
  1 23  1  0  0  0  0
  2  1  1  0  0  0  0
  3  4  1  0  0  0  0
  3  2  1  0  0  0  0
  4  7  1  0  0  0  0
  5  4  1  0  0  0  0
  5  6  1  0  0  0  0
  6  1  1  0  0  0  0
  7  8  2  0  0  0  0
  9  7  1  1  0  0  0
  9 10  1  0  0  0  0
 10 11  1  0  0  0  0
 11 15  1  0  0  0  0
 12 13  2  0  0  0  0
 12 11  1  0  0  0  0
 14  9  1  0  0  0  0
 14 12  1  0  0  0  0
 15 16  1  0  0  0  0
 16 17  2  0  0  0  0
 16 22  1  0  0  0  0
 17 18  1  0  0  0  0
 18 20  2  0  0  0  0
 19 17  1  0  0  0  0
 21 20  1  0  0  0  0
 22 21  2  0  0  0  0
 23 26  1  0  0  0  0
 24 23  2  0  0  0  0
 25 23  2  0  0  0  0
 26 31  2  0  0  0  0
 26 27  1  0  0  0  0
 27 28  2  0  0  0  0
 29 27  1  0  0  0  0
 30 28  1  0  0  0  0
 31 30  1  0  0  0  0
 32 31  1  0  0  0  0
M  END
>  <Pose>
1

>  <Score>
-9.767

$$$$
