/Users/jonathanwahrer/Desktop/Msc/3_Semester/Drug_Design_Praktikum/waehrer_HTS_screening/HTS_experiment/out/docking_results/vina_output/6s1j/1816_docked.pdbqt
 OpenBabel03222222243D

 36 39  0  0  0  0  0  0  0  0999 V2000
   13.8930  -58.6950   34.0370 C   0  0  0  0  0  0  0  0  0  0  0  0
   13.2940  -57.6660   33.5690 O   0  0  0  0  0  0  0  0  0  0  0  0
   13.1200  -59.6640   34.6520 N   0  0  0  0  0  0  0  0  0  0  0  0
   11.7000  -59.5670   34.7880 C   0  0  0  0  0  2  0  0  0  0  0  0
   11.3690  -59.6000   36.2820 C   0  0  0  0  0  2  0  0  0  0  0  0
   11.9280  -60.7720   36.8650 N   0  0  0  0  0  0  0  0  0  0  0  0
   12.7030  -61.6530   35.9650 C   0  0  0  0  0  2  0  0  0  0  0  0
   13.7330  -60.8520   35.2000 C   0  0  0  0  0  2  0  0  0  0  0  0
   11.8110  -61.1540   38.2180 C   0  0  0  0  0  0  0  0  0  0  0  0
   12.4210  -62.3020   38.4970 O   0  0  0  0  0  0  0  0  0  0  0  0
   15.3720  -58.7560   33.8750 C   0  0  0  0  0  2  0  0  0  0  0  0
   16.0150  -57.4940   34.3080 C   0  0  0  0  0  0  0  0  0  0  0  0
   16.4180  -56.5550   33.3600 C   0  0  0  0  0  0  0  0  0  0  0  0
   16.9900  -55.4220   33.6850 O   0  0  0  0  0  0  0  0  0  0  0  0
   16.1990  -56.8540   32.1380 O   0  0  0  0  0  0  0  0  0  0  0  0
   17.2310  -55.0780   34.9270 C   0  0  0  0  0  0  0  0  0  0  0  0
   16.8730  -55.9340   35.9430 C   0  0  0  0  0  0  0  0  0  0  0  0
   17.8460  -53.8590   35.2430 C   0  0  0  0  0  3  0  0  0  0  0  0
   17.1320  -55.5600   37.2390 C   0  0  0  0  0  3  0  0  0  0  0  0
   16.2600  -57.1480   35.6170 C   0  0  0  0  0  0  0  0  0  0  0  0
   17.7430  -54.3490   37.5490 C   0  0  0  0  0  0  0  0  0  0  0  0
   18.0760  -53.8710   39.1980 Cl  0  0  0  0  0  0  0  0  0  0  0  0
   18.1060  -53.4850   36.5420 C   0  0  0  0  0  0  0  0  0  0  0  0
   15.8800  -58.0470   36.7020 C   0  0  0  0  0  1  0  0  0  0  0  0
   18.7240  -52.2590   36.8500 O   0  0  0  0  0  0  0  0  0  0  0  0
   19.8920  -51.8290   36.1950 C   0  0  0  0  0  1  0  0  0  0  0  0
   11.1610  -60.5360   39.3340 C   0  0  0  0  0  0  0  0  0  0  0  0
   11.7060  -60.6960   40.6330 C   0  0  0  0  0  3  0  0  0  0  0  0
   11.1120  -60.1250   41.7260 C   0  0  0  0  0  0  0  0  0  0  0  0
   11.6170  -60.2830   42.8690 O   0  0  0  0  0  0  0  0  0  0  0  0
    9.9940  -59.3920   41.6410 N   0  0  0  0  0  0  0  0  0  0  0  0
    9.4800  -59.2420   40.4200 C   0  0  0  0  0  0  0  0  0  0  0  0
    9.3790  -58.8000   42.8070 C   0  0  0  0  0  1  0  0  0  0  0  0
    8.4160  -58.5530   40.2850 O   0  0  0  0  0  0  0  0  0  0  0  0
   10.0540  -59.8030   39.2980 N   0  0  0  0  0  0  0  0  0  0  0  0
    9.5770  -59.6220   38.3930 H   0  0  0  0  0  0  0  0  0  0  0  0
  1  3  1  0  0  0  0
  2  1  2  0  0  0  0
  3  4  1  0  0  0  0
  3  8  1  0  0  0  0
  4  5  1  0  0  0  0
  5  6  1  0  0  0  0
  6  9  1  0  0  0  0
  7  6  1  0  0  0  0
  8  7  1  0  0  0  0
  9 10  2  0  0  0  0
  9 27  1  0  0  0  0
 11  1  1  0  0  0  0
 11 12  1  0  0  0  0
 12 20  2  0  0  0  0
 13 14  1  0  0  0  0
 13 12  1  0  0  0  0
 14 16  1  0  0  0  0
 15 13  2  0  0  0  0
 16 18  2  0  0  0  0
 16 17  1  0  0  0  0
 17 19  2  0  0  0  0
 18 23  1  0  0  0  0
 19 21  1  0  0  0  0
 20 17  1  0  0  0  0
 20 24  1  0  0  0  0
 21 22  1  0  0  0  0
 23 25  1  0  0  0  0
 23 21  2  0  0  0  0
 26 25  1  0  0  0  0
 27 28  2  0  0  0  0
 28 29  1  0  0  0  0
 29 30  2  0  0  0  0
 31 29  1  0  0  0  0
 31 33  1  0  0  0  0
 32 31  1  0  0  0  0
 34 32  2  0  0  0  0
 35 27  1  0  0  0  0
 35 32  1  0  0  0  0
 36 35  1  0  0  0  0
M  END
>  <Pose>
1

>  <Score>
-10.189

$$$$
