/Users/jonathanwahrer/Desktop/Msc/3_Semester/Drug_Design_Praktikum/waehrer_HTS_screening/HTS_experiment/out/docking_results/vina_output/6s1j/1825_docked.pdbqt
 OpenBabel03222222243D

 29 32  0  0  1  0  0  0  0  0999 V2000
   16.0360  -57.2500   36.2430 N   0  0  0  0  0  0  0  0  0  0  0  0
   15.4800  -56.7050   37.3660 C   0  0  1  0  0  3  0  0  0  0  0  0
   16.0820  -55.5340   37.6320 N   0  0  0  0  0  0  0  0  0  0  0  0
   17.0250  -55.2770   36.7170 C   0  0  0  0  0  0  0  0  0  0  0  0
   16.9710  -56.3810   35.8530 C   0  0  0  0  0  3  0  0  0  0  0  0
   15.4860  -54.9660   38.8410 C   0  0  0  0  0  2  0  0  0  0  0  0
   14.7420  -56.1150   39.4940 C   0  0  0  0  0  2  0  0  0  0  0  0
   14.4140  -57.0110   38.3540 C   0  0  0  0  0  2  0  0  0  0  0  0
   15.6490  -58.5410   35.6560 C   0  0  0  0  0  2  0  0  0  0  0  0
   15.8920  -58.4770   34.1620 C   0  0  0  0  0  0  0  0  0  0  0  0
   17.1010  -58.8610   33.6040 N   0  0  0  0  0  0  0  0  0  0  0  0
   17.8450  -59.2100   34.2820 H   0  0  0  0  0  0  0  0  0  0  0  0
   14.9390  -58.0570   33.4970 O   0  0  0  0  0  0  0  0  0  0  0  0
   17.4330  -58.8300   32.2360 C   0  0  0  0  0  0  0  0  0  0  0  0
   18.3080  -57.8180   31.7850 C   0  0  0  0  0  0  0  0  0  0  0  0
   18.6720  -57.7250   30.4610 C   0  0  0  0  0  0  0  0  0  0  0  0
   18.8450  -56.8390   32.7460 C   0  0  0  0  0  1  0  0  0  0  0  0
   19.7610  -56.4790   29.8880 Cl  0  0  0  0  0  0  0  0  0  0  0  0
   18.1990  -58.6090   29.5190 C   0  0  0  0  0  3  0  0  0  0  0  0
   17.3460  -59.6020   29.9260 C   0  0  0  0  0  3  0  0  0  0  0  0
   16.9770  -59.6940   31.2830 C   0  0  0  0  0  3  0  0  0  0  0  0
   17.9530  -54.1700   36.5500 C   0  0  0  0  0  0  0  0  0  0  0  0
   17.9280  -53.0580   37.3460 C   0  0  0  0  0  3  0  0  0  0  0  0
   18.8160  -52.0070   37.2120 C   0  0  0  0  0  3  0  0  0  0  0  0
   19.7990  -52.0300   36.2350 C   0  0  0  0  0  0  0  0  0  0  0  0
   19.8260  -53.1470   35.4350 C   0  0  0  0  0  3  0  0  0  0  0  0
   18.9390  -54.1970   35.5680 C   0  0  0  0  0  3  0  0  0  0  0  0
   20.7050  -50.9960   36.0700 O   0  0  0  0  0  0  0  0  0  0  0  0
   20.3190  -49.6340   36.0440 C   0  0  0  0  0  1  0  0  0  0  0  0
  1  2  1  0  0  0  0
  2  3  1  0  0  0  0
  2  8  1  6  0  0  0
  3  6  1  0  0  0  0
  4  3  1  0  0  0  0
  5  1  1  0  0  0  0
  5  4  2  0  0  0  0
  6  7  1  0  0  0  0
  8  7  1  0  0  0  0
  9  1  1  0  0  0  0
 10  9  1  0  0  0  0
 11 10  1  0  0  0  0
 11 12  1  0  0  0  0
 13 10  2  0  0  0  0
 14 11  1  0  0  0  0
 15 14  1  0  0  0  0
 15 17  1  0  0  0  0
 16 15  2  0  0  0  0
 18 16  1  0  0  0  0
 19 20  2  0  0  0  0
 19 16  1  0  0  0  0
 20 21  1  0  0  0  0
 21 14  2  0  0  0  0
 22  4  1  0  0  0  0
 22 23  1  0  0  0  0
 24 23  2  0  0  0  0
 25 24  1  0  0  0  0
 26 27  1  0  0  0  0
 26 25  2  0  0  0  0
 27 22  2  0  0  0  0
 28 25  1  0  0  0  0
 29 28  1  0  0  0  0
M  END
>  <Pose>
1

>  <Score>
-9.270

$$$$
