/Users/jonathanwahrer/Desktop/Msc/3_Semester/Drug_Design_Praktikum/waehrer_HTS_screening/HTS_experiment/out/docking_results/vina_output/6s1j/1835_docked.pdbqt
 OpenBabel03222222253D

 36 39  0  0  1  0  0  0  0  0999 V2000
   15.2640  -57.8970   36.8220 C   0  0  0  0  0  0  0  0  0  0  0  0
   14.6590  -58.4440   35.7560 N   0  0  0  0  0  0  0  0  0  0  0  0
   13.4680  -58.8900   36.1940 C   0  0  0  0  0  0  0  0  0  0  0  0
   12.4390  -59.5240   35.5810 N   0  0  0  0  0  0  0  0  0  0  0  0
   11.3240  -59.8770   36.2490 C   0  0  0  0  0  3  0  0  0  0  0  0
   11.2080  -59.6020   37.5660 N   0  0  0  0  0  0  0  0  0  0  0  0
   12.1870  -58.9760   38.2450 C   0  0  0  0  0  0  0  0  0  0  0  0
   13.3200  -58.6240   37.5380 C   0  0  0  0  0  0  0  0  0  0  0  0
   14.4630  -57.9990   37.9090 N   0  0  0  0  0  0  0  0  0  0  0  0
   16.5510  -57.2960   36.8230 N   0  0  0  0  0  0  0  0  0  0  0  0
   17.4200  -57.8750   36.8990 H   0  0  0  0  0  0  0  0  0  0  0  0
   16.7290  -55.9140   36.7260 N   0  0  0  0  0  0  0  0  0  0  0  0
   17.5820  -55.3500   37.4990 C   0  0  0  0  0  3  0  0  0  0  0  0
   17.8320  -53.9060   37.4650 C   0  0  0  0  0  0  0  0  0  0  0  0
   17.0090  -53.0200   38.1270 C   0  0  0  0  0  0  0  0  0  0  0  0
   15.6480  -53.6650   39.0150 Cl  0  0  0  0  0  0  0  0  0  0  0  0
   17.2680  -51.6480   38.0810 C   0  0  0  0  0  3  0  0  0  0  0  0
   18.3390  -51.1350   37.3820 C   0  0  0  0  0  3  0  0  0  0  0  0
   19.1580  -52.0290   36.7230 C   0  0  0  0  0  3  0  0  0  0  0  0
   18.9030  -53.3930   36.7660 C   0  0  0  0  0  0  0  0  0  0  0  0
   19.9570  -54.5190   35.9190 Cl  0  0  0  0  0  0  0  0  0  0  0  0
   15.1080  -58.5720   34.4000 C   0  0  1  0  0  3  0  0  0  0  0  0
   15.7040  -57.4090   33.9200 O   0  0  0  0  0  0  0  0  0  0  0  0
   16.3320  -57.8790   32.7670 C   0  0  2  0  0  3  0  0  0  0  0  0
   17.1630  -59.0190   33.3360 C   0  0  1  0  0  3  0  0  0  0  0  0
   16.1590  -59.6610   34.2710 C   0  0  2  0  0  3  0  0  0  0  0  0
   17.1920  -56.8340   32.1070 C   0  0  0  0  0  2  0  0  0  0  0  0
   16.8640  -56.6180   30.7920 O   0  0  0  0  0  0  0  0  0  0  0  0
   17.0140  -55.6860   30.5220 H   0  0  0  0  0  0  0  0  0  0  0  0
   17.5840  -59.8960   32.3450 O   0  0  0  0  0  0  0  0  0  0  0  0
   16.7820  -60.3930   32.0280 H   0  0  0  0  0  0  0  0  0  0  0  0
   15.6500  -60.7850   33.6150 O   0  0  0  0  0  0  0  0  0  0  0  0
   16.3460  -61.2790   33.1380 H   0  0  0  0  0  0  0  0  0  0  0  0
   12.0370  -58.7020   39.6240 N   0  0  0  0  0  0  0  0  0  0  0  0
   11.2890  -59.1400   40.1900 H   0  0  0  0  0  0  0  0  0  0  0  0
   12.6930  -58.0440   40.0810 H   0  0  0  0  0  0  0  0  0  0  0  0
  1 10  1  0  0  0  0
  1  9  2  0  0  0  0
  2  3  1  0  0  0  0
  2  1  1  0  0  0  0
  3  8  1  0  0  0  0
  4  3  2  0  0  0  0
  4  5  1  0  0  0  0
  5  6  2  0  0  0  0
  6  7  1  0  0  0  0
  7 34  1  0  0  0  0
  8  9  1  0  0  0  0
  8  7  2  0  0  0  0
 10 11  1  0  0  0  0
 12 10  1  0  0  0  0
 12 13  2  0  0  0  0
 14 13  1  0  0  0  0
 14 15  1  0  0  0  0
 15 16  1  0  0  0  0
 17 15  2  0  0  0  0
 18 17  1  0  0  0  0
 19 20  1  0  0  0  0
 19 18  2  0  0  0  0
 20 14  2  0  0  0  0
 21 20  1  0  0  0  0
 22  2  1  1  0  0  0
 23 22  1  0  0  0  0
 24 27  1  1  0  0  0
 24 25  1  0  0  0  0
 24 23  1  0  0  0  0
 25 30  1  6  0  0  0
 25 26  1  0  0  0  0
 26 32  1  6  0  0  0
 26 22  1  0  0  0  0
 28 27  1  0  0  0  0
 29 28  1  0  0  0  0
 31 30  1  0  0  0  0
 33 32  1  0  0  0  0
 34 36  1  0  0  0  0
 34 35  1  0  0  0  0
M  END
>  <Pose>
1

>  <Score>
-9.200

$$$$
