/Users/jonathanwahrer/Desktop/Msc/3_Semester/Drug_Design_Praktikum/waehrer_HTS_screening/HTS_experiment/out/docking_results/vina_output/6s1j/1837_docked.pdbqt
 OpenBabel03222222253D

 29 32  0  0  0  0  0  0  0  0999 V2000
   15.2300  -56.8300   37.7290 N   0  0  0  0  0  0  0  0  0  0  0  0
   15.6070  -58.2250   38.0380 C   0  0  0  0  0  2  0  0  0  0  0  0
   16.2950  -58.6730   36.7310 C   0  0  0  0  0  2  0  0  0  0  0  0
   15.5070  -57.9890   35.6940 N   0  0  0  0  0  0  0  0  0  0  0  0
   14.1000  -57.9420   35.9380 C   0  0  0  0  0  2  0  0  0  0  0  0
   13.9010  -56.9310   37.0800 C   0  0  0  0  0  2  0  0  0  0  0  0
   15.0930  -56.0560   38.9500 C   0  0  0  0  0  2  0  0  0  0  0  0
   15.9000  -54.7950   38.7470 C   0  0  0  0  0  0  0  0  0  0  0  0
   16.8100  -54.6600   37.6940 N   0  0  0  0  0  0  0  0  0  0  0  0
   16.9280  -55.5150   37.0640 H   0  0  0  0  0  0  0  0  0  0  0  0
   15.7400  -53.8500   39.5610 O   0  0  0  0  0  0  0  0  0  0  0  0
   17.6190  -53.5500   37.3740 C   0  0  0  0  0  0  0  0  0  0  0  0
   18.7760  -53.7180   36.5990 C   0  0  0  0  0  3  0  0  0  0  0  0
   19.5920  -52.6720   36.2510 C   0  0  0  0  0  3  0  0  0  0  0  0
   19.2900  -51.3830   36.6650 C   0  0  0  0  0  0  0  0  0  0  0  0
   20.3080  -50.0240   36.2380 Cl  0  0  0  0  0  0  0  0  0  0  0  0
   18.1590  -51.2020   37.4240 C   0  0  0  0  0  3  0  0  0  0  0  0
   17.3410  -52.2710   37.7680 C   0  0  0  0  0  3  0  0  0  0  0  0
   16.1770  -57.4400   34.5910 C   0  0  0  0  0  0  0  0  0  0  0  0
   16.6640  -56.1620   34.6450 N   0  0  0  0  0  0  0  0  0  0  0  0
   17.2990  -55.5670   33.6360 C   0  0  0  0  0  3  0  0  0  0  0  0
   17.4850  -56.2320   32.4910 N   0  0  0  0  0  0  0  0  0  0  0  0
   17.0580  -57.4790   32.3180 C   0  0  0  0  0  0  0  0  0  0  0  0
   17.1080  -58.3550   31.2950 N   0  0  0  0  0  0  0  0  0  0  0  0
   16.3930  -58.0920   33.3850 C   0  0  0  0  0  0  0  0  0  0  0  0
   16.5110  -59.4450   31.7070 N   0  0  0  0  0  0  0  0  0  0  0  0
   16.0820  -59.2990   32.9510 N   0  0  0  0  0  0  0  0  0  0  0  0
   17.6920  -58.1770   29.9790 C   0  0  0  0  0  2  0  0  0  0  0  0
   19.2040  -58.2020   30.0390 C   0  0  0  0  0  1  0  0  0  0  0  0
  1  2  1  0  0  0  0
  1  7  1  0  0  0  0
  3  2  1  0  0  0  0
  4  5  1  0  0  0  0
  4  3  1  0  0  0  0
  5  6  1  0  0  0  0
  6  1  1  0  0  0  0
  8  7  1  0  0  0  0
  8 11  2  0  0  0  0
  9  8  1  0  0  0  0
 10  9  1  0  0  0  0
 12  9  1  0  0  0  0
 12 18  1  0  0  0  0
 13 12  2  0  0  0  0
 14 13  1  0  0  0  0
 14 15  2  0  0  0  0
 15 17  1  0  0  0  0
 16 15  1  0  0  0  0
 17 18  2  0  0  0  0
 19 20  1  0  0  0  0
 19  4  1  0  0  0  0
 21 20  2  0  0  0  0
 22 21  1  0  0  0  0
 23 22  2  0  0  0  0
 23 25  1  0  0  0  0
 24 26  1  0  0  0  0
 24 23  1  0  0  0  0
 25 19  2  0  0  0  0
 26 27  2  0  0  0  0
 27 25  1  0  0  0  0
 28 29  1  0  0  0  0
 28 24  1  0  0  0  0
M  END
>  <Pose>
1

>  <Score>
-8.954

$$$$
