/Users/jonathanwahrer/Desktop/Msc/3_Semester/Drug_Design_Praktikum/waehrer_HTS_screening/HTS_experiment/out/docking_results/vina_output/6s1j/1846_docked.pdbqt
 OpenBabel03222222253D

 31 34  0  0  1  0  0  0  0  0999 V2000
   15.5940  -58.4940   35.4600 N   0  0  0  0  0  0  0  0  0  0  0  0
   15.9110  -58.3570   36.7660 C   0  0  0  0  0  2  0  0  0  0  0  0
   14.9870  -58.5880   37.7220 N   0  0  0  0  0  0  0  0  0  0  0  0
   13.7310  -58.9590   37.4440 C   0  0  0  0  0  0  0  0  0  0  0  0
   12.8050  -59.1920   38.3880 N   0  0  0  0  0  0  0  0  0  0  0  0
   11.5380  -59.5640   38.1370 C   0  0  0  0  0  0  0  0  0  0  0  0
   11.1990  -59.7090   36.8270 N   0  0  0  0  0  0  0  0  0  0  0  0
   12.0940  -59.4870   35.8510 C   0  0  0  0  0  3  0  0  0  0  0  0
   13.3920  -59.1040   36.1210 C   0  0  2  0  0  3  0  0  0  0  0  0
   14.3260  -58.8710   35.1330 C   0  0  0  0  0  0  0  0  0  0  0  0
   13.9550  -59.0200   33.9430 O   0  0  0  0  0  0  0  0  0  0  0  0
   16.5110  -58.2680   34.3880 C   0  0  0  0  0  2  0  0  0  0  0  0
   17.4990  -57.1780   34.6960 C   0  0  0  0  0  0  0  0  0  0  0  0
   17.0860  -55.8430   34.8400 N   0  0  0  0  0  0  0  0  0  0  0  0
   16.0410  -55.6200   34.7220 H   0  0  0  0  0  0  0  0  0  0  0  0
   18.6820  -57.5310   34.8140 O   0  0  0  0  0  0  0  0  0  0  0  0
   17.9690  -54.7790   35.1250 C   0  0  0  0  0  0  0  0  0  0  0  0
   19.1270  -54.4970   34.4490 C   0  0  0  0  0  3  0  0  0  0  0  0
   19.9290  -53.4210   34.8340 C   0  0  0  0  0  3  0  0  0  0  0  0
   19.6260  -52.5930   35.8870 C   0  0  0  0  0  0  0  0  0  0  0  0
   18.4660  -52.8670   36.5710 C   0  0  0  0  0  0  0  0  0  0  0  0
   17.9840  -51.8720   37.9290 Cl  0  0  0  0  0  0  0  0  0  0  0  0
   17.6700  -53.9220   36.2000 C   0  0  0  0  0  3  0  0  0  0  0  0
   20.4560  -51.5220   36.2440 O   0  0  0  0  0  0  0  0  0  0  0  0
   20.1180  -50.2110   35.8530 C   0  0  0  0  0  1  0  0  0  0  0  0
   10.5910  -59.7990   39.1610 N   0  0  0  0  0  0  0  0  0  0  0  0
   11.0720  -60.1310   40.4820 C   0  0  0  0  0  2  0  0  0  0  0  0
   10.2010  -59.4200   41.5160 C   0  0  0  0  0  2  0  0  0  0  0  0
    8.8440  -59.6080   41.2650 O   0  0  0  0  0  0  0  0  0  0  0  0
    8.5560  -58.9080   40.0930 C   0  0  0  0  0  2  0  0  0  0  0  0
    9.1640  -59.7230   38.9510 C   0  0  0  0  0  2  0  0  0  0  0  0
  1  2  1  0  0  0  0
  2  3  1  0  0  0  0
  4  3  2  0  0  0  0
  4  5  1  0  0  0  0
  6  5  2  0  0  0  0
  6 26  1  0  0  0  0
  7  6  1  0  0  0  0
  8  7  2  0  0  0  0
  9  8  1  1  0  0  0
  9  4  1  0  0  0  0
 10  1  1  0  0  0  0
 10  9  1  0  0  0  0
 11 10  2  0  0  0  0
 12 13  1  0  0  0  0
 12  1  1  0  0  0  0
 13 16  2  0  0  0  0
 13 14  1  0  0  0  0
 14 17  1  0  0  0  0
 15 14  1  0  0  0  0
 17 23  1  0  0  0  0
 18 19  1  0  0  0  0
 18 17  2  0  0  0  0
 19 20  2  0  0  0  0
 20 24  1  0  0  0  0
 20 21  1  0  0  0  0
 21 22  1  0  0  0  0
 23 21  2  0  0  0  0
 25 24  1  0  0  0  0
 26 27  1  0  0  0  0
 27 28  1  0  0  0  0
 29 28  1  0  0  0  0
 30 29  1  0  0  0  0
 31 26  1  0  0  0  0
 31 30  1  0  0  0  0
M  END
>  <Pose>
1

>  <Score>
-8.882

$$$$
