/Users/jonathanwahrer/Desktop/Msc/3_Semester/Drug_Design_Praktikum/waehrer_HTS_screening/HTS_experiment/out/docking_results/vina_output/6s1j/1863_docked.pdbqt
 OpenBabel03222222263D

 33 36  0  0  0  0  0  0  0  0999 V2000
   17.7420  -55.7090   33.5330 N   0  0  0  0  0  0  0  0  0  0  0  0
   18.6960  -55.5710   32.5710 C   0  0  0  0  0  0  0  0  0  0  0  0
   18.9060  -56.8060   32.0160 C   0  0  0  0  0  0  0  0  0  0  0  0
   18.0840  -57.6410   32.6510 N   0  0  0  0  0  0  0  0  0  0  0  0
   17.3560  -56.9860   33.5940 C   0  0  0  0  0  0  0  0  0  0  0  0
   19.8260  -56.9220   31.0430 N   0  0  0  0  0  0  0  0  0  0  0  0
   20.5440  -55.8520   30.6080 C   0  0  0  0  0  0  0  0  0  0  0  0
   21.4160  -55.9520   29.6880 O   0  0  0  0  0  0  0  0  0  0  0  0
   20.3610  -54.6290   31.1340 N   0  0  0  0  0  0  0  0  0  0  0  0
   19.4460  -54.4940   32.1040 C   0  0  0  0  0  0  0  0  0  0  0  0
   19.3010  -53.3440   32.5750 O   0  0  0  0  0  0  0  0  0  0  0  0
   20.0860  -58.1990   30.4310 C   0  0  0  0  0  1  0  0  0  0  0  0
   20.9240  -53.7940   30.7900 H   0  0  0  0  0  0  0  0  0  0  0  0
   16.4100  -57.6210   34.4780 N   0  0  0  0  0  0  0  0  0  0  0  0
   16.9580  -58.1050   35.7240 C   0  0  0  0  0  2  0  0  0  0  0  0
   15.9260  -58.6840   36.6570 C   0  0  0  0  0  2  0  0  0  0  0  0
   14.8300  -57.7860   36.7070 N   0  0  0  0  0  0  0  0  0  0  0  0
   14.1660  -57.6750   35.4520 C   0  0  0  0  0  2  0  0  0  0  0  0
   15.0220  -57.8070   34.2270 C   0  0  0  0  0  2  0  0  0  0  0  0
   15.2190  -56.5370   37.2820 C   0  0  0  0  0  2  0  0  0  0  0  0
   14.4220  -56.1450   38.4820 C   0  0  0  0  0  0  0  0  0  0  0  0
   14.5050  -55.0440   39.0470 O   0  0  0  0  0  0  0  0  0  0  0  0
   13.5220  -57.1520   38.9660 N   0  0  0  0  0  0  0  0  0  0  0  0
   13.8450  -57.9250   39.5900 H   0  0  0  0  0  0  0  0  0  0  0  0
   12.5430  -57.1040   38.6890 H   0  0  0  0  0  0  0  0  0  0  0  0
   17.2480  -54.6190   34.3050 C   0  0  0  0  0  2  0  0  0  0  0  0
   17.9720  -54.3490   35.5760 C   0  0  0  0  0  0  0  0  0  0  0  0
   17.2670  -53.7230   36.6150 C   0  0  0  0  0  3  0  0  0  0  0  0
   17.8310  -53.4210   37.8220 C   0  0  0  0  0  0  0  0  0  0  0  0
   16.9530  -52.6430   39.1360 Cl  0  0  0  0  0  0  0  0  0  0  0  0
   19.1540  -53.7370   38.0450 C   0  0  0  0  0  3  0  0  0  0  0  0
   19.8550  -54.3530   37.0280 C   0  0  0  0  0  3  0  0  0  0  0  0
   19.2780  -54.6590   35.8040 C   0  0  0  0  0  3  0  0  0  0  0  0
  1  5  1  0  0  0  0
  1 26  1  0  0  0  0
  2  1  1  0  0  0  0
  3  2  2  0  0  0  0
  3  4  1  0  0  0  0
  4  5  2  0  0  0  0
  5 14  1  0  0  0  0
  6  3  1  0  0  0  0
  7  6  1  0  0  0  0
  7  9  1  0  0  0  0
  8  7  2  0  0  0  0
  9 10  1  0  0  0  0
 10  2  1  0  0  0  0
 10 11  2  0  0  0  0
 12  6  1  0  0  0  0
 13  9  1  0  0  0  0
 14 15  1  0  0  0  0
 15 16  1  0  0  0  0
 16 17  1  0  0  0  0
 17 20  1  0  0  0  0
 18 17  1  0  0  0  0
 19 14  1  0  0  0  0
 19 18  1  0  0  0  0
 20 21  1  0  0  0  0
 21 23  1  0  0  0  0
 21 22  2  0  0  0  0
 23 24  1  0  0  0  0
 25 23  1  0  0  0  0
 26 27  1  0  0  0  0
 27 33  2  0  0  0  0
 27 28  1  0  0  0  0
 28 29  2  0  0  0  0
 29 31  1  0  0  0  0
 29 30  1  0  0  0  0
 32 31  2  0  0  0  0
 33 32  1  0  0  0  0
M  END
>  <Pose>
1

>  <Score>
-9.484

$$$$
