/Users/jonathanwahrer/Desktop/Msc/3_Semester/Drug_Design_Praktikum/waehrer_HTS_screening/HTS_experiment/out/docking_results/vina_output/6s1j/1865_docked.pdbqt
 OpenBabel03222222263D

 29 32  0  0  1  0  0  0  0  0999 V2000
   19.6720  -54.5470   34.9320 N   0  0  0  0  0  0  0  0  0  0  0  0
   19.8360  -53.6100   33.8570 C   0  0  0  0  0  0  0  0  0  0  0  0
   20.2550  -52.4130   33.9930 O   0  0  0  0  0  0  0  0  0  0  0  0
   19.4610  -54.2370   32.6330 N   0  0  0  0  0  0  0  0  0  0  0  0
   18.6100  -55.3440   33.0080 C   0  0  1  0  0  0  0  0  0  0  0  0
   17.2370  -54.7680   33.3000 C   0  0  0  0  0  2  0  0  0  0  0  0
   16.4940  -55.8310   34.1010 C   0  0  0  0  0  2  0  0  0  0  0  0
   16.6260  -57.1220   33.4540 N   0  0  0  0  0  0  0  0  0  0  0  0
   17.2640  -57.2140   32.1680 C   0  0  0  0  0  2  0  0  0  0  0  0
   18.5240  -56.4270   32.0200 C   0  0  0  0  0  2  0  0  0  0  0  0
   16.1200  -58.2850   34.0920 C   0  0  0  0  0  0  0  0  0  0  0  0
   16.2430  -59.4160   33.5220 O   0  0  0  0  0  0  0  0  0  0  0  0
   19.1910  -55.7380   34.3160 C   0  0  0  0  0  0  0  0  0  0  0  0
   19.2810  -56.8770   34.8500 O   0  0  0  0  0  0  0  0  0  0  0  0
   19.7360  -53.9600   31.6720 H   0  0  0  0  0  0  0  0  0  0  0  0
   19.9320  -54.3460   36.3390 C   0  0  0  0  0  2  0  0  0  0  0  0
   18.8210  -53.6640   37.0350 C   0  0  0  0  0  0  0  0  0  0  0  0
   17.7390  -54.3640   37.5190 C   0  0  0  0  0  3  0  0  0  0  0  0
   16.6840  -53.7630   38.1720 C   0  0  0  0  0  0  0  0  0  0  0  0
   15.3090  -54.6600   38.7850 Cl  0  0  0  0  0  0  0  0  0  0  0  0
   16.7460  -52.3930   38.3340 C   0  0  0  0  0  3  0  0  0  0  0  0
   17.8240  -51.6790   37.8550 C   0  0  0  0  0  3  0  0  0  0  0  0
   18.8740  -52.2990   37.2010 C   0  0  0  0  0  3  0  0  0  0  0  0
   15.4550  -58.2670   35.3830 C   0  0  0  0  0  0  0  0  0  0  0  0
   14.1220  -58.1120   35.5130 N   0  0  0  0  0  0  0  0  0  0  0  0
   13.5730  -58.1040   36.7400 C   0  0  0  0  0  3  0  0  0  0  0  0
   14.3220  -58.2500   37.8870 C   0  0  0  0  0  3  0  0  0  0  0  0
   15.6490  -58.4040   37.7630 N   0  0  0  0  0  0  0  0  0  0  0  0
   16.2100  -58.4130   36.5230 C   0  0  0  0  0  3  0  0  0  0  0  0
  1 16  1  0  0  0  0
  2  3  2  0  0  0  0
  2  1  1  0  0  0  0
  4  5  1  0  0  0  0
  4  2  1  0  0  0  0
  5 10  1  6  0  0  0
  5  6  1  0  0  0  0
  5 13  1  0  0  0  0
  6  7  1  0  0  0  0
  8 11  1  0  0  0  0
  8  7  1  0  0  0  0
  9  8  1  0  0  0  0
 10  9  1  0  0  0  0
 11 24  1  0  0  0  0
 12 11  2  0  0  0  0
 13 14  2  0  0  0  0
 13  1  1  0  0  0  0
 15  4  1  0  0  0  0
 16 17  1  0  0  0  0
 17 23  2  0  0  0  0
 17 18  1  0  0  0  0
 18 19  2  0  0  0  0
 19 21  1  0  0  0  0
 19 20  1  0  0  0  0
 22 21  2  0  0  0  0
 23 22  1  0  0  0  0
 24 25  2  0  0  0  0
 24 29  1  0  0  0  0
 25 26  1  0  0  0  0
 26 27  2  0  0  0  0
 28 27  1  0  0  0  0
 29 28  2  0  0  0  0
M  END
>  <Pose>
1

>  <Score>
-10.092

$$$$
