/Users/jonathanwahrer/Desktop/Msc/3_Semester/Drug_Design_Praktikum/waehrer_HTS_screening/HTS_experiment/out/docking_results/vina_output/6s1j/1894_docked.pdbqt
 OpenBabel03222222273D

 26 29  0  0  0  0  0  0  0  0999 V2000
   16.6810  -56.8270   34.1160 N   0  0  0  0  0  0  0  0  0  0  0  0
   17.4340  -56.2950   35.1050 C   0  0  0  0  0  0  0  0  0  0  0  0
   17.2670  -56.5370   36.3190 O   0  0  0  0  0  0  0  0  0  0  0  0
   18.4070  -55.4550   34.5910 C   0  0  0  0  0  0  0  0  0  0  0  0
   18.2420  -55.4760   33.2600 C   0  0  0  0  0  0  0  0  0  0  0  0
   19.1920  -54.6600   32.7710 N   0  0  0  0  0  0  0  0  0  0  0  0
   19.9040  -54.1630   33.7660 N   0  0  0  0  0  0  0  0  0  0  0  0
   19.4330  -54.6430   34.8960 N   0  0  0  0  0  0  0  0  0  0  0  0
   17.1850  -56.3180   32.9850 C   0  0  0  0  0  0  0  0  0  0  0  0
   16.7540  -56.5710   31.8270 O   0  0  0  0  0  0  0  0  0  0  0  0
   19.3670  -54.4310   31.7710 H   0  0  0  0  0  0  0  0  0  0  0  0
   20.7210  -53.4880   33.6780 H   0  0  0  0  0  0  0  0  0  0  0  0
   15.5870  -57.7330   34.2480 C   0  0  0  0  0  0  0  0  0  0  0  0
   15.7900  -59.0660   34.5330 C   0  0  0  0  0  3  0  0  0  0  0  0
   14.7360  -59.9510   34.6630 C   0  0  0  0  0  3  0  0  0  0  0  0
   13.4300  -59.5340   34.5120 C   0  0  0  0  0  0  0  0  0  0  0  0
   12.0890  -60.6640   34.6790 Cl  0  0  0  0  0  0  0  0  0  0  0  0
   13.2150  -58.2010   34.2270 C   0  0  0  0  0  3  0  0  0  0  0  0
   14.2750  -57.3240   34.0980 C   0  0  0  0  0  3  0  0  0  0  0  0
   19.9100  -54.3610   36.2290 C   0  0  0  0  0  2  0  0  0  0  0  0
   19.0030  -53.4970   37.0160 C   0  0  0  0  0  0  0  0  0  0  0  0
   18.9080  -52.1600   36.7170 C   0  0  0  0  0  3  0  0  0  0  0  0
   18.0610  -51.3740   37.4640 C   0  0  0  0  0  3  0  0  0  0  0  0
   17.3120  -51.9020   38.5000 C   0  0  0  0  0  3  0  0  0  0  0  0
   17.4070  -53.2420   38.8010 C   0  0  0  0  0  3  0  0  0  0  0  0
   18.2530  -54.0090   38.0490 C   0  0  0  0  0  3  0  0  0  0  0  0
  1 13  1  0  0  0  0
  1  2  1  0  0  0  0
  2  3  2  0  0  0  0
  4  8  1  0  0  0  0
  4  2  1  0  0  0  0
  5  4  2  0  0  0  0
  6  5  1  0  0  0  0
  6  7  1  0  0  0  0
  7  8  1  0  0  0  0
  8 20  1  0  0  0  0
  9  5  1  0  0  0  0
  9  1  1  0  0  0  0
 10  9  2  0  0  0  0
 11  6  1  0  0  0  0
 12  7  1  0  0  0  0
 13 14  1  0  0  0  0
 14 15  2  0  0  0  0
 16 15  1  0  0  0  0
 16 17  1  0  0  0  0
 18 16  2  0  0  0  0
 19 18  1  0  0  0  0
 19 13  2  0  0  0  0
 20 21  1  0  0  0  0
 21 26  1  0  0  0  0
 22 21  2  0  0  0  0
 22 23  1  0  0  0  0
 23 24  2  0  0  0  0
 24 25  1  0  0  0  0
 26 25  2  0  0  0  0
M  END
>  <Pose>
1

>  <Score>
-9.571

$$$$
