/Users/jonathanwahrer/Desktop/Msc/3_Semester/Drug_Design_Praktikum/waehrer_HTS_screening/HTS_experiment/out/docking_results/vina_output/6s1j/1906_docked.pdbqt
 OpenBabel03222222283D

 33 36  0  0  1  0  0  0  0  0999 V2000
   17.9440  -55.9190   33.8200 C   0  0  1  0  0  0  0  0  0  0  0  0
   17.9570  -54.8930   32.8640 O   0  0  0  0  0  0  0  0  0  0  0  0
   18.9570  -54.9920   31.9360 C   0  0  0  0  0  2  0  0  0  0  0  0
   18.7780  -56.1300   30.9510 C   0  0  0  0  0  2  0  0  0  0  0  0
   18.2310  -57.2350   31.7810 N   0  0  0  0  0  0  0  0  0  0  0  0
   18.5620  -57.1600   33.1510 C   0  0  0  0  0  2  0  0  0  0  0  0
   17.4740  -58.2030   31.1560 C   0  0  0  0  0  0  0  0  0  0  0  0
   17.2550  -58.1390   29.8760 O   0  0  0  0  0  0  0  0  0  0  0  0
   18.9200  -55.5000   34.8820 C   0  0  0  0  0  2  0  0  0  0  0  0
   18.7730  -54.3700   35.5360 O   0  0  0  0  0  0  0  0  0  0  0  0
   18.2080  -53.6400   36.4520 C   0  0  0  0  0  0  0  0  0  0  0  0
   17.1790  -54.0420   37.2650 C   0  0  0  0  0  3  0  0  0  0  0  0
   16.6540  -53.1910   38.1990 C   0  0  0  0  0  0  0  0  0  0  0  0
   15.3310  -53.7420   39.2270 Cl  0  0  0  0  0  0  0  0  0  0  0  0
   17.1340  -51.9050   38.3630 C   0  0  0  0  0  3  0  0  0  0  0  0
   18.1640  -51.5010   37.5540 C   0  0  0  0  0  3  0  0  0  0  0  0
   18.6960  -52.3290   36.6230 C   0  0  0  0  0  3  0  0  0  0  0  0
   16.5630  -56.1400   34.2400 C   0  0  0  0  0  2  0  0  0  0  0  0
   16.2910  -57.1760   35.2380 C   0  0  0  0  0  0  0  0  0  0  0  0
   16.9960  -57.2840   36.2590 O   0  0  0  0  0  0  0  0  0  0  0  0
   15.2160  -58.0960   35.0790 N   0  0  0  0  0  0  0  0  0  0  0  0
   14.3380  -58.0480   33.9140 C   0  0  0  0  0  2  0  0  0  0  0  0
   14.9420  -59.1240   36.0610 C   0  0  0  0  0  2  0  0  0  0  0  0
   12.9150  -58.1240   34.4260 C   0  0  0  0  0  2  0  0  0  0  0  0
   12.7660  -59.3000   35.1680 O   0  0  0  0  0  0  0  0  0  0  0  0
   13.4790  -59.1670   36.3590 C   0  0  0  0  0  2  0  0  0  0  0  0
   16.8760  -59.3280   31.8080 C   0  0  0  0  0  0  0  0  0  0  0  0
   15.7730  -59.9380   31.3730 N   0  0  0  0  0  0  0  0  0  0  0  0
   15.2050  -60.9980   31.9820 C   0  0  0  0  0  3  0  0  0  0  0  0
   15.7810  -61.5080   33.1350 C   0  0  0  0  0  0  0  0  0  0  0  0
   16.8780  -60.9290   33.5960 N   0  0  0  0  0  0  0  0  0  0  0  0
   15.1140  -62.6750   33.7630 C   0  0  0  0  0  1  0  0  0  0  0  0
   17.4270  -59.8730   32.9730 C   0  0  0  0  0  3  0  0  0  0  0  0
  1 18  1  1  0  0  0
  1  9  1  0  0  0  0
  2  1  1  0  0  0  0
  3  2  1  0  0  0  0
  4  5  1  0  0  0  0
  4  3  1  0  0  0  0
  5  6  1  0  0  0  0
  6  1  1  0  0  0  0
  7  5  1  0  0  0  0
  7 27  1  0  0  0  0
  8  7  2  0  0  0  0
  9 10  1  0  0  0  0
 10 11  1  0  0  0  0
 11 17  2  0  0  0  0
 11 12  1  0  0  0  0
 12 13  2  0  0  0  0
 13 15  1  0  0  0  0
 13 14  1  0  0  0  0
 16 15  2  0  0  0  0
 17 16  1  0  0  0  0
 18 19  1  0  0  0  0
 19 20  2  0  0  0  0
 21 19  1  0  0  0  0
 21 23  1  0  0  0  0
 22 24  1  0  0  0  0
 22 21  1  0  0  0  0
 23 26  1  0  0  0  0
 24 25  1  0  0  0  0
 25 26  1  0  0  0  0
 27 33  1  0  0  0  0
 28 27  2  0  0  0  0
 28 29  1  0  0  0  0
 29 30  2  0  0  0  0
 30 31  1  0  0  0  0
 30 32  1  0  0  0  0
 33 31  2  0  0  0  0
M  END
>  <Pose>
1

>  <Score>
-9.339

$$$$
