/Users/jonathanwahrer/Desktop/Msc/3_Semester/Drug_Design_Praktikum/waehrer_HTS_screening/HTS_experiment/out/docking_results/vina_output/6s1j/1930_docked.pdbqt
 OpenBabel03222222293D

 34 37  0  0  1  0  0  0  0  0999 V2000
   18.0320  -57.8020   32.2050 C   0  0  0  0  0  0  0  0  0  0  0  0
   17.5170  -58.2230   31.1380 O   0  0  0  0  0  0  0  0  0  0  0  0
   17.6430  -58.3670   33.4340 N   0  0  0  0  0  0  0  0  0  0  0  0
   16.6530  -59.4400   33.5270 C   0  0  0  0  0  2  0  0  0  0  0  0
   15.4820  -58.8410   34.2800 C   0  0  2  0  0  3  0  0  0  0  0  0
   15.9250  -58.2800   35.6110 C   0  0  2  0  0  0  0  0  0  0  0  0
   17.4130  -58.5700   35.8430 C   0  0  0  0  0  2  0  0  0  0  0  0
   18.1950  -57.9330   34.7060 C   0  0  0  0  0  2  0  0  0  0  0  0
   15.1210  -58.7740   36.7750 C   0  0  0  0  0  1  0  0  0  0  0  0
   19.0380  -56.7150   32.1370 C   0  0  0  0  0  2  0  0  0  0  0  0
   18.4390  -55.3480   32.0860 C   0  0  0  0  0  2  0  0  0  0  0  0
   18.3570  -54.6780   33.4070 C   0  0  0  0  0  0  0  0  0  0  0  0
   17.3480  -54.6680   34.2940 N   0  0  0  0  0  0  0  0  0  0  0  0
   17.6650  -53.9410   35.3780 C   0  0  0  0  0  0  0  0  0  0  0  0
   17.0310  -53.5990   36.5630 C   0  0  0  0  0  3  0  0  0  0  0  0
   18.9420  -53.4610   35.1730 C   0  0  0  0  0  0  0  0  0  0  0  0
   17.6240  -52.8140   37.5180 C   0  0  0  0  0  0  0  0  0  0  0  0
   16.8300  -52.3740   39.0230 Cl  0  0  0  0  0  0  0  0  0  0  0  0
   18.9010  -52.3510   37.2820 C   0  0  0  0  0  3  0  0  0  0  0  0
   19.5750  -52.6690   36.1070 C   0  0  0  0  0  3  0  0  0  0  0  0
   19.3370  -53.9190   33.9790 N   0  0  0  0  0  0  0  0  0  0  0  0
   20.6180  -53.6830   33.3160 C   0  0  0  0  0  1  0  0  0  0  0  0
   14.3310  -59.6710   34.3400 N   0  0  0  0  0  0  0  0  0  0  0  0
   14.4330  -61.0280   34.4580 C   0  0  0  0  0  3  0  0  0  0  0  0
   13.3170  -61.8350   34.5160 C   0  0  0  0  0  0  0  0  0  0  0  0
   12.0640  -61.2670   34.4530 C   0  0  0  0  0  0  0  0  0  0  0  0
   13.3920  -63.3120   34.6440 C   0  0  0  0  0  1  0  0  0  0  0  0
   11.0050  -61.9800   34.5030 O   0  0  0  0  0  0  0  0  0  0  0  0
   11.9720  -59.9310   34.3370 N   0  0  0  0  0  0  0  0  0  0  0  0
   13.1050  -59.1720   34.2830 C   0  0  0  0  0  0  0  0  0  0  0  0
   11.0310  -59.4980   34.2900 H   0  0  0  0  0  0  0  0  0  0  0  0
   12.9570  -57.9350   34.1750 O   0  0  0  0  0  0  0  0  0  0  0  0
   15.8380  -56.8660   35.6470 O   0  0  0  0  0  0  0  0  0  0  0  0
   16.4750  -56.5410   34.9650 H   0  0  0  0  0  0  0  0  0  0  0  0
  1  3  1  0  0  0  0
  2  1  2  0  0  0  0
  3  4  1  0  0  0  0
  3  8  1  0  0  0  0
  5  4  1  1  0  0  0
  5 23  1  0  0  0  0
  5  6  1  0  0  0  0
  6 33  1  0  0  0  0
  6  7  1  0  0  0  0
  6  9  1  1  0  0  0
  8  7  1  0  0  0  0
 10  1  1  0  0  0  0
 11 10  1  0  0  0  0
 11 12  1  0  0  0  0
 12 21  1  0  0  0  0
 12 13  2  0  0  0  0
 13 14  1  0  0  0  0
 14 15  1  0  0  0  0
 15 17  2  0  0  0  0
 16 14  2  0  0  0  0
 16 20  1  0  0  0  0
 17 18  1  0  0  0  0
 19 17  1  0  0  0  0
 20 19  2  0  0  0  0
 21 16  1  0  0  0  0
 22 21  1  0  0  0  0
 23 24  1  0  0  0  0
 24 25  2  0  0  0  0
 25 27  1  0  0  0  0
 26 28  2  0  0  0  0
 26 25  1  0  0  0  0
 29 26  1  0  0  0  0
 30 29  1  0  0  0  0
 30 23  1  0  0  0  0
 31 29  1  0  0  0  0
 32 30  2  0  0  0  0
 34 33  1  0  0  0  0
M  END
>  <Pose>
1

>  <Score>
-9.296

$$$$
