/Users/jonathanwahrer/Desktop/Msc/3_Semester/Drug_Design_Praktikum/waehrer_HTS_screening/HTS_experiment/out/docking_results/vina_output/6s1j/1937_docked.pdbqt
 OpenBabel03222222293D

 31 34  0  0  1  0  0  0  0  0999 V2000
   18.2780  -55.6400   32.8280 N   0  0  0  0  0  0  0  0  0  0  0  0
   17.0530  -54.9930   32.7390 C   0  0  0  0  0  2  0  0  0  0  0  0
   15.9260  -56.1040   32.8640 C   0  0  0  0  0  2  0  0  0  0  0  0
   16.5990  -57.0720   33.6900 N   0  0  0  0  0  0  0  0  0  0  0  0
   17.4940  -57.9360   32.8660 C   0  0  0  0  0  2  0  0  0  0  0  0
   18.2450  -56.9260   32.0450 C   0  0  0  0  0  2  0  0  0  0  0  0
   16.3940  -57.2520   35.0250 C   0  0  0  0  0  0  0  0  0  0  0  0
   17.3410  -57.7780   35.7040 O   0  0  0  0  0  0  0  0  0  0  0  0
   19.5320  -55.0040   32.5050 C   0  0  0  0  0  2  0  0  0  0  0  0
   19.9720  -54.2370   33.7570 C   0  0  0  0  0  0  0  0  0  0  0  0
   19.5700  -54.7420   34.9960 N   0  0  0  0  0  0  0  0  0  0  0  0
   18.7800  -55.4790   34.9440 H   0  0  0  0  0  0  0  0  0  0  0  0
   20.6490  -53.2500   33.6430 O   0  0  0  0  0  0  0  0  0  0  0  0
   20.0030  -54.3230   36.2800 C   0  0  0  0  0  2  0  0  0  0  0  0
   18.9080  -53.7480   37.1040 C   0  0  0  0  0  0  0  0  0  0  0  0
   18.7750  -52.3650   37.1430 C   0  0  0  0  0  0  0  0  0  0  0  0
   20.0530  -51.3910   36.4550 Cl  0  0  0  0  0  0  0  0  0  0  0  0
   17.7200  -51.7570   37.7400 C   0  0  0  0  0  3  0  0  0  0  0  0
   16.6860  -52.4470   38.3410 C   0  0  0  0  0  3  0  0  0  0  0  0
   16.8240  -53.8500   38.2990 C   0  0  0  0  0  3  0  0  0  0  0  0
   17.9120  -54.4740   37.7010 C   0  0  0  0  0  3  0  0  0  0  0  0
   15.1670  -56.9300   35.8190 C   0  0  1  0  0  3  0  0  0  0  0  0
   14.0770  -57.5290   35.0460 O   0  0  0  0  0  0  0  0  0  0  0  0
   14.5040  -58.7540   34.4570 C   0  0  0  0  0  0  0  0  0  0  0  0
   15.3890  -59.5190   35.1700 C   0  0  0  0  0  0  0  0  0  0  0  0
   14.0500  -59.1780   33.2130 C   0  0  0  0  0  3  0  0  0  0  0  0
   15.8700  -60.7270   34.6750 C   0  0  0  0  0  3  0  0  0  0  0  0
   15.8190  -59.0750   36.4260 O   0  0  0  0  0  0  0  0  0  0  0  0
   15.4020  -61.1100   33.4240 C   0  0  0  0  0  3  0  0  0  0  0  0
   14.5060  -60.3700   32.6850 C   0  0  0  0  0  3  0  0  0  0  0  0
   15.2460  -57.8910   37.0360 C   0  0  0  0  0  2  0  0  0  0  0  0
  2  1  1  0  0  0  0
  2  3  1  0  0  0  0
  3  4  1  0  0  0  0
  4  7  1  0  0  0  0
  5  4  1  0  0  0  0
  6  1  1  0  0  0  0
  6  5  1  0  0  0  0
  7  8  2  0  0  0  0
  9  1  1  0  0  0  0
  9 10  1  0  0  0  0
 10 11  1  0  0  0  0
 11 14  1  0  0  0  0
 12 11  1  0  0  0  0
 13 10  2  0  0  0  0
 14 15  1  0  0  0  0
 15 16  2  0  0  0  0
 15 21  1  0  0  0  0
 16 18  1  0  0  0  0
 17 16  1  0  0  0  0
 18 19  2  0  0  0  0
 20 19  1  0  0  0  0
 21 20  2  0  0  0  0
 22  7  1  6  0  0  0
 22 31  1  0  0  0  0
 23 22  1  0  0  0  0
 24 23  1  0  0  0  0
 24 25  1  0  0  0  0
 25 28  1  0  0  0  0
 26 24  2  0  0  0  0
 27 25  2  0  0  0  0
 28 31  1  0  0  0  0
 29 27  1  0  0  0  0
 30 26  1  0  0  0  0
 30 29  2  0  0  0  0
M  END
>  <Pose>
1

>  <Score>
-8.195

$$$$
