/Users/jonathanwahrer/Desktop/Msc/3_Semester/Drug_Design_Praktikum/waehrer_HTS_screening/HTS_experiment/out/docking_results/vina_output/6s1j/1939_docked.pdbqt
 OpenBabel03222222293D

 28 31  0  0  0  0  0  0  0  0999 V2000
   17.6540  -55.4150   33.4380 N   0  0  0  0  0  0  0  0  0  0  0  0
   18.6650  -55.3970   32.5170 C   0  0  0  0  0  0  0  0  0  0  0  0
   18.7380  -56.6060   31.8810 C   0  0  0  0  0  0  0  0  0  0  0  0
   17.7710  -57.3280   32.4320 N   0  0  0  0  0  0  0  0  0  0  0  0
   17.0890  -56.6220   33.3910 C   0  0  0  0  0  0  0  0  0  0  0  0
   19.6580  -56.8500   30.9310 N   0  0  0  0  0  0  0  0  0  0  0  0
   20.5440  -55.8800   30.5850 C   0  0  0  0  0  0  0  0  0  0  0  0
   21.3820  -56.1530   29.6960 O   0  0  0  0  0  0  0  0  0  0  0  0
   20.5130  -54.6760   31.1810 N   0  0  0  0  0  0  0  0  0  0  0  0
   19.5910  -54.4430   32.1280 C   0  0  0  0  0  0  0  0  0  0  0  0
   19.6040  -53.3090   32.6540 O   0  0  0  0  0  0  0  0  0  0  0  0
   19.6640  -58.1620   30.3070 C   0  0  0  0  0  1  0  0  0  0  0  0
   21.2140  -53.9670   30.8800 H   0  0  0  0  0  0  0  0  0  0  0  0
   17.3380  -54.2810   34.2650 C   0  0  0  0  0  2  0  0  0  0  0  0
   17.7820  -54.3310   35.6560 C   0  0  0  0  0  0  0  0  0  0  0  0
   16.9950  -54.6780   36.7040 C   0  0  0  0  0  3  0  0  0  0  0  0
   17.4510  -54.6620   38.0260 C   0  0  0  0  0  3  0  0  0  0  0  0
   18.7310  -54.2890   38.3090 C   0  0  0  0  0  0  0  0  0  0  0  0
   19.2550  -54.2850   39.9780 Cl  0  0  0  0  0  0  0  0  0  0  0  0
   19.5640  -53.9290   37.2740 C   0  0  0  0  0  3  0  0  0  0  0  0
   19.0930  -53.9520   35.9820 C   0  0  0  0  0  3  0  0  0  0  0  0
   16.0210  -57.1800   34.1280 N   0  0  0  0  0  0  0  0  0  0  0  0
   14.6680  -56.9470   33.6420 C   0  0  0  0  0  2  0  0  0  0  0  0
   13.9400  -58.2640   33.9700 C   0  0  0  0  0  2  0  0  0  0  0  0
   14.8270  -59.4010   33.8720 N   0  0  0  0  0  0  0  0  0  0  0  0
   15.8760  -59.4160   34.8690 C   0  0  0  0  0  2  0  0  0  0  0  0
   14.2470  -60.2440   34.0170 H   0  0  0  0  0  0  0  0  0  0  0  0
   16.0680  -57.9700   35.3030 C   0  0  0  0  0  2  0  0  0  0  0  0
  1 14  1  0  0  0  0
  2  1  1  0  0  0  0
  3  4  1  0  0  0  0
  3  2  2  0  0  0  0
  4  5  2  0  0  0  0
  5  1  1  0  0  0  0
  5 22  1  0  0  0  0
  6  3  1  0  0  0  0
  7  6  1  0  0  0  0
  7  9  1  0  0  0  0
  8  7  2  0  0  0  0
  9 10  1  0  0  0  0
 10  2  1  0  0  0  0
 10 11  2  0  0  0  0
 12  6  1  0  0  0  0
 13  9  1  0  0  0  0
 14 15  1  0  0  0  0
 15 21  2  0  0  0  0
 15 16  1  0  0  0  0
 16 17  2  0  0  0  0
 17 18  1  0  0  0  0
 18 19  1  0  0  0  0
 20 18  2  0  0  0  0
 21 20  1  0  0  0  0
 22 28  1  0  0  0  0
 23 24  1  0  0  0  0
 23 22  1  0  0  0  0
 25 24  1  0  0  0  0
 25 27  1  0  0  0  0
 25 26  1  0  0  0  0
 26 28  1  0  0  0  0
M  END
>  <Pose>
1

>  <Score>
-8.402

$$$$
