/Users/jonathanwahrer/Desktop/Msc/3_Semester/Drug_Design_Praktikum/waehrer_HTS_screening/HTS_experiment/out/docking_results/vina_output/6s1j/1943_docked.pdbqt
 OpenBabel03222222303D

 34 38  0  0  1  0  0  0  0  0999 V2000
   17.6360  -55.9740   32.6540 N   0  0  0  0  0  0  0  0  0  0  0  0
   18.3780  -55.0790   33.5110 C   0  0  0  0  0  0  0  0  0  0  0  0
   19.5370  -54.6960   33.3280 O   0  0  0  0  0  0  0  0  0  0  0  0
   17.5400  -54.6820   34.6500 C   0  0  2  0  0  3  0  0  0  0  0  0
   18.1990  -54.7620   36.0060 C   0  0  2  0  0  0  0  0  0  0  0  0
   17.9140  -56.0640   36.5580 N   0  0  0  0  0  0  0  0  0  0  0  0
   17.3940  -56.8640   35.4670 C   0  0  2  0  0  3  0  0  0  0  0  0
   16.5670  -55.8360   34.7210 C   0  0  2  0  0  3  0  0  0  0  0  0
   16.3640  -56.1590   33.2970 C   0  0  0  0  0  0  0  0  0  0  0  0
   15.2830  -56.5120   32.8180 O   0  0  0  0  0  0  0  0  0  0  0  0
   17.5560  -53.6670   36.8120 C   0  0  0  0  0  0  0  0  0  0  0  0
   18.4980  -52.7000   37.0190 C   0  0  0  0  0  0  0  0  0  0  0  0
   18.1950  -51.5060   37.6930 C   0  0  0  0  0  3  0  0  0  0  0  0
   16.9200  -51.2840   38.1690 C   0  0  0  0  0  3  0  0  0  0  0  0
   15.9750  -52.2550   37.9640 C   0  0  0  0  0  3  0  0  0  0  0  0
   16.2890  -53.4220   37.2990 C   0  0  0  0  0  3  0  0  0  0  0  0
   19.7680  -53.1170   36.5460 N   0  0  0  0  0  0  0  0  0  0  0  0
   19.6080  -54.4250   36.0190 C   0  0  0  0  0  0  0  0  0  0  0  0
   20.5640  -55.1340   35.6420 O   0  0  0  0  0  0  0  0  0  0  0  0
   18.8120  -56.4570   36.9290 H   0  0  0  0  0  0  0  0  0  0  0  0
   20.6730  -52.5540   36.5800 H   0  0  0  0  0  0  0  0  0  0  0  0
   16.5400  -58.0060   35.9510 C   0  0  0  0  0  2  0  0  0  0  0  0
   15.3710  -57.5960   36.7240 C   0  0  0  0  0  0  0  0  0  0  0  0
   15.5020  -57.1370   37.8740 O   0  0  0  0  0  0  0  0  0  0  0  0
   14.0770  -57.7190   36.1680 N   0  0  0  0  0  0  0  0  0  0  0  0
   13.8720  -58.1490   35.2330 H   0  0  0  0  0  0  0  0  0  0  0  0
   13.2030  -57.3820   36.6660 H   0  0  0  0  0  0  0  0  0  0  0  0
   18.0220  -56.5550   31.4410 C   0  0  0  0  0  0  0  0  0  0  0  0
   18.5560  -55.8440   30.4020 C   0  0  0  0  0  3  0  0  0  0  0  0
   18.9420  -56.4230   29.1990 C   0  0  0  0  0  3  0  0  0  0  0  0
   18.7890  -57.7780   29.0260 C   0  0  0  0  0  0  0  0  0  0  0  0
   19.2820  -58.5250   27.5170 Cl  0  0  0  0  0  0  0  0  0  0  0  0
   18.2600  -58.5160   30.0390 C   0  0  0  0  0  3  0  0  0  0  0  0
   17.8790  -57.9060   31.2380 C   0  0  0  0  0  3  0  0  0  0  0  0
  1  9  1  0  0  0  0
  1  2  1  0  0  0  0
  3  2  2  0  0  0  0
  4  2  1  6  0  0  0
  4  8  1  0  0  0  0
  4  5  1  0  0  0  0
  5 18  1  6  0  0  0
  5  6  1  0  0  0  0
  5 11  1  0  0  0  0
  6 20  1  0  0  0  0
  7 22  1  1  0  0  0
  7  6  1  0  0  0  0
  8  9  1  6  0  0  0
  8  7  1  0  0  0  0
 10  9  2  0  0  0  0
 11 12  2  0  0  0  0
 11 16  1  0  0  0  0
 12 13  1  0  0  0  0
 13 14  2  0  0  0  0
 15 14  1  0  0  0  0
 16 15  2  0  0  0  0
 17 21  1  0  0  0  0
 17 12  1  0  0  0  0
 18 17  1  0  0  0  0
 19 18  2  0  0  0  0
 22 23  1  0  0  0  0
 23 24  2  0  0  0  0
 25 27  1  0  0  0  0
 25 23  1  0  0  0  0
 26 25  1  0  0  0  0
 28  1  1  0  0  0  0
 29 28  2  0  0  0  0
 30 29  1  0  0  0  0
 31 30  2  0  0  0  0
 31 33  1  0  0  0  0
 32 31  1  0  0  0  0
 33 34  2  0  0  0  0
 34 28  1  0  0  0  0
M  END
>  <Pose>
1

>  <Score>
-9.162

$$$$
