/Users/jonathanwahrer/Desktop/Msc/3_Semester/Drug_Design_Praktikum/waehrer_HTS_screening/HTS_experiment/out/docking_results/vina_output/6s1j/1945_docked.pdbqt
 OpenBabel03222222303D

 24 27  0  0  0  0  0  0  0  0999 V2000
   20.1090  -50.7170   36.1580 Cl  0  0  0  0  0  0  0  0  0  0  0  0
   18.9280  -51.8870   36.7110 C   0  0  0  0  0  0  0  0  0  0  0  0
   18.8510  -53.1520   36.1740 C   0  0  0  0  0  3  0  0  0  0  0  0
   17.9040  -54.0750   36.6240 C   0  0  0  0  0  0  0  0  0  0  0  0
   17.0370  -53.6850   37.6340 C   0  0  0  0  0  0  0  0  0  0  0  0
   17.1010  -52.4260   38.1810 C   0  0  0  0  0  3  0  0  0  0  0  0
   18.0340  -51.5290   37.7290 C   0  0  0  0  0  3  0  0  0  0  0  0
   16.0220  -54.6260   38.1420 C   0  0  0  0  0  0  0  0  0  0  0  0
   15.1140  -54.5240   39.0520 N   0  0  0  0  0  0  0  0  0  0  0  0
   14.3450  -55.7290   39.2000 C   0  0  0  0  0  3  0  0  0  0  0  0
   14.9330  -56.6670   38.1910 C   0  0  0  0  0  3  0  0  0  0  0  0
   15.9830  -55.9140   37.5590 N   0  0  0  0  0  0  0  0  0  0  0  0
   16.8860  -56.2830   36.5250 C   0  0  0  0  0  0  0  0  0  0  0  0
   16.8690  -57.4290   35.9920 O   0  0  0  0  0  0  0  0  0  0  0  0
   17.8780  -55.3670   36.0270 N   0  0  0  0  0  0  0  0  0  0  0  0
   18.7930  -55.7680   34.9680 C   0  0  0  0  0  2  0  0  0  0  0  0
   18.0910  -55.8790   33.6690 C   0  0  0  0  0  0  0  0  0  0  0  0
   17.6200  -54.8330   33.1590 O   0  0  0  0  0  0  0  0  0  0  0  0
   17.9280  -57.1040   32.9790 N   0  0  0  0  0  0  0  0  0  0  0  0
   18.3250  -57.9610   33.4140 H   0  0  0  0  0  0  0  0  0  0  0  0
   17.2400  -57.1840   31.7130 C   0  0  0  0  0  2  0  0  0  0  0  0
   18.2110  -57.5440   30.6200 C   0  0  0  0  0  3  0  0  0  0  0  0
   19.5900  -56.9880   30.6550 C   0  0  0  0  0  2  0  0  0  0  0  0
   18.6150  -56.4470   29.6800 C   0  0  0  0  0  2  0  0  0  0  0  0
  1  2  1  0  0  0  0
  2  7  1  0  0  0  0
  3  4  1  0  0  0  0
  3  2  2  0  0  0  0
  4  5  2  0  0  0  0
  5  8  1  0  0  0  0
  5  6  1  0  0  0  0
  7  6  2  0  0  0  0
  8  9  2  0  0  0  0
  9 10  1  0  0  0  0
 11 10  2  0  0  0  0
 12  8  1  0  0  0  0
 12 11  1  0  0  0  0
 13 12  1  0  0  0  0
 14 13  2  0  0  0  0
 15 13  1  0  0  0  0
 15  4  1  0  0  0  0
 16 15  1  0  0  0  0
 17 16  1  0  0  0  0
 18 17  2  0  0  0  0
 19 20  1  0  0  0  0
 19 17  1  0  0  0  0
 21 19  1  0  0  0  0
 22 23  1  0  0  0  0
 22 21  1  0  0  0  0
 24 22  1  0  0  0  0
 24 23  1  0  0  0  0
M  END
>  <Pose>
1

>  <Score>
-8.649

$$$$
