/Users/jonathanwahrer/Desktop/Msc/3_Semester/Drug_Design_Praktikum/waehrer_HTS_screening/HTS_experiment/out/docking_results/vina_output/6s1j/1956_docked.pdbqt
 OpenBabel03222222303D

 35 38  0  0  1  0  0  0  0  0999 V2000
   18.3700  -56.9720   33.8030 C   0  0  0  0  0  0  0  0  0  0  0  0
   17.0760  -57.0060   34.0740 C   0  0  0  0  0  0  0  0  0  0  0  0
   16.4760  -57.1760   35.4470 C   0  0  2  0  0  3  0  0  0  0  0  0
   15.0900  -57.4730   35.2260 N   0  0  0  0  0  0  0  0  0  0  0  0
   14.7350  -57.2340   33.8720 C   0  0  0  0  0  0  0  0  0  0  0  0
   13.5970  -57.2630   33.3820 O   0  0  0  0  0  0  0  0  0  0  0  0
   15.9930  -56.9410   33.1450 C   0  0  0  0  0  0  0  0  0  0  0  0
   16.0570  -56.6860   31.9200 O   0  0  0  0  0  0  0  0  0  0  0  0
   19.2390  -57.1150   34.9100 O   0  0  0  0  0  1  0  0  0  0  0  0
   16.7060  -55.8950   36.1690 C   0  0  0  0  0  0  0  0  0  0  0  0
   16.6410  -55.8580   37.5320 C   0  0  0  0  0  3  0  0  0  0  0  0
   16.8660  -54.6810   38.1870 C   0  0  0  0  0  3  0  0  0  0  0  0
   17.1590  -53.5170   37.5090 C   0  0  0  0  0  0  0  0  0  0  0  0
   17.2250  -53.5530   36.1290 C   0  0  0  0  0  3  0  0  0  0  0  0
   16.9960  -54.7510   35.4690 C   0  0  0  0  0  3  0  0  0  0  0  0
   17.3870  -52.3220   38.1840 O   0  0  0  0  0  0  0  0  0  0  0  0
   18.1980  -51.3270   37.5420 C   0  0  0  0  0  2  0  0  0  0  0  0
   19.5150  -51.9700   37.1160 C   0  0  0  0  0  2  0  0  0  0  0  0
   20.1140  -51.0790   36.0370 C   0  0  0  0  0  1  0  0  0  0  0  0
   14.1640  -57.9690   36.2390 C   0  0  0  0  0  2  0  0  0  0  0  0
   13.8350  -59.3960   35.9660 C   0  0  0  0  0  2  0  0  0  0  0  0
   12.9840  -59.9650   37.0240 N   0  0  0  0  0  4  0  0  0  0  0  0
   11.6220  -59.8550   36.6010 C   0  0  0  0  0  2  0  0  0  0  0  0
   10.6480  -60.0440   37.7630 C   0  0  0  0  0  2  0  0  0  0  0  0
   10.9820  -59.0650   38.7150 O   0  0  0  0  0  0  0  0  0  0  0  0
   12.1950  -59.4260   39.2650 C   0  0  0  0  0  2  0  0  0  0  0  0
   13.2840  -59.2250   38.2300 C   0  0  0  0  0  2  0  0  0  0  0  0
   13.2190  -60.9810   37.1760 H   0  0  0  0  0  0  0  0  0  0  0  0
   18.8900  -56.7990   32.4650 C   0  0  0  0  0  0  0  0  0  0  0  0
   19.1370  -57.9260   31.6690 C   0  0  0  0  0  3  0  0  0  0  0  0
   19.6720  -57.8350   30.4000 C   0  0  0  0  0  3  0  0  0  0  0  0
   19.9890  -56.6120   29.8590 C   0  0  0  0  0  0  0  0  0  0  0  0
   20.6690  -56.4280   28.2580 Cl  0  0  0  0  0  0  0  0  0  0  0  0
   19.7620  -55.4950   30.6100 C   0  0  0  0  0  3  0  0  0  0  0  0
   19.2190  -55.5910   31.8990 C   0  0  0  0  0  3  0  0  0  0  0  0
  1  2  2  0  0  0  0
  1  9  1  0  0  0  0
  2  3  1  0  0  0  0
  3 10  1  1  0  0  0
  4  3  1  0  0  0  0
  4 20  1  0  0  0  0
  5  4  1  0  0  0  0
  6  5  2  0  0  0  0
  7  5  1  0  0  0  0
  7  2  1  0  0  0  0
  8  7  2  0  0  0  0
 10 11  1  0  0  0  0
 11 12  2  0  0  0  0
 13 16  1  0  0  0  0
 13 12  1  0  0  0  0
 14 13  2  0  0  0  0
 15 14  1  0  0  0  0
 15 10  2  0  0  0  0
 17 16  1  0  0  0  0
 18 17  1  0  0  0  0
 19 18  1  0  0  0  0
 21 20  1  0  0  0  0
 21 22  1  0  0  0  0
 22 28  1  0  0  0  0
 22 27  1  0  0  0  0
 23 22  1  0  0  0  0
 23 24  1  0  0  0  0
 24 25  1  0  0  0  0
 25 26  1  0  0  0  0
 27 26  1  0  0  0  0
 29  1  1  0  0  0  0
 30 29  2  0  0  0  0
 31 30  1  0  0  0  0
 32 31  2  0  0  0  0
 32 34  1  0  0  0  0
 33 32  1  0  0  0  0
 34 35  2  0  0  0  0
 35 29  1  0  0  0  0
M  END
>  <Pose>
1

>  <Score>
-9.597

$$$$
