/Users/jonathanwahrer/Desktop/Msc/3_Semester/Drug_Design_Praktikum/waehrer_HTS_screening/HTS_experiment/out/docking_results/vina_output/6s1j/1957_docked.pdbqt
 OpenBabel03222222313D

 36 40  0  0  1  0  0  0  0  0999 V2000
   17.8630  -55.2150   35.3580 C   0  0  2  0  0  3  0  0  0  0  0  0
   16.5230  -55.6760   35.6960 N   0  0  0  0  0  0  0  0  0  0  0  0
   16.3140  -56.9150   34.9740 C   0  0  1  0  0  0  0  0  0  0  0  0
   17.6890  -57.5160   34.9520 C   0  0  2  0  0  3  0  0  0  0  0  0
   18.6230  -56.3580   34.7970 C   0  0  1  0  0  3  0  0  0  0  0  0
   18.8820  -56.2340   33.3360 C   0  0  0  0  0  0  0  0  0  0  0  0
   19.3970  -55.2540   32.7490 O   0  0  0  0  0  0  0  0  0  0  0  0
   18.4240  -57.4660   32.7360 N   0  0  0  0  0  0  0  0  0  0  0  0
   17.9780  -58.3320   33.7590 C   0  0  0  0  0  0  0  0  0  0  0  0
   17.8420  -59.5780   33.6930 O   0  0  0  0  0  0  0  0  0  0  0  0
   15.3400  -57.8000   35.6580 C   0  0  0  0  0  0  0  0  0  0  0  0
   14.2840  -57.9680   34.7930 C   0  0  0  0  0  0  0  0  0  0  0  0
   13.2170  -58.7650   35.1850 C   0  0  0  0  0  3  0  0  0  0  0  0
   13.2450  -59.3640   36.4220 C   0  0  0  0  0  3  0  0  0  0  0  0
   14.3040  -59.2030   37.2990 C   0  0  0  0  0  3  0  0  0  0  0  0
   15.3570  -58.4080   36.8970 C   0  0  0  0  0  3  0  0  0  0  0  0
   14.4950  -57.2350   33.5730 N   0  0  0  0  0  0  0  0  0  0  0  0
   15.7450  -56.5790   33.6810 C   0  0  0  0  0  0  0  0  0  0  0  0
   16.2230  -55.8510   32.7950 O   0  0  0  0  0  0  0  0  0  0  0  0
   15.8240  -54.9660   35.4520 H   0  0  0  0  0  0  0  0  0  0  0  0
   13.8090  -57.2300   32.7840 H   0  0  0  0  0  0  0  0  0  0  0  0
   18.4340  -54.6480   36.6300 C   0  0  1  0  0  3  0  0  0  0  0  0
   18.8930  -53.2370   36.4870 C   0  0  0  0  0  0  0  0  0  0  0  0
   18.3290  -52.2300   37.2690 C   0  0  0  0  0  3  0  0  0  0  0  0
   18.7190  -50.9220   37.1420 C   0  0  0  0  0  3  0  0  0  0  0  0
   19.6890  -50.5400   36.2350 C   0  0  0  0  0  0  0  0  0  0  0  0
   20.1980  -48.8690   36.0630 Cl  0  0  0  0  0  0  0  0  0  0  0  0
   20.2310  -51.5510   35.4740 C   0  0  0  0  0  3  0  0  0  0  0  0
   19.8570  -52.8700   35.5810 C   0  0  0  0  0  3  0  0  0  0  0  0
   17.5920  -54.7380   37.7080 O   0  0  0  0  0  0  0  0  0  0  0  0
   16.7940  -54.1810   37.5210 H   0  0  0  0  0  0  0  0  0  0  0  0
   18.4160  -57.7460   31.3300 C   0  0  0  0  0  2  0  0  0  0  0  0
   19.7380  -58.0010   30.7100 C   0  0  0  0  0  2  0  0  0  0  0  0
   20.2300  -56.9870   29.7380 C   0  0  0  0  0  2  0  0  0  0  0  0
   21.3000  -56.2410   30.2130 O   0  0  0  0  0  0  0  0  0  0  0  0
   22.4730  -56.6170   29.5250 C   0  0  0  0  0  1  0  0  0  0  0  0
  1  2  1  0  0  0  0
  1 22  1  1  0  0  0
  3 18  1  6  0  0  0
  3 11  1  0  0  0  0
  3  2  1  0  0  0  0
  4  9  1  6  0  0  0
  4  3  1  0  0  0  0
  5  6  1  6  0  0  0
  5  4  1  0  0  0  0
  5  1  1  0  0  0  0
  7  6  2  0  0  0  0
  8  6  1  0  0  0  0
  8  9  1  0  0  0  0
 10  9  2  0  0  0  0
 11 16  1  0  0  0  0
 12 13  1  0  0  0  0
 12 11  2  0  0  0  0
 13 14  2  0  0  0  0
 14 15  1  0  0  0  0
 16 15  2  0  0  0  0
 17 18  1  0  0  0  0
 17 12  1  0  0  0  0
 19 18  2  0  0  0  0
 20  2  1  0  0  0  0
 21 17  1  0  0  0  0
 22 30  1  1  0  0  0
 23 22  1  0  0  0  0
 23 24  1  0  0  0  0
 25 24  2  0  0  0  0
 26 25  1  0  0  0  0
 27 26  1  0  0  0  0
 28 29  1  0  0  0  0
 28 26  2  0  0  0  0
 29 23  2  0  0  0  0
 31 30  1  0  0  0  0
 32  8  1  0  0  0  0
 33 32  1  0  0  0  0
 34 35  1  0  0  0  0
 34 33  1  0  0  0  0
 36 35  1  0  0  0  0
M  END
>  <Pose>
1

>  <Score>
-9.650

$$$$
