/Users/jonathanwahrer/Desktop/Msc/3_Semester/Drug_Design_Praktikum/waehrer_HTS_screening/HTS_experiment/out/docking_results/vina_output/6s1j/1966_docked.pdbqt
 OpenBabel03222222313D

 27 30  0  0  0  0  0  0  0  0999 V2000
   14.9270  -56.5260   38.5500 C   0  0  0  0  0  0  0  0  0  0  0  0
   14.7140  -56.5580   39.8250 O   0  0  0  0  0  0  0  0  0  0  0  0
   14.4070  -57.4320   37.6600 N   0  0  0  0  0  0  0  0  0  0  0  0
   13.8900  -58.3320   36.7750 C   0  0  0  0  0  2  0  0  0  0  0  0
   13.7870  -58.1000   38.6790 H   0  0  0  0  0  0  0  0  0  0  0  0
   15.8050  -55.3780   38.2010 C   0  0  0  0  0  0  0  0  0  0  0  0
   16.8530  -55.3290   37.3170 C   0  0  0  0  0  0  0  0  0  0  0  0
   17.3330  -56.3440   36.5550 F   0  0  0  0  0  0  0  0  0  0  0  0
   17.4000  -54.0760   37.2840 N   0  0  0  0  0  0  0  0  0  0  0  0
   16.6800  -53.3520   38.1560 C   0  0  0  0  0  0  0  0  0  0  0  0
   18.4220  -53.5470   36.5910 C   0  0  0  0  0  3  0  0  0  0  0  0
   15.7300  -54.1290   38.7020 N   0  0  0  0  0  0  0  0  0  0  0  0
   17.0290  -52.0340   38.3180 C   0  0  0  0  0  3  0  0  0  0  0  0
   18.0840  -51.4460   37.6170 C   0  0  0  0  0  3  0  0  0  0  0  0
   18.7950  -52.2160   36.7360 C   0  0  0  0  0  0  0  0  0  0  0  0
   20.1370  -51.5380   35.8130 Cl  0  0  0  0  0  0  0  0  0  0  0  0
   14.2680  -58.1170   35.3310 C   0  0  0  0  0  0  0  0  0  0  0  0
   13.9910  -58.9460   34.3210 N   0  0  0  0  0  0  0  0  0  0  0  0
   14.4800  -58.4110   33.2150 N   0  0  0  0  0  0  0  0  0  0  0  0
   15.0600  -57.2630   33.4890 N   0  0  0  0  0  0  0  0  0  0  0  0
   14.9240  -57.0880   34.8040 N   0  0  0  0  0  0  0  0  0  0  0  0
   13.2760  -60.1700   34.4970 C   0  0  0  0  0  0  0  0  0  0  0  0
   13.9800  -61.3640   34.3740 C   0  0  0  0  0  3  0  0  0  0  0  0
   13.3410  -62.5890   34.5160 C   0  0  0  0  0  3  0  0  0  0  0  0
   11.9880  -62.6610   34.7830 C   0  0  0  0  0  3  0  0  0  0  0  0
   11.2970  -61.4750   34.9050 C   0  0  0  0  0  3  0  0  0  0  0  0
   11.9310  -60.2530   34.7630 C   0  0  0  0  0  3  0  0  0  0  0  0
  1  2  2  0  0  0  0
  3  1  1  0  0  0  0
  3  5  1  0  0  0  0
  4  3  1  0  0  0  0
  6  1  1  0  0  0  0
  6 12  1  0  0  0  0
  7  6  2  0  0  0  0
  8  7  1  0  0  0  0
  9  7  1  0  0  0  0
  9 10  1  0  0  0  0
 10 13  1  0  0  0  0
 10 12  2  0  0  0  0
 11 15  2  0  0  0  0
 11  9  1  0  0  0  0
 14 13  2  0  0  0  0
 15 14  1  0  0  0  0
 16 15  1  0  0  0  0
 17  4  1  0  0  0  0
 18 22  1  0  0  0  0
 18 17  1  0  0  0  0
 19 20  2  0  0  0  0
 19 18  1  0  0  0  0
 20 21  1  0  0  0  0
 21 17  2  0  0  0  0
 22 27  1  0  0  0  0
 23 22  2  0  0  0  0
 23 24  1  0  0  0  0
 24 25  2  0  0  0  0
 25 26  1  0  0  0  0
 27 26  2  0  0  0  0
M  END
>  <Pose>
1

>  <Score>
-9.427

$$$$
