/Users/jonathanwahrer/Desktop/Msc/3_Semester/Drug_Design_Praktikum/waehrer_HTS_screening/HTS_experiment/out/docking_results/vina_output/6s1j/1969_docked.pdbqt
 OpenBabel03222222313D

 26 29  0  0  0  0  0  0  0  0999 V2000
   17.3090  -57.7980   33.4530 C   0  0  0  0  0  0  0  0  0  0  0  0
   18.0900  -58.9250   33.6890 O   0  0  0  0  0  0  0  0  0  0  0  0
   15.9910  -58.1130   33.4410 N   0  0  0  0  0  0  0  0  0  0  0  0
   14.8140  -57.3020   33.3380 C   0  0  0  0  0  2  0  0  0  0  0  0
   13.6310  -58.0370   34.0000 C   0  0  0  0  0  2  0  0  0  0  0  0
   14.2560  -58.7940   35.0940 N   0  0  0  0  0  0  0  0  0  0  0  0
   15.0630  -59.9240   34.7740 C   0  0  0  0  0  2  0  0  0  0  0  0
   15.7000  -59.5820   33.4650 C   0  0  0  0  0  2  0  0  0  0  0  0
   18.3090  -56.7550   33.3220 C   0  0  0  0  0  0  0  0  0  0  0  0
   19.1480  -55.8830   33.2130 N   0  0  0  0  0  0  0  0  0  0  0  0
   19.4090  -54.8780   33.7860 N   0  0  0  0  0  0  0  0  0  0  0  0
   18.5250  -54.7950   34.7570 N   0  0  0  0  0  0  0  0  0  0  0  0
   17.7580  -55.8450   34.6330 C   0  0  0  0  0  3  0  0  0  0  0  0
   18.5380  -53.6810   35.6790 C   0  0  0  0  0  0  0  0  0  0  0  0
   17.6390  -53.4880   36.6700 C   0  0  0  0  0  3  0  0  0  0  0  0
   17.7260  -52.3950   37.5230 C   0  0  0  0  0  0  0  0  0  0  0  0
   16.6060  -52.0720   38.8080 Cl  0  0  0  0  0  0  0  0  0  0  0  0
   18.7850  -51.4440   37.3540 C   0  0  0  0  0  3  0  0  0  0  0  0
   19.6770  -51.6560   36.3610 C   0  0  0  0  0  3  0  0  0  0  0  0
   19.5410  -52.7400   35.5620 C   0  0  0  0  0  3  0  0  0  0  0  0
   14.1450  -58.3280   36.4000 C   0  0  0  0  0  0  0  0  0  0  0  0
   15.0510  -57.3910   36.9100 N   0  0  0  0  0  0  0  0  0  0  0  0
   15.0240  -56.8780   38.0890 C   0  0  0  0  0  3  0  0  0  0  0  0
   14.0290  -57.2120   39.0210 C   0  0  0  0  0  3  0  0  0  0  0  0
   13.1290  -58.1460   38.5260 C   0  0  0  0  0  3  0  0  0  0  0  0
   13.2120  -58.6250   37.3420 N   0  0  0  0  0  0  0  0  0  0  0  0
  1  2  2  0  0  0  0
  3  1  1  0  0  0  0
  3  8  1  0  0  0  0
  4  3  1  0  0  0  0
  4  5  1  0  0  0  0
  5  6  1  0  0  0  0
  6 21  1  0  0  0  0
  7  6  1  0  0  0  0
  8  7  1  0  0  0  0
  9  1  1  0  0  0  0
  9 13  2  0  0  0  0
 10  9  1  0  0  0  0
 10 11  2  0  0  0  0
 11 12  1  0  0  0  0
 12 14  1  0  0  0  0
 13 12  1  0  0  0  0
 14 15  1  0  0  0  0
 15 16  2  0  0  0  0
 16 17  1  0  0  0  0
 18 16  1  0  0  0  0
 19 18  2  0  0  0  0
 20 14  2  0  0  0  0
 20 19  1  0  0  0  0
 21 22  2  0  0  0  0
 21 26  1  0  0  0  0
 22 23  1  0  0  0  0
 23 24  2  0  0  0  0
 25 24  1  0  0  0  0
 26 25  2  0  0  0  0
M  END
>  <Pose>
1

>  <Score>
-9.390

$$$$
