/Users/jonathanwahrer/Desktop/Msc/3_Semester/Drug_Design_Praktikum/waehrer_HTS_screening/HTS_experiment/out/docking_results/vina_output/6s1j/1974_docked.pdbqt
 OpenBabel03222222323D

 26 29  0  0  0  0  0  0  0  0999 V2000
   19.8590  -53.1270   34.8800 F   0  0  0  0  0  0  0  0  0  0  0  0
   19.0320  -52.9350   35.9350 C   0  0  0  0  0  0  0  0  0  0  0  0
   18.1640  -53.9580   36.2870 C   0  0  0  0  0  0  0  0  0  0  0  0
   17.2950  -53.8340   37.3490 C   0  0  0  0  0  0  0  0  0  0  0  0
   17.3140  -52.6450   38.0590 C   0  0  0  0  0  0  0  0  0  0  0  0
   18.1750  -51.6300   37.7110 C   0  0  0  0  0  3  0  0  0  0  0  0
   19.0400  -51.7610   36.6500 C   0  0  0  0  0  3  0  0  0  0  0  0
   16.2080  -52.4820   39.4120 Cl  0  0  0  0  0  0  0  0  0  0  0  0
   16.4950  -55.0290   37.5160 C   0  0  0  0  0  0  0  0  0  0  0  0
   15.6120  -55.2630   38.3730 O   0  0  0  0  0  0  0  0  0  0  0  0
   16.9300  -55.9370   36.4630 C   0  0  0  0  0  0  0  0  0  0  0  0
   16.4710  -57.1050   36.2640 O   0  0  0  0  0  0  0  0  0  0  0  0
   17.9440  -55.2690   35.7280 N   0  0  0  0  0  0  0  0  0  0  0  0
   18.6700  -55.7830   34.5850 C   0  0  0  0  0  2  0  0  0  0  0  0
   18.1550  -55.3100   33.3170 N   0  0  0  0  0  0  0  0  0  0  0  0
   19.1930  -55.2040   32.3500 C   0  0  0  0  0  2  0  0  0  0  0  0
   18.8650  -55.7220   30.9940 C   0  0  0  0  0  2  0  0  0  0  0  0
   18.0710  -56.9230   31.0090 N   0  0  0  0  0  0  0  0  0  0  0  0
   17.3740  -57.2740   32.2250 C   0  0  0  0  0  2  0  0  0  0  0  0
   16.9710  -55.9730   32.8870 C   0  0  0  0  0  2  0  0  0  0  0  0
   17.9500  -57.7660   29.8810 C   0  0  0  0  0  0  0  0  0  0  0  0
   16.9020  -58.5940   29.7360 N   0  0  0  0  0  0  0  0  0  0  0  0
   16.7640  -59.4070   28.6700 C   0  0  0  0  0  3  0  0  0  0  0  0
   17.7180  -59.4160   27.6700 C   0  0  0  0  0  3  0  0  0  0  0  0
   18.7670  -58.5900   27.8100 N   0  0  0  0  0  0  0  0  0  0  0  0
   18.9060  -57.7770   28.8740 C   0  0  0  0  0  3  0  0  0  0  0  0
  1  2  1  0  0  0  0
  2  3  2  0  0  0  0
  2  7  1  0  0  0  0
  3  4  1  0  0  0  0
  4  9  1  0  0  0  0
  4  5  2  0  0  0  0
  5  8  1  0  0  0  0
  6  5  1  0  0  0  0
  7  6  2  0  0  0  0
  9 10  2  0  0  0  0
 11  9  1  0  0  0  0
 12 11  2  0  0  0  0
 13  3  1  0  0  0  0
 13 11  1  0  0  0  0
 14 13  1  0  0  0  0
 15 14  1  0  0  0  0
 16 15  1  0  0  0  0
 17 18  1  0  0  0  0
 17 16  1  0  0  0  0
 18 19  1  0  0  0  0
 19 20  1  0  0  0  0
 20 15  1  0  0  0  0
 21 18  1  0  0  0  0
 22 21  1  0  0  0  0
 23 22  2  0  0  0  0
 24 25  2  0  0  0  0
 24 23  1  0  0  0  0
 25 26  1  0  0  0  0
 26 21  2  0  0  0  0
M  END
>  <Pose>
1

>  <Score>
-9.328

$$$$
