/Users/jonathanwahrer/Desktop/Msc/3_Semester/Drug_Design_Praktikum/waehrer_HTS_screening/HTS_experiment/out/docking_results/vina_output/6s1j/1982_docked.pdbqt
 OpenBabel03222222323D

 25 28  0  0  0  0  0  0  0  0999 V2000
   19.6270  -50.6160   36.4760 Cl  0  0  0  0  0  0  0  0  0  0  0  0
   18.5470  -51.8970   36.9820 C   0  0  0  0  0  0  0  0  0  0  0  0
   18.5010  -53.1240   36.3550 C   0  0  0  0  0  3  0  0  0  0  0  0
   17.6530  -54.1420   36.7420 C   0  0  0  0  0  0  0  0  0  0  0  0
   16.8160  -53.9030   37.8150 C   0  0  0  0  0  0  0  0  0  0  0  0
   16.8540  -52.6800   38.4520 C   0  0  0  0  0  3  0  0  0  0  0  0
   17.7010  -51.6620   38.0630 C   0  0  0  0  0  3  0  0  0  0  0  0
   15.9000  -54.9800   38.2500 C   0  0  0  0  0  0  0  0  0  0  0  0
   15.0480  -55.0200   39.1850 N   0  0  0  0  0  0  0  0  0  0  0  0
   14.3450  -56.2820   39.2750 C   0  0  0  0  0  3  0  0  0  0  0  0
   14.9140  -57.1160   38.1740 C   0  0  0  0  0  3  0  0  0  0  0  0
   15.8890  -56.2280   37.5710 N   0  0  0  0  0  0  0  0  0  0  0  0
   16.7850  -56.3940   36.4720 C   0  0  0  0  0  0  0  0  0  0  0  0
   16.9920  -57.4450   35.6580 N   0  0  0  0  0  0  0  0  0  0  0  0
   17.9240  -57.1720   34.7620 N   0  0  0  0  0  0  0  0  0  0  0  0
   18.3100  -55.9000   35.0310 C   0  0  0  0  0  0  0  0  0  0  0  0
   19.1890  -55.2990   34.3760 O   0  0  0  0  0  0  0  0  0  0  0  0
   17.6270  -55.4030   36.0750 N   0  0  0  0  0  0  0  0  0  0  0  0
   18.4230  -58.0460   33.7170 C   0  0  0  0  0  2  0  0  0  0  0  0
   17.3240  -58.2520   32.6650 C   0  0  0  0  0  2  0  0  0  0  0  0
   16.8000  -56.9400   32.2100 C   0  0  0  0  0  0  0  0  0  0  0  0
   15.6320  -56.5290   32.4260 O   0  0  0  0  0  0  0  0  0  0  0  0
   17.6750  -56.0920   31.4840 N   0  0  0  0  0  0  0  0  0  0  0  0
   18.3630  -56.4380   30.7900 H   0  0  0  0  0  0  0  0  0  0  0  0
   17.6190  -55.0680   31.6630 H   0  0  0  0  0  0  0  0  0  0  0  0
  1  2  1  0  0  0  0
  2  7  1  0  0  0  0
  3  4  1  0  0  0  0
  3  2  2  0  0  0  0
  4  5  2  0  0  0  0
  5  8  1  0  0  0  0
  5  6  1  0  0  0  0
  7  6  2  0  0  0  0
  8  9  2  0  0  0  0
  9 10  1  0  0  0  0
 11 10  2  0  0  0  0
 12 11  1  0  0  0  0
 12  8  1  0  0  0  0
 13 12  1  0  0  0  0
 14 13  2  0  0  0  0
 15 16  1  0  0  0  0
 15 14  1  0  0  0  0
 16 18  1  0  0  0  0
 17 16  2  0  0  0  0
 18 13  1  0  0  0  0
 18  4  1  0  0  0  0
 19 15  1  0  0  0  0
 20 19  1  0  0  0  0
 21 22  2  0  0  0  0
 21 20  1  0  0  0  0
 23 25  1  0  0  0  0
 23 21  1  0  0  0  0
 24 23  1  0  0  0  0
M  END
>  <Pose>
1

>  <Score>
-9.478

$$$$
