/Users/jonathanwahrer/Desktop/Msc/3_Semester/Drug_Design_Praktikum/waehrer_HTS_screening/HTS_experiment/out/docking_results/vina_output/6s1j/1986_docked.pdbqt
 OpenBabel03222222323D

 30 33  0  0  1  0  0  0  0  0999 V2000
   19.7600  -53.7080   35.2900 Cl  0  0  0  0  0  0  0  0  0  0  0  0
   19.3260  -54.7730   33.9640 C   0  0  0  0  0  0  0  0  0  0  0  0
   18.8570  -56.0490   34.2030 C   0  0  0  0  0  3  0  0  0  0  0  0
   18.5110  -56.9000   33.1450 C   0  0  0  0  0  0  0  0  0  0  0  0
   18.6630  -56.4000   31.8770 C   0  0  2  0  0  3  0  0  0  0  0  0
   19.1410  -55.1030   31.6390 C   0  0  0  0  0  3  0  0  0  0  0  0
   19.4780  -54.2740   32.6870 C   0  0  0  0  0  3  0  0  0  0  0  0
   18.3250  -57.2250   30.8080 O   0  0  0  0  0  0  0  0  0  0  0  0
   17.8480  -58.5150   30.9660 C   0  0  0  0  0  0  0  0  0  0  0  0
   17.6950  -59.0190   32.2480 C   0  0  0  0  0  0  0  0  0  0  0  0
   18.0160  -58.2540   33.4590 C   0  0  0  0  0  0  0  0  0  0  0  0
   17.2150  -60.3090   32.3540 C   0  0  0  0  0  0  0  0  0  0  0  0
   17.0540  -60.8250   33.5050 O   0  0  0  0  0  0  0  0  0  0  0  0
   16.8960  -61.0870   31.3070 N   0  0  0  0  0  0  0  0  0  0  0  0
   17.0610  -60.5520   30.0730 C   0  0  0  0  0  0  0  0  0  0  0  0
   16.7550  -61.2990   29.1050 O   0  0  0  0  0  0  0  0  0  0  0  0
   17.5260  -59.2980   29.9220 N   0  0  0  0  0  0  0  0  0  0  0  0
   17.6760  -58.7990   28.5700 C   0  0  0  0  0  1  0  0  0  0  0  0
   16.3880  -62.4480   31.4760 C   0  0  0  0  0  1  0  0  0  0  0  0
   16.7870  -58.1370   34.3100 C   0  0  0  0  0  3  0  0  0  0  0  0
   15.5830  -57.7520   33.7620 C   0  0  0  0  0  0  0  0  0  0  0  0
   14.4750  -57.6470   34.5450 N   0  0  0  0  0  0  0  0  0  0  0  0
   15.5100  -57.4790   32.4250 O   0  0  0  0  0  0  0  0  0  0  0  0
   14.5430  -57.9180   35.8730 C   0  0  0  0  0  0  0  0  0  0  0  0
   13.2290  -57.2380   33.9050 C   0  0  0  0  0  1  0  0  0  0  0  0
   13.4950  -57.8090   36.5690 O   0  0  0  0  0  0  0  0  0  0  0  0
   15.7030  -58.2940   36.4350 N   0  0  0  0  0  0  0  0  0  0  0  0
   16.8020  -58.4000   35.6650 C   0  0  0  0  0  0  0  0  0  0  0  0
   15.7410  -58.5770   37.8660 C   0  0  0  0  0  1  0  0  0  0  0  0
   17.8650  -58.7490   36.1980 O   0  0  0  0  0  0  0  0  0  0  0  0
  2  3  2  0  0  0  0
  2  1  1  0  0  0  0
  4 11  2  0  0  0  0
  4  3  1  0  0  0  0
  5  6  1  1  0  0  0
  5  4  1  0  0  0  0
  6  7  2  0  0  0  0
  7  2  1  0  0  0  0
  8  9  1  0  0  0  0
  8  5  1  0  0  0  0
  9 10  2  0  0  0  0
 10 12  1  0  0  0  0
 10 11  1  0  0  0  0
 11 20  1  0  0  0  0
 12 13  2  0  0  0  0
 14 19  1  0  0  0  0
 14 12  1  0  0  0  0
 15 14  1  0  0  0  0
 16 15  2  0  0  0  0
 17 15  1  0  0  0  0
 17  9  1  0  0  0  0
 18 17  1  0  0  0  0
 20 28  1  0  0  0  0
 21 20  1  0  0  0  0
 21 22  1  0  0  0  0
 22 24  1  0  0  0  0
 23 21  2  0  0  0  0
 24 27  1  0  0  0  0
 24 26  2  0  0  0  0
 25 22  1  0  0  0  0
 27 29  1  0  0  0  0
 28 30  2  0  0  0  0
 28 27  1  0  0  0  0
M  END
>  <Pose>
1

>  <Score>
-7.234

$$$$
