/Users/jonathanwahrer/Desktop/Msc/3_Semester/Drug_Design_Praktikum/waehrer_HTS_screening/HTS_experiment/out/docking_results/vina_output/6s1j/1991_docked.pdbqt
 OpenBabel03222222323D

 31 34  0  0  1  0  0  0  0  0999 V2000
   11.7650  -60.3880   36.7550 Cl  0  0  0  0  0  0  0  0  0  0  0  0
   12.9440  -59.3320   36.0160 C   0  0  0  0  0  0  0  0  0  0  0  0
   14.0920  -58.9720   36.6860 C   0  0  0  0  0  3  0  0  0  0  0  0
   15.0060  -58.1420   36.0910 C   0  0  0  0  0  0  0  0  0  0  0  0
   14.7660  -57.6630   34.7980 C   0  0  0  0  0  0  0  0  0  0  0  0
   13.6140  -58.0200   34.1160 C   0  0  0  0  0  3  0  0  0  0  0  0
   12.7260  -58.8490   34.7450 C   0  0  0  0  0  3  0  0  0  0  0  0
   15.5860  -56.8210   34.0620 O   0  0  0  0  0  0  0  0  0  0  0  0
   16.9730  -56.6240   34.2060 C   0  0  0  0  0  0  0  0  0  0  0  0
   17.3270  -56.0030   35.5180 C   0  0  0  0  0  2  0  0  0  0  0  0
   16.5980  -56.4950   36.6470 N   0  0  0  0  0  0  0  0  0  0  0  0
   16.1900  -57.8460   36.9370 C   0  0  0  0  0  2  0  0  0  0  0  0
   16.1960  -55.5460   37.6480 C   0  0  0  0  0  0  0  0  0  0  0  0
   15.5610  -55.9960   38.6340 O   0  0  0  0  0  0  0  0  0  0  0  0
   17.7000  -57.9380   33.9640 C   0  0  0  0  0  2  0  0  0  0  0  0
   18.0800  -58.0650   32.4990 C   0  0  0  0  0  2  0  0  0  0  0  0
   19.0270  -57.1350   32.1160 O   0  0  0  0  0  0  0  0  0  0  0  0
   18.9350  -55.9850   32.8910 C   0  0  0  0  0  2  0  0  0  0  0  0
   17.4680  -55.6720   33.1150 C   0  0  0  0  0  2  0  0  0  0  0  0
   16.5100  -54.1230   37.5290 C   0  0  0  0  0  2  0  0  0  0  0  0
   17.0620  -53.4720   38.6600 N   0  0  0  0  0  0  0  0  0  0  0  0
   17.3040  -52.0490   38.4070 C   0  0  0  0  0  2  0  0  0  0  0  0
   18.2730  -51.9340   37.2910 C   0  0  0  0  0  2  0  0  0  0  0  0
   19.4810  -52.8060   37.3630 C   0  0  1  0  0  3  0  0  0  0  0  0
   19.4660  -53.9040   38.3520 C   0  0  0  0  0  2  0  0  0  0  0  0
   18.2640  -54.0510   39.2070 C   0  0  0  0  0  2  0  0  0  0  0  0
   19.8740  -53.3060   36.0220 C   0  0  0  0  0  0  0  0  0  0  0  0
   20.1450  -54.5150   35.8750 O   0  0  0  0  0  0  0  0  0  0  0  0
   19.9400  -52.4170   34.9280 N   0  0  0  0  0  0  0  0  0  0  0  0
   19.1490  -52.4980   34.2230 H   0  0  0  0  0  0  0  0  0  0  0  0
   20.6670  -51.7120   34.7550 H   0  0  0  0  0  0  0  0  0  0  0  0
  2  3  1  0  0  0  0
  2  1  1  0  0  0  0
  4  3  2  0  0  0  0
  4 12  1  0  0  0  0
  5  4  1  0  0  0  0
  6  7  1  0  0  0  0
  6  5  2  0  0  0  0
  7  2  2  0  0  0  0
  8  9  1  0  0  0  0
  8  5  1  0  0  0  0
  9 10  1  0  0  0  0
 10 11  1  0  0  0  0
 11 12  1  0  0  0  0
 11 13  1  0  0  0  0
 13 14  2  0  0  0  0
 15  9  1  0  0  0  0
 16 15  1  0  0  0  0
 17 16  1  0  0  0  0
 17 18  1  0  0  0  0
 18 19  1  0  0  0  0
 19  9  1  0  0  0  0
 20 13  1  0  0  0  0
 20 21  1  0  0  0  0
 21 26  1  0  0  0  0
 22 21  1  0  0  0  0
 23 24  1  0  0  0  0
 23 22  1  0  0  0  0
 24 27  1  6  0  0  0
 24 25  1  0  0  0  0
 25 26  1  0  0  0  0
 28 27  2  0  0  0  0
 29 27  1  0  0  0  0
 30 29  1  0  0  0  0
 31 29  1  0  0  0  0
M  END
>  <Pose>
1

>  <Score>
-10.822

$$$$
