/Users/jonathanwahrer/Desktop/Msc/3_Semester/Drug_Design_Praktikum/waehrer_HTS_screening/HTS_experiment/out/docking_results/vina_output/6s1j/2017_docked.pdbqt
 OpenBabel03222222333D

 24 27  0  0  0  0  0  0  0  0999 V2000
   18.4570  -50.9450   37.3420 Cl  0  0  0  0  0  0  0  0  0  0  0  0
   17.8930  -52.6000   37.1850 C   0  0  0  0  0  0  0  0  0  0  0  0
   16.9070  -53.1260   37.9970 C   0  0  0  0  0  2  0  0  0  0  0  0
   16.4780  -54.4080   37.8670 N   0  0  0  0  0  0  0  0  0  0  0  0
   16.9800  -55.2480   36.9450 C   0  0  0  0  0  0  0  0  0  0  0  0
   16.5620  -56.5200   36.8090 N   0  0  0  0  0  0  0  0  0  0  0  0
   15.6030  -57.0400   37.5960 C   0  0  0  0  0  0  0  0  0  0  0  0
   15.0750  -56.1750   38.5560 C   0  0  0  0  0  2  0  0  0  0  0  0
   15.5110  -54.8740   38.6870 C   0  0  0  0  0  0  0  0  0  0  0  0
   15.0270  -54.0900   39.5640 O   0  0  0  0  0  0  0  0  0  0  0  0
   17.9730  -54.7450   36.1150 C   0  0  0  0  0  3  0  0  0  0  0  0
   18.4220  -53.4450   36.2320 C   0  0  0  0  0  3  0  0  0  0  0  0
   15.1080  -58.4370   37.4840 C   0  0  0  0  0  2  0  0  0  0  0  0
   13.8590  -58.4380   36.8160 N   0  0  0  0  0  0  0  0  0  0  0  0
   12.8730  -59.3490   37.2600 C   0  0  0  0  0  2  0  0  0  0  0  0
   11.9040  -59.8020   36.1790 C   0  0  0  0  0  2  0  0  0  0  0  0
   12.7470  -60.2240   35.0280 C   0  0  0  0  0  0  0  0  0  0  0  0
   13.7430  -59.3450   34.6590 C   0  0  0  0  0  0  0  0  0  0  0  0
   12.5260  -61.4240   34.3920 C   0  0  0  0  0  3  0  0  0  0  0  0
   14.5300  -59.6830   33.6270 N   0  0  0  0  0  0  0  0  0  0  0  0
   13.8650  -58.0870   35.4360 C   0  0  0  0  0  2  0  0  0  0  0  0
   14.3400  -60.8680   32.9690 C   0  0  0  0  0  0  0  0  0  0  0  0
   13.3520  -61.7060   33.3610 N   0  0  0  0  0  0  0  0  0  0  0  0
   15.2060  -61.2540   31.8250 C   0  0  0  0  0  1  0  0  0  0  0  0
  2  1  1  0  0  0  0
  2  3  1  0  0  0  0
  4  3  1  0  0  0  0
  4  9  1  0  0  0  0
  5  4  1  0  0  0  0
  6  5  1  0  0  0  0
  6  7  2  0  0  0  0
  7  8  1  0  0  0  0
  8  9  1  0  0  0  0
  9 10  2  0  0  0  0
 11 12  1  0  0  0  0
 11  5  2  0  0  0  0
 12  2  2  0  0  0  0
 13  7  1  0  0  0  0
 14 15  1  0  0  0  0
 14 13  1  0  0  0  0
 16 15  1  0  0  0  0
 17 16  1  0  0  0  0
 18 17  2  0  0  0  0
 18 21  1  0  0  0  0
 19 17  1  0  0  0  0
 20 18  1  0  0  0  0
 21 14  1  0  0  0  0
 22 23  1  0  0  0  0
 22 20  2  0  0  0  0
 23 19  2  0  0  0  0
 24 22  1  0  0  0  0
M  END
>  <Pose>
1

>  <Score>
-9.005

$$$$
