/Users/jonathanwahrer/Desktop/Msc/3_Semester/Drug_Design_Praktikum/waehrer_HTS_screening/HTS_experiment/out/docking_results/vina_output/6s1j/2020_docked.pdbqt
 OpenBabel03222222333D

 22 24  0  0  1  0  0  0  0  0999 V2000
   17.1190  -55.0130   33.9810 C   0  0  2  0  0  3  0  0  0  0  0  0
   16.1510  -56.0920   34.5420 C   0  0  2  0  0  3  0  0  0  0  0  0
   17.1980  -56.9280   35.3030 C   0  0  0  0  0  0  0  0  0  0  0  0
   17.0640  -57.2970   36.4550 O   0  0  0  0  0  0  0  0  0  0  0  0
   18.3390  -57.2030   34.4590 N   0  0  0  0  0  0  0  0  0  0  0  0
   18.0690  -57.0490   33.0170 C   0  0  1  0  0  0  0  0  0  0  0  0
   16.7930  -57.7560   32.8400 N   0  0  0  0  0  0  0  0  0  0  0  0
   15.7120  -57.0640   33.4950 C   0  0  0  0  0  0  0  0  0  0  0  0
   14.5110  -57.2500   33.2270 O   0  0  0  0  0  0  0  0  0  0  0  0
   17.7270  -55.5500   32.7980 C   0  0  0  0  0  2  0  0  0  0  0  0
   19.1320  -57.5060   32.1190 C   0  0  0  0  0  1  0  0  0  0  0  0
   19.2630  -57.4620   34.8140 H   0  0  0  0  0  0  0  0  0  0  0  0
   16.7030  -58.6340   32.3150 H   0  0  0  0  0  0  0  0  0  0  0  0
   17.8780  -54.6170   35.1610 C   0  0  0  0  0  0  0  0  0  0  0  0
   17.1450  -54.3530   36.3250 C   0  0  0  0  0  3  0  0  0  0  0  0
   17.7700  -53.8820   37.4820 C   0  0  0  0  0  0  0  0  0  0  0  0
   16.7400  -53.5240   39.0410 Br  0  0  0  0  0  0  0  0  0  0  0  0
   19.1100  -53.6640   37.5220 C   0  0  0  0  0  3  0  0  0  0  0  0
   19.8390  -53.9150   36.3950 C   0  0  0  0  0  3  0  0  0  0  0  0
   19.2400  -54.3830   35.2380 C   0  0  0  0  0  0  0  0  0  0  0  0
   19.9420  -54.6550   34.0990 O   0  0  0  0  0  0  0  0  0  0  0  0
   20.6010  -53.6210   33.4190 C   0  0  0  0  0  1  0  0  0  0  0  0
  1  2  1  0  0  0  0
  1 14  1  1  0  0  0
  2  8  1  6  0  0  0
  2  3  1  0  0  0  0
  3  4  2  0  0  0  0
  5 12  1  0  0  0  0
  5  3  1  0  0  0  0
  6 11  1  6  0  0  0
  6  5  1  0  0  0  0
  7  6  1  0  0  0  0
  7  8  1  0  0  0  0
  9  8  2  0  0  0  0
 10  6  1  0  0  0  0
 10  1  1  0  0  0  0
 13  7  1  0  0  0  0
 14 20  2  0  0  0  0
 14 15  1  0  0  0  0
 15 16  2  0  0  0  0
 16 18  1  0  0  0  0
 16 17  1  0  0  0  0
 19 18  2  0  0  0  0
 20 19  1  0  0  0  0
 21 20  1  0  0  0  0
 22 21  1  0  0  0  0
M  END
>  <Pose>
1

>  <Score>
-7.990

$$$$
