/Users/jonathanwahrer/Desktop/Msc/3_Semester/Drug_Design_Praktikum/waehrer_HTS_screening/HTS_experiment/out/docking_results/vina_output/6s1j/2032_docked.pdbqt
 OpenBabel03222222343D

 31 34  0  0  0  0  0  0  0  0999 V2000
   19.5290  -53.0740   35.4780 C   0  0  0  0  0  3  0  0  0  0  0  0
   19.3240  -53.8150   34.4380 C   0  0  0  0  0  0  0  0  0  0  0  0
   18.1980  -54.5370   34.1570 O   0  0  0  0  0  0  0  0  0  0  0  0
   18.3690  -55.1930   32.9400 C   0  0  0  0  0  0  0  0  0  0  0  0
   19.5830  -54.9410   32.3880 C   0  0  0  0  0  0  0  0  0  0  0  0
   19.9470  -55.4910   31.1540 C   0  0  0  0  0  3  0  0  0  0  0  0
   19.1070  -56.3090   30.4440 C   0  0  0  0  0  3  0  0  0  0  0  0
   17.8640  -56.5450   31.0590 C   0  0  0  0  0  0  0  0  0  0  0  0
   17.4810  -56.0240   32.2480 C   0  0  0  0  0  0  0  0  0  0  0  0
   17.0440  -57.4060   30.2980 O   0  0  0  0  0  1  0  0  0  0  0  0
   20.2560  -54.0400   33.3310 C   0  0  0  0  0  0  0  0  0  0  0  0
   21.4170  -53.5530   33.2040 O   0  0  0  0  0  0  0  0  0  0  0  0
   18.6110  -52.8400   36.5830 C   0  0  0  0  0  0  0  0  0  0  0  0
   17.8630  -53.8710   37.0910 C   0  0  0  0  0  3  0  0  0  0  0  0
   16.9460  -53.6450   38.1320 C   0  0  0  0  0  0  0  0  0  0  0  0
   15.8970  -55.0450   38.8680 Br  0  0  0  0  0  0  0  0  0  0  0  0
   16.8020  -52.3730   38.6400 C   0  0  0  0  0  3  0  0  0  0  0  0
   17.5400  -51.3510   38.1360 C   0  0  0  0  0  3  0  0  0  0  0  0
   18.4570  -51.5740   37.0980 C   0  0  0  0  0  0  0  0  0  0  0  0
   19.2180  -50.5980   36.5550 O   0  0  0  0  0  0  0  0  0  0  0  0
   20.5680  -50.6510   36.2460 C   0  0  0  0  0  1  0  0  0  0  0  0
   16.1980  -56.3110   32.9180 C   0  0  0  0  0  2  0  0  0  0  0  0
   16.3730  -57.2060   34.0370 N   0  0  0  0  0  4  0  0  0  0  0  0
   15.6440  -58.4350   33.7850 C   0  0  0  0  0  2  0  0  0  0  0  0
   14.9650  -59.0070   34.9570 C   0  0  0  0  0  2  0  0  0  0  0  0
   15.5830  -58.7720   36.2230 N   0  0  0  0  0  0  0  0  0  0  0  0
   16.6450  -57.8740   36.2790 C   0  0  0  0  0  2  0  0  0  0  0  0
   16.3770  -56.6860   35.3180 C   0  0  0  0  0  2  0  0  0  0  0  0
   17.4340  -57.5280   33.8720 H   0  0  0  0  0  0  0  0  0  0  0  0
   14.7660  -58.9160   37.3670 C   0  0  0  0  0  2  0  0  0  0  0  0
   13.6760  -57.9140   37.5090 C   0  0  0  0  0  1  0  0  0  0  0  0
  1 13  1  0  0  0  0
  2  1  2  0  0  0  0
  3  2  1  0  0  0  0
  4  3  1  0  0  0  0
  5  4  1  0  0  0  0
  5 11  1  0  0  0  0
  6  5  2  0  0  0  0
  7  8  2  0  0  0  0
  7  6  1  0  0  0  0
  8  9  1  0  0  0  0
  9 22  1  0  0  0  0
  9  4  2  0  0  0  0
 10  8  1  0  0  0  0
 11  2  1  0  0  0  0
 12 11  2  0  0  0  0
 13 14  2  0  0  0  0
 13 19  1  0  0  0  0
 14 15  1  0  0  0  0
 15 17  2  0  0  0  0
 15 16  1  0  0  0  0
 18 17  1  0  0  0  0
 19 18  2  0  0  0  0
 20 19  1  0  0  0  0
 21 20  1  0  0  0  0
 22 23  1  0  0  0  0
 23 28  1  0  0  0  0
 24 23  1  0  0  0  0
 24 25  1  0  0  0  0
 25 26  1  0  0  0  0
 26 27  1  0  0  0  0
 26 30  1  0  0  0  0
 28 27  1  0  0  0  0
 29 23  1  0  0  0  0
 30 31  1  0  0  0  0
M  END
>  <Pose>
1

>  <Score>
-10.227

$$$$
