/Users/jonathanwahrer/Desktop/Msc/3_Semester/Drug_Design_Praktikum/waehrer_HTS_screening/HTS_experiment/out/docking_results/vina_output/6s1j/2063_docked.pdbqt
 OpenBabel03222222353D

 34 37  0  0  1  0  0  0  0  0999 V2000
   16.5800  -54.6830   37.7790 C   0  0  0  0  0  0  0  0  0  0  0  0
   15.7000  -54.4970   38.8410 C   0  0  0  0  0  3  0  0  0  0  0  0
   14.8300  -55.4100   39.2040 O   0  0  0  0  0  0  0  0  0  0  0  0
   14.7180  -56.5680   38.5980 C   0  0  0  0  0  0  0  0  0  0  0  0
   15.5460  -56.8430   37.5350 C   0  0  0  0  0  0  0  0  0  0  0  0
   15.3950  -58.0670   36.9310 C   0  0  0  0  0  3  0  0  0  0  0  0
   14.4730  -58.9990   37.3350 C   0  0  0  0  0  3  0  0  0  0  0  0
   13.6150  -58.7380   38.4230 C   0  0  0  0  0  0  0  0  0  0  0  0
   13.7720  -57.5110   39.0220 C   0  0  0  0  0  3  0  0  0  0  0  0
   16.4720  -55.9060   37.1280 C   0  0  0  0  0  0  0  0  0  0  0  0
   17.2320  -56.1560   36.1540 O   0  0  0  0  0  0  0  0  0  0  0  0
   12.7020  -59.7020   38.7980 O   0  0  0  0  0  0  0  0  0  0  0  0
   11.5610  -59.5060   39.5190 C   0  0  2  0  0  3  0  0  0  0  0  0
   11.5160  -60.2680   40.7170 O   0  0  0  0  0  0  0  0  0  0  0  0
   10.6370  -59.6030   41.5430 C   0  0  1  0  0  3  0  0  0  0  0  0
    9.2270  -59.5560   41.0410 C   0  0  2  0  0  3  0  0  0  0  0  0
    9.1500  -59.2460   39.5660 C   0  0  1  0  0  3  0  0  0  0  0  0
   10.2840  -59.8880   38.7930 C   0  0  1  0  0  3  0  0  0  0  0  0
   10.6580  -60.1160   42.9610 C   0  0  0  0  0  2  0  0  0  0  0  0
   10.4220  -59.1030   43.8870 O   0  0  0  0  0  0  0  0  0  0  0  0
    9.8260  -58.4420   43.4130 H   0  0  0  0  0  0  0  0  0  0  0  0
    8.5860  -58.4990   41.7060 O   0  0  0  0  0  0  0  0  0  0  0  0
    7.8520  -58.8390   42.2770 H   0  0  0  0  0  0  0  0  0  0  0  0
    7.9020  -59.6110   39.0780 O   0  0  0  0  0  0  0  0  0  0  0  0
    7.6570  -59.1020   38.2450 H   0  0  0  0  0  0  0  0  0  0  0  0
   10.2590  -59.3860   37.4980 O   0  0  0  0  0  0  0  0  0  0  0  0
    9.4350  -59.6600   37.0310 H   0  0  0  0  0  0  0  0  0  0  0  0
   17.5320  -53.6610   37.3950 C   0  0  0  0  0  0  0  0  0  0  0  0
   18.6990  -53.9350   36.7130 C   0  0  0  0  0  3  0  0  0  0  0  0
   19.5710  -52.9060   36.3750 C   0  0  0  0  0  3  0  0  0  0  0  0
   19.3150  -51.5940   36.6980 C   0  0  0  0  0  0  0  0  0  0  0  0
   20.5240  -50.1890   36.2250 Br  0  0  0  0  0  0  0  0  0  0  0  0
   18.1420  -51.3180   37.3840 C   0  0  0  0  0  3  0  0  0  0  0  0
   17.2770  -52.3400   37.7190 C   0  0  0  0  0  3  0  0  0  0  0  0
  1  2  2  0  0  0  0
  2  3  1  0  0  0  0
  4  9  1  0  0  0  0
  4  3  1  0  0  0  0
  5  4  2  0  0  0  0
  6  7  2  0  0  0  0
  6  5  1  0  0  0  0
  7  8  1  0  0  0  0
  8 12  1  0  0  0  0
  8  9  2  0  0  0  0
 10  5  1  0  0  0  0
 10  1  1  0  0  0  0
 11 10  2  0  0  0  0
 13 12  1  6  0  0  0
 13 14  1  0  0  0  0
 14 15  1  0  0  0  0
 15 19  1  1  0  0  0
 16 15  1  0  0  0  0
 16 22  1  1  0  0  0
 17 24  1  6  0  0  0
 17 16  1  0  0  0  0
 18 26  1  6  0  0  0
 18 13  1  0  0  0  0
 18 17  1  0  0  0  0
 19 20  1  0  0  0  0
 21 20  1  0  0  0  0
 22 23  1  0  0  0  0
 25 24  1  0  0  0  0
 27 26  1  0  0  0  0
 28 34  1  0  0  0  0
 28  1  1  0  0  0  0
 29 28  2  0  0  0  0
 30 31  2  0  0  0  0
 30 29  1  0  0  0  0
 31 33  1  0  0  0  0
 32 31  1  0  0  0  0
 33 34  2  0  0  0  0
M  END
>  <Pose>
1

>  <Score>
-9.606

$$$$
