/Users/jonathanwahrer/Desktop/Msc/3_Semester/Drug_Design_Praktikum/waehrer_HTS_screening/HTS_experiment/out/docking_results/vina_output/6s1j/2072_docked.pdbqt
 OpenBabel03222222353D

 27 30  0  0  0  0  0  0  0  0999 V2000
   15.0050  -58.8350   33.1780 N   0  0  0  0  0  0  0  0  0  0  0  0
   14.7190  -57.5030   33.5690 C   0  0  0  0  0  2  0  0  0  0  0  0
   14.0390  -57.3000   34.8930 C   0  0  0  0  0  2  0  0  0  0  0  0
   14.4600  -58.3190   35.7970 N   0  0  0  0  0  0  0  0  0  0  0  0
   13.9320  -59.5750   35.2630 C   0  0  0  0  0  2  0  0  0  0  0  0
   14.6780  -59.9040   34.0250 C   0  0  0  0  0  2  0  0  0  0  0  0
   14.0670  -58.1300   37.1520 C   0  0  0  0  0  2  0  0  0  0  0  0
   15.2400  -57.9400   38.0520 C   0  0  0  0  0  2  0  0  0  0  0  0
   15.6870  -56.5630   38.0940 N   0  0  0  0  0  0  0  0  0  0  0  0
   16.6180  -55.9920   37.3310 N   0  0  0  0  0  0  0  0  0  0  0  0
   16.7530  -54.6970   37.6480 C   0  0  0  0  0  0  0  0  0  0  0  0
   15.8880  -54.4410   38.6370 N   0  0  0  0  0  0  0  0  0  0  0  0
   17.5420  -53.6550   37.1980 C   0  0  0  0  0  3  0  0  0  0  0  0
   15.7880  -53.2030   39.1790 C   0  0  0  0  0  3  0  0  0  0  0  0
   15.2320  -55.6070   38.9050 C   0  0  0  0  0  0  0  0  0  0  0  0
   16.5620  -52.1500   38.7480 C   0  0  0  0  0  3  0  0  0  0  0  0
   17.4630  -52.3860   37.7290 C   0  0  0  0  0  3  0  0  0  0  0  0
   14.3530  -55.6730   39.7970 O   0  0  0  0  0  0  0  0  0  0  0  0
   16.6580  -58.9450   32.7050 S   0  0  0  0  0  0  0  0  0  0  0  0
   17.3340  -59.9880   33.5670 O   0  0  0  0  0  0  0  0  0  0  0  0
   16.8020  -59.3630   31.2900 O   0  0  0  0  0  0  0  0  0  0  0  0
   17.4520  -57.3740   32.8930 C   0  0  0  0  0  0  0  0  0  0  0  0
   18.4610  -56.8160   34.1490 S   0  0  0  0  0  0  0  0  0  0  0  0
   18.7860  -55.2500   33.5670 C   0  0  0  0  0  0  0  0  0  0  0  0
   18.0870  -55.2050   32.3910 C   0  0  0  0  0  3  0  0  0  0  0  0
   19.8660  -53.8560   34.3460 Br  0  0  0  0  0  0  0  0  0  0  0  0
   17.4000  -56.2990   32.0430 C   0  0  0  0  0  3  0  0  0  0  0  0
  1  2  1  0  0  0  0
  1  6  1  0  0  0  0
  2  3  1  0  0  0  0
  3  4  1  0  0  0  0
  4  7  1  0  0  0  0
  5  4  1  0  0  0  0
  6  5  1  0  0  0  0
  7  8  1  0  0  0  0
  8  9  1  0  0  0  0
  9 15  1  0  0  0  0
 10 11  2  0  0  0  0
 10  9  1  0  0  0  0
 11 12  1  0  0  0  0
 12 15  1  0  0  0  0
 12 14  1  0  0  0  0
 13 11  1  0  0  0  0
 13 17  2  0  0  0  0
 15 18  2  0  0  0  0
 16 14  2  0  0  0  0
 17 16  1  0  0  0  0
 19 22  1  0  0  0  0
 19  1  1  0  0  0  0
 19 20  2  0  0  0  0
 21 19  2  0  0  0  0
 22 23  1  0  0  0  0
 24 23  1  0  0  0  0
 24 26  1  0  0  0  0
 25 24  2  0  0  0  0
 27 25  1  0  0  0  0
 27 22  2  0  0  0  0
M  END
>  <Pose>
1

>  <Score>
-9.103

$$$$
