/Users/jonathanwahrer/Desktop/Msc/3_Semester/Drug_Design_Praktikum/waehrer_HTS_screening/HTS_experiment/out/docking_results/vina_output/6s1j/2079_docked.pdbqt
 OpenBabel03222222353D

 31 34  0  0  0  0  0  0  0  0999 V2000
   17.0250  -54.4570   36.9610 C   0  0  0  0  0  0  0  0  0  0  0  0
   16.2110  -54.6810   38.0480 C   0  0  0  0  0  3  0  0  0  0  0  0
   15.5100  -55.8930   38.1250 C   0  0  0  0  0  0  0  0  0  0  0  0
   15.6190  -56.8500   37.1400 C   0  0  0  0  0  0  0  0  0  0  0  0
   14.9650  -58.0830   37.1300 C   0  0  0  0  0  0  0  0  0  0  0  0
   14.1490  -58.2950   38.2690 C   0  0  0  0  0  0  0  0  0  0  0  0
   14.0170  -57.3560   39.2880 C   0  0  0  0  0  3  0  0  0  0  0  0
   14.7070  -56.1570   39.2050 C   0  0  0  0  0  3  0  0  0  0  0  0
   13.4180  -59.4500   38.4620 O   0  0  0  0  0  1  0  0  0  0  0  0
   16.3820  -56.5990   36.1540 O   0  0  0  0  0  0  0  0  0  0  0  0
   17.0910  -55.4790   35.9920 C   0  0  0  0  0  0  0  0  0  0  0  0
   17.8100  -55.3000   35.0020 O   0  0  0  0  0  0  0  0  0  0  0  0
   15.1510  -59.1750   36.2400 C   0  0  0  0  0  2  0  0  0  0  0  0
   14.0890  -59.8710   35.5610 N   0  0  0  0  0  4  0  0  0  0  0  0
   13.4000  -58.9920   34.5760 C   0  0  0  0  0  2  0  0  0  0  0  0
   14.3970  -58.1480   33.8660 C   0  0  0  0  0  2  0  0  0  0  0  0
   15.3970  -58.8720   33.1140 N   0  0  0  0  0  0  0  0  0  0  0  0
   15.6780  -60.1580   33.6560 C   0  0  0  0  0  2  0  0  0  0  0  0
   14.7470  -60.7920   34.5780 C   0  0  0  0  0  2  0  0  0  0  0  0
   13.4570  -60.4470   36.0670 H   0  0  0  0  0  0  0  0  0  0  0  0
   16.6320  -58.0790   33.0150 C   0  0  0  0  0  2  0  0  0  0  0  0
   17.8370  -58.8380   33.5190 C   0  0  0  0  0  2  0  0  0  0  0  0
   18.3720  -58.2880   34.6740 O   0  0  0  0  0  0  0  0  0  0  0  0
   17.9860  -58.7830   35.4650 H   0  0  0  0  0  0  0  0  0  0  0  0
   17.8830  -53.2580   36.8710 C   0  0  0  0  0  0  0  0  0  0  0  0
   19.0230  -53.3570   36.0510 C   0  0  0  0  0  3  0  0  0  0  0  0
   19.8450  -52.2580   35.8750 C   0  0  0  0  0  3  0  0  0  0  0  0
   19.5880  -51.0390   36.4900 C   0  0  0  0  0  0  0  0  0  0  0  0
   20.5810  -49.5890   36.2050 Cl  0  0  0  0  0  0  0  0  0  0  0  0
   18.4680  -50.9520   37.2980 C   0  0  0  0  0  3  0  0  0  0  0  0
   17.6630  -52.0650   37.4600 C   0  0  0  0  0  3  0  0  0  0  0  0
  1  2  2  0  0  0  0
  2  3  1  0  0  0  0
  3  8  1  0  0  0  0
  4  3  2  0  0  0  0
  5  4  1  0  0  0  0
  5  6  2  0  0  0  0
  6  9  1  0  0  0  0
  6  7  1  0  0  0  0
  8  7  2  0  0  0  0
 10  4  1  0  0  0  0
 11 10  1  0  0  0  0
 11  1  1  0  0  0  0
 12 11  2  0  0  0  0
 13  5  1  0  0  0  0
 14 20  1  0  0  0  0
 14 13  1  0  0  0  0
 15 14  1  0  0  0  0
 16 15  1  0  0  0  0
 17 18  1  0  0  0  0
 17 16  1  0  0  0  0
 18 19  1  0  0  0  0
 19 14  1  0  0  0  0
 21 17  1  0  0  0  0
 21 22  1  0  0  0  0
 22 23  1  0  0  0  0
 23 24  1  0  0  0  0
 25  1  1  0  0  0  0
 25 31  1  0  0  0  0
 26 25  2  0  0  0  0
 27 26  1  0  0  0  0
 27 28  2  0  0  0  0
 28 30  1  0  0  0  0
 29 28  1  0  0  0  0
 30 31  2  0  0  0  0
M  END
>  <Pose>
1

>  <Score>
-9.516

$$$$
