/Users/jonathanwahrer/Desktop/Msc/3_Semester/Drug_Design_Praktikum/waehrer_HTS_screening/HTS_experiment/out/docking_results/vina_output/6s1j/2091_docked.pdbqt
 OpenBabel03222222363D

 28 31  0  0  0  0  0  0  0  0999 V2000
   17.6850  -55.6050   33.2220 N   0  0  0  0  0  0  0  0  0  0  0  0
   18.6910  -55.5970   32.3360 C   0  0  0  0  0  0  0  0  0  0  0  0
   18.7600  -56.8300   31.7260 C   0  0  0  0  0  0  0  0  0  0  0  0
   17.7890  -57.5530   32.2620 N   0  0  0  0  0  0  0  0  0  0  0  0
   17.1170  -56.8360   33.1740 C   0  0  0  0  0  0  0  0  0  0  0  0
   19.6680  -57.1450   30.7690 N   0  0  0  0  0  0  0  0  0  0  0  0
   20.5340  -56.1820   30.4140 C   0  0  0  0  0  0  0  0  0  0  0  0
   21.3700  -56.4920   29.5270 O   0  0  0  0  0  0  0  0  0  0  0  0
   20.5160  -54.9580   30.9690 N   0  0  0  0  0  0  0  0  0  0  0  0
   19.6200  -54.6350   31.9200 C   0  0  0  0  0  0  0  0  0  0  0  0
   19.5740  -53.5170   32.4500 O   0  0  0  0  0  0  0  0  0  0  0  0
   19.6660  -58.4710   30.1870 C   0  0  0  0  0  1  0  0  0  0  0  0
   21.1910  -54.2160   30.6850 H   0  0  0  0  0  0  0  0  0  0  0  0
   17.2800  -54.5170   34.0780 C   0  0  0  0  0  2  0  0  0  0  0  0
   17.8370  -54.4610   35.4150 C   0  0  0  0  0  0  0  0  0  0  0  0
   19.1170  -54.1410   35.7460 C   0  0  0  0  0  3  0  0  0  0  0  0
   19.5750  -54.0670   37.0600 C   0  0  0  0  0  3  0  0  0  0  0  0
   18.6920  -54.3310   38.1020 C   0  0  0  0  0  0  0  0  0  0  0  0
   19.2310  -54.2390   39.9280 Br  0  0  0  0  0  0  0  0  0  0  0  0
   17.3880  -54.6590   37.8140 C   0  0  0  0  0  3  0  0  0  0  0  0
   16.9800  -54.7210   36.5020 C   0  0  0  0  0  3  0  0  0  0  0  0
   16.0040  -57.2750   33.9640 N   0  0  0  0  0  0  0  0  0  0  0  0
   16.2870  -58.0160   35.1740 C   0  0  0  0  0  2  0  0  0  0  0  0
   15.7370  -59.4230   34.9960 C   0  0  0  0  0  2  0  0  0  0  0  0
   14.6900  -59.4920   34.0320 N   0  0  0  0  0  0  0  0  0  0  0  0
   13.8750  -58.3300   33.9060 C   0  0  0  0  0  2  0  0  0  0  0  0
   14.9300  -60.2420   32.8580 C   0  0  0  0  0  1  0  0  0  0  0  0
   14.6210  -57.0480   33.6390 C   0  0  0  0  0  2  0  0  0  0  0  0
  1 14  1  0  0  0  0
  2  1  1  0  0  0  0
  3  4  1  0  0  0  0
  3  2  2  0  0  0  0
  4  5  2  0  0  0  0
  5  1  1  0  0  0  0
  5 22  1  0  0  0  0
  6  3  1  0  0  0  0
  7  6  1  0  0  0  0
  7  9  1  0  0  0  0
  8  7  2  0  0  0  0
  9 10  1  0  0  0  0
 10  2  1  0  0  0  0
 10 11  2  0  0  0  0
 12  6  1  0  0  0  0
 13  9  1  0  0  0  0
 14 15  1  0  0  0  0
 15 16  2  0  0  0  0
 15 21  1  0  0  0  0
 16 17  1  0  0  0  0
 17 18  2  0  0  0  0
 18 19  1  0  0  0  0
 20 18  1  0  0  0  0
 21 20  2  0  0  0  0
 22 23  1  0  0  0  0
 24 23  1  0  0  0  0
 25 24  1  0  0  0  0
 26 25  1  0  0  0  0
 27 25  1  0  0  0  0
 28 26  1  0  0  0  0
 28 22  1  0  0  0  0
M  END
>  <Pose>
1

>  <Score>
-8.326

$$$$
