/Users/jonathanwahrer/Desktop/Msc/3_Semester/Drug_Design_Praktikum/waehrer_HTS_screening/HTS_experiment/out/docking_results/vina_output/6s1j/2109_docked.pdbqt
 OpenBabel03222222363D

 21 24  0  0  1  0  0  0  0  0999 V2000
   17.3680  -56.9420   34.0670 N   0  0  0  0  0  0  0  0  0  0  0  0
   16.4330  -57.1700   33.0020 C   0  0  0  0  0  0  0  0  0  0  0  0
   15.3860  -56.5130   32.7810 O   0  0  0  0  0  0  0  0  0  0  0  0
   16.8800  -58.3160   32.1770 C   0  0  1  0  0  3  0  0  0  0  0  0
   16.9140  -58.0160   30.8190 O   0  0  0  0  0  0  0  0  0  0  0  0
   17.8580  -57.1110   30.6220 N   0  0  1  0  0  0  0  0  0  0  0  0
   18.8230  -57.1560   31.6300 C   0  0  1  0  0  3  0  0  0  0  0  0
   18.3710  -58.3320   32.4980 C   0  0  1  0  0  3  0  0  0  0  0  0
   18.3540  -57.9650   33.9340 C   0  0  0  0  0  0  0  0  0  0  0  0
   19.0430  -58.4220   34.8940 O   0  0  0  0  0  0  0  0  0  0  0  0
   20.2450  -57.2270   31.2670 C   0  0  0  0  0  2  0  0  0  0  0  0
   20.6000  -57.1800   29.8330 C   0  0  0  0  0  2  0  0  0  0  0  0
   19.6100  -56.2890   29.1150 C   0  0  0  0  0  2  0  0  0  0  0  0
   18.2570  -56.9290   29.2880 C   0  0  0  0  0  2  0  0  0  0  0  0
   17.3370  -55.9160   35.0610 C   0  0  0  0  0  0  0  0  0  0  0  0
   16.8350  -56.1080   36.3310 C   0  0  0  0  0  3  0  0  0  0  0  0
   16.8090  -55.1070   37.2870 C   0  0  0  0  0  3  0  0  0  0  0  0
   17.2990  -53.8520   36.9930 C   0  0  0  0  0  0  0  0  0  0  0  0
   17.2720  -52.5760   38.1970 Cl  0  0  0  0  0  0  0  0  0  0  0  0
   17.8030  -53.6480   35.7250 C   0  0  0  0  0  3  0  0  0  0  0  0
   17.8270  -54.6500   34.7740 C   0  0  0  0  0  3  0  0  0  0  0  0
  1 15  1  0  0  0  0
  2  1  1  0  0  0  0
  3  2  2  0  0  0  0
  4  5  1  6  0  0  0
  4  8  1  0  0  0  0
  4  2  1  0  0  0  0
  6 14  1  6  0  0  0
  6  5  1  0  0  0  0
  6  7  1  0  0  0  0
  7 11  1  6  0  0  0
  7  8  1  0  0  0  0
  8  9  1  1  0  0  0
  9  1  1  0  0  0  0
  9 10  2  0  0  0  0
 12 11  1  0  0  0  0
 13 14  1  0  0  0  0
 13 12  1  0  0  0  0
 15 16  1  0  0  0  0
 16 17  2  0  0  0  0
 18 17  1  0  0  0  0
 18 19  1  0  0  0  0
 20 18  2  0  0  0  0
 21 15  2  0  0  0  0
 21 20  1  0  0  0  0
M  END
>  <Pose>
1

>  <Score>
-7.922

$$$$
