/Users/jonathanwahrer/Desktop/Msc/3_Semester/Drug_Design_Praktikum/waehrer_HTS_screening/HTS_experiment/out/docking_results/vina_output/6s1j/2121_docked.pdbqt
 OpenBabel03222222373D

 31 34  0  0  1  0  0  0  0  0999 V2000
   10.9830  -59.2350   38.4470 C   0  0  0  0  0  0  0  0  0  0  0  0
   10.1690  -59.4390   37.4020 O   0  0  0  0  0  0  0  0  0  0  0  0
   10.4050  -59.5600   39.6560 N   0  0  0  0  0  0  0  0  0  0  0  0
    9.0280  -60.0990   39.4740 C   0  0  0  0  0  2  0  0  0  0  0  0
    9.1050  -61.6040   39.3090 C   0  0  0  0  0  2  0  0  0  0  0  0
   10.3850  -62.0600   39.8980 C   0  0  1  0  0  3  0  0  0  0  0  0
   10.4740  -61.7010   41.3460 C   0  0  2  0  0  3  0  0  0  0  0  0
   11.6340  -60.6970   41.4630 C   0  0  0  0  0  2  0  0  0  0  0  0
   11.0370  -59.3860   40.9180 C   0  0  0  0  0  2  0  0  0  0  0  0
   12.2710  -58.7250   38.0650 C   0  0  0  0  0  0  0  0  0  0  0  0
   12.9010  -57.6030   38.4210 N   0  0  0  0  0  0  0  0  0  0  0  0
   14.1070  -57.4990   37.7850 C   0  0  0  0  0  0  0  0  0  0  0  0
   12.5960  -56.8810   39.0860 H   0  0  0  0  0  0  0  0  0  0  0  0
   14.2400  -58.5930   37.0020 C   0  0  0  0  0  0  0  0  0  0  0  0
   15.0980  -56.5550   37.8080 C   0  0  0  0  0  3  0  0  0  0  0  0
   15.3650  -58.8080   36.1990 C   0  0  0  0  0  3  0  0  0  0  0  0
   13.1100  -59.3720   37.1590 C   0  0  0  0  0  3  0  0  0  0  0  0
   16.3390  -57.8630   36.2330 C   0  0  0  0  0  0  0  0  0  0  0  0
   17.7730  -58.0970   35.2310 Cl  0  0  0  0  0  0  0  0  0  0  0  0
   16.2270  -56.7370   37.0240 C   0  0  0  0  0  3  0  0  0  0  0  0
   10.7720  -63.4210   39.6990 N   0  0  0  0  0  0  0  0  0  0  0  0
   12.0510  -63.6030   39.0610 C   0  0  0  0  0  2  0  0  0  0  0  0
   12.0600  -63.0760   37.6770 C   0  0  0  0  0  2  0  0  0  0  0  0
   10.9620  -63.7440   36.9690 N   0  0  0  0  0  0  0  0  0  0  0  0
   10.2170  -64.7080   37.7350 C   0  0  0  0  0  2  0  0  0  0  0  0
   10.7040  -63.4350   35.5990 C   0  0  0  0  0  0  0  0  0  0  0  0
    9.7550  -64.2260   39.0780 C   0  0  0  0  0  2  0  0  0  0  0  0
    9.7660  -63.9930   35.0140 O   0  0  0  0  0  0  0  0  0  0  0  0
   11.5870  -62.4380   34.9140 C   0  0  0  0  0  1  0  0  0  0  0  0
   10.6660  -62.7930   42.1900 O   0  0  0  0  0  0  0  0  0  0  0  0
    9.7400  -63.0640   42.4960 H   0  0  0  0  0  0  0  0  0  0  0  0
  1  3  1  0  0  0  0
  2  1  2  0  0  0  0
  3  9  1  0  0  0  0
  4  3  1  0  0  0  0
  5  4  1  0  0  0  0
  6  5  1  1  0  0  0
  6  7  1  0  0  0  0
  7  8  1  0  0  0  0
  7 30  1  1  0  0  0
  9  8  1  0  0  0  0
 10 11  1  0  0  0  0
 10  1  1  0  0  0  0
 11 13  1  0  0  0  0
 12 15  1  0  0  0  0
 12 11  1  0  0  0  0
 14 17  1  0  0  0  0
 14 12  2  0  0  0  0
 16 18  2  0  0  0  0
 16 14  1  0  0  0  0
 17 10  2  0  0  0  0
 18 20  1  0  0  0  0
 19 18  1  0  0  0  0
 20 15  2  0  0  0  0
 21  6  1  0  0  0  0
 22 21  1  0  0  0  0
 23 22  1  0  0  0  0
 24 23  1  0  0  0  0
 24 25  1  0  0  0  0
 25 27  1  0  0  0  0
 26 24  1  0  0  0  0
 27 21  1  0  0  0  0
 28 26  2  0  0  0  0
 29 26  1  0  0  0  0
 30 31  1  0  0  0  0
M  END
>  <Pose>
1

>  <Score>
-7.192

$$$$
