/Users/jonathanwahrer/Desktop/Msc/3_Semester/Drug_Design_Praktikum/waehrer_HTS_screening/HTS_experiment/out/docking_results/vina_output/6s1j/2122_docked.pdbqt
 OpenBabel03222222373D

 29 32  0  0  0  0  0  0  0  0999 V2000
   18.9380  -55.0460   34.7690 C   0  0  0  0  0  0  0  0  0  0  0  0
   19.1110  -54.6030   33.5120 N   0  0  0  0  0  0  0  0  0  0  0  0
   18.2390  -55.1490   32.7120 O   0  0  0  0  0  0  0  0  0  0  0  0
   17.4930  -55.9530   33.4420 C   0  0  0  0  0  0  0  0  0  0  0  0
   17.9100  -55.9030   34.7100 N   0  0  0  0  0  0  0  0  0  0  0  0
   19.7320  -54.6140   35.9510 C   0  0  0  0  0  2  0  0  0  0  0  0
   19.0570  -53.5590   36.6500 N   0  0  0  0  0  0  0  0  0  0  0  0
   17.9950  -53.6010   37.4600 C   0  0  0  0  0  0  0  0  0  0  0  0
   17.1960  -54.6460   37.9000 C   0  0  0  0  0  3  0  0  0  0  0  0
   17.7020  -52.3100   37.9060 C   0  0  0  0  0  0  0  0  0  0  0  0
   16.1430  -54.3560   38.7630 C   0  0  0  0  0  0  0  0  0  0  0  0
   15.1270  -55.6750   39.3230 Cl  0  0  0  0  0  0  0  0  0  0  0  0
   15.8800  -53.0650   39.1860 C   0  0  0  0  0  3  0  0  0  0  0  0
   16.6660  -52.0420   38.7530 C   0  0  0  0  0  3  0  0  0  0  0  0
   18.6010  -51.5650   37.3400 O   0  0  0  0  0  0  0  0  0  0  0  0
   19.4180  -52.2640   36.5940 C   0  0  0  0  0  0  0  0  0  0  0  0
   20.3740  -51.7630   35.9430 O   0  0  0  0  0  0  0  0  0  0  0  0
   16.3750  -56.7490   32.8340 C   0  0  0  0  0  0  0  0  0  0  0  0
   16.5760  -56.9260   31.5830 O   0  0  0  0  0  0  0  0  0  0  0  0
   15.3490  -57.1730   33.5940 N   0  0  0  0  0  0  0  0  0  0  0  0
   14.8210  -57.8200   32.5060 H   0  0  0  0  0  0  0  0  0  0  0  0
   14.2870  -57.6170   34.3610 C   0  0  0  0  0  2  0  0  0  0  0  0
   14.6360  -57.7880   35.8440 C   0  0  0  0  0  2  0  0  0  0  0  0
   13.8820  -58.7650   36.5240 N   0  0  0  0  0  0  0  0  0  0  0  0
   12.8880  -59.3180   35.6890 C   0  0  0  0  0  2  0  0  0  0  0  0
   11.7130  -59.8460   36.4410 C   0  0  0  0  0  2  0  0  0  0  0  0
   12.1560  -60.4970   37.5640 O   0  0  0  0  0  0  0  0  0  0  0  0
   12.7440  -59.6670   38.4990 C   0  0  0  0  0  2  0  0  0  0  0  0
   13.6220  -58.6110   37.8960 C   0  0  0  0  0  2  0  0  0  0  0  0
  1  6  1  0  0  0  0
  2  1  2  0  0  0  0
  3  4  1  0  0  0  0
  3  2  1  0  0  0  0
  4  5  2  0  0  0  0
  5  1  1  0  0  0  0
  6  7  1  0  0  0  0
  7  8  1  0  0  0  0
  8  9  2  0  0  0  0
  8 10  1  0  0  0  0
  9 11  1  0  0  0  0
 10 14  2  0  0  0  0
 11 13  2  0  0  0  0
 11 12  1  0  0  0  0
 14 13  1  0  0  0  0
 15 10  1  0  0  0  0
 16  7  1  0  0  0  0
 16 15  1  0  0  0  0
 17 16  2  0  0  0  0
 18  4  1  0  0  0  0
 18 20  1  0  0  0  0
 19 18  2  0  0  0  0
 20 22  1  0  0  0  0
 21 20  1  0  0  0  0
 22 23  1  0  0  0  0
 23 24  1  0  0  0  0
 24 29  1  0  0  0  0
 25 26  1  0  0  0  0
 25 24  1  0  0  0  0
 26 27  1  0  0  0  0
 27 28  1  0  0  0  0
 29 28  1  0  0  0  0
M  END
>  <Pose>
1

>  <Score>
-9.291

$$$$
