/Users/jonathanwahrer/Desktop/Msc/3_Semester/Drug_Design_Praktikum/waehrer_HTS_screening/HTS_experiment/out/docking_results/vina_output/6s1j/2124_docked.pdbqt
 OpenBabel03222222373D

 25 29  0  0  1  0  0  0  0  0999 V2000
   17.0540  -55.8230   34.8730 N   0  0  0  0  0  0  0  0  0  0  0  0
   17.1440  -55.2260   36.1580 C   0  0  0  0  0  0  0  0  0  0  0  0
   16.9720  -55.8250   37.2520 O   0  0  0  0  0  0  0  0  0  0  0  0
   17.4740  -53.7660   36.0370 C   0  0  1  0  0  3  0  0  0  0  0  0
   18.7200  -53.4320   36.7880 C   0  0  2  0  0  0  0  0  0  0  0  0
   19.5210  -52.7290   35.8550 O   0  0  0  0  0  0  0  0  0  0  0  0
   19.4690  -53.7100   34.8330 C   0  0  2  0  0  0  0  0  0  0  0  0
   17.9640  -53.6830   34.5840 C   0  0  1  0  0  3  0  0  0  0  0  0
   17.4580  -54.8650   33.9020 C   0  0  0  0  0  0  0  0  0  0  0  0
   17.3990  -54.9930   32.6520 O   0  0  0  0  0  0  0  0  0  0  0  0
   19.8880  -54.9120   35.5920 C   0  0  0  0  0  2  0  0  0  0  0  0
   19.5270  -54.6910   36.8730 C   0  0  0  0  0  2  0  0  0  0  0  0
   20.2880  -53.3980   33.6510 C   0  0  0  0  0  1  0  0  0  0  0  0
   16.6420  -57.1420   34.5060 C   0  0  0  0  0  0  0  0  0  0  0  0
   17.5250  -58.1570   34.2250 C   0  0  0  0  0  3  0  0  0  0  0  0
   17.1140  -59.4290   33.8700 C   0  0  0  0  0  3  0  0  0  0  0  0
   15.7740  -59.7210   33.7860 C   0  0  0  0  0  0  0  0  0  0  0  0
   15.2050  -61.3300   33.3310 Cl  0  0  0  0  0  0  0  0  0  0  0  0
   14.8770  -58.7140   34.0630 C   0  0  0  0  0  3  0  0  0  0  0  0
   15.2920  -57.4330   34.4220 C   0  0  0  0  0  3  0  0  0  0  0  0
   18.5620  -52.7260   38.0650 C   0  0  0  0  0  3  0  0  0  0  0  0
   17.5240  -51.8010   37.9360 O   0  0  0  0  0  0  0  0  0  0  0  0
   16.3460  -52.4320   38.2460 C   0  0  0  0  0  2  0  0  0  0  0  0
   16.7900  -53.5190   39.1890 C   0  0  0  0  0  2  0  0  0  0  0  0
   18.1560  -53.6260   39.0500 O   0  0  0  0  0  0  0  0  0  0  0  0
  1  2  1  0  0  0  0
  2  3  2  0  0  0  0
  4  2  1  1  0  0  0
  4  5  1  0  0  0  0
  5 12  1  0  0  0  0
  5 21  1  1  0  0  0
  6  5  1  0  0  0  0
  7 13  1  6  0  0  0
  7 11  1  0  0  0  0
  7  6  1  0  0  0  0
  8  9  1  6  0  0  0
  8  7  1  0  0  0  0
  8  4  1  0  0  0  0
  9  1  1  0  0  0  0
 10  9  2  0  0  0  0
 11 12  1  0  0  0  0
 14  1  1  0  0  0  0
 15 14  2  0  0  0  0
 16 15  1  0  0  0  0
 17 16  2  0  0  0  0
 17 19  1  0  0  0  0
 18 17  1  0  0  0  0
 19 20  2  0  0  0  0
 20 14  1  0  0  0  0
 21 25  1  0  0  0  0
 22 21  1  0  0  0  0
 22 23  1  0  0  0  0
 23 24  1  0  0  0  0
 25 24  1  0  0  0  0
M  END
>  <Pose>
1

>  <Score>
-8.689

$$$$
