/Users/jonathanwahrer/Desktop/Msc/3_Semester/Drug_Design_Praktikum/waehrer_HTS_screening/HTS_experiment/out/docking_results/vina_output/6s1j/2134_docked.pdbqt
 OpenBabel03222222383D

 36 39  0  0  0  0  0  0  0  0999 V2000
   15.9250  -56.1630   37.3080 C   0  0  0  0  0  0  0  0  0  0  0  0
   16.4320  -54.9680   37.4890 N   0  0  0  0  0  0  0  0  0  0  0  0
   17.3940  -54.6570   36.5610 N   0  0  0  0  0  0  0  0  0  0  0  0
   17.4890  -55.7970   35.7050 C   0  0  0  0  0  0  0  0  0  0  0  0
   18.2230  -56.0610   34.6650 N   0  0  0  0  0  0  0  0  0  0  0  0
   18.1270  -57.2980   33.9750 N   0  0  0  0  0  0  0  0  0  0  0  0
   17.2330  -58.3070   34.3760 C   0  0  0  0  0  0  0  0  0  0  0  0
   17.1380  -59.4710   33.7470 C   0  0  0  0  0  2  0  0  0  0  0  0
   16.3980  -58.0300   35.5390 C   0  0  0  0  0  0  0  0  0  0  0  0
   15.6050  -58.9020   35.9080 O   0  0  0  0  0  0  0  0  0  0  0  0
   16.5520  -56.7620   36.1790 N   0  0  0  0  0  0  0  0  0  0  0  0
   18.7620  -57.4070   33.1530 H   0  0  0  0  0  0  0  0  0  0  0  0
   14.8930  -56.7540   38.1370 C   0  0  0  0  0  0  0  0  0  0  0  0
   13.6530  -57.1120   37.5550 N   0  0  0  0  0  0  0  0  0  0  0  0
   13.4540  -56.9960   36.5500 H   0  0  0  0  0  0  0  0  0  0  0  0
   15.0760  -56.9530   39.3810 O   0  0  0  0  0  0  0  0  0  0  0  0
   12.6670  -57.6520   38.3730 N   0  0  0  0  0  0  0  0  0  0  0  0
   12.2480  -58.9950   38.4170 C   0  0  0  0  0  0  0  0  0  0  0  0
   11.2420  -59.4760   39.2720 N   0  0  0  0  0  0  0  0  0  0  0  0
   12.8080  -59.8240   37.6480 O   0  0  0  0  0  0  0  0  0  0  0  0
   10.7510  -58.8090   39.9190 H   0  0  0  0  0  0  0  0  0  0  0  0
   12.1970  -56.9320   39.0130 H   0  0  0  0  0  0  0  0  0  0  0  0
   10.8050  -60.8290   39.3570 C   0  0  0  0  0  0  0  0  0  0  0  0
   11.3370  -61.6910   40.3130 C   0  0  0  0  0  3  0  0  0  0  0  0
   10.9340  -63.0040   40.4180 C   0  0  0  0  0  3  0  0  0  0  0  0
    9.9770  -63.4340   39.5360 C   0  0  0  0  0  0  0  0  0  0  0  0
    9.3870  -65.1000   39.5920 Cl  0  0  0  0  0  0  0  0  0  0  0  0
    9.4260  -62.6220   38.5820 C   0  0  0  0  0  3  0  0  0  0  0  0
    9.8390  -61.3120   38.4870 C   0  0  0  0  0  3  0  0  0  0  0  0
   18.1660  -53.4610   36.5120 C   0  0  0  0  0  0  0  0  0  0  0  0
   19.2100  -53.3180   35.6310 C   0  0  0  0  0  3  0  0  0  0  0  0
   19.9670  -52.1600   35.5140 C   0  0  0  0  0  3  0  0  0  0  0  0
   19.6840  -51.0700   36.3110 C   0  0  0  0  0  0  0  0  0  0  0  0
   18.6420  -51.1910   37.2060 C   0  0  0  0  0  3  0  0  0  0  0  0
   20.4490  -49.7910   36.1910 C   0  0  0  0  0  1  0  0  0  0  0  0
   17.8990  -52.3670   37.3030 C   0  0  0  0  0  3  0  0  0  0  0  0
  1  2  2  0  0  0  0
  1 13  1  0  0  0  0
  3  2  1  0  0  0  0
  4 11  1  0  0  0  0
  4  3  1  0  0  0  0
  5  4  2  0  0  0  0
  6  7  1  0  0  0  0
  6  5  1  0  0  0  0
  7  9  1  0  0  0  0
  8  7  2  0  0  0  0
  9 10  2  0  0  0  0
  9 11  1  0  0  0  0
 11  1  1  0  0  0  0
 12  6  1  0  0  0  0
 13 16  2  0  0  0  0
 14 13  1  0  0  0  0
 14 17  1  0  0  0  0
 15 14  1  0  0  0  0
 17 18  1  0  0  0  0
 17 22  1  0  0  0  0
 18 19  1  0  0  0  0
 19 23  1  0  0  0  0
 19 21  1  0  0  0  0
 20 18  2  0  0  0  0
 23 24  1  0  0  0  0
 24 25  2  0  0  0  0
 26 27  1  0  0  0  0
 26 25  1  0  0  0  0
 28 26  2  0  0  0  0
 29 28  1  0  0  0  0
 29 23  2  0  0  0  0
 30  3  1  0  0  0  0
 30 36  1  0  0  0  0
 31 30  2  0  0  0  0
 32 31  1  0  0  0  0
 32 33  2  0  0  0  0
 33 34  1  0  0  0  0
 34 36  2  0  0  0  0
 35 33  1  0  0  0  0
M  END
>  <Pose>
1

>  <Score>
-10.395

$$$$
