/Users/jonathanwahrer/Desktop/Msc/3_Semester/Drug_Design_Praktikum/waehrer_HTS_screening/HTS_experiment/out/docking_results/vina_output/6s1j/2139_docked.pdbqt
 OpenBabel03222222383D

 27 30  0  0  0  0  0  0  0  0999 V2000
   17.7250  -56.0450   34.5780 N   0  0  0  0  0  0  0  0  0  0  0  0
   18.2010  -57.3620   34.4280 C   0  0  0  0  0  2  0  0  0  0  0  0
   17.1830  -58.4620   34.5640 C   0  0  0  0  0  2  0  0  0  0  0  0
   15.8650  -57.8360   34.2810 N   0  0  0  0  0  0  0  0  0  0  0  0
   15.8980  -56.8850   33.2360 C   0  0  0  0  0  2  0  0  0  0  0  0
   16.6110  -55.6570   33.7590 C   0  0  0  0  0  2  0  0  0  0  0  0
   14.7740  -58.2880   35.0530 C   0  0  0  0  0  0  0  0  0  0  0  0
   13.8040  -59.0440   34.4580 N   0  0  0  0  0  0  0  0  0  0  0  0
   12.7130  -59.5000   35.0600 C   0  0  0  0  0  0  0  0  0  0  0  0
   12.5290  -59.2060   36.3590 N   0  0  0  0  0  0  0  0  0  0  0  0
   13.4560  -58.4620   37.0020 C   0  0  0  0  0  0  0  0  0  0  0  0
   13.5450  -58.0310   38.2740 N   0  0  0  0  0  0  0  0  0  0  0  0
   14.6060  -57.9800   36.3730 C   0  0  0  0  0  0  0  0  0  0  0  0
   14.6710  -57.3330   38.4230 C   0  0  0  0  0  3  0  0  0  0  0  0
   15.3420  -57.2900   37.2590 N   0  0  0  0  0  0  0  0  0  0  0  0
   16.2580  -56.8090   37.1290 H   0  0  0  0  0  0  0  0  0  0  0  0
   11.7260  -60.2950   34.3690 N   0  0  0  0  0  0  0  0  0  0  0  0
   10.9470  -60.7500   34.8640 H   0  0  0  0  0  0  0  0  0  0  0  0
   11.7950  -60.4190   33.3400 H   0  0  0  0  0  0  0  0  0  0  0  0
   17.7890  -55.4580   35.8610 C   0  0  0  0  0  2  0  0  0  0  0  0
   18.4280  -54.1460   35.9460 C   0  0  0  0  0  0  0  0  0  0  0  0
   18.0560  -53.2460   36.9120 C   0  0  0  0  0  3  0  0  0  0  0  0
   18.6220  -51.9830   37.0460 C   0  0  0  0  0  3  0  0  0  0  0  0
   19.6100  -51.6390   36.1480 C   0  0  0  0  0  0  0  0  0  0  0  0
   20.3700  -50.0640   36.2530 Cl  0  0  0  0  0  0  0  0  0  0  0  0
   19.9830  -52.5400   35.1760 C   0  0  0  0  0  3  0  0  0  0  0  0
   19.4110  -53.7830   35.0610 C   0  0  0  0  0  3  0  0  0  0  0  0
  1 20  1  0  0  0  0
  2  3  1  0  0  0  0
  2  1  1  0  0  0  0
  4  3  1  0  0  0  0
  4  7  1  0  0  0  0
  5  6  1  0  0  0  0
  5  4  1  0  0  0  0
  6  1  1  0  0  0  0
  7 13  2  0  0  0  0
  8  7  1  0  0  0  0
  8  9  2  0  0  0  0
  9 10  1  0  0  0  0
 10 11  2  0  0  0  0
 11 12  1  0  0  0  0
 12 14  2  0  0  0  0
 13 11  1  0  0  0  0
 13 15  1  0  0  0  0
 15 14  1  0  0  0  0
 16 15  1  0  0  0  0
 17 18  1  0  0  0  0
 17  9  1  0  0  0  0
 19 17  1  0  0  0  0
 20 21  1  0  0  0  0
 21 22  1  0  0  0  0
 22 23  2  0  0  0  0
 24 25  1  0  0  0  0
 24 23  1  0  0  0  0
 26 24  2  0  0  0  0
 27 26  1  0  0  0  0
 27 21  2  0  0  0  0
M  END
>  <Pose>
1

>  <Score>
-8.397

$$$$
