/Users/jonathanwahrer/Desktop/Msc/3_Semester/Drug_Design_Praktikum/waehrer_HTS_screening/HTS_experiment/out/docking_results/vina_output/6s1j/2149_docked.pdbqt
 OpenBabel03222222383D

 24 27  0  0  0  0  0  0  0  0999 V2000
   16.6060  -55.4960   37.8400 N   0  0  0  0  0  0  0  0  0  0  0  0
   16.9810  -55.6790   36.5880 N   0  0  0  0  0  0  0  0  0  0  0  0
   16.1770  -56.5240   35.9680 N   0  0  0  0  0  0  0  0  0  0  0  0
   15.2370  -56.9200   36.8250 C   0  0  0  0  0  0  0  0  0  0  0  0
   15.5060  -56.2710   38.0100 C   0  0  0  0  0  0  0  0  0  0  0  0
   14.6910  -56.5030   39.0500 N   0  0  0  0  0  0  0  0  0  0  0  0
   13.6460  -57.3410   38.9360 C   0  0  0  0  0  3  0  0  0  0  0  0
   13.4040  -57.9630   37.7690 N   0  0  0  0  0  0  0  0  0  0  0  0
   14.1700  -57.7950   36.6590 C   0  0  0  0  0  0  0  0  0  0  0  0
   17.2170  -54.6490   38.8630 C   0  0  0  0  0  2  0  0  0  0  0  0
   17.9660  -53.5710   38.1660 C   0  0  0  0  0  0  0  0  0  0  0  0
   17.3960  -52.3280   38.1200 C   0  0  0  0  0  3  0  0  0  0  0  0
   18.0260  -51.2670   37.4910 C   0  0  0  0  0  3  0  0  0  0  0  0
   19.2490  -51.4670   36.9020 C   0  0  0  0  0  0  0  0  0  0  0  0
   20.0670  -50.1320   36.0970 Cl  0  0  0  0  0  0  0  0  0  0  0  0
   19.8150  -52.7240   36.9540 C   0  0  0  0  0  3  0  0  0  0  0  0
   19.1910  -53.7750   37.5770 C   0  0  0  0  0  3  0  0  0  0  0  0
   13.9200  -58.4430   35.4360 N   0  0  0  0  0  0  0  0  0  0  0  0
   13.7140  -57.8190   34.1570 C   0  0  0  0  0  2  0  0  0  0  0  0
   14.7570  -58.3110   33.2240 C   0  0  0  0  0  2  0  0  0  0  0  0
   15.4530  -59.4790   33.5630 N   0  0  0  0  0  0  0  0  0  0  0  0
   14.9260  -60.3750   34.5020 C   0  0  0  0  0  2  0  0  0  0  0  0
   16.8140  -59.1360   33.9340 C   0  0  0  0  0  1  0  0  0  0  0  0
   13.8510  -59.8830   35.3960 C   0  0  0  0  0  2  0  0  0  0  0  0
  1  5  1  0  0  0  0
  1 10  1  0  0  0  0
  2  1  1  0  0  0  0
  3  2  2  0  0  0  0
  3  4  1  0  0  0  0
  4  5  1  0  0  0  0
  5  6  2  0  0  0  0
  7  6  1  0  0  0  0
  8  7  2  0  0  0  0
  9  4  2  0  0  0  0
  9  8  1  0  0  0  0
 11 10  1  0  0  0  0
 12 11  1  0  0  0  0
 13 12  2  0  0  0  0
 14 16  2  0  0  0  0
 14 13  1  0  0  0  0
 15 14  1  0  0  0  0
 16 17  1  0  0  0  0
 17 11  2  0  0  0  0
 18  9  1  0  0  0  0
 19 18  1  0  0  0  0
 20 21  1  0  0  0  0
 20 19  1  0  0  0  0
 21 23  1  0  0  0  0
 21 22  1  0  0  0  0
 22 24  1  0  0  0  0
 24 18  1  0  0  0  0
M  END
>  <Pose>
1

>  <Score>
-9.009

$$$$
