/Users/jonathanwahrer/Desktop/Msc/3_Semester/Drug_Design_Praktikum/waehrer_HTS_screening/HTS_experiment/out/docking_results/vina_output/6s1j/2170_docked.pdbqt
 OpenBabel03222222393D

 32 36  0  0  0  0  0  0  0  0999 V2000
   18.0890  -56.1930   33.7120 N   0  0  0  0  0  0  0  0  0  0  0  0
   18.1300  -55.2380   34.6160 N   0  0  0  0  0  0  0  0  0  0  0  0
   18.9130  -54.2200   34.2310 C   0  0  0  0  0  0  0  0  0  0  0  0
   18.9420  -53.2590   35.1660 N   0  0  0  0  0  0  0  0  0  0  0  0
   18.1650  -53.6350   36.2050 C   0  0  0  0  0  0  0  0  0  0  0  0
   17.6580  -54.8880   35.8430 C   0  0  0  0  0  0  0  0  0  0  0  0
   16.8300  -55.4760   36.7750 C   0  0  0  0  0  0  0  0  0  0  0  0
   16.3500  -56.6140   36.4930 O   0  0  0  0  0  0  0  0  0  0  0  0
   16.5090  -54.9040   37.9660 N   0  0  0  0  0  0  0  0  0  0  0  0
   17.0350  -53.6990   38.2370 C   0  0  0  0  0  0  0  0  0  0  0  0
   16.7210  -53.1800   39.3590 O   0  0  0  0  0  0  0  0  0  0  0  0
   17.8490  -53.0670   37.3810 N   0  0  0  0  0  0  0  0  0  0  0  0
   18.3810  -51.7780   37.7340 C   0  0  0  0  0  1  0  0  0  0  0  0
   15.6310  -55.5870   38.8890 C   0  0  0  0  0  1  0  0  0  0  0  0
   19.3830  -54.5790   33.0090 N   0  0  0  0  0  0  0  0  0  0  0  0
   18.8900  -55.7810   32.6820 C   0  0  0  0  0  0  0  0  0  0  0  0
   17.3840  -57.4540   33.7160 C   0  0  0  0  0  2  0  0  0  0  0  0
   15.9940  -57.3560   33.2350 C   0  0  0  0  0  0  0  0  0  0  0  0
   15.6200  -56.4800   32.4240 O   0  0  0  0  0  0  0  0  0  0  0  0
   15.0280  -58.3260   33.7340 C   0  0  0  0  0  0  0  0  0  0  0  0
   15.3090  -59.6730   33.8180 C   0  0  0  0  0  3  0  0  0  0  0  0
   14.3900  -60.5870   34.2930 C   0  0  0  0  0  3  0  0  0  0  0  0
   13.1310  -60.1740   34.7070 C   0  0  0  0  0  0  0  0  0  0  0  0
   11.9450  -61.3160   35.3150 Cl  0  0  0  0  0  0  0  0  0  0  0  0
   12.8300  -58.8300   34.6300 C   0  0  0  0  0  3  0  0  0  0  0  0
   13.7540  -57.9240   34.1550 C   0  0  0  0  0  3  0  0  0  0  0  0
   19.1190  -56.5370   31.4960 N   0  0  0  0  0  0  0  0  0  0  0  0
   20.0110  -57.6840   31.4810 C   0  0  0  0  0  2  0  0  0  0  0  0
   20.7700  -57.6560   30.1770 C   0  0  0  0  0  2  0  0  0  0  0  0
   19.8720  -57.6270   29.0980 O   0  0  0  0  0  0  0  0  0  0  0  0
   19.2000  -56.4270   29.0250 C   0  0  0  0  0  2  0  0  0  0  0  0
   18.4470  -56.1620   30.2800 C   0  0  0  0  0  2  0  0  0  0  0  0
  1 17  1  0  0  0  0
  1  2  1  0  0  0  0
  2  6  1  0  0  0  0
  3  2  1  0  0  0  0
  3  4  2  0  0  0  0
  4  5  1  0  0  0  0
  5 12  1  0  0  0  0
  6  5  2  0  0  0  0
  6  7  1  0  0  0  0
  7  9  1  0  0  0  0
  8  7  2  0  0  0  0
  9 10  1  0  0  0  0
  9 14  1  0  0  0  0
 10 11  2  0  0  0  0
 12 13  1  0  0  0  0
 12 10  1  0  0  0  0
 15  3  1  0  0  0  0
 16 15  2  0  0  0  0
 16  1  1  0  0  0  0
 18 17  1  0  0  0  0
 18 20  1  0  0  0  0
 19 18  2  0  0  0  0
 20 21  2  0  0  0  0
 20 26  1  0  0  0  0
 21 22  1  0  0  0  0
 22 23  2  0  0  0  0
 23 24  1  0  0  0  0
 25 23  1  0  0  0  0
 26 25  2  0  0  0  0
 27 16  1  0  0  0  0
 28 27  1  0  0  0  0
 29 28  1  0  0  0  0
 30 29  1  0  0  0  0
 31 30  1  0  0  0  0
 31 32  1  0  0  0  0
 32 27  1  0  0  0  0
M  END
>  <Pose>
1

>  <Score>
-9.292

$$$$
