/Users/jonathanwahrer/Desktop/Msc/3_Semester/Drug_Design_Praktikum/waehrer_HTS_screening/HTS_experiment/out/docking_results/vina_output/6s1j/2177_docked.pdbqt
 OpenBabel03222222393D

 31 35  0  0  0  0  0  0  0  0999 V2000
   15.2110  -57.5620   36.7450 N   0  0  0  0  0  0  0  0  0  0  0  0
   14.0000  -57.6910   35.9700 C   0  0  0  0  0  2  0  0  0  0  0  0
   14.3780  -57.7590   34.5140 C   0  0  0  0  0  2  0  0  0  0  0  0
   15.4970  -58.6430   34.2530 N   0  0  0  0  0  0  0  0  0  0  0  0
   16.6880  -58.5200   35.0680 C   0  0  0  0  0  2  0  0  0  0  0  0
   16.2750  -58.5140   36.5170 C   0  0  0  0  0  2  0  0  0  0  0  0
   15.2840  -56.5070   37.6940 C   0  0  0  0  0  3  0  0  0  0  0  0
   16.0780  -55.4650   37.6040 C   0  0  0  0  0  0  0  0  0  0  0  0
   16.9750  -55.2720   36.5150 N   0  0  0  0  0  0  0  0  0  0  0  0
   16.0580  -54.4750   38.6220 N   0  0  0  0  0  0  0  0  0  0  0  0
   17.8450  -54.1580   36.3850 C   0  0  0  0  0  0  0  0  0  0  0  0
   16.9770  -56.0070   35.7760 H   0  0  0  0  0  0  0  0  0  0  0  0
   17.8330  -53.1920   37.3710 C   0  0  0  0  0  0  0  0  0  0  0  0
   18.7150  -53.9680   35.3330 C   0  0  0  0  0  3  0  0  0  0  0  0
   18.6530  -52.0920   37.2990 C   0  0  0  0  0  3  0  0  0  0  0  0
   16.9130  -53.3630   38.5130 C   0  0  0  0  0  0  0  0  0  0  0  0
   19.5160  -51.9190   36.2400 C   0  0  0  0  0  0  0  0  0  0  0  0
   20.5540  -50.4900   36.1860 Cl  0  0  0  0  0  0  0  0  0  0  0  0
   19.5430  -52.8720   35.2470 C   0  0  0  0  0  3  0  0  0  0  0  0
   16.9490  -52.4370   39.3870 O   0  0  0  0  0  0  0  0  0  0  0  0
   15.4270  -54.5460   39.4520 H   0  0  0  0  0  0  0  0  0  0  0  0
   15.4110  -59.6120   33.2060 C   0  0  0  0  0  0  0  0  0  0  0  0
   16.2160  -59.4820   32.1330 N   0  0  0  0  0  0  0  0  0  0  0  0
   16.1680  -60.3830   31.1120 C   0  0  0  0  0  3  0  0  0  0  0  0
   15.3090  -61.4260   31.1520 N   0  0  0  0  0  0  0  0  0  0  0  0
   14.4860  -61.6080   32.1900 C   0  0  0  0  0  0  0  0  0  0  0  0
   13.5550  -62.5350   32.4810 N   0  0  0  0  0  0  0  0  0  0  0  0
   14.5490  -60.6760   33.2270 C   0  0  0  0  0  0  0  0  0  0  0  0
   13.0380  -62.2200   33.6550 N   0  0  0  0  0  0  0  0  0  0  0  0
   13.1650  -63.6920   31.6690 C   0  0  0  0  0  1  0  0  0  0  0  0
   13.6250  -61.0880   34.1360 C   0  0  0  0  0  3  0  0  0  0  0  0
  1  7  1  0  0  0  0
  2  1  1  0  0  0  0
  3  2  1  0  0  0  0
  4  3  1  0  0  0  0
  4  5  1  0  0  0  0
  5  6  1  0  0  0  0
  6  1  1  0  0  0  0
  8  7  2  0  0  0  0
  8 10  1  0  0  0  0
  9  8  1  0  0  0  0
 10 21  1  0  0  0  0
 11  9  1  0  0  0  0
 11 13  1  0  0  0  0
 12  9  1  0  0  0  0
 13 16  1  0  0  0  0
 14 11  2  0  0  0  0
 15 13  2  0  0  0  0
 16 10  1  0  0  0  0
 16 20  2  0  0  0  0
 17 15  1  0  0  0  0
 18 17  1  0  0  0  0
 19 14  1  0  0  0  0
 19 17  2  0  0  0  0
 22 28  1  0  0  0  0
 22  4  1  0  0  0  0
 23 22  2  0  0  0  0
 24 25  2  0  0  0  0
 24 23  1  0  0  0  0
 25 26  1  0  0  0  0
 26 27  1  0  0  0  0
 26 28  2  0  0  0  0
 27 29  1  0  0  0  0
 28 31  1  0  0  0  0
 29 31  2  0  0  0  0
 30 27  1  0  0  0  0
M  END
>  <Pose>
1

>  <Score>
-9.707

$$$$
