/Users/jonathanwahrer/Desktop/Msc/3_Semester/Drug_Design_Praktikum/waehrer_HTS_screening/HTS_experiment/out/docking_results/vina_output/6s1j/2197_docked.pdbqt
 OpenBabel03222222403D

 28 31  0  0  1  0  0  0  0  0999 V2000
   18.1520  -57.7040   33.5240 N   0  0  0  0  0  0  0  0  0  0  0  0
   18.7700  -56.5230   34.1600 C   0  0  0  0  0  2  0  0  0  0  0  0
   18.4580  -55.3500   33.3070 C   0  0  2  0  0  3  0  0  0  0  0  0
   18.6490  -55.4430   31.9780 O   0  0  0  0  0  0  0  0  0  0  0  0
   18.7840  -56.6440   31.3960 C   0  0  0  0  0  2  0  0  0  0  0  0
   18.8290  -57.8380   32.2860 C   0  0  0  0  0  2  0  0  0  0  0  0
   19.2540  -54.2020   33.8330 C   0  0  0  0  0  0  0  0  0  0  0  0
   19.9050  -53.5220   32.9950 O   0  0  0  0  0  0  0  0  0  0  0  0
   19.3290  -53.8300   35.1880 N   0  0  0  0  0  0  0  0  0  0  0  0
   18.6380  -54.5160   36.2630 C   0  0  0  0  0  2  0  0  0  0  0  0
   20.1370  -52.6820   35.6280 C   0  0  0  0  0  2  0  0  0  0  0  0
   19.0820  -53.8760   37.5630 C   0  0  0  0  0  2  0  0  0  0  0  0
   18.7450  -52.4670   37.6370 N   0  0  0  0  0  0  0  0  0  0  0  0
   19.1660  -51.8130   36.4390 C   0  0  0  0  0  2  0  0  0  0  0  0
   17.3540  -52.3540   37.9370 C   0  0  0  0  0  2  0  0  0  0  0  0
   16.8950  -53.2570   39.0480 C   0  0  0  0  0  3  0  0  0  0  0  0
   15.7650  -54.1970   38.6290 C   0  0  0  0  0  2  0  0  0  0  0  0
   15.5740  -53.1370   39.6690 C   0  0  0  0  0  2  0  0  0  0  0  0
   16.4720  -57.6080   33.5420 S   0  0  0  0  0  0  0  0  0  0  0  0
   16.0930  -56.1540   33.2290 O   0  0  0  0  0  0  0  0  0  0  0  0
   15.8110  -58.4020   32.4410 O   0  0  0  0  0  0  0  0  0  0  0  0
   15.7650  -57.9500   35.0880 C   0  0  0  0  0  0  0  0  0  0  0  0
   14.4060  -57.8770   35.3000 C   0  0  0  0  0  0  0  0  0  0  0  0
   13.8400  -58.0910   36.5420 C   0  0  0  0  0  3  0  0  0  0  0  0
   13.2950  -57.5840   33.9480 Cl  0  0  0  0  0  0  0  0  0  0  0  0
   14.6470  -58.3910   37.6110 C   0  0  0  0  0  3  0  0  0  0  0  0
   16.0180  -58.4710   37.4170 C   0  0  0  0  0  3  0  0  0  0  0  0
   16.5720  -58.2570   36.1860 C   0  0  0  0  0  3  0  0  0  0  0  0
  1 19  1  0  0  0  0
  1  2  1  0  0  0  0
  3  7  1  1  0  0  0
  3  2  1  0  0  0  0
  4  3  1  0  0  0  0
  5  4  1  0  0  0  0
  5  6  1  0  0  0  0
  6  1  1  0  0  0  0
  7  9  1  0  0  0  0
  8  7  2  0  0  0  0
  9 11  1  0  0  0  0
  9 10  1  0  0  0  0
 10 12  1  0  0  0  0
 11 14  1  0  0  0  0
 12 13  1  0  0  0  0
 13 15  1  0  0  0  0
 14 13  1  0  0  0  0
 15 16  1  0  0  0  0
 16 18  1  0  0  0  0
 17 16  1  0  0  0  0
 17 18  1  0  0  0  0
 19 22  1  0  0  0  0
 20 19  2  0  0  0  0
 21 19  2  0  0  0  0
 22 23  2  0  0  0  0
 22 28  1  0  0  0  0
 23 24  1  0  0  0  0
 24 26  2  0  0  0  0
 25 23  1  0  0  0  0
 27 26  1  0  0  0  0
 28 27  2  0  0  0  0
M  END
>  <Pose>
1

>  <Score>
-9.005

$$$$
