/Users/jonathanwahrer/Desktop/Msc/3_Semester/Drug_Design_Praktikum/waehrer_HTS_screening/HTS_experiment/out/docking_results/vina_output/6s1j/2225_docked.pdbqt
 OpenBabel03222222413D

 29 32  0  0  0  0  0  0  0  0999 V2000
   15.7750  -54.4700   38.8640 C   0  0  0  0  0  0  0  0  0  0  0  0
   14.7320  -53.9170   38.3090 O   0  0  0  0  0  0  0  0  0  0  0  0
   16.9060  -53.6730   38.9490 N   0  0  0  0  0  0  0  0  0  0  0  0
   16.8220  -52.2890   38.3910 C   0  0  0  0  0  2  0  0  0  0  0  0
   18.1320  -52.0510   37.6830 C   0  0  0  0  0  2  0  0  0  0  0  0
   18.8240  -53.2780   37.3350 N   0  0  0  0  0  0  0  0  0  0  0  0
   19.2260  -54.1360   38.4170 C   0  0  0  0  0  2  0  0  0  0  0  0
   18.1940  -53.9710   39.5200 C   0  0  0  0  0  2  0  0  0  0  0  0
   19.0740  -53.5920   35.9820 C   0  0  0  0  0  0  0  0  0  0  0  0
   18.4740  -54.6570   35.3810 N   0  0  0  0  0  0  0  0  0  0  0  0
   18.6740  -54.9900   34.1130 C   0  0  0  0  0  0  0  0  0  0  0  0
   19.5270  -54.2160   33.3930 N   0  0  0  0  0  0  0  0  0  0  0  0
   20.1460  -53.1680   33.9050 C   0  0  0  0  0  3  0  0  0  0  0  0
   19.9310  -52.8250   35.2360 C   0  0  0  0  0  3  0  0  0  0  0  0
   18.0590  -56.0940   33.4740 N   0  0  0  0  0  0  0  0  0  0  0  0
   16.8510  -55.8940   32.6810 C   0  0  0  0  0  2  0  0  0  0  0  0
   15.8360  -56.8980   33.2370 C   0  0  0  0  0  2  0  0  0  0  0  0
   16.3100  -58.1740   33.0920 O   0  0  0  0  0  0  0  0  0  0  0  0
   17.4580  -58.4500   33.7960 C   0  0  0  0  0  2  0  0  0  0  0  0
   18.5610  -57.4430   33.5610 C   0  0  0  0  0  2  0  0  0  0  0  0
   15.5500  -55.8600   39.3040 C   0  0  0  0  0  2  0  0  0  0  0  0
   14.8460  -56.7210   38.6610 O   0  0  0  0  0  0  0  0  0  0  0  0
   14.1390  -57.5650   37.9820 C   0  0  0  0  0  0  0  0  0  0  0  0
   13.1680  -58.4250   38.5380 C   0  0  0  0  0  3  0  0  0  0  0  0
   12.4540  -59.2920   37.7670 C   0  0  0  0  0  3  0  0  0  0  0  0
   12.6340  -59.3860   36.4060 C   0  0  0  0  0  0  0  0  0  0  0  0
   11.7110  -60.5040   35.4330 Cl  0  0  0  0  0  0  0  0  0  0  0  0
   13.5770  -58.5560   35.8450 C   0  0  0  0  0  3  0  0  0  0  0  0
   14.3090  -57.6760   36.5850 C   0  0  0  0  0  3  0  0  0  0  0  0
  1  3  1  0  0  0  0
  1 21  1  0  0  0  0
  2  1  2  0  0  0  0
  3  8  1  0  0  0  0
  4  3  1  0  0  0  0
  5  4  1  0  0  0  0
  6  5  1  0  0  0  0
  6  7  1  0  0  0  0
  7  8  1  0  0  0  0
  9  6  1  0  0  0  0
 10  9  1  0  0  0  0
 11 10  2  0  0  0  0
 12 13  2  0  0  0  0
 12 11  1  0  0  0  0
 13 14  1  0  0  0  0
 14  9  2  0  0  0  0
 15 20  1  0  0  0  0
 15 11  1  0  0  0  0
 16 17  1  0  0  0  0
 16 15  1  0  0  0  0
 18 17  1  0  0  0  0
 18 19  1  0  0  0  0
 20 19  1  0  0  0  0
 22 21  1  0  0  0  0
 23 24  1  0  0  0  0
 23 22  1  0  0  0  0
 25 24  2  0  0  0  0
 26 25  1  0  0  0  0
 27 26  1  0  0  0  0
 28 26  2  0  0  0  0
 28 29  1  0  0  0  0
 29 23  2  0  0  0  0
M  END
>  <Pose>
1

>  <Score>
-8.585

$$$$
