/Users/jonathanwahrer/Desktop/Msc/3_Semester/Drug_Design_Praktikum/waehrer_HTS_screening/HTS_experiment/out/docking_results/vina_output/6s1j/2231_docked.pdbqt
 OpenBabel03222222413D

 27 31  0  0  0  0  0  0  0  0999 V2000
   15.9040  -55.0950   37.7710 N   0  0  0  0  0  0  0  0  0  0  0  0
   14.8520  -54.8740   38.5390 N   0  0  0  0  0  0  0  0  0  0  0  0
   14.0680  -55.9320   38.6090 N   0  0  0  0  0  0  0  0  0  0  0  0
   14.5930  -56.9210   37.8660 C   0  0  0  0  0  0  0  0  0  0  0  0
   15.7490  -56.3740   37.3460 C   0  0  0  0  0  0  0  0  0  0  0  0
   16.5050  -57.1530   36.5400 N   0  0  0  0  0  0  0  0  0  0  0  0
   16.1090  -58.4130   36.2790 C   0  0  0  0  0  3  0  0  0  0  0  0
   14.9720  -58.9440   36.7920 N   0  0  0  0  0  0  0  0  0  0  0  0
   14.1830  -58.2120   37.6000 C   0  0  0  0  0  0  0  0  0  0  0  0
   12.9830  -58.7540   38.1500 N   0  0  0  0  0  0  0  0  0  0  0  0
   11.9830  -59.2080   37.2020 C   0  0  0  0  0  2  0  0  0  0  0  0
   11.0740  -60.2610   37.8310 C   0  0  0  0  0  2  0  0  0  0  0  0
   10.8280  -59.9830   39.2000 N   0  0  0  0  0  0  0  0  0  0  0  0
   12.0680  -60.0180   40.0340 C   0  0  0  0  0  2  0  0  0  0  0  0
    9.6040  -59.6930   39.7780 C   0  0  0  0  0  0  0  0  0  0  0  0
   12.8600  -58.8090   39.5730 C   0  0  0  0  0  2  0  0  0  0  0  0
    9.6600  -59.4750   41.0810 O   0  0  0  0  0  0  0  0  0  0  0  0
    8.2570  -59.5750   39.2400 C   0  0  0  0  0  3  0  0  0  0  0  0
    7.2610  -60.6190   39.5790 C   0  0  0  0  0  2  0  0  0  0  0  0
    7.0470  -59.1690   39.9480 C   0  0  0  0  0  2  0  0  0  0  0  0
   16.9560  -54.1920   37.4650 C   0  0  0  0  0  0  0  0  0  0  0  0
   18.0600  -54.5150   36.7100 C   0  0  0  0  0  3  0  0  0  0  0  0
   19.0520  -53.5970   36.4460 C   0  0  0  0  0  3  0  0  0  0  0  0
   18.9550  -52.3190   36.9380 C   0  0  0  0  0  0  0  0  0  0  0  0
   20.2080  -51.1660   36.6010 Cl  0  0  0  0  0  0  0  0  0  0  0  0
   17.8720  -51.9680   37.6900 C   0  0  0  0  0  3  0  0  0  0  0  0
   16.8870  -52.9040   37.9450 C   0  0  0  0  0  3  0  0  0  0  0  0
  1  2  1  0  0  0  0
  2  3  2  0  0  0  0
  4  3  1  0  0  0  0
  5  1  1  0  0  0  0
  5  4  2  0  0  0  0
  6  5  1  0  0  0  0
  7  6  2  0  0  0  0
  7  8  1  0  0  0  0
  8  9  2  0  0  0  0
  9  4  1  0  0  0  0
  9 10  1  0  0  0  0
 10 16  1  0  0  0  0
 11 12  1  0  0  0  0
 11 10  1  0  0  0  0
 12 13  1  0  0  0  0
 13 15  1  0  0  0  0
 13 14  1  0  0  0  0
 15 17  2  0  0  0  0
 16 14  1  0  0  0  0
 18 19  1  0  0  0  0
 18 15  1  0  0  0  0
 18 20  1  0  0  0  0
 19 20  1  0  0  0  0
 21  1  1  0  0  0  0
 21 27  1  0  0  0  0
 22 21  2  0  0  0  0
 23 22  1  0  0  0  0
 23 24  2  0  0  0  0
 24 26  1  0  0  0  0
 25 24  1  0  0  0  0
 26 27  2  0  0  0  0
M  END
>  <Pose>
1

>  <Score>
-8.860

$$$$
