/Users/jonathanwahrer/Desktop/Msc/3_Semester/Drug_Design_Praktikum/waehrer_HTS_screening/HTS_experiment/out/docking_results/vina_output/6s1j/2242_docked.pdbqt
 OpenBabel03222222413D

 32 35  0  0  0  0  0  0  0  0999 V2000
   14.6010  -57.8440   35.5770 N   0  0  0  0  0  0  0  0  0  0  0  0
   15.5080  -57.8050   36.6390 C   0  0  0  0  0  0  0  0  0  0  0  0
   16.2410  -58.7580   36.9390 O   0  0  0  0  0  0  0  0  0  0  0  0
   14.0090  -56.9730   35.3970 H   0  0  0  0  0  0  0  0  0  0  0  0
   15.6350  -56.5810   37.4780 C   0  0  0  0  0  0  0  0  0  0  0  0
   16.4810  -55.6660   37.1180 N   0  0  0  0  0  0  0  0  0  0  0  0
   16.6620  -54.4920   37.8460 N   0  0  0  0  0  0  0  0  0  0  0  0
   15.9000  -54.2890   39.0150 C   0  0  0  0  0  0  0  0  0  0  0  0
   16.0370  -53.1610   39.6000 O   0  0  0  0  0  0  0  0  0  0  0  0
   14.9840  -55.3120   39.5570 C   0  0  0  0  0  2  0  0  0  0  0  0
   14.8590  -56.3990   38.6500 N   0  0  0  0  0  0  0  0  0  0  0  0
   14.1370  -57.1390   38.8500 H   0  0  0  0  0  0  0  0  0  0  0  0
   17.6200  -53.4950   37.4160 C   0  0  0  0  0  0  0  0  0  0  0  0
   18.7320  -53.8340   36.6840 C   0  0  0  0  0  3  0  0  0  0  0  0
   19.6400  -52.8510   36.2760 C   0  0  0  0  0  3  0  0  0  0  0  0
   19.4410  -51.5250   36.6010 C   0  0  0  0  0  0  0  0  0  0  0  0
   18.3230  -51.2010   37.3350 C   0  0  0  0  0  3  0  0  0  0  0  0
   20.3780  -50.4380   36.1870 C   0  0  0  0  0  1  0  0  0  0  0  0
   17.4420  -52.1640   37.7280 C   0  0  0  0  0  3  0  0  0  0  0  0
   14.4060  -58.9400   34.7270 C   0  0  0  0  0  0  0  0  0  0  0  0
   13.4450  -59.8860   35.0930 C   0  0  0  0  0  0  0  0  0  0  0  0
   12.5480  -59.6760   36.5810 Cl  0  0  0  0  0  0  0  0  0  0  0  0
   13.1800  -60.9820   34.3220 C   0  0  0  0  0  3  0  0  0  0  0  0
   13.8400  -61.2130   33.1480 C   0  0  0  0  0  0  0  0  0  0  0  0
   14.7890  -60.3080   32.7530 C   0  0  0  0  0  0  0  0  0  0  0  0
   13.5740  -62.3490   32.3160 N   0  0  0  0  0  0  0  0  0  0  0  0
   15.0580  -59.1820   33.5500 C   0  0  0  0  0  3  0  0  0  0  0  0
   15.5080  -60.4680   31.5720 O   0  0  0  0  0  0  0  0  0  0  0  0
   15.0730  -61.3470   30.5240 C   0  0  0  0  0  2  0  0  0  0  0  0
   14.3100  -62.4910   31.1060 C   0  0  0  0  0  0  0  0  0  0  0  0
   14.3320  -63.5890   30.5030 O   0  0  0  0  0  0  0  0  0  0  0  0
   12.8610  -63.0520   32.5910 H   0  0  0  0  0  0  0  0  0  0  0  0
  1  2  1  0  0  0  0
  2  3  2  0  0  0  0
  2  5  1  0  0  0  0
  4  1  1  0  0  0  0
  5 11  1  0  0  0  0
  6  5  2  0  0  0  0
  6  7  1  0  0  0  0
  7  8  1  0  0  0  0
  8 10  1  0  0  0  0
  8  9  2  0  0  0  0
 11 12  1  0  0  0  0
 11 10  1  0  0  0  0
 13 19  1  0  0  0  0
 13  7  1  0  0  0  0
 14 13  2  0  0  0  0
 15 16  2  0  0  0  0
 15 14  1  0  0  0  0
 16 17  1  0  0  0  0
 17 19  2  0  0  0  0
 18 16  1  0  0  0  0
 20 21  1  0  0  0  0
 20  1  1  0  0  0  0
 21 22  1  0  0  0  0
 23 21  2  0  0  0  0
 24 23  1  0  0  0  0
 25 24  2  0  0  0  0
 25 27  1  0  0  0  0
 26 32  1  0  0  0  0
 26 24  1  0  0  0  0
 27 20  2  0  0  0  0
 28 25  1  0  0  0  0
 29 30  1  0  0  0  0
 29 28  1  0  0  0  0
 30 26  1  0  0  0  0
 31 30  2  0  0  0  0
M  END
>  <Pose>
1

>  <Score>
-10.394

$$$$
