/Users/jonathanwahrer/Desktop/Msc/3_Semester/Drug_Design_Praktikum/waehrer_HTS_screening/HTS_experiment/out/docking_results/vina_output/6s1j/2266_docked.pdbqt
 OpenBabel03222222413D

 27 30  0  0  1  0  0  0  0  0999 V2000
   18.1710  -55.6980   34.2750 N   0  0  0  0  0  0  0  0  0  0  0  0
   17.1460  -55.3690   33.3680 C   0  0  0  0  0  2  0  0  0  0  0  0
   16.2620  -56.5410   32.9880 C   0  0  0  0  0  2  0  0  0  0  0  0
   15.7990  -57.1410   34.2750 C   0  0  1  0  0  3  0  0  0  0  0  0
   16.7610  -57.3480   35.2410 C   0  0  0  0  0  0  0  0  0  0  0  0
   16.4120  -57.8800   36.4130 N   0  0  0  0  0  0  0  0  0  0  0  0
   15.1170  -58.2000   36.6100 C   0  0  2  0  0  3  0  0  0  0  0  0
   14.1600  -58.0080   35.6860 N   0  0  0  0  0  0  0  0  0  0  0  0
   12.9690  -58.4190   36.1610 N   0  0  0  0  0  0  0  0  0  0  0  0
   13.1100  -58.8910   37.4080 C   0  0  0  0  0  3  0  0  0  0  0  0
   14.4460  -58.7610   37.7050 C   0  0  0  0  0  3  0  0  0  0  0  0
   14.4780  -57.4710   34.4870 C   0  0  0  0  0  0  0  0  0  0  0  0
   13.6280  -57.2680   33.5830 O   0  0  0  0  0  0  0  0  0  0  0  0
   18.1500  -56.9550   34.9010 C   0  0  0  0  0  2  0  0  0  0  0  0
   12.0810  -58.3650   35.6130 H   0  0  0  0  0  0  0  0  0  0  0  0
   19.0340  -54.4440   34.9780 S   0  0  0  0  0  0  0  0  0  0  0  0
   20.3840  -54.9080   35.5060 O   0  0  0  0  0  0  0  0  0  0  0  0
   19.3840  -53.4440   33.8800 O   0  0  0  0  0  0  0  0  0  0  0  0
   18.2560  -53.5910   36.2550 C   0  0  0  0  0  0  0  0  0  0  0  0
   18.7160  -52.3410   36.6620 C   0  0  0  0  0  0  0  0  0  0  0  0
   18.0720  -51.6870   37.6890 C   0  0  0  0  0  3  0  0  0  0  0  0
   16.9970  -52.2170   38.3250 C   0  0  0  0  0  3  0  0  0  0  0  0
   16.5210  -53.4410   37.9480 C   0  0  0  0  0  0  0  0  0  0  0  0
   17.1650  -54.0970   36.9210 C   0  0  0  0  0  3  0  0  0  0  0  0
   15.1220  -54.1560   38.7580 Cl  0  0  0  0  0  0  0  0  0  0  0  0
   19.7990  -51.7320   36.0710 O   0  0  0  0  0  0  0  0  0  0  0  0
   19.9430  -50.3340   36.1780 C   0  0  0  0  0  1  0  0  0  0  0  0
  1 14  1  0  0  0  0
  1 16  1  0  0  0  0
  2  1  1  0  0  0  0
  3  2  1  0  0  0  0
  4  3  1  1  0  0  0
  4 12  1  0  0  0  0
  4  5  1  0  0  0  0
  5  6  2  0  0  0  0
  6  7  1  0  0  0  0
  7 11  1  1  0  0  0
  8  9  1  0  0  0  0
  8  7  1  0  0  0  0
  9 10  1  0  0  0  0
 10 11  2  0  0  0  0
 12  8  1  0  0  0  0
 13 12  2  0  0  0  0
 14  5  1  0  0  0  0
 15  9  1  0  0  0  0
 16 17  2  0  0  0  0
 16 19  1  0  0  0  0
 18 16  2  0  0  0  0
 19 20  2  0  0  0  0
 19 24  1  0  0  0  0
 20 21  1  0  0  0  0
 21 22  2  0  0  0  0
 23 22  1  0  0  0  0
 23 25  1  0  0  0  0
 24 23  2  0  0  0  0
 26 27  1  0  0  0  0
 26 20  1  0  0  0  0
M  END
>  <Pose>
1

>  <Score>
-10.251

$$$$
