/Users/jonathanwahrer/Desktop/Msc/3_Semester/Drug_Design_Praktikum/waehrer_HTS_screening/HTS_experiment/out/docking_results/vina_output/6s1j/2270_docked.pdbqt
 OpenBabel03222222413D

 22 24  0  0  1  0  0  0  0  0999 V2000
   16.6940  -54.9850   37.8160 C   0  0  0  0  0  0  0  0  0  0  0  0
   16.0560  -54.9970   38.9070 O   0  0  0  0  0  0  0  0  0  0  0  0
   16.6460  -56.0930   36.9150 N   0  0  0  0  0  0  0  0  0  0  0  0
   17.1790  -56.0370   36.0470 H   0  0  0  0  0  0  0  0  0  0  0  0
   17.4860  -53.8290   37.4810 C   0  0  0  0  0  0  0  0  0  0  0  0
   18.5020  -53.9920   36.5330 C   0  0  0  0  0  3  0  0  0  0  0  0
   19.3270  -52.9650   36.1320 C   0  0  0  0  0  0  0  0  0  0  0  0
   19.1430  -51.7170   36.6890 C   0  0  0  0  0  0  0  0  0  0  0  0
   20.1870  -50.3870   36.1910 Cl  0  0  0  0  0  0  0  0  0  0  0  0
   18.1410  -51.5350   37.6310 C   0  0  0  0  0  3  0  0  0  0  0  0
   17.3120  -52.5900   38.0270 C   0  0  0  0  0  3  0  0  0  0  0  0
   20.3270  -53.1570   35.1890 O   0  0  0  0  0  0  0  0  0  0  0  0
   20.0250  -53.5340   33.8600 C   0  0  0  0  0  1  0  0  0  0  0  0
   15.8470  -57.2240   37.2850 C   0  0  0  0  0  2  0  0  0  0  0  0
   15.4470  -58.1500   36.2070 C   0  0  2  0  0  3  0  0  0  0  0  0
   15.7460  -57.7640   34.8620 N   0  0  1  0  0  0  0  0  0  0  0  0
   16.1200  -59.0230   34.1730 C   0  0  0  0  0  2  0  0  0  0  0  0
   14.6110  -57.2910   34.0950 C   0  0  0  0  0  2  0  0  0  0  0  0
   15.0230  -60.0100   34.5910 C   0  0  0  0  0  2  0  0  0  0  0  0
   13.8060  -59.3340   34.9920 N   0  0  1  0  0  0  0  0  0  0  0  0
   13.9860  -58.5660   36.2270 C   0  0  0  0  0  2  0  0  0  0  0  0
   13.5180  -58.3450   33.9680 C   0  0  0  0  0  2  0  0  0  0  0  0
  1  2  2  0  0  0  0
  3 14  1  0  0  0  0
  3  1  1  0  0  0  0
  4  3  1  0  0  0  0
  5  1  1  0  0  0  0
  5 11  1  0  0  0  0
  6  5  2  0  0  0  0
  7  6  1  0  0  0  0
  7  8  2  0  0  0  0
  8 10  1  0  0  0  0
  9  8  1  0  0  0  0
 10 11  2  0  0  0  0
 12  7  1  0  0  0  0
 13 12  1  0  0  0  0
 15 21  1  0  0  0  0
 15 14  1  1  0  0  0
 16 18  1  6  0  0  0
 16 15  1  0  0  0  0
 17 19  1  0  0  0  0
 17 16  1  0  0  0  0
 19 20  1  0  0  0  0
 20 22  1  6  0  0  0
 20 21  1  0  0  0  0
 22 18  1  0  0  0  0
M  END
>  <Pose>
1

>  <Score>
-8.109

$$$$
