/Users/jonathanwahrer/Desktop/Msc/3_Semester/Drug_Design_Praktikum/waehrer_HTS_screening/HTS_experiment/out/docking_results/vina_output/6s1j/2271_docked.pdbqt
 OpenBabel03222222413D

 27 30  0  0  1  0  0  0  0  0999 V2000
   18.0240  -57.6520   34.7980 C   0  0  2  0  0  0  0  0  0  0  0  0
   17.4220  -57.9570   33.5980 N   0  0  0  0  0  4  0  0  0  0  0  0
   16.0010  -57.8470   33.8510 C   0  0  0  0  0  0  0  0  0  0  0  0
   14.9820  -57.3510   33.2280 C   0  0  0  0  0  3  0  0  0  0  0  0
   13.6020  -57.3860   33.7450 C   0  0  0  0  0  2  0  0  0  0  0  0
   13.4270  -58.0240   35.0770 C   0  0  0  0  0  2  0  0  0  0  0  0
   14.5180  -58.9650   35.4620 C   0  0  0  0  0  2  0  0  0  0  0  0
   15.8330  -58.4710   35.1120 N   0  0  0  0  0  0  0  0  0  0  0  0
   17.1280  -58.4520   35.7870 C   0  0  0  0  0  2  0  0  0  0  0  0
   17.5240  -59.0310   33.4760 H   0  0  0  0  0  0  0  0  0  0  0  0
   18.0990  -56.3150   35.3520 C   0  0  0  0  0  0  0  0  0  0  0  0
   19.1700  -55.5080   35.0220 C   0  0  0  0  0  3  0  0  0  0  0  0
   19.2800  -54.2520   35.5430 C   0  0  0  0  0  3  0  0  0  0  0  0
   18.3350  -53.7320   36.4180 C   0  0  0  0  0  0  0  0  0  0  0  0
   18.4510  -52.1290   37.0990 Cl  0  0  0  0  0  0  0  0  0  0  0  0
   17.2750  -54.5330   36.7440 C   0  0  0  0  0  3  0  0  0  0  0  0
   17.1610  -55.8080   36.2170 C   0  0  0  0  0  3  0  0  0  0  0  0
   19.2850  -58.2980   34.9390 O   0  0  0  0  0  0  0  0  0  0  0  0
   19.5970  -58.4740   34.0140 H   0  0  0  0  0  0  0  0  0  0  0  0
   17.7990  -57.4260   32.3740 C   0  0  0  0  0  0  0  0  0  0  0  0
   17.9780  -56.1190   32.0700 C   0  0  0  0  0  3  0  0  0  0  0  0
   18.3740  -55.7390   30.7890 C   0  0  0  0  0  3  0  0  0  0  0  0
   18.6020  -56.6570   29.7780 C   0  0  0  0  0  0  0  0  0  0  0  0
   18.4120  -57.9800   30.1170 C   0  0  0  0  0  3  0  0  0  0  0  0
   18.0230  -58.3860   31.3660 C   0  0  0  0  0  3  0  0  0  0  0  0
   18.9930  -56.2360   28.5170 O   0  0  0  0  0  0  0  0  0  0  0  0
   20.2910  -55.7330   28.3310 C   0  0  0  0  0  1  0  0  0  0  0  0
  1 18  1  1  0  0  0
  1 11  1  0  0  0  0
  1  9  1  0  0  0  0
  2  3  1  0  0  0  0
  2  1  1  0  0  0  0
  3  8  1  0  0  0  0
  4  5  1  0  0  0  0
  4  3  2  0  0  0  0
  5  6  1  0  0  0  0
  6  7  1  0  0  0  0
  8  7  1  0  0  0  0
  8  9  1  0  0  0  0
 10  2  1  0  0  0  0
 11 17  1  0  0  0  0
 12 11  2  0  0  0  0
 12 13  1  0  0  0  0
 13 14  2  0  0  0  0
 14 16  1  0  0  0  0
 14 15  1  0  0  0  0
 17 16  2  0  0  0  0
 19 18  1  0  0  0  0
 20  2  1  0  0  0  0
 21 20  1  0  0  0  0
 22 21  2  0  0  0  0
 23 24  2  0  0  0  0
 23 22  1  0  0  0  0
 24 25  1  0  0  0  0
 25 20  2  0  0  0  0
 26 23  1  0  0  0  0
 27 26  1  0  0  0  0
M  END
>  <Pose>
1

>  <Score>
-7.321

$$$$
