/Users/jonathanwahrer/Desktop/Msc/3_Semester/Drug_Design_Praktikum/waehrer_HTS_screening/HTS_experiment/out/docking_results/vina_output/6s1j/2272_docked.pdbqt
 OpenBabel03222222423D

 29 32  0  0  0  0  0  0  0  0999 V2000
   18.4570  -57.1650   32.1590 C   0  0  0  0  0  0  0  0  0  0  0  0
   19.5320  -57.7140   31.7040 O   0  0  0  0  0  0  0  0  0  0  0  0
   18.5570  -55.8060   32.4660 N   0  0  0  0  0  0  0  0  0  0  0  0
   17.5290  -55.0360   33.1920 C   0  0  0  0  0  2  0  0  0  0  0  0
   18.3030  -54.8230   34.5310 C   0  0  0  0  0  2  0  0  0  0  0  0
   19.4320  -53.9480   34.2510 N   0  0  0  0  0  0  0  0  0  0  0  0
   19.9650  -53.8730   33.0040 C   0  0  0  0  0  2  0  0  0  0  0  0
   19.6690  -54.9970   32.0510 C   0  0  0  0  0  2  0  0  0  0  0  0
   17.3200  -58.0480   32.2510 C   0  0  0  0  0  2  0  0  0  0  0  0
   17.0780  -58.8850   33.4230 C   0  0  0  0  0  2  0  0  0  0  0  0
   15.8970  -58.5940   34.2190 N   0  0  0  0  0  0  0  0  0  0  0  0
   15.7450  -57.9620   35.3800 C   0  0  0  0  0  0  0  0  0  0  0  0
   14.4310  -58.0130   35.7790 C   0  0  0  0  0  0  0  0  0  0  0  0
   16.6790  -57.2840   36.1830 C   0  0  0  0  0  3  0  0  0  0  0  0
   13.9880  -57.4120   36.9650 C   0  0  0  0  0  3  0  0  0  0  0  0
   13.8140  -58.6830   34.8420 O   0  0  0  0  0  0  0  0  0  0  0  0
   14.8860  -56.7510   37.7570 C   0  0  0  0  0  0  0  0  0  0  0  0
   14.3660  -55.9780   39.2330 Cl  0  0  0  0  0  0  0  0  0  0  0  0
   16.2060  -56.7020   37.3480 C   0  0  0  0  0  3  0  0  0  0  0  0
   14.6410  -59.0510   33.8940 C   0  0  0  0  0  0  0  0  0  0  0  0
   14.3530  -59.7120   32.8560 O   0  0  0  0  0  0  0  0  0  0  0  0
   20.0430  -53.6410   35.4560 C   0  0  0  0  0  2  0  0  0  0  0  0
   19.6800  -52.2360   35.9390 C   0  0  0  0  0  0  0  0  0  0  0  0
   20.3720  -51.3050   35.3740 O   0  0  0  0  0  0  0  0  0  0  0  0
   18.7420  -52.0410   36.8580 N   0  0  0  0  0  0  0  0  0  0  0  0
   18.7850  -50.6960   36.6740 H   0  0  0  0  0  0  0  0  0  0  0  0
   17.7430  -51.8350   37.8370 C   0  0  0  0  0  3  0  0  0  0  0  0
   17.4860  -53.0690   38.7840 C   0  0  0  0  0  2  0  0  0  0  0  0
   16.5030  -52.7010   37.7830 C   0  0  0  0  0  2  0  0  0  0  0  0
  1  9  1  0  0  0  0
  1  3  1  0  0  0  0
  2  1  2  0  0  0  0
  3  4  1  0  0  0  0
  4  5  1  0  0  0  0
  6  5  1  0  0  0  0
  6 22  1  0  0  0  0
  7  6  1  0  0  0  0
  8  3  1  0  0  0  0
  8  7  1  0  0  0  0
  9 10  1  0  0  0  0
 10 11  1  0  0  0  0
 11 12  1  0  0  0  0
 12 13  2  0  0  0  0
 12 14  1  0  0  0  0
 13 15  1  0  0  0  0
 14 19  2  0  0  0  0
 15 17  2  0  0  0  0
 16 13  1  0  0  0  0
 17 18  1  0  0  0  0
 19 17  1  0  0  0  0
 20 11  1  0  0  0  0
 20 16  1  0  0  0  0
 21 20  2  0  0  0  0
 22 23  1  0  0  0  0
 23 25  1  0  0  0  0
 24 23  2  0  0  0  0
 25 27  1  0  0  0  0
 26 25  1  0  0  0  0
 27 28  1  0  0  0  0
 29 27  1  0  0  0  0
 29 28  1  0  0  0  0
M  END
>  <Pose>
1

>  <Score>
-8.964

$$$$
