/Users/jonathanwahrer/Desktop/Msc/3_Semester/Drug_Design_Praktikum/waehrer_HTS_screening/HTS_experiment/out/docking_results/vina_output/6s1j/2275_docked.pdbqt
 OpenBabel03222222423D

 21 23  0  0  1  0  0  0  0  0999 V2000
   19.9050  -54.3030   32.4980 Cl  0  0  0  0  0  0  0  0  0  0  0  0
   19.0360  -54.3980   34.0140 C   0  0  0  0  0  0  0  0  0  0  0  0
   18.0120  -55.3080   34.1680 C   0  0  0  0  0  0  0  0  0  0  0  0
   17.3760  -55.3300   35.3890 C   0  0  0  0  0  0  0  0  0  0  0  0
   16.4210  -56.1280   35.6380 O   0  0  0  0  0  0  0  0  0  0  0  0
   17.7610  -54.4900   36.3610 N   0  0  0  0  0  0  0  0  0  0  0  0
   18.7330  -53.6060   36.2580 N   0  0  0  0  0  0  0  0  0  0  0  0
   19.1190  -52.7140   37.3390 C   0  0  1  0  0  3  0  0  0  0  0  0
   18.1000  -51.6180   37.5740 C   0  0  0  0  0  2  0  0  0  0  0  0
   16.9530  -52.1330   38.4250 C   0  0  0  0  0  2  0  0  0  0  0  0
   16.2360  -53.2780   37.7470 C   0  0  0  0  0  2  0  0  0  0  0  0
   17.0660  -54.5310   37.6570 C   0  0  2  0  0  3  0  0  0  0  0  0
   18.1270  -54.4590   38.6970 C   0  0  0  0  0  3  0  0  0  0  0  0
   19.1030  -53.5640   38.5870 C   0  0  0  0  0  3  0  0  0  0  0  0
   19.3800  -53.5630   35.0560 C   0  0  0  0  0  0  0  0  0  0  0  0
   20.3270  -52.7160   34.9260 O   0  0  0  0  0  0  0  0  0  0  0  0
   17.5990  -56.1980   33.1350 N   0  0  0  0  0  0  0  0  0  0  0  0
   16.8520  -55.7980   32.4900 H   0  0  0  0  0  0  0  0  0  0  0  0
   18.1200  -57.5240   32.9430 C   0  0  0  0  0  3  0  0  0  0  0  0
   19.0780  -57.5930   31.7660 C   0  0  0  0  0  1  0  0  0  0  0  0
   18.8130  -58.0950   34.1350 C   0  0  0  0  0  1  0  0  0  0  0  0
  1  2  1  0  0  0  0
  2  3  2  0  0  0  0
  2 15  1  0  0  0  0
  3  4  1  0  0  0  0
  4  5  2  0  0  0  0
  4  6  1  0  0  0  0
  6 12  1  0  0  0  0
  7  6  1  0  0  0  0
  7  8  1  0  0  0  0
  8  9  1  1  0  0  0
  8 14  1  0  0  0  0
  9 10  1  0  0  0  0
 11 10  1  0  0  0  0
 12 11  1  6  0  0  0
 12 13  1  0  0  0  0
 14 13  2  0  0  0  0
 15  7  1  0  0  0  0
 16 15  2  0  0  0  0
 17  3  1  0  0  0  0
 18 17  1  0  0  0  0
 19 17  1  0  0  0  0
 19 21  1  0  0  0  0
 20 19  1  0  0  0  0
M  END
>  <Pose>
1

>  <Score>
-8.993

$$$$
