/Users/jonathanwahrer/Desktop/Msc/3_Semester/Drug_Design_Praktikum/waehrer_HTS_screening/HTS_experiment/out/docking_results/vina_output/6s1j/2276_docked.pdbqt
 OpenBabel03222222423D

 21 24  0  0  1  0  0  0  0  0999 V2000
   20.3610  -53.9290   32.8330 Cl  0  0  0  0  0  0  0  0  0  0  0  0
   19.3050  -54.1110   34.2190 C   0  0  0  0  0  0  0  0  0  0  0  0
   18.3470  -55.1020   34.1760 C   0  0  0  0  0  0  0  0  0  0  0  0
   17.5350  -55.1870   35.3150 C   0  0  0  0  0  0  0  0  0  0  0  0
   16.6510  -56.0650   35.3290 O   0  0  0  0  0  0  0  0  0  0  0  0
   17.7010  -54.3560   36.3510 N   0  0  0  0  0  0  0  0  0  0  0  0
   18.6240  -53.4060   36.3850 N   0  0  0  0  0  0  0  0  0  0  0  0
   18.6730  -52.5940   37.5920 C   0  0  1  0  0  3  0  0  0  0  0  0
   17.2930  -51.9830   37.7560 C   0  0  1  0  0  3  0  0  0  0  0  0
   16.2540  -53.0160   37.6730 C   0  0  1  0  0  3  0  0  0  0  0  0
   16.8600  -54.4200   37.5480 C   0  0  2  0  0  3  0  0  0  0  0  0
   17.8420  -54.5430   38.6800 C   0  0  0  0  0  2  0  0  0  0  0  0
   18.7750  -53.6070   38.7080 C   0  0  0  0  0  2  0  0  0  0  0  0
   16.5030  -52.2540   38.9820 C   0  0  0  0  0  2  0  0  0  0  0  0
   19.4220  -53.2800   35.3300 C   0  0  0  0  0  0  0  0  0  0  0  0
   20.3020  -52.3820   35.3530 O   0  0  0  0  0  0  0  0  0  0  0  0
   18.1610  -55.9960   33.0830 N   0  0  0  0  0  0  0  0  0  0  0  0
   17.4440  -55.7030   32.3860 H   0  0  0  0  0  0  0  0  0  0  0  0
   18.8610  -57.2140   32.8890 C   0  0  0  0  0  3  0  0  0  0  0  0
   18.0640  -58.4540   33.1980 C   0  0  0  0  0  1  0  0  0  0  0  0
   19.3890  -57.3820   31.4710 C   0  0  0  0  0  1  0  0  0  0  0  0
  1  2  1  0  0  0  0
  2 15  1  0  0  0  0
  3  2  2  0  0  0  0
  3  4  1  0  0  0  0
  4  5  2  0  0  0  0
  4  6  1  0  0  0  0
  6  7  1  0  0  0  0
  6 11  1  0  0  0  0
  7  8  1  0  0  0  0
  8  9  1  0  0  0  0
  8 13  1  1  0  0  0
  9 14  1  1  0  0  0
 10  9  1  0  0  0  0
 10 14  1  1  0  0  0
 11 10  1  0  0  0  0
 11 12  1  1  0  0  0
 12 13  1  0  0  0  0
 15 16  2  0  0  0  0
 15  7  1  0  0  0  0
 17  3  1  0  0  0  0
 18 17  1  0  0  0  0
 19 17  1  0  0  0  0
 19 20  1  0  0  0  0
 21 19  1  0  0  0  0
M  END
>  <Pose>
1

>  <Score>
-8.912

$$$$
