/Users/jonathanwahrer/Desktop/Msc/3_Semester/Drug_Design_Praktikum/waehrer_HTS_screening/HTS_experiment/out/docking_results/vina_output/6s1j/2282_docked.pdbqt
 OpenBabel03222222433D

 31 34  0  0  1  0  0  0  0  0999 V2000
   18.7840  -56.3810   31.8120 N   0  0  0  0  0  0  0  0  0  0  0  0
   18.0140  -56.0720   30.6310 C   0  0  0  0  0  2  0  0  0  0  0  0
   17.6980  -57.3300   29.8830 C   0  0  0  0  0  2  0  0  0  0  0  0
   18.0350  -58.4360   30.7440 N   0  0  0  0  0  0  0  0  0  0  0  0
   19.4460  -58.5090   30.8660 C   0  0  0  0  0  2  0  0  0  0  0  0
   19.8840  -57.3060   31.7080 C   0  0  0  0  0  2  0  0  0  0  0  0
   18.5030  -55.8070   33.0790 C   0  0  0  0  0  0  0  0  0  0  0  0
   19.1510  -54.6590   33.5270 C   0  0  0  0  0  0  0  0  0  0  0  0
   20.3450  -53.9490   32.4610 Cl  0  0  0  0  0  0  0  0  0  0  0  0
   18.8550  -54.1170   34.7620 C   0  0  0  0  0  0  0  0  0  0  0  0
   17.9360  -54.6700   35.5760 N   0  0  0  0  0  0  0  0  0  0  0  0
   19.4460  -53.0760   35.1640 O   0  0  0  0  0  0  0  0  0  0  0  0
   17.3320  -55.7590   35.1320 N   0  0  0  0  0  0  0  0  0  0  0  0
   17.5710  -56.3390   33.9440 C   0  0  0  0  0  3  0  0  0  0  0  0
   17.6260  -54.1050   36.8570 C   0  0  0  0  0  0  0  0  0  0  0  0
   18.3490  -54.4740   37.9670 C   0  0  0  0  0  3  0  0  0  0  0  0
   18.0560  -53.9290   39.2220 C   0  0  0  0  0  3  0  0  0  0  0  0
   17.0420  -53.0130   39.3840 C   0  0  0  0  0  3  0  0  0  0  0  0
   16.3130  -52.6370   38.2770 C   0  0  0  0  0  3  0  0  0  0  0  0
   16.6140  -53.1870   37.0360 C   0  0  0  0  0  3  0  0  0  0  0  0
   17.3110  -59.6280   30.5450 C   0  0  0  0  0  2  0  0  0  0  0  0
   16.3630  -59.9570   31.6150 C   0  0  0  0  0  0  0  0  0  0  0  0
   15.1860  -60.2830   31.2390 O   0  0  0  0  0  0  0  0  0  0  0  0
   16.6330  -59.9500   33.0050 N   0  0  0  0  0  0  0  0  0  0  0  0
   17.5950  -59.6950   33.3060 H   0  0  0  0  0  0  0  0  0  0  0  0
   15.6660  -60.2830   34.0200 C   0  0  0  0  0  2  0  0  0  0  0  0
   15.0560  -59.0280   34.5620 C   0  0  1  0  0  3  0  0  0  0  0  0
   13.6910  -59.1340   34.5290 O   0  0  0  0  0  0  0  0  0  0  0  0
   13.1560  -58.9630   35.7770 C   0  0  0  0  0  2  0  0  0  0  0  0
   14.1640  -58.0710   36.4690 C   0  0  0  0  0  2  0  0  0  0  0  0
   15.4440  -58.7910   36.0140 C   0  0  0  0  0  2  0  0  0  0  0  0
  1  7  1  0  0  0  0
  2  1  1  0  0  0  0
  3  2  1  0  0  0  0
  3  4  1  0  0  0  0
  4  5  1  0  0  0  0
  5  6  1  0  0  0  0
  6  1  1  0  0  0  0
  7  8  2  0  0  0  0
  7 14  1  0  0  0  0
  8 10  1  0  0  0  0
  9  8  1  0  0  0  0
 10 12  2  0  0  0  0
 10 11  1  0  0  0  0
 11 15  1  0  0  0  0
 13 11  1  0  0  0  0
 14 13  2  0  0  0  0
 15 20  2  0  0  0  0
 15 16  1  0  0  0  0
 16 17  2  0  0  0  0
 17 18  1  0  0  0  0
 19 18  2  0  0  0  0
 20 19  1  0  0  0  0
 21  4  1  0  0  0  0
 21 22  1  0  0  0  0
 22 24  1  0  0  0  0
 23 22  2  0  0  0  0
 24 25  1  0  0  0  0
 24 26  1  0  0  0  0
 27 26  1  1  0  0  0
 27 31  1  0  0  0  0
 28 27  1  0  0  0  0
 28 29  1  0  0  0  0
 29 30  1  0  0  0  0
 31 30  1  0  0  0  0
M  END
>  <Pose>
1

>  <Score>
-8.004

$$$$
