/Users/jonathanwahrer/Desktop/Msc/3_Semester/Drug_Design_Praktikum/waehrer_HTS_screening/HTS_experiment/out/docking_results/vina_output/6s1j/2285_docked.pdbqt
 OpenBabel03222222433D

 32 35  0  0  0  0  0  0  0  0999 V2000
   17.3860  -57.3720   32.8370 N   0  0  0  0  0  0  0  0  0  0  0  0
   16.9940  -56.1680   33.5080 C   0  0  0  0  0  2  0  0  0  0  0  0
   17.5290  -54.8810   32.8530 C   0  0  0  0  0  2  0  0  0  0  0  0
   18.9500  -55.0240   32.7780 N   0  0  0  0  0  0  0  0  0  0  0  0
   19.2380  -56.0630   31.8290 C   0  0  0  0  0  2  0  0  0  0  0  0
   18.8620  -57.3320   32.5430 C   0  0  0  0  0  2  0  0  0  0  0  0
   17.2880  -58.6550   34.0660 S   0  0  0  0  0  0  0  0  0  0  0  0
   16.8790  -59.9250   33.3460 O   0  0  0  0  0  0  0  0  0  0  0  0
   18.6350  -58.8320   34.6710 O   0  0  0  0  0  0  0  0  0  0  0  0
   16.1200  -58.3000   35.2780 C   0  0  0  0  0  0  0  0  0  0  0  0
   14.8260  -58.7680   35.0110 C   0  0  0  0  0  3  0  0  0  0  0  0
   13.7680  -58.6610   35.9170 C   0  0  0  0  0  0  0  0  0  0  0  0
   14.0170  -58.0590   37.1470 C   0  0  0  0  0  0  0  0  0  0  0  0
   12.5010  -59.1300   35.6160 O   0  0  0  0  0  0  0  0  0  0  0  0
   15.2970  -57.5970   37.3920 C   0  0  0  0  0  3  0  0  0  0  0  0
   12.9270  -57.9920   37.9960 O   0  0  0  0  0  0  0  0  0  0  0  0
   16.3420  -57.7120   36.4850 C   0  0  0  0  0  3  0  0  0  0  0  0
   12.0310  -59.1350   38.0230 C   0  0  0  0  0  2  0  0  0  0  0  0
   11.7400  -59.6800   36.6640 C   0  0  0  0  0  2  0  0  0  0  0  0
   19.7550  -53.9120   32.9490 C   0  0  0  0  0  2  0  0  0  0  0  0
   19.9810  -53.4410   34.3170 C   0  0  0  0  0  0  0  0  0  0  0  0
   20.3910  -52.1990   34.3620 O   0  0  0  0  0  0  0  0  0  0  0  0
   19.8360  -54.0490   35.5320 N   0  0  0  0  0  0  0  0  0  0  0  0
   19.5480  -55.0740   35.6670 H   0  0  0  0  0  0  0  0  0  0  0  0
   20.0010  -53.3840   36.8270 C   0  0  0  0  0  2  0  0  0  0  0  0
   18.6830  -53.2840   37.4860 C   0  0  0  0  0  0  0  0  0  0  0  0
   18.0670  -52.0280   37.6920 C   0  0  0  0  0  0  0  0  0  0  0  0
   16.9400  -51.8780   38.4060 C   0  0  0  0  0  3  0  0  0  0  0  0
   18.8220  -50.5980   36.9470 Cl  0  0  0  0  0  0  0  0  0  0  0  0
   16.3020  -53.0130   38.9980 C   0  0  0  0  0  3  0  0  0  0  0  0
   16.8770  -54.2060   38.8210 C   0  0  0  0  0  3  0  0  0  0  0  0
   18.0530  -54.3910   38.0850 C   0  0  0  0  0  3  0  0  0  0  0  0
  1  2  1  0  0  0  0
  1  7  1  0  0  0  0
  3  2  1  0  0  0  0
  4  3  1  0  0  0  0
  4 20  1  0  0  0  0
  5  6  1  0  0  0  0
  5  4  1  0  0  0  0
  6  1  1  0  0  0  0
  7  9  2  0  0  0  0
  7 10  1  0  0  0  0
  8  7  2  0  0  0  0
 10 17  1  0  0  0  0
 11 10  2  0  0  0  0
 11 12  1  0  0  0  0
 12 13  2  0  0  0  0
 13 15  1  0  0  0  0
 13 16  1  0  0  0  0
 14 12  1  0  0  0  0
 14 19  1  0  0  0  0
 16 18  1  0  0  0  0
 17 15  2  0  0  0  0
 19 18  1  0  0  0  0
 20 21  1  0  0  0  0
 21 22  2  0  0  0  0
 21 23  1  0  0  0  0
 23 24  1  0  0  0  0
 23 25  1  0  0  0  0
 25 26  1  0  0  0  0
 26 27  2  0  0  0  0
 26 32  1  0  0  0  0
 27 28  1  0  0  0  0
 28 30  2  0  0  0  0
 29 27  1  0  0  0  0
 31 30  1  0  0  0  0
 32 31  2  0  0  0  0
M  END
>  <Pose>
1

>  <Score>
-10.448

$$$$
