/Users/jonathanwahrer/Desktop/Msc/3_Semester/Drug_Design_Praktikum/waehrer_HTS_screening/HTS_experiment/out/docking_results/vina_output/6s1j/2298_docked.pdbqt
 OpenBabel03222222443D

 34 37  0  0  0  0  0  0  0  0999 V2000
   14.9790  -58.2440   37.0860 C   0  0  0  0  0  2  0  0  0  0  0  0
   13.9810  -58.1250   36.0630 N   0  0  0  0  0  0  0  0  0  0  0  0
   14.3720  -57.3220   34.9590 C   0  0  0  0  0  2  0  0  0  0  0  0
   14.3920  -58.0130   33.6220 C   0  0  0  0  0  2  0  0  0  0  0  0
   14.9720  -59.2600   33.7250 N   0  0  0  0  0  0  0  0  0  0  0  0
   14.5080  -60.0920   34.7490 C   0  0  0  0  0  2  0  0  0  0  0  0
   13.4840  -59.3940   35.6380 C   0  0  0  0  0  2  0  0  0  0  0  0
   16.1730  -59.8000   32.7100 S   0  0  0  0  0  0  0  0  0  0  0  0
   17.0360  -60.8810   33.3120 O   0  0  0  0  0  0  0  0  0  0  0  0
   15.6690  -60.3680   31.4020 O   0  0  0  0  0  0  0  0  0  0  0  0
   17.2670  -58.4760   32.3210 C   0  0  0  0  0  0  0  0  0  0  0  0
   18.0320  -57.8810   33.2860 C   0  0  0  0  0  3  0  0  0  0  0  0
   18.8850  -56.8510   32.9880 C   0  0  0  0  0  3  0  0  0  0  0  0
   18.9680  -56.4090   31.6860 C   0  0  0  0  0  0  0  0  0  0  0  0
   18.1960  -57.0080   30.7090 C   0  0  0  0  0  3  0  0  0  0  0  0
   20.0690  -55.0880   31.3370 Cl  0  0  0  0  0  0  0  0  0  0  0  0
   17.3460  -58.0390   31.0180 C   0  0  0  0  0  3  0  0  0  0  0  0
   16.2290  -57.5000   36.7120 C   0  0  0  0  0  0  0  0  0  0  0  0
   17.1630  -58.1730   36.2240 O   0  0  0  0  0  0  0  0  0  0  0  0
   16.3400  -56.1000   36.9060 N   0  0  0  0  0  0  0  0  0  0  0  0
   15.5130  -55.5920   37.3200 H   0  0  0  0  0  0  0  0  0  0  0  0
   17.5700  -55.4720   36.5210 C   0  0  0  0  0  2  0  0  0  0  0  0
   17.7900  -54.0900   37.0020 C   0  0  0  0  0  0  0  0  0  0  0  0
   18.3380  -54.1280   38.4080 C   0  0  0  0  0  2  0  0  0  0  0  0
   17.2280  -54.0740   39.4630 C   0  0  0  0  0  2  0  0  0  0  0  0
   16.5500  -52.7180   39.4400 C   0  0  0  0  0  2  0  0  0  0  0  0
   16.5880  -52.2180   38.0080 C   0  0  0  0  0  2  0  0  0  0  0  0
   16.3990  -53.4400   37.1330 C   0  0  0  0  0  2  0  0  0  0  0  0
   18.5580  -53.2190   36.1980 N   0  0  0  0  0  0  0  0  0  0  0  0
   19.7460  -52.6660   36.7440 C   0  0  0  0  0  2  0  0  0  0  0  0
   20.1030  -51.4650   35.8490 C   0  0  0  0  0  2  0  0  0  0  0  0
   20.3750  -51.8920   34.5720 O   0  0  0  0  0  0  0  0  0  0  0  0
   20.2270  -53.2430   34.3820 C   0  0  0  0  0  2  0  0  0  0  0  0
   18.8770  -53.7510   34.8900 C   0  0  0  0  0  2  0  0  0  0  0  0
  2  1  1  0  0  0  0
  3  2  1  0  0  0  0
  4  5  1  0  0  0  0
  4  3  1  0  0  0  0
  5  6  1  0  0  0  0
  6  7  1  0  0  0  0
  7  2  1  0  0  0  0
  8  9  2  0  0  0  0
  8  5  1  0  0  0  0
 10  8  2  0  0  0  0
 11  8  1  0  0  0  0
 11 12  1  0  0  0  0
 13 12  2  0  0  0  0
 14 13  1  0  0  0  0
 15 17  1  0  0  0  0
 15 14  2  0  0  0  0
 16 14  1  0  0  0  0
 17 11  2  0  0  0  0
 18 20  1  0  0  0  0
 18  1  1  0  0  0  0
 19 18  2  0  0  0  0
 20 21  1  0  0  0  0
 22 20  1  0  0  0  0
 22 23  1  0  0  0  0
 23 28  1  0  0  0  0
 23 24  1  0  0  0  0
 24 25  1  0  0  0  0
 26 25  1  0  0  0  0
 27 26  1  0  0  0  0
 28 27  1  0  0  0  0
 29 30  1  0  0  0  0
 29 23  1  0  0  0  0
 31 30  1  0  0  0  0
 32 31  1  0  0  0  0
 33 32  1  0  0  0  0
 33 34  1  0  0  0  0
 34 29  1  0  0  0  0
M  END
>  <Pose>
1

>  <Score>
-9.360

$$$$
