/Users/jonathanwahrer/Desktop/Msc/3_Semester/Drug_Design_Praktikum/waehrer_HTS_screening/HTS_experiment/out/docking_results/vina_output/6s1j/2301_docked.pdbqt
 OpenBabel03222222443D

 24 27  0  0  1  0  0  0  0  0999 V2000
   17.2540  -56.6360   32.3640 C   0  0  2  0  0  0  0  0  0  0  0  0
   17.0460  -55.4190   33.2030 C   0  0  0  0  0  2  0  0  0  0  0  0
   17.8650  -55.5140   34.5030 C   0  0  0  0  0  2  0  0  0  0  0  0
   17.2420  -56.6530   35.1940 N   0  0  0  0  0  0  0  0  0  0  0  0
   17.4230  -57.9120   34.5430 C   0  0  0  0  0  2  0  0  0  0  0  0
   17.0260  -57.9050   33.0960 C   0  0  0  0  0  2  0  0  0  0  0  0
   18.5430  -56.5350   31.6600 C   0  0  0  0  0  0  0  0  0  0  0  0
   19.2010  -55.3770   31.3610 C   0  0  0  0  0  3  0  0  0  0  0  0
   20.3960  -55.4330   30.6990 C   0  0  0  0  0  3  0  0  0  0  0  0
   21.0040  -56.6160   30.3010 C   0  0  0  0  0  0  0  0  0  0  0  0
   22.5430  -56.6370   29.4650 Cl  0  0  0  0  0  0  0  0  0  0  0  0
   20.3360  -57.7760   30.6050 C   0  0  0  0  0  3  0  0  0  0  0  0
   19.1270  -57.7400   31.2720 C   0  0  0  0  0  3  0  0  0  0  0  0
   16.2790  -56.5620   31.3360 O   0  0  0  0  0  0  0  0  0  0  0  0
   16.4910  -55.7380   30.7980 H   0  0  0  0  0  0  0  0  0  0  0  0
   16.5400  -56.4170   36.4000 C   0  0  0  0  0  0  0  0  0  0  0  0
   16.5500  -55.1880   36.9440 N   0  0  0  0  0  0  0  0  0  0  0  0
   15.9270  -54.8410   38.0530 N   0  0  0  0  0  0  0  0  0  0  0  0
   15.8010  -53.7100   38.7530 N   0  0  0  0  0  0  0  0  0  0  0  0
   15.2230  -55.7550   38.7180 C   0  0  0  0  0  0  0  0  0  0  0  0
   15.0500  -53.9050   39.8140 N   0  0  0  0  0  0  0  0  0  0  0  0
   14.6830  -55.1570   39.8090 N   0  0  0  0  0  0  0  0  0  0  0  0
   15.1660  -57.0450   38.2190 C   0  0  0  0  0  3  0  0  0  0  0  0
   15.8230  -57.3890   37.0570 C   0  0  0  0  0  3  0  0  0  0  0  0
  1 14  1  6  0  0  0
  1  6  1  0  0  0  0
  1  2  1  0  0  0  0
  2  3  1  0  0  0  0
  3  4  1  0  0  0  0
  4 16  1  0  0  0  0
  5  4  1  0  0  0  0
  6  5  1  0  0  0  0
  7  1  1  0  0  0  0
  8  7  1  0  0  0  0
  9  8  2  0  0  0  0
 10 12  2  0  0  0  0
 10  9  1  0  0  0  0
 11 10  1  0  0  0  0
 12 13  1  0  0  0  0
 13  7  2  0  0  0  0
 15 14  1  0  0  0  0
 16 17  2  0  0  0  0
 16 24  1  0  0  0  0
 17 18  1  0  0  0  0
 18 20  1  0  0  0  0
 18 19  1  0  0  0  0
 19 21  2  0  0  0  0
 20 22  2  0  0  0  0
 22 21  1  0  0  0  0
 23 20  1  0  0  0  0
 24 23  2  0  0  0  0
M  END
>  <Pose>
1

>  <Score>
-8.672

$$$$
