/Users/jonathanwahrer/Desktop/Msc/3_Semester/Drug_Design_Praktikum/waehrer_HTS_screening/HTS_experiment/out/docking_results/vina_output/6s1j/2330_docked.pdbqt
 OpenBabel03222222453D

 28 31  0  0  0  0  0  0  0  0999 V2000
   18.2160  -55.3870   33.8670 C   0  0  0  0  0  0  0  0  0  0  0  0
   17.5030  -55.0620   32.8900 O   0  0  0  0  0  0  0  0  0  0  0  0
   18.7860  -56.6610   33.9050 N   0  0  0  0  0  0  0  0  0  0  0  0
   19.3910  -56.8340   34.7850 H   0  0  0  0  0  0  0  0  0  0  0  0
   18.4070  -54.3790   34.9260 C   0  0  0  0  0  0  0  0  0  0  0  0
   19.4570  -53.4840   34.9020 C   0  0  0  0  0  0  0  0  0  0  0  0
   20.5770  -53.5820   33.5520 Cl  0  0  0  0  0  0  0  0  0  0  0  0
   19.6360  -52.5330   35.9030 C   0  0  0  0  0  3  0  0  0  0  0  0
   18.7410  -52.4890   36.9400 C   0  0  0  0  0  3  0  0  0  0  0  0
   17.6600  -53.3740   37.0090 C   0  0  0  0  0  0  0  0  0  0  0  0
   17.5390  -54.2860   35.9930 C   0  0  0  0  0  3  0  0  0  0  0  0
   16.7320  -53.2940   38.1280 C   0  0  0  0  0  0  0  0  0  0  0  0
   16.5640  -52.3170   39.0250 N   0  0  0  0  0  0  0  0  0  0  0  0
   15.5900  -52.6720   39.8790 N   0  0  0  0  0  0  0  0  0  0  0  0
   15.1470  -53.8650   39.5260 N   0  0  0  0  0  0  0  0  0  0  0  0
   15.2320  -52.1170   40.6900 H   0  0  0  0  0  0  0  0  0  0  0  0
   15.8440  -54.2460   38.4540 N   0  0  0  0  0  0  0  0  0  0  0  0
   18.7050  -57.7400   33.0080 C   0  0  0  0  0  2  0  0  0  0  0  0
   17.6760  -58.7770   33.1590 C   0  0  0  0  0  2  0  0  0  0  0  0
   16.3500  -58.4130   33.6510 C   0  0  0  0  0  0  0  0  0  0  0  0
   15.9610  -58.2650   34.9210 N   0  0  0  0  0  0  0  0  0  0  0  0
   14.6920  -57.8890   34.9270 C   0  0  0  0  0  0  0  0  0  0  0  0
   16.6230  -58.4300   36.0840 C   0  0  0  0  0  3  0  0  0  0  0  0
   14.2870  -57.8020   33.6530 N   0  0  0  0  0  0  0  0  0  0  0  0
   13.9940  -57.6510   36.0920 C   0  0  0  0  0  3  0  0  0  0  0  0
   15.2930  -58.1210   32.8840 N   0  0  0  0  0  0  0  0  0  0  0  0
   14.6730  -57.8210   37.2840 C   0  0  0  0  0  3  0  0  0  0  0  0
   15.9850  -58.2110   37.2690 C   0  0  0  0  0  3  0  0  0  0  0  0
  1  3  1  0  0  0  0
  1  5  1  0  0  0  0
  2  1  2  0  0  0  0
  3  4  1  0  0  0  0
  5 11  1  0  0  0  0
  6  5  2  0  0  0  0
  6  8  1  0  0  0  0
  7  6  1  0  0  0  0
  8  9  2  0  0  0  0
  9 10  1  0  0  0  0
 10 12  1  0  0  0  0
 11 10  2  0  0  0  0
 12 17  1  0  0  0  0
 12 13  2  0  0  0  0
 13 14  1  0  0  0  0
 14 16  1  0  0  0  0
 15 14  1  0  0  0  0
 17 15  2  0  0  0  0
 18 19  1  0  0  0  0
 18  3  1  0  0  0  0
 19 20  1  0  0  0  0
 20 21  1  0  0  0  0
 21 22  1  0  0  0  0
 21 23  1  0  0  0  0
 22 25  1  0  0  0  0
 23 28  2  0  0  0  0
 24 22  2  0  0  0  0
 25 27  2  0  0  0  0
 26 20  2  0  0  0  0
 26 24  1  0  0  0  0
 28 27  1  0  0  0  0
M  END
>  <Pose>
1

>  <Score>
-9.460

$$$$
