/Users/jonathanwahrer/Desktop/Msc/3_Semester/Drug_Design_Praktikum/waehrer_HTS_screening/HTS_experiment/out/docking_results/vina_output/6s1j/2334_docked.pdbqt
 OpenBabel03222222453D

 30 33  0  0  1  0  0  0  0  0999 V2000
   19.5400  -53.9360   35.3500 S   0  0  0  0  0  0  0  0  0  0  0  0
   20.6920  -54.7120   35.9920 O   0  0  0  0  0  0  0  0  0  0  0  0
   20.2200  -52.7120   34.7250 O   0  0  0  0  0  0  0  0  0  0  0  0
   18.9050  -54.9320   34.1360 N   0  0  0  0  0  0  0  0  0  0  0  0
   17.5000  -54.8830   33.9380 C   0  0  0  0  0  2  0  0  0  0  0  0
   17.0230  -55.7750   32.8160 C   0  0  1  0  0  3  0  0  0  0  0  0
   17.7390  -55.4500   31.5510 C   0  0  0  0  0  2  0  0  0  0  0  0
   19.2440  -55.4020   31.7530 C   0  0  0  0  0  2  0  0  0  0  0  0
   19.5500  -54.4840   32.8840 C   0  0  0  0  0  2  0  0  0  0  0  0
   16.9830  -57.2110   33.1610 C   0  0  0  0  0  0  0  0  0  0  0  0
   18.1170  -57.8160   33.1040 O   0  0  0  0  0  0  0  0  0  0  0  0
   15.8770  -57.9610   33.5350 N   0  0  0  0  0  0  0  0  0  0  0  0
   15.9870  -59.3440   33.8800 C   0  0  0  0  0  2  0  0  0  0  0  0
   14.5520  -57.3940   33.5810 C   0  0  0  0  0  2  0  0  0  0  0  0
   15.0610  -59.7670   34.9860 C   0  0  0  0  0  2  0  0  0  0  0  0
   13.9500  -58.9990   35.1460 O   0  0  0  0  0  0  0  0  0  0  0  0
   14.1150  -57.6340   35.0360 C   0  0  0  0  0  2  0  0  0  0  0  0
   18.4640  -53.3810   36.5620 C   0  0  0  0  0  0  0  0  0  0  0  0
   18.4500  -52.0810   37.0040 C   0  0  0  0  0  0  0  0  0  0  0  0
   17.5110  -51.6780   37.9410 C   0  0  0  0  0  3  0  0  0  0  0  0
   19.6250  -50.8820   36.5080 Cl  0  0  0  0  0  0  0  0  0  0  0  0
   16.5670  -52.5700   38.4570 C   0  0  0  0  0  3  0  0  0  0  0  0
   16.5710  -53.8780   38.0240 C   0  0  0  0  0  0  0  0  0  0  0  0
   17.5100  -54.2580   37.0940 C   0  0  0  0  0  3  0  0  0  0  0  0
   15.6000  -54.8290   38.5460 C   0  0  0  0  0  0  0  0  0  0  0  0
   14.8160  -54.6520   39.6230 N   0  0  0  0  0  0  0  0  0  0  0  0
   14.0670  -55.7040   39.8050 O   0  0  0  0  0  0  0  0  0  0  0  0
   14.3320  -56.5820   38.8740 C   0  0  0  0  0  0  0  0  0  0  0  0
   15.2850  -56.0500   38.0840 N   0  0  0  0  0  0  0  0  0  0  0  0
   13.7010  -57.9360   38.7040 C   0  0  0  0  0  1  0  0  0  0  0  0
  1  2  2  0  0  0  0
  1 18  1  0  0  0  0
  3  1  2  0  0  0  0
  4  1  1  0  0  0  0
  5  4  1  0  0  0  0
  6 10  1  1  0  0  0
  6  5  1  0  0  0  0
  7  8  1  0  0  0  0
  7  6  1  0  0  0  0
  8  9  1  0  0  0  0
  9  4  1  0  0  0  0
 10 12  1  0  0  0  0
 11 10  2  0  0  0  0
 12 14  1  0  0  0  0
 12 13  1  0  0  0  0
 13 15  1  0  0  0  0
 14 17  1  0  0  0  0
 15 16  1  0  0  0  0
 17 16  1  0  0  0  0
 18 19  2  0  0  0  0
 18 24  1  0  0  0  0
 19 20  1  0  0  0  0
 20 22  2  0  0  0  0
 21 19  1  0  0  0  0
 23 22  1  0  0  0  0
 23 25  1  0  0  0  0
 24 23  2  0  0  0  0
 25 26  2  0  0  0  0
 26 27  1  0  0  0  0
 28 27  1  0  0  0  0
 29 25  1  0  0  0  0
 29 28  2  0  0  0  0
 30 28  1  0  0  0  0
M  END
>  <Pose>
1

>  <Score>
-10.843

$$$$
