/Users/jonathanwahrer/Desktop/Msc/3_Semester/Drug_Design_Praktikum/waehrer_HTS_screening/HTS_experiment/out/docking_results/vina_output/6s1j/2335_docked.pdbqt
 OpenBabel03222222463D

 35 38  0  0  1  0  0  0  0  0999 V2000
   16.9290  -57.4740   34.2030 N   0  0  0  0  0  0  0  0  0  0  0  0
   15.5760  -57.7090   33.8890 C   0  0  0  0  0  2  0  0  0  0  0  0
   14.6310  -57.4500   35.0430 C   0  0  2  0  0  3  0  0  0  0  0  0
   15.2420  -57.6330   36.3790 C   0  0  0  0  0  2  0  0  0  0  0  0
   16.5200  -58.3850   36.4420 C   0  0  0  0  0  3  0  0  0  0  0  0
   17.4740  -58.1460   35.2980 C   0  0  0  0  0  3  0  0  0  0  0  0
   17.8080  -56.3700   33.3240 S   0  0  0  0  0  0  0  0  0  0  0  0
   16.9800  -55.9380   32.1160 O   0  0  0  0  0  0  0  0  0  0  0  0
   18.9980  -57.0880   32.7000 O   0  0  0  0  0  0  0  0  0  0  0  0
   18.3940  -54.9880   34.1720 C   0  0  0  0  0  0  0  0  0  0  0  0
   17.8060  -54.5990   35.3660 C   0  0  0  0  0  3  0  0  0  0  0  0
   18.2440  -53.5150   36.0870 C   0  0  0  0  0  0  0  0  0  0  0  0
   19.3240  -52.7710   35.5980 C   0  0  0  0  0  0  0  0  0  0  0  0
   17.8730  -52.8880   37.3070 N   0  0  0  0  0  0  0  0  0  0  0  0
   19.8930  -53.1590   34.4290 C   0  0  0  0  0  3  0  0  0  0  0  0
   19.6380  -51.6460   36.5200 C   0  0  0  0  0  2  0  0  0  0  0  0
   19.4510  -54.2530   33.7050 C   0  0  0  0  0  0  0  0  0  0  0  0
   20.3370  -54.7060   32.0510 Br  0  0  0  0  0  0  0  0  0  0  0  0
   18.3300  -51.4940   37.2700 C   0  0  0  0  0  2  0  0  0  0  0  0
   17.1950  -53.4420   38.3900 C   0  0  0  0  0  0  0  0  0  0  0  0
   16.9860  -52.7360   39.4360 O   0  0  0  0  0  0  0  0  0  0  0  0
   16.6890  -54.8130   38.4250 C   0  0  0  0  0  2  0  0  0  0  0  0
   15.2070  -54.8670   38.7880 C   0  0  0  0  0  1  0  0  0  0  0  0
   13.4070  -58.2820   34.9220 C   0  0  0  0  0  0  0  0  0  0  0  0
   12.8360  -58.3320   33.8050 O   0  0  0  0  0  0  0  0  0  0  0  0
   12.8990  -59.0080   36.0640 N   0  0  0  0  0  0  0  0  0  0  0  0
   13.4340  -58.8910   36.9280 H   0  0  0  0  0  0  0  0  0  0  0  0
   11.7270  -59.7830   35.8750 C   0  0  0  0  0  2  0  0  0  0  0  0
   11.1400  -60.4920   37.0360 C   0  0  0  0  0  2  0  0  0  0  0  0
   11.1150  -59.8510   38.2980 N   0  0  0  0  0  0  0  0  0  0  0  0
   11.9580  -60.3240   39.2970 C   0  0  0  0  0  2  0  0  0  0  0  0
   11.3000  -60.9400   40.4970 C   0  0  0  0  0  2  0  0  0  0  0  0
   10.1570  -60.2590   40.8870 O   0  0  0  0  0  0  0  0  0  0  0  0
    9.2510  -60.3720   39.8320 C   0  0  0  0  0  2  0  0  0  0  0  0
    9.7750  -59.5050   38.7110 C   0  0  0  0  0  2  0  0  0  0  0  0
  1  6  1  0  0  0  0
  2  1  1  0  0  0  0
  2  3  1  0  0  0  0
  3 24  1  6  0  0  0
  3  4  1  0  0  0  0
  4  5  1  0  0  0  0
  6  5  2  0  0  0  0
  7 10  1  0  0  0  0
  7  1  1  0  0  0  0
  8  7  2  0  0  0  0
  9  7  2  0  0  0  0
 10 11  1  0  0  0  0
 11 12  2  0  0  0  0
 12 14  1  0  0  0  0
 13 12  1  0  0  0  0
 13 16  1  0  0  0  0
 14 20  1  0  0  0  0
 15 13  2  0  0  0  0
 16 19  1  0  0  0  0
 17 10  2  0  0  0  0
 17 15  1  0  0  0  0
 18 17  1  0  0  0  0
 19 14  1  0  0  0  0
 20 22  1  0  0  0  0
 20 21  2  0  0  0  0
 22 23  1  0  0  0  0
 24 26  1  0  0  0  0
 25 24  2  0  0  0  0
 26 27  1  0  0  0  0
 28 26  1  0  0  0  0
 28 29  1  0  0  0  0
 29 30  1  0  0  0  0
 30 35  1  0  0  0  0
 30 31  1  0  0  0  0
 31 32  1  0  0  0  0
 32 33  1  0  0  0  0
 34 33  1  0  0  0  0
 35 34  1  0  0  0  0
M  END
>  <Pose>
1

>  <Score>
-9.646

$$$$
