/Users/jonathanwahrer/Desktop/Msc/3_Semester/Drug_Design_Praktikum/waehrer_HTS_screening/HTS_experiment/out/docking_results/vina_output/6s1j/2345_docked.pdbqt
 OpenBabel03222222463D

 27 30  0  0  1  0  0  0  0  0999 V2000
   19.5660  -52.2450   36.0700 C   0  0  0  0  0  0  0  0  0  0  0  0
   19.6780  -51.0880   35.5160 O   0  0  0  0  0  0  0  0  0  0  0  0
   19.9160  -53.3440   35.2790 N   0  0  0  0  0  0  0  0  0  0  0  0
   20.3660  -53.1480   33.9100 C   0  0  0  0  0  2  0  0  0  0  0  0
   19.4850  -53.9300   32.9400 C   0  0  0  0  0  2  0  0  0  0  0  0
   19.0740  -55.1520   33.5660 N   0  0  0  0  0  0  0  0  0  0  0  0
   19.9020  -55.7130   34.5900 C   0  0  0  0  0  2  0  0  0  0  0  0
   19.8600  -54.7050   35.7560 C   0  0  0  0  0  2  0  0  0  0  0  0
   19.0840  -52.2700   37.4560 C   0  0  2  0  0  3  0  0  0  0  0  0
   18.7910  -53.6400   38.0020 C   0  0  0  0  0  2  0  0  0  0  0  0
   17.3490  -53.7030   38.2050 N   0  0  0  0  0  0  0  0  0  0  0  0
   16.9330  -52.3340   38.4030 C   0  0  0  0  0  0  0  0  0  0  0  0
   17.8940  -51.4180   37.7450 C   0  0  0  0  0  2  0  0  0  0  0  0
   15.8760  -52.0650   39.0620 O   0  0  0  0  0  0  0  0  0  0  0  0
   16.5100  -54.8530   38.2120 C   0  0  0  0  0  0  0  0  0  0  0  0
   15.5400  -55.0510   39.1720 C   0  0  0  0  0  3  0  0  0  0  0  0
   14.7270  -56.1690   39.1840 C   0  0  0  0  0  3  0  0  0  0  0  0
   14.8650  -57.1320   38.2200 C   0  0  0  0  0  0  0  0  0  0  0  0
   13.8360  -58.5640   38.2210 Cl  0  0  0  0  0  0  0  0  0  0  0  0
   15.8170  -56.9680   37.2530 C   0  0  0  0  0  3  0  0  0  0  0  0
   16.6380  -55.8310   37.2490 C   0  0  0  0  0  3  0  0  0  0  0  0
   17.8740  -55.7920   33.1900 C   0  0  0  0  0  0  0  0  0  0  0  0
   17.7200  -56.7200   32.2060 N   0  0  0  0  0  0  0  0  0  0  0  0
   16.4340  -57.0940   32.1570 C   0  0  0  0  0  3  0  0  0  0  0  0
   18.7910  -57.2260   31.3380 C   0  0  0  0  0  1  0  0  0  0  0  0
   15.7470  -56.3960   33.1220 C   0  0  0  0  0  3  0  0  0  0  0  0
   16.6440  -55.6290   33.7160 N   0  0  0  0  0  0  0  0  0  0  0  0
  2  1  2  0  0  0  0
  3  8  1  0  0  0  0
  3  1  1  0  0  0  0
  4  3  1  0  0  0  0
  5  6  1  0  0  0  0
  5  4  1  0  0  0  0
  6  7  1  0  0  0  0
  7  8  1  0  0  0  0
  9  1  1  6  0  0  0
  9 13  1  0  0  0  0
  9 10  1  0  0  0  0
 10 11  1  0  0  0  0
 11 15  1  0  0  0  0
 11 12  1  0  0  0  0
 12 14  2  0  0  0  0
 13 12  1  0  0  0  0
 15 16  1  0  0  0  0
 16 17  2  0  0  0  0
 18 19  1  0  0  0  0
 18 17  1  0  0  0  0
 20 18  2  0  0  0  0
 21 20  1  0  0  0  0
 21 15  2  0  0  0  0
 22  6  1  0  0  0  0
 22 27  2  0  0  0  0
 23 22  1  0  0  0  0
 24 23  1  0  0  0  0
 24 26  2  0  0  0  0
 25 23  1  0  0  0  0
 26 27  1  0  0  0  0
M  END
>  <Pose>
1

>  <Score>
-9.123

$$$$
