/Users/jonathanwahrer/Desktop/Msc/3_Semester/Drug_Design_Praktikum/waehrer_HTS_screening/HTS_experiment/out/docking_results/vina_output/6s1j/2359_docked.pdbqt
 OpenBabel03222222473D

 32 35  0  0  1  0  0  0  0  0999 V2000
   19.2370  -54.8930   33.8060 N   0  0  0  0  0  0  0  0  0  0  0  0
   20.0160  -53.9400   33.0650 C   0  0  0  0  0  0  0  0  0  0  0  0
   20.3800  -52.8390   33.5800 O   0  0  0  0  0  0  0  0  0  0  0  0
   20.3570  -54.2930   31.7320 N   0  0  0  0  0  0  0  0  0  0  0  0
   19.9290  -55.5540   31.1700 C   0  0  0  0  0  0  0  0  0  0  0  0
   20.5980  -55.9990   30.2290 O   0  0  0  0  0  0  0  0  0  0  0  0
   18.7660  -56.2210   31.7230 C   0  0  2  0  0  3  0  0  0  0  0  0
   18.8420  -56.1190   33.2110 C   0  0  0  0  0  0  0  0  0  0  0  0
   18.5730  -57.0670   33.9920 O   0  0  0  0  0  0  0  0  0  0  0  0
   20.9180  -53.6200   31.1820 H   0  0  0  0  0  0  0  0  0  0  0  0
   18.4690  -57.5580   31.2620 C   0  0  2  0  0  3  0  0  0  0  0  0
   17.3060  -58.1030   30.9890 C   0  0  0  0  0  2  0  0  0  0  0  0
   17.4610  -59.5090   30.5420 C   0  0  2  0  0  3  0  0  0  0  0  0
   18.8870  -59.6210   30.3340 N   0  0  0  0  0  0  0  0  0  0  0  0
   19.4750  -58.5650   31.0270 N   0  0  0  0  0  0  0  0  0  0  0  0
   19.1490  -59.6510   29.3260 H   0  0  0  0  0  0  0  0  0  0  0  0
   20.4800  -58.5630   31.3020 H   0  0  0  0  0  0  0  0  0  0  0  0
   16.7990  -59.7850   29.2620 C   0  0  0  0  0  0  0  0  0  0  0  0
   15.6680  -60.5870   29.2710 C   0  0  0  0  0  3  0  0  0  0  0  0
   15.0220  -60.8630   28.0880 C   0  0  0  0  0  0  0  0  0  0  0  0
   15.4680  -60.3640   26.8870 C   0  0  0  0  0  3  0  0  0  0  0  0
   16.5890  -59.5670   26.8610 C   0  0  0  0  0  3  0  0  0  0  0  0
   17.2420  -59.2890   28.0630 C   0  0  0  0  0  3  0  0  0  0  0  0
   13.8770  -61.6720   28.0840 O   0  0  0  0  0  0  0  0  0  0  0  0
   13.5600  -62.0660   27.2160 H   0  0  0  0  0  0  0  0  0  0  0  0
   18.8870  -54.5400   35.1630 C   0  0  0  0  0  0  0  0  0  0  0  0
   17.6010  -54.1690   35.5050 C   0  0  0  0  0  3  0  0  0  0  0  0
   17.2350  -53.8220   36.7920 C   0  0  0  0  0  3  0  0  0  0  0  0
   18.1910  -53.8440   37.7980 C   0  0  0  0  0  0  0  0  0  0  0  0
   17.7010  -53.4030   39.4080 Cl  0  0  0  0  0  0  0  0  0  0  0  0
   19.4940  -54.2140   37.4770 C   0  0  0  0  0  3  0  0  0  0  0  0
   19.8240  -54.5540   36.1780 C   0  0  0  0  0  3  0  0  0  0  0  0
  1 26  1  0  0  0  0
  2  3  2  0  0  0  0
  2  1  1  0  0  0  0
  4  2  1  0  0  0  0
  5  4  1  0  0  0  0
  6  5  2  0  0  0  0
  7  5  1  6  0  0  0
  7  8  1  0  0  0  0
  8  1  1  0  0  0  0
  8  9  2  0  0  0  0
 10  4  1  0  0  0  0
 11 12  1  1  0  0  0
 11  7  1  0  0  0  0
 13 18  1  6  0  0  0
 13 12  1  0  0  0  0
 14 13  1  0  0  0  0
 14 15  1  0  0  0  0
 15 11  1  0  0  0  0
 15 17  1  0  0  0  0
 16 14  1  0  0  0  0
 18 19  1  0  0  0  0
 20 19  2  0  0  0  0
 21 20  1  0  0  0  0
 22 21  2  0  0  0  0
 22 23  1  0  0  0  0
 23 18  2  0  0  0  0
 24 20  1  0  0  0  0
 25 24  1  0  0  0  0
 26 27  2  0  0  0  0
 26 32  1  0  0  0  0
 27 28  1  0  0  0  0
 28 29  2  0  0  0  0
 29 30  1  0  0  0  0
 31 29  1  0  0  0  0
 32 31  2  0  0  0  0
M  END
>  <Pose>
1

>  <Score>
-9.677

$$$$
