/Users/jonathanwahrer/Desktop/Msc/3_Semester/Drug_Design_Praktikum/waehrer_HTS_screening/HTS_experiment/out/docking_results/vina_output/6s1j/2364_docked.pdbqt
 OpenBabel03222222483D

 33 37  0  0  1  0  0  0  0  0999 V2000
   17.6210  -58.6200   32.7320 N   0  0  0  0  0  0  0  0  0  0  0  0
   17.3370  -57.9250   31.5240 C   0  0  0  0  0  0  0  0  0  0  0  0
   16.8880  -58.5700   30.5230 O   0  0  0  0  0  0  0  0  0  0  0  0
   17.5320  -56.4810   31.3600 C   0  0  1  0  0  3  0  0  0  0  0  0
   18.2490  -55.8460   32.4160 N   0  0  1  0  0  0  0  0  0  0  0  0
   18.0720  -56.3900   33.7230 C   0  0  2  0  0  0  0  0  0  0  0  0
   16.9100  -55.8420   34.5150 C   0  0  0  0  0  2  0  0  0  0  0  0
   17.8250  -55.2060   35.4070 N   0  0  0  0  0  0  0  0  0  0  0  0
   18.9640  -55.6500   34.7060 C   0  0  0  0  0  2  0  0  0  0  0  0
   18.2120  -57.8680   33.7850 C   0  0  0  0  0  0  0  0  0  0  0  0
   18.8190  -58.4650   34.7100 O   0  0  0  0  0  0  0  0  0  0  0  0
   19.6440  -55.8530   32.0790 C   0  0  0  0  0  2  0  0  0  0  0  0
   19.7910  -56.4640   30.7140 C   0  0  1  0  0  3  0  0  0  0  0  0
   18.4210  -56.2950   30.1220 C   0  0  0  0  0  2  0  0  0  0  0  0
   17.6490  -53.8360   35.7240 C   0  0  0  0  0  2  0  0  0  0  0  0
   17.0270  -53.5470   37.0210 C   0  0  0  0  0  0  0  0  0  0  0  0
   16.1680  -54.4550   37.5890 C   0  0  0  0  0  3  0  0  0  0  0  0
   15.5610  -54.2050   38.8230 C   0  0  0  0  0  0  0  0  0  0  0  0
   15.8340  -53.0250   39.4760 C   0  0  0  0  0  3  0  0  0  0  0  0
   16.6910  -52.0990   38.9310 C   0  0  0  0  0  3  0  0  0  0  0  0
   17.2790  -52.3800   37.6990 C   0  0  0  0  0  3  0  0  0  0  0  0
   14.6960  -55.1160   39.3970 O   0  0  0  0  0  0  0  0  0  0  0  0
   14.9290  -56.4960   39.1840 C   0  0  0  0  0  1  0  0  0  0  0  0
   17.3300  -60.0330   32.8980 C   0  0  0  0  0  2  0  0  0  0  0  0
   15.9360  -60.2080   33.4350 C   0  0  0  0  0  0  0  0  0  0  0  0
   15.4740  -59.4260   34.4700 C   0  0  0  0  0  3  0  0  0  0  0  0
   14.2000  -59.5670   34.9810 C   0  0  0  0  0  0  0  0  0  0  0  0
   13.6460  -58.5550   36.2970 Cl  0  0  0  0  0  0  0  0  0  0  0  0
   13.3510  -60.5120   34.4570 C   0  0  0  0  0  3  0  0  0  0  0  0
   13.8330  -61.2830   33.4230 C   0  0  0  0  0  3  0  0  0  0  0  0
   15.0850  -61.1550   32.9100 C   0  0  0  0  0  3  0  0  0  0  0  0
   20.7800  -55.8560   29.9520 O   0  0  0  0  0  0  0  0  0  0  0  0
   21.6440  -56.2450   30.2300 H   0  0  0  0  0  0  0  0  0  0  0  0
  1 24  1  0  0  0  0
  1 10  1  0  0  0  0
  2  1  1  0  0  0  0
  3  2  2  0  0  0  0
  4 14  1  6  0  0  0
  4  2  1  0  0  0  0
  4  5  1  0  0  0  0
  5 12  1  6  0  0  0
  5  6  1  0  0  0  0
  6 10  1  0  0  0  0
  6  7  1  1  0  0  0
  6  9  1  0  0  0  0
  7  8  1  0  0  0  0
  8 15  1  0  0  0  0
  9  8  1  0  0  0  0
 10 11  2  0  0  0  0
 13 32  1  6  0  0  0
 13 12  1  0  0  0  0
 14 13  1  0  0  0  0
 15 16  1  0  0  0  0
 16 17  2  0  0  0  0
 16 21  1  0  0  0  0
 17 18  1  0  0  0  0
 18 22  1  0  0  0  0
 18 19  2  0  0  0  0
 20 19  1  0  0  0  0
 21 20  2  0  0  0  0
 23 22  1  0  0  0  0
 24 25  1  0  0  0  0
 25 26  1  0  0  0  0
 26 27  2  0  0  0  0
 27 28  1  0  0  0  0
 29 27  1  0  0  0  0
 30 29  2  0  0  0  0
 31 30  1  0  0  0  0
 31 25  2  0  0  0  0
 32 33  1  0  0  0  0
M  END
>  <Pose>
1

>  <Score>
-9.479

$$$$
