/Users/jonathanwahrer/Desktop/Msc/3_Semester/Drug_Design_Praktikum/waehrer_HTS_screening/HTS_experiment/out/docking_results/vina_output/6s1j/2365_docked.pdbqt
 OpenBabel03222222483D

 32 36  0  0  1  0  0  0  0  0999 V2000
   14.3690  -56.6020   38.0710 N   0  0  0  0  0  0  0  0  0  0  0  0
   14.9850  -55.5520   38.7700 C   0  0  0  0  0  0  0  0  0  0  0  0
   14.5370  -55.2510   39.9180 O   0  0  0  0  0  0  0  0  0  0  0  0
   14.7290  -56.8630   37.1210 H   0  0  0  0  0  0  0  0  0  0  0  0
   16.1300  -54.7640   38.2580 C   0  0  1  0  0  0  0  0  0  0  0  0
   16.6480  -55.3540   36.9610 C   0  0  0  0  0  2  0  0  0  0  0  0
   17.8170  -54.5660   36.4440 C   0  0  1  0  0  0  0  0  0  0  0  0
   17.3070  -53.1560   36.1360 C   0  0  0  0  0  2  0  0  0  0  0  0
   18.9290  -54.4430   37.4390 C   0  0  0  0  0  2  0  0  0  0  0  0
   16.7690  -52.5350   37.3850 C   0  0  1  0  0  3  0  0  0  0  0  0
   15.6400  -53.3660   37.9490 C   0  0  0  0  0  2  0  0  0  0  0  0
   17.8800  -52.4380   38.4060 C   0  0  0  0  0  2  0  0  0  0  0  0
   18.3630  -53.8390   38.6990 C   0  0  1  0  0  3  0  0  0  0  0  0
   17.2470  -54.6690   39.2740 C   0  0  0  0  0  2  0  0  0  0  0  0
   18.2460  -55.1930   35.2090 N   0  0  0  0  0  0  0  0  0  0  0  0
   18.1470  -56.4500   34.8150 N   0  0  0  0  0  0  0  0  0  0  0  0
   18.6520  -56.6320   33.6320 N   0  0  0  0  0  0  0  0  0  0  0  0
   19.1110  -55.4690   33.2040 C   0  0  0  0  0  3  0  0  0  0  0  0
   18.8570  -54.5640   34.1910 N   0  0  0  0  0  0  0  0  0  0  0  0
   13.3070  -57.2950   38.6060 N   0  0  0  0  0  0  0  0  0  0  0  0
   12.6880  -58.4150   38.0020 C   0  0  0  0  0  0  0  0  0  0  0  0
   13.0890  -58.8620   36.8970 O   0  0  0  0  0  0  0  0  0  0  0  0
   12.9130  -56.9790   39.5360 H   0  0  0  0  0  0  0  0  0  0  0  0
   11.5380  -59.1260   38.6330 C   0  0  1  0  0  3  0  0  0  0  0  0
   10.7080  -59.8620   37.6370 C   0  0  0  0  0  1  0  0  0  0  0  0
   12.0570  -60.0410   39.7180 C   0  0  0  0  0  2  0  0  0  0  0  0
   11.3890  -59.8380   40.9820 N   0  0  0  0  0  0  0  0  0  0  0  0
   10.2790  -59.0970   41.2310 C   0  0  0  0  0  3  0  0  0  0  0  0
    9.9680  -59.1680   42.5750 C   0  0  0  0  0  0  0  0  0  0  0  0
    8.5330  -58.3500   43.5250 Br  0  0  0  0  0  0  0  0  0  0  0  0
   10.9510  -59.9940   43.1260 C   0  0  0  0  0  3  0  0  0  0  0  0
   11.7660  -60.3580   42.1190 N   0  0  0  0  0  0  0  0  0  0  0  0
  1 20  1  0  0  0  0
  1  2  1  0  0  0  0
  2  3  2  0  0  0  0
  4  1  1  0  0  0  0
  5  2  1  1  0  0  0
  5 14  1  0  0  0  0
  6  5  1  0  0  0  0
  7 15  1  6  0  0  0
  7  6  1  0  0  0  0
  7  9  1  0  0  0  0
  8  7  1  0  0  0  0
 10  8  1  6  0  0  0
 10 11  1  0  0  0  0
 10 12  1  0  0  0  0
 11  5  1  0  0  0  0
 12 13  1  0  0  0  0
 13  9  1  6  0  0  0
 13 14  1  0  0  0  0
 16 15  1  0  0  0  0
 17 16  2  0  0  0  0
 18 17  1  0  0  0  0
 18 19  2  0  0  0  0
 19 15  1  0  0  0  0
 20 23  1  0  0  0  0
 21 20  1  0  0  0  0
 21 24  1  0  0  0  0
 22 21  2  0  0  0  0
 24 25  1  6  0  0  0
 24 26  1  0  0  0  0
 26 27  1  0  0  0  0
 27 28  1  0  0  0  0
 27 32  1  0  0  0  0
 28 29  2  0  0  0  0
 29 31  1  0  0  0  0
 29 30  1  0  0  0  0
 32 31  2  0  0  0  0
M  END
>  <Pose>
1

>  <Score>
-9.315

$$$$
