/Users/jonathanwahrer/Desktop/Msc/3_Semester/Drug_Design_Praktikum/waehrer_HTS_screening/HTS_experiment/out/docking_results/vina_output/6s1j/2375_docked.pdbqt
 OpenBabel03222222493D

 37 40  0  0  1  0  0  0  0  0999 V2000
   17.7490  -59.4080   30.6070 C   0  0  0  0  0  0  0  0  0  0  0  0
   17.9380  -60.3220   29.5200 C   0  0  0  0  0  1  0  0  0  0  0  0
   18.1720  -57.9580   30.4110 C   0  0  0  0  0  0  0  0  0  0  0  0
   18.4160  -57.1320   31.5340 N   0  0  0  0  0  0  0  0  0  0  0  0
   18.4750  -55.7070   31.5450 C   0  0  0  0  0  3  0  0  0  0  0  0
   18.9520  -57.7640   32.7560 C   0  0  0  0  0  2  0  0  0  0  0  0
   17.9990  -55.0420   32.8130 C   0  0  0  0  0  3  0  0  0  0  0  0
   17.6860  -55.9090   33.9580 C   0  0  1  0  0  0  0  0  0  0  0  0
   18.3360  -57.2710   33.9700 C   0  0  0  0  0  2  0  0  0  0  0  0
   18.3000  -57.5310   29.2670 O   0  0  0  0  0  0  0  0  0  0  0  0
   18.0130  -55.3170   35.2750 C   0  0  0  0  0  0  0  0  0  0  0  0
   17.0530  -55.4600   36.2660 C   0  0  0  0  0  3  0  0  0  0  0  0
   17.2540  -54.9700   37.5650 C   0  0  0  0  0  3  0  0  0  0  0  0
   18.4310  -54.3320   37.8830 C   0  0  0  0  0  0  0  0  0  0  0  0
   18.7110  -53.7210   39.5310 Cl  0  0  0  0  0  0  0  0  0  0  0  0
   19.3890  -54.1910   36.8940 C   0  0  0  0  0  3  0  0  0  0  0  0
   19.1630  -54.6810   35.6140 C   0  0  0  0  0  3  0  0  0  0  0  0
   16.2730  -56.1180   33.9470 O   0  0  0  0  0  0  0  0  0  0  0  0
   15.8060  -55.4100   34.4230 H   0  0  0  0  0  0  0  0  0  0  0  0
   16.5950  -59.4590   31.4740 N   0  0  0  0  0  4  0  0  0  0  0  0
   16.4840  -60.2520   32.6150 C   0  0  0  0  0  0  0  0  0  0  0  0
   17.6190  -61.0260   32.7470 O   0  0  0  0  0  0  0  0  0  0  0  0
   15.6050  -60.4810   33.6630 C   0  0  0  0  0  2  0  0  0  0  0  0
   15.8040  -58.8470   31.0810 H   0  0  0  0  0  0  0  0  0  0  0  0
   14.5310  -60.1590   34.3200 C   0  0  1  0  0  3  0  0  0  0  0  0
   13.2300  -60.6550   33.8510 N   0  0  0  0  0  0  0  0  0  0  0  0
   12.0480  -60.4430   34.5320 N   0  0  0  0  0  0  0  0  0  0  0  0
   13.2510  -61.1980   32.9450 H   0  0  0  0  0  0  0  0  0  0  0  0
   11.9990  -59.7370   35.7230 C   0  0  0  0  0  0  0  0  0  0  0  0
   11.1480  -60.8300   34.1340 H   0  0  0  0  0  0  0  0  0  0  0  0
   10.9460  -59.5140   36.3720 O   0  0  0  0  0  0  0  0  0  0  0  0
   13.2640  -59.1950   36.2770 C   0  0  0  0  0  0  0  0  0  0  0  0
   14.4180  -59.4320   35.5690 C   0  0  0  0  0  0  0  0  0  0  0  0
   13.2240  -58.5620   37.4950 C   0  0  0  0  0  3  0  0  0  0  0  0
   15.5960  -58.9910   36.1810 C   0  0  0  0  0  3  0  0  0  0  0  0
   15.5730  -58.3500   37.4110 C   0  0  0  0  0  3  0  0  0  0  0  0
   14.3960  -58.1270   38.0760 C   0  0  0  0  0  3  0  0  0  0  0  0
  1 20  2  3  0  0  0
  2  1  1  0  0  0  0
  3  1  1  0  0  0  0
  3  4  1  0  0  0  0
  4  5  1  0  0  0  0
  4  6  1  0  0  0  0
  5  7  2  0  0  0  0
  6  9  1  0  0  0  0
  7  8  1  0  0  0  0
  8 18  1  6  0  0  0
  8  9  1  0  0  0  0
  8 11  1  0  0  0  0
 10  3  2  0  0  0  0
 11 17  2  0  0  0  0
 11 12  1  0  0  0  0
 12 13  2  0  0  0  0
 13 14  1  0  0  0  0
 14 15  1  0  0  0  0
 16 14  2  0  0  0  0
 17 16  1  0  0  0  0
 18 19  1  0  0  0  0
 20 21  1  0  0  0  0
 21 22  2  0  0  0  0
 21 23  1  0  0  0  0
 24 20  1  0  0  0  0
 25 23  1  1  0  0  0
 25 33  1  0  0  0  0
 26 25  1  0  0  0  0
 26 27  1  0  0  0  0
 27 29  1  0  0  0  0
 28 26  1  0  0  0  0
 29 32  1  0  0  0  0
 29 31  2  0  0  0  0
 30 27  1  0  0  0  0
 32 34  1  0  0  0  0
 33 35  1  0  0  0  0
 33 32  2  0  0  0  0
 34 37  2  0  0  0  0
 35 36  2  0  0  0  0
 36 37  1  0  0  0  0
M  END
>  <Pose>
1

>  <Score>
-9.836

$$$$
