/Users/jonathanwahrer/Desktop/Msc/3_Semester/Drug_Design_Praktikum/waehrer_HTS_screening/HTS_experiment/out/docking_results/vina_output/6s1j/2377_docked.pdbqt
 OpenBabel03222222493D

 33 36  0  0  0  0  0  0  0  0999 V2000
   14.3070  -58.8510   34.4970 N   0  0  0  0  0  0  0  0  0  0  0  0
   14.0200  -57.7330   33.6040 C   0  0  0  0  0  2  0  0  0  0  0  0
   15.2460  -56.8870   33.3420 C   0  0  0  0  0  2  0  0  0  0  0  0
   16.4060  -57.6670   33.6960 N   0  0  0  0  0  0  0  0  0  0  0  0
   16.3990  -59.0490   33.2500 C   0  0  0  0  0  2  0  0  0  0  0  0
   15.3750  -59.7850   34.1130 C   0  0  0  0  0  2  0  0  0  0  0  0
   17.5050  -57.1680   34.4260 C   0  0  0  0  0  0  0  0  0  0  0  0
   18.4630  -57.9310   34.6790 O   0  0  0  0  0  0  0  0  0  0  0  0
   13.5970  -58.9920   35.7040 C   0  0  0  0  0  0  0  0  0  0  0  0
   13.9310  -58.3370   36.8700 C   0  0  0  0  0  0  0  0  0  0  0  0
   15.3520  -57.3230   36.8640 Cl  0  0  0  0  0  0  0  0  0  0  0  0
   13.1610  -58.4940   38.0260 C   0  0  0  0  0  0  0  0  0  0  0  0
   12.0750  -59.2760   38.0720 N   0  0  0  0  0  0  0  0  0  0  0  0
   13.5280  -57.8650   39.0500 O   0  0  0  0  0  0  0  0  0  0  0  0
   11.7630  -59.8990   36.9550 N   0  0  0  0  0  0  0  0  0  0  0  0
   12.4530  -59.7970   35.8040 C   0  0  0  0  0  3  0  0  0  0  0  0
   11.2870  -59.4420   39.2470 C   0  0  0  0  0  0  0  0  0  0  0  0
   11.8390  -59.8470   40.4530 C   0  0  0  0  0  3  0  0  0  0  0  0
   11.0900  -60.0120   41.6000 C   0  0  0  0  0  3  0  0  0  0  0  0
    9.7350  -59.7610   41.5360 C   0  0  0  0  0  3  0  0  0  0  0  0
    9.1520  -59.3560   40.3490 C   0  0  0  0  0  3  0  0  0  0  0  0
    9.9390  -59.1970   39.2020 C   0  0  0  0  0  3  0  0  0  0  0  0
   17.5910  -55.7720   34.9170 C   0  0  0  0  0  2  0  0  0  0  0  0
   18.9510  -55.1820   34.6210 C   0  0  0  0  0  2  0  0  0  0  0  0
   19.6740  -54.7550   35.8630 C   0  0  0  0  0  2  0  0  0  0  0  0
   19.0660  -53.6300   36.5390 N   0  0  0  0  0  0  0  0  0  0  0  0
   18.0450  -53.6950   37.5170 C   0  0  0  0  0  0  0  0  0  0  0  0
   17.4890  -54.7530   37.9650 O   0  0  0  0  0  0  0  0  0  0  0  0
   17.6860  -52.4080   37.9720 N   0  0  0  0  0  0  0  0  0  0  0  0
   18.4880  -51.4370   37.2620 C   0  0  0  0  0  2  0  0  0  0  0  0
   16.6890  -52.0960   38.9760 C   0  0  0  0  0  1  0  0  0  0  0  0
   19.3590  -52.2380   36.3730 C   0  0  0  0  0  0  0  0  0  0  0  0
   20.2210  -51.7810   35.5930 O   0  0  0  0  0  0  0  0  0  0  0  0
  1  9  1  0  0  0  0
  2  1  1  0  0  0  0
  3  2  1  0  0  0  0
  3  4  1  0  0  0  0
  4  7  1  0  0  0  0
  5  4  1  0  0  0  0
  5  6  1  0  0  0  0
  6  1  1  0  0  0  0
  7  8  2  0  0  0  0
  7 23  1  0  0  0  0
  9 16  1  0  0  0  0
  9 10  2  0  0  0  0
 10 12  1  0  0  0  0
 11 10  1  0  0  0  0
 12 13  1  0  0  0  0
 12 14  2  0  0  0  0
 13 17  1  0  0  0  0
 15 13  1  0  0  0  0
 16 15  2  0  0  0  0
 17 18  1  0  0  0  0
 18 19  2  0  0  0  0
 20 19  1  0  0  0  0
 21 20  2  0  0  0  0
 22 17  2  0  0  0  0
 22 21  1  0  0  0  0
 24 23  1  0  0  0  0
 24 25  1  0  0  0  0
 25 26  1  0  0  0  0
 26 27  1  0  0  0  0
 27 28  2  0  0  0  0
 27 29  1  0  0  0  0
 29 31  1  0  0  0  0
 30 29  1  0  0  0  0
 32 26  1  0  0  0  0
 32 30  1  0  0  0  0
 33 32  2  0  0  0  0
M  END
>  <Pose>
1

>  <Score>
-8.987

$$$$
