/Users/jonathanwahrer/Desktop/Msc/3_Semester/Drug_Design_Praktikum/waehrer_HTS_screening/HTS_experiment/out/docking_results/vina_output/6s1j/2380_docked.pdbqt
 OpenBabel03222222493D

 27 30  0  0  1  0  0  0  0  0999 V2000
   20.3530  -54.1060   32.4560 Cl  0  0  0  0  0  0  0  0  0  0  0  0
   19.1630  -54.8090   33.5460 C   0  0  0  0  0  0  0  0  0  0  0  0
   18.5330  -55.9640   33.1460 C   0  0  0  0  0  0  0  0  0  0  0  0
   17.6020  -56.4910   34.0260 C   0  0  0  0  0  3  0  0  0  0  0  0
   17.3570  -55.8770   35.1970 N   0  0  0  0  0  0  0  0  0  0  0  0
   17.9560  -54.7660   35.5940 N   0  0  0  0  0  0  0  0  0  0  0  0
   18.8650  -54.2280   34.7630 C   0  0  0  0  0  0  0  0  0  0  0  0
   19.4790  -53.1670   35.0750 O   0  0  0  0  0  0  0  0  0  0  0  0
   18.8500  -56.5420   31.8980 N   0  0  0  0  0  0  0  0  0  0  0  0
   18.2100  -56.1010   30.6640 C   0  0  0  0  0  2  0  0  0  0  0  0
   17.3460  -57.2960   30.2190 C   0  0  0  0  0  2  0  0  0  0  0  0
   18.1350  -58.4870   30.1610 N   0  0  0  0  0  0  0  0  0  0  0  0
   19.5830  -58.3450   30.4210 C   0  0  0  0  0  2  0  0  0  0  0  0
   17.6040  -59.7700   29.8670 C   0  0  0  0  0  0  0  0  0  0  0  0
   19.8220  -57.6060   31.7230 C   0  0  0  0  0  2  0  0  0  0  0  0
   18.3440  -60.7980   29.8270 O   0  0  0  0  0  0  0  0  0  0  0  0
   16.1740  -59.9980   29.5920 C   0  0  1  0  0  3  0  0  0  0  0  0
   15.8320  -59.5380   28.3570 O   0  0  0  0  0  0  0  0  0  0  0  0
   14.8150  -60.3420   27.8580 C   0  0  0  0  0  2  0  0  0  0  0  0
   15.3130  -61.7240   28.2530 C   0  0  0  0  0  2  0  0  0  0  0  0
   15.8030  -61.4620   29.6620 C   0  0  0  0  0  2  0  0  0  0  0  0
   17.6510  -54.1580   36.8580 C   0  0  0  0  0  0  0  0  0  0  0  0
   16.6360  -53.2290   36.9550 C   0  0  0  0  0  3  0  0  0  0  0  0
   16.3270  -52.6280   38.1790 C   0  0  0  0  0  3  0  0  0  0  0  0
   17.0340  -52.9560   39.3080 C   0  0  0  0  0  3  0  0  0  0  0  0
   18.0460  -53.8780   39.2260 C   0  0  0  0  0  3  0  0  0  0  0  0
   18.3360  -54.4590   38.0160 C   0  0  0  0  0  3  0  0  0  0  0  0
  1  2  1  0  0  0  0
  2  7  1  0  0  0  0
  3  2  2  0  0  0  0
  3  4  1  0  0  0  0
  4  5  2  0  0  0  0
  5  6  1  0  0  0  0
  6 22  1  0  0  0  0
  7  8  2  0  0  0  0
  7  6  1  0  0  0  0
  9  3  1  0  0  0  0
 10  9  1  0  0  0  0
 11 10  1  0  0  0  0
 12 11  1  0  0  0  0
 12 13  1  0  0  0  0
 13 15  1  0  0  0  0
 14 12  1  0  0  0  0
 15  9  1  0  0  0  0
 16 14  2  0  0  0  0
 17 21  1  0  0  0  0
 17 14  1  6  0  0  0
 18 17  1  0  0  0  0
 19 20  1  0  0  0  0
 19 18  1  0  0  0  0
 20 21  1  0  0  0  0
 22 23  2  0  0  0  0
 22 27  1  0  0  0  0
 23 24  1  0  0  0  0
 24 25  2  0  0  0  0
 26 25  1  0  0  0  0
 27 26  2  0  0  0  0
M  END
>  <Pose>
1

>  <Score>
-8.383

$$$$
