/Users/jonathanwahrer/Desktop/Msc/3_Semester/Drug_Design_Praktikum/waehrer_HTS_screening/HTS_experiment/out/docking_results/vina_output/6s1j/2386_docked.pdbqt
 OpenBabel03222222503D

 30 33  0  0  0  0  0  0  0  0999 V2000
   15.1020  -57.7860   36.0050 Cl  0  0  0  0  0  0  0  0  0  0  0  0
   16.3820  -57.6020   34.8110 C   0  0  0  0  0  0  0  0  0  0  0  0
   16.6730  -56.3070   34.3860 C   0  0  0  0  0  3  0  0  0  0  0  0
   17.6720  -56.1460   33.4530 C   0  0  0  0  0  0  0  0  0  0  0  0
   18.3570  -57.2490   32.9620 C   0  0  0  0  0  0  0  0  0  0  0  0
   18.0610  -58.5380   33.3900 C   0  0  0  0  0  3  0  0  0  0  0  0
   17.0570  -58.6980   34.3280 C   0  0  0  0  0  3  0  0  0  0  0  0
   19.3720  -57.1700   32.0230 O   0  0  0  0  0  0  0  0  0  0  0  0
   19.5900  -56.2240   31.0130 C   0  0  0  0  0  0  0  0  0  0  0  0
   19.7800  -54.8200   31.4610 C   0  0  0  0  0  2  0  0  0  0  0  0
   19.2320  -54.4720   32.7320 N   0  0  0  0  0  0  0  0  0  0  0  0
   17.8370  -54.7040   33.1280 C   0  0  0  0  0  2  0  0  0  0  0  0
   20.0730  -53.8480   33.6940 C   0  0  0  0  0  0  0  0  0  0  0  0
   21.2590  -53.6350   33.3560 O   0  0  0  0  0  0  0  0  0  0  0  0
   20.8340  -56.6590   30.2160 C   0  0  0  0  0  2  0  0  0  0  0  0
   20.6220  -58.1040   29.8530 C   0  0  0  0  0  2  0  0  0  0  0  0
   19.3620  -58.5610   30.2000 O   0  0  0  0  0  0  0  0  0  0  0  0
   18.3470  -57.8100   29.6350 C   0  0  0  0  0  2  0  0  0  0  0  0
   18.4550  -56.3420   29.9830 C   0  0  0  0  0  2  0  0  0  0  0  0
   19.5980  -53.4610   35.0140 C   0  0  0  0  0  3  0  0  0  0  0  0
   19.7400  -54.4260   36.1190 C   0  0  0  0  0  3  0  0  0  0  0  0
   19.4210  -54.0160   37.4960 C   0  0  0  0  0  2  0  0  0  0  0  0
   18.1080  -53.6170   37.8400 N   0  0  0  0  0  0  0  0  0  0  0  0
   17.0010  -54.4840   38.0150 C   0  0  0  0  0  0  0  0  0  0  0  0
   16.9630  -55.7460   37.9110 O   0  0  0  0  0  0  0  0  0  0  0  0
   15.8860  -53.6740   38.3430 N   0  0  0  0  0  0  0  0  0  0  0  0
   16.3660  -52.3530   38.7400 C   0  0  0  0  0  2  0  0  0  0  0  0
   14.8810  -53.9360   38.3190 H   0  0  0  0  0  0  0  0  0  0  0  0
   17.6760  -52.2880   38.0570 C   0  0  0  0  0  0  0  0  0  0  0  0
   18.2870  -51.2070   37.7330 O   0  0  0  0  0  0  0  0  0  0  0  0
  2  1  1  0  0  0  0
  3  2  1  0  0  0  0
  4  3  2  0  0  0  0
  5  6  2  0  0  0  0
  5  4  1  0  0  0  0
  6  7  1  0  0  0  0
  7  2  2  0  0  0  0
  8  5  1  0  0  0  0
  9 10  1  0  0  0  0
  9  8  1  0  0  0  0
 10 11  1  0  0  0  0
 11 12  1  0  0  0  0
 11 13  1  0  0  0  0
 12  4  1  0  0  0  0
 13 20  1  0  0  0  0
 14 13  2  0  0  0  0
 15  9  1  0  0  0  0
 16 17  1  0  0  0  0
 16 15  1  0  0  0  0
 18 19  1  0  0  0  0
 18 17  1  0  0  0  0
 19  9  1  0  0  0  0
 20 21  2  0  0  0  0
 21 22  1  0  0  0  0
 22 23  1  0  0  0  0
 23 24  1  0  0  0  0
 23 29  1  0  0  0  0
 24 26  1  0  0  0  0
 25 24  2  0  0  0  0
 26 27  1  0  0  0  0
 28 26  1  0  0  0  0
 29 27  1  0  0  0  0
 30 29  2  0  0  0  0
M  END
>  <Pose>
1

>  <Score>
-9.468

$$$$
