/Users/jonathanwahrer/Desktop/Msc/3_Semester/Drug_Design_Praktikum/waehrer_HTS_screening/HTS_experiment/out/docking_results/vina_output/6s1j/2402_docked.pdbqt
 OpenBabel03222222503D

 33 36  0  0  1  0  0  0  0  0999 V2000
   17.1450  -56.9470   35.8600 C   0  0  2  0  0  3  0  0  0  0  0  0
   17.1960  -55.5800   36.2850 N   0  0  0  0  0  0  0  0  0  0  0  0
   17.3120  -54.7120   35.1690 C   0  0  0  0  0  0  0  0  0  0  0  0
   17.2100  -53.4640   35.0910 O   0  0  0  0  0  0  0  0  0  0  0  0
   17.6010  -55.5360   33.9720 C   0  0  0  0  0  0  0  0  0  0  0  0
   17.7710  -55.1250   32.7970 O   0  0  0  0  0  0  0  0  0  0  0  0
   17.6420  -56.9030   34.4570 C   0  0  0  0  0  0  0  0  0  0  0  0
   18.0540  -57.9290   33.7030 C   0  0  0  0  0  0  0  0  0  0  0  0
   17.9900  -59.1750   34.3400 O   0  0  0  0  0  1  0  0  0  0  0  0
   15.8610  -57.6040   36.0380 C   0  0  0  0  0  0  0  0  0  0  0  0
   15.5720  -58.2160   37.2430 C   0  0  0  0  0  3  0  0  0  0  0  0
   14.3970  -58.8540   37.5100 C   0  0  0  0  0  3  0  0  0  0  0  0
   13.4270  -58.9100   36.5520 C   0  0  0  0  0  0  0  0  0  0  0  0
   11.7980  -59.8150   36.9770 Br  0  0  0  0  0  0  0  0  0  0  0  0
   13.6530  -58.3200   35.3310 C   0  0  0  0  0  3  0  0  0  0  0  0
   14.8650  -57.6760   35.0880 C   0  0  0  0  0  3  0  0  0  0  0  0
   18.5350  -57.7800   32.3340 C   0  0  0  0  0  0  0  0  0  0  0  0
   19.6230  -57.2670   31.8740 O   0  0  0  0  0  0  0  0  0  0  0  0
   19.7320  -57.2950   30.5790 C   0  0  0  0  0  0  0  0  0  0  0  0
   18.5880  -57.8970   30.0750 C   0  0  0  0  0  0  0  0  0  0  0  0
   20.7010  -56.8690   29.6880 C   0  0  0  0  0  0  0  0  0  0  0  0
   17.8410  -58.1970   31.2160 C   0  0  0  0  0  3  0  0  0  0  0  0
   18.4420  -58.0550   28.7180 C   0  0  0  0  0  3  0  0  0  0  0  0
   19.4170  -57.6230   27.8480 C   0  0  0  0  0  3  0  0  0  0  0  0
   20.5660  -57.0200   28.3440 C   0  0  0  0  0  3  0  0  0  0  0  0
   21.8300  -56.2740   30.2120 O   0  0  0  0  0  0  0  0  0  0  0  0
   22.9240  -55.8000   29.4400 C   0  0  0  0  0  1  0  0  0  0  0  0
   17.1380  -55.1150   37.6440 C   0  0  0  0  0  2  0  0  0  0  0  0
   18.2020  -54.0680   37.9210 C   0  0  0  0  0  2  0  0  0  0  0  0
   17.6800  -52.8400   38.4120 N   0  0  0  0  0  4  0  0  0  0  0  0
   18.0910  -51.6610   37.7130 C   0  0  0  0  0  1  0  0  0  0  0  0
   16.2280  -52.8950   38.5170 C   0  0  0  0  0  1  0  0  0  0  0  0
   18.0310  -52.7270   39.4100 H   0  0  0  0  0  0  0  0  0  0  0  0
  1 10  1  6  0  0  0
  1  2  1  0  0  0  0
  2 28  1  0  0  0  0
  3  2  1  0  0  0  0
  4  3  2  0  0  0  0
  5  7  1  0  0  0  0
  5  3  1  0  0  0  0
  6  5  2  0  0  0  0
  7  1  1  0  0  0  0
  8  9  1  0  0  0  0
  8  7  2  0  0  0  0
 10 11  1  0  0  0  0
 11 12  2  0  0  0  0
 13 14  1  0  0  0  0
 13 12  1  0  0  0  0
 15 13  2  0  0  0  0
 16 15  1  0  0  0  0
 16 10  2  0  0  0  0
 17  8  1  0  0  0  0
 18 17  1  0  0  0  0
 19 18  1  0  0  0  0
 20 19  1  0  0  0  0
 20 22  1  0  0  0  0
 21 26  1  0  0  0  0
 21 19  2  0  0  0  0
 22 17  2  0  0  0  0
 23 20  2  0  0  0  0
 24 25  2  0  0  0  0
 24 23  1  0  0  0  0
 25 21  1  0  0  0  0
 27 26  1  0  0  0  0
 28 29  1  0  0  0  0
 29 30  1  0  0  0  0
 30 32  1  0  0  0  0
 30 33  1  0  0  0  0
 31 30  1  0  0  0  0
M  END
>  <Pose>
1

>  <Score>
-8.398

$$$$
