/Users/jonathanwahrer/Desktop/Msc/3_Semester/Drug_Design_Praktikum/waehrer_HTS_screening/HTS_experiment/out/docking_results/vina_output/6s1j/2417_docked.pdbqt
 OpenBabel03222222513D

 27 30  0  0  1  0  0  0  0  0999 V2000
   18.8480  -55.4330   33.6290 N   0  0  0  0  0  0  0  0  0  0  0  0
   17.3760  -55.2780   33.5630 C   0  0  0  0  0  2  0  0  0  0  0  0
   16.9120  -56.6600   33.4880 C   0  0  2  0  0  3  0  0  0  0  0  0
   17.7640  -57.1830   32.3430 C   0  0  2  0  0  3  0  0  0  0  0  0
   19.1320  -56.5760   32.8730 C   0  0  0  0  0  2  0  0  0  0  0  0
   19.1910  -55.4270   35.0590 C   0  0  0  0  0  2  0  0  0  0  0  0
   19.1940  -54.1490   35.7260 C   0  0  0  0  0  0  0  0  0  0  0  0
   18.3190  -53.6040   36.6390 C   0  0  0  0  0  0  0  0  0  0  0  0
   17.2940  -54.1740   37.3550 C   0  0  0  0  0  0  0  0  0  0  0  0
   18.6240  -52.2890   36.9060 C   0  0  0  0  0  0  0  0  0  0  0  0
   16.8160  -55.8140   36.9300 Cl  0  0  0  0  0  0  0  0  0  0  0  0
   16.6030  -53.4820   38.3130 C   0  0  0  0  0  3  0  0  0  0  0  0
   16.9300  -52.1540   38.5690 C   0  0  0  0  0  3  0  0  0  0  0  0
   17.9660  -51.5560   37.8450 C   0  0  0  0  0  3  0  0  0  0  0  0
   19.6960  -52.0160   36.1300 N   0  0  0  0  0  0  0  0  0  0  0  0
   20.0320  -53.0830   35.4550 N   0  0  0  0  0  0  0  0  0  0  0  0
   20.2950  -50.6780   35.9910 C   0  0  0  0  0  1  0  0  0  0  0  0
   15.4470  -56.8460   33.1780 C   0  0  0  0  0  2  0  0  0  0  0  0
   14.7970  -57.3460   34.3480 N   0  0  0  0  0  0  0  0  0  0  0  0
   13.4330  -57.7660   34.1030 C   0  0  0  0  0  2  0  0  0  0  0  0
   13.1750  -59.2150   34.4440 C   0  0  0  0  0  2  0  0  0  0  0  0
   13.5420  -59.5630   35.7240 O   0  0  0  0  0  0  0  0  0  0  0  0
   14.6880  -58.9030   36.1560 C   0  0  0  0  0  2  0  0  0  0  0  0
   15.4830  -58.4580   34.9660 C   0  0  0  0  0  2  0  0  0  0  0  0
   17.5090  -56.4220   31.0740 C   0  0  0  0  0  2  0  0  0  0  0  0
   16.9120  -57.2890   30.1220 O   0  0  0  0  0  0  0  0  0  0  0  0
   16.4730  -58.0400   30.6800 H   0  0  0  0  0  0  0  0  0  0  0  0
  1  6  1  0  0  0  0
  2  1  1  0  0  0  0
  3 18  1  6  0  0  0
  3  2  1  0  0  0  0
  4 25  1  6  0  0  0
  4  5  1  0  0  0  0
  4  3  1  0  0  0  0
  5  1  1  0  0  0  0
  6  7  1  0  0  0  0
  7  8  1  0  0  0  0
  8 10  2  0  0  0  0
  8  9  1  0  0  0  0
  9 12  2  0  0  0  0
 10 14  1  0  0  0  0
 11  9  1  0  0  0  0
 12 13  1  0  0  0  0
 14 13  2  0  0  0  0
 15 10  1  0  0  0  0
 16  7  2  0  0  0  0
 16 15  1  0  0  0  0
 17 15  1  0  0  0  0
 18 19  1  0  0  0  0
 19 24  1  0  0  0  0
 20 19  1  0  0  0  0
 20 21  1  0  0  0  0
 21 22  1  0  0  0  0
 22 23  1  0  0  0  0
 24 23  1  0  0  0  0
 26 27  1  0  0  0  0
 26 25  1  0  0  0  0
M  END
>  <Pose>
1

>  <Score>
-8.899

$$$$
