/Users/jonathanwahrer/Desktop/Msc/3_Semester/Drug_Design_Praktikum/waehrer_HTS_screening/HTS_experiment/out/docking_results/vina_output/6s1j/2420_docked.pdbqt
 OpenBabel03222222523D

 29 32  0  0  1  0  0  0  0  0999 V2000
   17.8860  -54.1430   37.1910 N   0  0  0  0  0  0  0  0  0  0  0  0
   19.2780  -54.0060   37.6160 C   0  0  0  0  0  2  0  0  0  0  0  0
   19.6800  -52.6710   37.0310 C   0  0  2  0  0  3  0  0  0  0  0  0
   18.4570  -51.8100   37.3230 C   0  0  0  0  0  2  0  0  0  0  0  0
   17.3450  -52.8260   37.3250 C   0  0  0  0  0  0  0  0  0  0  0  0
   16.1100  -52.5630   37.4290 O   0  0  0  0  0  0  0  0  0  0  0  0
   19.9140  -52.7550   35.5700 C   0  0  0  0  0  0  0  0  0  0  0  0
   20.2200  -51.7020   34.9570 O   0  0  0  0  0  0  0  0  0  0  0  0
   19.8030  -53.9660   34.8490 N   0  0  0  0  0  0  0  0  0  0  0  0
   19.5430  -54.8260   35.3950 H   0  0  0  0  0  0  0  0  0  0  0  0
   20.0290  -54.0540   33.4290 C   0  0  0  0  0  2  0  0  0  0  0  0
   18.8490  -54.7380   32.7720 C   0  0  0  0  0  2  0  0  0  0  0  0
   19.2360  -55.8550   31.9450 N   0  0  0  0  0  0  0  0  0  0  0  0
   18.6310  -57.0520   32.5180 C   0  0  0  0  0  2  0  0  0  0  0  0
   17.1950  -57.2070   32.0250 C   0  0  0  0  0  2  0  0  0  0  0  0
   17.1240  -57.4890   30.6810 O   0  0  0  0  0  0  0  0  0  0  0  0
   18.2760  -57.0660   30.0610 C   0  0  0  0  0  2  0  0  0  0  0  0
   18.7530  -55.7280   30.5890 C   0  0  0  0  0  2  0  0  0  0  0  0
   17.2350  -55.3240   36.7510 C   0  0  0  0  0  0  0  0  0  0  0  0
   17.4270  -56.0640   35.6510 N   0  0  0  0  0  0  0  0  0  0  0  0
   16.5910  -57.0910   35.6310 N   0  0  0  0  0  0  0  0  0  0  0  0
   15.8040  -57.0580   36.7440 C   0  0  0  0  0  0  0  0  0  0  0  0
   16.4710  -57.8590   34.9260 H   0  0  0  0  0  0  0  0  0  0  0  0
   14.7980  -57.8340   37.2390 C   0  0  0  0  0  3  0  0  0  0  0  0
   16.2070  -55.9500   37.4470 C   0  0  0  0  0  0  0  0  0  0  0  0
   14.1750  -57.5340   38.4290 C   0  0  0  0  0  0  0  0  0  0  0  0
   12.7720  -58.6330   39.0990 Br  0  0  0  0  0  0  0  0  0  0  0  0
   14.5800  -56.4090   39.1490 C   0  0  0  0  0  3  0  0  0  0  0  0
   15.5950  -55.6240   38.6510 C   0  0  0  0  0  3  0  0  0  0  0  0
  1  5  1  0  0  0  0
  1  2  1  0  0  0  0
  3  7  1  6  0  0  0
  3  4  1  0  0  0  0
  3  2  1  0  0  0  0
  4  5  1  0  0  0  0
  5  6  2  0  0  0  0
  8  7  2  0  0  0  0
  9 10  1  0  0  0  0
  9  7  1  0  0  0  0
 11  9  1  0  0  0  0
 12 11  1  0  0  0  0
 13 14  1  0  0  0  0
 13 12  1  0  0  0  0
 15 14  1  0  0  0  0
 16 15  1  0  0  0  0
 17 18  1  0  0  0  0
 17 16  1  0  0  0  0
 18 13  1  0  0  0  0
 19  1  1  0  0  0  0
 19 25  1  0  0  0  0
 20 19  2  0  0  0  0
 21 20  1  0  0  0  0
 21 22  1  0  0  0  0
 22 24  2  0  0  0  0
 22 25  1  0  0  0  0
 23 21  1  0  0  0  0
 24 26  1  0  0  0  0
 25 29  2  0  0  0  0
 26 27  1  0  0  0  0
 26 28  2  0  0  0  0
 29 28  1  0  0  0  0
M  END
>  <Pose>
1

>  <Score>
-9.587

$$$$
