/Users/jonathanwahrer/Desktop/Msc/3_Semester/Drug_Design_Praktikum/waehrer_HTS_screening/HTS_experiment/out/docking_results/vina_output/6s1j/2432_docked.pdbqt
 OpenBabel03222222523D

 26 29  0  0  0  0  0  0  0  0999 V2000
   16.4960  -56.8940   32.9270 C   0  0  0  0  0  0  0  0  0  0  0  0
   15.4660  -56.3950   32.2690 O   0  0  0  0  0  0  0  0  0  0  0  0
   16.2330  -57.9230   33.8170 N   0  0  0  0  0  0  0  0  0  0  0  0
   14.8210  -58.3440   33.9900 C   0  0  0  0  0  2  0  0  0  0  0  0
   14.4890  -58.0980   35.4370 C   0  0  0  0  0  2  0  0  0  0  0  0
   15.5970  -57.6960   36.2450 N   0  0  0  0  0  0  0  0  0  0  0  0
   16.9700  -58.1260   36.0240 C   0  0  0  0  0  2  0  0  0  0  0  0
   17.1270  -58.6770   34.6150 C   0  0  0  0  0  2  0  0  0  0  0  0
   17.7340  -56.2480   32.5760 C   0  0  0  0  0  0  0  0  0  0  0  0
   18.5450  -56.4140   31.5310 N   0  0  0  0  0  0  0  0  0  0  0  0
   19.6140  -55.5720   31.5800 C   0  0  0  0  0  0  0  0  0  0  0  0
   18.4720  -57.0770   30.7330 H   0  0  0  0  0  0  0  0  0  0  0  0
   20.9340  -55.4240   30.4390 Cl  0  0  0  0  0  0  0  0  0  0  0  0
   19.5080  -54.8120   32.7120 C   0  0  0  0  0  0  0  0  0  0  0  0
   18.3490  -55.2330   33.3210 C   0  0  0  0  0  3  0  0  0  0  0  0
   20.6220  -53.5730   33.2500 Cl  0  0  0  0  0  0  0  0  0  0  0  0
   15.3890  -56.8180   37.3430 C   0  0  0  0  0  0  0  0  0  0  0  0
   14.5460  -57.1410   38.3420 N   0  0  0  0  0  0  0  0  0  0  0  0
   14.3340  -56.3160   39.3940 C   0  0  0  0  0  3  0  0  0  0  0  0
   14.9700  -55.1340   39.4710 N   0  0  0  0  0  0  0  0  0  0  0  0
   15.8270  -54.7390   38.5160 C   0  0  0  0  0  0  0  0  0  0  0  0
   16.5760  -53.6320   38.3580 N   0  0  0  0  0  0  0  0  0  0  0  0
   16.0340  -55.6040   37.4350 C   0  0  0  0  0  0  0  0  0  0  0  0
   17.2380  -53.7700   37.2270 N   0  0  0  0  0  0  0  0  0  0  0  0
   16.6630  -52.4750   39.2490 C   0  0  0  0  0  1  0  0  0  0  0  0
   16.9380  -54.9510   36.6380 C   0  0  0  0  0  3  0  0  0  0  0  0
  1  3  1  0  0  0  0
  2  1  2  0  0  0  0
  3  4  1  0  0  0  0
  3  8  1  0  0  0  0
  4  5  1  0  0  0  0
  5  6  1  0  0  0  0
  6 17  1  0  0  0  0
  7  6  1  0  0  0  0
  8  7  1  0  0  0  0
  9  1  1  0  0  0  0
  9 15  2  0  0  0  0
 10 11  1  0  0  0  0
 10  9  1  0  0  0  0
 11 14  2  0  0  0  0
 12 10  1  0  0  0  0
 13 11  1  0  0  0  0
 14 16  1  0  0  0  0
 14 15  1  0  0  0  0
 17 23  2  0  0  0  0
 17 18  1  0  0  0  0
 18 19  2  0  0  0  0
 19 20  1  0  0  0  0
 21 20  2  0  0  0  0
 22 21  1  0  0  0  0
 22 25  1  0  0  0  0
 23 21  1  0  0  0  0
 24 22  1  0  0  0  0
 26 24  2  0  0  0  0
 26 23  1  0  0  0  0
M  END
>  <Pose>
1

>  <Score>
-8.537

$$$$
