/Users/jonathanwahrer/Desktop/Msc/3_Semester/Drug_Design_Praktikum/waehrer_HTS_screening/HTS_experiment/out/docking_results/vina_output/6s1j/2439_docked.pdbqt
 OpenBabel03222222523D

 30 34  0  0  1  0  0  0  0  0999 V2000
   15.2660  -57.1930   36.3190 C   0  0  0  0  0  0  0  0  0  0  0  0
   14.2700  -58.1080   35.9330 C   0  0  0  0  0  3  0  0  0  0  0  0
   13.5080  -58.3900   36.9880 N   0  0  0  0  0  0  0  0  0  0  0  0
   12.4390  -59.1320   37.3780 C   0  0  0  0  0  0  0  0  0  0  0  0
   12.2530  -58.8820   38.6940 C   0  0  0  0  0  0  0  0  0  0  0  0
   13.1970  -58.0070   39.0690 N   0  0  0  0  0  0  0  0  0  0  0  0
   13.9860  -57.6900   38.0180 C   0  0  1  0  0  3  0  0  0  0  0  0
   15.0700  -56.9460   37.6210 N   0  0  0  0  0  0  0  0  0  0  0  0
   11.2260  -59.4960   39.3890 C   0  0  0  0  0  3  0  0  0  0  0  0
   10.3710  -60.3800   38.7520 C   0  0  0  0  0  3  0  0  0  0  0  0
   10.5620  -60.6370   37.4010 C   0  0  0  0  0  3  0  0  0  0  0  0
   11.5940  -60.0070   36.7410 C   0  0  0  0  0  3  0  0  0  0  0  0
   13.3230  -57.6230   40.0420 H   0  0  0  0  0  0  0  0  0  0  0  0
   15.8210  -56.1070   38.4960 C   0  0  0  0  0  2  0  0  0  0  0  0
   15.2670  -54.7210   38.7030 C   0  0  0  0  0  2  0  0  0  0  0  0
   15.9470  -53.6230   38.0140 C   0  0  0  0  0  2  0  0  0  0  0  0
   16.9430  -52.8590   38.7060 N   0  0  0  0  0  4  0  0  0  0  0  0
   18.0270  -53.6830   39.2080 C   0  0  0  0  0  3  0  0  0  0  0  0
   19.1480  -53.9180   38.2880 C   0  0  0  0  0  3  0  0  0  0  0  0
   19.1910  -53.0870   37.0600 C   0  0  0  0  0  2  0  0  0  0  0  0
   18.6470  -51.7250   37.3110 C   0  0  0  0  0  3  0  0  0  0  0  0
   17.3610  -51.6720   38.0480 C   0  0  0  0  0  3  0  0  0  0  0  0
   16.4730  -52.5590   39.5890 H   0  0  0  0  0  0  0  0  0  0  0  0
   16.2760  -56.7080   35.3710 C   0  0  0  0  0  0  0  0  0  0  0  0
   15.9440  -56.6620   34.0180 C   0  0  0  0  0  3  0  0  0  0  0  0
   16.8030  -56.2150   33.0330 C   0  0  0  0  0  3  0  0  0  0  0  0
   18.0560  -55.7830   33.3580 C   0  0  0  0  0  0  0  0  0  0  0  0
   19.2710  -55.1590   32.0430 Br  0  0  0  0  0  0  0  0  0  0  0  0
   18.4120  -55.8140   34.6790 C   0  0  0  0  0  3  0  0  0  0  0  0
   17.5270  -56.2750   35.6830 C   0  0  0  0  0  3  0  0  0  0  0  0
  1  8  1  0  0  0  0
  2  1  2  0  0  0  0
  2  3  1  0  0  0  0
  3  4  1  0  0  0  0
  4  5  1  0  0  0  0
  5  6  1  0  0  0  0
  5  9  2  0  0  0  0
  6 13  1  0  0  0  0
  7  3  1  1  0  0  0
  7  6  1  0  0  0  0
  8  7  1  0  0  0  0
  8 14  1  0  0  0  0
 10  9  1  0  0  0  0
 11 10  2  0  0  0  0
 12  4  2  0  0  0  0
 12 11  1  0  0  0  0
 14 15  1  0  0  0  0
 16 15  1  0  0  0  0
 16 17  1  0  0  0  0
 17 18  1  0  0  0  0
 17 23  1  0  0  0  0
 19 18  2  0  0  0  0
 20 21  1  0  0  0  0
 20 19  1  0  0  0  0
 21 22  2  0  0  0  0
 22 17  1  0  0  0  0
 24 30  1  0  0  0  0
 24  1  1  0  0  0  0
 25 24  2  0  0  0  0
 26 27  2  0  0  0  0
 26 25  1  0  0  0  0
 27 29  1  0  0  0  0
 28 27  1  0  0  0  0
 29 30  2  0  0  0  0
M  END
>  <Pose>
1

>  <Score>
-9.832

$$$$
