/Users/jonathanwahrer/Desktop/Msc/3_Semester/Drug_Design_Praktikum/waehrer_HTS_screening/HTS_experiment/out/docking_results/vina_output/6s1j/2447_docked.pdbqt
 OpenBabel03222222533D

 33 36  0  0  1  0  0  0  0  0999 V2000
   13.8670  -59.4320   34.7090 C   0  0  1  0  0  3  0  0  0  0  0  0
   14.2560  -60.5010   33.7440 C   0  0  0  0  0  0  0  0  0  0  0  0
   13.5180  -61.4820   33.4880 O   0  0  0  0  0  0  0  0  0  0  0  0
   15.5070  -60.3050   33.1640 O   0  0  0  0  0  0  0  0  0  0  0  0
   16.0920  -59.0740   32.9570 C   0  0  0  0  0  3  0  0  0  0  0  0
   15.4050  -57.9770   33.3430 C   0  0  0  0  0  0  0  0  0  0  0  0
   14.1020  -58.1530   33.9460 C   0  0  0  0  0  0  0  0  0  0  0  0
   13.2000  -57.3040   33.8500 O   0  0  0  0  0  0  0  0  0  0  0  0
   15.9540  -56.6290   33.1410 C   0  0  0  0  0  2  0  0  0  0  0  0
   17.2930  -56.4570   33.5290 N   0  0  0  0  0  0  0  0  0  0  0  0
   17.7130  -56.7530   34.8310 C   0  0  0  0  0  2  0  0  0  0  0  0
   19.0240  -56.0030   35.1580 C   0  0  0  0  0  2  0  0  0  0  0  0
   18.7840  -54.6430   34.7470 N   0  0  0  0  0  0  0  0  0  0  0  0
   18.6980  -54.4590   33.3060 C   0  0  0  0  0  2  0  0  0  0  0  0
   18.1590  -55.7340   32.6710 C   0  0  0  0  0  2  0  0  0  0  0  0
   18.6320  -53.5840   35.6640 C   0  0  0  0  0  0  0  0  0  0  0  0
   17.6230  -53.5180   36.5970 C   0  0  0  0  0  3  0  0  0  0  0  0
   17.5240  -52.4610   37.4710 C   0  0  0  0  0  0  0  0  0  0  0  0
   18.4200  -51.4170   37.4660 C   0  0  0  0  0  3  0  0  0  0  0  0
   16.2220  -52.4330   38.6300 Cl  0  0  0  0  0  0  0  0  0  0  0  0
   19.4370  -51.4550   36.5470 C   0  0  0  0  0  3  0  0  0  0  0  0
   19.5390  -52.5190   35.6630 C   0  0  0  0  0  3  0  0  0  0  0  0
   12.4570  -59.5430   35.1720 C   0  0  0  0  0  2  0  0  0  0  0  0
   12.4470  -59.8290   36.5630 N   0  0  0  0  0  0  0  0  0  0  0  0
   11.3920  -60.7080   37.0030 C   0  0  0  0  0  2  0  0  0  0  0  0
   10.4330  -59.8800   37.8350 C   0  0  0  0  0  2  0  0  0  0  0  0
   11.0740  -59.5310   39.0580 N   0  0  0  0  0  0  0  0  0  0  0  0
   12.4620  -59.2510   38.8760 C   0  0  0  0  0  2  0  0  0  0  0  0
   12.7720  -58.7780   37.4540 C   0  0  0  0  0  2  0  0  0  0  0  0
   10.7120  -60.5520   40.3670 S   0  0  0  0  0  0  0  0  0  0  0  0
   10.9550  -62.0160   40.0700 O   0  0  0  0  0  0  0  0  0  0  0  0
   11.6530  -60.2000   41.5120 O   0  0  0  0  0  0  0  0  0  0  0  0
    9.0750  -60.3790   40.9700 C   0  0  0  0  0  1  0  0  0  0  0  0
  1 23  1  6  0  0  0
  2  1  1  0  0  0  0
  3  2  2  0  0  0  0
  4  2  1  0  0  0  0
  5  4  1  0  0  0  0
  5  6  2  0  0  0  0
  6  7  1  0  0  0  0
  7  1  1  0  0  0  0
  8  7  2  0  0  0  0
  9  6  1  0  0  0  0
  9 10  1  0  0  0  0
 10 11  1  0  0  0  0
 11 12  1  0  0  0  0
 13 12  1  0  0  0  0
 13 16  1  0  0  0  0
 14 13  1  0  0  0  0
 15 14  1  0  0  0  0
 15 10  1  0  0  0  0
 16 17  1  0  0  0  0
 17 18  2  0  0  0  0
 18 20  1  0  0  0  0
 19 18  1  0  0  0  0
 21 19  2  0  0  0  0
 22 16  2  0  0  0  0
 22 21  1  0  0  0  0
 23 24  1  0  0  0  0
 24 25  1  0  0  0  0
 24 29  1  0  0  0  0
 25 26  1  0  0  0  0
 26 27  1  0  0  0  0
 27 30  1  0  0  0  0
 28 27  1  0  0  0  0
 29 28  1  0  0  0  0
 30 33  1  0  0  0  0
 30 32  2  0  0  0  0
 31 30  2  0  0  0  0
M  END
>  <Pose>
1

>  <Score>
-9.178

$$$$
