/Users/jonathanwahrer/Desktop/Msc/3_Semester/Drug_Design_Praktikum/waehrer_HTS_screening/HTS_experiment/out/docking_results/vina_output/6y4q/0003_docked.pdbqt
 OpenBabel03142213583D

 38 41  0  0  0  0  0  0  0  0999 V2000
    2.3780  -17.4800  -36.2540 C   0  0  0  0  0  0  0  0  0  0  0  0
    3.1260  -18.0120  -35.2330 N   0  0  0  0  0  0  0  0  0  0  0  0
    3.8970  -18.9520  -35.7060 N   0  0  0  0  0  0  0  0  0  0  0  0
    3.7290  -19.1050  -37.0080 N   0  0  0  0  0  0  0  0  0  0  0  0
    2.7960  -18.2090  -37.3720 C   0  0  0  0  0  0  0  0  0  0  0  0
    1.4040  -16.4150  -36.1090 C   0  0  0  0  0  0  0  0  0  0  0  0
    1.5170  -15.0740  -36.4510 N   0  0  0  0  0  0  0  0  0  0  0  0
    2.3450  -14.5950  -36.8770 H   0  0  0  0  0  0  0  0  0  0  0  0
    0.2840  -16.7840  -35.5890 O   0  0  0  0  0  0  0  0  0  0  0  0
    0.3800  -14.2340  -36.1950 N   0  0  0  0  0  0  0  0  0  0  0  0
    0.5240  -12.9580  -36.2270 C   0  0  0  0  0  3  0  0  0  0  0  0
   -0.5600  -12.0190  -35.9840 C   0  0  0  0  0  0  0  0  0  0  0  0
   -1.3500  -12.1200  -34.8700 C   0  0  0  0  0  3  0  0  0  0  0  0
   -2.3920  -11.2320  -34.6200 C   0  0  0  0  0  0  0  0  0  0  0  0
   -2.6500  -10.2020  -35.5210 C   0  0  0  0  0  0  0  0  0  0  0  0
   -3.4610  -11.4110  -33.0650 Br  0  0  0  0  0  0  0  0  0  0  0  0
   -1.8670  -10.0940  -36.6340 C   0  0  0  0  0  0  0  0  0  0  0  0
   -2.1840   -8.7070  -37.8840 Br  0  0  0  0  0  0  0  0  0  0  0  0
   -0.8270  -10.9960  -36.8660 C   0  0  0  0  0  0  0  0  0  0  0  0
   -3.6930   -9.3280  -35.2530 O   0  0  0  0  0  0  0  0  0  0  0  0
   -3.6800   -8.3820  -35.5990 H   0  0  0  0  0  0  0  0  0  0  0  0
   -0.0210  -10.9020  -37.9910 O   0  0  0  0  0  0  0  0  0  0  0  0
    0.5140  -10.0610  -38.1650 H   0  0  0  0  0  0  0  0  0  0  0  0
    2.2890  -17.9660  -38.7260 C   0  0  0  0  0  2  0  0  0  0  0  0
    1.4720  -19.0550  -39.2690 N   0  0  0  0  0  0  0  0  0  0  0  0
    0.6050  -18.5050  -40.3300 C   0  0  0  0  0  2  0  0  0  0  0  0
   -0.0420  -17.2520  -39.8530 C   0  0  0  0  0  2  0  0  0  0  0  0
   -0.6920  -17.4900  -38.6670 O   0  0  0  0  0  0  0  0  0  0  0  0
   -0.7700  -18.8130  -38.3200 C   0  0  0  0  0  2  0  0  0  0  0  0
    0.5560  -19.5170  -38.2000 C   0  0  0  0  0  2  0  0  0  0  0  0
    4.4550  -20.0300  -37.7980 C   0  0  0  0  0  0  0  0  0  0  0  0
    4.0430  -21.1850  -38.3630 N   0  0  0  0  0  0  0  0  0  0  0  0
    5.0290  -21.7320  -39.0220 O   0  0  0  0  0  0  0  0  0  0  0  0
    6.1050  -20.9930  -38.9290 N   0  0  0  0  0  0  0  0  0  0  0  0
    5.7850  -19.9270  -38.1770 C   0  0  0  0  0  0  0  0  0  0  0  0
    6.6840  -18.8900  -37.8460 N   0  0  0  0  0  0  0  0  0  0  0  0
    6.8070  -18.6340  -36.8490 H   0  0  0  0  0  0  0  0  0  0  0  0
    7.2280  -18.3730  -38.5600 H   0  0  0  0  0  0  0  0  0  0  0  0
  1  6  1  0  0  0  0
  1  2  1  0  0  0  0
  3  2  2  0  0  0  0
  4  3  1  0  0  0  0
  5  4  1  0  0  0  0
  5  1  2  0  0  0  0
  6  9  2  0  0  0  0
  7 10  1  0  0  0  0
  7  6  1  0  0  0  0
  8  7  1  0  0  0  0
 11 10  2  0  0  0  0
 11 12  1  0  0  0  0
 12 13  1  0  0  0  0
 13 14  2  0  0  0  0
 14 16  1  0  0  0  0
 15 20  1  0  0  0  0
 15 14  1  0  0  0  0
 17 15  2  0  0  0  0
 18 17  1  0  0  0  0
 19 17  1  0  0  0  0
 19 12  2  0  0  0  0
 21 20  1  0  0  0  0
 22 19  1  0  0  0  0
 23 22  1  0  0  0  0
 24  5  1  0  0  0  0
 25 24  1  0  0  0  0
 25 30  1  0  0  0  0
 26 27  1  0  0  0  0
 26 25  1  0  0  0  0
 27 28  1  0  0  0  0
 28 29  1  0  0  0  0
 29 30  1  0  0  0  0
 31  4  1  0  0  0  0
 32 31  2  0  0  0  0
 33 34  1  0  0  0  0
 33 32  1  0  0  0  0
 34 35  2  0  0  0  0
 35 36  1  0  0  0  0
 35 31  1  0  0  0  0
 36 37  1  0  0  0  0
 38 36  1  0  0  0  0
M  END
>  <Pose>
1

>  <Score>
-6.618

$$$$
