/Users/jonathanwahrer/Desktop/Msc/3_Semester/Drug_Design_Praktikum/waehrer_HTS_screening/HTS_experiment/out/docking_results/vina_output/6y4q/0004_docked.pdbqt
 OpenBabel03232217113D

 34 37  0  0  0  0  0  0  0  0999 V2000
    1.2470  -14.3030  -36.3300 C   0  0  0  0  0  0  0  0  0  0  0  0
    0.2160  -13.5270  -36.0010 N   0  0  0  0  0  4  0  0  0  0  0  0
    0.1470  -12.2090  -36.3490 C   0  0  0  0  0  0  0  0  0  0  0  0
    1.1780  -11.7310  -37.0420 N   0  0  0  0  0  0  0  0  0  0  0  0
    2.2610  -12.4480  -37.4170 C   0  0  0  0  0  0  0  0  0  0  0  0
    2.2500  -13.7580  -37.0280 N   0  0  0  0  0  2  0  0  0  0  0  0
    1.2810  -15.6720  -35.9490 N   0  0  0  0  0  0  0  0  0  0  0  0
    1.0900  -16.0140  -35.0010 H   0  0  0  0  0  0  0  0  0  0  0  0
    1.5950  -16.6450  -36.9180 N   0  0  0  0  0  0  0  0  0  0  0  0
    2.3520  -17.6430  -36.6840 C   0  0  0  0  0  3  0  0  0  0  0  0
    2.6900  -18.6600  -37.6660 C   0  0  0  0  0  0  0  0  0  0  0  0
    3.9640  -19.1760  -37.7080 C   0  0  0  0  0  3  0  0  0  0  0  0
    4.3120  -20.1440  -38.6330 C   0  0  0  0  0  0  0  0  0  0  0  0
    3.4000  -20.6270  -39.5450 C   0  0  0  0  0  0  0  0  0  0  0  0
    6.0930  -20.8470  -38.6690 Br  0  0  0  0  0  0  0  0  0  0  0  0
    2.1180  -20.1150  -39.5110 C   0  0  0  0  0  0  0  0  0  0  0  0
    0.8580  -20.7900  -40.7790 Br  0  0  0  0  0  0  0  0  0  0  0  0
    1.7780  -19.1450  -38.5800 C   0  0  0  0  0  0  0  0  0  0  0  0
    3.7320  -21.6020  -40.4830 O   0  0  0  0  0  0  0  0  0  0  0  0
    4.6550  -21.6100  -40.8840 H   0  0  0  0  0  0  0  0  0  0  0  0
    0.4990  -18.6430  -38.5570 O   0  0  0  0  0  0  0  0  0  0  0  0
   -0.2810  -19.2120  -38.2150 H   0  0  0  0  0  0  0  0  0  0  0  0
   -0.9550  -11.4040  -35.9910 N   0  0  0  0  0  0  0  0  0  0  0  0
   -0.8860   -9.9760  -36.1310 C   0  0  0  0  0  2  0  0  0  0  0  0
   -1.4110   -9.3700  -34.8400 C   0  0  0  0  0  2  0  0  0  0  0  0
   -2.5990   -9.9630  -34.4320 O   0  0  0  0  0  0  0  0  0  0  0  0
   -2.4770  -11.3080  -34.1620 C   0  0  0  0  0  2  0  0  0  0  0  0
   -2.1510  -12.0140  -35.4840 C   0  0  0  0  0  2  0  0  0  0  0  0
    3.3280  -11.8990  -38.1520 N   0  0  0  0  0  0  0  0  0  0  0  0
    4.1890  -10.9170  -37.5700 C   0  0  0  0  0  2  0  0  0  0  0  0
    4.2540   -9.7390  -38.5460 C   0  0  0  0  0  2  0  0  0  0  0  0
    3.4260   -9.9220  -39.6330 O   0  0  0  0  0  0  0  0  0  0  0  0
    3.6780  -11.0630  -40.3530 C   0  0  0  0  0  2  0  0  0  0  0  0
    3.5660  -12.3200  -39.4980 C   0  0  0  0  0  2  0  0  0  0  0  0
  1  2  2  0  0  0  0
  1  7  1  0  0  0  0
  3  2  2  0  0  0  0
  3 23  1  0  0  0  0
  4  3  1  0  0  0  0
  5  4  2  0  0  0  0
  5  6  1  0  0  0  0
  6  1  1  0  0  0  0
  7  8  1  0  0  0  0
  9 10  2  0  0  0  0
  9  7  1  0  0  0  0
 11 10  1  0  0  0  0
 12 11  1  0  0  0  0
 13 12  2  0  0  0  0
 14 16  2  0  0  0  0
 14 13  1  0  0  0  0
 15 13  1  0  0  0  0
 16 18  1  0  0  0  0
 17 16  1  0  0  0  0
 18 21  1  0  0  0  0
 18 11  2  0  0  0  0
 19 14  1  0  0  0  0
 20 19  1  0  0  0  0
 21 22  1  0  0  0  0
 23 28  1  0  0  0  0
 24 23  1  0  0  0  0
 24 25  1  0  0  0  0
 25 26  1  0  0  0  0
 26 27  1  0  0  0  0
 28 27  1  0  0  0  0
 29 30  1  0  0  0  0
 29  5  1  0  0  0  0
 31 30  1  0  0  0  0
 32 31  1  0  0  0  0
 33 32  1  0  0  0  0
 33 34  1  0  0  0  0
 34 29  1  0  0  0  0
M  END
>  <Pose>
1

>  <Score>
-6.382

$$$$
