/Users/jonathanwahrer/Desktop/Msc/3_Semester/Drug_Design_Praktikum/waehrer_HTS_screening/HTS_experiment/out/docking_results/vina_output/6y4q/0005_docked.pdbqt
 OpenBabel03232217123D

 38 41  0  0  1  0  0  0  0  0999 V2000
   -1.0390  -19.1620  -38.6020 N   0  0  0  0  0  0  0  0  0  0  0  0
   -2.1230  -19.9730  -38.7260 C   0  0  0  0  0  0  0  0  0  0  0  0
   -1.7420  -21.1650  -39.2810 C   0  0  0  0  0  0  0  0  0  0  0  0
   -0.4440  -21.0580  -39.4780 N   0  0  0  0  0  0  0  0  0  0  0  0
    0.0220  -19.8460  -39.0700 C   0  0  0  0  0  0  0  0  0  0  0  0
   -2.5910  -22.2100  -39.5280 N   0  0  0  0  0  0  0  0  0  0  0  0
   -3.8750  -22.0280  -39.1920 C   0  0  0  0  0  0  0  0  0  0  0  0
   -4.6570  -22.9940  -39.4220 O   0  0  0  0  0  0  0  0  0  0  0  0
   -4.3000  -20.8760  -38.6400 N   0  0  0  0  0  2  0  0  0  0  0  0
   -3.4780  -19.8430  -38.3930 C   0  0  0  0  0  0  0  0  0  0  0  0
   -3.9370  -18.6790  -37.8230 O   0  0  0  0  0  0  0  0  0  0  0  0
   -2.0740  -23.4300  -40.1310 C   0  0  0  0  0  1  0  0  0  0  0  0
   -1.0430  -17.8470  -38.0690 C   0  0  0  0  0  2  0  0  0  0  0  0
   -1.2910  -16.6710  -38.8860 C   0  0  1  0  0  3  0  0  0  0  0  0
   -0.3080  -16.0120  -39.7580 C   0  0  0  0  0  2  0  0  0  0  0  0
    0.9460  -15.8870  -39.0920 O   0  0  0  0  0  0  0  0  0  0  0  0
    1.6820  -14.7600  -38.9710 C   0  0  0  0  0  0  0  0  0  0  0  0
    1.7100  -14.0910  -37.7370 C   0  0  0  0  0  0  0  0  0  0  0  0
    0.6900  -14.8380  -36.3000 Br  0  0  0  0  0  0  0  0  0  0  0  0
    2.4390  -12.9430  -37.5580 C   0  0  0  0  0  3  0  0  0  0  0  0
    3.1720  -12.4100  -38.5960 C   0  0  0  0  0  0  0  0  0  0  0  0
    3.1610  -13.0470  -39.8150 C   0  0  0  0  0  3  0  0  0  0  0  0
    4.1530  -10.8130  -38.2540 Br  0  0  0  0  0  0  0  0  0  0  0  0
    2.4100  -14.2180  -39.9800 C   0  0  0  0  0  0  0  0  0  0  0  0
    2.4400  -15.0090  -41.6880 Br  0  0  0  0  0  0  0  0  0  0  0  0
   -2.5340  -16.5480  -39.5320 O   0  0  0  0  0  0  0  0  0  0  0  0
   -3.0310  -17.3850  -39.5330 H   0  0  0  0  0  0  0  0  0  0  0  0
    1.4260  -19.5260  -39.0700 N   0  0  0  0  0  0  0  0  0  0  0  0
    2.2180  -19.1210  -40.1660 C   0  0  0  0  0  2  0  0  0  0  0  0
    3.6410  -18.8070  -39.6290 C   0  0  0  0  0  2  0  0  0  0  0  0
    4.1200  -20.0710  -39.1020 N   0  0  0  0  0  4  0  0  0  0  0  0
    3.4700  -20.1490  -37.7800 C   0  0  0  0  0  2  0  0  0  0  0  0
    3.7800  -20.9020  -39.6290 H   0  0  0  0  0  0  0  0  0  0  0  0
    2.1050  -19.5860  -37.7690 C   0  0  0  0  0  2  0  0  0  0  0  0
    5.5600  -20.0700  -38.9370 C   0  0  0  0  0  2  0  0  0  0  0  0
    5.9120  -19.2300  -37.7290 C   0  0  0  0  0  2  0  0  0  0  0  0
    7.2730  -18.9060  -37.7780 O   0  0  0  0  0  0  0  0  0  0  0  0
    7.6310  -19.0210  -38.7010 H   0  0  0  0  0  0  0  0  0  0  0  0
  1 13  1  0  0  0  0
  2  1  1  0  0  0  0
  2 10  1  0  0  0  0
  3  2  2  0  0  0  0
  4  3  1  0  0  0  0
  4  5  2  0  0  0  0
  5 28  1  0  0  0  0
  5  1  1  0  0  0  0
  6  3  1  0  0  0  0
  6  7  1  0  0  0  0
  7  9  1  0  0  0  0
  8  7  2  0  0  0  0
  9 10  1  0  0  0  0
 10 11  2  0  0  0  0
 12  6  1  0  0  0  0
 14 15  1  6  0  0  0
 14 13  1  0  0  0  0
 15 16  1  0  0  0  0
 16 17  1  0  0  0  0
 17 18  1  0  0  0  0
 18 20  2  0  0  0  0
 18 19  1  0  0  0  0
 21 23  1  0  0  0  0
 21 20  1  0  0  0  0
 22 21  2  0  0  0  0
 24 22  1  0  0  0  0
 24 17  2  0  0  0  0
 25 24  1  0  0  0  0
 26 14  1  0  0  0  0
 27 26  1  0  0  0  0
 28 34  1  0  0  0  0
 29 30  1  0  0  0  0
 29 28  1  0  0  0  0
 30 31  1  0  0  0  0
 31 35  1  0  0  0  0
 31 32  1  0  0  0  0
 32 34  1  0  0  0  0
 33 31  1  0  0  0  0
 35 36  1  0  0  0  0
 37 36  1  0  0  0  0
 38 37  1  0  0  0  0
M  END
>  <Pose>
1

>  <Score>
-5.692

$$$$
