/Users/jonathanwahrer/Desktop/Msc/3_Semester/Drug_Design_Praktikum/waehrer_HTS_screening/HTS_experiment/out/docking_results/vina_output/6y4q/0006_docked.pdbqt
 OpenBabel03232217123D

 34 37  0  0  0  0  0  0  0  0999 V2000
    3.1080  -18.4730  -38.9290 N   0  0  0  0  0  0  0  0  0  0  0  0
    2.2990  -17.6070  -38.2630 C   0  0  0  0  0  0  0  0  0  0  0  0
    2.4660  -17.7530  -36.9140 C   0  0  0  0  0  0  0  0  0  0  0  0
    3.3870  -18.7180  -36.7730 N   0  0  0  0  0  0  0  0  0  0  0  0
    3.7840  -19.1620  -38.0080 C   0  0  0  0  0  0  0  0  0  0  0  0
    1.7260  -16.9560  -36.0650 C   0  0  0  0  0  3  0  0  0  0  0  0
    0.8240  -16.0180  -36.5380 C   0  0  0  0  0  3  0  0  0  0  0  0
    0.6760  -15.8940  -37.9080 C   0  0  0  0  0  3  0  0  0  0  0  0
    1.4150  -16.6890  -38.7610 C   0  0  0  0  0  3  0  0  0  0  0  0
    3.2350  -18.6350  -40.3440 C   0  0  0  0  0  2  0  0  0  0  0  0
    2.5700  -19.7780  -40.9190 C   0  0  0  0  0  0  0  0  0  0  0  0
    3.2580  -20.9210  -41.3970 N   0  0  0  0  0  0  0  0  0  0  0  0
    4.2980  -20.9200  -41.3230 H   0  0  0  0  0  0  0  0  0  0  0  0
    1.3200  -19.7920  -41.0150 O   0  0  0  0  0  0  0  0  0  0  0  0
    2.6470  -22.0320  -41.9530 N   0  0  0  0  0  0  0  0  0  0  0  0
    3.1770  -23.1940  -41.9890 C   0  0  0  0  0  3  0  0  0  0  0  0
    2.4440  -24.2870  -42.5980 C   0  0  0  0  0  0  0  0  0  0  0  0
    2.6950  -24.6400  -43.8880 C   0  0  0  0  0  0  0  0  0  0  0  0
    1.9930  -25.6810  -44.4570 C   0  0  0  0  0  0  0  0  0  0  0  0
    3.6470  -23.9660  -44.6320 O   0  0  0  0  0  1  0  0  0  0  0  0
    2.3580  -26.1570  -46.2570 Br  0  0  0  0  0  0  0  0  0  0  0  0
    1.0380  -26.3620  -43.7220 C   0  0  0  0  0  3  0  0  0  0  0  0
    0.8000  -25.9900  -42.4220 C   0  0  0  0  0  0  0  0  0  0  0  0
    1.4850  -24.9580  -41.8300 C   0  0  0  0  0  3  0  0  0  0  0  0
   -0.5220  -26.9420  -41.4190 Br  0  0  0  0  0  0  0  0  0  0  0  0
    4.7780  -20.2080  -38.2130 C   0  0  0  0  0  0  0  0  0  0  0  0
    4.5120  -21.4930  -38.4840 N   0  0  0  0  0  0  0  0  0  0  0  0
    5.6530  -22.1470  -38.6060 O   0  0  0  0  0  0  0  0  0  0  0  0
    6.6530  -21.3430  -38.4240 N   0  0  0  0  0  0  0  0  0  0  0  0
    6.1500  -20.1140  -38.1740 C   0  0  0  0  0  0  0  0  0  0  0  0
    6.8950  -18.9370  -37.9190 N   0  0  0  0  0  4  0  0  0  0  0  0
    7.6260  -19.0740  -37.2080 H   0  0  0  0  0  0  0  0  0  0  0  0
    6.2110  -18.2410  -37.5130 H   0  0  0  0  0  0  0  0  0  0  0  0
    7.2850  -18.5040  -38.7960 H   0  0  0  0  0  0  0  0  0  0  0  0
  1  2  1  0  0  0  0
  1  5  1  0  0  0  0
  2  3  1  0  0  0  0
  3  4  1  0  0  0  0
  3  6  2  0  0  0  0
  5  4  2  0  0  0  0
  7  6  1  0  0  0  0
  8  7  2  0  0  0  0
  9  2  2  0  0  0  0
  9  8  1  0  0  0  0
 10  1  1  0  0  0  0
 11 10  1  0  0  0  0
 12 13  1  0  0  0  0
 12 11  1  0  0  0  0
 14 11  2  0  0  0  0
 15 12  1  0  0  0  0
 16 15  2  0  0  0  0
 17 16  1  0  0  0  0
 17 24  1  0  0  0  0
 18 17  2  0  0  0  0
 19 18  1  0  0  0  0
 19 22  2  0  0  0  0
 20 18  1  0  0  0  0
 21 19  1  0  0  0  0
 22 23  1  0  0  0  0
 23 24  2  0  0  0  0
 23 25  1  0  0  0  0
 26 30  1  0  0  0  0
 26  5  1  0  0  0  0
 27 26  2  0  0  0  0
 28 27  1  0  0  0  0
 28 29  1  0  0  0  0
 29 30  2  0  0  0  0
 30 31  1  0  0  0  0
 31 33  1  0  0  0  0
 31 32  1  0  0  0  0
 34 31  1  0  0  0  0
M  END
>  <Pose>
1

>  <Score>
-6.664

$$$$
