/Users/jonathanwahrer/Desktop/Msc/3_Semester/Drug_Design_Praktikum/waehrer_HTS_screening/HTS_experiment/out/docking_results/vina_output/6y4q/0023_docked.pdbqt
 OpenBabel03232217153D

 37 40  0  0  1  0  0  0  0  0999 V2000
    0.9820  -14.1190  -36.3360 C   0  0  1  0  0  3  0  0  0  0  0  0
   -0.3280  -13.5210  -36.4810 N   0  0  0  0  0  0  0  0  0  0  0  0
   -1.2520  -14.4250  -37.0150 C   0  0  0  0  0  0  0  0  0  0  0  0
   -2.4120  -14.1660  -37.3680 O   0  0  0  0  0  0  0  0  0  0  0  0
   -0.6010  -15.7340  -37.0850 C   0  0  0  0  0  0  0  0  0  0  0  0
   -1.1800  -16.7580  -37.5290 O   0  0  0  0  0  0  0  0  0  0  0  0
    0.7450  -15.5910  -36.5710 C   0  0  1  0  0  3  0  0  0  0  0  0
    1.5950  -16.5670  -36.4000 C   0  0  1  0  0  3  0  0  0  0  0  0
    2.0380  -16.8750  -35.1240 O   0  0  0  0  0  1  0  0  0  0  0  0
    2.0900  -17.3540  -37.5030 C   0  0  0  0  0  0  0  0  0  0  0  0
    2.7440  -18.5360  -37.1320 C   0  0  0  0  0  3  0  0  0  0  0  0
    3.2360  -19.4010  -38.0780 C   0  0  0  0  0  0  0  0  0  0  0  0
    3.0940  -19.1150  -39.4160 C   0  0  0  0  0  0  0  0  0  0  0  0
    3.9650  -20.6980  -37.8960 C   0  0  0  0  0  2  0  0  0  0  0  0
    2.4460  -17.9430  -39.7570 C   0  0  0  0  0  3  0  0  0  0  0  0
    3.6850  -20.1620  -40.1530 O   0  0  0  0  0  0  0  0  0  0  0  0
    1.9440  -17.0630  -38.8220 C   0  0  0  0  0  3  0  0  0  0  0  0
    4.5340  -20.9020  -39.2810 C   0  0  1  0  0  3  0  0  0  0  0  0
    5.9530  -20.3660  -39.2780 C   0  0  0  0  0  1  0  0  0  0  0  0
    1.8470  -13.5450  -37.3990 C   0  0  0  0  0  0  0  0  0  0  0  0
    2.7050  -12.5290  -37.0090 C   0  0  0  0  0  3  0  0  0  0  0  0
    3.5520  -11.9240  -37.8750 C   0  0  0  0  0  0  0  0  0  0  0  0
    3.5590  -12.3370  -39.2010 C   0  0  0  0  0  0  0  0  0  0  0  0
    2.6900  -13.3650  -39.5940 C   0  0  0  0  0  0  0  0  0  0  0  0
    2.7000  -13.9290  -41.4040 Br  0  0  0  0  0  0  0  0  0  0  0  0
    1.8300  -13.9750  -38.7030 C   0  0  0  0  0  3  0  0  0  0  0  0
    4.4160  -10.9000  -37.4780 O   0  0  0  0  0  0  0  0  0  0  0  0
    4.0180   -9.5610  -37.3590 C   0  0  0  0  0  1  0  0  0  0  0  0
    4.4120  -11.7320  -40.0890 O   0  0  0  0  0  0  0  0  0  0  0  0
    4.1360  -10.9140  -40.5730 H   0  0  0  0  0  0  0  0  0  0  0  0
   -0.5720  -12.1440  -36.1030 C   0  0  0  0  0  2  0  0  0  0  0  0
   -1.2650  -11.9240  -34.8250 C   0  0  0  0  0  2  0  0  0  0  0  0
   -2.5850  -11.2460  -34.8530 C   0  0  0  0  0  2  0  0  0  0  0  0
   -3.6340  -12.0160  -35.4750 N   0  0  0  0  0  4  0  0  0  0  0  0
   -4.2090  -11.2340  -36.5780 C   0  0  0  0  0  1  0  0  0  0  0  0
   -4.6830  -12.1900  -34.4860 C   0  0  0  0  0  1  0  0  0  0  0  0
   -3.3590  -12.9470  -35.7990 H   0  0  0  0  0  0  0  0  0  0  0  0
  1 20  1  6  0  0  0
  2  1  1  0  0  0  0
  2 31  1  0  0  0  0
  3  2  1  0  0  0  0
  4  3  2  0  0  0  0
  5  3  1  0  0  0  0
  5  7  1  0  0  0  0
  6  5  2  0  0  0  0
  7  8  1  6  0  0  0
  7  1  1  0  0  0  0
  8  9  1  1  0  0  0
 10 11  1  0  0  0  0
 10  8  1  0  0  0  0
 12 14  1  0  0  0  0
 12 11  2  0  0  0  0
 13 12  1  0  0  0  0
 15 13  2  0  0  0  0
 15 17  1  0  0  0  0
 16 13  1  0  0  0  0
 16 18  1  0  0  0  0
 17 10  2  0  0  0  0
 18 19  1  1  0  0  0
 18 14  1  0  0  0  0
 20 21  1  0  0  0  0
 22 27  1  0  0  0  0
 22 21  2  0  0  0  0
 23 22  1  0  0  0  0
 24 23  2  0  0  0  0
 24 26  1  0  0  0  0
 25 24  1  0  0  0  0
 26 20  2  0  0  0  0
 27 28  1  0  0  0  0
 29 23  1  0  0  0  0
 30 29  1  0  0  0  0
 31 32  1  0  0  0  0
 33 32  1  0  0  0  0
 34 33  1  0  0  0  0
 34 36  1  0  0  0  0
 35 34  1  0  0  0  0
 37 34  1  0  0  0  0
M  END
>  <Pose>
1

>  <Score>
-6.680

$$$$
