/Users/jonathanwahrer/Desktop/Msc/3_Semester/Drug_Design_Praktikum/waehrer_HTS_screening/HTS_experiment/out/docking_results/vina_output/6y4q/0026_docked.pdbqt
 OpenBabel03232217153D

 29 32  0  0  1  0  0  0  0  0999 V2000
    1.4610  -19.0610  -37.7450 C   0  0  2  0  0  3  0  0  0  0  0  0
    0.4100  -19.7550  -38.3640 N   0  0  0  0  0  4  0  0  0  0  0  0
   -0.8980  -19.2210  -38.3270 C   0  0  1  0  0  3  0  0  0  0  0  0
   -1.1540  -18.2120  -37.2410 C   0  0  0  0  0  2  0  0  0  0  0  0
   -0.0550  -17.2230  -37.1300 C   0  0  0  0  0  0  0  0  0  0  0  0
   -0.0380  -15.8920  -36.8130 C   0  0  0  0  0  0  0  0  0  0  0  0
    1.2950  -15.5250  -36.8800 C   0  0  0  0  0  0  0  0  0  0  0  0
    2.0370  -16.6110  -37.2260 N   0  0  0  0  0  0  0  0  0  0  0  0
    1.2120  -17.6550  -37.3800 C   0  0  0  0  0  0  0  0  0  0  0  0
    1.5920  -14.2090  -36.5990 C   0  0  0  0  0  3  0  0  0  0  0  0
    0.6110  -13.2990  -36.2670 C   0  0  0  0  0  3  0  0  0  0  0  0
   -0.7180  -13.6670  -36.2010 C   0  0  0  0  0  3  0  0  0  0  0  0
   -1.0340  -14.9860  -36.4800 C   0  0  0  0  0  3  0  0  0  0  0  0
    0.6360  -19.9950  -39.3720 H   0  0  0  0  0  0  0  0  0  0  0  0
    0.3660  -20.7310  -37.9260 H   0  0  0  0  0  0  0  0  0  0  0  0
    3.0730  -16.5440  -37.3290 H   0  0  0  0  0  0  0  0  0  0  0  0
    2.6500  -19.0620  -38.6430 C   0  0  0  0  0  0  0  0  0  0  0  0
    2.6210  -18.5080  -39.9040 C   0  0  0  0  0  3  0  0  0  0  0  0
    3.7800  -18.5720  -40.6470 C   0  0  0  0  0  0  0  0  0  0  0  0
    4.9470  -19.1510  -40.1980 C   0  0  0  0  0  0  0  0  0  0  0  0
    3.7730  -17.8140  -42.3960 Br  0  0  0  0  0  0  0  0  0  0  0  0
    4.9690  -19.7010  -38.9390 C   0  0  0  0  0  0  0  0  0  0  0  0
    6.5600  -20.5110  -38.2830 Br  0  0  0  0  0  0  0  0  0  0  0  0
    3.8040  -19.6480  -38.1690 C   0  0  0  0  0  3  0  0  0  0  0  0
    6.0920  -19.1760  -41.0200 O   0  0  0  0  0  0  0  0  0  0  0  0
    6.9490  -19.5340  -40.6220 H   0  0  0  0  0  0  0  0  0  0  0  0
   -1.3020  -18.5930  -39.6150 C   0  0  0  0  0  0  0  0  0  0  0  0
   -0.6740  -18.9010  -40.6850 O   0  0  0  0  0  0  0  0  0  0  0  0
   -2.3470  -17.6840  -39.6380 O   0  0  0  0  0  1  0  0  0  0  0  0
  1 17  1  6  0  0  0
  1  9  1  0  0  0  0
  2  3  1  0  0  0  0
  2 15  1  0  0  0  0
  2  1  1  0  0  0  0
  3 27  1  6  0  0  0
  3  4  1  0  0  0  0
  4  5  1  0  0  0  0
  5  6  1  0  0  0  0
  6 13  1  0  0  0  0
  7  6  2  0  0  0  0
  7 10  1  0  0  0  0
  8  7  1  0  0  0  0
  9  8  1  0  0  0  0
  9  5  2  0  0  0  0
 10 11  2  0  0  0  0
 11 12  1  0  0  0  0
 13 12  2  0  0  0  0
 14  2  1  0  0  0  0
 16  8  1  0  0  0  0
 17 24  1  0  0  0  0
 18 17  2  0  0  0  0
 19 20  2  0  0  0  0
 19 18  1  0  0  0  0
 20 22  1  0  0  0  0
 21 19  1  0  0  0  0
 22 23  1  0  0  0  0
 22 24  2  0  0  0  0
 25 26  1  0  0  0  0
 25 20  1  0  0  0  0
 28 27  2  0  0  0  0
 29 27  1  0  0  0  0
M  END
>  <Pose>
1

>  <Score>
-6.101

$$$$
