/Users/jonathanwahrer/Desktop/Msc/3_Semester/Drug_Design_Praktikum/waehrer_HTS_screening/HTS_experiment/out/docking_results/vina_output/6y4q/0033_docked.pdbqt
 OpenBabel03232217153D

 33 36  0  0  0  0  0  0  0  0999 V2000
    0.8400  -17.9640  -37.7480 C   0  0  0  0  0  0  0  0  0  0  0  0
    2.0700  -18.4520  -37.7650 N   0  0  0  0  0  4  0  0  0  0  0  0
    2.4160  -19.6150  -38.3440 C   0  0  0  0  0  0  0  0  0  0  0  0
    1.4240  -20.3130  -38.9400 N   0  0  0  0  0  0  0  0  0  0  0  0
    0.1410  -19.8640  -38.9560 C   0  0  0  0  0  0  0  0  0  0  0  0
   -0.1320  -18.6800  -38.3520 N   0  0  0  0  0  2  0  0  0  0  0  0
    0.5630  -16.7380  -37.0820 N   0  0  0  0  0  0  0  0  0  0  0  0
   -0.2820  -16.6580  -36.5040 H   0  0  0  0  0  0  0  0  0  0  0  0
    1.4210  -15.6590  -37.2090 N   0  0  0  0  0  0  0  0  0  0  0  0
    1.2550  -14.6980  -38.0520 C   0  0  0  0  0  3  0  0  0  0  0  0
    2.1840  -13.5910  -38.1500 C   0  0  0  0  0  0  0  0  0  0  0  0
    2.4470  -12.8010  -37.0310 C   0  0  0  0  0  0  0  0  0  0  0  0
    3.2990  -11.7280  -37.0650 C   0  0  0  0  0  3  0  0  0  0  0  0
    3.9540  -11.3710  -38.2280 C   0  0  0  0  0  0  0  0  0  0  0  0
    3.7100  -12.1430  -39.3530 C   0  0  0  0  0  0  0  0  0  0  0  0
    4.6010  -11.6840  -40.9680 Br  0  0  0  0  0  0  0  0  0  0  0  0
    2.8460  -13.2200  -39.3000 C   0  0  0  0  0  3  0  0  0  0  0  0
    1.7880  -13.1580  -35.8500 O   0  0  0  0  0  0  0  0  0  0  0  0
    1.4050  -14.0960  -35.7770 H   0  0  0  0  0  0  0  0  0  0  0  0
    4.8190  -10.2790  -38.2510 O   0  0  0  0  0  0  0  0  0  0  0  0
    5.8240  -10.3590  -38.2150 H   0  0  0  0  0  0  0  0  0  0  0  0
    3.7660  -20.1070  -38.3330 N   0  0  0  0  0  0  0  0  0  0  0  0
    4.1410  -21.2780  -39.0730 C   0  0  0  0  0  2  0  0  0  0  0  0
    5.5890  -21.5500  -39.1990 C   0  0  0  0  0  2  0  0  0  0  0  0
    6.3870  -20.8600  -38.2970 O   0  0  0  0  0  0  0  0  0  0  0  0
    6.0760  -19.5080  -38.2530 C   0  0  0  0  0  2  0  0  0  0  0  0
    4.7400  -19.3920  -37.5620 C   0  0  0  0  0  2  0  0  0  0  0  0
   -0.8860  -20.6100  -39.5680 N   0  0  0  0  0  0  0  0  0  0  0  0
   -0.8010  -21.0110  -40.9490 C   0  0  0  0  0  2  0  0  0  0  0  0
   -1.0360  -22.5290  -40.9440 C   0  0  0  0  0  2  0  0  0  0  0  0
   -2.2100  -22.7990  -40.2720 O   0  0  0  0  0  0  0  0  0  0  0  0
   -2.0630  -22.5480  -38.9090 C   0  0  0  0  0  2  0  0  0  0  0  0
   -2.0420  -21.0080  -38.8060 C   0  0  0  0  0  2  0  0  0  0  0  0
  1  7  1  0  0  0  0
  2  1  2  0  0  0  0
  3 22  1  0  0  0  0
  3  2  2  0  0  0  0
  4  3  1  0  0  0  0
  5  4  2  0  0  0  0
  5  6  1  0  0  0  0
  6  1  1  0  0  0  0
  7  8  1  0  0  0  0
  9  7  1  0  0  0  0
 10  9  2  0  0  0  0
 11 10  1  0  0  0  0
 11 12  1  0  0  0  0
 12 18  1  0  0  0  0
 13 12  2  0  0  0  0
 14 13  1  0  0  0  0
 15 17  1  0  0  0  0
 15 14  2  0  0  0  0
 16 15  1  0  0  0  0
 17 11  2  0  0  0  0
 18 19  1  0  0  0  0
 20 14  1  0  0  0  0
 20 21  1  0  0  0  0
 22 27  1  0  0  0  0
 23 22  1  0  0  0  0
 24 23  1  0  0  0  0
 24 25  1  0  0  0  0
 25 26  1  0  0  0  0
 26 27  1  0  0  0  0
 28  5  1  0  0  0  0
 28 33  1  0  0  0  0
 29 30  1  0  0  0  0
 29 28  1  0  0  0  0
 30 31  1  0  0  0  0
 31 32  1  0  0  0  0
 32 33  1  0  0  0  0
M  END
>  <Pose>
1

>  <Score>
-6.727

$$$$
