/Users/jonathanwahrer/Desktop/Msc/3_Semester/Drug_Design_Praktikum/waehrer_HTS_screening/HTS_experiment/out/docking_results/vina_output/6y4q/0064_docked.pdbqt
 OpenBabel03232217163D

 22 25  0  0  1  0  0  0  0  0999 V2000
    1.5760  -17.6800  -37.8860 N   0  0  0  0  0  0  0  0  0  0  0  0
    2.5800  -18.5960  -37.4790 C   0  0  0  0  0  0  0  0  0  0  0  0
    3.5240  -18.3100  -36.7220 O   0  0  0  0  0  0  0  0  0  0  0  0
    2.3530  -19.9340  -38.0720 C   0  0  2  0  0  3  0  0  0  0  0  0
    3.4260  -20.3470  -39.0190 C   0  0  1  0  0  0  0  0  0  0  0  0
    2.7520  -20.7120  -40.2140 O   0  0  0  0  0  0  0  0  0  0  0  0
    2.0030  -19.5140  -40.3420 C   0  0  1  0  0  3  0  0  0  0  0  0
    1.1940  -19.6630  -39.0480 C   0  0  2  0  0  3  0  0  0  0  0  0
    0.5860  -18.3880  -38.6380 C   0  0  0  0  0  0  0  0  0  0  0  0
   -0.5670  -17.9680  -38.8770 O   0  0  0  0  0  0  0  0  0  0  0  0
    3.0770  -18.5070  -40.2070 C   0  0  0  0  0  2  0  0  0  0  0  0
    4.0630  -19.0940  -39.5280 C   0  0  0  0  0  2  0  0  0  0  0  0
    1.4860  -16.2820  -37.6480 C   0  0  0  0  0  0  0  0  0  0  0  0
    0.8960  -15.7330  -36.5330 C   0  0  0  0  0  0  0  0  0  0  0  0
    0.1600  -16.9570  -35.2400 Br  0  0  0  0  0  0  0  0  0  0  0  0
    0.8200  -14.3730  -36.3260 C   0  0  0  0  0  3  0  0  0  0  0  0
    1.3360  -13.4890  -37.2350 C   0  0  0  0  0  3  0  0  0  0  0  0
    1.9390  -14.0090  -38.3740 C   0  0  0  0  0  3  0  0  0  0  0  0
    2.0070  -15.3760  -38.5650 C   0  0  0  0  0  3  0  0  0  0  0  0
    4.3810  -21.3680  -38.5630 C   0  0  0  0  0  2  0  0  0  0  0  0
    4.7280  -22.1670  -39.6690 O   0  0  0  0  0  0  0  0  0  0  0  0
    3.9050  -22.3640  -40.2050 H   0  0  0  0  0  0  0  0  0  0  0  0
  1 13  1  0  0  0  0
  1  2  1  0  0  0  0
  2  3  2  0  0  0  0
  4  2  1  6  0  0  0
  5 20  1  1  0  0  0
  5  4  1  0  0  0  0
  6  5  1  0  0  0  0
  7  6  1  0  0  0  0
  7 11  1  1  0  0  0
  7  8  1  0  0  0  0
  8  9  1  1  0  0  0
  8  4  1  0  0  0  0
  9  1  1  0  0  0  0
 10  9  2  0  0  0  0
 11 12  1  0  0  0  0
 12  5  1  0  0  0  0
 13 14  1  0  0  0  0
 14 16  2  0  0  0  0
 14 15  1  0  0  0  0
 17 16  1  0  0  0  0
 18 17  2  0  0  0  0
 19 18  1  0  0  0  0
 19 13  2  0  0  0  0
 21 20  1  0  0  0  0
 22 21  1  0  0  0  0
M  END
>  <Pose>
1

>  <Score>
-5.954

$$$$
