/Users/jonathanwahrer/Desktop/Msc/3_Semester/Drug_Design_Praktikum/waehrer_HTS_screening/HTS_experiment/out/docking_results/vina_output/6y4q/0067_docked.pdbqt
 OpenBabel03232217163D

 22 25  0  0  1  0  0  0  0  0999 V2000
    1.9130  -17.6350  -37.7300 N   0  0  0  0  0  0  0  0  0  0  0  0
    3.0380  -18.3320  -37.0770 C   0  0  0  0  0  2  0  0  0  0  0  0
    3.3190  -19.3950  -38.0330 C   0  0  2  0  0  0  0  0  0  0  0  0
    4.1680  -19.0580  -39.1000 O   0  0  0  0  0  0  0  0  0  0  0  0
    3.9830  -20.2680  -39.8210 C   0  0  2  0  0  3  0  0  0  0  0  0
    2.4810  -20.1060  -40.0940 C   0  0  1  0  0  3  0  0  0  0  0  0
    1.9960  -19.7860  -38.7150 C   0  0  2  0  0  3  0  0  0  0  0  0
    1.2240  -18.5640  -38.5580 C   0  0  0  0  0  0  0  0  0  0  0  0
    0.1070  -18.3380  -39.0690 O   0  0  0  0  0  0  0  0  0  0  0  0
    4.2480  -21.2680  -38.7450 C   0  0  0  0  0  2  0  0  0  0  0  0
    3.9340  -20.6420  -37.5890 C   0  0  0  0  0  2  0  0  0  0  0  0
    1.5490  -16.2710  -37.5870 C   0  0  0  0  0  0  0  0  0  0  0  0
    0.7040  -15.8280  -36.5840 C   0  0  0  0  0  0  0  0  0  0  0  0
   -0.0370  -17.0110  -35.3160 Br  0  0  0  0  0  0  0  0  0  0  0  0
    0.3660  -14.4780  -36.4720 C   0  0  0  0  0  3  0  0  0  0  0  0
    0.8580  -13.5470  -37.3470 C   0  0  0  0  0  3  0  0  0  0  0  0
    1.6890  -13.9620  -38.3390 C   0  0  0  0  0  3  0  0  0  0  0  0
    2.0210  -15.2890  -38.4480 C   0  0  0  0  0  3  0  0  0  0  0  0
    2.3800  -18.8990  -40.9740 C   0  0  0  0  0  0  0  0  0  0  0  0
    3.1780  -17.9520  -40.9120 O   0  0  0  0  0  0  0  0  0  0  0  0
    1.3440  -18.8390  -41.8980 O   0  0  0  0  0  0  0  0  0  0  0  0
    0.6320  -20.0440  -42.2060 C   0  0  0  0  0  1  0  0  0  0  0  0
  1 12  1  0  0  0  0
  1  2  1  0  0  0  0
  3 11  1  1  0  0  0
  3  2  1  0  0  0  0
  4  3  1  0  0  0  0
  5  4  1  0  0  0  0
  5 10  1  1  0  0  0
  6 19  1  6  0  0  0
  6  5  1  0  0  0  0
  6  7  1  0  0  0  0
  7  8  1  6  0  0  0
  7  3  1  0  0  0  0
  8  1  1  0  0  0  0
  9  8  2  0  0  0  0
 10 11  1  0  0  0  0
 12 13  1  0  0  0  0
 13 15  2  0  0  0  0
 13 14  1  0  0  0  0
 16 15  1  0  0  0  0
 17 16  2  0  0  0  0
 18 17  1  0  0  0  0
 18 12  2  0  0  0  0
 19 20  2  0  0  0  0
 21 19  1  0  0  0  0
 22 21  1  0  0  0  0
M  END
>  <Pose>
1

>  <Score>
-5.087

$$$$
