/Users/jonathanwahrer/Desktop/Msc/3_Semester/Drug_Design_Praktikum/waehrer_HTS_screening/HTS_experiment/out/docking_results/vina_output/6y4q/0081_docked.pdbqt
 OpenBabel03232217163D

 22 25  0  0  0  0  0  0  0  0999 V2000
    1.2020  -17.2250  -36.7470 C   0  0  0  0  0  0  0  0  0  0  0  0
    0.6670  -18.0030  -37.7060 N   0  0  0  0  0  0  0  0  0  0  0  0
    1.6190  -18.7740  -38.2340 N   0  0  0  0  0  0  0  0  0  0  0  0
    2.7890  -18.5040  -37.6200 C   0  0  0  0  0  0  0  0  0  0  0  0
    2.5060  -17.5510  -36.7130 N   0  0  0  0  0  0  0  0  0  0  0  0
    3.9260  -19.1880  -38.0060 C   0  0  0  0  0  0  0  0  0  0  0  0
    3.9100  -20.1430  -39.0020 C   0  0  0  0  0  0  0  0  0  0  0  0
    5.1470  -20.6520  -39.1760 N   0  0  0  0  0  0  0  0  0  0  0  0
    5.9420  -20.0440  -38.3180 N   0  0  0  0  0  0  0  0  0  0  0  0
    5.2370  -19.1370  -37.5790 C   0  0  0  0  0  3  0  0  0  0  0  0
    5.5710  -21.6760  -40.1160 C   0  0  0  0  0  1  0  0  0  0  0  0
    2.7230  -20.3820  -39.5890 N   0  0  0  0  0  0  0  0  0  0  0  0
    1.6090  -19.7050  -39.2040 C   0  0  0  0  0  3  0  0  0  0  0  0
    0.4900  -16.2090  -35.8960 C   0  0  0  0  0  2  0  0  0  0  0  0
    0.7580  -14.8630  -36.3470 N   0  0  0  0  0  0  0  0  0  0  0  0
   -0.1840  -13.9750  -36.6940 C   0  0  0  0  0  0  0  0  0  0  0  0
    0.4770  -12.8300  -37.0580 C   0  0  0  0  0  0  0  0  0  0  0  0
   -1.6710  -14.1510  -36.6970 C   0  0  0  0  0  1  0  0  0  0  0  0
   -0.3080  -11.2060  -37.6510 Br  0  0  0  0  0  0  0  0  0  0  0  0
    1.8240  -13.0430  -36.9270 C   0  0  0  0  0  0  0  0  0  0  0  0
    1.9500  -14.3150  -36.4840 N   0  0  0  0  0  0  0  0  0  0  0  0
    2.9480  -12.0780  -37.2090 C   0  0  0  0  0  1  0  0  0  0  0  0
  1  5  1  0  0  0  0
  1 14  1  0  0  0  0
  2  1  2  0  0  0  0
  3  2  1  0  0  0  0
  3  4  1  0  0  0  0
  4  5  2  0  0  0  0
  6  4  1  0  0  0  0
  6 10  1  0  0  0  0
  7  6  2  0  0  0  0
  8  7  1  0  0  0  0
  8  9  1  0  0  0  0
  9 10  2  0  0  0  0
 11  8  1  0  0  0  0
 12 13  2  0  0  0  0
 12  7  1  0  0  0  0
 13  3  1  0  0  0  0
 15 14  1  0  0  0  0
 16 15  1  0  0  0  0
 17 20  1  0  0  0  0
 17 16  2  0  0  0  0
 18 16  1  0  0  0  0
 19 17  1  0  0  0  0
 20 21  2  0  0  0  0
 21 15  1  0  0  0  0
 22 20  1  0  0  0  0
M  END
>  <Pose>
1

>  <Score>
-6.059

$$$$
