/Users/jonathanwahrer/Desktop/Msc/3_Semester/Drug_Design_Praktikum/waehrer_HTS_screening/HTS_experiment/out/docking_results/vina_output/6y4q/0085_docked.pdbqt
 OpenBabel03232217173D

 26 29  0  0  0  0  0  0  0  0999 V2000
    1.7100  -20.0640  -38.9280 C   0  0  0  0  0  0  0  0  0  0  0  0
    2.9560  -19.7080  -38.3730 C   0  0  0  0  0  0  0  0  0  0  0  0
    3.2670  -19.1790  -37.1590 N   0  0  0  0  0  0  0  0  0  0  0  0
    4.5570  -19.0320  -37.1260 O   0  0  0  0  0  0  0  0  0  0  0  0
    5.0900  -19.4330  -38.2380 N   0  0  0  0  0  0  0  0  0  0  0  0
    4.1290  -19.8690  -39.0610 C   0  0  0  0  0  0  0  0  0  0  0  0
    4.1710  -20.3890  -40.3390 C   0  0  0  0  0  0  0  0  0  0  0  0
    2.9470  -20.7370  -40.8800 C   0  0  0  0  0  3  0  0  0  0  0  0
    1.7480  -20.5770  -40.1890 C   0  0  0  0  0  3  0  0  0  0  0  0
    0.5630  -19.8530  -38.1220 N   0  0  0  0  0  0  0  0  0  0  0  0
   -0.2690  -18.7380  -38.1790 C   0  0  0  0  0  0  0  0  0  0  0  0
   -0.0220  -17.7950  -39.0200 O   0  0  0  0  0  0  0  0  0  0  0  0
    0.2800  -20.5950  -37.4140 H   0  0  0  0  0  0  0  0  0  0  0  0
   -1.4550  -18.5510  -37.3170 C   0  0  0  0  0  0  0  0  0  0  0  0
   -2.6960  -19.0850  -37.4410 C   0  0  0  0  0  0  0  0  0  0  0  0
   -3.3540  -20.3150  -38.7450 Br  0  0  0  0  0  0  0  0  0  0  0  0
   -3.4670  -18.5720  -36.3790 C   0  0  0  0  0  3  0  0  0  0  0  0
   -2.6480  -17.7770  -35.7000 N   0  0  0  0  0  0  0  0  0  0  0  0
   -1.4460  -17.7290  -36.2120 N   0  0  0  0  0  0  0  0  0  0  0  0
   -0.3280  -16.9660  -35.7210 C   0  0  0  0  0  1  0  0  0  0  0  0
    5.3670  -20.5590  -41.0590 N   0  0  0  0  0  0  0  0  0  0  0  0
    5.8800  -19.4310  -41.8320 C   0  0  0  0  0  2  0  0  0  0  0  0
    7.0600  -19.8260  -42.6760 C   0  0  0  0  0  2  0  0  0  0  0  0
    6.9920  -21.0470  -43.2620 O   0  0  0  0  0  0  0  0  0  0  0  0
    6.3000  -22.0380  -42.6280 C   0  0  0  0  0  2  0  0  0  0  0  0
    6.1940  -21.7250  -41.1500 C   0  0  0  0  0  2  0  0  0  0  0  0
  1  2  1  0  0  0  0
  1 10  1  0  0  0  0
  2  3  2  0  0  0  0
  3  4  1  0  0  0  0
  5  4  1  0  0  0  0
  6  2  1  0  0  0  0
  6  5  2  0  0  0  0
  7  6  1  0  0  0  0
  8  7  2  0  0  0  0
  8  9  1  0  0  0  0
  9  1  2  0  0  0  0
 10 13  1  0  0  0  0
 11 10  1  0  0  0  0
 11 14  1  0  0  0  0
 12 11  2  0  0  0  0
 14 19  1  0  0  0  0
 15 14  2  0  0  0  0
 15 17  1  0  0  0  0
 16 15  1  0  0  0  0
 17 18  2  0  0  0  0
 19 20  1  0  0  0  0
 19 18  1  0  0  0  0
 21  7  1  0  0  0  0
 22 21  1  0  0  0  0
 23 22  1  0  0  0  0
 24 23  1  0  0  0  0
 24 25  1  0  0  0  0
 25 26  1  0  0  0  0
 26 21  1  0  0  0  0
M  END
>  <Pose>
1

>  <Score>
-5.483

$$$$
