/Users/jonathanwahrer/Desktop/Msc/3_Semester/Drug_Design_Praktikum/waehrer_HTS_screening/HTS_experiment/out/docking_results/vina_output/6y4q/0095_docked.pdbqt
 OpenBabel03232217173D

 26 29  0  0  0  0  0  0  0  0999 V2000
    0.8810  -16.5300  -35.9280 C   0  0  0  0  0  0  0  0  0  0  0  0
    0.5570  -17.0180  -34.7970 O   0  0  0  0  0  0  0  0  0  0  0  0
    1.0380  -15.1960  -36.2200 N   0  0  0  0  0  0  0  0  0  0  0  0
    0.7130  -14.8640  -34.9400 H   0  0  0  0  0  0  0  0  0  0  0  0
    1.1050  -17.5410  -37.0280 C   0  0  0  0  0  0  0  0  0  0  0  0
    2.3690  -17.8890  -37.4310 C   0  0  0  0  0  3  0  0  0  0  0  0
    2.5130  -18.8230  -38.4630 C   0  0  0  0  0  0  0  0  0  0  0  0
    4.2480  -19.3190  -39.0380 Br  0  0  0  0  0  0  0  0  0  0  0  0
    1.4100  -19.3810  -39.0610 C   0  0  0  0  0  3  0  0  0  0  0  0
    0.1380  -19.0310  -38.6550 C   0  0  0  0  0  3  0  0  0  0  0  0
   -0.0020  -18.0930  -37.6170 C   0  0  0  0  0  0  0  0  0  0  0  0
   -1.2760  -17.6930  -37.1450 N   0  0  0  0  0  0  0  0  0  0  0  0
   -1.9860  -18.3870  -36.2770 N   0  0  0  0  0  0  0  0  0  0  0  0
   -3.1260  -17.7830  -36.0160 N   0  0  0  0  0  0  0  0  0  0  0  0
   -3.1720  -16.6670  -36.7250 N   0  0  0  0  0  0  0  0  0  0  0  0
   -2.0300  -16.6180  -37.4180 C   0  0  0  0  0  3  0  0  0  0  0  0
    1.1940  -13.8700  -36.5100 C   0  0  0  0  0  2  0  0  0  0  0  0
    1.9260  -13.6050  -37.8150 C   0  0  0  0  0  0  0  0  0  0  0  0
    2.8560  -12.6430  -37.9990 N   0  0  0  0  0  0  0  0  0  0  0  0
    3.3080  -12.6730  -39.2600 C   0  0  0  0  0  0  0  0  0  0  0  0
    3.3550  -11.7180  -37.1320 C   0  0  0  0  0  3  0  0  0  0  0  0
    2.6450  -13.6720  -39.8610 N   0  0  0  0  0  0  0  0  0  0  0  0
    4.2850  -11.7650  -39.6890 C   0  0  0  0  0  3  0  0  0  0  0  0
    1.8030  -14.2400  -38.9850 N   0  0  0  0  0  0  0  0  0  0  0  0
    4.7900  -10.8350  -38.8230 C   0  0  0  0  0  3  0  0  0  0  0  0
    4.3230  -10.8050  -37.5240 C   0  0  0  0  0  3  0  0  0  0  0  0
  1  2  2  0  0  0  0
  3  1  1  0  0  0  0
  3  4  1  0  0  0  0
  5  1  1  0  0  0  0
  6  5  1  0  0  0  0
  7  6  2  0  0  0  0
  8  7  1  0  0  0  0
  9 10  2  0  0  0  0
  9  7  1  0  0  0  0
 10 11  1  0  0  0  0
 11 12  1  0  0  0  0
 11  5  2  0  0  0  0
 12 13  1  0  0  0  0
 13 14  2  0  0  0  0
 15 14  1  0  0  0  0
 16 12  1  0  0  0  0
 16 15  2  0  0  0  0
 17  3  1  0  0  0  0
 18 17  1  0  0  0  0
 19 18  1  0  0  0  0
 19 21  1  0  0  0  0
 20 19  1  0  0  0  0
 22 20  2  0  0  0  0
 22 24  1  0  0  0  0
 23 20  1  0  0  0  0
 23 25  2  0  0  0  0
 24 18  2  0  0  0  0
 25 26  1  0  0  0  0
 26 21  2  0  0  0  0
M  END
>  <Pose>
1

>  <Score>
-6.443

$$$$
