/Users/jonathanwahrer/Desktop/Msc/3_Semester/Drug_Design_Praktikum/waehrer_HTS_screening/HTS_experiment/out/docking_results/vina_output/6y4q/0107_docked.pdbqt
 OpenBabel03232217173D

 31 34  0  0  0  0  0  0  0  0999 V2000
    1.4100  -17.6100  -39.6230 C   0  0  0  0  0  0  0  0  0  0  0  0
    2.6000  -18.1540  -39.2900 N   0  0  0  0  0  4  0  0  0  0  0  0
    2.6820  -19.3100  -38.6210 C   0  0  0  0  0  0  0  0  0  0  0  0
    1.5430  -19.9320  -38.2790 N   0  0  0  0  0  0  0  0  0  0  0  0
    0.3110  -19.4430  -38.5820 C   0  0  0  0  0  0  0  0  0  0  0  0
    0.3050  -18.2640  -39.2620 N   0  0  0  0  0  2  0  0  0  0  0  0
    1.2870  -16.3840  -40.3330 N   0  0  0  0  0  0  0  0  0  0  0  0
    0.6220  -16.2930  -41.1480 H   0  0  0  0  0  0  0  0  0  0  0  0
    2.0250  -15.2450  -40.0060 N   0  0  0  0  0  0  0  0  0  0  0  0
    1.8100  -14.5280  -38.9680 C   0  0  0  0  0  3  0  0  0  0  0  0
    2.5910  -13.3410  -38.6420 C   0  0  0  0  0  0  0  0  0  0  0  0
    3.3850  -12.7220  -39.5770 C   0  0  0  0  0  3  0  0  0  0  0  0
    4.1180  -11.6010  -39.2570 C   0  0  0  0  0  0  0  0  0  0  0  0
    5.2210  -10.7450  -40.5550 Br  0  0  0  0  0  0  0  0  0  0  0  0
    4.0860  -11.0510  -37.9820 C   0  0  0  0  0  3  0  0  0  0  0  0
    3.2860  -11.6700  -37.0350 C   0  0  0  0  0  3  0  0  0  0  0  0
    2.5480  -12.8070  -37.3720 C   0  0  0  0  0  0  0  0  0  0  0  0
    1.7360  -13.4510  -36.4460 O   0  0  0  0  0  0  0  0  0  0  0  0
    0.5300  -12.9160  -35.9540 C   0  0  0  0  0  1  0  0  0  0  0  0
    3.9340  -19.8820  -38.2690 N   0  0  0  0  0  0  0  0  0  0  0  0
    4.8750  -19.2110  -37.4000 C   0  0  0  0  0  2  0  0  0  0  0  0
    6.2990  -19.3520  -37.9160 C   0  0  0  0  0  2  0  0  0  0  0  0
    6.5500  -20.6720  -38.3090 O   0  0  0  0  0  0  0  0  0  0  0  0
    5.7190  -21.0650  -39.3310 C   0  0  0  0  0  2  0  0  0  0  0  0
    4.3130  -21.1790  -38.7830 C   0  0  0  0  0  2  0  0  0  0  0  0
   -0.8790  -20.1000  -38.2200 N   0  0  0  0  0  0  0  0  0  0  0  0
   -1.2870  -21.3130  -38.8650 C   0  0  0  0  0  2  0  0  0  0  0  0
   -2.7160  -21.0970  -39.3580 C   0  0  0  0  0  2  0  0  0  0  0  0
   -3.4730  -20.7330  -38.2580 O   0  0  0  0  0  0  0  0  0  0  0  0
   -3.1330  -19.4990  -37.7550 C   0  0  0  0  0  2  0  0  0  0  0  0
   -1.7140  -19.5560  -37.1890 C   0  0  0  0  0  2  0  0  0  0  0  0
  1  2  2  0  0  0  0
  1  6  1  0  0  0  0
  2  3  2  0  0  0  0
  3  4  1  0  0  0  0
  3 20  1  0  0  0  0
  5  4  2  0  0  0  0
  5 26  1  0  0  0  0
  6  5  1  0  0  0  0
  7  9  1  0  0  0  0
  7  1  1  0  0  0  0
  8  7  1  0  0  0  0
  9 10  2  0  0  0  0
 10 11  1  0  0  0  0
 11 17  1  0  0  0  0
 12 13  1  0  0  0  0
 12 11  2  0  0  0  0
 13 15  2  0  0  0  0
 14 13  1  0  0  0  0
 15 16  1  0  0  0  0
 17 16  2  0  0  0  0
 17 18  1  0  0  0  0
 18 19  1  0  0  0  0
 20 21  1  0  0  0  0
 22 21  1  0  0  0  0
 23 22  1  0  0  0  0
 24 25  1  0  0  0  0
 24 23  1  0  0  0  0
 25 20  1  0  0  0  0
 26 31  1  0  0  0  0
 27 26  1  0  0  0  0
 28 27  1  0  0  0  0
 28 29  1  0  0  0  0
 29 30  1  0  0  0  0
 30 31  1  0  0  0  0
M  END
>  <Pose>
1

>  <Score>
-6.535

$$$$
