/Users/jonathanwahrer/Desktop/Msc/3_Semester/Drug_Design_Praktikum/waehrer_HTS_screening/HTS_experiment/out/docking_results/vina_output/6y4q/0111_docked.pdbqt
 OpenBabel03232217173D

 29 32  0  0  0  0  0  0  0  0999 V2000
    2.1420  -17.6870  -37.1990 C   0  0  0  0  0  0  0  0  0  0  0  0
    2.3170  -18.6500  -38.0780 N   0  0  0  0  0  0  0  0  0  0  0  0
    3.3310  -19.4830  -37.6810 C   0  0  0  0  0  0  0  0  0  0  0  0
    3.7920  -18.9910  -36.5090 N   0  0  0  0  0  0  0  0  0  0  0  0
    3.1070  -17.9390  -36.2140 N   0  0  0  0  0  0  0  0  0  0  0  0
    3.4960  -20.4530  -38.5840 N   0  0  0  0  0  0  0  0  0  0  0  0
    2.5950  -20.2400  -39.5570 C   0  0  0  0  0  0  0  0  0  0  0  0
    1.8430  -19.1080  -39.2640 C   0  0  0  0  0  0  0  0  0  0  0  0
    0.8980  -18.6530  -40.0640 N   0  0  0  0  0  0  0  0  0  0  0  0
    0.6740  -19.3570  -41.2170 C   0  0  0  0  0  0  0  0  0  0  0  0
   -0.2030  -19.0140  -42.0490 O   0  0  0  0  0  0  0  0  0  0  0  0
    1.3810  -20.4630  -41.5330 N   0  0  0  0  0  0  0  0  0  0  0  0
    2.3360  -20.9210  -40.7320 C   0  0  0  0  0  0  0  0  0  0  0  0
    3.0290  -21.9430  -40.9690 O   0  0  0  0  0  0  0  0  0  0  0  0
    0.1030  -17.4690  -39.9370 C   0  0  0  0  0  1  0  0  0  0  0  0
    1.1980  -20.9880  -42.4130 H   0  0  0  0  0  0  0  0  0  0  0  0
    1.3010  -16.5420  -36.9930 C   0  0  0  0  0  0  0  0  0  0  0  0
    1.6100  -15.2200  -37.1030 C   0  0  0  0  0  3  0  0  0  0  0  0
    0.7670  -14.1710  -36.8790 C   0  0  0  0  0  0  0  0  0  0  0  0
    1.4040  -12.3850  -37.0900 Br  0  0  0  0  0  0  0  0  0  0  0  0
   -0.5200  -14.4180  -36.5050 C   0  0  0  0  0  3  0  0  0  0  0  0
   -0.9230  -15.7370  -36.3680 C   0  0  0  0  0  3  0  0  0  0  0  0
   -0.0400  -16.7640  -36.6050 C   0  0  0  0  0  0  0  0  0  0  0  0
   -0.4830  -18.0660  -36.4560 O   0  0  0  0  0  0  0  0  0  0  0  0
   -1.7910  -18.4860  -36.6890 C   0  0  0  0  0  1  0  0  0  0  0  0
    4.4430  -21.5280  -38.5470 C   0  0  0  0  0  2  0  0  0  0  0  0
    5.8110  -21.0080  -38.9350 C   0  0  0  0  0  2  0  0  0  0  0  0
    6.0770  -21.4120  -40.2280 O   0  0  0  0  0  0  0  0  0  0  0  0
    6.0720  -20.3260  -41.1220 C   0  0  0  0  0  1  0  0  0  0  0  0
  1 17  1  0  0  0  0
  1  5  2  0  0  0  0
  2  3  1  0  0  0  0
  2  1  1  0  0  0  0
  3  4  2  0  0  0  0
  4  5  1  0  0  0  0
  6 26  1  0  0  0  0
  6  3  1  0  0  0  0
  7  8  2  0  0  0  0
  7  6  1  0  0  0  0
  8  2  1  0  0  0  0
  9 15  1  0  0  0  0
  9  8  1  0  0  0  0
 10  9  1  0  0  0  0
 11 10  2  0  0  0  0
 12 10  1  0  0  0  0
 12 13  1  0  0  0  0
 13  7  1  0  0  0  0
 14 13  2  0  0  0  0
 16 12  1  0  0  0  0
 17 23  1  0  0  0  0
 18 17  2  0  0  0  0
 18 19  1  0  0  0  0
 19 21  2  0  0  0  0
 20 19  1  0  0  0  0
 21 22  1  0  0  0  0
 23 24  1  0  0  0  0
 23 22  2  0  0  0  0
 25 24  1  0  0  0  0
 27 26  1  0  0  0  0
 28 27  1  0  0  0  0
 29 28  1  0  0  0  0
M  END
>  <Pose>
1

>  <Score>
-5.865

$$$$
