/Users/jonathanwahrer/Desktop/Msc/3_Semester/Drug_Design_Praktikum/waehrer_HTS_screening/HTS_experiment/out/docking_results/vina_output/6y4q/0129_docked.pdbqt
 OpenBabel03232217183D

 31 34  0  0  1  0  0  0  0  0999 V2000
   -0.8540  -17.6880  -36.9360 C   0  0  0  0  0  0  0  0  0  0  0  0
   -1.6830  -18.4150  -36.3050 O   0  0  0  0  0  0  0  0  0  0  0  0
    0.1260  -18.2780  -37.7860 N   0  0  0  0  0  0  0  0  0  0  0  0
    1.1880  -17.5170  -38.3920 C   0  0  0  0  0  2  0  0  0  0  0  0
    2.4540  -18.0930  -37.7130 C   0  0  0  0  0  2  0  0  0  0  0  0
    2.6410  -19.4470  -38.3440 C   0  0  2  0  0  0  0  0  0  0  0  0
    3.5800  -20.1730  -37.4910 N   0  0  0  0  0  0  0  0  0  0  0  0
    4.8140  -19.5030  -37.3180 C   0  0  0  0  0  2  0  0  0  0  0  0
    5.5950  -19.3460  -38.6100 C   0  0  0  0  0  2  0  0  0  0  0  0
    4.7040  -19.1620  -39.7710 C   0  0  0  0  0  0  0  0  0  0  0  0
    5.0190  -18.9290  -41.0560 N   0  0  0  0  0  0  0  0  0  0  0  0
    3.8600  -18.8420  -41.7440 C   0  0  0  0  0  3  0  0  0  0  0  0
    2.8360  -19.0220  -40.8710 N   0  0  0  0  0  0  0  0  0  0  0  0
    3.3300  -19.2210  -39.6340 C   0  0  0  0  0  0  0  0  0  0  0  0
    1.4060  -20.2660  -38.4740 C   0  0  0  0  0  3  0  0  0  0  0  0
    0.1030  -19.6700  -38.0620 C   0  0  0  0  0  3  0  0  0  0  0  0
    3.6970  -21.1740  -37.7950 H   0  0  0  0  0  0  0  0  0  0  0  0
    1.8600  -18.9910  -41.2270 H   0  0  0  0  0  0  0  0  0  0  0  0
   -0.9550  -16.2500  -36.7290 C   0  0  2  0  0  3  0  0  0  0  0  0
   -2.3660  -15.7830  -37.0500 C   0  0  0  0  0  1  0  0  0  0  0  0
    0.0770  -15.4970  -37.3430 N   0  0  0  0  0  0  0  0  0  0  0  0
    0.6390  -14.3360  -36.8220 C   0  0  0  0  0  0  0  0  0  0  0  0
    0.4270  -13.7530  -35.7730 O   0  0  0  0  0  0  0  0  0  0  0  0
    0.4670  -15.9040  -38.2460 H   0  0  0  0  0  0  0  0  0  0  0  0
    1.6680  -13.7070  -37.7330 C   0  0  0  0  0  0  0  0  0  0  0  0
    2.3710  -12.6300  -37.2390 C   0  0  0  0  0  3  0  0  0  0  0  0
    3.2910  -11.9990  -38.0430 C   0  0  0  0  0  0  0  0  0  0  0  0
    4.2880  -10.5020  -37.3550 Br  0  0  0  0  0  0  0  0  0  0  0  0
    3.5320  -12.4080  -39.3390 C   0  0  0  0  0  3  0  0  0  0  0  0
    2.7890  -13.5020  -39.7880 C   0  0  0  0  0  3  0  0  0  0  0  0
    1.8720  -14.1440  -39.0030 C   0  0  0  0  0  3  0  0  0  0  0  0
  1 19  1  0  0  0  0
  1  2  2  0  0  0  0
  3  1  1  0  0  0  0
  4  3  1  0  0  0  0
  4  5  1  0  0  0  0
  6 15  1  6  0  0  0
  6  5  1  0  0  0  0
  6  7  1  0  0  0  0
  7  8  1  0  0  0  0
  9  8  1  0  0  0  0
 10 14  2  0  0  0  0
 10  9  1  0  0  0  0
 11 10  1  0  0  0  0
 12 11  2  0  0  0  0
 12 13  1  0  0  0  0
 13 14  1  0  0  0  0
 14  6  1  0  0  0  0
 15 16  2  0  0  0  0
 16  3  1  0  0  0  0
 17  7  1  0  0  0  0
 18 13  1  0  0  0  0
 19 20  1  6  0  0  0
 21 22  1  0  0  0  0
 21 19  1  0  0  0  0
 22 23  2  0  0  0  0
 24 21  1  0  0  0  0
 25 26  1  0  0  0  0
 25 22  1  0  0  0  0
 27 28  1  0  0  0  0
 27 26  2  0  0  0  0
 29 27  1  0  0  0  0
 30 29  2  0  0  0  0
 30 31  1  0  0  0  0
 31 25  2  0  0  0  0
M  END
>  <Pose>
1

>  <Score>
-7.322

$$$$
