/Users/jonathanwahrer/Desktop/Msc/3_Semester/Drug_Design_Praktikum/waehrer_HTS_screening/HTS_experiment/out/docking_results/vina_output/6y4q/0131_docked.pdbqt
 OpenBabel03232217183D

 30 33  0  0  1  0  0  0  0  0999 V2000
   -0.2710  -16.5090  -37.3280 C   0  0  0  0  0  0  0  0  0  0  0  0
   -1.3710  -16.4110  -37.9240 O   0  0  0  0  0  0  0  0  0  0  0  0
    0.4240  -17.7290  -37.3630 N   0  0  0  0  0  0  0  0  0  0  0  0
    1.6910  -17.9180  -36.7020 C   0  0  0  0  0  2  0  0  0  0  0  0
    2.7140  -18.1840  -37.7850 C   0  0  0  0  0  2  0  0  0  0  0  0
    2.2160  -19.2790  -38.6970 C   0  0  1  0  0  0  0  0  0  0  0  0
    2.0580  -18.7200  -40.0230 N   0  0  0  0  0  0  0  0  0  0  0  0
    1.7120  -19.6580  -41.0320 C   0  0  0  0  0  2  0  0  0  0  0  0
    2.3680  -20.9890  -40.9730 C   0  0  0  0  0  2  0  0  0  0  0  0
    3.3850  -21.1290  -39.9100 C   0  0  0  0  0  0  0  0  0  0  0  0
    4.4620  -21.9610  -39.7660 N   0  0  0  0  0  0  0  0  0  0  0  0
    5.0340  -21.6480  -38.5970 C   0  0  0  0  0  3  0  0  0  0  0  0
    4.3430  -20.6520  -38.0190 N   0  0  0  0  0  0  0  0  0  0  0  0
    3.3000  -20.3000  -38.8140 C   0  0  0  0  0  0  0  0  0  0  0  0
    0.9500  -19.9320  -38.2450 C   0  0  0  0  0  2  0  0  0  0  0  0
   -0.1240  -18.8530  -38.0760 C   0  0  0  0  0  2  0  0  0  0  0  0
    1.2990  -17.9890  -39.9830 H   0  0  0  0  0  0  0  0  0  0  0  0
    4.7470  -22.6970  -40.4750 H   0  0  0  0  0  0  0  0  0  0  0  0
    0.2210  -15.3000  -36.6160 C   0  0  0  0  0  2  0  0  0  0  0  0
    1.1750  -14.5610  -37.4150 N   0  0  0  0  0  0  0  0  0  0  0  0
    1.7910  -13.3800  -36.9440 C   0  0  0  0  0  0  0  0  0  0  0  0
    1.4800  -12.9840  -35.7910 O   0  0  0  0  0  0  0  0  0  0  0  0
    1.4160  -14.9080  -38.3650 H   0  0  0  0  0  0  0  0  0  0  0  0
    2.7530  -12.6180  -37.7280 C   0  0  0  0  0  0  0  0  0  0  0  0
    2.9640  -12.8250  -39.0780 C   0  0  0  0  0  3  0  0  0  0  0  0
    3.8860  -12.0850  -39.7980 C   0  0  0  0  0  0  0  0  0  0  0  0
    4.1090  -12.4340  -41.6460 Br  0  0  0  0  0  0  0  0  0  0  0  0
    4.6390  -11.0960  -39.1650 C   0  0  0  0  0  3  0  0  0  0  0  0
    4.4160  -10.9040  -37.8190 C   0  0  0  0  0  3  0  0  0  0  0  0
    3.5020  -11.6350  -37.0980 C   0  0  0  0  0  3  0  0  0  0  0  0
  1 19  1  0  0  0  0
  2  1  2  0  0  0  0
  3  1  1  0  0  0  0
  3  4  1  0  0  0  0
  5  4  1  0  0  0  0
  6 15  1  1  0  0  0
  6  5  1  0  0  0  0
  7 17  1  0  0  0  0
  7  6  1  0  0  0  0
  8  9  1  0  0  0  0
  8  7  1  0  0  0  0
  9 10  1  0  0  0  0
 10 11  1  0  0  0  0
 10 14  2  0  0  0  0
 11 12  1  0  0  0  0
 12 13  2  0  0  0  0
 14  6  1  0  0  0  0
 14 13  1  0  0  0  0
 15 16  1  0  0  0  0
 16  3  1  0  0  0  0
 18 11  1  0  0  0  0
 20 21  1  0  0  0  0
 20 19  1  0  0  0  0
 21 22  2  0  0  0  0
 23 20  1  0  0  0  0
 24 30  1  0  0  0  0
 24 21  1  0  0  0  0
 25 24  2  0  0  0  0
 26 28  2  0  0  0  0
 26 25  1  0  0  0  0
 27 26  1  0  0  0  0
 28 29  1  0  0  0  0
 29 30  2  0  0  0  0
M  END
>  <Pose>
1

>  <Score>
-7.572

$$$$
