/Users/jonathanwahrer/Desktop/Msc/3_Semester/Drug_Design_Praktikum/waehrer_HTS_screening/HTS_experiment/out/docking_results/vina_output/6y4q/0138_docked.pdbqt
 OpenBabel03232217193D

 25 28  0  0  1  0  0  0  0  0999 V2000
    3.5810  -19.6120  -39.4630 C   0  0  2  0  0  3  0  0  0  0  0  0
    4.5090  -19.1880  -40.5530 C   0  0  0  0  0  2  0  0  0  0  0  0
    5.0520  -20.4690  -41.0370 N   0  0  0  0  0  0  0  0  0  0  0  0
    4.2510  -21.5610  -40.5020 C   0  0  1  0  0  3  0  0  0  0  0  0
    2.9830  -20.8870  -40.0770 C   0  0  0  0  0  2  0  0  0  0  0  0
    4.0820  -22.5540  -41.5590 C   0  0  0  0  0  0  0  0  0  0  0  0
    3.0280  -23.1910  -41.6750 O   0  0  0  0  0  0  0  0  0  0  0  0
    5.1540  -22.7980  -42.4800 N   0  0  0  0  0  0  0  0  0  0  0  0
    6.4310  -22.2210  -42.1360 C   0  0  1  0  0  3  0  0  0  0  0  0
    7.4110  -22.4620  -43.2090 C   0  0  0  0  0  2  0  0  0  0  0  0
    6.7600  -23.5810  -43.9980 C   0  0  0  0  0  2  0  0  0  0  0  0
    5.2970  -23.5020  -43.7180 C   0  0  0  0  0  2  0  0  0  0  0  0
    6.1580  -20.7640  -41.8860 C   0  0  0  0  0  0  0  0  0  0  0  0
    6.8620  -19.8640  -42.3960 O   0  0  0  0  0  0  0  0  0  0  0  0
    2.5940  -18.6630  -39.1030 N   0  0  0  0  0  0  0  0  0  0  0  0
    2.4510  -18.2590  -37.7580 C   0  0  0  0  0  0  0  0  0  0  0  0
    3.2230  -18.7600  -36.8670 O   0  0  0  0  0  0  0  0  0  0  0  0
    1.9680  -18.2550  -39.8210 H   0  0  0  0  0  0  0  0  0  0  0  0
    1.4800  -17.2960  -37.2700 C   0  0  0  0  0  0  0  0  0  0  0  0
    1.7880  -15.9810  -37.0270 C   0  0  0  0  0  3  0  0  0  0  0  0
    0.8820  -15.0610  -36.5660 C   0  0  0  0  0  0  0  0  0  0  0  0
    1.3460  -13.2470  -36.2410 Br  0  0  0  0  0  0  0  0  0  0  0  0
   -0.4160  -15.4570  -36.3270 C   0  0  0  0  0  3  0  0  0  0  0  0
   -0.7750  -16.7750  -36.5580 C   0  0  0  0  0  3  0  0  0  0  0  0
    0.1840  -17.6840  -37.0300 C   0  0  0  0  0  3  0  0  0  0  0  0
  1 15  1  6  0  0  0
  2  1  1  0  0  0  0
  3  2  1  0  0  0  0
  3  4  1  0  0  0  0
  4  5  1  6  0  0  0
  5  1  1  0  0  0  0
  6  4  1  0  0  0  0
  7  6  2  0  0  0  0
  8  9  1  0  0  0  0
  8  6  1  0  0  0  0
  9 10  1  6  0  0  0
  9 13  1  0  0  0  0
 11 12  1  0  0  0  0
 11 10  1  0  0  0  0
 12  8  1  0  0  0  0
 13  3  1  0  0  0  0
 14 13  2  0  0  0  0
 15 16  1  0  0  0  0
 16 19  1  0  0  0  0
 16 17  2  0  0  0  0
 18 15  1  0  0  0  0
 19 25  2  0  0  0  0
 19 20  1  0  0  0  0
 20 21  2  0  0  0  0
 21 23  1  0  0  0  0
 21 22  1  0  0  0  0
 24 23  2  0  0  0  0
 25 24  1  0  0  0  0
M  END
>  <Pose>
1

>  <Score>
-6.204

$$$$
