/Users/jonathanwahrer/Desktop/Msc/3_Semester/Drug_Design_Praktikum/waehrer_HTS_screening/HTS_experiment/out/docking_results/vina_output/6y4q/0152_docked.pdbqt
 OpenBabel03232217193D

 27 30  0  0  0  0  0  0  0  0999 V2000
    2.0310  -16.9660  -36.1470 C   0  0  0  0  0  3  0  0  0  0  0  0
    2.4300  -17.9890  -36.9110 C   0  0  0  0  0  0  0  0  0  0  0  0
    1.8980  -18.3600  -38.0750 O   0  0  0  0  0  0  0  0  0  0  0  0
    2.6110  -19.4670  -38.6010 C   0  0  0  0  0  0  0  0  0  0  0  0
    3.6240  -19.8260  -37.7770 C   0  0  0  0  0  0  0  0  0  0  0  0
    4.4700  -20.8530  -38.1880 C   0  0  0  0  0  3  0  0  0  0  0  0
    4.2620  -21.4870  -39.3740 C   0  0  0  0  0  3  0  0  0  0  0  0
    3.2020  -21.1170  -40.1770 C   0  0  0  0  0  0  0  0  0  0  0  0
    2.3320  -20.1090  -39.8390 C   0  0  0  0  0  0  0  0  0  0  0  0
    3.0230  -21.8050  -41.3800 O   0  0  0  0  0  1  0  0  0  0  0  0
    3.5540  -18.8930  -36.6280 C   0  0  0  0  0  0  0  0  0  0  0  0
    4.2950  -18.8830  -35.6280 O   0  0  0  0  0  0  0  0  0  0  0  0
    0.8960  -16.1100  -36.5850 C   0  0  0  0  0  0  0  0  0  0  0  0
    1.0670  -14.7180  -36.6190 C   0  0  0  0  0  3  0  0  0  0  0  0
   -0.0270  -13.8430  -36.6640 C   0  0  0  0  0  0  0  0  0  0  0  0
    0.3320  -11.9690  -36.6820 Br  0  0  0  0  0  0  0  0  0  0  0  0
   -1.2880  -14.3160  -36.6800 C   0  0  0  0  0  3  0  0  0  0  0  0
   -1.5060  -15.7190  -36.6500 C   0  0  0  0  0  3  0  0  0  0  0  0
   -0.3870  -16.5780  -36.6060 C   0  0  0  0  0  3  0  0  0  0  0  0
    0.9700  -19.9130  -40.2930 C   0  0  0  0  0  2  0  0  0  0  0  0
   -0.3060  -20.2150  -39.9800 N   0  0  0  0  0  4  0  0  0  0  0  0
   -0.7580  -20.9560  -38.8860 C   0  0  0  0  0  2  0  0  0  0  0  0
   -1.1880  -20.0920  -37.6790 C   0  0  0  0  0  2  0  0  0  0  0  0
   -2.2920  -19.3130  -37.9300 O   0  0  0  0  0  0  0  0  0  0  0  0
   -2.2210  -18.8080  -39.2330 C   0  0  0  0  0  2  0  0  0  0  0  0
   -0.8860  -18.7880  -39.7650 C   0  0  0  0  0  2  0  0  0  0  0  0
   -0.8290  -20.5490  -40.8750 H   0  0  0  0  0  0  0  0  0  0  0  0
  2 11  1  0  0  0  0
  2  1  2  0  0  0  0
  3  2  1  0  0  0  0
  4  3  1  0  0  0  0
  4  5  1  0  0  0  0
  5 11  1  0  0  0  0
  6  5  2  0  0  0  0
  7  6  1  0  0  0  0
  8  9  1  0  0  0  0
  8  7  2  0  0  0  0
  9  4  2  0  0  0  0
 10  8  1  0  0  0  0
 11 12  2  0  0  0  0
 13  1  1  0  0  0  0
 14 13  2  0  0  0  0
 15 14  1  0  0  0  0
 16 15  1  0  0  0  0
 17 15  2  0  0  0  0
 17 18  1  0  0  0  0
 18 19  2  0  0  0  0
 19 13  1  0  0  0  0
 20 21  1  0  0  0  0
 20  9  1  0  0  0  0
 21 26  1  0  0  0  0
 21 22  1  0  0  0  0
 22 23  1  0  0  0  0
 24 23  1  0  0  0  0
 25 24  1  0  0  0  0
 26 25  1  0  0  0  0
 27 21  1  0  0  0  0
M  END
>  <Pose>
1

>  <Score>
-6.647

$$$$
