/Users/jonathanwahrer/Desktop/Msc/3_Semester/Drug_Design_Praktikum/waehrer_HTS_screening/HTS_experiment/out/docking_results/vina_output/6y4q/0156_docked.pdbqt
 OpenBabel03232217203D

 29 32  0  0  0  0  0  0  0  0999 V2000
    0.7390  -16.5390  -36.6030 C   0  0  0  0  0  0  0  0  0  0  0  0
   -0.4170  -17.2080  -36.6370 N   0  0  0  0  0  4  0  0  0  0  0  0
   -0.5450  -18.4430  -37.1970 C   0  0  0  0  0  0  0  0  0  0  0  0
    0.5840  -18.9630  -37.7260 N   0  0  0  0  0  0  0  0  0  0  0  0
    1.7750  -18.3400  -37.7220 C   0  0  0  0  0  0  0  0  0  0  0  0
    1.8110  -17.1140  -37.1440 N   0  0  0  0  0  2  0  0  0  0  0  0
    0.8020  -15.2510  -36.0010 N   0  0  0  0  0  0  0  0  0  0  0  0
    0.1430  -14.9940  -35.2370 H   0  0  0  0  0  0  0  0  0  0  0  0
    1.7390  -14.2990  -36.4120 N   0  0  0  0  0  0  0  0  0  0  0  0
    1.7810  -13.7710  -37.5710 C   0  0  0  0  0  3  0  0  0  0  0  0
    2.7710  -12.7800  -37.9720 C   0  0  0  0  0  0  0  0  0  0  0  0
    3.2120  -12.6690  -39.2790 C   0  0  0  0  0  3  0  0  0  0  0  0
    4.1450  -11.7470  -39.6870 C   0  0  0  0  0  0  0  0  0  0  0  0
    4.7110  -11.6460  -41.5140 Br  0  0  0  0  0  0  0  0  0  0  0  0
    4.6760  -10.8830  -38.7520 C   0  0  0  0  0  3  0  0  0  0  0  0
    4.2700  -10.9550  -37.4360 C   0  0  0  0  0  3  0  0  0  0  0  0
    3.3220  -11.9040  -37.0620 C   0  0  0  0  0  3  0  0  0  0  0  0
   -1.7780  -19.1310  -37.2210 N   0  0  0  0  0  0  0  0  0  0  0  0
   -2.9500  -18.5580  -36.6200 C   0  0  0  0  0  2  0  0  0  0  0  0
   -4.0380  -18.5520  -37.6880 C   0  0  0  0  0  2  0  0  0  0  0  0
   -4.2320  -19.8810  -38.0540 O   0  0  0  0  0  0  0  0  0  0  0  0
   -3.1430  -20.4060  -38.7260 C   0  0  0  0  0  2  0  0  0  0  0  0
   -1.8960  -20.4190  -37.8470 C   0  0  0  0  0  2  0  0  0  0  0  0
    2.9350  -18.9030  -38.2800 N   0  0  0  0  0  0  0  0  0  0  0  0
    3.8560  -19.6850  -37.4990 C   0  0  0  0  0  2  0  0  0  0  0  0
    4.3340  -20.8140  -38.4220 C   0  0  0  0  0  2  0  0  0  0  0  0
    3.3680  -21.0910  -39.3870 O   0  0  0  0  0  0  0  0  0  0  0  0
    3.2040  -20.0970  -40.3180 C   0  0  0  0  0  2  0  0  0  0  0  0
    3.2340  -18.7060  -39.6690 C   0  0  0  0  0  2  0  0  0  0  0  0
  1  7  1  0  0  0  0
  2  1  2  0  0  0  0
  3  2  2  0  0  0  0
  4  5  2  0  0  0  0
  4  3  1  0  0  0  0
  5  6  1  0  0  0  0
  6  1  1  0  0  0  0
  7  8  1  0  0  0  0
  9  7  1  0  0  0  0
 10  9  2  0  0  0  0
 11 10  1  0  0  0  0
 11 17  1  0  0  0  0
 12 11  2  0  0  0  0
 13 12  1  0  0  0  0
 13 15  2  0  0  0  0
 14 13  1  0  0  0  0
 15 16  1  0  0  0  0
 16 17  2  0  0  0  0
 18  3  1  0  0  0  0
 18 19  1  0  0  0  0
 20 19  1  0  0  0  0
 21 20  1  0  0  0  0
 22 21  1  0  0  0  0
 22 23  1  0  0  0  0
 23 18  1  0  0  0  0
 24  5  1  0  0  0  0
 24 25  1  0  0  0  0
 26 25  1  0  0  0  0
 27 26  1  0  0  0  0
 28 29  1  0  0  0  0
 28 27  1  0  0  0  0
 29 24  1  0  0  0  0
M  END
>  <Pose>
1

>  <Score>
-6.862

$$$$
