/Users/jonathanwahrer/Desktop/Msc/3_Semester/Drug_Design_Praktikum/waehrer_HTS_screening/HTS_experiment/out/docking_results/vina_output/6y4q/0184_docked.pdbqt
 OpenBabel03232217233D

 33 36  0  0  1  0  0  0  0  0999 V2000
    3.2380  -18.4330  -38.9230 C   0  0  2  0  0  3  0  0  0  0  0  0
    3.6170  -19.4530  -37.9640 N   0  0  0  0  0  0  0  0  0  0  0  0
    3.5100  -18.8190  -36.6820 C   0  0  0  0  0  0  0  0  0  0  0  0
    4.1120  -19.1170  -35.6350 O   0  0  0  0  0  0  0  0  0  0  0  0
    2.5460  -17.7350  -36.8250 C   0  0  0  0  0  0  0  0  0  0  0  0
    2.1220  -16.8940  -35.9770 O   0  0  0  0  0  0  0  0  0  0  0  0
    2.1040  -17.7640  -38.2110 C   0  0  0  0  0  0  0  0  0  0  0  0
    0.9790  -17.2590  -38.6750 C   0  0  0  0  0  0  0  0  0  0  0  0
    0.7920  -17.3460  -40.0620 O   0  0  0  0  0  1  0  0  0  0  0  0
    2.8210  -18.9450  -40.2340 C   0  0  0  0  0  0  0  0  0  0  0  0
    1.9510  -19.9670  -40.4130 C   0  0  0  0  0  3  0  0  0  0  0  0
    1.6140  -20.3980  -41.6960 C   0  0  0  0  0  0  0  0  0  0  0  0
    0.3890  -21.8350  -41.9050 Br  0  0  0  0  0  0  0  0  0  0  0  0
    2.1520  -19.8000  -42.8270 C   0  0  0  0  0  3  0  0  0  0  0  0
    3.0340  -18.7620  -42.6230 C   0  0  0  0  0  3  0  0  0  0  0  0
    3.3660  -18.3380  -41.3700 C   0  0  0  0  0  3  0  0  0  0  0  0
   -0.0600  -16.6390  -37.8670 C   0  0  0  0  0  0  0  0  0  0  0  0
   -0.1830  -15.3420  -37.5460 N   0  0  0  0  0  0  0  0  0  0  0  0
   -1.3050  -15.1300  -36.8110 C   0  0  0  0  0  0  0  0  0  0  0  0
    0.6010  -14.2540  -37.8060 C   0  0  0  0  0  3  0  0  0  0  0  0
   -1.8800  -16.3590  -36.6850 N   0  0  0  0  0  0  0  0  0  0  0  0
   -1.6680  -13.8810  -36.3340 C   0  0  0  0  0  3  0  0  0  0  0  0
   -1.1680  -17.2870  -37.3010 C   0  0  0  0  0  0  0  0  0  0  0  0
   -1.3780  -18.7450  -37.4440 C   0  0  0  0  0  1  0  0  0  0  0  0
   -0.8710  -12.7870  -36.6030 C   0  0  0  0  0  3  0  0  0  0  0  0
    0.2760  -13.0130  -37.3550 C   0  0  0  0  0  3  0  0  0  0  0  0
    4.0390  -20.8320  -38.2200 C   0  0  0  0  0  2  0  0  0  0  0  0
    5.4680  -20.9560  -38.6000 C   0  0  0  0  0  2  0  0  0  0  0  0
    5.8130  -21.7370  -39.8000 C   0  0  0  0  0  2  0  0  0  0  0  0
    5.2000  -21.3380  -41.0190 N   0  0  0  0  0  4  0  0  0  0  0  0
    4.6950  -22.4940  -41.7210 C   0  0  0  0  0  1  0  0  0  0  0  0
    6.2210  -20.7470  -41.9050 C   0  0  0  0  0  1  0  0  0  0  0  0
    4.4890  -20.5820  -40.9190 H   0  0  0  0  0  0  0  0  0  0  0  0
  1 10  1  6  0  0  0
  1  7  1  0  0  0  0
  1  2  1  0  0  0  0
  2  3  1  0  0  0  0
  3  4  2  0  0  0  0
  5  3  1  0  0  0  0
  5  6  2  0  0  0  0
  7  5  1  0  0  0  0
  8  7  2  0  0  0  0
  8 17  1  0  0  0  0
  9  8  1  0  0  0  0
 11 10  1  0  0  0  0
 12 11  2  0  0  0  0
 13 12  1  0  0  0  0
 14 15  2  0  0  0  0
 14 12  1  0  0  0  0
 15 16  1  0  0  0  0
 16 10  2  0  0  0  0
 17 18  1  0  0  0  0
 17 23  2  0  0  0  0
 18 19  1  0  0  0  0
 19 21  2  0  0  0  0
 19 22  1  0  0  0  0
 20 18  1  0  0  0  0
 20 26  2  0  0  0  0
 23 21  1  0  0  0  0
 24 23  1  0  0  0  0
 25 22  2  0  0  0  0
 26 25  1  0  0  0  0
 27  2  1  0  0  0  0
 28 27  1  0  0  0  0
 29 28  1  0  0  0  0
 30 33  1  0  0  0  0
 30 29  1  0  0  0  0
 31 30  1  0  0  0  0
 32 30  1  0  0  0  0
M  END
>  <Pose>
1

>  <Score>
-5.753

$$$$
