/Users/jonathanwahrer/Desktop/Msc/3_Semester/Drug_Design_Praktikum/waehrer_HTS_screening/HTS_experiment/out/docking_results/vina_output/6y4q/0188_docked.pdbqt
 OpenBabel03232217233D

 31 34  0  0  1  0  0  0  0  0999 V2000
    1.6390  -16.8700  -36.9100 C   0  0  2  0  0  3  0  0  0  0  0  0
    1.6460  -15.7940  -37.8900 N   0  0  0  0  0  0  0  0  0  0  0  0
    1.6490  -16.5000  -39.1530 C   0  0  0  0  0  0  0  0  0  0  0  0
    1.2380  -16.0660  -40.2500 O   0  0  0  0  0  0  0  0  0  0  0  0
    2.2170  -17.8260  -38.9460 C   0  0  0  0  0  0  0  0  0  0  0  0
    2.4130  -18.7760  -39.7460 O   0  0  0  0  0  0  0  0  0  0  0  0
    2.5560  -17.8970  -37.5250 C   0  0  0  0  0  0  0  0  0  0  0  0
    3.4120  -18.6650  -36.9150 C   0  0  0  0  0  0  0  0  0  0  0  0
    3.5200  -18.5550  -35.5130 O   0  0  0  0  0  1  0  0  0  0  0  0
    1.6330  -14.3630  -37.7360 C   0  0  0  0  0  2  0  0  0  0  0  0
    1.3830  -13.9030  -36.3180 C   0  0  0  0  0  2  0  0  0  0  0  0
    1.0700  -12.4590  -36.3130 C   0  0  0  0  0  2  0  0  0  0  0  0
   -0.2670  -12.1190  -36.7430 N   0  0  0  0  0  4  0  0  0  0  0  0
   -1.2850  -12.7240  -35.9170 C   0  0  0  0  0  2  0  0  0  0  0  0
   -1.8120  -11.8540  -34.8320 C   0  0  0  0  0  2  0  0  0  0  0  0
   -2.0320  -10.5380  -35.1790 O   0  0  0  0  0  0  0  0  0  0  0  0
   -0.9540   -9.9420  -35.8210 C   0  0  0  0  0  2  0  0  0  0  0  0
   -0.4940  -10.7400  -37.0140 C   0  0  0  0  0  2  0  0  0  0  0  0
   -0.3660  -12.6160  -37.6840 H   0  0  0  0  0  0  0  0  0  0  0  0
    0.2970  -17.5190  -36.8290 C   0  0  0  0  0  0  0  0  0  0  0  0
    0.0520  -18.7050  -37.4850 C   0  0  0  0  0  3  0  0  0  0  0  0
   -1.1740  -19.3490  -37.4430 C   0  0  0  0  0  0  0  0  0  0  0  0
   -1.4690  -21.0020  -38.3710 Br  0  0  0  0  0  0  0  0  0  0  0  0
   -2.2080  -18.7930  -36.7170 C   0  0  0  0  0  3  0  0  0  0  0  0
   -1.9840  -17.6030  -36.0500 C   0  0  0  0  0  3  0  0  0  0  0  0
   -0.7420  -16.9670  -36.1040 C   0  0  0  0  0  3  0  0  0  0  0  0
    4.2310  -19.6030  -37.6620 C   0  0  0  0  0  0  0  0  0  0  0  0
    3.8710  -20.8340  -37.9080 O   0  0  0  0  0  0  0  0  0  0  0  0
    4.7850  -21.4670  -38.5920 C   0  0  0  0  0  3  0  0  0  0  0  0
    5.8160  -20.6070  -38.8170 C   0  0  0  0  0  3  0  0  0  0  0  0
    5.4640  -19.3930  -38.2140 C   0  0  0  0  0  3  0  0  0  0  0  0
  1 20  1  6  0  0  0
  2 10  1  0  0  0  0
  2  1  1  0  0  0  0
  3  5  1  0  0  0  0
  3  2  1  0  0  0  0
  4  3  2  0  0  0  0
  5  7  1  0  0  0  0
  6  5  2  0  0  0  0
  7  8  2  0  0  0  0
  7  1  1  0  0  0  0
  8  9  1  0  0  0  0
 10 11  1  0  0  0  0
 11 12  1  0  0  0  0
 13 12  1  0  0  0  0
 13 14  1  0  0  0  0
 14 15  1  0  0  0  0
 16 15  1  0  0  0  0
 17 16  1  0  0  0  0
 18 13  1  0  0  0  0
 18 17  1  0  0  0  0
 19 13  1  0  0  0  0
 20 26  1  0  0  0  0
 21 22  1  0  0  0  0
 21 20  2  0  0  0  0
 22 24  2  0  0  0  0
 23 22  1  0  0  0  0
 24 25  1  0  0  0  0
 26 25  2  0  0  0  0
 27  8  1  0  0  0  0
 28 27  1  0  0  0  0
 29 28  1  0  0  0  0
 30 29  2  0  0  0  0
 30 31  1  0  0  0  0
 31 27  2  0  0  0  0
M  END
>  <Pose>
1

>  <Score>
-7.051

$$$$
