/Users/jonathanwahrer/Desktop/Msc/3_Semester/Drug_Design_Praktikum/waehrer_HTS_screening/HTS_experiment/out/docking_results/vina_output/6y4q/0191_docked.pdbqt
 OpenBabel03232217233D

 34 37  0  0  1  0  0  0  0  0999 V2000
    1.4630  -18.8190  -37.5950 C   0  0  2  0  0  3  0  0  0  0  0  0
    0.4970  -19.2290  -38.5930 N   0  0  0  0  0  0  0  0  0  0  0  0
    0.5140  -18.1950  -39.6010 C   0  0  0  0  0  0  0  0  0  0  0  0
    0.1470  -18.3340  -40.7930 O   0  0  0  0  0  0  0  0  0  0  0  0
    1.0360  -16.9870  -38.9550 C   0  0  0  0  0  0  0  0  0  0  0  0
    1.2210  -15.8490  -39.4580 O   0  0  0  0  0  0  0  0  0  0  0  0
    1.3250  -17.3150  -37.5640 C   0  0  0  0  0  0  0  0  0  0  0  0
    1.4470  -16.4820  -36.5440 C   0  0  0  0  0  0  0  0  0  0  0  0
    1.7430  -16.9810  -35.3010 O   0  0  0  0  0  1  0  0  0  0  0  0
    2.8570  -19.2100  -37.9270 C   0  0  0  0  0  0  0  0  0  0  0  0
    3.1450  -20.0010  -39.0410 C   0  0  0  0  0  3  0  0  0  0  0  0
    4.4090  -20.3870  -39.3810 C   0  0  0  0  0  0  0  0  0  0  0  0
    4.7080  -21.4780  -40.9390 Br  0  0  0  0  0  0  0  0  0  0  0  0
    5.4680  -19.9970  -38.6160 C   0  0  0  0  0  3  0  0  0  0  0  0
    5.2440  -19.2220  -37.5140 C   0  0  0  0  0  3  0  0  0  0  0  0
    3.9500  -18.8350  -37.1770 C   0  0  0  0  0  3  0  0  0  0  0  0
    1.2680  -15.0280  -36.7150 C   0  0  0  0  0  0  0  0  0  0  0  0
    2.1070  -14.2250  -37.3110 O   0  0  0  0  0  0  0  0  0  0  0  0
    1.7210  -12.9940  -37.3300 C   0  0  0  0  0  0  0  0  0  0  0  0
    0.5070  -12.9490  -36.6880 C   0  0  0  0  0  0  0  0  0  0  0  0
    2.3260  -11.8620  -37.8600 C   0  0  0  0  0  0  0  0  0  0  0  0
    0.2210  -14.2400  -36.2980 C   0  0  0  0  0  3  0  0  0  0  0  0
   -0.1230  -11.7290  -36.5710 C   0  0  0  0  0  3  0  0  0  0  0  0
    0.4320  -10.5720  -37.0790 C   0  0  0  0  0  3  0  0  0  0  0  0
    1.6690  -10.6650  -37.7260 C   0  0  0  0  0  3  0  0  0  0  0  0
    3.5370  -11.9090  -38.5030 O   0  0  0  0  0  0  0  0  0  0  0  0
    3.7890  -12.4240  -39.7720 C   0  0  0  0  0  1  0  0  0  0  0  0
   -0.3150  -20.4210  -38.6230 C   0  0  0  0  0  2  0  0  0  0  0  0
   -1.3460  -20.4190  -37.5210 C   0  0  0  0  0  2  0  0  0  0  0  0
   -2.4030  -19.3830  -37.6460 C   0  0  0  0  0  2  0  0  0  0  0  0
   -2.8030  -18.7730  -36.4170 N   0  0  0  0  0  4  0  0  0  0  0  0
   -4.2150  -18.3850  -36.4660 C   0  0  0  0  0  1  0  0  0  0  0  0
   -2.0070  -17.6340  -36.0760 C   0  0  0  0  0  1  0  0  0  0  0  0
   -2.7520  -19.4450  -35.5980 H   0  0  0  0  0  0  0  0  0  0  0  0
  1 10  1  6  0  0  0
  1  7  1  0  0  0  0
  2  1  1  0  0  0  0
  3  5  1  0  0  0  0
  3  2  1  0  0  0  0
  4  3  2  0  0  0  0
  5  7  1  0  0  0  0
  6  5  2  0  0  0  0
  7  8  2  0  0  0  0
  8  9  1  0  0  0  0
 10 16  1  0  0  0  0
 11 10  2  0  0  0  0
 12 11  1  0  0  0  0
 12 14  2  0  0  0  0
 13 12  1  0  0  0  0
 14 15  1  0  0  0  0
 15 16  2  0  0  0  0
 17  8  1  0  0  0  0
 17 22  2  0  0  0  0
 18 17  1  0  0  0  0
 19 18  1  0  0  0  0
 19 20  1  0  0  0  0
 20 23  2  0  0  0  0
 20 22  1  0  0  0  0
 21 25  1  0  0  0  0
 21 19  2  0  0  0  0
 24 23  1  0  0  0  0
 25 24  2  0  0  0  0
 26 21  1  0  0  0  0
 27 26  1  0  0  0  0
 28  2  1  0  0  0  0
 28 29  1  0  0  0  0
 30 29  1  0  0  0  0
 30 31  1  0  0  0  0
 31 33  1  0  0  0  0
 31 34  1  0  0  0  0
 32 31  1  0  0  0  0
M  END
>  <Pose>
1

>  <Score>
-6.536

$$$$
