/Users/jonathanwahrer/Desktop/Msc/3_Semester/Drug_Design_Praktikum/waehrer_HTS_screening/HTS_experiment/out/docking_results/vina_output/6y4q/0200_docked.pdbqt
 OpenBabel03232217243D

 21 24  0  0  1  0  0  0  0  0999 V2000
    2.6390  -18.7910  -37.8180 C   0  0  1  0  0  3  0  0  0  0  0  0
    3.8220  -18.6090  -37.2400 N   0  0  0  0  0  0  0  0  0  0  0  0
    4.9580  -19.2370  -37.5860 C   0  0  0  0  0  0  0  0  0  0  0  0
    6.2380  -19.2300  -37.1750 N   0  0  0  0  0  2  0  0  0  0  0  0
    6.9600  -20.0520  -37.8690 O   0  0  0  0  0  0  0  0  0  0  0  0
    6.1900  -20.6070  -38.7360 N   0  0  0  0  0  0  0  0  0  0  0  0
    4.9300  -20.1550  -38.6260 C   0  0  0  0  0  0  0  0  0  0  0  0
    3.7580  -20.3730  -39.2410 N   0  0  0  0  0  0  0  0  0  0  0  0
    3.4790  -21.1940  -40.2500 N   0  0  0  0  0  0  0  0  0  0  0  0
    2.1710  -21.0640  -40.5160 N   0  0  0  0  0  0  0  0  0  0  0  0
    1.6650  -20.1660  -39.6690 N   0  0  0  0  0  0  0  0  0  0  0  0
    2.6410  -19.7280  -38.8690 C   0  0  0  0  0  0  0  0  0  0  0  0
    1.4200  -18.1540  -37.4880 N   0  0  0  0  0  0  0  0  0  0  0  0
    0.5410  -18.7360  -37.3720 H   0  0  0  0  0  0  0  0  0  0  0  0
    1.2650  -16.7660  -37.2940 C   0  0  0  0  0  0  0  0  0  0  0  0
    1.8250  -15.7660  -38.0430 C   0  0  0  0  0  3  0  0  0  0  0  0
    1.6480  -14.4110  -37.8180 C   0  0  0  0  0  0  0  0  0  0  0  0
    2.4740  -13.0950  -38.9230 Br  0  0  0  0  0  0  0  0  0  0  0  0
    0.8560  -14.0170  -36.7700 C   0  0  0  0  0  3  0  0  0  0  0  0
    0.2630  -14.9730  -35.9760 C   0  0  0  0  0  3  0  0  0  0  0  0
    0.4600  -16.3080  -36.2290 C   0  0  0  0  0  3  0  0  0  0  0  0
  1 13  1  1  0  0  0
  1  2  1  0  0  0  0
  3  2  2  0  0  0  0
  3  4  1  0  0  0  0
  5  4  1  0  0  0  0
  6  7  2  0  0  0  0
  6  5  1  0  0  0  0
  7  3  1  0  0  0  0
  8 12  1  0  0  0  0
  8  7  1  0  0  0  0
  9  8  1  0  0  0  0
 10  9  2  0  0  0  0
 10 11  1  0  0  0  0
 11 12  2  0  0  0  0
 12  1  1  0  0  0  0
 13 14  1  0  0  0  0
 13 15  1  0  0  0  0
 15 21  1  0  0  0  0
 16 17  1  0  0  0  0
 16 15  2  0  0  0  0
 17 19  2  0  0  0  0
 18 17  1  0  0  0  0
 19 20  1  0  0  0  0
 21 20  2  0  0  0  0
M  END
>  <Pose>
1

>  <Score>
-5.848

$$$$
