/Users/jonathanwahrer/Desktop/Msc/3_Semester/Drug_Design_Praktikum/waehrer_HTS_screening/HTS_experiment/out/docking_results/vina_output/6y4q/0213_docked.pdbqt
 OpenBabel03232217243D

 25 28  0  0  1  0  0  0  0  0999 V2000
    2.8100  -18.4810  -37.7250 N   0  0  0  0  0  0  0  0  0  0  0  0
    3.9600  -18.8400  -36.9270 C   0  0  0  0  0  0  0  0  0  0  0  0
    4.0050  -19.0690  -35.7140 O   0  0  0  0  0  0  0  0  0  0  0  0
    5.1380  -18.8960  -37.8400 C   0  0  1  0  0  3  0  0  0  0  0  0
    6.0550  -19.8830  -37.5270 O   0  0  0  0  0  0  0  0  0  0  0  0
    6.5570  -20.1970  -38.7680 N   0  0  0  0  0  0  0  0  0  0  0  0
    5.3950  -20.2770  -39.6130 C   0  0  0  0  0  0  0  0  0  0  0  0
    4.4940  -19.4890  -39.0770 C   0  0  0  0  0  0  0  0  0  0  0  0
    3.1540  -18.8900  -39.0670 C   0  0  0  0  0  0  0  0  0  0  0  0
    2.4670  -18.7800  -40.0880 O   0  0  0  0  0  0  0  0  0  0  0  0
    7.5300  -20.3470  -39.0560 H   0  0  0  0  0  0  0  0  0  0  0  0
    1.6300  -17.8640  -37.2500 C   0  0  0  0  0  0  0  0  0  0  0  0
    0.4090  -18.4740  -37.4310 C   0  0  0  0  0  3  0  0  0  0  0  0
   -0.7740  -17.8830  -36.9770 C   0  0  0  0  0  0  0  0  0  0  0  0
   -2.4480  -18.7480  -37.2430 Br  0  0  0  0  0  0  0  0  0  0  0  0
   -0.7610  -16.6690  -36.3320 C   0  0  0  0  0  3  0  0  0  0  0  0
    0.4610  -16.0560  -36.1490 C   0  0  0  0  0  3  0  0  0  0  0  0
    1.6450  -16.6520  -36.6060 C   0  0  0  0  0  3  0  0  0  0  0  0
    5.2060  -21.0550  -40.8070 C   0  0  0  0  0  0  0  0  0  0  0  0
    4.3300  -22.1370  -40.8650 C   0  0  0  0  0  3  0  0  0  0  0  0
    4.3470  -22.6630  -42.1030 N   0  0  0  0  0  0  0  0  0  0  0  0
    5.2050  -21.9320  -42.7920 N   0  0  0  0  0  0  0  0  0  0  0  0
    3.5660  -23.8180  -42.5760 C   0  0  0  0  0  1  0  0  0  0  0  0
    5.7490  -20.9560  -42.0680 C   0  0  0  0  0  0  0  0  0  0  0  0
    6.7510  -19.9260  -42.5030 C   0  0  0  0  0  1  0  0  0  0  0  0
  1 12  1  0  0  0  0
  1  2  1  0  0  0  0
  2  3  2  0  0  0  0
  4  8  1  6  0  0  0
  4  5  1  0  0  0  0
  4  2  1  0  0  0  0
  6  5  1  0  0  0  0
  7  8  2  0  0  0  0
  7  6  1  0  0  0  0
  8  9  1  0  0  0  0
  9  1  1  0  0  0  0
 10  9  2  0  0  0  0
 11  6  1  0  0  0  0
 12 18  1  0  0  0  0
 13 12  2  0  0  0  0
 13 14  1  0  0  0  0
 14 16  2  0  0  0  0
 15 14  1  0  0  0  0
 16 17  1  0  0  0  0
 18 17  2  0  0  0  0
 19  7  1  0  0  0  0
 20 19  2  0  0  0  0
 21 20  1  0  0  0  0
 22 21  1  0  0  0  0
 22 24  2  0  0  0  0
 23 21  1  0  0  0  0
 24 19  1  0  0  0  0
 25 24  1  0  0  0  0
M  END
>  <Pose>
1

>  <Score>
-6.319

$$$$
