/Users/jonathanwahrer/Desktop/Msc/3_Semester/Drug_Design_Praktikum/waehrer_HTS_screening/HTS_experiment/out/docking_results/vina_output/6y4q/0231_docked.pdbqt
 OpenBabel03232217253D

 34 37  0  0  1  0  0  0  0  0999 V2000
    1.5770  -14.6750  -37.0930 C   0  0  2  0  0  3  0  0  0  0  0  0
    2.0180  -16.0030  -37.6590 C   0  0  1  0  0  3  0  0  0  0  0  0
    1.8290  -16.8900  -36.5340 N   0  0  0  0  0  0  0  0  0  0  0  0
    0.6890  -16.4070  -35.8300 C   0  0  0  0  0  0  0  0  0  0  0  0
    0.1110  -16.9920  -34.8630 O   0  0  0  0  0  0  0  0  0  0  0  0
    0.2980  -15.1120  -36.4200 C   0  0  0  0  0  0  0  0  0  0  0  0
   -0.8100  -14.5570  -36.3560 O   0  0  0  0  0  0  0  0  0  0  0  0
    1.3510  -13.6300  -38.0740 C   0  0  0  0  0  0  0  0  0  0  0  0
    0.2100  -13.4030  -38.5280 O   0  0  0  0  0  0  0  0  0  0  0  0
    2.4620  -12.8240  -38.5460 C   0  0  0  0  0  0  0  0  0  0  0  0
    2.8860  -12.8980  -39.8780 C   0  0  0  0  0  3  0  0  0  0  0  0
    3.9360  -12.1510  -40.3450 C   0  0  0  0  0  3  0  0  0  0  0  0
    4.5960  -11.3030  -39.4890 C   0  0  0  0  0  0  0  0  0  0  0  0
    6.0480  -10.2780  -40.1540 Br  0  0  0  0  0  0  0  0  0  0  0  0
    4.2300  -11.1850  -38.1740 C   0  0  0  0  0  3  0  0  0  0  0  0
    3.1670  -11.9540  -37.7390 C   0  0  0  0  0  3  0  0  0  0  0  0
    1.3150  -16.4070  -38.8670 C   0  0  0  0  0  0  0  0  0  0  0  0
    0.0780  -17.0650  -38.8230 C   0  0  0  0  0  3  0  0  0  0  0  0
   -0.5840  -17.4420  -39.9730 C   0  0  0  0  0  0  0  0  0  0  0  0
   -0.0500  -17.1800  -41.2220 C   0  0  0  0  0  0  0  0  0  0  0  0
    1.1660  -16.5330  -41.2880 C   0  0  0  0  0  3  0  0  0  0  0  0
   -0.6950  -17.5490  -42.3950 O   0  0  0  0  0  1  0  0  0  0  0  0
    1.8190  -16.1620  -40.1230 C   0  0  0  0  0  3  0  0  0  0  0  0
   -1.8050  -18.0920  -39.9370 O   0  0  0  0  0  0  0  0  0  0  0  0
   -2.0320  -19.2830  -39.2270 C   0  0  0  0  0  1  0  0  0  0  0  0
    2.5880  -18.0480  -36.1300 C   0  0  0  0  0  2  0  0  0  0  0  0
    3.4270  -18.6260  -37.2290 C   0  0  0  0  0  2  0  0  0  0  0  0
    3.1100  -19.9490  -37.6060 N   0  0  0  0  0  4  0  0  0  0  0  0
    4.3030  -20.5470  -38.2150 C   0  0  0  0  0  2  0  0  0  0  0  0
    4.6150  -19.9650  -39.5540 C   0  0  0  0  0  2  0  0  0  0  0  0
    3.6010  -19.2270  -40.1130 O   0  0  0  0  0  0  0  0  0  0  0  0
    2.3870  -19.8500  -39.9570 C   0  0  0  0  0  2  0  0  0  0  0  0
    2.0340  -20.1140  -38.5180 C   0  0  0  0  0  2  0  0  0  0  0  0
    2.9150  -20.5510  -36.7590 H   0  0  0  0  0  0  0  0  0  0  0  0
  1  8  1  6  0  0  0
  1  6  1  0  0  0  0
  2 17  1  6  0  0  0
  2  1  1  0  0  0  0
  2  3  1  0  0  0  0
  3 26  1  0  0  0  0
  3  4  1  0  0  0  0
  4  5  2  0  0  0  0
  6  7  2  0  0  0  0
  6  4  1  0  0  0  0
  9  8  2  0  0  0  0
 10  8  1  0  0  0  0
 10 16  1  0  0  0  0
 11 10  2  0  0  0  0
 12 11  1  0  0  0  0
 12 13  2  0  0  0  0
 13 15  1  0  0  0  0
 14 13  1  0  0  0  0
 15 16  2  0  0  0  0
 17 18  1  0  0  0  0
 19 24  1  0  0  0  0
 19 18  2  0  0  0  0
 20 19  1  0  0  0  0
 21 20  2  0  0  0  0
 21 23  1  0  0  0  0
 22 20  1  0  0  0  0
 23 17  2  0  0  0  0
 24 25  1  0  0  0  0
 27 26  1  0  0  0  0
 28 27  1  0  0  0  0
 28 34  1  0  0  0  0
 29 28  1  0  0  0  0
 30 29  1  0  0  0  0
 31 32  1  0  0  0  0
 31 30  1  0  0  0  0
 32 33  1  0  0  0  0
 33 28  1  0  0  0  0
M  END
>  <Pose>
1

>  <Score>
-6.127

$$$$
