/Users/jonathanwahrer/Desktop/Msc/3_Semester/Drug_Design_Praktikum/waehrer_HTS_screening/HTS_experiment/out/docking_results/vina_output/6y4q/0247_docked.pdbqt
 OpenBabel03232217263D

 23 26  0  0  1  0  0  0  0  0999 V2000
    2.4310  -18.2820  -37.5480 N   0  0  0  0  0  0  0  0  0  0  0  0
    1.9020  -19.2640  -38.4310 C   0  0  0  0  0  0  0  0  0  0  0  0
    0.8770  -19.0270  -39.1560 O   0  0  0  0  0  0  0  0  0  0  0  0
    2.7000  -20.5160  -38.3580 C   0  0  2  0  0  3  0  0  0  0  0  0
    3.8500  -20.1030  -37.4600 C   0  0  1  0  0  3  0  0  0  0  0  0
    4.9220  -19.8170  -38.4900 C   0  0  1  0  0  3  0  0  0  0  0  0
    4.7910  -21.1360  -39.2790 C   0  0  0  0  0  2  0  0  0  0  0  0
    3.3350  -20.8360  -39.6820 C   0  0  2  0  0  3  0  0  0  0  0  0
    3.5820  -19.5110  -40.3530 C   0  0  0  0  0  2  0  0  0  0  0  0
    4.4240  -18.8850  -39.5400 C   0  0  0  0  0  2  0  0  0  0  0  0
    3.4220  -18.8890  -36.7430 C   0  0  0  0  0  0  0  0  0  0  0  0
    3.8640  -18.4980  -35.6420 O   0  0  0  0  0  0  0  0  0  0  0  0
    2.0860  -16.9100  -37.4260 N   0  0  0  0  0  0  0  0  0  0  0  0
    1.0350  -16.4880  -36.5850 C   0  0  0  0  0  0  0  0  0  0  0  0
    0.3540  -17.3160  -35.8970 O   0  0  0  0  0  0  0  0  0  0  0  0
    2.6290  -16.2140  -37.9670 H   0  0  0  0  0  0  0  0  0  0  0  0
    0.6980  -15.0890  -36.4760 C   0  0  0  0  0  0  0  0  0  0  0  0
   -0.6430  -14.7190  -36.4510 C   0  0  0  0  0  3  0  0  0  0  0  0
   -1.0130  -13.3930  -36.3590 C   0  0  0  0  0  3  0  0  0  0  0  0
   -0.0670  -12.4130  -36.2910 C   0  0  0  0  0  0  0  0  0  0  0  0
   -0.6050  -10.5820  -36.1690 Br  0  0  0  0  0  0  0  0  0  0  0  0
    1.2820  -12.7670  -36.3150 C   0  0  0  0  0  3  0  0  0  0  0  0
    1.6380  -14.0870  -36.4060 C   0  0  0  0  0  3  0  0  0  0  0  0
  1 13  1  0  0  0  0
  1 11  1  0  0  0  0
  2  1  1  0  0  0  0
  3  2  2  0  0  0  0
  4  2  1  6  0  0  0
  4  5  1  0  0  0  0
  5 11  1  6  0  0  0
  6 10  1  6  0  0  0
  6  5  1  0  0  0  0
  7  6  1  0  0  0  0
  8  9  1  6  0  0  0
  8  7  1  0  0  0  0
  8  4  1  0  0  0  0
  9 10  1  0  0  0  0
 11 12  2  0  0  0  0
 13 14  1  0  0  0  0
 14 17  1  0  0  0  0
 14 15  2  0  0  0  0
 16 13  1  0  0  0  0
 17 18  2  0  0  0  0
 17 23  1  0  0  0  0
 18 19  1  0  0  0  0
 19 20  2  0  0  0  0
 20 21  1  0  0  0  0
 22 20  1  0  0  0  0
 23 22  2  0  0  0  0
M  END
>  <Pose>
1

>  <Score>
-6.494

$$$$
