/Users/jonathanwahrer/Desktop/Msc/3_Semester/Drug_Design_Praktikum/waehrer_HTS_screening/HTS_experiment/out/docking_results/vina_output/6y4q/0257_docked.pdbqt
 OpenBabel03232217263D

 31 34  0  0  1  0  0  0  0  0999 V2000
    2.0580  -16.2120  -40.1310 C   0  0  2  0  0  3  0  0  0  0  0  0
    2.4060  -17.2170  -39.0760 C   0  0  2  0  0  3  0  0  0  0  0  0
    2.2190  -18.4620  -39.8110 N   0  0  0  0  0  0  0  0  0  0  0  0
    2.7500  -18.1840  -41.1220 C   0  0  0  0  0  0  0  0  0  0  0  0
    3.1990  -19.0460  -41.8950 O   0  0  0  0  0  0  0  0  0  0  0  0
    2.6570  -16.7340  -41.3500 C   0  0  0  0  0  0  0  0  0  0  0  0
    3.0170  -16.0840  -42.3670 O   0  0  0  0  0  0  0  0  0  0  0  0
    1.3970  -15.0910  -40.0030 C   0  0  1  0  0  3  0  0  0  0  0  0
    0.0830  -15.0200  -40.5070 O   0  0  0  0  0  1  0  0  0  0  0  0
    2.0170  -13.9500  -39.3510 C   0  0  0  0  0  0  0  0  0  0  0  0
    3.0110  -13.2270  -40.0240 C   0  0  0  0  0  3  0  0  0  0  0  0
    3.6370  -12.1590  -39.4210 C   0  0  0  0  0  3  0  0  0  0  0  0
    3.3270  -11.7470  -38.1420 C   0  0  0  0  0  0  0  0  0  0  0  0
    4.1790  -10.2730  -37.2860 Br  0  0  0  0  0  0  0  0  0  0  0  0
    2.3510  -12.4450  -37.4630 C   0  0  0  0  0  3  0  0  0  0  0  0
    1.7190  -13.5250  -38.0740 C   0  0  0  0  0  3  0  0  0  0  0  0
    1.4980  -17.0910  -37.9090 C   0  0  0  0  0  0  0  0  0  0  0  0
    0.1840  -17.2760  -38.1130 N   0  0  0  0  0  0  0  0  0  0  0  0
   -0.7260  -17.1990  -37.1390 C   0  0  0  0  0  3  0  0  0  0  0  0
   -0.2890  -16.9150  -35.8660 C   0  0  0  0  0  3  0  0  0  0  0  0
    1.0470  -16.7170  -35.6120 C   0  0  0  0  0  3  0  0  0  0  0  0
    1.9410  -16.8080  -36.6470 C   0  0  0  0  0  3  0  0  0  0  0  0
    1.6460  -19.6810  -39.3210 C   0  0  0  0  0  2  0  0  0  0  0  0
    2.5210  -20.3400  -38.2660 C   0  0  0  0  0  2  0  0  0  0  0  0
    3.6900  -21.0100  -38.9870 C   0  0  0  0  0  2  0  0  0  0  0  0
    4.9650  -20.4760  -38.5490 N   0  0  0  0  0  0  0  0  0  0  0  0
    5.1990  -19.2740  -37.9720 C   0  0  0  0  0  2  0  0  0  0  0  0
    6.5130  -19.1620  -37.7170 N   0  0  0  0  0  0  0  0  0  0  0  0
    7.1450  -20.2750  -38.1180 C   0  0  0  0  0  3  0  0  0  0  0  0
    6.9970  -18.3340  -37.2690 H   0  0  0  0  0  0  0  0  0  0  0  0
    6.1560  -21.0860  -38.6370 C   0  0  0  0  0  3  0  0  0  0  0  0
  1  8  1  1  0  0  0
  1  2  1  0  0  0  0
  2 17  1  1  0  0  0
  3 23  1  0  0  0  0
  3  2  1  0  0  0  0
  4  3  1  0  0  0  0
  5  4  2  0  0  0  0
  6  4  1  0  0  0  0
  6  1  1  0  0  0  0
  7  6  2  0  0  0  0
  8  9  1  1  0  0  0
  8 10  1  0  0  0  0
 10 16  1  0  0  0  0
 11 12  1  0  0  0  0
 11 10  2  0  0  0  0
 12 13  2  0  0  0  0
 13 15  1  0  0  0  0
 13 14  1  0  0  0  0
 16 15  2  0  0  0  0
 17 22  1  0  0  0  0
 18 17  2  0  0  0  0
 18 19  1  0  0  0  0
 19 20  2  0  0  0  0
 20 21  1  0  0  0  0
 22 21  2  0  0  0  0
 23 24  1  0  0  0  0
 25 26  1  0  0  0  0
 25 24  1  0  0  0  0
 26 27  1  0  0  0  0
 27 28  1  0  0  0  0
 28 30  1  0  0  0  0
 29 28  1  0  0  0  0
 31 26  1  0  0  0  0
 31 29  2  0  0  0  0
M  END
>  <Pose>
1

>  <Score>
-6.435

$$$$
