/Users/jonathanwahrer/Desktop/Msc/3_Semester/Drug_Design_Praktikum/waehrer_HTS_screening/HTS_experiment/out/docking_results/vina_output/6y4q/0265_docked.pdbqt
 OpenBabel03232217273D

 35 38  0  0  1  0  0  0  0  0999 V2000
    2.5170  -18.4810  -37.8470 C   0  0  0  0  0  0  0  0  0  0  0  0
    1.2420  -18.2180  -38.0350 C   0  0  0  0  0  0  0  0  0  0  0  0
    0.3870  -17.3280  -37.1700 C   0  0  2  0  0  3  0  0  0  0  0  0
   -0.9290  -17.4080  -37.7020 N   0  0  0  0  0  0  0  0  0  0  0  0
   -0.9500  -18.1730  -38.9250 C   0  0  0  0  0  0  0  0  0  0  0  0
   -1.9030  -18.3900  -39.6870 O   0  0  0  0  0  0  0  0  0  0  0  0
    0.4250  -18.6810  -39.1320 C   0  0  0  0  0  0  0  0  0  0  0  0
    0.7950  -19.3980  -40.1170 O   0  0  0  0  0  0  0  0  0  0  0  0
    3.1120  -17.8540  -36.7280 O   0  0  0  0  0  1  0  0  0  0  0  0
    0.9700  -15.9630  -37.3470 C   0  0  0  0  0  0  0  0  0  0  0  0
    1.0740  -15.1610  -36.2540 C   0  0  0  0  0  3  0  0  0  0  0  0
    1.6000  -13.8900  -36.3610 C   0  0  0  0  0  3  0  0  0  0  0  0
    2.0230  -13.4270  -37.5770 C   0  0  0  0  0  0  0  0  0  0  0  0
    1.9190  -14.2370  -38.6770 C   0  0  0  0  0  3  0  0  0  0  0  0
    1.3920  -15.5150  -38.5770 C   0  0  0  0  0  3  0  0  0  0  0  0
    2.5810  -12.0780  -37.7040 C   0  0  0  0  0  0  0  0  0  0  0  0
    2.0280  -11.2510  -38.4730 O   0  0  0  0  0  0  0  0  0  0  0  0
    3.6900  -11.6600  -37.0210 O   0  0  0  0  0  0  0  0  0  0  0  0
    4.2260  -10.3620  -37.1470 C   0  0  0  0  0  1  0  0  0  0  0  0
   -2.1350  -16.8300  -37.1730 C   0  0  0  0  0  2  0  0  0  0  0  0
   -2.6720  -15.6670  -37.9350 C   0  0  0  0  0  2  0  0  0  0  0  0
   -2.3050  -14.3780  -37.4290 N   0  0  0  0  0  4  0  0  0  0  0  0
   -3.3650  -13.7050  -36.7070 C   0  0  0  0  0  2  0  0  0  0  0  0
   -2.7600  -12.4650  -36.0800 C   0  0  0  0  0  2  0  0  0  0  0  0
   -2.4350  -11.6100  -37.1600 O   0  0  0  0  0  0  0  0  0  0  0  0
   -1.3740  -12.2280  -37.8260 C   0  0  0  0  0  2  0  0  0  0  0  0
   -1.9240  -13.4620  -38.5220 C   0  0  0  0  0  2  0  0  0  0  0  0
   -1.4290  -14.4190  -36.8430 H   0  0  0  0  0  0  0  0  0  0  0  0
    3.2990  -19.3540  -38.7100 C   0  0  0  0  0  0  0  0  0  0  0  0
    3.9140  -18.8420  -39.8600 C   0  0  0  0  0  3  0  0  0  0  0  0
    4.6950  -19.6110  -40.6960 C   0  0  0  0  0  3  0  0  0  0  0  0
    4.9070  -20.9450  -40.4250 C   0  0  0  0  0  0  0  0  0  0  0  0
    5.9920  -21.9910  -41.6030 Br  0  0  0  0  0  0  0  0  0  0  0  0
    4.3150  -21.4720  -39.3020 C   0  0  0  0  0  3  0  0  0  0  0  0
    3.5220  -20.6860  -38.4560 C   0  0  0  0  0  3  0  0  0  0  0  0
  1  9  1  0  0  0  0
  2  1  2  0  0  0  0
  2  3  1  0  0  0  0
  3 10  1  6  0  0  0
  4 20  1  0  0  0  0
  4  3  1  0  0  0  0
  5  4  1  0  0  0  0
  6  5  2  0  0  0  0
  7  5  1  0  0  0  0
  7  2  1  0  0  0  0
  8  7  2  0  0  0  0
 10 11  1  0  0  0  0
 12 11  2  0  0  0  0
 13 12  1  0  0  0  0
 14 15  1  0  0  0  0
 14 13  2  0  0  0  0
 15 10  2  0  0  0  0
 16 13  1  0  0  0  0
 16 18  1  0  0  0  0
 17 16  2  0  0  0  0
 19 18  1  0  0  0  0
 21 22  1  0  0  0  0
 21 20  1  0  0  0  0
 22 28  1  0  0  0  0
 22 23  1  0  0  0  0
 23 24  1  0  0  0  0
 25 24  1  0  0  0  0
 26 25  1  0  0  0  0
 27 26  1  0  0  0  0
 27 22  1  0  0  0  0
 29 35  1  0  0  0  0
 29  1  1  0  0  0  0
 30 29  2  0  0  0  0
 31 32  2  0  0  0  0
 31 30  1  0  0  0  0
 32 34  1  0  0  0  0
 33 32  1  0  0  0  0
 34 35  2  0  0  0  0
M  END
>  <Pose>
1

>  <Score>
-6.273

$$$$
