/Users/jonathanwahrer/Desktop/Msc/3_Semester/Drug_Design_Praktikum/waehrer_HTS_screening/HTS_experiment/out/docking_results/vina_output/6y4q/0278_docked.pdbqt
 OpenBabel03232217283D

 30 33  0  0  1  0  0  0  0  0999 V2000
    1.4800  -15.9010  -38.0850 N   0  0  0  0  0  0  0  0  0  0  0  0
    1.6880  -16.3650  -39.3400 C   0  0  0  0  0  0  0  0  0  0  0  0
    2.0970  -17.6820  -39.2020 C   0  0  0  0  0  0  0  0  0  0  0  0
    2.3900  -18.4080  -40.3410 C   0  0  0  0  0  3  0  0  0  0  0  0
    2.2840  -17.8510  -41.6220 C   0  0  0  0  0  3  0  0  0  0  0  0
    1.8710  -16.5290  -41.7080 C   0  0  0  0  0  3  0  0  0  0  0  0
    1.5740  -15.7840  -40.5940 C   0  0  0  0  0  3  0  0  0  0  0  0
    2.1360  -18.0210  -37.8790 N   0  0  0  0  0  0  0  0  0  0  0  0
    1.7510  -16.8960  -37.2200 C   0  0  2  0  0  3  0  0  0  0  0  0
    1.0410  -14.5590  -37.8330 C   0  0  0  0  0  2  0  0  0  0  0  0
    1.9400  -13.8020  -36.9030 C   0  0  1  0  0  3  0  0  0  0  0  0
    2.8070  -12.8310  -37.6720 C   0  0  0  0  0  0  0  0  0  0  0  0
    3.4780  -11.8340  -37.0100 C   0  0  0  0  0  3  0  0  0  0  0  0
    4.2670  -10.9550  -37.7040 C   0  0  0  0  0  3  0  0  0  0  0  0
    4.3730  -11.0890  -39.0700 C   0  0  0  0  0  0  0  0  0  0  0  0
    5.4730   -9.8660  -40.0490 Br  0  0  0  0  0  0  0  0  0  0  0  0
    3.7230  -12.0700  -39.7810 C   0  0  0  0  0  3  0  0  0  0  0  0
    2.9370  -12.9350  -39.0360 C   0  0  0  0  0  3  0  0  0  0  0  0
    1.2740  -13.0730  -35.9380 O   0  0  0  0  0  0  0  0  0  0  0  0
    1.6130  -13.2180  -35.0330 H   0  0  0  0  0  0  0  0  0  0  0  0
    1.6660  -16.8250  -35.9340 N   0  0  0  0  0  0  0  0  0  0  0  0
    1.0030  -17.4850  -35.4260 H   0  0  0  0  0  0  0  0  0  0  0  0
    2.1760  -16.1830  -35.3230 H   0  0  0  0  0  0  0  0  0  0  0  0
    2.5050  -19.3170  -37.3940 C   0  0  0  0  0  2  0  0  0  0  0  0
    3.9220  -19.7010  -37.7180 C   0  0  0  0  0  0  0  0  0  0  0  0
    4.1650  -20.9250  -38.3170 C   0  0  0  0  0  3  0  0  0  0  0  0
    5.4380  -21.3480  -38.6470 C   0  0  0  0  0  3  0  0  0  0  0  0
    6.4800  -20.5030  -38.3580 C   0  0  0  0  0  3  0  0  0  0  0  0
    6.2680  -19.2860  -37.7650 C   0  0  0  0  0  3  0  0  0  0  0  0
    4.9940  -18.8960  -37.4510 C   0  0  0  0  0  3  0  0  0  0  0  0
  1 10  1  0  0  0  0
  1  9  1  0  0  0  0
  2  3  1  0  0  0  0
  2  1  1  0  0  0  0
  3  8  1  0  0  0  0
  4  3  2  0  0  0  0
  5  4  1  0  0  0  0
  6  5  2  0  0  0  0
  6  7  1  0  0  0  0
  7  2  2  0  0  0  0
  8 24  1  0  0  0  0
  8  9  1  0  0  0  0
  9 21  1  6  0  0  0
 11 10  1  6  0  0  0
 11 19  1  0  0  0  0
 12 13  1  0  0  0  0
 12 11  1  0  0  0  0
 14 13  2  0  0  0  0
 15 14  1  0  0  0  0
 16 15  1  0  0  0  0
 17 15  2  0  0  0  0
 17 18  1  0  0  0  0
 18 12  2  0  0  0  0
 19 20  1  0  0  0  0
 21 22  1  0  0  0  0
 21 23  1  0  0  0  0
 25 30  1  0  0  0  0
 25 24  1  0  0  0  0
 26 25  2  0  0  0  0
 27 28  2  0  0  0  0
 27 26  1  0  0  0  0
 28 29  1  0  0  0  0
 29 30  2  0  0  0  0
M  END
>  <Pose>
1

>  <Score>
-7.141

$$$$
