/Users/jonathanwahrer/Desktop/Msc/3_Semester/Drug_Design_Praktikum/waehrer_HTS_screening/HTS_experiment/out/docking_results/vina_output/6y4q/0289_docked.pdbqt
 OpenBabel03232217283D

 31 34  0  0  0  0  0  0  0  0999 V2000
    2.7880  -18.7560  -39.3970 C   0  0  0  0  0  0  0  0  0  0  0  0
    3.5570  -19.7170  -39.9340 N   0  0  0  0  0  0  0  0  0  0  0  0
    4.0330  -19.2920  -41.1280 C   0  0  0  0  0  0  0  0  0  0  0  0
    3.5540  -18.0220  -41.3650 C   0  0  0  0  0  0  0  0  0  0  0  0
    2.8040  -17.7220  -40.3050 N   0  0  0  0  0  0  0  0  0  0  0  0
    3.8960  -17.3860  -42.5010 N   0  0  0  0  0  0  0  0  0  0  0  0
    4.6940  -17.9510  -43.4160 C   0  0  0  0  0  0  0  0  0  0  0  0
    4.9970  -17.3170  -44.4770 O   0  0  0  0  0  0  0  0  0  0  0  0
    5.1720  -19.1890  -43.2040 N   0  0  0  0  0  0  0  0  0  0  0  0
    4.8510  -19.8520  -42.0840 C   0  0  0  0  0  0  0  0  0  0  0  0
    5.3000  -21.0070  -41.8880 O   0  0  0  0  0  0  0  0  0  0  0  0
    3.3710  -16.0330  -42.7170 C   0  0  0  0  0  1  0  0  0  0  0  0
    5.8050  -19.6440  -43.9250 H   0  0  0  0  0  0  0  0  0  0  0  0
    2.1340  -18.7590  -38.1530 N   0  0  0  0  0  0  0  0  0  0  0  0
    0.8240  -19.2740  -37.9520 C   0  0  0  0  0  2  0  0  0  0  0  0
   -0.0460  -18.1150  -37.4770 C   0  0  0  0  0  2  0  0  0  0  0  0
    0.6900  -16.9420  -37.2610 N   0  0  0  0  0  0  0  0  0  0  0  0
    1.9430  -16.9740  -36.6280 C   0  0  0  0  0  2  0  0  0  0  0  0
    2.7880  -18.2000  -36.9950 C   0  0  0  0  0  2  0  0  0  0  0  0
    0.4130  -15.8540  -38.1390 C   0  0  0  0  0  2  0  0  0  0  0  0
    1.2710  -14.6710  -37.9400 C   0  0  0  0  0  0  0  0  0  0  0  0
    2.0280  -14.2350  -38.9980 C   0  0  0  0  0  3  0  0  0  0  0  0
    2.8390  -13.1190  -38.8610 C   0  0  0  0  0  3  0  0  0  0  0  0
    2.9000  -12.4320  -37.6660 C   0  0  0  0  0  0  0  0  0  0  0  0
    4.0240  -10.8840  -37.4820 Br  0  0  0  0  0  0  0  0  0  0  0  0
    2.1340  -12.8870  -36.6180 C   0  0  0  0  0  3  0  0  0  0  0  0
    1.3210  -13.9970  -36.7380 C   0  0  0  0  0  3  0  0  0  0  0  0
    3.8420  -21.0290  -39.4180 C   0  0  0  0  0  2  0  0  0  0  0  0
    4.8490  -20.9920  -38.2910 C   0  0  0  0  0  2  0  0  0  0  0  0
    6.0970  -20.5400  -38.6680 O   0  0  0  0  0  0  0  0  0  0  0  0
    6.3520  -19.4030  -37.8670 C   0  0  0  0  0  1  0  0  0  0  0  0
  1 14  1  0  0  0  0
  2 28  1  0  0  0  0
  2  1  1  0  0  0  0
  3  2  1  0  0  0  0
  4  3  2  0  0  0  0
  4  5  1  0  0  0  0
  5  1  2  0  0  0  0
  6  4  1  0  0  0  0
  7  9  1  0  0  0  0
  7  6  1  0  0  0  0
  8  7  2  0  0  0  0
  9 10  1  0  0  0  0
 10 11  2  0  0  0  0
 10  3  1  0  0  0  0
 12  6  1  0  0  0  0
 13  9  1  0  0  0  0
 14 15  1  0  0  0  0
 14 19  1  0  0  0  0
 15 16  1  0  0  0  0
 16 17  1  0  0  0  0
 17 18  1  0  0  0  0
 19 18  1  0  0  0  0
 20 21  1  0  0  0  0
 20 17  1  0  0  0  0
 21 27  1  0  0  0  0
 22 23  1  0  0  0  0
 22 21  2  0  0  0  0
 23 24  2  0  0  0  0
 24 25  1  0  0  0  0
 24 26  1  0  0  0  0
 27 26  2  0  0  0  0
 28 29  1  0  0  0  0
 30 29  1  0  0  0  0
 30 31  1  0  0  0  0
M  END
>  <Pose>
1

>  <Score>
-6.157

$$$$
