/Users/jonathanwahrer/Desktop/Msc/3_Semester/Drug_Design_Praktikum/waehrer_HTS_screening/HTS_experiment/out/docking_results/vina_output/6y4q/0302_docked.pdbqt
 OpenBabel03232217293D

 29 33  0  0  1  0  0  0  0  0999 V2000
    1.3550  -15.5600  -38.0720 C   0  0  0  0  0  0  0  0  0  0  0  0
    2.0100  -16.7370  -38.1420 N   0  0  0  0  0  0  0  0  0  0  0  0
    1.1230  -17.7620  -38.1670 C   0  0  1  0  0  3  0  0  0  0  0  0
   -0.1170  -17.2470  -38.1140 N   0  0  0  0  0  0  0  0  0  0  0  0
    0.0190  -15.9030  -38.0550 C   0  0  0  0  0  3  0  0  0  0  0  0
   -0.9580  -18.2990  -38.1420 C   0  0  0  0  0  0  0  0  0  0  0  0
   -0.2440  -19.4760  -38.2140 C   0  0  0  0  0  0  0  0  0  0  0  0
   -0.8670  -20.7180  -38.2550 C   0  0  0  0  0  3  0  0  0  0  0  0
   -2.2400  -20.7910  -38.2250 C   0  0  0  0  0  3  0  0  0  0  0  0
   -2.9460  -19.6090  -38.1540 C   0  0  0  0  0  3  0  0  0  0  0  0
   -2.3550  -18.3650  -38.1110 C   0  0  0  0  0  3  0  0  0  0  0  0
    1.0630  -19.1020  -38.2270 N   0  0  0  0  0  0  0  0  0  0  0  0
    3.0420  -16.8660  -38.1730 H   0  0  0  0  0  0  0  0  0  0  0  0
    2.1450  -20.0630  -38.2980 C   0  0  0  0  0  2  0  0  0  0  0  0
    2.9180  -19.9400  -39.5930 C   0  0  0  0  0  2  0  0  0  0  0  0
    4.3230  -19.8190  -39.3260 N   0  0  0  0  0  4  0  0  0  0  0  0
    5.0090  -21.0470  -39.6670 C   0  0  0  0  0  2  0  0  0  0  0  0
    5.9960  -21.4770  -38.6090 C   0  0  0  0  0  2  0  0  0  0  0  0
    6.8320  -20.4000  -38.3080 O   0  0  0  0  0  0  0  0  0  0  0  0
    6.1290  -19.3030  -37.8570 C   0  0  0  0  0  2  0  0  0  0  0  0
    4.6390  -19.4990  -37.9660 C   0  0  0  0  0  2  0  0  0  0  0  0
    4.7470  -19.0680  -39.9270 H   0  0  0  0  0  0  0  0  0  0  0  0
    1.9540  -14.2300  -38.0250 C   0  0  0  0  0  0  0  0  0  0  0  0
    2.5080  -13.6440  -39.1400 C   0  0  0  0  0  3  0  0  0  0  0  0
    3.0790  -12.3740  -39.0950 C   0  0  0  0  0  3  0  0  0  0  0  0
    3.1010  -11.6640  -37.9110 C   0  0  0  0  0  0  0  0  0  0  0  0
    3.8790   -9.9330  -37.8450 Br  0  0  0  0  0  0  0  0  0  0  0  0
    2.5490  -12.2400  -36.7850 C   0  0  0  0  0  3  0  0  0  0  0  0
    1.9810  -13.5150  -36.8490 C   0  0  0  0  0  3  0  0  0  0  0  0
  1  5  2  0  0  0  0
  1 23  1  0  0  0  0
  2  1  1  0  0  0  0
  3 12  1  6  0  0  0
  3  2  1  0  0  0  0
  3  4  1  0  0  0  0
  4  5  1  0  0  0  0
  6  4  1  0  0  0  0
  6 11  1  0  0  0  0
  7  6  2  0  0  0  0
  8  9  2  0  0  0  0
  8  7  1  0  0  0  0
  9 10  1  0  0  0  0
 10 11  2  0  0  0  0
 12  7  1  0  0  0  0
 13  2  1  0  0  0  0
 14 12  1  0  0  0  0
 15 16  1  0  0  0  0
 15 14  1  0  0  0  0
 16 21  1  0  0  0  0
 17 16  1  0  0  0  0
 17 18  1  0  0  0  0
 18 19  1  0  0  0  0
 19 20  1  0  0  0  0
 21 20  1  0  0  0  0
 22 16  1  0  0  0  0
 23 29  1  0  0  0  0
 24 25  1  0  0  0  0
 24 23  2  0  0  0  0
 25 26  2  0  0  0  0
 26 27  1  0  0  0  0
 26 28  1  0  0  0  0
 29 28  2  0  0  0  0
M  END
>  <Pose>
1

>  <Score>
-6.610

$$$$
