/Users/jonathanwahrer/Desktop/Msc/3_Semester/Drug_Design_Praktikum/waehrer_HTS_screening/HTS_experiment/out/docking_results/vina_output/6y4q/0305_docked.pdbqt
 OpenBabel03232217293D

 27 30  0  0  0  0  0  0  0  0999 V2000
    2.2210  -17.7400  -36.9830 C   0  0  0  0  0  0  0  0  0  0  0  0
    2.3560  -18.6680  -37.9220 N   0  0  0  0  0  0  0  0  0  0  0  0
    3.3690  -19.5160  -37.6150 C   0  0  0  0  0  0  0  0  0  0  0  0
    3.8690  -19.0940  -36.4390 N   0  0  0  0  0  0  0  0  0  0  0  0
    3.2090  -18.0540  -36.0460 N   0  0  0  0  0  0  0  0  0  0  0  0
    3.5250  -20.4670  -38.5440 N   0  0  0  0  0  0  0  0  0  0  0  0
    2.5810  -20.2230  -39.4590 C   0  0  0  0  0  0  0  0  0  0  0  0
    1.8230  -19.1010  -39.0980 C   0  0  0  0  0  0  0  0  0  0  0  0
    0.8050  -18.6950  -39.8400 N   0  0  0  0  0  0  0  0  0  0  0  0
    0.5300  -19.4050  -40.9780 C   0  0  0  0  0  0  0  0  0  0  0  0
   -0.4230  -19.0510  -41.7110 O   0  0  0  0  0  0  0  0  0  0  0  0
    1.2410  -20.4740  -41.3550 N   0  0  0  0  0  0  0  0  0  0  0  0
    2.2730  -20.9080  -40.6110 C   0  0  0  0  0  0  0  0  0  0  0  0
    2.9630  -21.9100  -40.9320 O   0  0  0  0  0  0  0  0  0  0  0  0
   -0.1310  -17.6450  -39.5290 C   0  0  0  0  0  1  0  0  0  0  0  0
    1.0340  -21.0130  -42.2210 H   0  0  0  0  0  0  0  0  0  0  0  0
    1.3630  -16.5960  -36.7440 C   0  0  0  0  0  0  0  0  0  0  0  0
    1.7230  -15.3820  -37.3340 C   0  0  0  0  0  3  0  0  0  0  0  0
    0.9170  -14.2870  -37.2980 C   0  0  0  0  0  3  0  0  0  0  0  0
   -0.3040  -14.3550  -36.6610 C   0  0  0  0  0  0  0  0  0  0  0  0
   -1.4240  -12.8290  -36.6120 Br  0  0  0  0  0  0  0  0  0  0  0  0
   -0.7170  -15.5240  -36.0620 C   0  0  0  0  0  3  0  0  0  0  0  0
    0.1370  -16.5960  -36.1300 C   0  0  0  0  0  3  0  0  0  0  0  0
    4.5040  -21.5300  -38.5600 C   0  0  0  0  0  2  0  0  0  0  0  0
    5.8570  -21.0690  -39.0590 C   0  0  0  0  0  2  0  0  0  0  0  0
    6.0890  -21.4670  -40.3700 O   0  0  0  0  0  0  0  0  0  0  0  0
    6.0570  -20.3220  -41.1650 C   0  0  0  0  0  1  0  0  0  0  0  0
  1 17  1  0  0  0  0
  1  5  2  0  0  0  0
  2  3  1  0  0  0  0
  2  1  1  0  0  0  0
  3  4  2  0  0  0  0
  4  5  1  0  0  0  0
  6  3  1  0  0  0  0
  7  8  2  0  0  0  0
  7  6  1  0  0  0  0
  8  2  1  0  0  0  0
  9 15  1  0  0  0  0
  9  8  1  0  0  0  0
 10  9  1  0  0  0  0
 11 10  2  0  0  0  0
 12 10  1  0  0  0  0
 12 13  1  0  0  0  0
 13  7  1  0  0  0  0
 14 13  2  0  0  0  0
 16 12  1  0  0  0  0
 17 23  1  0  0  0  0
 18 19  1  0  0  0  0
 18 17  2  0  0  0  0
 19 20  2  0  0  0  0
 20 21  1  0  0  0  0
 20 22  1  0  0  0  0
 23 22  2  0  0  0  0
 24  6  1  0  0  0  0
 25 24  1  0  0  0  0
 26 25  1  0  0  0  0
 27 26  1  0  0  0  0
M  END
>  <Pose>
1

>  <Score>
-5.782

$$$$
