/Users/jonathanwahrer/Desktop/Msc/3_Semester/Drug_Design_Praktikum/waehrer_HTS_screening/HTS_experiment/out/docking_results/vina_output/6y4q/0324_docked.pdbqt
 OpenBabel03232217303D

 34 38  0  0  1  0  0  0  0  0999 V2000
    0.6860  -15.0170  -37.4520 C   0  0  0  0  0  0  0  0  0  0  0  0
   -0.7040  -14.8130  -37.5340 C   0  0  0  0  0  3  0  0  0  0  0  0
   -1.3690  -15.8980  -37.1240 N   0  0  0  0  0  0  0  0  0  0  0  0
   -2.6060  -16.4200  -36.9320 C   0  0  0  0  0  0  0  0  0  0  0  0
   -2.4130  -17.6920  -36.4500 C   0  0  0  0  0  0  0  0  0  0  0  0
   -1.0710  -17.9090  -36.3610 N   0  0  0  0  0  0  0  0  0  0  0  0
   -0.4470  -16.7930  -36.7810 C   0  0  1  0  0  3  0  0  0  0  0  0
    0.8110  -16.2590  -36.9800 N   0  0  0  0  0  0  0  0  0  0  0  0
   -3.5270  -18.4540  -36.1670 C   0  0  0  0  0  3  0  0  0  0  0  0
   -4.8140  -17.9670  -36.3590 C   0  0  0  0  0  3  0  0  0  0  0  0
   -5.0050  -16.6960  -36.8410 C   0  0  0  0  0  3  0  0  0  0  0  0
   -3.8730  -15.9240  -37.1270 C   0  0  0  0  0  3  0  0  0  0  0  0
   -0.6370  -18.7960  -36.0240 H   0  0  0  0  0  0  0  0  0  0  0  0
    2.0250  -17.0020  -36.7170 C   0  0  0  0  0  2  0  0  0  0  0  0
    2.1550  -18.2720  -37.5240 C   0  0  0  0  0  2  0  0  0  0  0  0
    2.0800  -17.9900  -39.0030 C   0  0  0  0  0  2  0  0  0  0  0  0
    2.2860  -19.1330  -39.8490 N   0  0  0  0  0  0  0  0  0  0  0  0
    2.6130  -20.2340  -38.9570 C   0  0  0  0  0  2  0  0  0  0  0  0
    3.7660  -21.0610  -39.3870 C   0  0  0  0  0  2  0  0  0  0  0  0
    4.9220  -20.3430  -39.8480 N   0  0  0  0  0  4  0  0  0  0  0  0
    4.6300  -18.9940  -40.2840 C   0  0  0  0  0  2  0  0  0  0  0  0
    5.2350  -20.8440  -40.7380 H   0  0  0  0  0  0  0  0  0  0  0  0
    3.2430  -18.9800  -40.8940 C   0  0  0  0  0  2  0  0  0  0  0  0
    6.0220  -20.4560  -38.9440 C   0  0  0  0  0  2  0  0  0  0  0  0
    6.0650  -19.4600  -37.8370 C   0  0  0  0  0  2  0  0  0  0  0  0
    7.2780  -18.7800  -37.7400 O   0  0  0  0  0  0  0  0  0  0  0  0
    7.8330  -18.9830  -38.5130 H   0  0  0  0  0  0  0  0  0  0  0  0
    1.6750  -14.0210  -37.8640 C   0  0  0  0  0  0  0  0  0  0  0  0
    2.2190  -13.8980  -39.1020 C   0  0  0  0  0  3  0  0  0  0  0  0
    3.1330  -12.8840  -39.4360 C   0  0  0  0  0  3  0  0  0  0  0  0
    3.5230  -11.9550  -38.5070 C   0  0  0  0  0  0  0  0  0  0  0  0
    4.7700  -10.5700  -38.9610 Br  0  0  0  0  0  0  0  0  0  0  0  0
    2.9880  -12.0630  -37.2540 C   0  0  0  0  0  3  0  0  0  0  0  0
    2.0870  -13.0660  -36.9340 C   0  0  0  0  0  3  0  0  0  0  0  0
  1  8  1  0  0  0  0
  2  1  2  0  0  0  0
  2  3  1  0  0  0  0
  3  4  1  0  0  0  0
  4  5  1  0  0  0  0
  5  6  1  0  0  0  0
  5  9  2  0  0  0  0
  6 13  1  0  0  0  0
  7  3  1  6  0  0  0
  7  6  1  0  0  0  0
  8  7  1  0  0  0  0
  8 14  1  0  0  0  0
 10  9  1  0  0  0  0
 11 10  2  0  0  0  0
 12  4  2  0  0  0  0
 12 11  1  0  0  0  0
 15 14  1  0  0  0  0
 16 15  1  0  0  0  0
 17 16  1  0  0  0  0
 17 18  1  0  0  0  0
 19 18  1  0  0  0  0
 20 19  1  0  0  0  0
 20 24  1  0  0  0  0
 21 20  1  0  0  0  0
 22 20  1  0  0  0  0
 23 21  1  0  0  0  0
 23 17  1  0  0  0  0
 24 25  1  0  0  0  0
 25 26  1  0  0  0  0
 27 26  1  0  0  0  0
 28  1  1  0  0  0  0
 28 34  1  0  0  0  0
 29 28  2  0  0  0  0
 30 29  1  0  0  0  0
 30 31  2  0  0  0  0
 31 33  1  0  0  0  0
 32 31  1  0  0  0  0
 33 34  2  0  0  0  0
M  END
>  <Pose>
1

>  <Score>
-6.979

$$$$
