/Users/jonathanwahrer/Desktop/Msc/3_Semester/Drug_Design_Praktikum/waehrer_HTS_screening/HTS_experiment/out/docking_results/vina_output/6y4q/0346_docked.pdbqt
 OpenBabel03232217313D

 35 38  0  0  1  0  0  0  0  0999 V2000
    0.3120  -15.6230  -38.2450 C   0  0  2  0  0  3  0  0  0  0  0  0
   -1.0740  -15.2430  -38.2170 N   0  0  0  0  0  0  0  0  0  0  0  0
   -1.7890  -15.9920  -37.2530 C   0  0  0  0  0  0  0  0  0  0  0  0
   -3.0270  -15.9380  -36.9750 O   0  0  0  0  0  0  0  0  0  0  0  0
   -0.8520  -16.9070  -36.5630 C   0  0  0  0  0  0  0  0  0  0  0  0
   -1.1650  -17.7100  -35.6560 O   0  0  0  0  0  0  0  0  0  0  0  0
    0.4410  -16.6570  -37.1660 C   0  0  1  0  0  3  0  0  0  0  0  0
    1.5280  -17.3070  -36.8160 C   0  0  1  0  0  3  0  0  0  0  0  0
    2.1530  -16.9350  -35.6060 O   0  0  0  0  0  1  0  0  0  0  0  0
    2.1510  -18.3810  -37.5480 C   0  0  0  0  0  0  0  0  0  0  0  0
    1.6680  -18.9960  -38.6490 C   0  0  0  0  0  3  0  0  0  0  0  0
    2.3870  -19.9930  -39.2760 C   0  0  0  0  0  0  0  0  0  0  0  0
    3.6200  -20.4240  -38.8370 C   0  0  0  0  0  0  0  0  0  0  0  0
    1.8090  -20.6450  -40.4970 C   0  0  0  0  0  1  0  0  0  0  0  0
    4.0910  -19.7800  -37.7090 C   0  0  0  0  0  3  0  0  0  0  0  0
    3.4030  -18.7890  -37.0640 C   0  0  0  0  0  3  0  0  0  0  0  0
    4.3390  -21.4290  -39.4730 O   0  0  0  0  0  0  0  0  0  0  0  0
    5.7120  -21.6230  -39.1670 C   0  0  0  0  0  1  0  0  0  0  0  0
    1.2260  -14.4960  -38.0420 C   0  0  0  0  0  0  0  0  0  0  0  0
    2.0180  -14.0340  -39.0710 C   0  0  0  0  0  3  0  0  0  0  0  0
    2.8930  -12.9590  -38.8810 C   0  0  0  0  0  3  0  0  0  0  0  0
    2.9850  -12.3360  -37.6560 C   0  0  0  0  0  0  0  0  0  0  0  0
    4.2000  -10.8650  -37.4300 Br  0  0  0  0  0  0  0  0  0  0  0  0
    2.2030  -12.7890  -36.6300 C   0  0  0  0  0  3  0  0  0  0  0  0
    1.3480  -13.8460  -36.8350 C   0  0  0  0  0  3  0  0  0  0  0  0
   -1.6440  -14.2260  -39.0820 C   0  0  0  0  0  2  0  0  0  0  0  0
   -2.3250  -13.1160  -38.3300 C   0  0  0  0  0  2  0  0  0  0  0  0
   -1.4080  -11.9520  -38.1070 C   0  0  0  0  0  2  0  0  0  0  0  0
   -1.3600  -11.5210  -36.7400 N   0  0  0  0  0  4  0  0  0  0  0  0
   -2.4350  -12.0580  -35.9310 C   0  0  0  0  0  2  0  0  0  0  0  0
   -2.1040  -11.7140  -34.4750 C   0  0  0  0  0  2  0  0  0  0  0  0
   -1.0550  -10.8100  -34.4110 O   0  0  0  0  0  0  0  0  0  0  0  0
   -1.3310   -9.6830  -35.2160 C   0  0  0  0  0  2  0  0  0  0  0  0
   -1.3040  -10.0880  -36.6860 C   0  0  0  0  0  2  0  0  0  0  0  0
   -0.4590  -11.8840  -36.3060 H   0  0  0  0  0  0  0  0  0  0  0  0
  1  2  1  0  0  0  0
  1 19  1  1  0  0  0
  1  7  1  0  0  0  0
  2  3  1  0  0  0  0
  3  4  2  0  0  0  0
  3  5  1  0  0  0  0
  5  6  2  0  0  0  0
  7  8  1  6  0  0  0
  7  5  1  0  0  0  0
  8  9  1  1  0  0  0
 10 16  1  0  0  0  0
 10  8  1  0  0  0  0
 11 10  2  0  0  0  0
 12 13  2  0  0  0  0
 12 11  1  0  0  0  0
 13 15  1  0  0  0  0
 14 12  1  0  0  0  0
 15 16  2  0  0  0  0
 17 18  1  0  0  0  0
 17 13  1  0  0  0  0
 19 25  1  0  0  0  0
 20 21  1  0  0  0  0
 20 19  2  0  0  0  0
 21 22  2  0  0  0  0
 22 23  1  0  0  0  0
 22 24  1  0  0  0  0
 25 24  2  0  0  0  0
 26 27  1  0  0  0  0
 26  2  1  0  0  0  0
 27 28  1  0  0  0  0
 28 29  1  0  0  0  0
 29 34  1  0  0  0  0
 29 35  1  0  0  0  0
 29 30  1  0  0  0  0
 30 31  1  0  0  0  0
 31 32  1  0  0  0  0
 33 32  1  0  0  0  0
 34 33  1  0  0  0  0
M  END
>  <Pose>
1

>  <Score>
-7.130

$$$$
