/Users/jonathanwahrer/Desktop/Msc/3_Semester/Drug_Design_Praktikum/waehrer_HTS_screening/HTS_experiment/out/docking_results/vina_output/6y4q/0349_docked.pdbqt
 OpenBabel03232217313D

 32 35  0  0  1  0  0  0  0  0999 V2000
    1.5670  -19.4330  -38.1520 C   0  0  1  0  0  3  0  0  0  0  0  0
    2.9590  -19.4660  -38.2900 N   0  0  0  0  0  0  0  0  0  0  0  0
    3.4420  -18.7730  -37.0780 C   0  0  0  0  0  0  0  0  0  0  0  0
    4.5260  -18.9780  -36.4650 O   0  0  0  0  0  0  0  0  0  0  0  0
    2.3820  -17.8100  -36.7630 C   0  0  0  0  0  0  0  0  0  0  0  0
    2.3400  -16.9710  -35.8120 O   0  0  0  0  0  0  0  0  0  0  0  0
    1.3480  -18.0030  -37.7980 C   0  0  0  0  0  0  0  0  0  0  0  0
    0.5170  -17.1060  -38.2810 C   0  0  0  0  0  0  0  0  0  0  0  0
   -0.3540  -17.4380  -39.3110 O   0  0  0  0  0  1  0  0  0  0  0  0
    3.9500  -19.9930  -39.2170 C   0  0  0  0  0  2  0  0  0  0  0  0
    4.3110  -21.4350  -38.9740 C   0  0  0  0  0  2  0  0  0  0  0  0
    4.7520  -22.1250  -40.1410 N   0  0  0  0  0  4  0  0  0  0  0  0
    5.7890  -21.3640  -40.8120 C   0  0  0  0  0  2  0  0  0  0  0  0
    6.2580  -22.1430  -42.0130 C   0  0  0  0  0  2  0  0  0  0  0  0
    5.1970  -22.1260  -42.9330 O   0  0  0  0  0  0  0  0  0  0  0  0
    4.1450  -22.8130  -42.3720 C   0  0  0  0  0  2  0  0  0  0  0  0
    3.6350  -22.1750  -41.1060 C   0  0  0  0  0  2  0  0  0  0  0  0
    5.0620  -23.0890  -39.9530 H   0  0  0  0  0  0  0  0  0  0  0  0
    0.5940  -20.1110  -38.9190 C   0  0  0  0  0  0  0  0  0  0  0  0
   -0.5110  -20.6410  -38.2350 C   0  0  0  0  0  3  0  0  0  0  0  0
   -1.5050  -21.3250  -38.8740 C   0  0  0  0  0  3  0  0  0  0  0  0
   -1.4610  -21.5230  -40.2370 C   0  0  0  0  0  0  0  0  0  0  0  0
   -2.8400  -22.4770  -41.1620 Br  0  0  0  0  0  0  0  0  0  0  0  0
   -0.3810  -21.0060  -40.9110 C   0  0  0  0  0  3  0  0  0  0  0  0
    0.6330  -20.3090  -40.2540 C   0  0  0  0  0  3  0  0  0  0  0  0
    0.4430  -15.7430  -37.7810 C   0  0  0  0  0  0  0  0  0  0  0  0
    1.2620  -14.7150  -38.1300 C   0  0  0  0  0  3  0  0  0  0  0  0
    1.0540  -13.4440  -37.6110 C   0  0  0  0  0  3  0  0  0  0  0  0
    0.0170  -13.2080  -36.7370 C   0  0  0  0  0  0  0  0  0  0  0  0
   -0.8330  -14.2200  -36.3590 C   0  0  0  0  0  3  0  0  0  0  0  0
   -0.2380  -11.8550  -36.1590 C   0  0  0  0  0  1  0  0  0  0  0  0
   -0.6060  -15.4820  -36.8910 C   0  0  0  0  0  3  0  0  0  0  0  0
  1 19  1  6  0  0  0
  1  7  1  0  0  0  0
  2  1  1  0  0  0  0
  2  3  1  0  0  0  0
  3  5  1  0  0  0  0
  3  4  2  0  0  0  0
  5  6  2  0  0  0  0
  7  5  1  0  0  0  0
  8  7  2  0  0  0  0
  8 26  1  0  0  0  0
  9  8  1  0  0  0  0
 10 11  1  0  0  0  0
 10  2  1  0  0  0  0
 12 18  1  0  0  0  0
 12 11  1  0  0  0  0
 13 12  1  0  0  0  0
 14 13  1  0  0  0  0
 15 16  1  0  0  0  0
 15 14  1  0  0  0  0
 16 17  1  0  0  0  0
 17 12  1  0  0  0  0
 19 20  1  0  0  0  0
 21 20  2  0  0  0  0
 22 21  1  0  0  0  0
 23 22  1  0  0  0  0
 24 25  1  0  0  0  0
 24 22  2  0  0  0  0
 25 19  2  0  0  0  0
 26 32  1  0  0  0  0
 27 26  2  0  0  0  0
 27 28  1  0  0  0  0
 28 29  2  0  0  0  0
 29 30  1  0  0  0  0
 29 31  1  0  0  0  0
 32 30  2  0  0  0  0
M  END
>  <Pose>
1

>  <Score>
-6.645

$$$$
