/Users/jonathanwahrer/Desktop/Msc/3_Semester/Drug_Design_Praktikum/waehrer_HTS_screening/HTS_experiment/out/docking_results/vina_output/6y4q/0351_docked.pdbqt
 OpenBabel03232217323D

 32 35  0  0  1  0  0  0  0  0999 V2000
    1.2630  -19.9540  -38.2270 C   0  0  1  0  0  3  0  0  0  0  0  0
    2.5320  -20.3120  -38.7450 N   0  0  0  0  0  0  0  0  0  0  0  0
    3.4650  -19.7160  -37.7940 C   0  0  0  0  0  0  0  0  0  0  0  0
    4.6210  -20.1400  -37.5220 O   0  0  0  0  0  0  0  0  0  0  0  0
    2.7800  -18.5480  -37.2440 C   0  0  0  0  0  0  0  0  0  0  0  0
    3.2030  -17.7240  -36.3920 O   0  0  0  0  0  0  0  0  0  0  0  0
    1.4680  -18.5120  -37.8940 C   0  0  0  0  0  0  0  0  0  0  0  0
    0.7180  -17.4540  -38.1430 C   0  0  0  0  0  0  0  0  0  0  0  0
   -0.4780  -17.5900  -38.8300 O   0  0  0  0  0  1  0  0  0  0  0  0
    2.9730  -21.1180  -39.8880 C   0  0  0  0  0  2  0  0  0  0  0  0
    3.7040  -20.3460  -40.9430 C   0  0  0  0  0  2  0  0  0  0  0  0
    5.1110  -20.1920  -40.6500 N   0  0  0  0  0  4  0  0  0  0  0  0
    5.8090  -19.4240  -41.6430 C   0  0  0  0  0  2  0  0  0  0  0  0
    5.9640  -20.1260  -42.9590 C   0  0  0  0  0  2  0  0  0  0  0  0
    6.5170  -21.4000  -42.8140 O   0  0  0  0  0  0  0  0  0  0  0  0
    5.6280  -22.1210  -42.0030 C   0  0  0  0  0  2  0  0  0  0  0  0
    5.7080  -21.5160  -40.6180 C   0  0  0  0  0  2  0  0  0  0  0  0
    5.2820  -19.7590  -39.7220 H   0  0  0  0  0  0  0  0  0  0  0  0
    0.0480  -20.2930  -38.8620 C   0  0  0  0  0  0  0  0  0  0  0  0
   -0.1140  -20.2920  -40.2190 C   0  0  0  0  0  3  0  0  0  0  0  0
   -1.3390  -20.6520  -40.7980 C   0  0  0  0  0  3  0  0  0  0  0  0
   -2.4200  -21.0180  -40.0290 C   0  0  0  0  0  0  0  0  0  0  0  0
   -4.1010  -21.5140  -40.7650 Br  0  0  0  0  0  0  0  0  0  0  0  0
   -2.2620  -21.0190  -38.6680 C   0  0  0  0  0  3  0  0  0  0  0  0
   -1.0520  -20.6630  -38.1160 C   0  0  0  0  0  3  0  0  0  0  0  0
    1.0660  -16.1030  -37.7270 C   0  0  0  0  0  0  0  0  0  0  0  0
    1.7420  -15.3500  -38.6960 C   0  0  0  0  0  3  0  0  0  0  0  0
    2.1080  -14.0420  -38.4790 C   0  0  0  0  0  3  0  0  0  0  0  0
    1.7900  -13.4650  -37.2540 C   0  0  0  0  0  0  0  0  0  0  0  0
    1.1250  -14.2110  -36.3060 C   0  0  0  0  0  3  0  0  0  0  0  0
    2.2610  -11.8020  -36.9880 Cl  0  0  0  0  0  0  0  0  0  0  0  0
    0.7620  -15.5220  -36.5350 C   0  0  0  0  0  3  0  0  0  0  0  0
  1 19  1  6  0  0  0
  1  7  1  0  0  0  0
  2  1  1  0  0  0  0
  2  3  1  0  0  0  0
  3  4  2  0  0  0  0
  3  5  1  0  0  0  0
  5  6  2  0  0  0  0
  7  5  1  0  0  0  0
  8  7  2  0  0  0  0
  8 26  1  0  0  0  0
  9  8  1  0  0  0  0
 10  2  1  0  0  0  0
 11 12  1  0  0  0  0
 11 10  1  0  0  0  0
 12 17  1  0  0  0  0
 12 18  1  0  0  0  0
 13 12  1  0  0  0  0
 14 15  1  0  0  0  0
 14 13  1  0  0  0  0
 15 16  1  0  0  0  0
 16 17  1  0  0  0  0
 19 25  1  0  0  0  0
 20 19  2  0  0  0  0
 21 20  1  0  0  0  0
 21 22  2  0  0  0  0
 22 24  1  0  0  0  0
 23 22  1  0  0  0  0
 24 25  2  0  0  0  0
 26 32  1  0  0  0  0
 27 28  1  0  0  0  0
 27 26  2  0  0  0  0
 28 29  2  0  0  0  0
 29 31  1  0  0  0  0
 29 30  1  0  0  0  0
 32 30  2  0  0  0  0
M  END
>  <Pose>
1

>  <Score>
-6.083

$$$$
