/Users/jonathanwahrer/Desktop/Msc/3_Semester/Drug_Design_Praktikum/waehrer_HTS_screening/HTS_experiment/out/docking_results/vina_output/6y4q/0354_docked.pdbqt
 OpenBabel03232217323D

 32 35  0  0  1  0  0  0  0  0999 V2000
    2.2340  -18.5520  -38.4020 C   0  0  1  0  0  3  0  0  0  0  0  0
    3.4490  -18.9120  -37.7450 N   0  0  0  0  0  0  0  0  0  0  0  0
    3.3010  -18.4520  -36.3760 C   0  0  0  0  0  0  0  0  0  0  0  0
    3.9720  -18.8820  -35.4020 O   0  0  0  0  0  0  0  0  0  0  0  0
    2.2670  -17.4350  -36.3570 C   0  0  0  0  0  0  0  0  0  0  0  0
    1.8400  -16.7810  -35.3580 O   0  0  0  0  0  0  0  0  0  0  0  0
    1.8030  -17.3010  -37.7230 C   0  0  0  0  0  0  0  0  0  0  0  0
    1.1650  -16.2600  -38.2270 C   0  0  0  0  0  0  0  0  0  0  0  0
    0.8480  -16.3310  -39.6050 O   0  0  0  0  0  1  0  0  0  0  0  0
    4.6260  -19.6550  -38.1970 C   0  0  0  0  0  2  0  0  0  0  0  0
    4.3900  -21.0970  -38.4940 C   0  0  0  0  0  2  0  0  0  0  0  0
    5.5490  -21.7170  -39.2590 C   0  0  0  0  0  2  0  0  0  0  0  0
    5.1190  -22.2220  -40.5420 N   0  0  0  0  0  4  0  0  0  0  0  0
    3.7660  -21.8320  -40.8680 C   0  0  0  0  0  2  0  0  0  0  0  0
    3.5980  -22.0480  -42.3740 C   0  0  0  0  0  2  0  0  0  0  0  0
    4.2570  -21.0160  -43.0420 O   0  0  0  0  0  0  0  0  0  0  0  0
    5.4710  -20.7020  -42.4320 C   0  0  0  0  0  2  0  0  0  0  0  0
    5.9970  -21.8630  -41.6130 C   0  0  0  0  0  2  0  0  0  0  0  0
    5.1230  -23.2670  -40.4660 H   0  0  0  0  0  0  0  0  0  0  0  0
    2.2320  -18.4560  -39.8490 C   0  0  0  0  0  0  0  0  0  0  0  0
    3.1150  -17.7890  -40.6280 C   0  0  0  0  0  3  0  0  0  0  0  0
    3.0310  -17.7840  -42.0070 C   0  0  0  0  0  3  0  0  0  0  0  0
    2.0320  -18.4650  -42.6690 C   0  0  0  0  0  0  0  0  0  0  0  0
    1.8960  -18.4730  -44.5740 Br  0  0  0  0  0  0  0  0  0  0  0  0
    1.1150  -19.1550  -41.9070 C   0  0  0  0  0  3  0  0  0  0  0  0
    1.2190  -19.1460  -40.5350 C   0  0  0  0  0  3  0  0  0  0  0  0
    0.7760  -15.0890  -37.4670 C   0  0  0  0  0  0  0  0  0  0  0  0
    1.7410  -14.0800  -37.3540 C   0  0  0  0  0  3  0  0  0  0  0  0
    1.4930  -12.8940  -36.6960 C   0  0  0  0  0  3  0  0  0  0  0  0
    0.2870  -12.6850  -36.1380 N   0  0  0  0  0  0  0  0  0  0  0  0
   -0.6620  -13.6390  -36.2310 C   0  0  0  0  0  3  0  0  0  0  0  0
   -0.4230  -14.8420  -36.8940 C   0  0  0  0  0  3  0  0  0  0  0  0
  1 20  1  6  0  0  0
  1  2  1  0  0  0  0
  1  7  1  0  0  0  0
  2  3  1  0  0  0  0
  3  5  1  0  0  0  0
  3  4  2  0  0  0  0
  5  6  2  0  0  0  0
  7  5  1  0  0  0  0
  8  7  2  0  0  0  0
  8 27  1  0  0  0  0
  9  8  1  0  0  0  0
 10  2  1  0  0  0  0
 11 10  1  0  0  0  0
 12 11  1  0  0  0  0
 13 19  1  0  0  0  0
 13 12  1  0  0  0  0
 14 13  1  0  0  0  0
 15 14  1  0  0  0  0
 16 17  1  0  0  0  0
 16 15  1  0  0  0  0
 17 18  1  0  0  0  0
 18 13  1  0  0  0  0
 21 20  2  0  0  0  0
 22 21  1  0  0  0  0
 23 22  2  0  0  0  0
 23 25  1  0  0  0  0
 24 23  1  0  0  0  0
 25 26  2  0  0  0  0
 26 20  1  0  0  0  0
 27 28  2  0  0  0  0
 27 32  1  0  0  0  0
 28 29  1  0  0  0  0
 29 30  2  0  0  0  0
 31 30  1  0  0  0  0
 32 31  2  0  0  0  0
M  END
>  <Pose>
1

>  <Score>
-5.953

$$$$
