/Users/jonathanwahrer/Desktop/Msc/3_Semester/Drug_Design_Praktikum/waehrer_HTS_screening/HTS_experiment/out/docking_results/vina_output/6y4q/0361_docked.pdbqt
 OpenBabel03232217333D

 33 36  0  0  1  0  0  0  0  0999 V2000
    2.1160  -18.4510  -39.0300 C   0  0  1  0  0  3  0  0  0  0  0  0
    2.6170  -18.0810  -40.3660 N   0  0  0  0  0  0  0  0  0  0  0  0
    1.6030  -17.2380  -40.9040 C   0  0  0  0  0  0  0  0  0  0  0  0
    1.4040  -17.0670  -42.1410 O   0  0  0  0  0  0  0  0  0  0  0  0
    0.8650  -16.6280  -39.8040 C   0  0  0  0  0  0  0  0  0  0  0  0
   -0.0890  -15.8280  -39.8920 O   0  0  0  0  0  0  0  0  0  0  0  0
    1.4830  -17.1510  -38.5990 C   0  0  0  0  0  0  0  0  0  0  0  0
    1.5250  -16.6070  -37.4090 C   0  0  0  0  0  0  0  0  0  0  0  0
    2.2070  -17.2190  -36.3670 O   0  0  0  0  0  1  0  0  0  0  0  0
    1.0240  -19.4440  -39.1360 C   0  0  0  0  0  0  0  0  0  0  0  0
    0.1440  -19.6530  -38.1010 C   0  0  0  0  0  3  0  0  0  0  0  0
   -0.8980  -20.5750  -38.1860 C   0  0  0  0  0  3  0  0  0  0  0  0
   -1.0750  -21.3160  -39.3400 C   0  0  0  0  0  0  0  0  0  0  0  0
   -2.5060  -22.5910  -39.4790 Br  0  0  0  0  0  0  0  0  0  0  0  0
   -0.1950  -21.1050  -40.3720 C   0  0  0  0  0  3  0  0  0  0  0  0
    0.8310  -20.1930  -40.2760 C   0  0  0  0  0  3  0  0  0  0  0  0
    0.8630  -15.3500  -37.1200 C   0  0  0  0  0  0  0  0  0  0  0  0
    1.2470  -14.0710  -37.3100 N   0  0  0  0  0  0  0  0  0  0  0  0
    0.3170  -13.2200  -36.8520 C   0  0  0  0  0  0  0  0  0  0  0  0
    2.3550  -13.5310  -37.8810 C   0  0  0  0  0  3  0  0  0  0  0  0
   -0.6800  -13.9870  -36.3600 N   0  0  0  0  0  0  0  0  0  0  0  0
    0.4470  -11.8330  -36.9360 C   0  0  0  0  0  3  0  0  0  0  0  0
   -0.4010  -15.2680  -36.4970 C   0  0  0  0  0  0  0  0  0  0  0  0
   -1.2070  -16.4680  -36.1020 C   0  0  0  0  0  1  0  0  0  0  0  0
    1.5680  -11.2810  -37.5120 C   0  0  0  0  0  3  0  0  0  0  0  0
    2.5100  -12.1690  -37.9790 C   0  0  0  0  0  3  0  0  0  0  0  0
    3.8530  -18.5110  -40.9640 C   0  0  0  0  0  2  0  0  0  0  0  0
    4.7700  -19.3770  -40.1930 C   0  0  0  0  0  2  0  0  0  0  0  0
    4.7720  -20.8400  -40.3940 C   0  0  0  0  0  2  0  0  0  0  0  0
    4.8180  -21.6790  -39.2340 N   0  0  0  0  0  4  0  0  0  0  0  0
    6.2520  -21.7780  -38.8390 C   0  0  0  0  0  1  0  0  0  0  0  0
    4.1900  -21.0080  -38.1150 C   0  0  0  0  0  1  0  0  0  0  0  0
    4.4460  -22.6230  -39.3310 H   0  0  0  0  0  0  0  0  0  0  0  0
  1 10  1  6  0  0  0
  1  7  1  0  0  0  0
  2  1  1  0  0  0  0
  3  2  1  0  0  0  0
  3  5  1  0  0  0  0
  4  3  2  0  0  0  0
  5  7  1  0  0  0  0
  6  5  2  0  0  0  0
  7  8  2  0  0  0  0
  8 17  1  0  0  0  0
  8  9  1  0  0  0  0
 10 11  1  0  0  0  0
 12 11  2  0  0  0  0
 13 12  1  0  0  0  0
 14 13  1  0  0  0  0
 15 16  1  0  0  0  0
 15 13  2  0  0  0  0
 16 10  2  0  0  0  0
 17 23  2  0  0  0  0
 18 17  1  0  0  0  0
 18 19  1  0  0  0  0
 19 21  2  0  0  0  0
 20 18  1  0  0  0  0
 22 19  1  0  0  0  0
 23 21  1  0  0  0  0
 23 24  1  0  0  0  0
 25 22  2  0  0  0  0
 26 20  2  0  0  0  0
 26 25  1  0  0  0  0
 27  2  1  0  0  0  0
 27 28  1  0  0  0  0
 29 28  1  0  0  0  0
 29 30  1  0  0  0  0
 30 31  1  0  0  0  0
 30 32  1  0  0  0  0
 33 30  1  0  0  0  0
M  END
>  <Pose>
1

>  <Score>
-5.985

$$$$
