/Users/jonathanwahrer/Desktop/Msc/3_Semester/Drug_Design_Praktikum/waehrer_HTS_screening/HTS_experiment/out/docking_results/vina_output/6y4q/0362_docked.pdbqt
 OpenBabel03232217333D

 36 40  0  0  1  0  0  0  0  0999 V2000
    1.5870  -19.4920  -38.2900 C   0  0  2  0  0  3  0  0  0  0  0  0
    2.3760  -18.7120  -37.4320 N   0  0  0  0  0  0  0  0  0  0  0  0
    3.4710  -19.6080  -37.1010 C   0  0  0  0  0  0  0  0  0  0  0  0
    4.2010  -19.6040  -36.0520 O   0  0  0  0  0  0  0  0  0  0  0  0
    3.6140  -20.5540  -38.2020 C   0  0  0  0  0  0  0  0  0  0  0  0
    4.4250  -21.5200  -38.3690 O   0  0  0  0  0  0  0  0  0  0  0  0
    2.5790  -20.1730  -39.1610 C   0  0  0  0  0  0  0  0  0  0  0  0
    2.5310  -20.4180  -40.4570 C   0  0  0  0  0  0  0  0  0  0  0  0
    1.4270  -20.0180  -41.1980 O   0  0  0  0  0  1  0  0  0  0  0  0
    0.4200  -18.9960  -38.9520 C   0  0  0  0  0  0  0  0  0  0  0  0
    0.3870  -17.7840  -39.5800 C   0  0  0  0  0  3  0  0  0  0  0  0
   -0.7710  -17.3490  -40.1880 C   0  0  0  0  0  3  0  0  0  0  0  0
   -1.9290  -18.1050  -40.1910 C   0  0  0  0  0  0  0  0  0  0  0  0
   -3.5310  -17.5020  -41.0330 Br  0  0  0  0  0  0  0  0  0  0  0  0
   -1.8860  -19.3300  -39.5540 C   0  0  0  0  0  3  0  0  0  0  0  0
   -0.7210  -19.7470  -38.9520 C   0  0  0  0  0  3  0  0  0  0  0  0
    3.6020  -21.0980  -41.1690 C   0  0  0  0  0  0  0  0  0  0  0  0
    3.5840  -22.3300  -41.7060 N   0  0  0  0  0  0  0  0  0  0  0  0
    4.7640  -22.5870  -42.3170 C   0  0  0  0  0  0  0  0  0  0  0  0
    2.6710  -23.3440  -41.7510 C   0  0  0  0  0  3  0  0  0  0  0  0
    5.5210  -21.4900  -42.1530 N   0  0  0  0  0  0  0  0  0  0  0  0
    5.0260  -23.7860  -42.9460 C   0  0  0  0  0  3  0  0  0  0  0  0
    4.8580  -20.5650  -41.4630 C   0  0  0  0  0  0  0  0  0  0  0  0
    5.2840  -19.2040  -41.0420 C   0  0  0  0  0  1  0  0  0  0  0  0
    4.0850  -24.7880  -42.9760 C   0  0  0  0  0  3  0  0  0  0  0  0
    2.8800  -24.5440  -42.3560 C   0  0  0  0  0  3  0  0  0  0  0  0
    2.3780  -17.4180  -36.8300 C   0  0  0  0  0  2  0  0  0  0  0  0
    1.4140  -17.0010  -35.8340 C   0  0  0  0  0  2  0  0  0  0  0  0
    0.3080  -16.0690  -36.2680 C   0  0  0  0  0  2  0  0  0  0  0  0
    0.8310  -14.9480  -37.0440 N   0  0  0  0  0  4  0  0  0  0  0  0
    1.3580  -13.8810  -36.2460 C   0  0  0  0  0  2  0  0  0  0  0  0
    0.3490  -12.8520  -35.8270 C   0  0  0  0  0  2  0  0  0  0  0  0
   -0.9500  -13.2480  -36.0080 O   0  0  0  0  0  0  0  0  0  0  0  0
   -1.2580  -13.7030  -37.2630 C   0  0  0  0  0  2  0  0  0  0  0  0
   -0.1420  -14.4170  -37.9510 C   0  0  0  0  0  2  0  0  0  0  0  0
    1.6310  -15.3320  -37.6050 H   0  0  0  0  0  0  0  0  0  0  0  0
  1 10  1  6  0  0  0
  1  2  1  0  0  0  0
  2  3  1  0  0  0  0
  2 27  1  0  0  0  0
  3  4  2  0  0  0  0
  5  3  1  0  0  0  0
  6  5  2  0  0  0  0
  7  1  1  0  0  0  0
  7  5  1  0  0  0  0
  8  7  2  0  0  0  0
  9  8  1  0  0  0  0
 11 10  2  0  0  0  0
 12 11  1  0  0  0  0
 13 12  2  0  0  0  0
 13 15  1  0  0  0  0
 14 13  1  0  0  0  0
 15 16  2  0  0  0  0
 16 10  1  0  0  0  0
 17  8  1  0  0  0  0
 18 17  1  0  0  0  0
 19 21  2  0  0  0  0
 19 18  1  0  0  0  0
 20 18  1  0  0  0  0
 21 23  1  0  0  0  0
 22 19  1  0  0  0  0
 23 17  2  0  0  0  0
 23 24  1  0  0  0  0
 25 22  2  0  0  0  0
 25 26  1  0  0  0  0
 26 20  2  0  0  0  0
 27 28  1  0  0  0  0
 29 28  1  0  0  0  0
 30 29  1  0  0  0  0
 30 31  1  0  0  0  0
 31 32  1  0  0  0  0
 33 32  1  0  0  0  0
 34 33  1  0  0  0  0
 35 34  1  0  0  0  0
 35 30  1  0  0  0  0
 36 30  1  0  0  0  0
M  END
>  <Pose>
1

>  <Score>
-6.346

$$$$
