/Users/jonathanwahrer/Desktop/Msc/3_Semester/Drug_Design_Praktikum/waehrer_HTS_screening/HTS_experiment/out/docking_results/vina_output/6y4q/0364_docked.pdbqt
 OpenBabel03232217333D

 32 35  0  0  1  0  0  0  0  0999 V2000
    0.9800  -16.6200  -37.1840 C   0  0  1  0  0  3  0  0  0  0  0  0
    1.7480  -17.4460  -38.0740 N   0  0  0  0  0  0  0  0  0  0  0  0
    2.0100  -16.6850  -39.2410 C   0  0  0  0  0  0  0  0  0  0  0  0
    2.4840  -17.1360  -40.3230 O   0  0  0  0  0  0  0  0  0  0  0  0
    1.6420  -15.2880  -38.9960 C   0  0  0  0  0  0  0  0  0  0  0  0
    1.7350  -14.3210  -39.7910 O   0  0  0  0  0  0  0  0  0  0  0  0
    1.1430  -15.2210  -37.6340 C   0  0  0  0  0  0  0  0  0  0  0  0
    0.9400  -14.1130  -36.9410 C   0  0  0  0  0  0  0  0  0  0  0  0
    0.5230  -14.2600  -35.6030 O   0  0  0  0  0  1  0  0  0  0  0  0
   -0.4510  -17.0250  -37.1380 C   0  0  0  0  0  0  0  0  0  0  0  0
   -1.0160  -17.6350  -36.0420 C   0  0  0  0  0  3  0  0  0  0  0  0
   -2.3340  -18.0220  -35.9660 C   0  0  0  0  0  3  0  0  0  0  0  0
   -3.1610  -17.7990  -37.0290 C   0  0  0  0  0  0  0  0  0  0  0  0
   -4.9890  -18.3430  -36.9040 Br  0  0  0  0  0  0  0  0  0  0  0  0
   -2.6430  -17.1910  -38.1480 C   0  0  0  0  0  3  0  0  0  0  0  0
   -1.3230  -16.8120  -38.2070 C   0  0  0  0  0  3  0  0  0  0  0  0
    1.0940  -12.7630  -37.4220 C   0  0  0  0  0  0  0  0  0  0  0  0
    2.1170  -11.8990  -37.4120 N   0  0  0  0  0  0  0  0  0  0  0  0
    1.7560  -10.7220  -37.9530 C   0  0  0  0  0  0  0  0  0  0  0  0
    3.3900  -12.0340  -36.9820 C   0  0  0  0  0  3  0  0  0  0  0  0
    0.4680  -10.8370  -38.3190 N   0  0  0  0  0  0  0  0  0  0  0  0
    2.6210   -9.6420  -38.0900 C   0  0  0  0  0  3  0  0  0  0  0  0
    0.0340  -12.0610  -38.0120 C   0  0  0  0  0  0  0  0  0  0  0  0
   -1.3420  -12.5720  -38.2650 C   0  0  0  0  0  1  0  0  0  0  0  0
    3.9090   -9.7850  -37.6520 C   0  0  0  0  0  3  0  0  0  0  0  0
    4.2840  -10.9950  -37.0970 C   0  0  0  0  0  3  0  0  0  0  0  0
    2.1930  -18.8350  -37.8280 C   0  0  0  0  0  2  0  0  0  0  0  0
    3.6370  -18.8430  -37.3760 C   0  0  0  0  0  2  0  0  0  0  0  0
    4.5090  -19.5100  -38.2780 N   0  0  0  0  0  4  0  0  0  0  0  0
    5.8820  -19.2210  -37.8640 C   0  0  0  0  0  1  0  0  0  0  0  0
    4.3430  -20.9290  -38.3510 C   0  0  0  0  0  1  0  0  0  0  0  0
    4.4220  -19.1350  -39.2640 H   0  0  0  0  0  0  0  0  0  0  0  0
  1 10  1  6  0  0  0
  2 27  1  0  0  0  0
  2  1  1  0  0  0  0
  3  5  1  0  0  0  0
  3  2  1  0  0  0  0
  4  3  2  0  0  0  0
  5  7  1  0  0  0  0
  6  5  2  0  0  0  0
  7  1  1  0  0  0  0
  7  8  2  0  0  0  0
  8  9  1  0  0  0  0
 10 11  1  0  0  0  0
 11 12  2  0  0  0  0
 13 14  1  0  0  0  0
 13 12  1  0  0  0  0
 15 13  2  0  0  0  0
 16 15  1  0  0  0  0
 16 10  2  0  0  0  0
 17 18  1  0  0  0  0
 17  8  1  0  0  0  0
 18 20  1  0  0  0  0
 19 18  1  0  0  0  0
 21 23  1  0  0  0  0
 21 19  2  0  0  0  0
 22 19  1  0  0  0  0
 22 25  2  0  0  0  0
 23 17  2  0  0  0  0
 24 23  1  0  0  0  0
 25 26  1  0  0  0  0
 26 20  2  0  0  0  0
 27 28  1  0  0  0  0
 29 30  1  0  0  0  0
 29 28  1  0  0  0  0
 31 29  1  0  0  0  0
 32 29  1  0  0  0  0
M  END
>  <Pose>
1

>  <Score>
-6.070

$$$$
