/Users/jonathanwahrer/Desktop/Msc/3_Semester/Drug_Design_Praktikum/waehrer_HTS_screening/HTS_experiment/out/docking_results/vina_output/6y4q/0381_docked.pdbqt
 OpenBabel03232217343D

 29 32  0  0  0  0  0  0  0  0999 V2000
    1.1760  -16.0490  -36.4980 N   0  0  0  0  0  0  0  0  0  0  0  0
    1.6510  -14.9460  -37.0680 N   0  0  0  0  0  0  0  0  0  0  0  0
    0.8240  -13.9740  -37.5490 C   0  0  0  0  0  0  0  0  0  0  0  0
   -0.5050  -14.1340  -37.4480 N   0  0  0  0  0  0  0  0  0  0  0  0
   -1.1960  -13.0080  -38.0380 C   0  0  0  0  0  3  0  0  0  0  0  0
   -0.1440  -12.0640  -38.5390 C   0  0  0  0  0  3  0  0  0  0  0  0
    1.0940  -12.7130  -38.1520 N   0  0  0  0  0  0  0  0  0  0  0  0
   -1.0420  -15.2240  -36.8850 C   0  0  0  0  0  0  0  0  0  0  0  0
   -2.2840  -15.3710  -36.7920 O   0  0  0  0  0  0  0  0  0  0  0  0
   -0.1600  -16.1750  -36.4130 C   0  0  0  0  0  0  0  0  0  0  0  0
   -0.6170  -17.2160  -35.8770 O   0  0  0  0  0  0  0  0  0  0  0  0
    2.0560  -17.0910  -35.9440 C   0  0  0  0  0  2  0  0  0  0  0  0
    2.5960  -17.9340  -37.0100 C   0  0  0  0  0  0  0  0  0  0  0  0
    3.6840  -18.8120  -36.9460 N   0  0  0  0  0  0  0  0  0  0  0  0
    4.1870  -18.8710  -36.0150 H   0  0  0  0  0  0  0  0  0  0  0  0
    1.9530  -17.8140  -38.1280 O   0  0  0  0  0  0  0  0  0  0  0  0
    4.1590  -19.6030  -37.9950 C   0  0  0  0  0  0  0  0  0  0  0  0
    3.6240  -20.7790  -38.4580 C   0  0  0  0  0  3  0  0  0  0  0  0
    4.1610  -21.4880  -39.5410 C   0  0  0  0  0  3  0  0  0  0  0  0
    5.2690  -21.0360  -40.2100 C   0  0  0  0  0  0  0  0  0  0  0  0
    6.0120  -21.9860  -41.6910 Br  0  0  0  0  0  0  0  0  0  0  0  0
    5.8260  -19.8540  -39.7620 C   0  0  0  0  0  3  0  0  0  0  0  0
    5.2960  -19.1690  -38.7040 C   0  0  0  0  0  3  0  0  0  0  0  0
    2.3640  -12.1290  -38.3650 C   0  0  0  0  0  0  0  0  0  0  0  0
    3.0370  -12.1830  -39.5560 C   0  0  0  0  0  3  0  0  0  0  0  0
    4.2870  -11.6140  -39.7290 C   0  0  0  0  0  3  0  0  0  0  0  0
    4.8920  -10.9630  -38.6720 C   0  0  0  0  0  3  0  0  0  0  0  0
    4.2400  -10.8970  -37.4810 C   0  0  0  0  0  3  0  0  0  0  0  0
    2.9960  -11.4670  -37.3170 C   0  0  0  0  0  3  0  0  0  0  0  0
  1 10  1  0  0  0  0
  1 12  1  0  0  0  0
  2  1  1  0  0  0  0
  3  4  1  0  0  0  0
  3  2  2  0  0  0  0
  4  8  1  0  0  0  0
  5  4  1  0  0  0  0
  6  7  1  0  0  0  0
  6  5  2  0  0  0  0
  7  3  1  0  0  0  0
  8  9  2  0  0  0  0
  8 10  1  0  0  0  0
 10 11  2  0  0  0  0
 13 14  1  0  0  0  0
 13 12  1  0  0  0  0
 14 15  1  0  0  0  0
 16 13  2  0  0  0  0
 17 14  1  0  0  0  0
 18 17  1  0  0  0  0
 19 18  2  0  0  0  0
 20 22  2  0  0  0  0
 20 19  1  0  0  0  0
 21 20  1  0  0  0  0
 22 23  1  0  0  0  0
 23 17  2  0  0  0  0
 24  7  1  0  0  0  0
 24 29  1  0  0  0  0
 25 24  2  0  0  0  0
 26 25  1  0  0  0  0
 26 27  2  0  0  0  0
 27 28  1  0  0  0  0
 28 29  2  0  0  0  0
M  END
>  <Pose>
1

>  <Score>
-7.020

$$$$
