/Users/jonathanwahrer/Desktop/Msc/3_Semester/Drug_Design_Praktikum/waehrer_HTS_screening/HTS_experiment/out/docking_results/vina_output/6y4q/0382_docked.pdbqt
 OpenBabel03232217343D

 31 34  0  0  0  0  0  0  0  0999 V2000
    0.8280  -16.1120  -36.9850 N   0  0  0  0  0  0  0  0  0  0  0  0
    0.9960  -16.0850  -35.6620 N   0  0  0  0  0  0  0  0  0  0  0  0
    1.9010  -16.9730  -35.3190 N   0  0  0  0  0  0  0  0  0  0  0  0
    2.3370  -17.5960  -36.4390 C   0  0  0  0  0  0  0  0  0  0  0  0
    1.6640  -17.0520  -37.4600 C   0  0  0  0  0  0  0  0  0  0  0  0
    2.1340  -17.7110  -38.5770 C   0  0  0  0  0  0  0  0  0  0  0  0
    1.7160  -17.4540  -39.7460 O   0  0  0  0  0  0  0  0  0  0  0  0
    3.0630  -18.6280  -38.2670 N   0  0  0  0  0  0  0  0  0  0  0  0
    3.1960  -18.5600  -36.9120 C   0  0  0  0  0  0  0  0  0  0  0  0
    3.9940  -19.2930  -36.2660 O   0  0  0  0  0  0  0  0  0  0  0  0
    0.4700  -15.4410  -35.0360 H   0  0  0  0  0  0  0  0  0  0  0  0
    2.2620  -17.2020  -34.3590 H   0  0  0  0  0  0  0  0  0  0  0  0
   -0.0970  -15.2650  -37.7110 C   0  0  0  0  0  2  0  0  0  0  0  0
    0.6690  -14.0720  -38.2580 C   0  0  0  0  0  0  0  0  0  0  0  0
    2.0560  -13.9880  -38.0770 N   0  0  0  0  0  0  0  0  0  0  0  0
    2.5480  -14.7760  -37.5470 H   0  0  0  0  0  0  0  0  0  0  0  0
    0.0430  -13.1770  -38.8630 O   0  0  0  0  0  0  0  0  0  0  0  0
    2.8930  -12.9460  -38.5350 C   0  0  0  0  0  0  0  0  0  0  0  0
    3.3710  -11.9070  -37.7660 C   0  0  0  0  0  3  0  0  0  0  0  0
    4.2140  -10.9200  -38.2600 C   0  0  0  0  0  3  0  0  0  0  0  0
    4.6140  -10.9420  -39.5720 C   0  0  0  0  0  0  0  0  0  0  0  0
    5.7660   -9.6260  -40.3150 Br  0  0  0  0  0  0  0  0  0  0  0  0
    4.1480  -11.9710  -40.3610 C   0  0  0  0  0  3  0  0  0  0  0  0
    3.3240  -12.9360  -39.8760 C   0  0  0  0  0  3  0  0  0  0  0  0
    3.7850  -19.5090  -39.1400 C   0  0  0  0  0  0  0  0  0  0  0  0
    3.2500  -20.7180  -39.5280 C   0  0  0  0  0  3  0  0  0  0  0  0
    3.9340  -21.5660  -40.3760 C   0  0  0  0  0  3  0  0  0  0  0  0
    5.1850  -21.2510  -40.8760 C   0  0  0  0  0  0  0  0  0  0  0  0
    5.7230  -20.0420  -40.4890 C   0  0  0  0  0  3  0  0  0  0  0  0
    5.8930  -22.1860  -41.7920 C   0  0  0  0  0  1  0  0  0  0  0  0
    5.0320  -19.1940  -39.6380 C   0  0  0  0  0  3  0  0  0  0  0  0
  1  2  1  0  0  0  0
  2  3  1  0  0  0  0
  2 11  1  0  0  0  0
  3 12  1  0  0  0  0
  4  3  1  0  0  0  0
  5  1  1  0  0  0  0
  5  4  2  0  0  0  0
  6  8  1  0  0  0  0
  6  5  1  0  0  0  0
  7  6  2  0  0  0  0
  8  9  1  0  0  0  0
  9  4  1  0  0  0  0
  9 10  2  0  0  0  0
 13  1  1  0  0  0  0
 14 15  1  0  0  0  0
 14 13  1  0  0  0  0
 15 16  1  0  0  0  0
 17 14  2  0  0  0  0
 18 15  1  0  0  0  0
 18 19  1  0  0  0  0
 20 19  2  0  0  0  0
 21 20  1  0  0  0  0
 22 21  1  0  0  0  0
 23 24  1  0  0  0  0
 23 21  2  0  0  0  0
 24 18  2  0  0  0  0
 25  8  1  0  0  0  0
 26 25  1  0  0  0  0
 27 26  2  0  0  0  0
 28 29  2  0  0  0  0
 28 27  1  0  0  0  0
 29 31  1  0  0  0  0
 30 28  1  0  0  0  0
 31 25  2  0  0  0  0
M  END
>  <Pose>
1

>  <Score>
-7.361

$$$$
