/Users/jonathanwahrer/Desktop/Msc/3_Semester/Drug_Design_Praktikum/waehrer_HTS_screening/HTS_experiment/out/docking_results/vina_output/6y4q/0386_docked.pdbqt
 OpenBabel03232217343D

 36 39  0  0  1  0  0  0  0  0999 V2000
    1.3020  -15.6810  -38.8910 C   0  0  2  0  0  3  0  0  0  0  0  0
    1.5790  -15.1890  -37.4830 C   0  0  0  0  0  2  0  0  0  0  0  0
    1.1500  -16.2590  -36.5330 C   0  0  0  0  0  0  0  0  0  0  0  0
    0.4440  -15.9970  -35.5750 O   0  0  0  0  0  0  0  0  0  0  0  0
    1.6050  -17.5570  -36.8060 N   0  0  0  0  0  0  0  0  0  0  0  0
    2.0210  -17.9190  -38.1080 C   0  0  0  0  0  0  0  0  0  0  0  0
    2.5520  -19.1320  -38.3630 N   0  0  0  0  0  0  0  0  0  0  0  0
    3.0520  -19.5240  -39.5350 C   0  0  0  0  0  0  0  0  0  0  0  0
    3.0020  -18.5930  -40.5220 N   0  0  0  0  0  0  0  0  0  0  0  0
    2.4790  -17.3530  -40.3390 C   0  0  0  0  0  0  0  0  0  0  0  0
    1.9640  -16.9560  -39.1430 C   0  0  0  0  0  0  0  0  0  0  0  0
    1.6630  -18.3100  -36.0700 H   0  0  0  0  0  0  0  0  0  0  0  0
    1.3400  -14.6140  -39.9270 C   0  0  0  0  0  0  0  0  0  0  0  0
    2.3040  -13.6730  -39.9590 N   0  0  0  0  0  0  0  0  0  0  0  0
    1.8240  -13.2080  -41.1280 H   0  0  0  0  0  0  0  0  0  0  0  0
    0.3320  -14.7610  -40.7440 O   0  0  0  0  0  0  0  0  0  0  0  0
    3.2850  -12.7130  -39.9910 C   0  0  0  0  0  0  0  0  0  0  0  0
    3.9860  -12.6350  -41.2370 C   0  0  0  0  0  3  0  0  0  0  0  0
    5.0150  -11.7580  -41.3240 C   0  0  0  0  0  3  0  0  0  0  0  0
    5.4130  -10.9440  -40.2780 C   0  0  0  0  0  0  0  0  0  0  0  0
    6.8650   -9.7540  -40.5110 Br  0  0  0  0  0  0  0  0  0  0  0  0
    4.7540  -11.0080  -39.0830 C   0  0  0  0  0  3  0  0  0  0  0  0
    3.7040  -11.8920  -38.9720 C   0  0  0  0  0  3  0  0  0  0  0  0
    2.4700  -16.4570  -41.4040 O   0  0  0  0  0  0  0  0  0  0  0  0
    1.6420  -16.2950  -41.9730 H   0  0  0  0  0  0  0  0  0  0  0  0
    3.5580  -20.8210  -39.7900 N   0  0  0  0  0  0  0  0  0  0  0  0
    3.3130  -21.6230  -40.9610 C   0  0  0  0  0  2  0  0  0  0  0  0
    4.6040  -22.3550  -41.3170 C   0  0  0  0  0  2  0  0  0  0  0  0
    5.8250  -21.5880  -40.9010 C   0  0  2  0  0  3  0  0  0  0  0  0
    5.8480  -21.3500  -39.4330 C   0  0  0  0  0  2  0  0  0  0  0  0
    4.4410  -21.4440  -38.7980 C   0  0  0  0  0  2  0  0  0  0  0  0
    5.9960  -20.3470  -41.6930 C   0  0  0  0  0  0  0  0  0  0  0  0
    5.9890  -20.4460  -42.9370 O   0  0  0  0  0  0  0  0  0  0  0  0
    6.1720  -19.0670  -41.1210 N   0  0  0  0  0  0  0  0  0  0  0  0
    5.6960  -18.7740  -40.2480 H   0  0  0  0  0  0  0  0  0  0  0  0
    6.8060  -18.3910  -41.5960 H   0  0  0  0  0  0  0  0  0  0  0  0
  1 13  1  6  0  0  0
  1  2  1  0  0  0  0
  2  3  1  0  0  0  0
  3  4  2  0  0  0  0
  5  3  1  0  0  0  0
  5 12  1  0  0  0  0
  6  5  1  0  0  0  0
  7  6  1  0  0  0  0
  8  7  2  0  0  0  0
  9 10  2  0  0  0  0
  9  8  1  0  0  0  0
 10 11  1  0  0  0  0
 11  1  1  0  0  0  0
 11  6  2  0  0  0  0
 14 13  1  0  0  0  0
 15 14  1  0  0  0  0
 16 13  2  0  0  0  0
 17 14  1  0  0  0  0
 17 23  1  0  0  0  0
 18 17  2  0  0  0  0
 19 18  1  0  0  0  0
 19 20  2  0  0  0  0
 20 22  1  0  0  0  0
 21 20  1  0  0  0  0
 22 23  2  0  0  0  0
 24 10  1  0  0  0  0
 25 24  1  0  0  0  0
 26  8  1  0  0  0  0
 26 31  1  0  0  0  0
 27 26  1  0  0  0  0
 28 27  1  0  0  0  0
 28 29  1  0  0  0  0
 29 32  1  6  0  0  0
 29 30  1  0  0  0  0
 30 31  1  0  0  0  0
 32 34  1  0  0  0  0
 33 32  2  0  0  0  0
 34 35  1  0  0  0  0
 36 34  1  0  0  0  0
M  END
>  <Pose>
1

>  <Score>
-6.805

$$$$
