/Users/jonathanwahrer/Desktop/Msc/3_Semester/Drug_Design_Praktikum/waehrer_HTS_screening/HTS_experiment/out/docking_results/vina_output/6y4q/0395_docked.pdbqt
 OpenBabel03232217353D

 28 31  0  0  1  0  0  0  0  0999 V2000
    3.0520  -19.6370  -38.1070 N   0  0  0  0  0  0  0  0  0  0  0  0
    3.4450  -20.6410  -37.3420 N   0  0  0  0  0  0  0  0  0  0  0  0
    4.3400  -21.3960  -37.9580 N   0  0  0  0  0  0  0  0  0  0  0  0
    4.5640  -20.8810  -39.1960 C   0  0  0  0  0  0  0  0  0  0  0  0
    3.7360  -19.7750  -39.2570 C   0  0  0  0  0  0  0  0  0  0  0  0
    3.7540  -19.0640  -40.3900 N   0  0  0  0  0  0  0  0  0  0  0  0
    4.5470  -19.4210  -41.4150 C   0  0  0  0  0  3  0  0  0  0  0  0
    5.3600  -20.5010  -41.3640 N   0  0  0  0  0  0  0  0  0  0  0  0
    5.3720  -21.2410  -40.2490 C   0  0  0  0  0  0  0  0  0  0  0  0
    6.1220  -22.2400  -40.1980 O   0  0  0  0  0  0  0  0  0  0  0  0
    6.1780  -20.8070  -42.5230 C   0  0  0  0  0  2  0  0  0  0  0  0
    5.4640  -21.7850  -43.4190 C   0  0  0  0  0  0  0  0  0  0  0  0
    4.3810  -21.4690  -43.9810 O   0  0  0  0  0  0  0  0  0  0  0  0
    5.9930  -23.0780  -43.6490 N   0  0  0  0  0  0  0  0  0  0  0  0
    5.3170  -24.0240  -44.5040 C   0  0  0  0  0  2  0  0  0  0  0  0
    7.2310  -23.4790  -43.0220 C   0  0  0  0  0  2  0  0  0  0  0  0
    5.3330  -25.3600  -43.7830 C   0  0  2  0  0  3  0  0  0  0  0  0
    6.5900  -25.7750  -43.4240 O   0  0  0  0  0  0  0  0  0  0  0  0
    4.7890  -26.3880  -44.7810 C   0  0  0  0  0  1  0  0  0  0  0  0
    7.5790  -24.8380  -43.5930 C   0  0  2  0  0  3  0  0  0  0  0  0
    8.9150  -25.2770  -43.0710 C   0  0  0  0  0  1  0  0  0  0  0  0
    2.1030  -18.6130  -37.8020 C   0  0  0  0  0  0  0  0  0  0  0  0
    2.4330  -17.5980  -36.9290 C   0  0  0  0  0  3  0  0  0  0  0  0
    1.5170  -16.6010  -36.6290 C   0  0  0  0  0  3  0  0  0  0  0  0
    0.2530  -16.5780  -37.1800 C   0  0  0  0  0  0  0  0  0  0  0  0
   -0.9930  -15.1900  -36.7490 Br  0  0  0  0  0  0  0  0  0  0  0  0
   -0.0770  -17.5930  -38.0530 C   0  0  0  0  0  3  0  0  0  0  0  0
    0.8360  -18.5840  -38.3500 C   0  0  0  0  0  3  0  0  0  0  0  0
  1 22  1  0  0  0  0
  1  2  1  0  0  0  0
  3  2  2  0  0  0  0
  4  3  1  0  0  0  0
  5  4  2  0  0  0  0
  5  1  1  0  0  0  0
  6  5  1  0  0  0  0
  7  8  1  0  0  0  0
  7  6  2  0  0  0  0
  8  9  1  0  0  0  0
  9 10  2  0  0  0  0
  9  4  1  0  0  0  0
 11  8  1  0  0  0  0
 12 11  1  0  0  0  0
 13 12  2  0  0  0  0
 14 12  1  0  0  0  0
 14 16  1  0  0  0  0
 15 17  1  0  0  0  0
 15 14  1  0  0  0  0
 17 19  1  6  0  0  0
 17 18  1  0  0  0  0
 20 18  1  0  0  0  0
 20 21  1  1  0  0  0
 20 16  1  0  0  0  0
 22 23  1  0  0  0  0
 23 24  2  0  0  0  0
 25 26  1  0  0  0  0
 25 24  1  0  0  0  0
 27 25  2  0  0  0  0
 28 27  1  0  0  0  0
 28 22  2  0  0  0  0
M  END
>  <Pose>
1

>  <Score>
-6.550

$$$$
