/Users/jonathanwahrer/Desktop/Msc/3_Semester/Drug_Design_Praktikum/waehrer_HTS_screening/HTS_experiment/out/docking_results/vina_output/6y4q/0399_docked.pdbqt
 OpenBabel03232217353D

 28 31  0  0  1  0  0  0  0  0999 V2000
    0.5410  -15.2120  -36.9730 N   0  0  0  0  0  0  0  0  0  0  0  0
   -0.8670  -15.3020  -37.1600 C   0  0  0  0  0  0  0  0  0  0  0  0
   -1.5760  -14.4230  -37.6950 O   0  0  0  0  0  0  0  0  0  0  0  0
   -1.3940  -16.5710  -36.6390 C   0  0  2  0  0  3  0  0  0  0  0  0
   -0.3350  -16.9590  -35.6130 C   0  0  0  0  0  2  0  0  0  0  0  0
    0.9100  -16.3680  -36.1970 C   0  0  0  0  0  0  0  0  0  0  0  0
    2.0260  -16.8780  -35.9810 O   0  0  0  0  0  0  0  0  0  0  0  0
   -1.5510  -17.6220  -37.6190 N   0  0  1  0  0  4  0  0  0  0  0  0
   -1.0340  -17.2490  -38.9140 C   0  0  0  0  0  2  0  0  0  0  0  0
    0.3610  -17.7580  -39.1990 C   0  0  0  0  0  2  0  0  0  0  0  0
    0.5340  -19.1090  -38.7300 N   0  0  0  0  0  0  0  0  0  0  0  0
   -0.6880  -19.7610  -38.3240 C   0  0  0  0  0  2  0  0  0  0  0  0
   -1.1910  -18.9090  -37.1430 C   0  0  0  0  0  2  0  0  0  0  0  0
   -2.6150  -17.6590  -37.7760 H   0  0  0  0  0  0  0  0  0  0  0  0
    1.7720  -19.7540  -38.6450 C   0  0  0  0  0  0  0  0  0  0  0  0
    2.5910  -19.7710  -37.5340 C   0  0  0  0  0  3  0  0  0  0  0  0
    3.8220  -20.4070  -37.5120 C   0  0  0  0  0  3  0  0  0  0  0  0
    4.2800  -21.0570  -38.6260 C   0  0  0  0  0  0  0  0  0  0  0  0
    3.5010  -21.0700  -39.7660 C   0  0  0  0  0  3  0  0  0  0  0  0
    5.5090  -21.7160  -38.6710 O   0  0  0  0  0  1  0  0  0  0  0  0
    2.2760  -20.4290  -39.7640 C   0  0  0  0  0  3  0  0  0  0  0  0
    1.4500  -14.2110  -37.4380 C   0  0  0  0  0  0  0  0  0  0  0  0
    1.9060  -13.2210  -36.6170 C   0  0  0  0  0  3  0  0  0  0  0  0
    2.7940  -12.2430  -37.0770 C   0  0  0  0  0  3  0  0  0  0  0  0
    3.2420  -12.2390  -38.3700 C   0  0  0  0  0  0  0  0  0  0  0  0
    4.4580  -10.9050  -39.0080 Br  0  0  0  0  0  0  0  0  0  0  0  0
    2.7860  -13.2360  -39.2010 C   0  0  0  0  0  3  0  0  0  0  0  0
    1.8950  -14.2120  -38.7290 C   0  0  0  0  0  3  0  0  0  0  0  0
  1  6  1  0  0  0  0
  2  1  1  0  0  0  0
  2  4  1  0  0  0  0
  3  2  2  0  0  0  0
  4  5  1  1  0  0  0
  6  7  2  0  0  0  0
  6  5  1  0  0  0  0
  8 14  1  6  0  0  0
  8 13  1  0  0  0  0
  8  4  1  0  0  0  0
  9  8  1  0  0  0  0
 10  9  1  0  0  0  0
 10 11  1  0  0  0  0
 11 15  1  0  0  0  0
 11 12  1  0  0  0  0
 12 13  1  0  0  0  0
 15 16  1  0  0  0  0
 16 17  2  0  0  0  0
 18 17  1  0  0  0  0
 19 21  1  0  0  0  0
 19 18  2  0  0  0  0
 20 18  1  0  0  0  0
 21 15  2  0  0  0  0
 22  1  1  0  0  0  0
 22 23  1  0  0  0  0
 24 23  2  0  0  0  0
 25 24  1  0  0  0  0
 26 25  1  0  0  0  0
 27 28  1  0  0  0  0
 27 25  2  0  0  0  0
 28 22  2  0  0  0  0
M  END
>  <Pose>
1

>  <Score>
-7.451

$$$$
