/Users/jonathanwahrer/Desktop/Msc/3_Semester/Drug_Design_Praktikum/waehrer_HTS_screening/HTS_experiment/out/docking_results/vina_output/6y4q/0408_docked.pdbqt
 OpenBabel03232217353D

 31 34  0  0  0  0  0  0  0  0999 V2000
    3.0230  -18.5860  -38.4380 N   0  0  0  0  0  0  0  0  0  0  0  0
    2.2030  -17.5650  -38.7420 C   0  0  0  0  0  0  0  0  0  0  0  0
    1.8780  -17.2520  -39.9280 O   0  0  0  0  0  0  0  0  0  0  0  0
    1.7690  -16.9120  -37.5880 C   0  0  0  0  0  0  0  0  0  0  0  0
    2.3430  -17.5590  -36.5780 C   0  0  0  0  0  0  0  0  0  0  0  0
    1.9120  -16.9130  -35.4790 N   0  0  0  0  0  0  0  0  0  0  0  0
    1.1100  -15.9180  -35.8160 N   0  0  0  0  0  0  0  0  0  0  0  0
    1.0140  -15.9080  -37.1230 N   0  0  0  0  0  0  0  0  0  0  0  0
    3.1130  -18.5850  -37.0880 C   0  0  0  0  0  0  0  0  0  0  0  0
    3.8000  -19.4070  -36.4430 O   0  0  0  0  0  0  0  0  0  0  0  0
    2.2120  -17.2140  -34.5170 H   0  0  0  0  0  0  0  0  0  0  0  0
    0.6610  -15.2840  -35.1150 H   0  0  0  0  0  0  0  0  0  0  0  0
    0.2470  -14.9990  -37.9370 C   0  0  0  0  0  2  0  0  0  0  0  0
    0.9760  -13.7080  -38.1710 C   0  0  0  0  0  0  0  0  0  0  0  0
    0.2290  -12.7130  -38.3310 O   0  0  0  0  0  0  0  0  0  0  0  0
    2.3700  -13.6270  -38.2080 N   0  0  0  0  0  0  0  0  0  0  0  0
    2.8730  -14.5650  -38.0540 H   0  0  0  0  0  0  0  0  0  0  0  0
    3.1480  -12.4820  -38.4180 C   0  0  0  0  0  0  0  0  0  0  0  0
    3.6530  -12.2780  -39.7120 C   0  0  0  0  0  0  0  0  0  0  0  0
    4.4200  -11.1680  -39.9630 C   0  0  0  0  0  3  0  0  0  0  0  0
    3.3750  -13.2300  -40.8050 C   0  0  0  0  0  1  0  0  0  0  0  0
    4.7230  -10.2330  -38.9970 C   0  0  0  0  0  3  0  0  0  0  0  0
    4.2370  -10.4250  -37.7370 C   0  0  0  0  0  3  0  0  0  0  0  0
    3.4650  -11.5370  -37.4730 C   0  0  0  0  0  3  0  0  0  0  0  0
    3.6630  -19.4810  -39.3430 C   0  0  0  0  0  0  0  0  0  0  0  0
    4.9120  -19.1840  -39.8610 C   0  0  0  0  0  3  0  0  0  0  0  0
    5.5520  -20.0370  -40.7400 C   0  0  0  0  0  3  0  0  0  0  0  0
    4.9690  -21.2210  -41.1360 C   0  0  0  0  0  0  0  0  0  0  0  0
    5.8610  -22.4050  -42.3580 Br  0  0  0  0  0  0  0  0  0  0  0  0
    3.7270  -21.5280  -40.6270 C   0  0  0  0  0  3  0  0  0  0  0  0
    3.0980  -20.6720  -39.7520 C   0  0  0  0  0  3  0  0  0  0  0  0
  1  9  1  0  0  0  0
  2  1  1  0  0  0  0
  2  4  1  0  0  0  0
  3  2  2  0  0  0  0
  4  8  1  0  0  0  0
  4  5  2  0  0  0  0
  5  6  1  0  0  0  0
  6 11  1  0  0  0  0
  7  6  1  0  0  0  0
  7 12  1  0  0  0  0
  8  7  1  0  0  0  0
  9  5  1  0  0  0  0
  9 10  2  0  0  0  0
 13  8  1  0  0  0  0
 14 13  1  0  0  0  0
 15 14  2  0  0  0  0
 16 14  1  0  0  0  0
 16 17  1  0  0  0  0
 18 16  1  0  0  0  0
 18 24  1  0  0  0  0
 19 18  2  0  0  0  0
 20 19  1  0  0  0  0
 20 22  2  0  0  0  0
 21 19  1  0  0  0  0
 22 23  1  0  0  0  0
 23 24  2  0  0  0  0
 25  1  1  0  0  0  0
 26 25  2  0  0  0  0
 27 26  1  0  0  0  0
 28 27  2  0  0  0  0
 28 30  1  0  0  0  0
 29 28  1  0  0  0  0
 30 31  2  0  0  0  0
 31 25  1  0  0  0  0
M  END
>  <Pose>
1

>  <Score>
-7.484

$$$$
