/Users/jonathanwahrer/Desktop/Msc/3_Semester/Drug_Design_Praktikum/waehrer_HTS_screening/HTS_experiment/out/docking_results/vina_output/6y4q/0412_docked.pdbqt
 OpenBabel03232217363D

 34 37  0  0  0  0  0  0  0  0999 V2000
    2.8940  -18.4480  -38.4990 N   0  0  0  0  0  0  0  0  0  0  0  0
    2.0920  -17.4190  -38.7850 C   0  0  0  0  0  0  0  0  0  0  0  0
    1.7560  -17.0820  -39.9690 O   0  0  0  0  0  0  0  0  0  0  0  0
    1.6560  -16.7390  -37.6720 C   0  0  0  0  0  0  0  0  0  0  0  0
    2.2260  -17.3960  -36.6430 C   0  0  0  0  0  0  0  0  0  0  0  0
    1.8110  -16.7450  -35.5300 N   0  0  0  0  0  0  0  0  0  0  0  0
    1.0220  -15.7380  -35.8610 N   0  0  0  0  0  0  0  0  0  0  0  0
    0.9230  -15.7300  -37.1750 N   0  0  0  0  0  0  0  0  0  0  0  0
    2.9810  -18.4360  -37.1330 C   0  0  0  0  0  0  0  0  0  0  0  0
    3.6620  -19.2750  -36.4950 O   0  0  0  0  0  0  0  0  0  0  0  0
    2.0920  -17.0200  -34.5600 H   0  0  0  0  0  0  0  0  0  0  0  0
    0.5840  -15.0920  -35.1500 H   0  0  0  0  0  0  0  0  0  0  0  0
    0.1490  -14.7880  -37.9300 C   0  0  0  0  0  2  0  0  0  0  0  0
    0.9400  -13.7070  -38.5130 C   0  0  0  0  0  0  0  0  0  0  0  0
    0.4140  -12.7250  -39.1120 O   0  0  0  0  0  0  0  0  0  0  0  0
    2.3470  -13.7770  -38.4030 N   0  0  0  0  0  0  0  0  0  0  0  0
    2.8130  -14.5990  -37.9090 H   0  0  0  0  0  0  0  0  0  0  0  0
    3.1310  -12.7360  -38.9640 C   0  0  0  0  0  0  0  0  0  0  0  0
    3.4760  -12.8720  -40.2860 C   0  0  0  0  0  3  0  0  0  0  0  0
    4.2740  -11.9030  -40.9050 C   0  0  0  0  0  0  0  0  0  0  0  0
    4.7110  -10.8200  -40.1890 C   0  0  0  0  0  3  0  0  0  0  0  0
    4.3710  -10.6700  -38.8460 C   0  0  0  0  0  0  0  0  0  0  0  0
    3.5780  -11.6460  -38.2630 C   0  0  0  0  0  3  0  0  0  0  0  0
    4.5530  -12.1380  -42.2300 O   0  0  0  0  0  0  0  0  0  0  0  0
    4.9060  -13.3660  -42.7510 C   0  0  0  0  0  1  0  0  0  0  0  0
    4.8520   -9.5570  -38.1880 O   0  0  0  0  0  0  0  0  0  0  0  0
    4.2850   -8.9230  -37.0840 C   0  0  0  0  0  1  0  0  0  0  0  0
    3.5360  -19.3830  -39.3710 C   0  0  0  0  0  0  0  0  0  0  0  0
    4.8220  -19.1720  -39.8060 C   0  0  0  0  0  3  0  0  0  0  0  0
    5.4460  -20.0940  -40.6600 C   0  0  0  0  0  3  0  0  0  0  0  0
    4.7910  -21.2260  -41.0810 C   0  0  0  0  0  0  0  0  0  0  0  0
    5.6470  -22.4970  -42.2510 Br  0  0  0  0  0  0  0  0  0  0  0  0
    3.5030  -21.4350  -40.6440 C   0  0  0  0  0  3  0  0  0  0  0  0
    2.8990  -20.5250  -39.8090 C   0  0  0  0  0  3  0  0  0  0  0  0
  1  9  1  0  0  0  0
  2  1  1  0  0  0  0
  2  4  1  0  0  0  0
  3  2  2  0  0  0  0
  4  8  1  0  0  0  0
  4  5  2  0  0  0  0
  5  6  1  0  0  0  0
  6 11  1  0  0  0  0
  7  6  1  0  0  0  0
  7 12  1  0  0  0  0
  8  7  1  0  0  0  0
  9  5  1  0  0  0  0
  9 10  2  0  0  0  0
 13  8  1  0  0  0  0
 14 16  1  0  0  0  0
 14 13  1  0  0  0  0
 15 14  2  0  0  0  0
 16 17  1  0  0  0  0
 18 16  1  0  0  0  0
 18 23  1  0  0  0  0
 19 18  2  0  0  0  0
 20 19  1  0  0  0  0
 20 21  2  0  0  0  0
 21 22  1  0  0  0  0
 22 23  2  0  0  0  0
 22 26  1  0  0  0  0
 24 20  1  0  0  0  0
 25 24  1  0  0  0  0
 26 27  1  0  0  0  0
 28  1  1  0  0  0  0
 29 28  1  0  0  0  0
 30 29  2  0  0  0  0
 31 30  1  0  0  0  0
 31 33  2  0  0  0  0
 32 31  1  0  0  0  0
 33 34  1  0  0  0  0
 34 28  2  0  0  0  0
M  END
>  <Pose>
1

>  <Score>
-6.599

$$$$
