/Users/jonathanwahrer/Desktop/Msc/3_Semester/Drug_Design_Praktikum/waehrer_HTS_screening/HTS_experiment/out/docking_results/vina_output/6y4q/0414_docked.pdbqt
 OpenBabel03232217363D

 35 38  0  0  0  0  0  0  0  0999 V2000
    3.1770  -18.6780  -38.2060 N   0  0  0  0  0  0  0  0  0  0  0  0
    2.2230  -17.7800  -38.5580 C   0  0  0  0  0  0  0  0  0  0  0  0
    1.8040  -17.5550  -39.7360 O   0  0  0  0  0  0  0  0  0  0  0  0
    1.7600  -17.1290  -37.4270 C   0  0  0  0  0  0  0  0  0  0  0  0
    2.4440  -17.6470  -36.4110 C   0  0  0  0  0  0  0  0  0  0  0  0
    2.0090  -17.0250  -35.2890 N   0  0  0  0  0  0  0  0  0  0  0  0
    1.0750  -16.1520  -35.6550 N   0  0  0  0  0  0  0  0  0  0  0  0
    0.8960  -16.1870  -36.9610 N   0  0  0  0  0  0  0  0  0  0  0  0
    3.3190  -18.6000  -36.8750 C   0  0  0  0  0  0  0  0  0  0  0  0
    4.1170  -19.2870  -36.1990 O   0  0  0  0  0  0  0  0  0  0  0  0
    2.3510  -17.2080  -34.3240 H   0  0  0  0  0  0  0  0  0  0  0  0
    0.5660  -15.5330  -35.0010 H   0  0  0  0  0  0  0  0  0  0  0  0
   -0.0180  -15.4100  -37.7900 C   0  0  0  0  0  2  0  0  0  0  0  0
    0.6810  -14.1540  -38.2500 C   0  0  0  0  0  0  0  0  0  0  0  0
   -0.1220  -13.2210  -38.5030 O   0  0  0  0  0  0  0  0  0  0  0  0
    2.0700  -14.1280  -38.3500 N   0  0  0  0  0  0  0  0  0  0  0  0
    2.5690  -15.0360  -38.0850 H   0  0  0  0  0  0  0  0  0  0  0  0
    2.8810  -13.0410  -38.7620 C   0  0  0  0  0  0  0  0  0  0  0  0
    3.3570  -12.8460  -40.0370 C   0  0  0  0  0  3  0  0  0  0  0  0
    4.1560  -11.7420  -40.3650 C   0  0  0  0  0  3  0  0  0  0  0  0
    4.4990  -10.8020  -39.4230 C   0  0  0  0  0  0  0  0  0  0  0  0
    4.0280  -10.9870  -38.1460 C   0  0  0  0  0  3  0  0  0  0  0  0
    3.2410  -12.0760  -37.8250 C   0  0  0  0  0  3  0  0  0  0  0  0
    5.3330   -9.6690  -39.8110 C   0  0  0  0  0  0  0  0  0  0  0  0
    5.4610   -8.7210  -38.9950 O   0  0  0  0  0  0  0  0  0  0  0  0
    5.9880   -9.5650  -41.0060 O   0  0  0  0  0  0  0  0  0  0  0  0
    7.3630   -9.3840  -41.1840 C   0  0  0  0  0  2  0  0  0  0  0  0
    8.0520  -10.5630  -40.4820 C   0  0  0  0  0  1  0  0  0  0  0  0
    3.8580  -19.5140  -39.1390 C   0  0  0  0  0  0  0  0  0  0  0  0
    3.2700  -20.6990  -39.5510 C   0  0  0  0  0  3  0  0  0  0  0  0
    3.8910  -21.5210  -40.4400 C   0  0  0  0  0  3  0  0  0  0  0  0
    5.1270  -21.2150  -40.9690 C   0  0  0  0  0  0  0  0  0  0  0  0
    6.0310  -22.3340  -42.2140 Br  0  0  0  0  0  0  0  0  0  0  0  0
    5.7000  -20.0350  -40.5510 C   0  0  0  0  0  3  0  0  0  0  0  0
    5.0880  -19.1980  -39.6580 C   0  0  0  0  0  3  0  0  0  0  0  0
  1  9  1  0  0  0  0
  2  1  1  0  0  0  0
  2  4  1  0  0  0  0
  3  2  2  0  0  0  0
  4  8  1  0  0  0  0
  4  5  2  0  0  0  0
  5  6  1  0  0  0  0
  6 11  1  0  0  0  0
  7  6  1  0  0  0  0
  7 12  1  0  0  0  0
  8  7  1  0  0  0  0
  9  5  1  0  0  0  0
  9 10  2  0  0  0  0
 13  8  1  0  0  0  0
 14 13  1  0  0  0  0
 15 14  2  0  0  0  0
 16 14  1  0  0  0  0
 16 17  1  0  0  0  0
 18 16  1  0  0  0  0
 18 23  1  0  0  0  0
 19 18  2  0  0  0  0
 20 19  1  0  0  0  0
 20 21  2  0  0  0  0
 21 22  1  0  0  0  0
 22 23  2  0  0  0  0
 24 21  1  0  0  0  0
 24 25  2  0  0  0  0
 26 24  1  0  0  0  0
 27 26  1  0  0  0  0
 27 28  1  0  0  0  0
 29  1  1  0  0  0  0
 30 29  1  0  0  0  0
 31 30  2  0  0  0  0
 32 34  2  0  0  0  0
 32 31  1  0  0  0  0
 33 32  1  0  0  0  0
 34 35  1  0  0  0  0
 35 29  2  0  0  0  0
M  END
>  <Pose>
1

>  <Score>
-7.102

$$$$
