/Users/jonathanwahrer/Desktop/Msc/3_Semester/Drug_Design_Praktikum/waehrer_HTS_screening/HTS_experiment/out/docking_results/vina_output/6y4q/0428_docked.pdbqt
 OpenBabel03232217373D

 28 31  0  0  1  0  0  0  0  0999 V2000
    0.6400  -17.0880  -37.6510 N   0  0  0  0  0  0  0  0  0  0  0  0
   -0.5560  -17.6560  -37.0870 C   0  0  0  0  0  0  0  0  0  0  0  0
   -0.5650  -18.8700  -36.7420 O   0  0  0  0  0  0  0  0  0  0  0  0
   -1.6700  -16.8030  -36.9510 N   0  0  0  0  0  2  0  0  0  0  0  0
   -1.6840  -15.5810  -37.2900 C   0  0  0  0  0  0  0  0  0  0  0  0
   -0.5530  -14.8270  -37.8840 C   0  0  1  0  0  0  0  0  0  0  0  0
   -1.0170  -14.2220  -39.1630 C   0  0  0  0  0  2  0  0  0  0  0  0
   -0.3840  -13.0240  -39.5790 N   0  0  0  0  0  4  0  0  0  0  0  0
    0.7800  -12.6630  -38.8710 C   0  0  0  0  0  0  0  0  0  0  0  0
    0.9060  -12.9690  -37.5100 C   0  0  0  0  0  0  0  0  0  0  0  0
    2.0430  -12.6110  -36.8410 C   0  0  0  0  0  3  0  0  0  0  0  0
    3.1000  -11.9540  -37.4280 C   0  0  0  0  0  0  0  0  0  0  0  0
    2.9710  -11.6560  -38.7690 C   0  0  0  0  0  3  0  0  0  0  0  0
    1.8290  -12.0060  -39.4760 C   0  0  0  0  0  3  0  0  0  0  0  0
    4.3180  -11.5840  -36.6700 C   0  0  0  0  0  1  0  0  0  0  0  0
   -0.2560  -13.6780  -36.9160 C   0  0  0  0  0  2  0  0  0  0  0  0
   -1.3200  -11.8890  -39.6380 C   0  0  0  0  0  1  0  0  0  0  0  0
    0.6200  -15.7160  -38.0310 C   0  0  0  0  0  0  0  0  0  0  0  0
    1.7110  -15.2760  -38.5250 O   0  0  0  0  0  0  0  0  0  0  0  0
   -2.8710  -14.8430  -37.0960 O   0  0  0  0  0  0  0  0  0  0  0  0
   -0.0840  -13.1570  -40.5910 H   0  0  0  0  0  0  0  0  0  0  0  0
    1.8040  -17.8840  -37.8180 C   0  0  0  0  0  0  0  0  0  0  0  0
    1.9840  -18.5180  -39.0260 C   0  0  0  0  0  3  0  0  0  0  0  0
    3.0920  -19.3180  -39.2760 C   0  0  0  0  0  3  0  0  0  0  0  0
    4.0360  -19.4850  -38.2990 C   0  0  0  0  0  0  0  0  0  0  0  0
    5.5540  -20.5840  -38.6520 Br  0  0  0  0  0  0  0  0  0  0  0  0
    3.8800  -18.8570  -37.0740 C   0  0  0  0  0  3  0  0  0  0  0  0
    2.7660  -18.0640  -36.8490 C   0  0  0  0  0  3  0  0  0  0  0  0
  1  2  1  0  0  0  0
  2  4  1  0  0  0  0
  2  3  2  0  0  0  0
  5 20  2  0  0  0  0
  5  4  1  0  0  0  0
  6  7  1  6  0  0  0
  6  5  1  0  0  0  0
  6 16  1  0  0  0  0
  8  7  1  0  0  0  0
  8  9  1  0  0  0  0
  9 10  1  0  0  0  0
 10 16  1  0  0  0  0
 10 11  2  0  0  0  0
 12 11  1  0  0  0  0
 12 15  1  0  0  0  0
 13 12  2  0  0  0  0
 14  9  2  0  0  0  0
 14 13  1  0  0  0  0
 17  8  1  0  0  0  0
 18  6  1  0  0  0  0
 18  1  1  0  0  0  0
 19 18  2  0  0  0  0
 21  8  1  0  0  0  0
 22  1  1  0  0  0  0
 22 28  1  0  0  0  0
 23 22  2  0  0  0  0
 24 23  1  0  0  0  0
 24 25  2  0  0  0  0
 25 27  1  0  0  0  0
 26 25  1  0  0  0  0
 27 28  2  0  0  0  0
M  END
>  <Pose>
1

>  <Score>
-6.604

$$$$
