/Users/jonathanwahrer/Desktop/Msc/3_Semester/Drug_Design_Praktikum/waehrer_HTS_screening/HTS_experiment/out/docking_results/vina_output/6y4q/0429_docked.pdbqt
 OpenBabel03232217383D

 36 39  0  0  0  0  0  0  0  0999 V2000
    0.8900  -19.0010  -37.8050 N   0  0  0  0  0  0  0  0  0  0  0  0
   -0.3420  -19.7230  -37.7490 C   0  0  0  0  0  0  0  0  0  0  0  0
   -0.3800  -20.8610  -38.3160 O   0  0  0  0  0  0  0  0  0  0  0  0
   -1.4560  -19.1600  -37.0810 N   0  0  0  0  0  0  0  0  0  0  0  0
   -1.4370  -17.8880  -36.4410 C   0  0  0  0  0  0  0  0  0  0  0  0
   -2.4470  -17.4120  -35.8510 O   0  0  0  0  0  0  0  0  0  0  0  0
   -0.1820  -17.1160  -36.4780 C   0  0  0  0  0  0  0  0  0  0  0  0
   -0.1000  -15.9260  -35.9020 C   0  0  0  0  0  3  0  0  0  0  0  0
    0.9480  -17.7230  -37.1730 C   0  0  0  0  0  0  0  0  0  0  0  0
    2.0400  -17.1010  -37.2310 O   0  0  0  0  0  0  0  0  0  0  0  0
   -2.3390  -19.7210  -37.0630 H   0  0  0  0  0  0  0  0  0  0  0  0
    1.1230  -15.2060  -35.9550 N   0  0  0  0  0  0  0  0  0  0  0  0
    1.9500  -15.6860  -35.5070 H   0  0  0  0  0  0  0  0  0  0  0  0
    1.2940  -13.9600  -36.5350 N   0  0  0  0  0  0  0  0  0  0  0  0
    0.9170  -13.1470  -35.9650 H   0  0  0  0  0  0  0  0  0  0  0  0
    1.9170  -13.7320  -37.7940 C   0  0  0  0  0  0  0  0  0  0  0  0
    2.8320  -12.7900  -38.0410 N   0  0  0  0  0  0  0  0  0  0  0  0
    3.2090  -12.8570  -39.3280 C   0  0  0  0  0  0  0  0  0  0  0  0
    3.4040  -11.7920  -37.1290 C   0  0  0  0  0  1  0  0  0  0  0  0
    2.4930  -13.8930  -39.9130 C   0  0  0  0  0  0  0  0  0  0  0  0
    4.0820  -12.1750  -40.1330 C   0  0  0  0  0  0  0  0  0  0  0  0
    1.7290  -14.3860  -38.9400 N   0  0  0  0  0  0  0  0  0  0  0  0
    2.6480  -14.2140  -41.2100 N   0  0  0  0  0  0  0  0  0  0  0  0
    3.5120  -13.5170  -41.9480 C   0  0  0  0  0  0  0  0  0  0  0  0
    1.8730  -15.2960  -41.7430 C   0  0  0  0  0  1  0  0  0  0  0  0
    3.6880  -13.7880  -43.1750 O   0  0  0  0  0  0  0  0  0  0  0  0
    4.2450  -12.4910  -41.4390 N   0  0  0  0  0  0  0  0  0  0  0  0
    5.1680  -11.7680  -42.2780 C   0  0  0  0  0  1  0  0  0  0  0  0
    4.7520  -11.2330  -39.6630 O   0  0  0  0  0  0  0  0  0  0  0  0
    1.9900  -19.5570  -38.4670 C   0  0  0  0  0  0  0  0  0  0  0  0
    2.9370  -20.2660  -37.7550 C   0  0  0  0  0  3  0  0  0  0  0  0
    4.0380  -20.8350  -38.3660 C   0  0  0  0  0  3  0  0  0  0  0  0
    4.2250  -20.7050  -39.7320 C   0  0  0  0  0  0  0  0  0  0  0  0
    5.7470  -21.4870  -40.5910 Br  0  0  0  0  0  0  0  0  0  0  0  0
    3.2680  -19.9930  -40.4220 C   0  0  0  0  0  3  0  0  0  0  0  0
    2.1620  -19.4190  -39.8280 C   0  0  0  0  0  3  0  0  0  0  0  0
  1  2  1  0  0  0  0
  1  9  1  0  0  0  0
  2  4  1  0  0  0  0
  3  2  2  0  0  0  0
  4 11  1  0  0  0  0
  4  5  1  0  0  0  0
  5  6  2  0  0  0  0
  7  5  1  0  0  0  0
  7  8  2  0  0  0  0
  9  7  1  0  0  0  0
 10  9  2  0  0  0  0
 12  8  1  0  0  0  0
 12 13  1  0  0  0  0
 14 15  1  0  0  0  0
 14 12  1  0  0  0  0
 16 14  1  0  0  0  0
 17 16  1  0  0  0  0
 17 19  1  0  0  0  0
 18 17  1  0  0  0  0
 20 18  2  0  0  0  0
 20 22  1  0  0  0  0
 21 29  2  0  0  0  0
 21 18  1  0  0  0  0
 22 16  2  0  0  0  0
 23 20  1  0  0  0  0
 24 27  1  0  0  0  0
 24 23  1  0  0  0  0
 25 23  1  0  0  0  0
 26 24  2  0  0  0  0
 27 21  1  0  0  0  0
 28 27  1  0  0  0  0
 30  1  1  0  0  0  0
 30 31  1  0  0  0  0
 32 31  2  0  0  0  0
 33 32  1  0  0  0  0
 34 33  1  0  0  0  0
 35 36  1  0  0  0  0
 35 33  2  0  0  0  0
 36 30  2  0  0  0  0
M  END
>  <Pose>
1

>  <Score>
-7.000

$$$$
