/Users/jonathanwahrer/Desktop/Msc/3_Semester/Drug_Design_Praktikum/waehrer_HTS_screening/HTS_experiment/out/docking_results/vina_output/6y4q/0436_docked.pdbqt
 OpenBabel03232217383D

 29 32  0  0  0  0  0  0  0  0999 V2000
    1.1220  -14.8700  -37.2120 N   0  0  0  0  0  0  0  0  0  0  0  0
    0.4680  -15.2500  -35.9760 C   0  0  0  0  0  2  0  0  0  0  0  0
    0.4940  -16.7400  -35.7290 C   0  0  0  0  0  2  0  0  0  0  0  0
    1.9180  -17.2190  -36.0510 C   0  0  0  0  0  2  0  0  0  0  0  0
    2.0330  -17.1060  -37.4820 N   0  0  0  0  0  0  0  0  0  0  0  0
    1.6270  -15.9200  -38.0280 C   0  0  0  0  0  0  0  0  0  0  0  0
    1.7970  -15.9840  -39.3580 N   0  0  0  0  0  0  0  0  0  0  0  0
    2.3110  -17.2120  -39.6240 C   0  0  0  0  0  0  0  0  0  0  0  0
    2.4630  -17.9260  -38.4460 C   0  0  0  0  0  0  0  0  0  0  0  0
    2.9710  -19.2110  -38.4610 C   0  0  0  0  0  0  0  0  0  0  0  0
    3.0960  -19.8350  -37.3540 O   0  0  0  0  0  0  0  0  0  0  0  0
    3.3190  -19.7680  -39.6350 N   0  0  0  0  0  0  0  0  0  0  0  0
    3.1610  -19.0520  -40.7620 C   0  0  0  0  0  0  0  0  0  0  0  0
    3.5010  -19.6120  -41.8390 O   0  0  0  0  0  0  0  0  0  0  0  0
    2.6740  -17.8120  -40.7710 N   0  0  0  0  0  0  0  0  0  0  0  0
    2.5160  -17.0660  -42.0110 C   0  0  0  0  0  1  0  0  0  0  0  0
    1.2260  -13.5000  -37.5440 C   0  0  0  0  0  0  0  0  0  0  0  0
    0.2380  -12.7830  -38.1780 C   0  0  0  0  0  3  0  0  0  0  0  0
    0.4330  -11.4300  -38.4630 C   0  0  0  0  0  3  0  0  0  0  0  0
    1.6050  -10.7900  -38.1190 C   0  0  0  0  0  0  0  0  0  0  0  0
    1.9020   -8.9650  -38.4890 Br  0  0  0  0  0  0  0  0  0  0  0  0
    2.6010  -11.5040  -37.4830 C   0  0  0  0  0  3  0  0  0  0  0  0
    2.3820  -12.8280  -37.2170 C   0  0  0  0  0  3  0  0  0  0  0  0
    3.8550  -21.1180  -39.6610 C   0  0  0  0  0  2  0  0  0  0  0  0
    5.3330  -21.0500  -39.4130 C   0  0  0  0  0  0  0  0  0  0  0  0
    5.8740  -21.8120  -38.5790 O   0  0  0  0  0  0  0  0  0  0  0  0
    6.1540  -20.1310  -40.1060 N   0  0  0  0  0  0  0  0  0  0  0  0
    7.1270  -20.3600  -40.4090 H   0  0  0  0  0  0  0  0  0  0  0  0
    5.8120  -19.1680  -40.3470 H   0  0  0  0  0  0  0  0  0  0  0  0
  1  2  1  0  0  0  0
  2  3  1  0  0  0  0
  4  3  1  0  0  0  0
  5  4  1  0  0  0  0
  6  5  1  0  0  0  0
  6  1  1  0  0  0  0
  7  6  2  0  0  0  0
  8  7  1  0  0  0  0
  8  9  2  0  0  0  0
  9  5  1  0  0  0  0
 10  9  1  0  0  0  0
 10 11  2  0  0  0  0
 12 10  1  0  0  0  0
 13 12  1  0  0  0  0
 14 13  2  0  0  0  0
 15 13  1  0  0  0  0
 15  8  1  0  0  0  0
 16 15  1  0  0  0  0
 17 23  1  0  0  0  0
 17  1  1  0  0  0  0
 18 17  2  0  0  0  0
 19 18  1  0  0  0  0
 19 20  2  0  0  0  0
 20 22  1  0  0  0  0
 21 20  1  0  0  0  0
 22 23  2  0  0  0  0
 24 12  1  0  0  0  0
 24 25  1  0  0  0  0
 25 26  2  0  0  0  0
 27 25  1  0  0  0  0
 28 27  1  0  0  0  0
 29 27  1  0  0  0  0
M  END
>  <Pose>
1

>  <Score>
-6.010

$$$$
