/Users/jonathanwahrer/Desktop/Msc/3_Semester/Drug_Design_Praktikum/waehrer_HTS_screening/HTS_experiment/out/docking_results/vina_output/6y4q/0439_docked.pdbqt
 OpenBabel03232217383D

 28 32  0  0  1  0  0  0  0  0999 V2000
    1.1170  -16.1120  -38.3510 N   0  0  0  0  0  0  0  0  0  0  0  0
   -0.0470  -16.4290  -38.9080 N   0  0  0  0  0  0  0  0  0  0  0  0
   -0.1950  -17.7660  -38.9600 C   0  0  0  0  0  0  0  0  0  0  0  0
   -1.2380  -18.4220  -39.4520 C   0  0  0  0  0  2  0  0  0  0  0  0
    0.9250  -18.3530  -38.4090 C   0  0  2  0  0  3  0  0  0  0  0  0
    1.7210  -17.2780  -38.0410 C   0  0  0  0  0  0  0  0  0  0  0  0
    2.8440  -17.3950  -37.4990 O   0  0  0  0  0  0  0  0  0  0  0  0
   -0.7450  -15.7410  -39.2550 H   0  0  0  0  0  0  0  0  0  0  0  0
    1.1970  -19.6520  -38.2580 C   0  0  0  0  0  2  0  0  0  0  0  0
    1.8250  -20.3300  -39.3400 N   0  0  0  0  0  0  0  0  0  0  0  0
    1.2210  -20.7540  -40.0590 H   0  0  0  0  0  0  0  0  0  0  0  0
    3.2510  -20.4370  -39.4510 C   0  0  1  0  0  0  0  0  0  0  0  0
    3.8220  -19.2400  -40.1440 C   0  0  0  0  0  2  0  0  0  0  0  0
    5.2750  -19.3410  -40.1490 N   0  0  1  0  0  0  0  0  0  0  0  0
    5.7200  -19.3860  -38.7620 C   0  0  0  0  0  2  0  0  0  0  0  0
    5.6630  -20.5360  -40.8540 C   0  0  0  0  0  2  0  0  0  0  0  0
    5.2420  -20.5660  -38.0850 N   0  0  2  0  0  0  0  0  0  0  0  0
    5.6300  -21.7530  -38.8410 C   0  0  0  0  0  2  0  0  0  0  0  0
    3.8040  -20.5360  -38.0260 C   0  0  0  0  0  2  0  0  0  0  0  0
    5.1330  -21.7080  -40.1980 N   0  0  1  0  0  0  0  0  0  0  0  0
    3.6900  -21.6710  -40.2040 C   0  0  0  0  0  2  0  0  0  0  0  0
    1.6460  -14.8120  -38.1160 C   0  0  0  0  0  0  0  0  0  0  0  0
    2.2940  -14.1350  -39.1280 C   0  0  0  0  0  3  0  0  0  0  0  0
    2.8240  -12.8620  -38.9330 C   0  0  0  0  0  3  0  0  0  0  0  0
    2.7110  -12.2530  -37.7190 C   0  0  0  0  0  0  0  0  0  0  0  0
    3.4250  -10.4970  -37.3950 Br  0  0  0  0  0  0  0  0  0  0  0  0
    2.0650  -12.9080  -36.6830 C   0  0  0  0  0  3  0  0  0  0  0  0
    1.5500  -14.1650  -36.9030 C   0  0  0  0  0  3  0  0  0  0  0  0
  1 22  1  0  0  0  0
  1  6  1  0  0  0  0
  2  1  1  0  0  0  0
  3  2  1  0  0  0  0
  3  5  1  0  0  0  0
  4  3  2  0  0  0  0
  5  9  1  6  0  0  0
  5  6  1  0  0  0  0
  6  7  2  0  0  0  0
  8  2  1  0  0  0  0
 10  9  1  0  0  0  0
 11 10  1  0  0  0  0
 12 10  1  1  0  0  0
 12 19  1  0  0  0  0
 13 12  1  0  0  0  0
 14 16  1  6  0  0  0
 14 13  1  0  0  0  0
 14 15  1  0  0  0  0
 15 17  1  0  0  0  0
 17 18  1  6  0  0  0
 17 19  1  0  0  0  0
 20 16  1  1  0  0  0
 20 18  1  0  0  0  0
 21 20  1  0  0  0  0
 21 12  1  0  0  0  0
 22 28  1  0  0  0  0
 23 24  1  0  0  0  0
 23 22  2  0  0  0  0
 24 25  2  0  0  0  0
 25 26  1  0  0  0  0
 25 27  1  0  0  0  0
 28 27  2  0  0  0  0
M  END
>  <Pose>
1

>  <Score>
-6.367

$$$$
