/Users/jonathanwahrer/Desktop/Msc/3_Semester/Drug_Design_Praktikum/waehrer_HTS_screening/HTS_experiment/out/docking_results/vina_output/6y4q/0441_docked.pdbqt
 OpenBabel03232217393D

 36 39  0  0  1  0  0  0  0  0999 V2000
    0.3460  -16.3080  -36.4590 C   0  0  0  0  0  0  0  0  0  0  0  0
    1.1290  -17.1160  -37.1980 N   0  0  0  0  0  0  0  0  0  0  0  0
    0.7010  -18.3250  -37.5210 C   0  0  0  0  0  0  0  0  0  0  0  0
    1.2880  -19.2960  -38.2340 N   0  0  0  0  0  0  0  0  0  0  0  0
    0.4050  -20.3200  -38.2520 C   0  0  0  0  0  3  0  0  0  0  0  0
   -0.6960  -19.9910  -37.5700 N   0  0  0  0  0  0  0  0  0  0  0  0
   -0.5620  -18.7520  -37.0930 C   0  0  0  0  0  0  0  0  0  0  0  0
   -1.3720  -17.9280  -36.3340 C   0  0  0  0  0  0  0  0  0  0  0  0
   -0.8870  -16.7180  -36.0390 N   0  0  0  0  0  0  0  0  0  0  0  0
    0.7740  -15.0000  -36.0880 N   0  0  0  0  0  0  0  0  0  0  0  0
    0.4760  -13.8540  -36.8530 C   0  0  0  0  0  0  0  0  0  0  0  0
   -0.1830  -13.9550  -37.9030 O   0  0  0  0  0  0  0  0  0  0  0  0
    1.3360  -14.9140  -35.1920 H   0  0  0  0  0  0  0  0  0  0  0  0
    0.9520  -12.5320  -36.4060 C   0  0  0  0  0  2  0  0  0  0  0  0
    2.3440  -12.4500  -36.3120 O   0  0  0  0  0  0  0  0  0  0  0  0
    3.0810  -12.0850  -37.4180 C   0  0  0  0  0  0  0  0  0  0  0  0
    3.9820  -11.0500  -37.3470 C   0  0  0  0  0  3  0  0  0  0  0  0
    4.7340  -10.6720  -38.4630 C   0  0  0  0  0  3  0  0  0  0  0  0
    4.5710  -11.3450  -39.6540 C   0  0  0  0  0  0  0  0  0  0  0  0
    5.6030  -10.8270  -41.1880 Br  0  0  0  0  0  0  0  0  0  0  0  0
    3.6650  -12.3830  -39.7210 C   0  0  0  0  0  3  0  0  0  0  0  0
    2.9330  -12.7430  -38.6140 C   0  0  0  0  0  3  0  0  0  0  0  0
   -2.6130  -18.4020  -35.9360 O   0  0  0  0  0  0  0  0  0  0  0  0
   -2.6370  -19.3820  -35.6320 H   0  0  0  0  0  0  0  0  0  0  0  0
    2.5460  -19.3520  -38.8740 C   0  0  2  0  0  3  0  0  0  0  0  0
    2.4440  -19.8360  -40.1850 O   0  0  0  0  0  0  0  0  0  0  0  0
    2.7920  -21.1770  -40.0430 C   0  0  2  0  0  3  0  0  0  0  0  0
    4.0980  -21.0380  -39.2750 C   0  0  1  0  0  3  0  0  0  0  0  0
    3.6310  -20.0700  -38.1910 C   0  0  1  0  0  3  0  0  0  0  0  0
    2.9810  -21.8650  -41.3640 C   0  0  0  0  0  2  0  0  0  0  0  0
    3.8240  -22.9420  -41.3120 O   0  0  0  0  0  0  0  0  0  0  0  0
    4.7530  -22.6220  -41.4520 H   0  0  0  0  0  0  0  0  0  0  0  0
    4.5720  -22.2210  -38.7820 O   0  0  0  0  0  0  0  0  0  0  0  0
    5.5770  -22.2350  -38.6790 H   0  0  0  0  0  0  0  0  0  0  0  0
    4.6920  -19.2100  -37.8270 O   0  0  0  0  0  0  0  0  0  0  0  0
    5.1680  -19.0090  -38.6710 H   0  0  0  0  0  0  0  0  0  0  0  0
  1 10  1  0  0  0  0
  1  9  1  0  0  0  0
  2  1  2  0  0  0  0
  3  2  1  0  0  0  0
  3  7  2  0  0  0  0
  4  3  1  0  0  0  0
  5  4  1  0  0  0  0
  5  6  2  0  0  0  0
  6  7  1  0  0  0  0
  7  8  1  0  0  0  0
  8  9  2  0  0  0  0
  8 23  1  0  0  0  0
 10 13  1  0  0  0  0
 11 14  1  0  0  0  0
 11 10  1  0  0  0  0
 12 11  2  0  0  0  0
 14 15  1  0  0  0  0
 16 17  1  0  0  0  0
 16 15  1  0  0  0  0
 18 17  2  0  0  0  0
 19 18  1  0  0  0  0
 20 19  1  0  0  0  0
 21 19  2  0  0  0  0
 21 22  1  0  0  0  0
 22 16  2  0  0  0  0
 23 24  1  0  0  0  0
 25  4  1  1  0  0  0
 25 29  1  0  0  0  0
 26 27  1  0  0  0  0
 26 25  1  0  0  0  0
 27 30  1  6  0  0  0
 27 28  1  0  0  0  0
 28 33  1  1  0  0  0
 28 29  1  0  0  0  0
 29 35  1  6  0  0  0
 30 31  1  0  0  0  0
 32 31  1  0  0  0  0
 33 34  1  0  0  0  0
 36 35  1  0  0  0  0
M  END
>  <Pose>
1

>  <Score>
-6.710

$$$$
