/Users/jonathanwahrer/Desktop/Msc/3_Semester/Drug_Design_Praktikum/waehrer_HTS_screening/HTS_experiment/out/docking_results/vina_output/6y4q/0444_docked.pdbqt
 OpenBabel03232217393D

 33 36  0  0  1  0  0  0  0  0999 V2000
    0.8610  -17.7570  -38.1550 N   0  0  0  0  0  0  0  0  0  0  0  0
   -0.4640  -18.0300  -38.1570 C   0  0  0  0  0  0  0  0  0  0  0  0
   -0.6250  -19.3960  -38.2040 C   0  0  0  0  0  0  0  0  0  0  0  0
    0.5950  -19.8900  -38.2330 N   0  0  0  0  0  0  0  0  0  0  0  0
    1.5500  -18.9080  -38.2070 C   0  0  0  0  0  0  0  0  0  0  0  0
   -1.8390  -20.0210  -38.2190 N   0  0  0  0  0  0  0  0  0  0  0  0
   -2.9260  -19.2490  -38.1850 C   0  0  0  0  0  0  0  0  0  0  0  0
   -4.0560  -19.8080  -38.1970 O   0  0  0  0  0  0  0  0  0  0  0  0
   -2.8000  -17.9160  -38.1410 N   0  0  0  0  0  0  0  0  0  0  0  0
   -1.6120  -17.2680  -38.1250 C   0  0  0  0  0  0  0  0  0  0  0  0
   -1.5260  -16.0320  -38.0840 O   0  0  0  0  0  0  0  0  0  0  0  0
   -1.9070  -21.4820  -38.2600 C   0  0  0  0  0  1  0  0  0  0  0  0
   -3.6720  -17.3470  -38.1160 H   0  0  0  0  0  0  0  0  0  0  0  0
    1.4590  -16.4430  -38.0540 C   0  0  0  0  0  2  0  0  0  0  0  0
    1.6960  -15.9470  -36.6580 C   0  0  1  0  0  3  0  0  0  0  0  0
    1.0890  -14.6280  -36.2980 C   0  0  0  0  0  2  0  0  0  0  0  0
    1.5550  -13.5880  -36.9570 O   0  0  0  0  0  0  0  0  0  0  0  0
    2.4530  -12.8690  -37.5850 C   0  0  0  0  0  0  0  0  0  0  0  0
    3.2400  -11.8980  -36.9990 C   0  0  0  0  0  3  0  0  0  0  0  0
    4.1680  -11.1720  -37.7130 C   0  0  0  0  0  3  0  0  0  0  0  0
    4.3200  -11.4170  -39.0510 C   0  0  0  0  0  0  0  0  0  0  0  0
    5.6010  -10.4120  -40.0300 Br  0  0  0  0  0  0  0  0  0  0  0  0
    3.5490  -12.3830  -39.6650 C   0  0  0  0  0  3  0  0  0  0  0  0
    2.6350  -13.1000  -38.9680 C   0  0  0  0  0  3  0  0  0  0  0  0
    1.2890  -16.8760  -35.6900 O   0  0  0  0  0  0  0  0  0  0  0  0
    0.6540  -16.4190  -35.0490 H   0  0  0  0  0  0  0  0  0  0  0  0
    2.9640  -19.1680  -38.3000 N   0  0  0  0  0  0  0  0  0  0  0  0
    3.4510  -19.2790  -39.6930 C   0  0  0  0  0  2  0  0  0  0  0  0
    4.9190  -19.2410  -39.8370 C   0  0  0  0  0  2  0  0  0  0  0  0
    5.6200  -19.8710  -38.7460 N   0  0  0  0  0  0  0  0  0  0  0  0
    5.3090  -19.1050  -37.5810 C   0  0  0  0  0  2  0  0  0  0  0  0
    5.3520  -21.2680  -38.6520 C   0  0  0  0  0  1  0  0  0  0  0  0
    3.8400  -19.2530  -37.1860 C   0  0  0  0  0  2  0  0  0  0  0  0
  1 14  1  0  0  0  0
  2  1  1  0  0  0  0
  2 10  1  0  0  0  0
  3  2  2  0  0  0  0
  4  5  2  0  0  0  0
  4  3  1  0  0  0  0
  5  1  1  0  0  0  0
  6  3  1  0  0  0  0
  6  7  1  0  0  0  0
  7  9  1  0  0  0  0
  8  7  2  0  0  0  0
  9 10  1  0  0  0  0
  9 13  1  0  0  0  0
 10 11  2  0  0  0  0
 12  6  1  0  0  0  0
 15 14  1  6  0  0  0
 15 16  1  0  0  0  0
 15 25  1  0  0  0  0
 17 16  1  0  0  0  0
 18 19  1  0  0  0  0
 18 17  1  0  0  0  0
 20 19  2  0  0  0  0
 21 20  1  0  0  0  0
 22 21  1  0  0  0  0
 23 21  2  0  0  0  0
 23 24  1  0  0  0  0
 24 18  2  0  0  0  0
 25 26  1  0  0  0  0
 27  5  1  0  0  0  0
 27 33  1  0  0  0  0
 28 27  1  0  0  0  0
 29 28  1  0  0  0  0
 29 30  1  0  0  0  0
 30 32  1  0  0  0  0
 30 31  1  0  0  0  0
 31 33  1  0  0  0  0
M  END
>  <Pose>
1

>  <Score>
-6.571

$$$$
