/Users/jonathanwahrer/Desktop/Msc/3_Semester/Drug_Design_Praktikum/waehrer_HTS_screening/HTS_experiment/out/docking_results/vina_output/6y4q/0454_docked.pdbqt
 OpenBabel03232217393D

 21 25  0  0  1  0  0  0  0  0999 V2000
    0.6810  -16.9330  -36.6760 C   0  0  0  0  0  2  0  0  0  0  0  0
    1.3830  -17.9580  -37.4490 C   0  0  0  0  0  0  0  0  0  0  0  0
    0.6050  -18.8350  -38.2230 C   0  0  0  0  0  0  0  0  0  0  0  0
   -1.2870  -18.6450  -38.4400 Br  0  0  0  0  0  0  0  0  0  0  0  0
    1.2750  -19.8810  -38.8290 C   0  0  0  0  0  3  0  0  0  0  0  0
    2.6380  -20.0350  -38.6770 C   0  0  0  0  0  0  0  0  0  0  0  0
    3.4290  -19.1970  -37.9270 C   0  0  0  0  0  0  0  0  0  0  0  0
    3.4840  -21.0480  -39.2230 O   0  0  0  0  0  0  0  0  0  0  0  0
    2.7590  -18.1650  -37.3280 C   0  0  0  0  0  3  0  0  0  0  0  0
    4.7090  -19.7170  -38.0340 O   0  0  0  0  0  0  0  0  0  0  0  0
    4.5860  -21.1470  -38.2710 C   0  0  0  0  0  2  0  0  0  0  0  0
    0.5830  -15.6210  -37.1620 N   0  0  2  0  0  4  0  0  0  0  0  0
    1.6380  -14.9340  -36.3330 C   0  0  0  0  0  2  0  0  0  0  0  0
    1.5920  -13.5340  -36.3670 N   0  0  2  0  0  0  0  0  0  0  0  0
    0.2620  -13.1350  -35.9410 C   0  0  0  0  0  2  0  0  0  0  0  0
    1.8890  -13.1510  -37.7520 C   0  0  0  0  0  2  0  0  0  0  0  0
   -0.6680  -13.6230  -36.9290 N   0  0  2  0  0  0  0  0  0  0  0  0
   -0.7390  -15.0480  -36.9170 C   0  0  0  0  0  2  0  0  0  0  0  0
   -0.3570  -13.1880  -38.2950 C   0  0  0  0  0  2  0  0  0  0  0  0
    0.9320  -13.7660  -38.6410 N   0  0  2  0  0  0  0  0  0  0  0  0
    0.9190  -15.2370  -38.4980 C   0  0  0  0  0  2  0  0  0  0  0  0
  2  9  1  0  0  0  0
  2  1  1  0  0  0  0
  3  2  2  0  0  0  0
  4  3  1  0  0  0  0
  5  6  2  0  0  0  0
  5  3  1  0  0  0  0
  6  7  1  0  0  0  0
  7  9  2  0  0  0  0
  8  6  1  0  0  0  0
  8 11  1  0  0  0  0
 10  7  1  0  0  0  0
 11 10  1  0  0  0  0
 12 18  1  0  0  0  0
 12  1  1  1  0  0  0
 12 13  1  0  0  0  0
 14 16  1  6  0  0  0
 14 13  1  0  0  0  0
 14 15  1  0  0  0  0
 17 19  1  6  0  0  0
 17 18  1  0  0  0  0
 17 15  1  0  0  0  0
 20 21  1  1  0  0  0
 20 19  1  0  0  0  0
 20 16  1  0  0  0  0
 21 12  1  0  0  0  0
M  END
>  <Pose>
1

>  <Score>
-5.154

$$$$
