/Users/jonathanwahrer/Desktop/Msc/3_Semester/Drug_Design_Praktikum/waehrer_HTS_screening/HTS_experiment/out/docking_results/vina_output/6y4q/0469_docked.pdbqt
 OpenBabel03232217403D

 32 36  0  0  0  0  0  0  0  0999 V2000
    1.4700  -17.5640  -37.4480 N   0  0  0  0  0  0  0  0  0  0  0  0
    0.8350  -18.6340  -38.0580 C   0  0  0  0  0  2  0  0  0  0  0  0
    1.4520  -19.9790  -38.0550 C   0  0  0  0  0  2  0  0  0  0  0  0
    2.8520  -19.8490  -37.7670 N   0  0  0  0  0  0  0  0  0  0  0  0
    3.1370  -19.1370  -36.5470 C   0  0  0  0  0  2  0  0  0  0  0  0
    2.6970  -17.7130  -36.7670 C   0  0  0  0  0  2  0  0  0  0  0  0
    0.6090  -16.5370  -36.9080 C   0  0  0  0  0  2  0  0  0  0  0  0
    0.9010  -15.1880  -37.5240 C   0  0  0  0  0  0  0  0  0  0  0  0
    1.3800  -14.1730  -36.6700 N   0  0  0  0  0  0  0  0  0  0  0  0
    1.5100  -14.4220  -35.6390 H   0  0  0  0  0  0  0  0  0  0  0  0
    0.6940  -15.0730  -38.7430 O   0  0  0  0  0  0  0  0  0  0  0  0
    1.7050  -12.8530  -37.0660 C   0  0  0  0  0  0  0  0  0  0  0  0
    0.7040  -11.8750  -36.9720 C   0  0  0  0  0  0  0  0  0  0  0  0
   -1.0050  -12.3850  -36.3220 Br  0  0  0  0  0  0  0  0  0  0  0  0
    0.9780  -10.5820  -37.3500 C   0  0  0  0  0  3  0  0  0  0  0  0
    2.1990  -10.2060  -37.8160 C   0  0  0  0  0  0  0  0  0  0  0  0
    3.2020  -11.1440  -37.9200 C   0  0  0  0  0  0  0  0  0  0  0  0
    2.5190   -8.9140  -38.2090 O   0  0  0  0  0  0  0  0  0  0  0  0
    2.9460  -12.4670  -37.5420 C   0  0  0  0  0  3  0  0  0  0  0  0
    4.4250  -10.7420  -38.3930 O   0  0  0  0  0  0  0  0  0  0  0  0
    4.6240   -9.6200  -39.2180 C   0  0  0  0  0  2  0  0  0  0  0  0
    3.4270   -8.7280  -39.3030 C   0  0  0  0  0  2  0  0  0  0  0  0
    3.9150  -20.3360  -38.5440 C   0  0  0  0  0  0  0  0  0  0  0  0
    4.6580  -21.4230  -38.2130 N   0  0  0  0  0  0  0  0  0  0  0  0
    5.6700  -21.8660  -38.9800 C   0  0  0  0  0  3  0  0  0  0  0  0
    5.9970  -21.2450  -40.1270 N   0  0  0  0  0  0  0  0  0  0  0  0
    5.3130  -20.1570  -40.5350 C   0  0  0  0  0  0  0  0  0  0  0  0
    5.4180  -19.3470  -41.6200 N   0  0  0  0  0  0  0  0  0  0  0  0
    4.2830  -19.7160  -39.7430 C   0  0  0  0  0  0  0  0  0  0  0  0
    4.4720  -18.4330  -41.4900 N   0  0  0  0  0  0  0  0  0  0  0  0
    6.3960  -19.4850  -42.7000 C   0  0  0  0  0  1  0  0  0  0  0  0
    3.7600  -18.6100  -40.3750 C   0  0  0  0  0  3  0  0  0  0  0  0
  1  7  1  0  0  0  0
  1  6  1  0  0  0  0
  2  3  1  0  0  0  0
  2  1  1  0  0  0  0
  3  4  1  0  0  0  0
  4  5  1  0  0  0  0
  6  5  1  0  0  0  0
  8  7  1  0  0  0  0
  8  9  1  0  0  0  0
  9 10  1  0  0  0  0
 11  8  2  0  0  0  0
 12 13  1  0  0  0  0
 12  9  1  0  0  0  0
 13 14  1  0  0  0  0
 15 13  2  0  0  0  0
 16 15  1  0  0  0  0
 17 16  2  0  0  0  0
 17 19  1  0  0  0  0
 18 16  1  0  0  0  0
 19 12  2  0  0  0  0
 20 17  1  0  0  0  0
 21 20  1  0  0  0  0
 22 21  1  0  0  0  0
 22 18  1  0  0  0  0
 23 24  1  0  0  0  0
 23  4  1  0  0  0  0
 25 24  2  0  0  0  0
 26 25  1  0  0  0  0
 27 26  2  0  0  0  0
 27 29  1  0  0  0  0
 28 30  1  0  0  0  0
 28 27  1  0  0  0  0
 29 23  2  0  0  0  0
 30 32  2  0  0  0  0
 31 28  1  0  0  0  0
 32 29  1  0  0  0  0
M  END
>  <Pose>
1

>  <Score>
-6.632

$$$$
