/Users/jonathanwahrer/Desktop/Msc/3_Semester/Drug_Design_Praktikum/waehrer_HTS_screening/HTS_experiment/out/docking_results/vina_output/6y4q/0471_docked.pdbqt
 OpenBabel03232217403D

 27 30  0  0  0  0  0  0  0  0999 V2000
    0.8240  -16.3970  -39.1470 C   0  0  0  0  0  0  0  0  0  0  0  0
   -0.0190  -16.3150  -40.0860 O   0  0  0  0  0  0  0  0  0  0  0  0
    1.1710  -17.6650  -38.6390 N   0  0  0  0  0  0  0  0  0  0  0  0
    0.5530  -18.8360  -39.2060 C   0  0  0  0  0  2  0  0  0  0  0  0
    1.5610  -19.8550  -39.6930 C   0  0  0  0  0  2  0  0  0  0  0  0
    2.7180  -19.7640  -38.8840 N   0  0  0  0  0  0  0  0  0  0  0  0
    2.4310  -19.4000  -37.5520 C   0  0  0  0  0  2  0  0  0  0  0  0
    2.1160  -17.8930  -37.5720 C   0  0  0  0  0  2  0  0  0  0  0  0
    1.4000  -15.1490  -38.6310 C   0  0  0  0  0  0  0  0  0  0  0  0
    1.0600  -14.7030  -37.3760 C   0  0  0  0  0  3  0  0  0  0  0  0
    1.5760  -13.5370  -36.8500 C   0  0  0  0  0  0  0  0  0  0  0  0
    2.4630  -12.7960  -37.6100 C   0  0  0  0  0  0  0  0  0  0  0  0
    1.2550  -13.1320  -35.6850 O   0  0  0  0  0  0  0  0  0  0  0  0
    2.7640  -13.2950  -38.8630 C   0  0  0  0  0  0  0  0  0  0  0  0
    2.9920  -11.6300  -37.1130 C   0  0  0  0  0  3  0  0  0  0  0  0
    3.6530  -12.5470  -39.6210 C   0  0  0  0  0  3  0  0  0  0  0  0
    2.2420  -14.4110  -39.3100 O   0  0  0  0  0  0  0  0  0  0  0  0
    4.2030  -11.3690  -39.1450 C   0  0  0  0  0  0  0  0  0  0  0  0
    5.4220  -10.3700  -40.2190 Br  0  0  0  0  0  0  0  0  0  0  0  0
    3.8710  -10.9090  -37.8850 C   0  0  0  0  0  3  0  0  0  0  0  0
    3.8780  -19.2310  -39.4760 C   0  0  0  0  0  2  0  0  0  0  0  0
    5.1420  -19.6230  -38.8580 C   0  0  0  0  0  0  0  0  0  0  0  0
    5.7920  -18.9330  -37.9070 N   0  0  0  0  0  0  0  0  0  0  0  0
    6.8580  -19.5910  -37.6200 O   0  0  0  0  0  0  0  0  0  0  0  0
    6.9510  -20.6860  -38.3320 N   0  0  0  0  0  0  0  0  0  0  0  0
    5.8700  -20.7470  -39.1410 C   0  0  0  0  0  0  0  0  0  0  0  0
    5.5480  -21.8180  -40.1310 C   0  0  0  0  0  1  0  0  0  0  0  0
  1  3  1  0  0  0  0
  1  9  1  0  0  0  0
  2  1  2  0  0  0  0
  3  8  1  0  0  0  0
  4  3  1  0  0  0  0
  5  4  1  0  0  0  0
  5  6  1  0  0  0  0
  6  7  1  0  0  0  0
  8  7  1  0  0  0  0
  9 10  2  0  0  0  0
 10 11  1  0  0  0  0
 11 13  2  0  0  0  0
 12 15  1  0  0  0  0
 12 11  1  0  0  0  0
 14 12  2  0  0  0  0
 16 18  2  0  0  0  0
 16 14  1  0  0  0  0
 17 14  1  0  0  0  0
 17  9  1  0  0  0  0
 18 20  1  0  0  0  0
 19 18  1  0  0  0  0
 20 15  2  0  0  0  0
 21  6  1  0  0  0  0
 21 22  1  0  0  0  0
 22 23  2  0  0  0  0
 23 24  1  0  0  0  0
 25 24  1  0  0  0  0
 26 22  1  0  0  0  0
 26 25  2  0  0  0  0
 27 26  1  0  0  0  0
M  END
>  <Pose>
1

>  <Score>
-7.060

$$$$
