/Users/jonathanwahrer/Desktop/Msc/3_Semester/Drug_Design_Praktikum/waehrer_HTS_screening/HTS_experiment/out/docking_results/vina_output/6y4q/0473_docked.pdbqt
 OpenBabel03232217413D

 29 32  0  0  0  0  0  0  0  0999 V2000
    1.9960  -17.0230  -36.9940 C   0  0  0  0  0  2  0  0  0  0  0  0
    0.8200  -16.3470  -36.3490 C   0  0  0  0  0  2  0  0  0  0  0  0
    0.2780  -15.3060  -37.2580 C   0  0  0  0  0  2  0  0  0  0  0  0
    1.2650  -14.3390  -37.6860 N   0  0  0  0  0  0  0  0  0  0  0  0
    1.7440  -13.2970  -36.8500 C   0  0  0  0  0  0  0  0  0  0  0  0
    2.7160  -12.5220  -37.6000 C   0  0  0  0  0  0  0  0  0  0  0  0
    1.4120  -13.0430  -35.6470 O   0  0  0  0  0  0  0  0  0  0  0  0
    2.8110  -13.0940  -38.8540 C   0  0  0  0  0  0  0  0  0  0  0  0
    3.4760  -11.4180  -37.2730 C   0  0  0  0  0  3  0  0  0  0  0  0
    3.6860  -12.5190  -39.7570 C   0  0  0  0  0  3  0  0  0  0  0  0
    1.9010  -14.2460  -38.9370 C   0  0  0  0  0  0  0  0  0  0  0  0
    4.4410  -11.4140  -39.4190 C   0  0  0  0  0  0  0  0  0  0  0  0
    5.6300  -10.6760  -40.7150 Br  0  0  0  0  0  0  0  0  0  0  0  0
    4.3530  -10.8390  -38.1680 C   0  0  0  0  0  3  0  0  0  0  0  0
    1.7460  -14.9880  -39.9460 O   0  0  0  0  0  0  0  0  0  0  0  0
    1.6430  -18.1830  -37.8450 C   0  0  0  0  0  0  0  0  0  0  0  0
    0.5350  -18.3070  -38.4280 O   0  0  0  0  0  0  0  0  0  0  0  0
    2.5860  -19.2540  -38.0490 N   0  0  0  0  0  0  0  0  0  0  0  0
    2.2520  -20.3880  -38.8790 C   0  0  0  0  0  2  0  0  0  0  0  0
    3.9020  -19.2480  -37.4390 C   0  0  0  0  0  2  0  0  0  0  0  0
    3.3500  -20.7950  -39.8030 C   0  0  0  0  0  2  0  0  0  0  0  0
    4.5460  -19.9940  -39.6940 N   0  0  0  0  0  0  0  0  0  0  0  0
    4.9780  -19.3280  -38.4950 C   0  0  0  0  0  2  0  0  0  0  0  0
    5.3610  -19.8540  -40.8630 C   0  0  0  0  0  0  0  0  0  0  0  0
    5.5130  -18.6540  -41.4860 N   0  0  0  0  0  0  0  0  0  0  0  0
    6.2610  -18.4810  -42.5740 C   0  0  0  0  0  3  0  0  0  0  0  0
    6.9240  -19.5740  -43.1110 C   0  0  0  0  0  3  0  0  0  0  0  0
    6.7950  -20.7840  -42.5150 N   0  0  0  0  0  0  0  0  0  0  0  0
    6.0310  -20.9190  -41.4180 C   0  0  0  0  0  3  0  0  0  0  0  0
  1  2  1  0  0  0  0
  3  2  1  0  0  0  0
  4  3  1  0  0  0  0
  4  5  1  0  0  0  0
  5  7  2  0  0  0  0
  6  9  1  0  0  0  0
  6  5  1  0  0  0  0
  8  6  2  0  0  0  0
 10 12  2  0  0  0  0
 10  8  1  0  0  0  0
 11  8  1  0  0  0  0
 11  4  1  0  0  0  0
 12 14  1  0  0  0  0
 13 12  1  0  0  0  0
 14  9  2  0  0  0  0
 15 11  2  0  0  0  0
 16  1  1  0  0  0  0
 17 16  2  0  0  0  0
 18 16  1  0  0  0  0
 18 20  1  0  0  0  0
 19 18  1  0  0  0  0
 21 22  1  0  0  0  0
 21 19  1  0  0  0  0
 22 23  1  0  0  0  0
 23 20  1  0  0  0  0
 24 22  1  0  0  0  0
 25 24  2  0  0  0  0
 26 25  1  0  0  0  0
 27 26  2  0  0  0  0
 27 28  1  0  0  0  0
 28 29  2  0  0  0  0
 29 24  1  0  0  0  0
M  END
>  <Pose>
1

>  <Score>
-7.005

$$$$
