/Users/jonathanwahrer/Desktop/Msc/3_Semester/Drug_Design_Praktikum/waehrer_HTS_screening/HTS_experiment/out/docking_results/vina_output/6y4q/0483_docked.pdbqt
 OpenBabel03232217413D

 31 34  0  0  0  0  0  0  0  0999 V2000
    1.9920  -11.4430  -37.7980 C   0  0  0  0  0  2  0  0  0  0  0  0
    3.3770  -11.1800  -37.4410 C   0  0  0  0  0  0  0  0  0  0  0  0
    4.5230  -10.9480  -37.1560 C   0  0  0  0  0  3  0  0  0  0  0  0
    1.7330  -12.8690  -37.8060 N   0  0  0  0  0  0  0  0  0  0  0  0
    1.9450  -13.8240  -38.8400 C   0  0  0  0  0  0  0  0  0  0  0  0
    1.5530  -15.1000  -38.4160 C   0  0  0  0  0  0  0  0  0  0  0  0
    2.4520  -13.6830  -40.1230 C   0  0  0  0  0  3  0  0  0  0  0  0
    1.6820  -16.1640  -39.2830 C   0  0  0  0  0  3  0  0  0  0  0  0
    1.0590  -15.0040  -37.0500 C   0  0  0  0  0  0  0  0  0  0  0  0
    2.1950  -16.0090  -40.5760 C   0  0  0  0  0  0  0  0  0  0  0  0
    2.3700  -17.4820  -41.7650 Br  0  0  0  0  0  0  0  0  0  0  0  0
    2.5730  -14.7570  -40.9730 C   0  0  0  0  0  3  0  0  0  0  0  0
    1.1900  -13.5730  -36.7000 C   0  0  0  0  0  0  0  0  0  0  0  0
    0.6050  -15.9480  -36.2990 N   0  0  0  0  0  0  0  0  0  0  0  0
    0.8430  -13.1490  -35.5630 O   0  0  0  0  0  0  0  0  0  0  0  0
    0.5250  -17.2730  -36.7350 N   0  0  0  0  0  0  0  0  0  0  0  0
   -0.6950  -17.8730  -37.1310 C   0  0  0  0  0  0  0  0  0  0  0  0
   -1.7480  -17.1960  -37.0910 O   0  0  0  0  0  0  0  0  0  0  0  0
    1.3990  -17.8360  -36.7580 H   0  0  0  0  0  0  0  0  0  0  0  0
   -0.7220  -19.2590  -37.5760 C   0  0  0  0  0  2  0  0  0  0  0  0
    0.5040  -19.6680  -38.2340 N   0  0  0  0  0  0  0  0  0  0  0  0
    0.6380  -20.1110  -39.4720 N   0  0  0  0  0  2  0  0  0  0  0  0
    1.9060  -20.3890  -39.7280 N   0  0  0  0  0  0  0  0  0  0  0  0
    2.6200  -20.1200  -38.6210 C   0  0  0  0  0  0  0  0  0  0  0  0
    1.7280  -19.6790  -37.7250 N   0  0  0  0  0  2  0  0  0  0  0  0
    4.0630  -20.2910  -38.4820 C   0  0  0  0  0  0  0  0  0  0  0  0
    4.6530  -21.4880  -38.8250 C   0  0  0  0  0  3  0  0  0  0  0  0
    6.0340  -21.6550  -38.6930 C   0  0  0  0  0  3  0  0  0  0  0  0
    6.8410  -20.6440  -38.2230 C   0  0  0  0  0  3  0  0  0  0  0  0
    6.2510  -19.4410  -37.8790 C   0  0  0  0  0  3  0  0  0  0  0  0
    4.8780  -19.2840  -38.0130 C   0  0  0  0  0  3  0  0  0  0  0  0
  1  2  1  0  0  0  0
  2  3  3  0  0  0  0
  4  1  1  0  0  0  0
  4 13  1  0  0  0  0
  5  6  1  0  0  0  0
  5  4  1  0  0  0  0
  6  9  1  0  0  0  0
  7  5  2  0  0  0  0
  8  6  2  0  0  0  0
  9 13  1  0  0  0  0
  9 14  2  0  0  0  0
 10  8  1  0  0  0  0
 11 10  1  0  0  0  0
 12 10  2  0  0  0  0
 12  7  1  0  0  0  0
 13 15  2  0  0  0  0
 16 14  1  0  0  0  0
 17 18  2  0  0  0  0
 17 16  1  0  0  0  0
 19 16  1  0  0  0  0
 20 17  1  0  0  0  0
 21 25  1  0  0  0  0
 21 20  1  0  0  0  0
 22 21  1  0  0  0  0
 23 22  1  0  0  0  0
 23 24  2  0  0  0  0
 24 26  1  0  0  0  0
 24 25  1  0  0  0  0
 26 31  1  0  0  0  0
 27 28  1  0  0  0  0
 27 26  2  0  0  0  0
 28 29  2  0  0  0  0
 29 30  1  0  0  0  0
 31 30  2  0  0  0  0
M  END
>  <Pose>
1

>  <Score>
-7.477

$$$$
