/Users/jonathanwahrer/Desktop/Msc/3_Semester/Drug_Design_Praktikum/waehrer_HTS_screening/HTS_experiment/out/docking_results/vina_output/6y4q/0484_docked.pdbqt
 OpenBabel03232217413D

 35 38  0  0  1  0  0  0  0  0999 V2000
    3.4360  -13.6650  -43.3910 Br  0  0  0  0  0  0  0  0  0  0  0  0
    3.3490  -15.4080  -42.6170 C   0  0  0  0  0  0  0  0  0  0  0  0
    2.4150  -15.7230  -41.6180 C   0  0  0  0  0  3  0  0  0  0  0  0
    2.4380  -17.0030  -41.1450 C   0  0  0  0  0  0  0  0  0  0  0  0
    3.3110  -17.9760  -41.5830 C   0  0  0  0  0  0  0  0  0  0  0  0
    4.2300  -17.6630  -42.5590 C   0  0  0  0  0  3  0  0  0  0  0  0
    4.2340  -16.3590  -43.0760 C   0  0  0  0  0  3  0  0  0  0  0  0
    3.1070  -19.2140  -40.9140 N   0  0  0  0  0  0  0  0  0  0  0  0
    2.0230  -18.9880  -39.9760 C   0  0  0  0  0  0  0  0  0  0  0  0
    1.5420  -19.8510  -39.2120 O   0  0  0  0  0  0  0  0  0  0  0  0
    1.6330  -17.6040  -40.1270 C   0  0  1  0  0  3  0  0  0  0  0  0
    0.8330  -16.9190  -39.4040 N   0  0  0  0  0  2  0  0  0  0  0  0
    0.3150  -16.7880  -38.3670 N   0  0  0  0  0  0  0  0  0  0  0  0
   -0.3160  -16.6490  -37.1100 C   0  0  0  0  0  0  0  0  0  0  0  0
    0.0110  -18.1390  -38.2710 H   0  0  0  0  0  0  0  0  0  0  0  0
   -0.7700  -17.4530  -36.3280 O   0  0  0  0  0  0  0  0  0  0  0  0
   -0.4150  -15.1470  -36.7550 C   0  0  0  0  0  2  0  0  0  0  0  0
    0.7300  -14.9160  -35.9060 O   0  0  0  0  0  0  0  0  0  0  0  0
    1.6730  -13.9870  -36.4300 N   0  0  0  0  0  0  0  0  0  0  0  0
    1.7340  -13.7330  -37.6790 C   0  0  0  0  0  3  0  0  0  0  0  0
    2.7110  -12.7980  -38.1880 C   0  0  0  0  0  0  0  0  0  0  0  0
    3.1540  -12.7400  -39.4660 C   0  0  0  0  0  3  0  0  0  0  0  0
    4.1740  -11.7940  -39.7410 C   0  0  0  0  0  3  0  0  0  0  0  0
    4.7340  -10.9470  -38.8790 C   0  0  0  0  0  0  0  0  0  0  0  0
    4.2550  -11.0400  -37.6170 C   0  0  0  0  0  3  0  0  0  0  0  0
    3.3060  -11.8750  -37.1620 C   0  0  0  0  0  3  0  0  0  0  0  0
    5.7320  -10.0560  -39.2910 O   0  0  0  0  0  0  0  0  0  0  0  0
    6.2140  -10.0760  -40.6300 C   0  0  0  0  0  1  0  0  0  0  0  0
    3.7250  -20.5200  -41.0690 C   0  0  0  0  0  2  0  0  0  0  0  0
    4.8170  -20.6790  -40.2420 N   0  0  0  0  0  0  0  0  0  0  0  0
    5.4660  -19.4640  -39.9610 C   0  0  0  0  0  2  0  0  0  0  0  0
    5.7940  -19.3900  -38.4680 C   0  0  0  0  0  2  0  0  0  0  0  0
    4.5450  -19.6720  -37.8490 O   0  0  0  0  0  0  0  0  0  0  0  0
    4.2940  -21.0470  -37.9330 C   0  0  0  0  0  2  0  0  0  0  0  0
    4.7230  -21.6550  -39.2320 C   0  0  0  0  0  2  0  0  0  0  0  0
  1  2  1  0  0  0  0
  2  3  1  0  0  0  0
  3  4  2  0  0  0  0
  4 11  1  0  0  0  0
  5  4  1  0  0  0  0
  5  8  1  0  0  0  0
  6  5  2  0  0  0  0
  7  2  2  0  0  0  0
  7  6  1  0  0  0  0
  8  9  1  0  0  0  0
  9 10  2  0  0  0  0
 11  9  1  0  0  0  0
 11 12  1  1  0  0  0
 12 13  1  0  0  0  0
 13 15  1  0  0  0  0
 13 14  1  0  0  0  0
 14 17  1  0  0  0  0
 14 16  2  0  0  0  0
 17 18  1  0  0  0  0
 19 18  1  0  0  0  0
 20 19  2  0  0  0  0
 21 20  1  0  0  0  0
 21 26  1  0  0  0  0
 22 21  2  0  0  0  0
 23 22  1  0  0  0  0
 23 24  2  0  0  0  0
 24 25  1  0  0  0  0
 25 26  2  0  0  0  0
 27 24  1  0  0  0  0
 28 27  1  0  0  0  0
 29  8  1  0  0  0  0
 29 30  1  0  0  0  0
 30 31  1  0  0  0  0
 30 35  1  0  0  0  0
 31 32  1  0  0  0  0
 32 33  1  0  0  0  0
 34 33  1  0  0  0  0
 35 34  1  0  0  0  0
M  END
>  <Pose>
1

>  <Score>
-6.413

$$$$
