/Users/jonathanwahrer/Desktop/Msc/3_Semester/Drug_Design_Praktikum/waehrer_HTS_screening/HTS_experiment/out/docking_results/vina_output/6y4q/0502_docked.pdbqt
 OpenBabel03232217423D

 27 30  0  0  1  0  0  0  0  0999 V2000
    2.7550  -12.2580  -37.6580 Br  0  0  0  0  0  0  0  0  0  0  0  0
    1.7570  -13.8810  -37.3660 C   0  0  0  0  0  0  0  0  0  0  0  0
    2.0200  -15.0120  -38.0920 C   0  0  0  0  0  3  0  0  0  0  0  0
    1.2930  -16.1620  -37.8640 C   0  0  0  0  0  0  0  0  0  0  0  0
    0.3200  -16.1190  -36.9020 C   0  0  0  0  0  0  0  0  0  0  0  0
    0.0520  -14.9540  -36.1560 C   0  0  0  0  0  3  0  0  0  0  0  0
    0.7840  -13.8210  -36.3950 C   0  0  0  0  0  3  0  0  0  0  0  0
   -0.3400  -17.3760  -36.7840 N   0  0  0  0  0  0  0  0  0  0  0  0
    0.2370  -18.2540  -37.7110 C   0  0  0  0  0  0  0  0  0  0  0  0
   -0.1060  -19.4630  -37.8820 O   0  0  0  0  0  0  0  0  0  0  0  0
    1.3200  -17.5210  -38.4570 C   0  0  2  0  0  0  0  0  0  0  0  0
    2.5560  -18.2430  -38.1780 C   0  0  0  0  0  0  0  0  0  0  0  0
    3.2520  -18.8610  -39.1700 C   0  0  0  0  0  0  0  0  0  0  0  0
    4.3430  -19.4350  -38.5820 N   0  0  0  0  0  0  0  0  0  0  0  0
    4.3400  -19.1960  -37.2870 N   0  0  0  0  0  0  0  0  0  0  0  0
    3.2640  -18.4690  -36.9940 C   0  0  0  0  0  0  0  0  0  0  0  0
    2.8100  -17.9420  -35.6690 C   0  0  0  0  0  1  0  0  0  0  0  0
    2.8400  -18.8480  -40.5070 O   0  0  0  0  0  0  0  0  0  0  0  0
    1.6600  -18.1590  -40.7690 C   0  0  0  0  0  0  0  0  0  0  0  0
    0.9480  -17.5460  -39.8600 C   0  0  0  0  0  0  0  0  0  0  0  0
   -0.2750  -16.8650  -40.3200 C   0  0  0  0  0  0  0  0  0  0  0  0
   -1.2490  -16.3190  -40.6620 N   0  0  0  0  0  0  0  0  0  0  0  0
   -1.4350  -17.7070  -35.8600 C   0  0  0  0  0  1  0  0  0  0  0  0
    5.0400  -19.5010  -36.5630 H   0  0  0  0  0  0  0  0  0  0  0  0
    1.1810  -18.1100  -42.1430 N   0  0  0  0  0  0  0  0  0  0  0  0
    0.4100  -18.7730  -42.3570 H   0  0  0  0  0  0  0  0  0  0  0  0
    1.5610  -17.4820  -42.8480 H   0  0  0  0  0  0  0  0  0  0  0  0
  1  2  1  0  0  0  0
  2  7  1  0  0  0  0
  3  4  1  0  0  0  0
  3  2  2  0  0  0  0
  4  5  2  0  0  0  0
  5  8  1  0  0  0  0
  5  6  1  0  0  0  0
  7  6  2  0  0  0  0
  8 23  1  0  0  0  0
  9  8  1  0  0  0  0
 10  9  2  0  0  0  0
 11 20  1  6  0  0  0
 11 12  1  0  0  0  0
 11  4  1  0  0  0  0
 11  9  1  0  0  0  0
 12 16  2  0  0  0  0
 13 14  2  0  0  0  0
 13 12  1  0  0  0  0
 14 15  1  0  0  0  0
 15 16  1  0  0  0  0
 15 24  1  0  0  0  0
 16 17  1  0  0  0  0
 18 13  1  0  0  0  0
 19 18  1  0  0  0  0
 19 20  2  0  0  0  0
 21 20  1  0  0  0  0
 22 21  3  0  0  0  0
 25 19  1  0  0  0  0
 26 25  1  0  0  0  0
 27 25  1  0  0  0  0
M  END
>  <Pose>
1

>  <Score>
-5.968

$$$$
