/Users/jonathanwahrer/Desktop/Msc/3_Semester/Drug_Design_Praktikum/waehrer_HTS_screening/HTS_experiment/out/docking_results/vina_output/6y4q/0504_docked.pdbqt
 OpenBabel03232217423D

 29 32  0  0  1  0  0  0  0  0999 V2000
    2.8650  -13.5010  -41.0520 Br  0  0  0  0  0  0  0  0  0  0  0  0
    1.6980  -14.9490  -40.6650 C   0  0  0  0  0  0  0  0  0  0  0  0
    2.0060  -15.9410  -39.7650 C   0  0  0  0  0  3  0  0  0  0  0  0
    1.0940  -16.9700  -39.5360 C   0  0  0  0  0  0  0  0  0  0  0  0
   -0.1040  -17.0520  -40.1610 C   0  0  0  0  0  0  0  0  0  0  0  0
   -0.4180  -16.0430  -41.0760 C   0  0  0  0  0  3  0  0  0  0  0  0
    0.4700  -15.0190  -41.3150 C   0  0  0  0  0  3  0  0  0  0  0  0
   -0.8430  -18.1880  -39.7540 N   0  0  0  0  0  0  0  0  0  0  0  0
   -0.0660  -18.8810  -38.8060 C   0  0  0  0  0  0  0  0  0  0  0  0
   -0.3920  -19.9470  -38.2140 O   0  0  0  0  0  0  0  0  0  0  0  0
    1.2130  -18.1440  -38.6110 C   0  0  1  0  0  0  0  0  0  0  0  0
    2.3640  -18.9870  -39.0210 C   0  0  0  0  0  0  0  0  0  0  0  0
    3.3690  -19.2070  -38.2530 C   0  0  0  0  0  0  0  0  0  0  0  0
    3.4710  -18.6500  -36.9120 N   0  0  0  0  0  0  0  0  0  0  0  0
    2.3830  -17.8450  -36.5100 C   0  0  0  0  0  0  0  0  0  0  0  0
    1.3520  -17.6090  -37.2740 C   0  0  0  0  0  0  0  0  0  0  0  0
    0.3030  -16.7600  -36.7230 C   0  0  0  0  0  0  0  0  0  0  0  0
   -0.5410  -16.0870  -36.3030 N   0  0  0  0  0  0  0  0  0  0  0  0
    4.3390  -20.0890  -38.9720 C   0  0  0  0  0  0  0  0  0  0  0  0
    3.7700  -20.3310  -40.2050 O   0  0  0  0  0  0  0  0  0  0  0  0
    2.5690  -19.7010  -40.3230 C   0  0  0  0  0  0  0  0  0  0  0  0
    1.7500  -19.6790  -41.2910 O   0  0  0  0  0  0  0  0  0  0  0  0
    4.5920  -21.3480  -38.1640 C   0  0  0  0  0  1  0  0  0  0  0  0
    5.6560  -19.3680  -39.1940 C   0  0  0  0  0  1  0  0  0  0  0  0
   -2.1770  -18.6060  -40.2130 C   0  0  0  0  0  1  0  0  0  0  0  0
    4.3040  -18.8600  -36.3360 H   0  0  0  0  0  0  0  0  0  0  0  0
    2.4300  -17.2620  -35.1790 N   0  0  0  0  0  0  0  0  0  0  0  0
    1.6520  -16.6220  -34.9190 H   0  0  0  0  0  0  0  0  0  0  0  0
    3.1980  -17.4710  -34.5260 H   0  0  0  0  0  0  0  0  0  0  0  0
  1  2  1  0  0  0  0
  2  3  1  0  0  0  0
  3  4  2  0  0  0  0
  5  8  1  0  0  0  0
  5  4  1  0  0  0  0
  6  5  2  0  0  0  0
  7  6  1  0  0  0  0
  7  2  2  0  0  0  0
  8  9  1  0  0  0  0
  9 11  1  0  0  0  0
  9 10  2  0  0  0  0
 11  4  1  6  0  0  0
 11 16  1  0  0  0  0
 12 11  1  0  0  0  0
 12 13  2  0  0  0  0
 13 14  1  0  0  0  0
 14 15  1  0  0  0  0
 14 26  1  0  0  0  0
 15 27  1  0  0  0  0
 16 17  1  0  0  0  0
 16 15  2  0  0  0  0
 17 18  3  0  0  0  0
 19 13  1  0  0  0  0
 19 23  1  0  0  0  0
 20 19  1  0  0  0  0
 21 20  1  0  0  0  0
 21 12  1  0  0  0  0
 22 21  2  0  0  0  0
 24 19  1  0  0  0  0
 25  8  1  0  0  0  0
 27 28  1  0  0  0  0
 27 29  1  0  0  0  0
M  END
>  <Pose>
1

>  <Score>
-5.775

$$$$
