/Users/jonathanwahrer/Desktop/Msc/3_Semester/Drug_Design_Praktikum/waehrer_HTS_screening/HTS_experiment/out/docking_results/vina_output/6y4q/0513_docked.pdbqt
 OpenBabel03232217433D

 33 36  0  0  0  0  0  0  0  0999 V2000
    1.9750  -14.6130  -37.2510 N   0  0  0  0  0  0  0  0  0  0  0  0
    1.1730  -15.5070  -36.4930 C   0  0  0  0  0  0  0  0  0  0  0  0
    0.1420  -15.0450  -35.9780 O   0  0  0  0  0  0  0  0  0  0  0  0
    2.8480  -15.0000  -37.6710 H   0  0  0  0  0  0  0  0  0  0  0  0
    1.6620  -13.2810  -37.4500 N   0  0  0  0  0  0  0  0  0  0  0  0
    0.7090  -13.0180  -37.8240 H   0  0  0  0  0  0  0  0  0  0  0  0
    2.5340  -12.2170  -37.1870 C   0  0  0  0  0  3  0  0  0  0  0  0
    3.4160  -11.7290  -38.0320 C   0  0  0  0  0  0  0  0  0  0  0  0
    3.7090  -12.1450  -39.4080 C   0  0  0  0  0  0  0  0  0  0  0  0
    4.3400  -10.6140  -37.7720 C   0  0  0  0  0  0  0  0  0  0  0  0
    3.1820  -13.1270  -40.2180 C   0  0  0  0  0  3  0  0  0  0  0  0
    4.7090  -11.3690  -39.9440 C   0  0  0  0  0  0  0  0  0  0  0  0
    3.6140  -13.3520  -41.5250 C   0  0  0  0  0  0  0  0  0  0  0  0
    2.8240  -14.7360  -42.5860 Br  0  0  0  0  0  0  0  0  0  0  0  0
    4.6140  -12.5570  -42.0220 C   0  0  0  0  0  3  0  0  0  0  0  0
    5.1700  -11.5670  -41.2540 C   0  0  0  0  0  3  0  0  0  0  0  0
    5.1000  -10.4300  -38.9520 N   0  0  0  0  0  0  0  0  0  0  0  0
    5.8440   -9.7020  -39.0620 H   0  0  0  0  0  0  0  0  0  0  0  0
    4.4030   -9.9790  -36.6910 O   0  0  0  0  0  0  0  0  0  0  0  0
    1.5090  -16.9350  -36.3010 C   0  0  0  0  0  2  0  0  0  0  0  0
    1.2870  -17.6910  -37.4430 N   0  0  0  0  0  0  0  0  0  0  0  0
    2.0010  -18.6470  -38.0350 C   0  0  0  0  0  0  0  0  0  0  0  0
    1.3520  -19.0380  -39.1980 C   0  0  0  0  0  0  0  0  0  0  0  0
    3.1610  -19.2170  -37.6480 N   0  0  0  0  0  0  0  0  0  0  0  0
    0.2330  -18.2940  -39.2840 N   0  0  0  0  0  0  0  0  0  0  0  0
    1.8920  -20.0300  -39.9910 C   0  0  0  0  0  0  0  0  0  0  0  0
    0.1910  -17.4940  -38.2430 C   0  0  0  0  0  3  0  0  0  0  0  0
    1.2820  -20.3610  -41.0410 O   0  0  0  0  0  0  0  0  0  0  0  0
    3.0330  -20.5760  -39.5960 N   0  0  0  0  0  0  0  0  0  0  0  0
    3.6520  -20.1910  -38.4660 C   0  0  0  0  0  0  0  0  0  0  0  0
    3.6540  -21.6370  -40.4060 C   0  0  0  0  0  1  0  0  0  0  0  0
    4.7300  -20.7350  -38.1270 O   0  0  0  0  0  0  0  0  0  0  0  0
    3.8270  -18.8550  -36.4300 C   0  0  0  0  0  1  0  0  0  0  0  0
  1  2  1  0  0  0  0
  2 20  1  0  0  0  0
  2  3  2  0  0  0  0
  4  1  1  0  0  0  0
  5  1  1  0  0  0  0
  5  7  1  0  0  0  0
  6  5  1  0  0  0  0
  8 10  1  0  0  0  0
  8  7  2  0  0  0  0
  9  8  1  0  0  0  0
 10 19  2  0  0  0  0
 11  9  2  0  0  0  0
 12  9  1  0  0  0  0
 12 17  1  0  0  0  0
 13 11  1  0  0  0  0
 14 13  1  0  0  0  0
 15 13  2  0  0  0  0
 15 16  1  0  0  0  0
 16 12  2  0  0  0  0
 17 10  1  0  0  0  0
 18 17  1  0  0  0  0
 21 20  1  0  0  0  0
 22 24  1  0  0  0  0
 22 21  1  0  0  0  0
 23 22  2  0  0  0  0
 24 33  1  0  0  0  0
 25 23  1  0  0  0  0
 25 27  2  0  0  0  0
 26 29  1  0  0  0  0
 26 23  1  0  0  0  0
 27 21  1  0  0  0  0
 28 26  2  0  0  0  0
 29 30  1  0  0  0  0
 30 32  2  0  0  0  0
 30 24  1  0  0  0  0
 31 29  1  0  0  0  0
M  END
>  <Pose>
1

>  <Score>
-7.188

$$$$
