/Users/jonathanwahrer/Desktop/Msc/3_Semester/Drug_Design_Praktikum/waehrer_HTS_screening/HTS_experiment/out/docking_results/vina_output/6y4q/0526_docked.pdbqt
 OpenBabel03232217433D

 31 34  0  0  0  0  0  0  0  0999 V2000
    1.9970  -17.5100  -36.7420 N   0  0  0  0  0  0  0  0  0  0  0  0
    2.2780  -18.2950  -37.8760 C   0  0  0  0  0  0  0  0  0  0  0  0
    2.4440  -17.6990  -38.9980 O   0  0  0  0  0  0  0  0  0  0  0  0
    1.8450  -17.9870  -35.8120 H   0  0  0  0  0  0  0  0  0  0  0  0
    2.4170  -19.7530  -37.9380 C   0  0  0  0  0  2  0  0  0  0  0  0
    2.8230  -20.3000  -39.2020 N   0  0  0  0  0  0  0  0  0  0  0  0
    3.9000  -21.2250  -39.3050 C   0  0  0  0  0  0  0  0  0  0  0  0
    4.4820  -21.5320  -38.1920 O   0  0  0  0  0  0  0  0  0  0  0  0
    2.3670  -20.0330  -40.0870 H   0  0  0  0  0  0  0  0  0  0  0  0
    4.3870  -21.8320  -40.5050 C   0  0  0  0  0  0  0  0  0  0  0  0
    5.7030  -21.8050  -40.9430 C   0  0  0  0  0  3  0  0  0  0  0  0
    6.1010  -22.4080  -42.0870 C   0  0  0  0  0  0  0  0  0  0  0  0
    5.2020  -23.0890  -42.8840 C   0  0  0  0  0  0  0  0  0  0  0  0
    7.3630  -22.5540  -42.7730 O   0  0  0  0  0  0  0  0  0  0  0  0
    3.9000  -23.1380  -42.4960 C   0  0  0  0  0  3  0  0  0  0  0  0
    5.8940  -23.6130  -43.9880 O   0  0  0  0  0  0  0  0  0  0  0  0
    3.4700  -22.5220  -41.3110 C   0  0  0  0  0  3  0  0  0  0  0  0
    7.2070  -23.8620  -43.4300 C   0  0  0  0  0  2  0  0  0  0  0  0
    1.9220  -16.1660  -36.8430 N   0  0  0  0  0  0  0  0  0  0  0  0
    1.1580  -15.2570  -36.7510 C   0  0  0  0  0  0  0  0  0  0  0  0
    1.3300  -13.8080  -36.9180 C   0  0  0  0  0  0  0  0  0  0  0  0
   -0.2690  -15.4950  -36.3840 C   0  0  0  0  0  0  0  0  0  0  0  0
    2.4440  -13.0700  -37.2550 C   0  0  0  0  0  3  0  0  0  0  0  0
    0.1220  -13.2340  -36.6780 C   0  0  0  0  0  0  0  0  0  0  0  0
    2.3910  -11.7100  -37.3670 C   0  0  0  0  0  0  0  0  0  0  0  0
    3.9130  -10.6790  -37.8360 Br  0  0  0  0  0  0  0  0  0  0  0  0
    1.1650  -11.1010  -37.1250 C   0  0  0  0  0  3  0  0  0  0  0  0
    0.0590  -11.8410  -36.7900 C   0  0  0  0  0  3  0  0  0  0  0  0
   -0.8600  -14.1930  -36.3540 N   0  0  0  0  0  0  0  0  0  0  0  0
   -1.8700  -14.0240  -36.1280 H   0  0  0  0  0  0  0  0  0  0  0  0
   -0.7550  -16.6080  -36.1690 O   0  0  0  0  0  0  0  0  0  0  0  0
  1  4  1  0  0  0  0
  2  1  1  0  0  0  0
  3  2  2  0  0  0  0
  5  2  1  0  0  0  0
  6  5  1  0  0  0  0
  7  6  1  0  0  0  0
  7  8  2  0  0  0  0
  9  6  1  0  0  0  0
 10  7  1  0  0  0  0
 11 10  1  0  0  0  0
 12 11  2  0  0  0  0
 13 15  2  0  0  0  0
 13 12  1  0  0  0  0
 14 12  1  0  0  0  0
 15 17  1  0  0  0  0
 16 18  1  0  0  0  0
 16 13  1  0  0  0  0
 17 10  2  0  0  0  0
 18 14  1  0  0  0  0
 19 20  2  0  0  0  0
 19  1  1  0  0  0  0
 20 22  1  0  0  0  0
 21 20  1  0  0  0  0
 21 24  1  0  0  0  0
 22 29  1  0  0  0  0
 22 31  2  0  0  0  0
 23 21  2  0  0  0  0
 24 29  1  0  0  0  0
 25 23  1  0  0  0  0
 25 27  2  0  0  0  0
 26 25  1  0  0  0  0
 27 28  1  0  0  0  0
 28 24  2  0  0  0  0
 29 30  1  0  0  0  0
M  END
>  <Pose>
1

>  <Score>
-6.795

$$$$
