/Users/jonathanwahrer/Desktop/Msc/3_Semester/Drug_Design_Praktikum/waehrer_HTS_screening/HTS_experiment/out/docking_results/vina_output/6y4q/0550_docked.pdbqt
 OpenBabel03232217433D

 30 35  0  0  1  0  0  0  0  0999 V2000
    0.6900  -16.5050  -36.1830 Br  0  0  0  0  0  0  0  0  0  0  0  0
    1.4370  -16.8680  -37.9000 C   0  0  0  0  0  0  0  0  0  0  0  0
    2.3150  -17.9240  -38.1150 C   0  0  0  0  0  3  0  0  0  0  0  0
    2.8470  -18.1790  -39.3500 C   0  0  0  0  0  0  0  0  0  0  0  0
    2.4750  -17.3380  -40.3880 C   0  0  0  0  0  0  0  0  0  0  0  0
    1.6050  -16.2890  -40.1810 C   0  0  0  0  0  3  0  0  0  0  0  0
    1.0770  -16.0420  -38.9360 C   0  0  0  0  0  3  0  0  0  0  0  0
    3.1130  -17.7430  -41.6020 N   0  0  0  0  0  0  0  0  0  0  0  0
    3.9150  -18.8740  -41.3360 C   0  0  0  0  0  0  0  0  0  0  0  0
    4.5930  -19.4660  -42.1880 O   0  0  0  0  0  0  0  0  0  0  0  0
    3.7690  -19.1730  -39.8950 C   0  0  1  0  0  0  0  0  0  0  0  0
    5.0850  -19.1880  -39.3300 N   0  0  2  0  0  0  0  0  0  0  0  0
    5.6460  -20.4630  -39.7730 C   0  0  2  0  0  3  0  0  0  0  0  0
    4.5040  -21.4220  -39.8510 C   0  0  1  0  0  3  0  0  0  0  0  0
    3.2920  -20.5820  -39.6440 C   0  0  2  0  0  3  0  0  0  0  0  0
    2.3290  -21.0580  -40.6320 C   0  0  0  0  0  0  0  0  0  0  0  0
    1.1260  -20.7250  -40.7140 O   0  0  0  0  0  0  0  0  0  0  0  0
    2.9620  -21.9630  -41.5010 N   0  0  0  0  0  0  0  0  0  0  0  0
    4.3660  -22.0370  -41.2100 C   0  0  0  0  0  0  0  0  0  0  0  0
    5.2970  -22.5030  -41.9140 O   0  0  0  0  0  0  0  0  0  0  0  0
    6.5690  -20.9120  -38.6500 C   0  0  0  0  0  2  0  0  0  0  0  0
    6.5180  -19.8180  -37.6050 C   0  0  0  0  0  2  0  0  0  0  0  0
    5.1240  -19.2390  -37.8840 C   0  0  0  0  0  2  0  0  0  0  0  0
    2.9890  -17.2570  -42.5380 H   0  0  0  0  0  0  0  0  0  0  0  0
    2.3300  -22.7190  -42.5360 C   0  0  0  0  0  2  0  0  0  0  0  0
    1.4350  -23.8090  -42.0700 C   0  0  2  0  0  3  0  0  0  0  0  0
    1.9290  -25.0850  -42.3140 O   0  0  0  0  0  0  0  0  0  0  0  0
    0.8520  -25.9130  -42.0290 C   0  0  0  0  0  2  0  0  0  0  0  0
   -0.3990  -25.2240  -42.4750 C   0  0  0  0  0  2  0  0  0  0  0  0
    0.0400  -23.7640  -42.5940 C   0  0  0  0  0  2  0  0  0  0  0  0
  2  1  1  0  0  0  0
  3  2  1  0  0  0  0
  4  3  2  0  0  0  0
  5  6  2  0  0  0  0
  5  4  1  0  0  0  0
  6  7  1  0  0  0  0
  7  2  2  0  0  0  0
  8  9  1  0  0  0  0
  8  5  1  0  0  0  0
 10  9  2  0  0  0  0
 11  9  1  6  0  0  0
 11 15  1  0  0  0  0
 11  4  1  0  0  0  0
 11 12  1  0  0  0  0
 12 23  1  1  0  0  0
 13 12  1  0  0  0  0
 13 21  1  1  0  0  0
 14 19  1  6  0  0  0
 14 13  1  0  0  0  0
 14 15  1  0  0  0  0
 15 16  1  6  0  0  0
 17 16  2  0  0  0  0
 18 19  1  0  0  0  0
 18 16  1  0  0  0  0
 20 19  2  0  0  0  0
 21 22  1  0  0  0  0
 23 22  1  0  0  0  0
 24  8  1  0  0  0  0
 25 18  1  0  0  0  0
 26 25  1  6  0  0  0
 27 26  1  0  0  0  0
 27 28  1  0  0  0  0
 29 28  1  0  0  0  0
 30 29  1  0  0  0  0
 30 26  1  0  0  0  0
M  END
>  <Pose>
1

>  <Score>
-6.390

$$$$
