/Users/jonathanwahrer/Desktop/Msc/3_Semester/Drug_Design_Praktikum/waehrer_HTS_screening/HTS_experiment/out/docking_results/vina_output/6y4q/0556_docked.pdbqt
 OpenBabel03232217433D

 30 33  0  0  1  0  0  0  0  0999 V2000
    3.1630  -12.8740  -40.1970 Br  0  0  0  0  0  0  0  0  0  0  0  0
    2.2920  -13.6240  -38.6750 C   0  0  0  0  0  0  0  0  0  0  0  0
    1.5260  -14.7460  -38.8810 C   0  0  0  0  0  3  0  0  0  0  0  0
    0.8670  -15.3330  -37.7960 C   0  0  0  0  0  0  0  0  0  0  0  0
    0.9980  -14.7810  -36.5630 C   0  0  0  0  0  0  0  0  0  0  0  0
    1.7770  -13.6320  -36.3310 C   0  0  0  0  0  3  0  0  0  0  0  0
    2.4130  -13.0760  -37.4160 C   0  0  0  0  0  3  0  0  0  0  0  0
    0.2550  -15.5120  -35.6050 N   0  0  0  0  0  0  0  0  0  0  0  0
   -0.3680  -16.5680  -36.2720 C   0  0  0  0  0  0  0  0  0  0  0  0
   -1.1440  -17.4650  -35.7590 O   0  0  0  0  0  0  0  0  0  0  0  0
    0.0100  -16.5050  -37.7150 C   0  0  2  0  0  0  0  0  0  0  0  0
    0.6100  -17.7770  -38.0260 C   0  0  0  0  0  0  0  0  0  0  0  0
    0.0130  -18.6490  -38.8570 C   0  0  0  0  0  0  0  0  0  0  0  0
    0.8340  -19.7470  -38.9400 N   0  0  0  0  0  0  0  0  0  0  0  0
    1.8890  -19.5380  -38.1810 N   0  0  0  0  0  0  0  0  0  0  0  0
    1.8220  -18.3470  -37.5860 C   0  0  0  0  0  0  0  0  0  0  0  0
    2.7990  -17.7180  -36.6500 C   0  0  0  0  0  1  0  0  0  0  0  0
   -1.2220  -18.4000  -39.4830 O   0  0  0  0  0  0  0  0  0  0  0  0
   -1.8170  -17.1780  -39.1970 C   0  0  0  0  0  0  0  0  0  0  0  0
   -1.2880  -16.2980  -38.4010 C   0  0  0  0  0  0  0  0  0  0  0  0
    0.1640  -15.3240  -34.5660 H   0  0  0  0  0  0  0  0  0  0  0  0
    0.6480  -20.6030  -39.5100 H   0  0  0  0  0  0  0  0  0  0  0  0
   -2.0110  -15.0150  -38.1610 C   0  0  0  0  0  0  0  0  0  0  0  0
   -2.0980  -14.2120  -39.1070 O   0  0  0  0  0  0  0  0  0  0  0  0
   -2.5780  -14.6880  -36.9600 O   0  0  0  0  0  0  0  0  0  0  0  0
   -3.0790  -13.4150  -36.6280 C   0  0  0  0  0  2  0  0  0  0  0  0
   -1.9360  -12.6340  -35.9710 C   0  0  0  0  0  1  0  0  0  0  0  0
   -3.0880  -16.8490  -39.8010 N   0  0  0  0  0  0  0  0  0  0  0  0
   -3.1680  -16.9100  -40.8190 H   0  0  0  0  0  0  0  0  0  0  0  0
   -3.8670  -16.5680  -39.2040 H   0  0  0  0  0  0  0  0  0  0  0  0
  1  2  1  0  0  0  0
  2  7  1  0  0  0  0
  3  2  2  0  0  0  0
  3  4  1  0  0  0  0
  4 11  1  0  0  0  0
  4  5  2  0  0  0  0
  5  6  1  0  0  0  0
  5  8  1  0  0  0  0
  7  6  2  0  0  0  0
  8 21  1  0  0  0  0
  9 10  2  0  0  0  0
  9  8  1  0  0  0  0
 11 20  1  6  0  0  0
 11  9  1  0  0  0  0
 12 11  1  0  0  0  0
 12 16  1  0  0  0  0
 13 12  2  0  0  0  0
 14 13  1  0  0  0  0
 14 15  1  0  0  0  0
 15 16  2  0  0  0  0
 16 17  1  0  0  0  0
 18 19  1  0  0  0  0
 18 13  1  0  0  0  0
 19 20  2  0  0  0  0
 20 23  1  0  0  0  0
 22 14  1  0  0  0  0
 23 25  1  0  0  0  0
 24 23  2  0  0  0  0
 25 26  1  0  0  0  0
 26 27  1  0  0  0  0
 28 30  1  0  0  0  0
 28 19  1  0  0  0  0
 29 28  1  0  0  0  0
M  END
>  <Pose>
1

>  <Score>
-5.330

$$$$
