/Users/jonathanwahrer/Desktop/Msc/3_Semester/Drug_Design_Praktikum/waehrer_HTS_screening/HTS_experiment/out/docking_results/vina_output/6y4q/0558_docked.pdbqt
 OpenBabel03232217433D

 29 32  0  0  1  0  0  0  0  0999 V2000
    3.3340  -12.7890  -40.0730 Br  0  0  0  0  0  0  0  0  0  0  0  0
    2.3990  -13.6000  -38.6330 C   0  0  0  0  0  0  0  0  0  0  0  0
    1.7140  -14.8100  -38.7790 C   0  0  0  0  0  3  0  0  0  0  0  0
    1.0430  -15.3880  -37.7350 C   0  0  0  0  0  0  0  0  0  0  0  0
    1.0390  -14.7700  -36.5190 C   0  0  0  0  0  0  0  0  0  0  0  0
    1.7110  -13.5560  -36.3210 C   0  0  0  0  0  3  0  0  0  0  0  0
    2.3760  -13.0000  -37.3880 C   0  0  0  0  0  3  0  0  0  0  0  0
    0.2940  -15.5200  -35.5730 N   0  0  0  0  0  0  0  0  0  0  0  0
   -0.1920  -16.6630  -36.2320 C   0  0  0  0  0  0  0  0  0  0  0  0
   -0.8990  -17.5890  -35.7560 O   0  0  0  0  0  0  0  0  0  0  0  0
    0.2610  -16.6340  -37.6400 C   0  0  1  0  0  0  0  0  0  0  0  0
   -0.9310  -16.5850  -38.5470 C   0  0  0  0  0  0  0  0  0  0  0  0
   -1.1910  -17.4350  -39.5050 C   0  0  0  0  0  0  0  0  0  0  0  0
   -0.2820  -18.4980  -39.7200 N   0  0  0  0  0  0  0  0  0  0  0  0
    0.8760  -18.6270  -38.9110 C   0  0  0  0  0  0  0  0  0  0  0  0
    1.1390  -17.7760  -37.9490 C   0  0  0  0  0  0  0  0  0  0  0  0
    2.3570  -17.9810  -37.1590 C   0  0  0  0  0  0  0  0  0  0  0  0
    3.3090  -18.1300  -36.5210 N   0  0  0  0  0  0  0  0  0  0  0  0
   -2.4590  -17.0330  -40.1610 C   0  0  0  0  0  0  0  0  0  0  0  0
   -2.9150  -15.8780  -39.5050 O   0  0  0  0  0  0  0  0  0  0  0  0
   -2.0040  -15.5760  -38.5110 C   0  0  0  0  0  0  0  0  0  0  0  0
   -2.0950  -14.5850  -37.7080 O   0  0  0  0  0  0  0  0  0  0  0  0
   -3.5390  -18.0980  -39.9540 C   0  0  0  0  0  1  0  0  0  0  0  0
   -2.2520  -16.7860  -41.6490 C   0  0  0  0  0  1  0  0  0  0  0  0
    0.1430  -15.2480  -34.5520 H   0  0  0  0  0  0  0  0  0  0  0  0
   -0.4390  -19.2130  -40.4770 H   0  0  0  0  0  0  0  0  0  0  0  0
    1.7950  -19.7280  -39.1500 N   0  0  0  0  0  0  0  0  0  0  0  0
    2.2630  -19.8900  -40.0570 H   0  0  0  0  0  0  0  0  0  0  0  0
    1.9830  -20.3750  -38.3670 H   0  0  0  0  0  0  0  0  0  0  0  0
  1  2  1  0  0  0  0
  2  7  1  0  0  0  0
  3  2  2  0  0  0  0
  3  4  1  0  0  0  0
  4 11  1  0  0  0  0
  4  5  2  0  0  0  0
  5  6  1  0  0  0  0
  5  8  1  0  0  0  0
  7  6  2  0  0  0  0
  8 25  1  0  0  0  0
  9 10  2  0  0  0  0
  9  8  1  0  0  0  0
 11 12  1  6  0  0  0
 11  9  1  0  0  0  0
 12 21  1  0  0  0  0
 13 12  2  0  0  0  0
 14 13  1  0  0  0  0
 14 15  1  0  0  0  0
 15 16  2  0  0  0  0
 16 11  1  0  0  0  0
 16 17  1  0  0  0  0
 17 18  3  0  0  0  0
 19 23  1  0  0  0  0
 19 20  1  0  0  0  0
 19 13  1  0  0  0  0
 20 21  1  0  0  0  0
 21 22  2  0  0  0  0
 24 19  1  0  0  0  0
 26 14  1  0  0  0  0
 27 15  1  0  0  0  0
 27 29  1  0  0  0  0
 28 27  1  0  0  0  0
M  END
>  <Pose>
1

>  <Score>
-5.885

$$$$
