/Users/jonathanwahrer/Desktop/Msc/3_Semester/Drug_Design_Praktikum/waehrer_HTS_screening/HTS_experiment/out/docking_results/vina_output/6y4q/0578_docked.pdbqt
 OpenBabel03232217443D

 27 30  0  0  1  0  0  0  0  0999 V2000
   -2.1600  -19.8720  -37.4730 Br  0  0  0  0  0  0  0  0  0  0  0  0
   -0.8160  -20.2210  -38.7850 C   0  0  0  0  0  0  0  0  0  0  0  0
    0.5170  -20.0070  -38.5420 C   0  0  0  0  0  3  0  0  0  0  0  0
    1.5330  -20.2520  -39.4820 C   0  0  0  0  0  0  0  0  0  0  0  0
    1.1410  -20.7300  -40.6960 C   0  0  0  0  0  0  0  0  0  0  0  0
   -0.2220  -20.9540  -40.9640 C   0  0  0  0  0  3  0  0  0  0  0  0
   -1.1930  -20.7040  -40.0220 C   0  0  0  0  0  3  0  0  0  0  0  0
    2.2640  -20.9420  -41.5410 N   0  0  0  0  0  0  0  0  0  0  0  0
    3.4120  -20.5760  -40.8110 C   0  0  0  0  0  0  0  0  0  0  0  0
    4.6220  -20.6410  -41.2380 O   0  0  0  0  0  0  0  0  0  0  0  0
    2.9740  -20.1110  -39.4820 C   0  0  2  0  0  0  0  0  0  0  0  0
    3.5830  -21.0850  -38.5590 N   0  0  0  0  0  0  0  0  0  0  0  0
    4.7490  -20.4950  -37.9790 C   0  0  2  0  0  3  0  0  0  0  0  0
    4.4670  -19.0380  -37.9840 C   0  0  1  0  0  3  0  0  0  0  0  0
    3.5170  -18.7780  -39.1210 C   0  0  2  0  0  3  0  0  0  0  0  0
    2.6100  -17.7870  -38.5890 C   0  0  0  0  0  0  0  0  0  0  0  0
    1.8140  -17.0850  -39.2800 O   0  0  0  0  0  0  0  0  0  0  0  0
    2.7580  -17.7300  -37.1770 N   0  0  0  0  0  0  0  0  0  0  0  0
    3.6880  -18.7140  -36.7480 C   0  0  0  0  0  0  0  0  0  0  0  0
    3.7770  -19.1580  -35.5860 O   0  0  0  0  0  0  0  0  0  0  0  0
    6.0470  -20.8530  -38.6650 C   0  0  0  0  0  1  0  0  0  0  0  0
    2.2610  -21.3060  -42.5390 H   0  0  0  0  0  0  0  0  0  0  0  0
    2.8960  -21.3900  -37.8350 H   0  0  0  0  0  0  0  0  0  0  0  0
    2.0320  -16.7800  -36.3450 C   0  0  0  0  0  2  0  0  0  0  0  0
    0.5950  -17.1670  -36.1720 C   0  0  0  0  0  2  0  0  0  0  0  0
   -0.3580  -16.0210  -36.3790 C   0  0  0  0  0  2  0  0  0  0  0  0
    0.4840  -14.7410  -36.3180 C   0  0  0  0  0  1  0  0  0  0  0  0
  2  3  1  0  0  0  0
  2  1  1  0  0  0  0
  4 11  1  0  0  0  0
  4  3  2  0  0  0  0
  5  4  1  0  0  0  0
  6  5  2  0  0  0  0
  6  7  1  0  0  0  0
  7  2  2  0  0  0  0
  8  9  1  0  0  0  0
  8  5  1  0  0  0  0
 10  9  2  0  0  0  0
 11  9  1  6  0  0  0
 11 15  1  0  0  0  0
 11 12  1  0  0  0  0
 12 13  1  0  0  0  0
 12 23  1  0  0  0  0
 13 21  1  6  0  0  0
 14 13  1  0  0  0  0
 14 19  1  1  0  0  0
 15 16  1  1  0  0  0
 15 14  1  0  0  0  0
 16 18  1  0  0  0  0
 17 16  2  0  0  0  0
 18 19  1  0  0  0  0
 18 24  1  0  0  0  0
 19 20  2  0  0  0  0
 22  8  1  0  0  0  0
 24 25  1  0  0  0  0
 26 27  1  0  0  0  0
 26 25  1  0  0  0  0
M  END
>  <Pose>
1

>  <Score>
-5.779

$$$$
