/Users/jonathanwahrer/Desktop/Msc/3_Semester/Drug_Design_Praktikum/waehrer_HTS_screening/HTS_experiment/out/docking_results/vina_output/6y4q/0579_docked.pdbqt
 OpenBabel03232217443D

 32 35  0  0  1  0  0  0  0  0999 V2000
    3.7730  -12.3340  -40.8160 Br  0  0  0  0  0  0  0  0  0  0  0  0
    2.9190  -13.0400  -39.2640 C   0  0  0  0  0  0  0  0  0  0  0  0
    2.4180  -14.3210  -39.2030 C   0  0  0  0  0  3  0  0  0  0  0  0
    1.7960  -14.8320  -38.0650 C   0  0  0  0  0  0  0  0  0  0  0  0
    1.6700  -14.0340  -36.9550 C   0  0  0  0  0  0  0  0  0  0  0  0
    2.1640  -12.7400  -36.9860 C   0  0  0  0  0  3  0  0  0  0  0  0
    2.7850  -12.2520  -38.1420 C   0  0  0  0  0  3  0  0  0  0  0  0
    1.0120  -14.7500  -35.9060 N   0  0  0  0  0  0  0  0  0  0  0  0
    0.7120  -16.0530  -36.3800 C   0  0  0  0  0  0  0  0  0  0  0  0
    0.1450  -16.9190  -35.6860 O   0  0  0  0  0  0  0  0  0  0  0  0
    1.1780  -16.1530  -37.7530 C   0  0  2  0  0  0  0  0  0  0  0  0
    2.1840  -17.2130  -37.7920 N   0  0  0  0  0  0  0  0  0  0  0  0
    1.9760  -17.9000  -39.0330 C   0  0  2  0  0  3  0  0  0  0  0  0
    0.5010  -17.8920  -39.2020 C   0  0  2  0  0  3  0  0  0  0  0  0
    0.1270  -16.4940  -38.7680 C   0  0  1  0  0  3  0  0  0  0  0  0
   -1.2320  -16.6170  -38.2590 C   0  0  0  0  0  0  0  0  0  0  0  0
   -2.0370  -15.6770  -38.0830 O   0  0  0  0  0  0  0  0  0  0  0  0
   -1.4760  -17.9940  -37.9980 N   0  0  0  0  0  0  0  0  0  0  0  0
   -0.2500  -18.7270  -38.2320 C   0  0  0  0  0  0  0  0  0  0  0  0
   -0.0010  -19.8100  -37.6790 O   0  0  0  0  0  0  0  0  0  0  0  0
    0.7980  -14.3480  -34.9510 H   0  0  0  0  0  0  0  0  0  0  0  0
    2.0220  -17.8980  -37.0160 H   0  0  0  0  0  0  0  0  0  0  0  0
    2.6220  -19.2410  -39.0940 C   0  0  0  0  0  2  0  0  0  0  0  0
    3.6630  -19.3420  -38.0650 C   0  0  0  0  0  0  0  0  0  0  0  0
    3.3380  -19.5860  -36.8690 O   0  0  0  0  0  0  0  0  0  0  0  0
    5.0390  -19.1680  -38.3970 N   0  0  0  0  0  0  0  0  0  0  0  0
    5.7760  -19.6610  -37.8530 H   0  0  0  0  0  0  0  0  0  0  0  0
    5.3000  -18.5430  -39.1870 H   0  0  0  0  0  0  0  0  0  0  0  0
   -2.7400  -18.5260  -37.5790 C   0  0  0  0  0  2  0  0  0  0  0  0
   -3.0160  -18.4420  -36.1150 C   0  0  0  0  0  2  0  0  0  0  0  0
   -4.3450  -18.1850  -35.8210 O   0  0  0  0  0  0  0  0  0  0  0  0
   -4.8500  -17.1410  -36.5920 C   0  0  0  0  0  1  0  0  0  0  0  0
  1  2  1  0  0  0  0
  2  3  2  0  0  0  0
  2  7  1  0  0  0  0
  3  4  1  0  0  0  0
  4  5  2  0  0  0  0
  5  8  1  0  0  0  0
  6  5  1  0  0  0  0
  7  6  2  0  0  0  0
  8 21  1  0  0  0  0
  9  8  1  0  0  0  0
  9 10  2  0  0  0  0
 11  4  1  6  0  0  0
 11  9  1  0  0  0  0
 12 11  1  0  0  0  0
 12 22  1  0  0  0  0
 13 23  1  1  0  0  0
 13 12  1  0  0  0  0
 14 13  1  0  0  0  0
 14 15  1  0  0  0  0
 14 19  1  1  0  0  0
 15 16  1  1  0  0  0
 15 11  1  0  0  0  0
 16 17  2  0  0  0  0
 16 18  1  0  0  0  0
 18 29  1  0  0  0  0
 19 18  1  0  0  0  0
 19 20  2  0  0  0  0
 23 24  1  0  0  0  0
 24 25  2  0  0  0  0
 26 24  1  0  0  0  0
 26 27  1  0  0  0  0
 28 26  1  0  0  0  0
 29 30  1  0  0  0  0
 30 31  1  0  0  0  0
 32 31  1  0  0  0  0
M  END
>  <Pose>
1

>  <Score>
-5.974

$$$$
