/Users/jonathanwahrer/Desktop/Msc/3_Semester/Drug_Design_Praktikum/waehrer_HTS_screening/HTS_experiment/out/docking_results/vina_output/6y4q/0588_docked.pdbqt
 OpenBabel03232217443D

 24 27  0  0  1  0  0  0  0  0999 V2000
    1.4310  -13.2410  -36.3590 Br  0  0  0  0  0  0  0  0  0  0  0  0
    1.6760  -14.3850  -37.8620 C   0  0  0  0  0  0  0  0  0  0  0  0
    1.4760  -15.7250  -37.6960 C   0  0  0  0  0  3  0  0  0  0  0  0
    1.6480  -16.5800  -38.7720 C   0  0  0  0  0  0  0  0  0  0  0  0
    2.0210  -16.0790  -40.0130 C   0  0  0  0  0  0  0  0  0  0  0  0
    2.2270  -14.7270  -40.1970 C   0  0  0  0  0  3  0  0  0  0  0  0
    2.0450  -13.9160  -39.1000 C   0  0  0  0  0  3  0  0  0  0  0  0
    2.2240  -16.8530  -41.1780 N   0  0  0  0  0  0  0  0  0  0  0  0
    2.1390  -16.3040  -42.3950 N   0  0  0  0  0  0  0  0  0  0  0  0
    2.3750  -17.2690  -43.2420 N   0  0  0  0  0  0  0  0  0  0  0  0
    2.6050  -18.4020  -42.5990 N   0  0  0  0  0  0  0  0  0  0  0  0
    2.5090  -18.1410  -41.2630 C   0  0  0  0  0  0  0  0  0  0  0  0
    2.7160  -19.2160  -40.2320 C   0  0  2  0  0  0  0  0  0  0  0  0
    1.7240  -19.1060  -39.1650 N   0  0  0  0  0  0  0  0  0  0  0  0
    1.3840  -17.9700  -38.3790 C   0  0  0  0  0  0  0  0  0  0  0  0
    0.8170  -18.1640  -37.2680 O   0  0  0  0  0  0  0  0  0  0  0  0
    4.0490  -18.9310  -39.5950 C   0  0  0  0  0  2  0  0  0  0  0  0
    4.5710  -20.1680  -38.9400 C   0  0  0  0  0  0  0  0  0  0  0  0
    4.7690  -21.0980  -39.9260 O   0  0  0  0  0  0  0  0  0  0  0  0
    3.6370  -21.5460  -40.5520 C   0  0  0  0  0  3  0  0  0  0  0  0
    2.6130  -20.5480  -40.8800 C   0  0  0  0  0  3  0  0  0  0  0  0
    5.9450  -19.8740  -38.3250 C   0  0  0  0  0  1  0  0  0  0  0  0
    3.7030  -20.6620  -37.8130 C   0  0  0  0  0  1  0  0  0  0  0  0
    1.1710  -19.9850  -38.9280 H   0  0  0  0  0  0  0  0  0  0  0  0
  2  3  1  0  0  0  0
  2  1  1  0  0  0  0
  4 15  1  0  0  0  0
  4  3  2  0  0  0  0
  5  4  1  0  0  0  0
  6  5  2  0  0  0  0
  6  7  1  0  0  0  0
  7  2  2  0  0  0  0
  8  5  1  0  0  0  0
  9  8  1  0  0  0  0
 10 11  1  0  0  0  0
 10  9  2  0  0  0  0
 11 12  2  0  0  0  0
 12  8  1  0  0  0  0
 12 13  1  0  0  0  0
 13 21  1  6  0  0  0
 13 17  1  0  0  0  0
 13 14  1  0  0  0  0
 14 24  1  0  0  0  0
 14 15  1  0  0  0  0
 15 16  2  0  0  0  0
 17 18  1  0  0  0  0
 18 22  1  0  0  0  0
 18 23  1  0  0  0  0
 19 18  1  0  0  0  0
 20 19  1  0  0  0  0
 21 20  2  0  0  0  0
M  END
>  <Pose>
1

>  <Score>
-6.001

$$$$
