/Users/jonathanwahrer/Desktop/Msc/3_Semester/Drug_Design_Praktikum/waehrer_HTS_screening/HTS_experiment/out/docking_results/vina_output/6y4q/0611_docked.pdbqt
 OpenBabel03232217453D

 33 36  0  0  0  0  0  0  0  0999 V2000
   -1.3360   -9.8380  -35.8310 Br  0  0  0  0  0  0  0  0  0  0  0  0
   -0.8840  -11.6430  -36.2750 C   0  0  0  0  0  0  0  0  0  0  0  0
    0.3290  -11.9750  -36.8510 C   0  0  0  0  0  3  0  0  0  0  0  0
    0.6830  -13.2650  -37.1820 C   0  0  0  0  0  0  0  0  0  0  0  0
   -0.1980  -14.3010  -36.9380 C   0  0  0  0  0  0  0  0  0  0  0  0
    0.1280  -15.5770  -37.2640 N   0  0  0  0  0  0  0  0  0  0  0  0
    1.3030  -15.8980  -37.8300 C   0  0  0  0  0  0  0  0  0  0  0  0
    2.1630  -14.8910  -38.0660 N   0  0  0  0  0  0  0  0  0  0  0  0
    1.8850  -13.6010  -37.7610 C   0  0  0  0  0  0  0  0  0  0  0  0
   -1.4090  -13.9800  -36.3640 C   0  0  0  0  0  3  0  0  0  0  0  0
   -1.7610  -12.6780  -36.0320 C   0  0  0  0  0  3  0  0  0  0  0  0
    1.6120  -17.2480  -38.1570 N   0  0  0  0  0  4  0  0  0  0  0  0
    2.0440  -17.3620  -39.5320 C   0  0  0  0  0  2  0  0  0  0  0  0
    2.7710  -18.6600  -39.6950 C   0  0  0  0  0  2  0  0  0  0  0  0
    2.4780  -19.5010  -38.5530 N   0  0  0  0  0  0  0  0  0  0  0  0
    1.0960  -19.5680  -38.1130 C   0  0  0  0  0  2  0  0  0  0  0  0
    3.5280  -20.2010  -37.9350 C   0  0  0  0  0  0  0  0  0  0  0  0
    0.5120  -18.1580  -37.9670 C   0  0  0  0  0  2  0  0  0  0  0  0
    3.2500  -20.9200  -36.9430 O   0  0  0  0  0  0  0  0  0  0  0  0
    2.3840  -17.5480  -37.5260 H   0  0  0  0  0  0  0  0  0  0  0  0
    4.9130  -20.1170  -38.4030 C   0  0  0  0  0  2  0  0  0  0  0  0
    5.3750  -21.4650  -38.8750 C   0  0  0  0  0  2  0  0  0  0  0  0
    5.8080  -21.4570  -40.3240 C   0  0  0  0  0  2  0  0  0  0  0  0
    4.8800  -22.1870  -41.2100 C   0  0  0  0  0  0  0  0  0  0  0  0
    3.6550  -22.1090  -40.9530 O   0  0  0  0  0  1  0  0  0  0  0  0
    5.3710  -22.9220  -42.2790 O   0  0  0  0  0  0  0  0  0  0  0  0
    2.8520  -12.5500  -38.0410 C   0  0  0  0  0  0  0  0  0  0  0  0
    3.2570  -12.2540  -39.3330 C   0  0  0  0  0  0  0  0  0  0  0  0
    4.1900  -11.2710  -39.6110 C   0  0  0  0  0  3  0  0  0  0  0  0
    2.5700  -13.1570  -40.6740 Cl  0  0  0  0  0  0  0  0  0  0  0  0
    4.7250  -10.5640  -38.5280 C   0  0  0  0  0  3  0  0  0  0  0  0
    4.3430  -10.8330  -37.2300 C   0  0  0  0  0  3  0  0  0  0  0  0
    3.4250  -11.8090  -37.0050 C   0  0  0  0  0  3  0  0  0  0  0  0
  2 11  1  0  0  0  0
  2  1  1  0  0  0  0
  3  2  2  0  0  0  0
  4  5  2  0  0  0  0
  4  3  1  0  0  0  0
  5 10  1  0  0  0  0
  6  5  1  0  0  0  0
  7  6  2  0  0  0  0
  8  7  1  0  0  0  0
  8  9  2  0  0  0  0
  9  4  1  0  0  0  0
 10 11  2  0  0  0  0
 12 18  1  0  0  0  0
 12  7  1  0  0  0  0
 12 20  1  0  0  0  0
 13 12  1  0  0  0  0
 14 13  1  0  0  0  0
 14 15  1  0  0  0  0
 15 16  1  0  0  0  0
 15 17  1  0  0  0  0
 16 18  1  0  0  0  0
 17 19  2  0  0  0  0
 21 17  1  0  0  0  0
 22 21  1  0  0  0  0
 23 22  1  0  0  0  0
 24 25  1  0  0  0  0
 24 23  1  0  0  0  0
 26 24  2  0  0  0  0
 27  9  1  0  0  0  0
 27 33  1  0  0  0  0
 28 27  2  0  0  0  0
 29 28  1  0  0  0  0
 29 31  2  0  0  0  0
 30 28  1  0  0  0  0
 31 32  1  0  0  0  0
 32 33  2  0  0  0  0
M  END
>  <Pose>
1

>  <Score>
-7.191

$$$$
