/Users/jonathanwahrer/Desktop/Msc/3_Semester/Drug_Design_Praktikum/waehrer_HTS_screening/HTS_experiment/out/docking_results/vina_output/6y4q/0624_docked.pdbqt
 OpenBabel03232217463D

 22 25  0  0  0  0  0  0  0  0999 V2000
    5.8230  -17.8630  -43.5270 Br  0  0  0  0  0  0  0  0  0  0  0  0
    5.1000  -18.6270  -41.9390 C   0  0  0  0  0  0  0  0  0  0  0  0
    5.7690  -19.6720  -41.3370 C   0  0  0  0  0  3  0  0  0  0  0  0
    5.2630  -20.2560  -40.1690 C   0  0  0  0  0  0  0  0  0  0  0  0
    4.1060  -19.7640  -39.6560 C   0  0  0  0  0  0  0  0  0  0  0  0
    3.4030  -18.7230  -40.2210 C   0  0  0  0  0  0  0  0  0  0  0  0
    3.9170  -18.1680  -41.3640 C   0  0  0  0  0  3  0  0  0  0  0  0
    2.2490  -18.3270  -39.5980 C   0  0  0  0  0  0  0  0  0  0  0  0
    1.6050  -17.3900  -40.0960 O   0  0  0  0  0  0  0  0  0  0  0  0
    1.7780  -18.9290  -38.4400 C   0  0  0  0  0  0  0  0  0  0  0  0
    2.5290  -19.9650  -37.9270 C   0  0  0  0  0  3  0  0  0  0  0  0
    3.6860  -20.3690  -38.5440 N   0  0  0  0  0  0  0  0  0  0  0  0
    4.6450  -21.4030  -38.2280 C   0  0  0  0  0  3  0  0  0  0  0  0
    5.7070  -21.3530  -39.2930 C   0  0  0  0  0  3  0  0  0  0  0  0
    0.5470  -18.4950  -37.7880 C   0  0  0  0  0  0  0  0  0  0  0  0
   -0.5270  -19.0790  -38.0610 O   0  0  0  0  0  0  0  0  0  0  0  0
    0.5580  -17.4140  -36.8460 N   0  0  0  0  0  0  0  0  0  0  0  0
   -0.6480  -16.9630  -36.1860 C   0  0  0  0  0  2  0  0  0  0  0  0
    1.7880  -16.7230  -36.5160 C   0  0  0  0  0  2  0  0  0  0  0  0
   -0.7390  -15.4550  -36.4520 C   0  0  0  0  0  2  0  0  0  0  0  0
    0.4380  -14.8550  -36.0720 O   0  0  0  0  0  0  0  0  0  0  0  0
    1.5350  -15.2420  -36.8120 C   0  0  0  0  0  2  0  0  0  0  0  0
  1  2  1  0  0  0  0
  2  7  2  0  0  0  0
  2  3  1  0  0  0  0
  3  4  2  0  0  0  0
  4  5  1  0  0  0  0
  4 14  1  0  0  0  0
  5 12  1  0  0  0  0
  6  5  2  0  0  0  0
  6  8  1  0  0  0  0
  7  6  1  0  0  0  0
  8 10  1  0  0  0  0
  9  8  2  0  0  0  0
 10 11  2  0  0  0  0
 10 15  1  0  0  0  0
 12 13  1  0  0  0  0
 12 11  1  0  0  0  0
 14 13  2  0  0  0  0
 15 17  1  0  0  0  0
 16 15  2  0  0  0  0
 17 19  1  0  0  0  0
 17 18  1  0  0  0  0
 20 18  1  0  0  0  0
 20 21  1  0  0  0  0
 22 19  1  0  0  0  0
 22 21  1  0  0  0  0
M  END
>  <Pose>
1

>  <Score>
-5.798

$$$$
