/Users/jonathanwahrer/Desktop/Msc/3_Semester/Drug_Design_Praktikum/waehrer_HTS_screening/HTS_experiment/out/docking_results/vina_output/6y4q/0625_docked.pdbqt
 OpenBabel03232217463D

 31 34  0  0  0  0  0  0  0  0999 V2000
    5.8280  -19.2850  -37.8610 Br  0  0  0  0  0  0  0  0  0  0  0  0
    3.9510  -19.3240  -38.0210 C   0  0  0  0  0  0  0  0  0  0  0  0
    3.1570  -18.3640  -37.4160 C   0  0  0  0  0  3  0  0  0  0  0  0
    1.7950  -18.3800  -37.5030 C   0  0  0  0  0  0  0  0  0  0  0  0
    0.8660  -17.4960  -37.0280 N   0  0  0  0  0  0  0  0  0  0  0  0
   -0.3380  -17.9220  -37.4480 C   0  0  0  0  0  0  0  0  0  0  0  0
   -0.1750  -19.1250  -38.1860 C   0  0  0  0  0  0  0  0  0  0  0  0
    1.1770  -19.3590  -38.1970 C   0  0  0  0  0  0  0  0  0  0  0  0
    1.9560  -20.3390  -38.8180 C   0  0  0  0  0  3  0  0  0  0  0  0
    3.3410  -20.3340  -38.7410 C   0  0  0  0  0  0  0  0  0  0  0  0
    1.2140  -16.5110  -35.9860 C   0  0  0  0  0  2  0  0  0  0  0  0
    1.3510  -15.1650  -36.7320 C   0  0  0  0  0  0  0  0  0  0  0  0
    0.9280  -14.0670  -36.0410 C   0  0  0  0  0  3  0  0  0  0  0  0
    1.0330  -12.8060  -36.6510 C   0  0  0  0  0  3  0  0  0  0  0  0
    1.5470  -12.6320  -37.9010 C   0  0  0  0  0  3  0  0  0  0  0  0
    1.9700  -13.7830  -38.5660 C   0  0  0  0  0  3  0  0  0  0  0  0
    1.8660  -15.0470  -37.9710 C   0  0  0  0  0  3  0  0  0  0  0  0
   -1.6520  -17.2950  -37.3010 C   0  0  0  0  0  2  0  0  0  0  0  0
   -1.9840  -16.1800  -38.1320 N   0  0  0  0  0  4  0  0  0  0  0  0
   -1.4710  -15.7780  -39.3200 C   0  0  0  0  0  2  0  0  0  0  0  0
   -1.5260  -14.2320  -39.3590 C   0  0  0  0  0  2  0  0  0  0  0  0
   -2.6880  -13.9840  -38.4000 C   0  0  0  0  0  2  0  0  0  0  0  0
   -2.3140  -14.9940  -37.3230 C   0  0  0  0  0  2  0  0  0  0  0  0
   -3.1010  -16.4760  -38.3720 H   0  0  0  0  0  0  0  0  0  0  0  0
   -1.2180  -20.0400  -38.6690 C   0  0  0  0  0  0  0  0  0  0  0  0
   -1.6170  -20.9320  -37.8730 O   0  0  0  0  0  0  0  0  0  0  0  0
   -1.8000  -19.9990  -39.8920 O   0  0  0  0  0  0  0  0  0  0  0  0
   -1.3660  -20.4180  -41.1350 C   0  0  0  0  0  2  0  0  0  0  0  0
   -0.6020  -21.7360  -41.1300 C   0  0  0  0  0  1  0  0  0  0  0  0
    4.1530  -21.3000  -39.3620 O   0  0  0  0  0  0  0  0  0  0  0  0
    3.7210  -21.9700  -40.0150 H   0  0  0  0  0  0  0  0  0  0  0  0
  2  1  1  0  0  0  0
  2  3  1  0  0  0  0
  4  3  2  0  0  0  0
  4  5  1  0  0  0  0
  5 11  1  0  0  0  0
  6 18  1  0  0  0  0
  6  5  1  0  0  0  0
  7  6  2  0  0  0  0
  8  7  1  0  0  0  0
  8  4  1  0  0  0  0
  9 10  1  0  0  0  0
  9  8  2  0  0  0  0
 10  2  2  0  0  0  0
 12 13  1  0  0  0  0
 12 11  1  0  0  0  0
 14 13  2  0  0  0  0
 15 14  1  0  0  0  0
 16 17  1  0  0  0  0
 16 15  2  0  0  0  0
 17 12  2  0  0  0  0
 19 23  1  0  0  0  0
 19 18  1  0  0  0  0
 20 19  1  0  0  0  0
 21 20  1  0  0  0  0
 21 22  1  0  0  0  0
 22 23  1  0  0  0  0
 24 19  1  0  0  0  0
 25  7  1  0  0  0  0
 25 26  2  0  0  0  0
 27 25  1  0  0  0  0
 28 29  1  0  0  0  0
 28 27  1  0  0  0  0
 30 10  1  0  0  0  0
 31 30  1  0  0  0  0
M  END
>  <Pose>
1

>  <Score>
-5.313

$$$$
