/Users/jonathanwahrer/Desktop/Msc/3_Semester/Drug_Design_Praktikum/waehrer_HTS_screening/HTS_experiment/out/docking_results/vina_output/6y4q/0648_docked.pdbqt
 OpenBabel03232217473D

 32 35  0  0  0  0  0  0  0  0999 V2000
   -1.3410  -13.4470  -38.3720 C   0  0  0  0  0  0  0  0  0  0  0  0
   -1.8080  -13.8460  -39.4990 O   0  0  0  0  0  0  0  0  0  0  0  0
    0.0170  -13.4810  -38.2000 N   0  0  0  0  0  0  0  0  0  0  0  0
    0.7220  -13.0960  -37.0160 C   0  0  0  0  0  2  0  0  0  0  0  0
    1.2540  -14.3230  -36.3530 C   0  0  0  0  0  2  0  0  0  0  0  0
    1.4840  -15.3930  -37.3130 N   0  0  0  0  0  0  0  0  0  0  0  0
    1.6690  -15.1680  -38.7080 C   0  0  0  0  0  2  0  0  0  0  0  0
    0.9220  -13.9610  -39.2650 C   0  0  0  0  0  2  0  0  0  0  0  0
    1.4470  -16.7050  -36.7300 C   0  0  0  0  0  0  0  0  0  0  0  0
    1.1290  -16.7750  -35.4700 O   0  0  0  0  0  0  0  0  0  0  0  0
    1.7260  -17.9130  -37.4250 C   0  0  0  0  0  0  0  0  0  0  0  0
    0.7350  -18.7740  -37.8780 N   0  0  0  0  0  0  0  0  0  0  0  0
    1.2740  -19.8180  -38.4170 N   0  0  0  0  0  0  0  0  0  0  0  0
   -0.6870  -18.5450  -37.7740 C   0  0  0  0  0  1  0  0  0  0  0  0
    2.6020  -19.7540  -38.3730 C   0  0  0  0  0  0  0  0  0  0  0  0
    2.8870  -18.5300  -37.7350 C   0  0  0  0  0  3  0  0  0  0  0  0
    3.5910  -20.6900  -38.8760 C   0  0  0  0  0  0  0  0  0  0  0  0
    4.1490  -21.4500  -38.0060 O   0  0  0  0  0  0  0  0  0  0  0  0
    3.9740  -20.8240  -40.2010 N   0  0  0  0  0  0  0  0  0  0  0  0
    4.9760  -21.8430  -40.5300 C   0  0  0  0  0  2  0  0  0  0  0  0
    3.4800  -20.0250  -41.2790 C   0  0  0  0  0  2  0  0  0  0  0  0
    6.0620  -21.1210  -41.3000 C   0  0  0  0  0  2  0  0  0  0  0  0
    5.4600  -20.7220  -42.5070 O   0  0  0  0  0  0  0  0  0  0  0  0
    4.5840  -19.6980  -42.2760 C   0  0  0  0  0  2  0  0  0  0  0  0
   -2.3220  -13.0080  -37.4120 C   0  0  0  0  0  0  0  0  0  0  0  0
   -3.3320  -13.7690  -36.8140 C   0  0  0  0  0  0  0  0  0  0  0  0
   -3.6280  -15.6370  -37.1640 Br  0  0  0  0  0  0  0  0  0  0  0  0
   -4.0430  -12.9660  -35.9640 C   0  0  0  0  0  3  0  0  0  0  0  0
   -3.4990  -11.7460  -36.0270 N   0  0  0  0  0  0  0  0  0  0  0  0
   -2.4990  -11.7680  -36.8680 N   0  0  0  0  0  0  0  0  0  0  0  0
   -4.0190  -10.6310  -35.2460 C   0  0  0  0  0  2  0  0  0  0  0  0
   -3.6310  -10.7010  -33.7930 C   0  0  0  0  0  1  0  0  0  0  0  0
  1  3  1  0  0  0  0
  1 25  1  0  0  0  0
  2  1  2  0  0  0  0
  3  4  1  0  0  0  0
  4  5  1  0  0  0  0
  6  9  1  0  0  0  0
  6  5  1  0  0  0  0
  7  6  1  0  0  0  0
  8  7  1  0  0  0  0
  8  3  1  0  0  0  0
  9 10  2  0  0  0  0
 11  9  1  0  0  0  0
 12 14  1  0  0  0  0
 12 11  1  0  0  0  0
 13 15  2  0  0  0  0
 13 12  1  0  0  0  0
 15 16  1  0  0  0  0
 16 11  2  0  0  0  0
 17 15  1  0  0  0  0
 17 18  2  0  0  0  0
 19 17  1  0  0  0  0
 20 19  1  0  0  0  0
 21 19  1  0  0  0  0
 22 20  1  0  0  0  0
 23 24  1  0  0  0  0
 23 22  1  0  0  0  0
 24 21  1  0  0  0  0
 25 30  2  0  0  0  0
 25 26  1  0  0  0  0
 26 28  2  0  0  0  0
 27 26  1  0  0  0  0
 29 28  1  0  0  0  0
 29 31  1  0  0  0  0
 30 29  1  0  0  0  0
 31 32  1  0  0  0  0
M  END
>  <Pose>
1

>  <Score>
-5.914

$$$$
