/Users/jonathanwahrer/Desktop/Msc/3_Semester/Drug_Design_Praktikum/waehrer_HTS_screening/HTS_experiment/out/docking_results/vina_output/6y4q/0653_docked.pdbqt
 OpenBabel03232217473D

 29 32  0  0  0  0  0  0  0  0999 V2000
    1.6380  -17.6000  -37.8570 C   0  0  0  0  0  0  0  0  0  0  0  0
    0.8430  -17.2630  -38.9230 C   0  0  0  0  0  0  0  0  0  0  0  0
    1.1390  -17.6930  -40.2030 C   0  0  0  0  0  0  0  0  0  0  0  0
    2.2450  -18.4750  -40.4500 C   0  0  0  0  0  0  0  0  0  0  0  0
    3.0710  -18.8280  -39.3650 C   0  0  0  0  0  0  0  0  0  0  0  0
    2.7770  -18.4020  -38.0970 C   0  0  0  0  0  0  0  0  0  0  0  0
    3.6380  -18.7840  -36.9750 C   0  0  0  0  0  2  0  0  0  0  0  0
    5.0220  -19.1970  -37.2850 C   0  0  0  0  0  2  0  0  0  0  0  0
    5.1570  -19.9060  -38.5510 N   0  0  0  0  0  0  0  0  0  0  0  0
    4.2800  -19.6010  -39.6270 C   0  0  0  0  0  0  0  0  0  0  0  0
    4.5690  -20.0090  -40.7920 O   0  0  0  0  0  0  0  0  0  0  0  0
    6.2150  -20.8860  -38.6390 C   0  0  0  0  0  1  0  0  0  0  0  0
    0.1510  -17.1870  -41.0260 O   0  0  0  0  0  0  0  0  0  0  0  0
   -0.8700  -16.5940  -40.2630 C   0  0  0  0  0  2  0  0  0  0  0  0
   -0.3350  -16.4810  -38.9470 O   0  0  0  0  0  0  0  0  0  0  0  0
    1.3720  -17.1190  -36.4840 C   0  0  0  0  0  2  0  0  0  0  0  0
    1.6090  -15.6970  -36.3150 N   0  0  0  0  0  0  0  0  0  0  0  0
    0.7010  -14.6700  -36.1800 C   0  0  0  0  0  0  0  0  0  0  0  0
   -0.5540  -14.8820  -36.1940 O   0  0  0  0  0  0  0  0  0  0  0  0
    2.6490  -15.4500  -36.2900 H   0  0  0  0  0  0  0  0  0  0  0  0
    1.1530  -13.2620  -36.0130 C   0  0  0  0  0  2  0  0  0  0  0  0
    1.9910  -12.9450  -37.1860 N   0  0  0  0  0  0  0  0  0  0  0  0
    2.8770  -11.9610  -37.3010 C   0  0  0  0  0  3  0  0  0  0  0  0
    3.4330  -12.0310  -38.5580 C   0  0  0  0  0  0  0  0  0  0  0  0
    4.7600  -10.8850  -39.3130 Br  0  0  0  0  0  0  0  0  0  0  0  0
    2.8550  -13.0930  -39.2130 C   0  0  0  0  0  3  0  0  0  0  0  0
    1.9860  -13.6150  -38.3350 N   0  0  0  0  0  0  0  0  0  0  0  0
    2.5710  -18.9260  -41.7160 O   0  0  0  0  0  0  0  0  0  0  0  0
    1.7070  -19.7830  -42.4330 C   0  0  0  0  0  1  0  0  0  0  0  0
  1 16  1  0  0  0  0
  2  1  2  0  0  0  0
  3  2  1  0  0  0  0
  4  3  2  0  0  0  0
  4  5  1  0  0  0  0
  5  6  2  0  0  0  0
  6  1  1  0  0  0  0
  6  7  1  0  0  0  0
  8  7  1  0  0  0  0
  9  8  1  0  0  0  0
 10  5  1  0  0  0  0
 10  9  1  0  0  0  0
 11 10  2  0  0  0  0
 12  9  1  0  0  0  0
 13 14  1  0  0  0  0
 13  3  1  0  0  0  0
 14 15  1  0  0  0  0
 15  2  1  0  0  0  0
 16 17  1  0  0  0  0
 17 20  1  0  0  0  0
 17 18  1  0  0  0  0
 18 21  1  0  0  0  0
 19 18  2  0  0  0  0
 22 21  1  0  0  0  0
 23 22  1  0  0  0  0
 24 23  2  0  0  0  0
 25 24  1  0  0  0  0
 26 24  1  0  0  0  0
 26 27  2  0  0  0  0
 27 22  1  0  0  0  0
 28  4  1  0  0  0  0
 29 28  1  0  0  0  0
M  END
>  <Pose>
1

>  <Score>
-5.990

$$$$
