/Users/jonathanwahrer/Desktop/Msc/3_Semester/Drug_Design_Praktikum/waehrer_HTS_screening/HTS_experiment/out/docking_results/vina_output/6y4q/0662_docked.pdbqt
 OpenBabel03232217473D

 25 29  0  0  0  0  0  0  0  0999 V2000
    1.9480  -17.8620  -37.5280 C   0  0  0  0  0  0  0  0  0  0  0  0
    2.8930  -18.5390  -36.8570 N   0  0  0  0  0  0  0  0  0  0  0  0
    3.3400  -19.5570  -37.5930 N   0  0  0  0  0  0  0  0  0  0  0  0
    2.6620  -19.5320  -38.7760 C   0  0  0  0  0  0  0  0  0  0  0  0
    1.8170  -18.4850  -38.7100 N   0  0  0  0  0  0  0  0  0  0  0  0
    2.9510  -20.4970  -39.7170 C   0  0  0  0  0  0  0  0  0  0  0  0
    3.8990  -21.4830  -39.5070 C   0  0  0  0  0  0  0  0  0  0  0  0
    3.9610  -22.2740  -40.5930 N   0  0  0  0  0  0  0  0  0  0  0  0
    3.0820  -21.8070  -41.4650 N   0  0  0  0  0  0  0  0  0  0  0  0
    2.4470  -20.7250  -40.9700 C   0  0  0  0  0  3  0  0  0  0  0  0
    4.5410  -21.4680  -38.3280 N   0  0  0  0  0  0  0  0  0  0  0  0
    4.2560  -20.5250  -37.4150 C   0  0  0  0  0  3  0  0  0  0  0  0
    4.5740  -23.1030  -40.7470 H   0  0  0  0  0  0  0  0  0  0  0  0
    1.2240  -16.6850  -37.0510 C   0  0  0  0  0  0  0  0  0  0  0  0
    1.7100  -15.4600  -36.7880 N   0  0  0  0  0  0  0  0  0  0  0  0
    0.7540  -14.6480  -36.3720 N   0  0  0  0  0  0  0  0  0  0  0  0
   -0.4110  -15.3180  -36.3470 C   0  0  0  0  0  3  0  0  0  0  0  0
   -0.1250  -16.6110  -36.7750 C   0  0  0  0  0  3  0  0  0  0  0  0
    0.9390  -13.2430  -35.9990 C   0  0  0  0  0  2  0  0  0  0  0  0
    1.5710  -12.4920  -37.0640 N   0  0  0  0  0  0  0  0  0  0  0  0
    2.8690  -12.1520  -37.1320 C   0  0  0  0  0  3  0  0  0  0  0  0
    3.0680  -11.4430  -38.2990 C   0  0  0  0  0  0  0  0  0  0  0  0
    4.7020  -10.7140  -38.9140 Br  0  0  0  0  0  0  0  0  0  0  0  0
    1.8440  -11.3710  -38.9250 C   0  0  0  0  0  3  0  0  0  0  0  0
    0.9600  -12.0240  -38.1370 N   0  0  0  0  0  0  0  0  0  0  0  0
  1 14  1  0  0  0  0
  1  2  2  0  0  0  0
  3 12  1  0  0  0  0
  3  2  1  0  0  0  0
  4  5  2  0  0  0  0
  4  3  1  0  0  0  0
  5  1  1  0  0  0  0
  6  7  2  0  0  0  0
  6  4  1  0  0  0  0
  7 11  1  0  0  0  0
  8  7  1  0  0  0  0
  9 10  2  0  0  0  0
  9  8  1  0  0  0  0
 10  6  1  0  0  0  0
 11 12  2  0  0  0  0
 13  8  1  0  0  0  0
 14 15  2  0  0  0  0
 14 18  1  0  0  0  0
 15 16  1  0  0  0  0
 16 17  1  0  0  0  0
 16 19  1  0  0  0  0
 18 17  2  0  0  0  0
 20 19  1  0  0  0  0
 21 20  1  0  0  0  0
 22 21  2  0  0  0  0
 23 22  1  0  0  0  0
 24 22  1  0  0  0  0
 24 25  2  0  0  0  0
 25 20  1  0  0  0  0
M  END
>  <Pose>
1

>  <Score>
-6.097

$$$$
