/Users/jonathanwahrer/Desktop/Msc/3_Semester/Drug_Design_Praktikum/waehrer_HTS_screening/HTS_experiment/out/docking_results/vina_output/6y4q/0663_docked.pdbqt
 OpenBabel03232217473D

 28 31  0  0  1  0  0  0  0  0999 V2000
    0.4840  -15.1650  -36.5230 C   0  0  0  0  0  0  0  0  0  0  0  0
   -0.7670  -15.4330  -36.3220 O   0  0  0  0  0  0  0  0  0  0  0  0
    0.8590  -13.8510  -36.3020 N   0  0  0  0  0  0  0  0  0  0  0  0
    2.1420  -13.2030  -36.3670 C   0  0  0  0  0  2  0  0  0  0  0  0
    2.2090  -12.4810  -37.6980 C   0  0  0  0  0  2  0  0  0  0  0  0
    0.8590  -11.8850  -38.0440 C   0  0  1  0  0  0  0  0  0  0  0  0
    1.1050  -10.5970  -38.6550 N   0  0  0  0  0  0  0  0  0  0  0  0
    1.3460  -10.8090  -40.0380 C   0  0  0  0  0  0  0  0  0  0  0  0
    1.9330  -10.0320  -40.8610 O   0  0  0  0  0  0  0  0  0  0  0  0
    0.7930  -12.0950  -40.3590 N   0  0  0  0  0  0  0  0  0  0  0  0
    0.2260  -12.6340  -39.1460 C   0  0  0  0  0  0  0  0  0  0  0  0
   -0.6260  -13.5480  -39.1130 O   0  0  0  0  0  0  0  0  0  0  0  0
   -0.0260  -11.6850  -36.8570 C   0  0  0  0  0  2  0  0  0  0  0  0
   -0.2310  -12.8760  -35.9840 C   0  0  0  0  0  2  0  0  0  0  0  0
    1.1140   -9.6610  -38.2040 H   0  0  0  0  0  0  0  0  0  0  0  0
    0.7770  -12.5940  -41.2750 H   0  0  0  0  0  0  0  0  0  0  0  0
    1.2740  -16.2990  -36.9460 C   0  0  0  0  0  0  0  0  0  0  0  0
    1.2760  -16.6690  -38.3070 C   0  0  0  0  0  3  0  0  0  0  0  0
    2.0270  -17.7060  -38.7910 C   0  0  0  0  0  3  0  0  0  0  0  0
    2.8370  -18.4590  -37.9760 C   0  0  0  0  0  0  0  0  0  0  0  0
    2.8540  -18.1210  -36.6500 C   0  0  0  0  0  3  0  0  0  0  0  0
    2.0890  -17.0600  -36.1410 C   0  0  0  0  0  3  0  0  0  0  0  0
    3.6050  -19.5290  -38.5060 N   0  0  0  0  0  0  0  0  0  0  0  0
    4.1290  -19.6570  -39.7380 C   0  0  0  0  0  3  0  0  0  0  0  0
    4.8030  -20.8550  -39.8270 C   0  0  0  0  0  0  0  0  0  0  0  0
    5.7420  -21.5570  -41.3540 Br  0  0  0  0  0  0  0  0  0  0  0  0
    4.6630  -21.4460  -38.5910 C   0  0  0  0  0  3  0  0  0  0  0  0
    3.9410  -20.6150  -37.8420 N   0  0  0  0  0  0  0  0  0  0  0  0
  1  2  2  0  0  0  0
  1  3  1  0  0  0  0
  3 14  1  0  0  0  0
  4  3  1  0  0  0  0
  5  4  1  0  0  0  0
  6  5  1  1  0  0  0
  6 13  1  0  0  0  0
  7 15  1  0  0  0  0
  7  6  1  0  0  0  0
  8  7  1  0  0  0  0
  9  8  2  0  0  0  0
 10  8  1  0  0  0  0
 10 11  1  0  0  0  0
 11 12  2  0  0  0  0
 11  6  1  0  0  0  0
 13 14  1  0  0  0  0
 16 10  1  0  0  0  0
 17  1  1  0  0  0  0
 17 22  1  0  0  0  0
 18 17  2  0  0  0  0
 19 18  1  0  0  0  0
 19 20  2  0  0  0  0
 20 21  1  0  0  0  0
 21 22  2  0  0  0  0
 23 20  1  0  0  0  0
 23 28  1  0  0  0  0
 24 23  1  0  0  0  0
 25 24  2  0  0  0  0
 25 27  1  0  0  0  0
 26 25  1  0  0  0  0
 27 28  2  0  0  0  0
M  END
>  <Pose>
1

>  <Score>
-6.458

$$$$
