/Users/jonathanwahrer/Desktop/Msc/3_Semester/Drug_Design_Praktikum/waehrer_HTS_screening/HTS_experiment/out/docking_results/vina_output/6y4q/0670_docked.pdbqt
 OpenBabel03232217483D

 23 27  0  0  1  0  0  0  0  0999 V2000
    1.9720  -17.3670  -35.6980 C   0  0  0  0  0  2  0  0  0  0  0  0
    2.7760  -17.7990  -36.8840 C   0  0  1  0  0  3  0  0  0  0  0  0
    3.7520  -18.9330  -36.6420 C   0  0  2  0  0  3  0  0  0  0  0  0
    3.4690  -19.3160  -37.9950 N   0  0  0  0  0  0  0  0  0  0  0  0
    2.1270  -18.8740  -37.7480 C   0  0  2  0  0  3  0  0  0  0  0  0
    4.1890  -19.8700  -39.0590 C   0  0  0  0  0  0  0  0  0  0  0  0
    4.8080  -19.1400  -40.0130 N   0  0  0  0  0  0  0  0  0  0  0  0
    5.4960  -19.6440  -41.0290 C   0  0  0  0  0  3  0  0  0  0  0  0
    5.6130  -21.0090  -41.1580 C   0  0  0  0  0  0  0  0  0  0  0  0
    6.5990  -21.7660  -42.6130 Br  0  0  0  0  0  0  0  0  0  0  0  0
    4.9950  -21.7890  -40.2040 C   0  0  0  0  0  3  0  0  0  0  0  0
    4.3100  -21.2240  -39.1930 N   0  0  0  0  0  0  0  0  0  0  0  0
    1.2630  -16.1680  -36.0560 N   0  0  0  0  0  0  0  0  0  0  0  0
    1.9620  -15.0030  -36.3750 N   0  0  0  0  0  0  0  0  0  0  0  0
    1.3050  -13.7960  -36.7350 C   0  0  0  0  0  0  0  0  0  0  0  0
    3.0220  -15.0560  -36.3380 H   0  0  0  0  0  0  0  0  0  0  0  0
    2.0150  -12.7230  -37.0270 C   0  0  0  0  0  0  0  0  0  0  0  0
   -0.1420  -13.7360  -36.7820 C   0  0  0  0  0  3  0  0  0  0  0  0
    3.2470  -11.9330  -37.2280 C   0  0  0  0  0  2  0  0  0  0  0  0
    1.9720  -11.2670  -37.4460 C   0  0  0  0  0  2  0  0  0  0  0  0
   -0.8260  -14.8290  -36.4830 C   0  0  0  0  0  3  0  0  0  0  0  0
   -0.1540  -16.0890  -36.1090 C   0  0  0  0  0  0  0  0  0  0  0  0
   -0.8280  -17.1160  -35.8280 O   0  0  0  0  0  0  0  0  0  0  0  0
  2  3  1  0  0  0  0
  2  1  1  1  0  0  0
  3  4  1  6  0  0  0
  5  4  1  6  0  0  0
  5  2  1  0  0  0  0
  5  3  1  0  0  0  0
  6  4  1  0  0  0  0
  7  6  2  0  0  0  0
  8  7  1  0  0  0  0
  9  8  2  0  0  0  0
  9 11  1  0  0  0  0
 10  9  1  0  0  0  0
 11 12  2  0  0  0  0
 12  6  1  0  0  0  0
 13  1  1  0  0  0  0
 14 16  1  0  0  0  0
 14 13  1  0  0  0  0
 15 14  1  0  0  0  0
 17 15  2  0  0  0  0
 18 15  1  0  0  0  0
 18 21  2  0  0  0  0
 19 17  1  0  0  0  0
 20 19  1  0  0  0  0
 20 17  1  0  0  0  0
 21 22  1  0  0  0  0
 22 13  1  0  0  0  0
 22 23  2  0  0  0  0
M  END
>  <Pose>
1

>  <Score>
-6.051

$$$$
