/Users/jonathanwahrer/Desktop/Msc/3_Semester/Drug_Design_Praktikum/waehrer_HTS_screening/HTS_experiment/out/docking_results/vina_output/6y4q/0677_docked.pdbqt
 OpenBabel03232217483D

 29 32  0  0  0  0  0  0  0  0999 V2000
    2.6700  -18.7010  -37.7500 C   0  0  0  0  0  0  0  0  0  0  0  0
    1.4940  -18.9610  -38.5400 C   0  0  0  0  0  0  0  0  0  0  0  0
    1.5450  -19.8570  -39.5440 C   0  0  0  0  0  0  0  0  0  0  0  0
    2.7330  -20.5500  -39.8410 C   0  0  0  0  0  0  0  0  0  0  0  0
    3.8640  -20.3130  -39.0980 C   0  0  0  0  0  0  0  0  0  0  0  0
    3.8240  -19.3790  -38.0510 C   0  0  0  0  0  0  0  0  0  0  0  0
    5.0610  -19.0400  -37.3000 C   0  0  0  0  0  2  0  0  0  0  0  0
    6.3430  -19.4450  -38.0200 C   0  0  0  0  0  2  0  0  0  0  0  0
    6.2610  -20.7900  -38.5400 N   0  0  0  0  0  0  0  0  0  0  0  0
    5.1060  -21.0370  -39.3530 C   0  0  0  0  0  0  0  0  0  0  0  0
    5.2340  -21.8840  -40.2600 O   0  0  0  0  0  0  0  0  0  0  0  0
    7.2610  -21.7990  -38.2640 C   0  0  0  0  0  1  0  0  0  0  0  0
    0.2690  -19.8980  -40.1260 O   0  0  0  0  0  0  0  0  0  0  0  0
   -0.6520  -19.2030  -39.3130 C   0  0  0  0  0  2  0  0  0  0  0  0
    0.1990  -18.4390  -38.4820 O   0  0  0  0  0  0  0  0  0  0  0  0
    2.4050  -17.7210  -36.7180 C   0  0  0  0  0  2  0  0  0  0  0  0
    2.0300  -16.3930  -36.9310 N   0  0  0  0  0  0  0  0  0  0  0  0
    0.8680  -15.9250  -36.1480 C   0  0  0  0  0  0  0  0  0  0  0  0
    0.3180  -16.7230  -35.3700 O   0  0  0  0  0  0  0  0  0  0  0  0
    2.4210  -15.6340  -37.5070 H   0  0  0  0  0  0  0  0  0  0  0  0
    0.3830  -14.5720  -36.2830 C   0  0  0  0  0  0  0  0  0  0  0  0
    1.3220  -13.5490  -36.3470 C   0  0  0  0  0  3  0  0  0  0  0  0
    0.9540  -12.2650  -36.4670 N   0  0  0  0  0  0  0  0  0  0  0  0
   -0.3400  -11.9530  -36.5270 C   0  0  0  0  0  3  0  0  0  0  0  0
   -1.3000  -12.9120  -36.4700 C   0  0  0  0  0  0  0  0  0  0  0  0
   -3.1490  -12.4430  -36.5580 Br  0  0  0  0  0  0  0  0  0  0  0  0
   -0.9560  -14.2570  -36.3450 C   0  0  0  0  0  3  0  0  0  0  0  0
    2.7020  -21.4290  -40.8580 O   0  0  0  0  0  0  0  0  0  0  0  0
    3.3950  -21.9460  -41.2780 H   0  0  0  0  0  0  0  0  0  0  0  0
  1 16  1  0  0  0  0
  2 15  1  0  0  0  0
  2  1  2  0  0  0  0
  3  2  1  0  0  0  0
  4  3  2  0  0  0  0
  4  5  1  0  0  0  0
  5  6  2  0  0  0  0
  6  1  1  0  0  0  0
  6  7  1  0  0  0  0
  8  7  1  0  0  0  0
  9 12  1  0  0  0  0
  9  8  1  0  0  0  0
 10  5  1  0  0  0  0
 10  9  1  0  0  0  0
 11 10  2  0  0  0  0
 13  3  1  0  0  0  0
 13 14  1  0  0  0  0
 14 15  1  0  0  0  0
 17 16  1  0  0  0  0
 17 18  1  0  0  0  0
 18 19  2  0  0  0  0
 20 17  1  0  0  0  0
 21 18  1  0  0  0  0
 22 21  2  0  0  0  0
 23 22  1  0  0  0  0
 24 25  1  0  0  0  0
 24 23  2  0  0  0  0
 25 27  2  0  0  0  0
 26 25  1  0  0  0  0
 27 21  1  0  0  0  0
 28  4  1  0  0  0  0
 29 28  1  0  0  0  0
M  END
>  <Pose>
1

>  <Score>
-6.446

$$$$
