/Users/jonathanwahrer/Desktop/Msc/3_Semester/Drug_Design_Praktikum/waehrer_HTS_screening/HTS_experiment/out/docking_results/vina_output/6y4q/0680_docked.pdbqt
 OpenBabel03232217483D

 24 27  0  0  1  0  0  0  0  0999 V2000
    4.4580  -20.9830  -39.1140 C   0  0  0  0  0  0  0  0  0  0  0  0
    4.6650  -21.9620  -38.3080 O   0  0  0  0  0  0  0  0  0  0  0  0
    3.6420  -19.9310  -38.6580 N   0  0  0  0  0  0  0  0  0  0  0  0
    3.1040  -18.6890  -39.1200 C   0  0  0  0  0  2  0  0  0  0  0  0
    1.9440  -18.9050  -38.1320 C   0  0  1  0  0  3  0  0  0  0  0  0
    2.9710  -19.6540  -37.3710 C   0  0  0  0  0  2  0  0  0  0  0  0
    1.4790  -17.6640  -37.5760 N   0  0  0  0  0  0  0  0  0  0  0  0
    1.7290  -17.1220  -36.2650 C   0  0  0  0  0  0  0  0  0  0  0  0
    2.7130  -17.4000  -35.5570 O   0  0  0  0  0  0  0  0  0  0  0  0
    0.5780  -16.1960  -35.9860 C   0  0  1  0  0  3  0  0  0  0  0  0
    0.3980  -15.5790  -37.3530 C   0  0  2  0  0  3  0  0  0  0  0  0
   -0.5670  -17.0420  -35.5430 C   0  0  0  0  0  2  0  0  0  0  0  0
   -0.9770  -14.9930  -37.5120 C   0  0  0  0  0  2  0  0  0  0  0  0
    0.6580  -16.7190  -38.2530 C   0  0  0  0  0  0  0  0  0  0  0  0
   -1.9980  -16.0570  -37.3140 C   0  0  0  0  0  3  0  0  0  0  0  0
   -1.7600  -16.9730  -36.3980 C   0  0  0  0  0  3  0  0  0  0  0  0
    0.2020  -16.7920  -39.4210 O   0  0  0  0  0  0  0  0  0  0  0  0
    5.1040  -21.0980  -40.4000 C   0  0  0  0  0  0  0  0  0  0  0  0
    5.9010  -20.0550  -40.8900 C   0  0  0  0  0  3  0  0  0  0  0  0
    6.5090  -20.1050  -42.0810 N   0  0  0  0  0  0  0  0  0  0  0  0
    6.3830  -21.1910  -42.8860 C   0  0  0  0  0  3  0  0  0  0  0  0
    5.6190  -22.2600  -42.4840 C   0  0  0  0  0  0  0  0  0  0  0  0
    5.4560  -23.7700  -43.6320 Br  0  0  0  0  0  0  0  0  0  0  0  0
    5.0000  -22.1790  -41.2460 C   0  0  0  0  0  3  0  0  0  0  0  0
  1  3  1  0  0  0  0
  1  2  2  0  0  0  0
  3  6  1  0  0  0  0
  4  3  1  0  0  0  0
  5  4  1  6  0  0  0
  5  7  1  0  0  0  0
  5  6  1  0  0  0  0
  7  8  1  0  0  0  0
  8 10  1  0  0  0  0
  8  9  2  0  0  0  0
 10 12  1  6  0  0  0
 11 13  1  1  0  0  0
 11 10  1  0  0  0  0
 13 15  1  0  0  0  0
 14  7  1  0  0  0  0
 14 11  1  0  0  0  0
 15 16  2  0  0  0  0
 16 12  1  0  0  0  0
 17 14  2  0  0  0  0
 18  1  1  0  0  0  0
 19 18  1  0  0  0  0
 20 19  2  0  0  0  0
 21 22  2  0  0  0  0
 21 20  1  0  0  0  0
 22 24  1  0  0  0  0
 23 22  1  0  0  0  0
 24 18  2  0  0  0  0
M  END
>  <Pose>
1

>  <Score>
-6.390

$$$$
