/Users/jonathanwahrer/Desktop/Msc/3_Semester/Drug_Design_Praktikum/waehrer_HTS_screening/HTS_experiment/out/docking_results/vina_output/6y4q/0681_docked.pdbqt
 OpenBabel03232217483D

 25 28  0  0  1  0  0  0  0  0999 V2000
    3.0360  -18.9260  -37.4250 C   0  0  0  0  0  0  0  0  0  0  0  0
    3.8350  -18.8430  -36.4410 O   0  0  0  0  0  0  0  0  0  0  0  0
    3.3120  -19.8560  -38.4350 N   0  0  0  0  0  0  0  0  0  0  0  0
    2.7760  -20.3440  -39.6780 C   0  0  0  0  0  2  0  0  0  0  0  0
    3.7880  -21.4780  -39.7430 C   0  0  2  0  0  3  0  0  0  0  0  0
    4.4490  -20.7850  -38.5900 C   0  0  0  0  0  2  0  0  0  0  0  0
    4.5410  -21.5860  -40.9100 O   0  0  0  0  0  0  0  0  0  0  0  0
    4.5240  -22.6450  -41.7940 C   0  0  2  0  0  3  0  0  0  0  0  0
    3.4080  -23.3510  -41.9570 C   0  0  0  0  0  3  0  0  0  0  0  0
    3.3260  -24.4810  -42.8750 C   0  0  0  0  0  0  0  0  0  0  0  0
    2.2010  -25.1590  -43.0130 C   0  0  0  0  0  1  0  0  0  0  0  0
    4.4960  -24.8170  -43.6070 N   0  0  0  0  0  0  0  0  0  0  0  0
    5.6860  -24.0380  -43.4100 C   0  0  0  0  0  0  0  0  0  0  0  0
    4.4500  -25.6160  -44.2610 H   0  0  0  0  0  0  0  0  0  0  0  0
    5.6960  -23.0100  -42.5490 N   0  0  0  0  0  0  0  0  0  0  0  0
    6.9070  -24.1260  -43.9460 N   0  0  0  0  0  0  0  0  0  0  0  0
    6.9150  -22.4600  -42.5500 N   0  0  0  0  0  0  0  0  0  0  0  0
    7.6590  -23.1570  -43.4170 C   0  0  0  0  0  3  0  0  0  0  0  0
    1.8900  -18.0520  -37.4420 C   0  0  0  0  0  0  0  0  0  0  0  0
    0.6210  -18.3760  -37.8520 C   0  0  0  0  0  3  0  0  0  0  0  0
   -0.4160  -17.4880  -37.8280 N   0  0  0  0  0  0  0  0  0  0  0  0
   -0.2720  -16.2290  -37.4000 C   0  0  0  0  0  3  0  0  0  0  0  0
    0.9790  -15.8460  -36.9740 C   0  0  0  0  0  0  0  0  0  0  0  0
    1.2230  -14.0430  -36.3520 Br  0  0  0  0  0  0  0  0  0  0  0  0
    2.0310  -16.7260  -36.9930 C   0  0  0  0  0  3  0  0  0  0  0  0
  1  2  2  0  0  0  0
  3  1  1  0  0  0  0
  4  3  1  0  0  0  0
  5  7  1  6  0  0  0
  5  4  1  0  0  0  0
  5  6  1  0  0  0  0
  6  3  1  0  0  0  0
  8  7  1  1  0  0  0
  9  8  1  0  0  0  0
 10  9  2  0  0  0  0
 11 10  1  0  0  0  0
 12 13  1  0  0  0  0
 12 10  1  0  0  0  0
 13 15  1  0  0  0  0
 14 12  1  0  0  0  0
 15  8  1  0  0  0  0
 16 18  1  0  0  0  0
 16 13  2  0  0  0  0
 17 15  1  0  0  0  0
 18 17  2  0  0  0  0
 19  1  1  0  0  0  0
 19 25  1  0  0  0  0
 20 21  1  0  0  0  0
 20 19  2  0  0  0  0
 21 22  2  0  0  0  0
 22 23  1  0  0  0  0
 23 24  1  0  0  0  0
 25 23  2  0  0  0  0
M  END
>  <Pose>
1

>  <Score>
-5.994

$$$$
