/Users/jonathanwahrer/Desktop/Msc/3_Semester/Drug_Design_Praktikum/waehrer_HTS_screening/HTS_experiment/out/docking_results/vina_output/6y4q/0695_docked.pdbqt
 OpenBabel03232217493D

 22 25  0  0  0  0  0  0  0  0999 V2000
    0.7630  -14.2540  -36.2990 C   0  0  0  0  0  2  0  0  0  0  0  0
    1.6660  -13.6480  -37.3110 C   0  0  0  0  0  0  0  0  0  0  0  0
    1.8410  -14.1560  -38.5770 C   0  0  0  0  0  3  0  0  0  0  0  0
    2.6990  -13.5680  -39.5090 C   0  0  0  0  0  0  0  0  0  0  0  0
    3.4090  -12.4380  -39.1850 C   0  0  0  0  0  0  0  0  0  0  0  0
    3.0420  -13.8830  -40.8250 O   0  0  0  0  0  0  0  0  0  0  0  0
    3.2410  -11.9220  -37.9180 C   0  0  0  0  0  0  0  0  0  0  0  0
    4.1740  -12.0820  -40.3020 O   0  0  0  0  0  0  0  0  0  0  0  0
    4.2360  -10.3420  -37.4650 Br  0  0  0  0  0  0  0  0  0  0  0  0
    2.3940  -12.4980  -36.9920 C   0  0  0  0  0  3  0  0  0  0  0  0
    3.5280  -12.6780  -41.4360 C   0  0  0  0  0  2  0  0  0  0  0  0
    1.2350  -15.5760  -35.9660 N   0  0  0  0  0  0  0  0  0  0  0  0
    2.1060  -15.7280  -35.4300 H   0  0  0  0  0  0  0  0  0  0  0  0
    0.4580  -16.7080  -36.4000 C   0  0  0  0  0  0  0  0  0  0  0  0
   -0.8050  -16.8790  -35.9890 N   0  0  0  0  0  0  0  0  0  0  0  0
   -1.5230  -17.9400  -36.4000 C   0  0  0  0  0  3  0  0  0  0  0  0
   -0.9810  -18.8900  -37.2600 C   0  0  0  0  0  3  0  0  0  0  0  0
    0.2760  -18.7130  -37.6650 N   0  0  0  0  0  0  0  0  0  0  0  0
    1.0040  -17.6430  -37.2520 C   0  0  0  0  0  0  0  0  0  0  0  0
    1.0910  -19.4140  -38.4720 C   0  0  0  0  0  3  0  0  0  0  0  0
    2.2190  -17.7330  -37.8170 N   0  0  0  0  0  0  0  0  0  0  0  0
    2.2830  -18.8180  -38.5700 N   0  0  0  0  0  0  0  0  0  0  0  0
  1 12  1  0  0  0  0
  2 10  1  0  0  0  0
  2  1  1  0  0  0  0
  3  2  2  0  0  0  0
  4  5  2  0  0  0  0
  4  3  1  0  0  0  0
  5  7  1  0  0  0  0
  6  4  1  0  0  0  0
  7  9  1  0  0  0  0
  7 10  2  0  0  0  0
  8  5  1  0  0  0  0
 11  6  1  0  0  0  0
 11  8  1  0  0  0  0
 12 13  1  0  0  0  0
 14 15  2  0  0  0  0
 14 12  1  0  0  0  0
 16 15  1  0  0  0  0
 17 16  2  0  0  0  0
 18 17  1  0  0  0  0
 18 19  1  0  0  0  0
 19 14  1  0  0  0  0
 20 18  1  0  0  0  0
 21 19  2  0  0  0  0
 22 20  2  0  0  0  0
 22 21  1  0  0  0  0
M  END
>  <Pose>
1

>  <Score>
-5.585

$$$$
