/Users/jonathanwahrer/Desktop/Msc/3_Semester/Drug_Design_Praktikum/waehrer_HTS_screening/HTS_experiment/out/docking_results/vina_output/6y4q/0706_docked.pdbqt
 OpenBabel03232217503D

 30 33  0  0  0  0  0  0  0  0999 V2000
    0.0960  -17.5230  -38.7810 C   0  0  0  0  0  2  0  0  0  0  0  0
    0.6380  -16.3440  -38.1930 N   0  0  0  0  0  0  0  0  0  0  0  0
    0.4350  -16.0050  -36.9070 C   0  0  0  0  0  0  0  0  0  0  0  0
   -0.5810  -16.9850  -35.5920 Br  0  0  0  0  0  0  0  0  0  0  0  0
    1.0810  -14.8420  -36.7080 N   0  0  0  0  0  0  0  0  0  0  0  0
    1.6810  -14.4470  -37.8390 C   0  0  0  0  0  0  0  0  0  0  0  0
    1.3960  -15.4100  -38.7880 C   0  0  0  0  0  0  0  0  0  0  0  0
    2.4350  -13.3880  -38.1960 N   0  0  0  0  0  0  0  0  0  0  0  0
    1.9150  -15.2040  -40.0490 C   0  0  0  0  0  0  0  0  0  0  0  0
    2.6670  -14.1450  -40.3940 N   0  0  0  0  0  0  0  0  0  0  0  0
    1.6690  -16.0610  -40.9230 O   0  0  0  0  0  0  0  0  0  0  0  0
    2.9250  -13.2270  -39.4450 C   0  0  0  0  0  0  0  0  0  0  0  0
    3.2030  -13.9490  -41.7280 C   0  0  0  0  0  1  0  0  0  0  0  0
    3.6300  -12.2160  -39.7390 O   0  0  0  0  0  0  0  0  0  0  0  0
    2.7290  -12.3840  -37.1930 C   0  0  0  0  0  1  0  0  0  0  0  0
    0.5650  -18.8270  -38.2470 C   0  0  0  0  0  2  0  0  0  0  0  0
    1.3040  -19.6700  -39.1250 N   0  0  0  0  0  0  0  0  0  0  0  0
    2.6480  -19.8560  -39.0930 C   0  0  0  0  0  0  0  0  0  0  0  0
    3.0110  -20.7260  -40.0900 C   0  0  0  0  0  0  0  0  0  0  0  0
    3.6730  -19.3660  -38.2940 C   0  0  0  0  0  0  0  0  0  0  0  0
    1.8630  -21.0500  -40.7090 N   0  0  0  0  0  0  0  0  0  0  0  0
    4.2960  -21.1110  -40.3120 N   0  0  0  0  0  0  0  0  0  0  0  0
    0.8350  -20.4150  -40.1300 C   0  0  0  0  0  0  0  0  0  0  0  0
   -1.0280  -20.5140  -40.6190 Br  0  0  0  0  0  0  0  0  0  0  0  0
    5.2320  -20.5940  -39.4960 C   0  0  0  0  0  0  0  0  0  0  0  0
    4.6440  -22.0380  -41.3800 C   0  0  0  0  0  1  0  0  0  0  0  0
    6.4280  -20.9430  -39.6910 O   0  0  0  0  0  0  0  0  0  0  0  0
    4.9350  -19.7380  -38.5030 N   0  0  0  0  0  0  0  0  0  0  0  0
    5.9800  -19.2090  -37.6520 C   0  0  0  0  0  1  0  0  0  0  0  0
    3.3280  -18.5680  -37.3820 O   0  0  0  0  0  0  0  0  0  0  0  0
  1 16  1  0  0  0  0
  1  2  1  0  0  0  0
  2  3  1  0  0  0  0
  3  5  2  0  0  0  0
  3  4  1  0  0  0  0
  6  5  1  0  0  0  0
  7  2  1  0  0  0  0
  7  6  2  0  0  0  0
  8  6  1  0  0  0  0
  8 15  1  0  0  0  0
  9  7  1  0  0  0  0
 10  9  1  0  0  0  0
 10 12  1  0  0  0  0
 11  9  2  0  0  0  0
 12  8  1  0  0  0  0
 13 10  1  0  0  0  0
 14 12  2  0  0  0  0
 17 18  1  0  0  0  0
 17 16  1  0  0  0  0
 18 20  1  0  0  0  0
 19 18  2  0  0  0  0
 20 30  2  0  0  0  0
 21 23  2  0  0  0  0
 21 19  1  0  0  0  0
 22 19  1  0  0  0  0
 22 25  1  0  0  0  0
 23 17  1  0  0  0  0
 24 23  1  0  0  0  0
 25 28  1  0  0  0  0
 26 22  1  0  0  0  0
 27 25  2  0  0  0  0
 28 20  1  0  0  0  0
 28 29  1  0  0  0  0
M  END
>  <Pose>
1

>  <Score>
-6.108

$$$$
