/Users/jonathanwahrer/Desktop/Msc/3_Semester/Drug_Design_Praktikum/waehrer_HTS_screening/HTS_experiment/out/docking_results/vina_output/6y4q/0716_docked.pdbqt
 OpenBabel03232217503D

 31 35  0  0  1  0  0  0  0  0999 V2000
    1.4420  -14.1550  -37.8380 C   0  0  1  0  0  0  0  0  0  0  0  0
    2.0030  -15.4950  -38.2580 C   0  0  0  0  0  2  0  0  0  0  0  0
    1.1100  -16.5900  -37.7520 C   0  0  2  0  0  0  0  0  0  0  0  0
   -0.2200  -16.4360  -38.5030 C   0  0  0  0  0  2  0  0  0  0  0  0
   -0.7820  -15.0680  -38.2130 C   0  0  2  0  0  3  0  0  0  0  0  0
    0.1530  -13.9530  -38.6050 C   0  0  0  0  0  2  0  0  0  0  0  0
   -1.1050  -14.9830  -36.7550 C   0  0  0  0  0  2  0  0  0  0  0  0
    0.1740  -15.1650  -35.9680 C   0  0  2  0  0  3  0  0  0  0  0  0
    1.1280  -14.0930  -36.3760 C   0  0  0  0  0  2  0  0  0  0  0  0
    0.7950  -16.5050  -36.2960 C   0  0  0  0  0  2  0  0  0  0  0  0
    1.6690  -17.9260  -38.0480 C   0  0  0  0  0  0  0  0  0  0  0  0
    1.1070  -18.9280  -37.5370 O   0  0  0  0  0  0  0  0  0  0  0  0
    2.8110  -18.0740  -38.8870 N   0  0  0  0  0  0  0  0  0  0  0  0
    3.2170  -17.2000  -39.2700 H   0  0  0  0  0  0  0  0  0  0  0  0
    3.4170  -19.3120  -39.2260 C   0  0  0  0  0  0  0  0  0  0  0  0
    4.5560  -19.7990  -38.6490 C   0  0  0  0  0  0  0  0  0  0  0  0
    4.8180  -20.9940  -39.2310 N   0  0  0  0  0  0  0  0  0  0  0  0
    3.8890  -21.2420  -40.1280 N   0  0  0  0  0  0  0  0  0  0  0  0
    5.9240  -21.8940  -38.9520 C   0  0  0  0  0  1  0  0  0  0  0  0
    3.0060  -20.2380  -40.1630 C   0  0  0  0  0  3  0  0  0  0  0  0
    5.4100  -19.2520  -37.6140 C   0  0  0  0  0  0  0  0  0  0  0  0
    4.9580  -18.9790  -36.4740 O   0  0  0  0  0  0  0  0  0  0  0  0
    6.7930  -18.9870  -37.8010 N   0  0  0  0  0  0  0  0  0  0  0  0
    7.4870  -19.6900  -37.4140 H   0  0  0  0  0  0  0  0  0  0  0  0
    7.1820  -18.1560  -38.2860 H   0  0  0  0  0  0  0  0  0  0  0  0
    2.4160  -13.1080  -38.1440 N   0  0  0  0  0  0  0  0  0  0  0  0
    3.0590  -12.9140  -39.2890 N   0  0  0  0  0  0  0  0  0  0  0  0
    3.8770  -11.8490  -39.2000 C   0  0  0  0  0  0  0  0  0  0  0  0
    5.0280  -11.1390  -40.5600 Br  0  0  0  0  0  0  0  0  0  0  0  0
    3.7410  -11.3560  -37.9480 N   0  0  0  0  0  0  0  0  0  0  0  0
    2.8460  -12.1350  -37.3210 C   0  0  0  0  0  3  0  0  0  0  0  0
  1  6  1  6  0  0  0
  1  9  1  0  0  0  0
  2  1  1  0  0  0  0
  2  3  1  0  0  0  0
  3 11  1  6  0  0  0
  3 10  1  0  0  0  0
  4  5  1  0  0  0  0
  4  3  1  0  0  0  0
  5  6  1  1  0  0  0
  5  7  1  0  0  0  0
  8  7  1  6  0  0  0
  9  8  1  0  0  0  0
 10  8  1  0  0  0  0
 11 12  2  0  0  0  0
 13 11  1  0  0  0  0
 14 13  1  0  0  0  0
 15 13  1  0  0  0  0
 15 16  2  0  0  0  0
 16 21  1  0  0  0  0
 17 19  1  0  0  0  0
 17 16  1  0  0  0  0
 18 17  1  0  0  0  0
 20 18  2  0  0  0  0
 20 15  1  0  0  0  0
 21 22  2  0  0  0  0
 23 21  1  0  0  0  0
 23 24  1  0  0  0  0
 25 23  1  0  0  0  0
 26  1  1  0  0  0  0
 26 31  1  0  0  0  0
 27 28  2  0  0  0  0
 27 26  1  0  0  0  0
 28 30  1  0  0  0  0
 29 28  1  0  0  0  0
 30 31  2  0  0  0  0
M  END
>  <Pose>
1

>  <Score>
-6.965

$$$$
