/Users/jonathanwahrer/Desktop/Msc/3_Semester/Drug_Design_Praktikum/waehrer_HTS_screening/HTS_experiment/out/docking_results/vina_output/6y4q/0727_docked.pdbqt
 OpenBabel03232217503D

 21 24  0  0  0  0  0  0  0  0999 V2000
    1.2650  -15.5610  -37.1480 Br  0  0  0  0  0  0  0  0  0  0  0  0
   -0.1890  -16.7860  -37.0540 C   0  0  0  0  0  0  0  0  0  0  0  0
   -1.4500  -16.5000  -36.6150 N   0  0  0  0  0  0  0  0  0  0  0  0
   -2.1850  -17.5820  -36.7150 N   0  0  0  0  0  0  0  0  0  0  0  0
   -1.4500  -18.5910  -37.2100 C   0  0  0  0  0  0  0  0  0  0  0  0
   -1.7130  -19.8720  -37.5120 N   0  0  0  0  0  0  0  0  0  0  0  0
   -0.7850  -20.6810  -38.0160 C   0  0  0  0  0  3  0  0  0  0  0  0
    0.4440  -20.2210  -38.2310 N   0  0  0  0  0  0  0  0  0  0  0  0
    0.8210  -18.9280  -37.9580 C   0  0  0  0  0  0  0  0  0  0  0  0
   -0.1500  -18.1080  -37.4400 C   0  0  0  0  0  0  0  0  0  0  0  0
   -3.6020  -17.7500  -36.3620 C   0  0  0  0  0  1  0  0  0  0  0  0
    2.1340  -18.5040  -38.1630 N   0  0  0  0  0  0  0  0  0  0  0  0
    3.0970  -18.4950  -37.0840 C   0  0  0  0  0  2  0  0  0  0  0  0
    4.0910  -19.6450  -37.3510 C   0  0  0  0  0  2  0  0  0  0  0  0
    4.3470  -19.7410  -38.8040 C   0  0  0  0  0  0  0  0  0  0  0  0
    5.2570  -20.5330  -39.4180 N   0  0  0  0  0  0  0  0  0  0  0  0
    3.7150  -19.0490  -39.7930 C   0  0  0  0  0  0  0  0  0  0  0  0
    5.1640  -20.3140  -40.7410 C   0  0  0  0  0  3  0  0  0  0  0  0
    6.1810  -21.4600  -38.8180 C   0  0  0  0  0  1  0  0  0  0  0  0
    4.2230  -19.4060  -40.9930 N   0  0  0  0  0  0  0  0  0  0  0  0
    2.6460  -18.0820  -39.4420 C   0  0  0  0  0  2  0  0  0  0  0  0
  1  2  1  0  0  0  0
  2  3  2  0  0  0  0
  4  3  1  0  0  0  0
  4 11  1  0  0  0  0
  5  4  1  0  0  0  0
  6  5  2  0  0  0  0
  7  6  1  0  0  0  0
  8  7  2  0  0  0  0
  8  9  1  0  0  0  0
  9 10  2  0  0  0  0
 10  5  1  0  0  0  0
 10  2  1  0  0  0  0
 12  9  1  0  0  0  0
 12 13  1  0  0  0  0
 14 13  1  0  0  0  0
 15 14  1  0  0  0  0
 16 19  1  0  0  0  0
 16 15  1  0  0  0  0
 17 21  1  0  0  0  0
 17 15  2  0  0  0  0
 18 16  1  0  0  0  0
 20 18  2  0  0  0  0
 20 17  1  0  0  0  0
 21 12  1  0  0  0  0
M  END
>  <Pose>
1

>  <Score>
-5.552

$$$$
