/Users/jonathanwahrer/Desktop/Msc/3_Semester/Drug_Design_Praktikum/waehrer_HTS_screening/HTS_experiment/out/docking_results/vina_output/6y4q/0729_docked.pdbqt
 OpenBabel03232217513D

 27 30  0  0  1  0  0  0  0  0999 V2000
    4.6520  -21.7080  -41.3630 N   0  0  0  0  0  0  0  0  0  0  0  0
    5.5090  -21.8150  -40.2160 C   0  0  0  0  0  2  0  0  0  0  0  0
    4.6960  -21.2330  -39.0570 C   0  0  0  0  0  2  0  0  0  0  0  0
    3.6140  -20.3760  -39.5560 N   0  0  0  0  0  0  0  0  0  0  0  0
    4.1220  -19.5290  -40.6390 C   0  0  0  0  0  2  0  0  0  0  0  0
    4.4220  -20.3750  -41.8630 C   0  0  0  0  0  2  0  0  0  0  0  0
    4.0520  -22.8330  -41.9390 C   0  0  0  0  0  0  0  0  0  0  0  0
    2.7970  -23.2120  -41.6000 N   0  0  0  0  0  0  0  0  0  0  0  0
    2.2120  -24.2920  -42.1050 C   0  0  0  0  0  3  0  0  0  0  0  0
    2.8810  -25.0440  -42.9840 N   0  0  0  0  0  0  0  0  0  0  0  0
    4.1300  -24.7490  -43.3820 C   0  0  0  0  0  0  0  0  0  0  0  0
    4.9840  -25.3350  -44.2440 N   0  0  0  0  0  0  0  0  0  0  0  0
    4.7440  -23.6170  -42.8550 C   0  0  0  0  0  0  0  0  0  0  0  0
    6.0740  -24.6160  -44.2620 N   0  0  0  0  0  0  0  0  0  0  0  0
    4.6580  -26.5500  -44.9770 C   0  0  0  0  0  1  0  0  0  0  0  0
    5.9880  -23.5560  -43.4380 C   0  0  0  0  0  0  0  0  0  0  0  0
    7.2770  -22.2030  -43.1200 Br  0  0  0  0  0  0  0  0  0  0  0  0
    3.2280  -19.5160  -38.4480 C   0  0  2  0  0  3  0  0  0  0  0  0
    3.5230  -20.3060  -37.1440 C   0  0  0  0  0  1  0  0  0  0  0  0
    1.7880  -19.2060  -38.4890 C   0  0  0  0  0  0  0  0  0  0  0  0
    1.0850  -20.1050  -39.1130 O   0  0  0  0  0  0  0  0  0  0  0  0
    1.1120  -18.0950  -37.9610 N   0  0  0  0  0  0  0  0  0  0  0  0
    1.6560  -16.9630  -37.2720 C   0  0  0  0  0  2  0  0  0  0  0  0
   -0.3570  -18.0610  -38.1380 C   0  0  0  0  0  2  0  0  0  0  0  0
    0.8930  -16.5670  -36.0250 C   0  0  0  0  0  2  0  0  0  0  0  0
   -0.5810  -16.7630  -36.1140 C   0  0  0  0  0  2  0  0  0  0  0  0
   -0.9490  -18.0850  -36.7530 C   0  0  0  0  0  2  0  0  0  0  0  0
  1  2  1  0  0  0  0
  2  3  1  0  0  0  0
  4  3  1  0  0  0  0
  4 18  1  0  0  0  0
  5  4  1  0  0  0  0
  6  1  1  0  0  0  0
  6  5  1  0  0  0  0
  7  8  1  0  0  0  0
  7  1  1  0  0  0  0
  9  8  2  0  0  0  0
 10  9  1  0  0  0  0
 11 10  2  0  0  0  0
 11 13  1  0  0  0  0
 12 11  1  0  0  0  0
 13  7  2  0  0  0  0
 14 12  1  0  0  0  0
 14 16  2  0  0  0  0
 15 12  1  0  0  0  0
 16 17  1  0  0  0  0
 16 13  1  0  0  0  0
 18 19  1  1  0  0  0
 20 18  1  0  0  0  0
 20 22  1  0  0  0  0
 21 20  2  0  0  0  0
 22 23  1  0  0  0  0
 23 25  1  0  0  0  0
 24 22  1  0  0  0  0
 24 27  1  0  0  0  0
 26 25  1  0  0  0  0
 27 26  1  0  0  0  0
M  END
>  <Pose>
1

>  <Score>
-6.004

$$$$
