/Users/jonathanwahrer/Desktop/Msc/3_Semester/Drug_Design_Praktikum/waehrer_HTS_screening/HTS_experiment/out/docking_results/vina_output/6y4q/0737_docked.pdbqt
 OpenBabel03232217513D

 21 24  0  0  1  0  0  0  0  0999 V2000
    1.3350  -17.2070  -37.5020 C   0  0  2  0  0  3  0  0  0  0  0  0
    1.5990  -15.9690  -37.1520 C   0  0  0  0  0  3  0  0  0  0  0  0
    0.6140  -15.1390  -36.4400 C   0  0  0  0  0  0  0  0  0  0  0  0
    0.8650  -13.8920  -36.0830 C   0  0  0  0  0  1  0  0  0  0  0  0
   -0.6260  -15.7720  -36.1640 N   0  0  0  0  0  0  0  0  0  0  0  0
   -0.8950  -17.1260  -36.5540 C   0  0  0  0  0  0  0  0  0  0  0  0
    0.0870  -17.8020  -37.2080 N   0  0  0  0  0  0  0  0  0  0  0  0
   -0.4140  -19.0190  -37.4520 N   0  0  0  0  0  0  0  0  0  0  0  0
   -1.6640  -19.1300  -36.9790 C   0  0  0  0  0  3  0  0  0  0  0  0
   -1.9540  -17.9430  -36.4210 N   0  0  0  0  0  0  0  0  0  0  0  0
   -1.3670  -15.2370  -35.6620 H   0  0  0  0  0  0  0  0  0  0  0  0
    2.3150  -17.9560  -38.1810 N   0  0  2  0  0  0  0  0  0  0  0  0
    3.2460  -18.7240  -37.3920 C   0  0  0  0  0  2  0  0  0  0  0  0
    3.7800  -19.8690  -38.1870 C   0  0  0  0  0  0  0  0  0  0  0  0
    3.9040  -19.7790  -39.5100 N   0  0  0  0  0  0  0  0  0  0  0  0
    4.2120  -21.1070  -37.8300 N   0  0  0  0  0  0  0  0  0  0  0  0
    4.4010  -20.9240  -39.9920 C   0  0  0  0  0  0  0  0  0  0  0  0
    3.5300  -18.5770  -40.2280 C   0  0  0  0  0  2  0  0  0  0  0  0
    4.7920  -21.3750  -41.8140 Br  0  0  0  0  0  0  0  0  0  0  0  0
    4.6010  -21.7790  -38.9280 C   0  0  0  0  0  3  0  0  0  0  0  0
    2.3300  -17.9070  -39.6250 C   0  0  0  0  0  2  0  0  0  0  0  0
  1  7  1  0  0  0  0
  1  2  1  1  0  0  0
  2  3  2  0  0  0  0
  3  5  1  0  0  0  0
  3  4  1  0  0  0  0
  5 11  1  0  0  0  0
  6 10  2  0  0  0  0
  6  5  1  0  0  0  0
  7  6  1  0  0  0  0
  8  7  1  0  0  0  0
  8  9  2  0  0  0  0
  9 10  1  0  0  0  0
 12 21  1  1  0  0  0
 12  1  1  0  0  0  0
 12 13  1  0  0  0  0
 14 16  2  0  0  0  0
 14 13  1  0  0  0  0
 15 14  1  0  0  0  0
 17 15  1  0  0  0  0
 17 20  2  0  0  0  0
 18 21  1  0  0  0  0
 18 15  1  0  0  0  0
 19 17  1  0  0  0  0
 20 16  1  0  0  0  0
M  END
>  <Pose>
1

>  <Score>
-5.758

$$$$
