/Users/jonathanwahrer/Desktop/Msc/3_Semester/Drug_Design_Praktikum/waehrer_HTS_screening/HTS_experiment/out/docking_results/vina_output/6y4q/0743_docked.pdbqt
 OpenBabel03232217513D

 30 33  0  0  1  0  0  0  0  0999 V2000
   -1.3230  -18.3440  -38.7990 C   0  0  0  0  0  0  0  0  0  0  0  0
   -1.8730  -17.3090  -39.3050 O   0  0  0  0  0  0  0  0  0  0  0  0
   -0.1730  -18.9150  -39.4080 N   0  0  0  0  0  0  0  0  0  0  0  0
    0.3700  -18.3200  -40.5980 C   0  0  0  0  0  2  0  0  0  0  0  0
    1.8600  -18.4330  -40.7120 C   0  0  0  0  0  2  0  0  0  0  0  0
    2.4370  -19.5800  -39.9370 C   0  0  1  0  0  0  0  0  0  0  0  0
    3.6350  -20.0600  -40.5550 N   0  0  0  0  0  0  0  0  0  0  0  0
    4.2260  -21.1800  -39.9050 C   0  0  0  0  0  2  0  0  0  0  0  0
    4.2870  -21.0990  -38.4160 C   0  0  0  0  0  2  0  0  0  0  0  0
    3.7050  -19.8430  -37.8760 C   0  0  0  0  0  0  0  0  0  0  0  0
    3.8820  -19.2130  -36.7140 N   0  0  0  0  0  0  0  0  0  0  0  0
    3.1280  -18.1050  -36.6920 C   0  0  0  0  0  3  0  0  0  0  0  0
    2.4570  -18.0150  -37.8470 N   0  0  0  0  0  0  0  0  0  0  0  0
    2.8060  -19.0800  -38.5800 C   0  0  0  0  0  0  0  0  0  0  0  0
    1.3880  -20.6660  -39.7500 C   0  0  0  0  0  2  0  0  0  0  0  0
    0.3910  -20.0970  -38.7630 C   0  0  0  0  0  2  0  0  0  0  0  0
    3.4090  -20.3240  -41.5390 H   0  0  0  0  0  0  0  0  0  0  0  0
    1.7730  -17.2430  -38.1340 H   0  0  0  0  0  0  0  0  0  0  0  0
   -1.9420  -18.8900  -37.5810 C   0  0  0  0  0  2  0  0  0  0  0  0
   -1.6300  -18.0910  -36.3530 C   0  0  0  0  0  2  0  0  0  0  0  0
   -1.2080  -16.7540  -36.6340 N   0  0  0  0  0  0  0  0  0  0  0  0
   -0.1210  -16.1380  -35.9570 C   0  0  0  0  0  0  0  0  0  0  0  0
    0.4830  -16.8160  -35.0740 O   0  0  0  0  0  0  0  0  0  0  0  0
   -1.7060  -16.2020  -37.3580 H   0  0  0  0  0  0  0  0  0  0  0  0
    0.3230  -14.7930  -36.2240 C   0  0  0  0  0  0  0  0  0  0  0  0
    1.5030  -14.4270  -36.5990 O   0  0  0  0  0  0  0  0  0  0  0  0
    1.5980  -13.1420  -36.7600 C   0  0  0  0  0  0  0  0  0  0  0  0
    3.1240  -12.1020  -37.3030 Br  0  0  0  0  0  0  0  0  0  0  0  0
    0.3670  -12.6040  -36.4630 C   0  0  0  0  0  3  0  0  0  0  0  0
   -0.4700  -13.6440  -36.1150 C   0  0  0  0  0  3  0  0  0  0  0  0
  1 19  1  0  0  0  0
  2  1  2  0  0  0  0
  3  1  1  0  0  0  0
  3 16  1  0  0  0  0
  4  3  1  0  0  0  0
  5  4  1  0  0  0  0
  6  5  1  6  0  0  0
  6 15  1  0  0  0  0
  6 14  1  0  0  0  0
  7  6  1  0  0  0  0
  7  8  1  0  0  0  0
  8  9  1  0  0  0  0
  9 10  1  0  0  0  0
 10 11  1  0  0  0  0
 11 12  2  0  0  0  0
 13 12  1  0  0  0  0
 14 10  2  0  0  0  0
 14 13  1  0  0  0  0
 15 16  1  0  0  0  0
 17  7  1  0  0  0  0
 18 13  1  0  0  0  0
 19 20  1  0  0  0  0
 21 20  1  0  0  0  0
 21 22  1  0  0  0  0
 22 23  2  0  0  0  0
 24 21  1  0  0  0  0
 25 30  2  0  0  0  0
 25 22  1  0  0  0  0
 26 25  1  0  0  0  0
 27 26  1  0  0  0  0
 27 29  2  0  0  0  0
 28 27  1  0  0  0  0
 29 30  1  0  0  0  0
M  END
>  <Pose>
1

>  <Score>
-6.069

$$$$
