/Users/jonathanwahrer/Desktop/Msc/3_Semester/Drug_Design_Praktikum/waehrer_HTS_screening/HTS_experiment/out/docking_results/vina_output/6y4q/0754_docked.pdbqt
 OpenBabel03232217513D

 27 30  0  0  0  0  0  0  0  0999 V2000
    0.0600  -16.2000  -36.2410 C   0  0  0  0  0  0  0  0  0  0  0  0
    0.1580  -16.5570  -35.0580 O   0  0  0  0  0  0  0  0  0  0  0  0
   -0.7380  -16.9510  -37.1390 N   0  0  0  0  0  0  0  0  0  0  0  0
   -1.4360  -18.1300  -36.6690 C   0  0  0  0  0  2  0  0  0  0  0  0
   -1.0050  -19.3780  -37.4000 C   0  0  0  0  0  2  0  0  0  0  0  0
   -0.5970  -18.9500  -38.7480 N   0  0  0  0  0  0  0  0  0  0  0  0
   -1.3430  -17.8810  -39.3190 C   0  0  0  0  0  2  0  0  0  0  0  0
   -0.9180  -16.6220  -38.5400 C   0  0  0  0  0  2  0  0  0  0  0  0
    0.4900  -19.6410  -39.3360 C   0  0  0  0  0  0  0  0  0  0  0  0
    1.6880  -19.7580  -38.6990 N   0  0  0  0  0  0  0  0  0  0  0  0
    2.7270  -20.4090  -39.2450 C   0  0  0  0  0  0  0  0  0  0  0  0
    2.6070  -20.9730  -40.4660 N   0  0  0  0  0  0  0  0  0  0  0  0
    1.4630  -20.9090  -41.1690 C   0  0  0  0  0  0  0  0  0  0  0  0
    0.3980  -20.2210  -40.5680 C   0  0  0  0  0  3  0  0  0  0  0  0
    1.3080  -21.5230  -42.5150 C   0  0  0  0  0  1  0  0  0  0  0  0
    3.9530  -20.5040  -38.5400 N   0  0  0  0  0  0  0  0  0  0  0  0
    4.7510  -21.7050  -38.5000 C   0  0  0  0  0  2  0  0  0  0  0  0
    6.1620  -21.4000  -38.9060 C   0  0  0  0  0  2  0  0  0  0  0  0
    6.4210  -20.0330  -38.9930 O   0  0  0  0  0  0  0  0  0  0  0  0
    5.9550  -19.3710  -37.8610 C   0  0  0  0  0  2  0  0  0  0  0  0
    4.4460  -19.3500  -37.8200 C   0  0  0  0  0  2  0  0  0  0  0  0
    0.7830  -14.9940  -36.6790 C   0  0  0  0  0  0  0  0  0  0  0  0
    1.4610  -14.8130  -37.7730 O   0  0  0  0  0  0  0  0  0  0  0  0
    1.9670  -13.6340  -37.8370 C   0  0  0  0  0  0  0  0  0  0  0  0
    3.0510  -12.8750  -39.2480 Br  0  0  0  0  0  0  0  0  0  0  0  0
    1.6120  -12.9500  -36.7010 C   0  0  0  0  0  3  0  0  0  0  0  0
    0.8550  -13.8220  -35.9610 C   0  0  0  0  0  3  0  0  0  0  0  0
  1  2  2  0  0  0  0
  3  4  1  0  0  0  0
  3  1  1  0  0  0  0
  5  4  1  0  0  0  0
  6  5  1  0  0  0  0
  7  6  1  0  0  0  0
  7  8  1  0  0  0  0
  8  3  1  0  0  0  0
  9  6  1  0  0  0  0
  9 10  1  0  0  0  0
 11 10  2  0  0  0  0
 11 16  1  0  0  0  0
 12 11  1  0  0  0  0
 13 14  1  0  0  0  0
 13 12  2  0  0  0  0
 14  9  2  0  0  0  0
 15 13  1  0  0  0  0
 16 17  1  0  0  0  0
 16 21  1  0  0  0  0
 18 17  1  0  0  0  0
 19 18  1  0  0  0  0
 19 20  1  0  0  0  0
 20 21  1  0  0  0  0
 22  1  1  0  0  0  0
 22 27  2  0  0  0  0
 23 22  1  0  0  0  0
 24 23  1  0  0  0  0
 24 26  2  0  0  0  0
 25 24  1  0  0  0  0
 26 27  1  0  0  0  0
M  END
>  <Pose>
1

>  <Score>
-6.487

$$$$
