/Users/jonathanwahrer/Desktop/Msc/3_Semester/Drug_Design_Praktikum/waehrer_HTS_screening/HTS_experiment/out/docking_results/vina_output/6y4q/0769_docked.pdbqt
 OpenBabel03232217523D

 26 29  0  0  0  0  0  0  0  0999 V2000
    3.9900  -21.1650  -39.1990 C   0  0  0  0  0  0  0  0  0  0  0  0
    4.6190  -21.6420  -38.1420 O   0  0  0  0  0  0  0  0  0  0  0  0
    2.9380  -20.3020  -38.9300 N   0  0  0  0  0  0  0  0  0  0  0  0
    2.6110  -19.9910  -37.5150 C   0  0  0  0  0  2  0  0  0  0  0  0
    2.6540  -18.4930  -37.3270 C   0  0  0  0  0  2  0  0  0  0  0  0
    1.7530  -17.8770  -38.2180 N   0  0  0  0  0  0  0  0  0  0  0  0
    1.0870  -18.8190  -39.0500 C   0  0  0  0  0  2  0  0  0  0  0  0
    2.1030  -19.6540  -39.8660 C   0  0  0  0  0  2  0  0  0  0  0  0
    4.5540  -21.6600  -40.4400 C   0  0  0  0  0  0  0  0  0  0  0  0
    3.9360  -22.5840  -41.2390 C   0  0  0  0  0  3  0  0  0  0  0  0
    4.5590  -23.0000  -42.4190 C   0  0  0  0  0  0  0  0  0  0  0  0
    3.7640  -24.2670  -43.5640 Br  0  0  0  0  0  0  0  0  0  0  0  0
    5.7820  -22.4660  -42.7440 C   0  0  0  0  0  0  0  0  0  0  0  0
    6.3350  -21.5990  -41.9710 O   0  0  0  0  0  0  0  0  0  0  0  0
    6.3840  -22.8060  -43.7960 O   0  0  0  0  0  0  0  0  0  0  0  0
    5.7960  -21.1840  -40.8690 C   0  0  0  0  0  3  0  0  0  0  0  0
    0.8580  -16.9180  -37.6520 C   0  0  0  0  0  2  0  0  0  0  0  0
    1.3530  -15.5310  -37.6100 C   0  0  0  0  0  0  0  0  0  0  0  0
    1.9600  -14.8930  -38.6430 C   0  0  0  0  0  3  0  0  0  0  0  0
    2.3910  -13.5970  -38.5070 C   0  0  0  0  0  0  0  0  0  0  0  0
    2.2080  -12.9440  -37.3180 C   0  0  0  0  0  0  0  0  0  0  0  0
    3.0350  -12.6910  -39.3650 O   0  0  0  0  0  0  0  0  0  0  0  0
    1.5950  -13.5710  -36.2560 C   0  0  0  0  0  3  0  0  0  0  0  0
    2.7190  -11.6600  -37.4110 O   0  0  0  0  0  0  0  0  0  0  0  0
    1.1780  -14.8520  -36.4190 C   0  0  0  0  0  3  0  0  0  0  0  0
    3.5540  -11.6500  -38.5600 C   0  0  0  0  0  2  0  0  0  0  0  0
  1  3  1  0  0  0  0
  1  2  2  0  0  0  0
  3  4  1  0  0  0  0
  4  5  1  0  0  0  0
  6 17  1  0  0  0  0
  6  5  1  0  0  0  0
  7  6  1  0  0  0  0
  8  7  1  0  0  0  0
  8  3  1  0  0  0  0
  9  1  1  0  0  0  0
 10  9  1  0  0  0  0
 11 10  2  0  0  0  0
 12 11  1  0  0  0  0
 13 11  1  0  0  0  0
 13 14  1  0  0  0  0
 14 16  1  0  0  0  0
 15 13  2  0  0  0  0
 16  9  2  0  0  0  0
 17 18  1  0  0  0  0
 18 25  1  0  0  0  0
 19 20  1  0  0  0  0
 19 18  2  0  0  0  0
 20 21  2  0  0  0  0
 21 23  1  0  0  0  0
 22 26  1  0  0  0  0
 22 20  1  0  0  0  0
 24 21  1  0  0  0  0
 25 23  2  0  0  0  0
 26 24  1  0  0  0  0
M  END
>  <Pose>
1

>  <Score>
-6.655

$$$$
