/Users/jonathanwahrer/Desktop/Msc/3_Semester/Drug_Design_Praktikum/waehrer_HTS_screening/HTS_experiment/out/docking_results/vina_output/6y4q/0776_docked.pdbqt
 OpenBabel03232217523D

 38 41  0  0  1  0  0  0  0  0999 V2000
    4.5920  -20.1960  -42.0650 C   0  0  2  0  0  3  0  0  0  0  0  0
    5.2780  -20.8780  -40.8740 C   0  0  1  0  0  0  0  0  0  0  0  0
    4.2660  -21.1420  -39.8120 C   0  0  0  0  0  2  0  0  0  0  0  0
    3.7220  -19.8170  -39.3260 C   0  0  1  0  0  0  0  0  0  0  0  0
    3.9410  -18.7890  -40.2230 O   0  0  0  0  0  0  0  0  0  0  0  0
    3.6800  -19.1360  -41.5420 C   0  0  0  0  0  2  0  0  0  0  0  0
    2.2940  -20.0180  -38.9700 C   0  0  0  0  0  2  0  0  0  0  0  0
    1.7360  -18.6890  -38.4370 C   0  0  0  0  0  2  0  0  0  0  0  0
    2.3850  -18.4140  -37.1980 N   0  0  0  0  0  0  0  0  0  0  0  0
    3.5340  -19.3260  -36.8800 C   0  0  0  0  0  2  0  0  0  0  0  0
    4.4540  -19.4660  -38.0480 C   0  0  0  0  0  2  0  0  0  0  0  0
    2.0570  -17.4130  -36.3040 C   0  0  0  0  0  0  0  0  0  0  0  0
    2.7920  -17.3710  -35.2120 O   0  0  0  0  0  0  0  0  0  0  0  0
    6.0370  -22.0900  -41.3090 C   0  0  0  0  0  1  0  0  0  0  0  0
    6.1970  -19.9550  -40.3700 O   0  0  0  0  0  0  0  0  0  0  0  0
    6.4250  -20.1190  -39.4200 H   0  0  0  0  0  0  0  0  0  0  0  0
    4.0030  -21.1320  -42.9670 N   0  0  0  0  0  0  0  0  0  0  0  0
    2.9130  -21.8700  -42.6900 C   0  0  0  0  0  3  0  0  0  0  0  0
    2.3710  -22.7630  -43.5790 C   0  0  0  0  0  0  0  0  0  0  0  0
    0.8260  -23.7410  -43.0510 Br  0  0  0  0  0  0  0  0  0  0  0  0
    2.9490  -22.9280  -44.8130 C   0  0  0  0  0  0  0  0  0  0  0  0
    4.0380  -22.1900  -45.0900 N   0  0  0  0  0  0  0  0  0  0  0  0
    2.4470  -23.7480  -45.6200 O   0  0  0  0  0  0  0  0  0  0  0  0
    4.5370  -21.3380  -44.2090 C   0  0  0  0  0  0  0  0  0  0  0  0
    4.4660  -22.3260  -46.0300 H   0  0  0  0  0  0  0  0  0  0  0  0
    5.5640  -20.6800  -44.5450 O   0  0  0  0  0  0  0  0  0  0  0  0
    1.0550  -16.4080  -36.3580 C   0  0  0  0  0  0  0  0  0  0  0  0
    1.4150  -15.0490  -36.3190 C   0  0  0  0  0  3  0  0  0  0  0  0
    0.5540  -13.9990  -36.3810 C   0  0  0  0  0  0  0  0  0  0  0  0
   -0.8150  -14.3150  -36.4960 C   0  0  0  0  0  3  0  0  0  0  0  0
   -1.1860  -15.6160  -36.5360 C   0  0  0  0  0  3  0  0  0  0  0  0
   -0.2700  -16.6800  -36.4690 C   0  0  0  0  0  3  0  0  0  0  0  0
    0.9420  -12.6930  -36.3360 O   0  0  0  0  0  0  0  0  0  0  0  0
    1.3420  -11.8230  -37.3050 C   0  0  0  0  0  2  0  0  0  0  0  0
    2.8200  -11.8020  -37.4950 C   0  0  0  0  0  2  0  0  0  0  0  0
    3.1750  -12.6040  -38.6670 N   0  0  0  0  0  0  0  0  0  0  0  0
    2.9920  -12.1040  -39.5500 H   0  0  0  0  0  0  0  0  0  0  0  0
    2.8100  -13.5600  -38.6220 H   0  0  0  0  0  0  0  0  0  0  0  0
  1 17  1  1  0  0  0
  1  6  1  0  0  0  0
  1  2  1  0  0  0  0
  2 14  1  6  0  0  0
  2 15  1  0  0  0  0
  2  3  1  0  0  0  0
  4  3  1  6  0  0  0
  4  7  1  0  0  0  0
  4 11  1  0  0  0  0
  5  4  1  0  0  0  0
  6  5  1  0  0  0  0
  7  8  1  0  0  0  0
  8  9  1  0  0  0  0
  9 10  1  0  0  0  0
  9 12  1  0  0  0  0
 11 10  1  0  0  0  0
 12 13  2  0  0  0  0
 15 16  1  0  0  0  0
 17 18  1  0  0  0  0
 19 20  1  0  0  0  0
 19 18  2  0  0  0  0
 21 19  1  0  0  0  0
 22 21  1  0  0  0  0
 22 24  1  0  0  0  0
 23 21  2  0  0  0  0
 24 17  1  0  0  0  0
 25 22  1  0  0  0  0
 26 24  2  0  0  0  0
 27 28  1  0  0  0  0
 27 12  1  0  0  0  0
 29 33  1  0  0  0  0
 29 28  2  0  0  0  0
 30 29  1  0  0  0  0
 31 30  2  0  0  0  0
 31 32  1  0  0  0  0
 32 27  2  0  0  0  0
 34 33  1  0  0  0  0
 35 34  1  0  0  0  0
 36 38  1  0  0  0  0
 36 35  1  0  0  0  0
 37 36  1  0  0  0  0
M  END
>  <Pose>
1

>  <Score>
-6.210

$$$$
