/Users/jonathanwahrer/Desktop/Msc/3_Semester/Drug_Design_Praktikum/waehrer_HTS_screening/HTS_experiment/out/docking_results/vina_output/6y4q/0783_docked.pdbqt
 OpenBabel03232217533D

 39 42  0  0  1  0  0  0  0  0999 V2000
    2.2930  -19.9510  -38.3000 C   0  0  1  0  0  3  0  0  0  0  0  0
    2.7850  -18.5580  -38.3160 C   0  0  2  0  0  0  0  0  0  0  0  0
    1.8370  -17.5520  -37.6520 C   0  0  0  0  0  2  0  0  0  0  0  0
    0.4570  -17.6450  -38.2540 C   0  0  2  0  0  0  0  0  0  0  0  0
    0.2430  -18.8680  -38.8610 O   0  0  0  0  0  0  0  0  0  0  0  0
    0.7910  -19.9420  -38.2310 C   0  0  0  0  0  2  0  0  0  0  0  0
    0.3120  -16.4980  -39.2380 C   0  0  0  0  0  2  0  0  0  0  0  0
   -0.3730  -15.3280  -38.5850 C   0  0  0  0  0  2  0  0  0  0  0  0
    0.1200  -15.1960  -37.2370 N   0  0  0  0  0  0  0  0  0  0  0  0
   -0.2660  -16.2550  -36.3160 C   0  0  0  0  0  2  0  0  0  0  0  0
   -0.5500  -17.4900  -37.1400 C   0  0  0  0  0  2  0  0  0  0  0  0
    0.9010  -14.1020  -36.8570 C   0  0  0  0  0  0  0  0  0  0  0  0
    1.2840  -14.0990  -35.6300 O   0  0  0  0  0  0  0  0  0  0  0  0
    3.2150  -18.0400  -39.6500 C   0  0  0  0  0  1  0  0  0  0  0  0
    3.9420  -18.5170  -37.4970 O   0  0  0  0  0  0  0  0  0  0  0  0
    4.0760  -17.6250  -37.1020 H   0  0  0  0  0  0  0  0  0  0  0  0
    2.7650  -20.7720  -39.3960 N   0  0  0  0  0  0  0  0  0  0  0  0
    2.0750  -20.8130  -40.5310 C   0  0  0  0  0  3  0  0  0  0  0  0
    2.4940  -21.5890  -41.5870 C   0  0  0  0  0  0  0  0  0  0  0  0
    1.4800  -21.6340  -43.2180 Br  0  0  0  0  0  0  0  0  0  0  0  0
    3.6500  -22.3270  -41.4480 C   0  0  0  0  0  0  0  0  0  0  0  0
    4.3060  -22.2450  -40.2760 N   0  0  0  0  0  0  0  0  0  0  0  0
    4.0770  -23.0560  -42.3910 O   0  0  0  0  0  0  0  0  0  0  0  0
    3.8810  -21.4830  -39.2560 C   0  0  0  0  0  0  0  0  0  0  0  0
    5.2000  -22.8130  -40.1640 H   0  0  0  0  0  0  0  0  0  0  0  0
    4.5710  -21.4690  -38.1840 O   0  0  0  0  0  0  0  0  0  0  0  0
    1.3420  -12.9580  -37.6490 C   0  0  1  0  0  3  0  0  0  0  0  0
    0.3390  -11.8920  -37.6760 N   0  0  0  0  0  0  0  0  0  0  0  0
    0.4640  -11.2800  -38.5110 H   0  0  0  0  0  0  0  0  0  0  0  0
    0.4880  -11.2760  -36.8380 H   0  0  0  0  0  0  0  0  0  0  0  0
    2.6250  -12.3070  -37.1840 C   0  0  0  0  0  2  0  0  0  0  0  0
    3.4280  -12.0370  -38.4340 C   0  0  0  0  0  0  0  0  0  0  0  0
    3.2290  -12.7930  -39.5590 C   0  0  0  0  0  3  0  0  0  0  0  0
    3.9910  -12.5110  -40.6890 C   0  0  0  0  0  3  0  0  0  0  0  0
    4.9260  -11.5020  -40.7000 C   0  0  0  0  0  0  0  0  0  0  0  0
    5.0980  -10.7620  -39.5470 C   0  0  0  0  0  3  0  0  0  0  0  0
    4.3590  -11.0190  -38.4100 C   0  0  0  0  0  3  0  0  0  0  0  0
    5.6540  -11.2660  -41.8510 O   0  0  0  0  0  0  0  0  0  0  0  0
    6.2940  -10.4810  -41.9700 H   0  0  0  0  0  0  0  0  0  0  0  0
  1 17  1  6  0  0  0
  1  6  1  0  0  0  0
  2 14  1  6  0  0  0
  2  1  1  0  0  0  0
  2  3  1  0  0  0  0
  2 15  1  0  0  0  0
  4  7  1  6  0  0  0
  4  3  1  0  0  0  0
  4 11  1  0  0  0  0
  5  4  1  0  0  0  0
  5  6  1  0  0  0  0
  7  8  1  0  0  0  0
  8  9  1  0  0  0  0
  9 12  1  0  0  0  0
  9 10  1  0  0  0  0
 11 10  1  0  0  0  0
 12 13  2  0  0  0  0
 15 16  1  0  0  0  0
 17 24  1  0  0  0  0
 18 17  1  0  0  0  0
 19 21  1  0  0  0  0
 19 18  2  0  0  0  0
 20 19  1  0  0  0  0
 21 22  1  0  0  0  0
 22 25  1  0  0  0  0
 22 24  1  0  0  0  0
 23 21  2  0  0  0  0
 24 26  2  0  0  0  0
 27 31  1  1  0  0  0
 27 12  1  0  0  0  0
 28 27  1  0  0  0  0
 28 30  1  0  0  0  0
 29 28  1  0  0  0  0
 32 37  1  0  0  0  0
 32 31  1  0  0  0  0
 33 32  2  0  0  0  0
 34 33  1  0  0  0  0
 35 34  2  0  0  0  0
 35 36  1  0  0  0  0
 36 37  2  0  0  0  0
 38 35  1  0  0  0  0
 39 38  1  0  0  0  0
M  END
>  <Pose>
1

>  <Score>
-7.229

$$$$
