/Users/jonathanwahrer/Desktop/Msc/3_Semester/Drug_Design_Praktikum/waehrer_HTS_screening/HTS_experiment/out/docking_results/vina_output/6y4q/0789_docked.pdbqt
 OpenBabel03232217543D

 21 24  0  0  1  0  0  0  0  0999 V2000
    3.3900  -18.7080  -37.0010 C   0  0  0  0  0  0  0  0  0  0  0  0
    3.8910  -18.9080  -35.8610 O   0  0  0  0  0  0  0  0  0  0  0  0
    2.4020  -17.7000  -37.1290 N   0  0  0  0  0  0  0  0  0  0  0  0
    2.0060  -16.9440  -35.9980 C   0  0  0  0  0  2  0  0  0  0  0  0
    0.6210  -16.4210  -36.0790 C   0  0  2  0  0  3  0  0  0  0  0  0
   -0.0970  -16.7260  -37.2830 N   0  0  2  0  0  0  0  0  0  0  0  0
    0.7110  -16.4750  -38.4620 C   0  0  0  0  0  2  0  0  0  0  0  0
    1.8380  -17.4900  -38.4350 C   0  0  0  0  0  2  0  0  0  0  0  0
   -1.2750  -15.9180  -37.1890 C   0  0  0  0  0  2  0  0  0  0  0  0
   -0.8230  -14.6230  -36.5610 C   0  0  0  0  0  2  0  0  0  0  0  0
    0.5700  -14.9030  -36.0430 C   0  0  0  0  0  2  0  0  0  0  0  0
    3.8500  -19.5190  -38.1370 C   0  0  0  0  0  0  0  0  0  0  0  0
    3.2480  -20.5360  -38.7700 N   0  0  0  0  0  0  0  0  0  0  0  0
    3.9930  -21.0120  -39.7550 N   0  0  0  0  0  0  0  0  0  0  0  0
    3.8290  -22.0100  -40.6620 C   0  0  0  0  0  3  0  0  0  0  0  0
    5.1430  -20.3160  -39.8160 C   0  0  0  0  0  0  0  0  0  0  0  0
    4.7850  -22.3070  -41.6080 C   0  0  0  0  0  0  0  0  0  0  0  0
    4.5310  -23.7230  -42.8820 Br  0  0  0  0  0  0  0  0  0  0  0  0
    5.9540  -21.5810  -41.6500 C   0  0  0  0  0  3  0  0  0  0  0  0
    6.0940  -20.6010  -40.7450 N   0  0  0  0  0  0  0  0  0  0  0  0
    5.0660  -19.3780  -38.8070 C   0  0  0  0  0  3  0  0  0  0  0  0
  1  2  2  0  0  0  0
  3  1  1  0  0  0  0
  3  4  1  0  0  0  0
  5 11  1  6  0  0  0
  5  4  1  0  0  0  0
  6  7  1  6  0  0  0
  6  9  1  0  0  0  0
  6  5  1  0  0  0  0
  7  8  1  0  0  0  0
  8  3  1  0  0  0  0
  9 10  1  0  0  0  0
 10 11  1  0  0  0  0
 12  1  1  0  0  0  0
 13 12  2  0  0  0  0
 14 13  1  0  0  0  0
 15 14  1  0  0  0  0
 16 14  1  0  0  0  0
 16 21  2  0  0  0  0
 17 15  2  0  0  0  0
 18 17  1  0  0  0  0
 19 17  1  0  0  0  0
 19 20  2  0  0  0  0
 20 16  1  0  0  0  0
 21 12  1  0  0  0  0
M  END
>  <Pose>
1

>  <Score>
-6.186

$$$$
