/Users/jonathanwahrer/Desktop/Msc/3_Semester/Drug_Design_Praktikum/waehrer_HTS_screening/HTS_experiment/out/docking_results/vina_output/6y4q/0790_docked.pdbqt
 OpenBabel03232217543D

 25 28  0  0  0  0  0  0  0  0999 V2000
    0.4960  -17.8740  -38.8280 C   0  0  0  0  0  0  0  0  0  0  0  0
   -0.5550  -18.2590  -39.4170 O   0  0  0  0  0  0  0  0  0  0  0  0
    0.4340  -17.2790  -37.5410 N   0  0  0  0  0  0  0  0  0  0  0  0
    1.7030  -16.8610  -36.9280 C   0  0  0  0  0  2  0  0  0  0  0  0
    1.2990  -15.7370  -35.9740 C   0  0  0  0  0  2  0  0  0  0  0  0
    0.2770  -14.9960  -36.6520 N   0  0  0  0  0  0  0  0  0  0  0  0
   -1.0720  -15.6130  -36.4890 C   0  0  0  0  0  2  0  0  0  0  0  0
   -0.8290  -17.0830  -36.8440 C   0  0  0  0  0  2  0  0  0  0  0  0
    0.4070  -13.8610  -37.4350 C   0  0  0  0  0  0  0  0  0  0  0  0
   -0.6870  -13.3450  -37.9130 O   0  0  0  0  0  0  0  0  0  0  0  0
    1.7570  -18.0610  -39.5020 C   0  0  0  0  0  0  0  0  0  0  0  0
    2.2690  -17.3890  -40.5870 C   0  0  0  0  0  3  0  0  0  0  0  0
    3.4800  -17.8880  -40.8870 N   0  0  0  0  0  0  0  0  0  0  0  0
    3.7530  -18.8630  -40.0190 N   0  0  0  0  0  0  0  0  0  0  0  0
    4.8060  -19.6590  -39.8880 C   0  0  0  0  0  3  0  0  0  0  0  0
    2.7270  -18.9970  -39.1610 C   0  0  0  0  0  0  0  0  0  0  0  0
    4.8590  -20.5990  -38.9070 C   0  0  0  0  0  0  0  0  0  0  0  0
    6.3750  -21.7370  -38.7260 Br  0  0  0  0  0  0  0  0  0  0  0  0
    3.8130  -20.7310  -38.0360 C   0  0  0  0  0  3  0  0  0  0  0  0
    2.7640  -19.9190  -38.1870 N   0  0  0  0  0  0  0  0  0  0  0  0
    1.6030  -13.1320  -37.8240 C   0  0  0  0  0  0  0  0  0  0  0  0
    2.1920  -12.1870  -37.0790 O   0  0  0  0  0  0  0  0  0  0  0  0
    3.2350  -11.6960  -37.6560 C   0  0  0  0  0  3  0  0  0  0  0  0
    3.4140  -12.3070  -38.8720 C   0  0  0  0  0  3  0  0  0  0  0  0
    2.3700  -13.2130  -38.9610 C   0  0  0  0  0  3  0  0  0  0  0  0
  1  3  1  0  0  0  0
  2  1  2  0  0  0  0
  3  4  1  0  0  0  0
  3  8  1  0  0  0  0
  4  5  1  0  0  0  0
  6  7  1  0  0  0  0
  6  5  1  0  0  0  0
  8  7  1  0  0  0  0
  9  6  1  0  0  0  0
 10  9  2  0  0  0  0
 11 16  2  0  0  0  0
 11  1  1  0  0  0  0
 12 11  1  0  0  0  0
 13 12  2  0  0  0  0
 13 14  1  0  0  0  0
 14 15  1  0  0  0  0
 14 16  1  0  0  0  0
 15 17  2  0  0  0  0
 16 20  1  0  0  0  0
 17 18  1  0  0  0  0
 17 19  1  0  0  0  0
 20 19  2  0  0  0  0
 21  9  1  0  0  0  0
 21 22  1  0  0  0  0
 23 22  1  0  0  0  0
 24 23  2  0  0  0  0
 25 24  1  0  0  0  0
 25 21  2  0  0  0  0
M  END
>  <Pose>
1

>  <Score>
-5.722

$$$$
