/Users/jonathanwahrer/Desktop/Msc/3_Semester/Drug_Design_Praktikum/waehrer_HTS_screening/HTS_experiment/out/docking_results/vina_output/6y4q/0797_docked.pdbqt
 OpenBabel03232217543D

 28 31  0  0  0  0  0  0  0  0999 V2000
    1.8230  -17.2770  -37.2890 O   0  0  0  0  0  0  0  0  0  0  0  0
    2.8150  -18.0700  -36.6920 C   0  0  0  0  0  2  0  0  0  0  0  0
    3.5330  -18.9500  -37.6510 C   0  0  0  0  0  0  0  0  0  0  0  0
    2.9010  -19.5200  -38.7040 N   0  0  0  0  0  0  0  0  0  0  0  0
    3.5280  -20.3160  -39.5870 C   0  0  0  0  0  0  0  0  0  0  0  0
    4.8380  -20.6070  -39.4880 N   0  0  0  0  0  0  0  0  0  0  0  0
    2.8440  -20.8870  -40.6630 C   0  0  0  0  0  3  0  0  0  0  0  0
    5.4520  -21.4090  -40.3840 C   0  0  0  0  0  3  0  0  0  0  0  0
    5.5100  -20.0610  -38.4530 C   0  0  0  0  0  0  0  0  0  0  0  0
    4.8040  -21.9860  -41.4540 C   0  0  0  0  0  0  0  0  0  0  0  0
    5.7250  -23.1190  -42.6980 Br  0  0  0  0  0  0  0  0  0  0  0  0
    3.4600  -21.7070  -41.5830 C   0  0  0  0  0  3  0  0  0  0  0  0
    4.8770  -19.2350  -37.5290 C   0  0  0  0  0  3  0  0  0  0  0  0
    6.7190  -20.3250  -38.3530 O   0  0  0  0  0  0  0  0  0  0  0  0
    0.9060  -16.4990  -36.6150 C   0  0  0  0  0  0  0  0  0  0  0  0
    0.6360  -16.7560  -35.4250 O   0  0  0  0  0  0  0  0  0  0  0  0
    0.2660  -15.3730  -37.3330 C   0  0  0  0  0  2  0  0  0  0  0  0
    1.2370  -14.3930  -37.7260 N   0  0  0  0  0  0  0  0  0  0  0  0
    1.8270  -14.2700  -39.0020 C   0  0  0  0  0  0  0  0  0  0  0  0
    1.6420  -14.9620  -40.0360 O   0  0  0  0  0  0  0  0  0  0  0  0
    2.7690  -13.1310  -38.9670 C   0  0  0  0  0  0  0  0  0  0  0  0
    2.7310  -12.6010  -37.7060 C   0  0  0  0  0  0  0  0  0  0  0  0
    3.5920  -12.5920  -39.9410 C   0  0  0  0  0  3  0  0  0  0  0  0
    3.4980  -11.5260  -37.3570 C   0  0  0  0  0  3  0  0  0  0  0  0
    1.7760  -13.3780  -36.9120 C   0  0  0  0  0  0  0  0  0  0  0  0
    4.3240  -10.9740  -38.3050 C   0  0  0  0  0  3  0  0  0  0  0  0
    4.3620  -11.5080  -39.5790 C   0  0  0  0  0  3  0  0  0  0  0  0
    1.5040  -13.1470  -35.6940 O   0  0  0  0  0  0  0  0  0  0  0  0
  1  2  1  0  0  0  0
  1 15  1  0  0  0  0
  3 13  2  0  0  0  0
  3  2  1  0  0  0  0
  4  3  1  0  0  0  0
  5  6  1  0  0  0  0
  5  4  2  0  0  0  0
  6  9  1  0  0  0  0
  7  5  1  0  0  0  0
  8  6  1  0  0  0  0
  9 14  2  0  0  0  0
  9 13  1  0  0  0  0
 10  8  2  0  0  0  0
 11 10  1  0  0  0  0
 12 10  1  0  0  0  0
 12  7  2  0  0  0  0
 15 16  2  0  0  0  0
 17 15  1  0  0  0  0
 18 17  1  0  0  0  0
 18 25  1  0  0  0  0
 19 21  1  0  0  0  0
 19 18  1  0  0  0  0
 20 19  2  0  0  0  0
 21 22  1  0  0  0  0
 22 24  2  0  0  0  0
 22 25  1  0  0  0  0
 23 27  1  0  0  0  0
 23 21  2  0  0  0  0
 25 28  2  0  0  0  0
 26 24  1  0  0  0  0
 27 26  2  0  0  0  0
M  END
>  <Pose>
1

>  <Score>
-7.468

$$$$
