/Users/jonathanwahrer/Desktop/Msc/3_Semester/Drug_Design_Praktikum/waehrer_HTS_screening/HTS_experiment/out/docking_results/vina_output/6y4q/0800_docked.pdbqt
 OpenBabel03232217543D

 29 32  0  0  1  0  0  0  0  0999 V2000
    0.5980  -18.8490  -39.2610 C   0  0  0  0  0  0  0  0  0  0  0  0
    0.6180  -19.2890  -40.4400 O   0  0  0  0  0  0  0  0  0  0  0  0
    0.0540  -17.6070  -39.0390 O   0  0  0  0  0  0  0  0  0  0  0  0
   -0.1780  -17.0880  -37.7430 C   0  0  0  0  0  2  0  0  0  0  0  0
    0.5130  -15.7800  -37.6240 C   0  0  0  0  0  0  0  0  0  0  0  0
    1.3100  -15.3120  -38.6010 N   0  0  0  0  0  0  0  0  0  0  0  0
    1.9450  -14.1190  -38.5030 C   0  0  1  0  0  3  0  0  0  0  0  0
    1.8000  -13.3470  -37.4070 N   0  0  0  0  0  0  0  0  0  0  0  0
    2.7530  -13.6850  -39.5360 C   0  0  0  0  0  3  0  0  0  0  0  0
    2.4210  -12.1610  -37.2900 C   0  0  0  0  0  3  0  0  0  0  0  0
    1.0090  -13.7750  -36.3980 C   0  0  0  0  0  0  0  0  0  0  0  0
    3.2290  -11.7220  -38.3160 C   0  0  0  0  0  0  0  0  0  0  0  0
    4.1100  -10.0360  -38.1450 Br  0  0  0  0  0  0  0  0  0  0  0  0
    3.4120  -12.4780  -39.4640 C   0  0  0  0  0  3  0  0  0  0  0  0
    0.3530  -15.0060  -36.4990 C   0  0  0  0  0  2  0  0  0  0  0  0
    0.8710  -13.0690  -35.3860 O   0  0  0  0  0  0  0  0  0  0  0  0
    1.1690  -19.7200  -38.2000 C   0  0  0  0  0  2  0  0  0  0  0  0
    2.6010  -19.6750  -38.1640 N   0  0  0  0  0  0  0  0  0  0  0  0
    3.4030  -18.8600  -37.3100 C   0  0  0  0  0  0  0  0  0  0  0  0
    2.9540  -18.0490  -36.4490 O   0  0  0  0  0  0  0  0  0  0  0  0
    4.7700  -19.1270  -37.6030 N   0  0  0  0  0  0  0  0  0  0  0  0
    4.8400  -19.9920  -38.7530 C   0  0  0  0  0  0  0  0  0  0  0  0
    5.5610  -18.7450  -37.0570 H   0  0  0  0  0  0  0  0  0  0  0  0
    5.3460  -19.2890  -39.9850 C   0  0  0  0  0  2  0  0  0  0  0  0
    5.7930  -21.1270  -38.5970 C   0  0  0  0  0  2  0  0  0  0  0  0
    3.4720  -20.4500  -38.9910 C   0  0  0  0  0  0  0  0  0  0  0  0
    5.7930  -20.4160  -40.8630 C   0  0  0  0  0  2  0  0  0  0  0  0
    5.9030  -21.6490  -40.0140 C   0  0  0  0  0  2  0  0  0  0  0  0
    3.0750  -21.3520  -39.7640 O   0  0  0  0  0  0  0  0  0  0  0  0
  1  3  1  0  0  0  0
  1 17  1  0  0  0  0
  2  1  2  0  0  0  0
  3  4  1  0  0  0  0
  4  5  1  0  0  0  0
  5 15  1  0  0  0  0
  6  7  1  0  0  0  0
  6  5  2  0  0  0  0
  7  9  1  1  0  0  0
  7  8  1  0  0  0  0
  8 10  1  0  0  0  0
  8 11  1  0  0  0  0
  9 14  2  0  0  0  0
 11 16  2  0  0  0  0
 12 13  1  0  0  0  0
 12 10  2  0  0  0  0
 14 12  1  0  0  0  0
 15 11  1  0  0  0  0
 17 18  1  0  0  0  0
 18 19  1  0  0  0  0
 19 20  2  0  0  0  0
 21 19  1  0  0  0  0
 21 23  1  0  0  0  0
 22 25  1  0  0  0  0
 22 21  1  0  0  0  0
 24 22  1  0  0  0  0
 26 22  1  0  0  0  0
 26 18  1  0  0  0  0
 27 28  1  0  0  0  0
 27 24  1  0  0  0  0
 28 25  1  0  0  0  0
 29 26  2  0  0  0  0
M  END
>  <Pose>
1

>  <Score>
-6.719

$$$$
