/Users/jonathanwahrer/Desktop/Msc/3_Semester/Drug_Design_Praktikum/waehrer_HTS_screening/HTS_experiment/out/docking_results/vina_output/6y4q/0803_docked.pdbqt
 OpenBabel03232217553D

 31 34  0  0  0  0  0  0  0  0999 V2000
   -1.9480  -13.3490  -39.1570 Br  0  0  0  0  0  0  0  0  0  0  0  0
   -0.7140  -14.5160  -38.3070 C   0  0  0  0  0  0  0  0  0  0  0  0
   -0.2550  -15.6540  -38.8720 C   0  0  0  0  0  2  0  0  0  0  0  0
    0.6780  -16.4330  -38.3170 N   0  0  0  0  0  0  0  0  0  0  0  0
    1.1870  -16.0710  -37.1400 C   0  0  0  0  0  0  0  0  0  0  0  0
    2.1340  -16.8540  -36.5510 N   0  0  0  0  0  0  0  0  0  0  0  0
    2.5840  -17.9770  -37.0930 C   0  0  0  0  0  0  0  0  0  0  0  0
    2.0750  -18.3730  -38.3090 C   0  0  0  0  0  0  0  0  0  0  0  0
    2.4990  -19.5360  -38.9200 C   0  0  0  0  0  3  0  0  0  0  0  0
    3.4590  -20.3700  -38.3470 C   0  0  0  0  0  3  0  0  0  0  0  0
    3.9620  -19.9640  -37.1300 C   0  0  0  0  0  3  0  0  0  0  0  0
    3.5410  -18.7990  -36.5130 C   0  0  0  0  0  3  0  0  0  0  0  0
    1.1110  -17.5600  -38.8930 C   0  0  0  0  0  0  0  0  0  0  0  0
    0.6390  -17.9090  -39.9980 O   0  0  0  0  0  0  0  0  0  0  0  0
    0.7430  -14.9360  -36.5520 N   0  0  0  0  0  0  0  0  0  0  0  0
   -0.1780  -14.1140  -37.0370 C   0  0  0  0  0  0  0  0  0  0  0  0
    1.2300  -14.7580  -35.6140 H   0  0  0  0  0  0  0  0  0  0  0  0
   -0.7450  -13.0230  -36.4600 N   0  0  0  0  0  0  0  0  0  0  0  0
   -1.9870  -13.5910  -36.4950 H   0  0  0  0  0  0  0  0  0  0  0  0
   -1.3040  -11.9480  -35.8910 C   0  0  0  0  0  0  0  0  0  0  0  0
   -0.7750  -10.6760  -36.1500 C   0  0  0  0  0  0  0  0  0  0  0  0
   -1.1590   -9.6020  -35.4160 C   0  0  0  0  0  3  0  0  0  0  0  0
   -2.0790   -9.7420  -34.4060 C   0  0  0  0  0  3  0  0  0  0  0  0
   -2.6410  -10.9620  -34.1050 C   0  0  0  0  0  3  0  0  0  0  0  0
   -2.2340  -12.0360  -34.8620 C   0  0  0  0  0  3  0  0  0  0  0  0
    0.0910  -10.4200  -37.3080 C   0  0  0  0  0  0  0  0  0  0  0  0
   -0.4480   -9.9760  -38.3530 O   0  0  0  0  0  0  0  0  0  0  0  0
    1.4390  -10.6290  -37.3520 O   0  0  0  0  0  0  0  0  0  0  0  0
    2.0630  -11.4020  -38.3580 C   0  0  0  0  0  2  0  0  0  0  0  0
    3.1660  -12.2730  -37.7490 C   0  0  0  0  0  2  0  0  0  0  0  0
    4.1100  -11.3850  -36.9740 C   0  0  0  0  0  1  0  0  0  0  0  0
  1  2  1  0  0  0  0
  2 16  2  0  0  0  0
  3  4  1  0  0  0  0
  3  2  1  0  0  0  0
  4  5  1  0  0  0  0
  5 15  1  0  0  0  0
  5  6  2  0  0  0  0
  7  6  1  0  0  0  0
  7 12  1  0  0  0  0
  8  7  2  0  0  0  0
  9 10  2  0  0  0  0
  9  8  1  0  0  0  0
 10 11  1  0  0  0  0
 11 12  2  0  0  0  0
 13  4  1  0  0  0  0
 13  8  1  0  0  0  0
 14 13  2  0  0  0  0
 15 17  1  0  0  0  0
 16 15  1  0  0  0  0
 16 18  1  0  0  0  0
 18 20  1  0  0  0  0
 19 18  1  0  0  0  0
 20 25  1  0  0  0  0
 21 20  2  0  0  0  0
 21 22  1  0  0  0  0
 22 23  2  0  0  0  0
 23 24  1  0  0  0  0
 25 24  2  0  0  0  0
 26 21  1  0  0  0  0
 27 26  2  0  0  0  0
 28 26  1  0  0  0  0
 29 30  1  0  0  0  0
 29 28  1  0  0  0  0
 30 31  1  0  0  0  0
M  END
>  <Pose>
1

>  <Score>
-5.960

$$$$
