/Users/jonathanwahrer/Desktop/Msc/3_Semester/Drug_Design_Praktikum/waehrer_HTS_screening/HTS_experiment/out/docking_results/vina_output/6y4q/0834_docked.pdbqt
 OpenBabel03232217553D

 28 31  0  0  1  0  0  0  0  0999 V2000
    1.1140  -16.7240  -37.2360 C   0  0  2  0  0  0  0  0  0  0  0  0
   -0.2790  -17.0320  -37.2530 N   0  0  0  0  0  0  0  0  0  0  0  0
   -0.9920  -17.9330  -36.4010 C   0  0  0  0  0  3  0  0  0  0  0  0
   -1.9470  -18.8650  -37.0400 C   0  0  0  0  0  3  0  0  0  0  0  0
   -2.1240  -18.7550  -38.5120 C   0  0  0  0  0  2  0  0  0  0  0  0
   -2.9090  -17.5050  -38.9080 C   0  0  0  0  0  2  0  0  0  0  0  0
   -1.9140  -16.3930  -39.0160 C   0  0  0  0  0  3  0  0  0  0  0  0
   -0.8080  -16.1970  -38.3190 C   0  0  0  0  0  0  0  0  0  0  0  0
    0.0800  -15.1050  -38.5230 N   0  0  0  0  0  4  0  0  0  0  0  0
    1.3430  -15.7740  -38.4170 C   0  0  0  0  0  2  0  0  0  0  0  0
   -0.0950  -14.7250  -39.4870 H   0  0  0  0  0  0  0  0  0  0  0  0
    2.0600  -17.8170  -37.4520 C   0  0  0  0  0  0  0  0  0  0  0  0
    3.1050  -18.1860  -36.6720 C   0  0  0  0  0  3  0  0  0  0  0  0
    3.9290  -19.2560  -36.9960 C   0  0  0  0  0  3  0  0  0  0  0  0
    3.7010  -19.9870  -38.1420 C   0  0  0  0  0  0  0  0  0  0  0  0
    4.8170  -21.4680  -38.6100 Br  0  0  0  0  0  0  0  0  0  0  0  0
    2.6410  -19.6160  -38.9360 C   0  0  0  0  0  3  0  0  0  0  0  0
    1.8210  -18.5620  -38.6270 C   0  0  0  0  0  3  0  0  0  0  0  0
    1.5120  -16.1030  -36.0360 O   0  0  0  0  0  0  0  0  0  0  0  0
    0.8960  -16.4620  -35.3470 H   0  0  0  0  0  0  0  0  0  0  0  0
   -0.1350  -14.1440  -37.5210 C   0  0  0  0  0  0  0  0  0  0  0  0
   -1.4020  -13.9930  -36.9280 C   0  0  0  0  0  3  0  0  0  0  0  0
   -1.6440  -13.0640  -35.9530 C   0  0  0  0  0  3  0  0  0  0  0  0
   -0.6430  -12.2290  -35.5060 C   0  0  0  0  0  0  0  0  0  0  0  0
    0.6010  -12.3570  -36.0690 C   0  0  0  0  0  3  0  0  0  0  0  0
    0.8440  -13.2930  -37.0530 C   0  0  0  0  0  3  0  0  0  0  0  0
   -0.9020  -11.2760  -34.5020 O   0  0  0  0  0  0  0  0  0  0  0  0
   -1.2890   -9.9740  -34.8530 C   0  0  0  0  0  1  0  0  0  0  0  0
  1 19  1  1  0  0  0
  2  1  1  0  0  0  0
  2  3  1  0  0  0  0
  4  3  2  0  0  0  0
  5  4  1  0  0  0  0
  6  5  1  0  0  0  0
  7  6  1  0  0  0  0
  7  8  2  0  0  0  0
  8  2  1  0  0  0  0
  9 10  1  0  0  0  0
  9  8  1  0  0  0  0
  9 21  1  0  0  0  0
 10  1  1  0  0  0  0
 11  9  1  0  0  0  0
 12  1  1  0  0  0  0
 12 13  1  0  0  0  0
 14 13  2  0  0  0  0
 15 14  1  0  0  0  0
 16 15  1  0  0  0  0
 17 18  1  0  0  0  0
 17 15  2  0  0  0  0
 18 12  2  0  0  0  0
 19 20  1  0  0  0  0
 21 26  2  0  0  0  0
 21 22  1  0  0  0  0
 22 23  2  0  0  0  0
 23 24  1  0  0  0  0
 24 27  1  0  0  0  0
 25 24  2  0  0  0  0
 26 25  1  0  0  0  0
 28 27  1  0  0  0  0
M  END
>  <Pose>
1

>  <Score>
-6.443

$$$$
