/Users/jonathanwahrer/Desktop/Msc/3_Semester/Drug_Design_Praktikum/waehrer_HTS_screening/HTS_experiment/out/docking_results/vina_output/6y4q/0835_docked.pdbqt
 OpenBabel03232217563D

 27 30  0  0  1  0  0  0  0  0999 V2000
    1.5680  -12.8850  -37.7020 C   0  0  2  0  0  0  0  0  0  0  0  0
    0.7390  -11.9080  -37.0290 N   0  0  0  0  0  0  0  0  0  0  0  0
    0.3870  -10.5130  -37.1840 C   0  0  0  0  0  2  0  0  0  0  0  0
   -1.0450  -10.2350  -36.7750 C   0  0  0  0  0  2  0  0  0  0  0  0
   -1.2160  -10.6570  -35.3550 C   0  0  0  0  0  2  0  0  0  0  0  0
   -0.7370  -12.0380  -35.1350 C   0  0  0  0  0  3  0  0  0  0  0  0
    0.1770  -12.6120  -35.9230 C   0  0  0  0  0  0  0  0  0  0  0  0
    0.7320  -13.9030  -35.8050 N   0  0  0  0  0  4  0  0  0  0  0  0
    1.9900  -13.7760  -36.5690 C   0  0  0  0  0  2  0  0  0  0  0  0
    1.0920  -14.0760  -34.8100 H   0  0  0  0  0  0  0  0  0  0  0  0
    2.7280  -12.2820  -38.4030 C   0  0  0  0  0  0  0  0  0  0  0  0
    3.5760  -11.4330  -37.7250 C   0  0  0  0  0  3  0  0  0  0  0  0
    4.6870  -10.8430  -38.3270 C   0  0  0  0  0  3  0  0  0  0  0  0
    4.9490  -11.1180  -39.6500 C   0  0  0  0  0  0  0  0  0  0  0  0
    6.4710  -10.3060  -40.4940 Br  0  0  0  0  0  0  0  0  0  0  0  0
    4.1090  -11.9640  -40.3410 C   0  0  0  0  0  3  0  0  0  0  0  0
    3.0120  -12.5420  -39.7310 C   0  0  0  0  0  3  0  0  0  0  0  0
    0.8570  -13.6560  -38.6150 O   0  0  0  0  0  0  0  0  0  0  0  0
    0.6230  -13.0610  -39.3670 H   0  0  0  0  0  0  0  0  0  0  0  0
   -0.0330  -14.9680  -36.2690 C   0  0  0  0  0  0  0  0  0  0  0  0
    0.4260  -16.2600  -36.3410 C   0  0  0  0  0  0  0  0  0  0  0  0
   -0.3900  -17.2790  -36.8360 C   0  0  0  0  0  3  0  0  0  0  0  0
   -1.6670  -17.0140  -37.2600 C   0  0  0  0  0  3  0  0  0  0  0  0
   -2.1380  -15.7210  -37.1890 C   0  0  0  0  0  3  0  0  0  0  0  0
   -1.3300  -14.7240  -36.7010 C   0  0  0  0  0  3  0  0  0  0  0  0
    1.6960  -16.6160  -35.9340 O   0  0  0  0  0  0  0  0  0  0  0  0
    2.4540  -17.5320  -36.6530 C   0  0  0  0  0  1  0  0  0  0  0  0
  1 18  1  6  0  0  0
  1  2  1  0  0  0  0
  1  9  1  0  0  0  0
  2  7  1  0  0  0  0
  3  2  1  0  0  0  0
  3  4  1  0  0  0  0
  4  5  1  0  0  0  0
  5  6  1  0  0  0  0
  7  8  1  0  0  0  0
  7  6  2  0  0  0  0
  8 10  1  0  0  0  0
  9  8  1  0  0  0  0
 11 12  1  0  0  0  0
 11  1  1  0  0  0  0
 13 12  2  0  0  0  0
 14 13  1  0  0  0  0
 15 14  1  0  0  0  0
 16 17  1  0  0  0  0
 16 14  2  0  0  0  0
 17 11  2  0  0  0  0
 19 18  1  0  0  0  0
 20  8  1  0  0  0  0
 21 20  1  0  0  0  0
 21 26  1  0  0  0  0
 22 21  2  0  0  0  0
 23 24  2  0  0  0  0
 23 22  1  0  0  0  0
 24 25  1  0  0  0  0
 25 20  2  0  0  0  0
 27 26  1  0  0  0  0
M  END
>  <Pose>
1

>  <Score>
-6.365

$$$$
