/Users/jonathanwahrer/Desktop/Msc/3_Semester/Drug_Design_Praktikum/waehrer_HTS_screening/HTS_experiment/out/docking_results/vina_output/6y4q/0836_docked.pdbqt
 OpenBabel03232217563D

 27 30  0  0  1  0  0  0  0  0999 V2000
    0.6190  -15.3340  -38.6270 C   0  0  2  0  0  0  0  0  0  0  0  0
    0.4200  -16.2810  -37.5580 N   0  0  0  0  0  0  0  0  0  0  0  0
    0.3710  -16.2190  -36.1040 C   0  0  0  0  0  2  0  0  0  0  0  0
   -0.4980  -17.2310  -35.4650 C   0  0  0  0  0  2  0  0  0  0  0  0
   -1.2950  -18.0990  -36.4070 C   0  0  0  0  0  2  0  0  0  0  0  0
   -0.5830  -18.4180  -37.6400 C   0  0  0  0  0  3  0  0  0  0  0  0
    0.2390  -17.5420  -38.1870 C   0  0  0  0  0  0  0  0  0  0  0  0
    1.0530  -17.5700  -39.3550 N   0  0  0  0  0  4  0  0  0  0  0  0
    1.1920  -16.1960  -39.7280 C   0  0  0  0  0  2  0  0  0  0  0  0
    0.5090  -18.1000  -40.0880 H   0  0  0  0  0  0  0  0  0  0  0  0
    1.4700  -14.1950  -38.2880 C   0  0  0  0  0  0  0  0  0  0  0  0
    2.3400  -13.6740  -39.2220 C   0  0  0  0  0  3  0  0  0  0  0  0
    3.1670  -12.6010  -38.9580 C   0  0  0  0  0  3  0  0  0  0  0  0
    3.1610  -11.9880  -37.7190 C   0  0  0  0  0  0  0  0  0  0  0  0
    4.2970  -10.5050  -37.3290 Br  0  0  0  0  0  0  0  0  0  0  0  0
    2.2970  -12.4960  -36.7740 C   0  0  0  0  0  3  0  0  0  0  0  0
    1.4710  -13.5720  -37.0460 C   0  0  0  0  0  3  0  0  0  0  0  0
   -0.6540  -14.8430  -38.9840 O   0  0  0  0  0  0  0  0  0  0  0  0
   -1.2800  -15.5960  -38.8510 H   0  0  0  0  0  0  0  0  0  0  0  0
    2.2370  -18.2370  -39.0670 C   0  0  0  0  0  0  0  0  0  0  0  0
    2.6220  -18.4560  -37.7650 C   0  0  0  0  0  3  0  0  0  0  0  0
    3.8200  -19.1300  -37.4770 C   0  0  0  0  0  3  0  0  0  0  0  0
    4.6410  -19.5890  -38.4680 C   0  0  0  0  0  0  0  0  0  0  0  0
    4.2440  -19.3630  -39.7990 C   0  0  0  0  0  3  0  0  0  0  0  0
    3.0620  -18.6980  -40.0500 C   0  0  0  0  0  3  0  0  0  0  0  0
    5.8410  -20.2640  -38.2550 O   0  0  0  0  0  0  0  0  0  0  0  0
    6.1520  -21.5520  -38.6790 C   0  0  0  0  0  1  0  0  0  0  0  0
  1 18  1  6  0  0  0
  1 11  1  0  0  0  0
  1  2  1  0  0  0  0
  2  3  1  0  0  0  0
  3  4  1  0  0  0  0
  5  4  1  0  0  0  0
  6  5  1  0  0  0  0
  7  6  2  0  0  0  0
  7  2  1  0  0  0  0
  8 20  1  0  0  0  0
  8  7  1  0  0  0  0
  9  8  1  0  0  0  0
  9  1  1  0  0  0  0
 10  8  1  0  0  0  0
 11 17  1  0  0  0  0
 12 13  1  0  0  0  0
 12 11  2  0  0  0  0
 13 14  2  0  0  0  0
 14 15  1  0  0  0  0
 14 16  1  0  0  0  0
 17 16  2  0  0  0  0
 18 19  1  0  0  0  0
 20 21  1  0  0  0  0
 21 22  2  0  0  0  0
 23 26  1  0  0  0  0
 23 22  1  0  0  0  0
 24 23  2  0  0  0  0
 25 24  1  0  0  0  0
 25 20  2  0  0  0  0
 27 26  1  0  0  0  0
M  END
>  <Pose>
1

>  <Score>
-7.027

$$$$
