/Users/jonathanwahrer/Desktop/Msc/3_Semester/Drug_Design_Praktikum/waehrer_HTS_screening/HTS_experiment/out/docking_results/vina_output/6y4q/0847_docked.pdbqt
 OpenBabel03232217563D

 31 34  0  0  1  0  0  0  0  0999 V2000
    2.1430  -17.8260  -40.6040 C   0  0  0  0  0  0  0  0  0  0  0  0
    2.9220  -18.7260  -39.9820 N   0  0  0  0  0  0  0  0  0  0  0  0
    2.1830  -19.3290  -39.0320 C   0  0  1  0  0  3  0  0  0  0  0  0
    0.9190  -18.7910  -39.0660 N   0  0  0  0  0  0  0  0  0  0  0  0
    0.9360  -17.8860  -40.0290 N   0  0  0  0  0  0  0  0  0  0  0  0
    2.4870  -20.3820  -38.0570 C   0  0  0  0  0  2  0  0  0  0  0  0
    3.8990  -20.3760  -37.5350 C   0  0  0  0  0  2  0  0  0  0  0  0
    4.9320  -20.5860  -38.5940 C   0  0  0  0  0  2  0  0  0  0  0  0
    5.2190  -19.2360  -39.2090 C   0  0  0  0  0  2  0  0  0  0  0  0
    4.2840  -18.9290  -40.3520 C   0  0  0  0  0  2  0  0  0  0  0  0
   -0.2090  -19.1340  -38.2960 C   0  0  0  0  0  3  0  0  0  0  0  0
   -0.6890  -18.1920  -37.3200 C   0  0  0  0  0  0  0  0  0  0  0  0
   -1.7340  -18.6550  -36.6340 O   0  0  0  0  0  1  0  0  0  0  0  0
   -0.2980  -16.8700  -36.9200 C   0  0  0  0  0  0  0  0  0  0  0  0
   -1.1890  -15.7840  -37.0630 C   0  0  0  0  0  3  0  0  0  0  0  0
   -0.8660  -14.5030  -36.7030 C   0  0  0  0  0  3  0  0  0  0  0  0
    0.3660  -14.2100  -36.1750 C   0  0  0  0  0  0  0  0  0  0  0  0
    1.2610  -15.2330  -36.0190 C   0  0  0  0  0  3  0  0  0  0  0  0
    0.9150  -16.5450  -36.3940 C   0  0  0  0  0  3  0  0  0  0  0  0
    0.6940  -12.9060  -35.8090 O   0  0  0  0  0  0  0  0  0  0  0  0
    0.0990  -11.7810  -36.4070 C   0  0  0  0  0  1  0  0  0  0  0  0
    2.4680  -16.8890  -41.7270 C   0  0  0  0  0  2  0  0  0  0  0  0
    1.8100  -15.6060  -41.5910 N   0  0  0  0  0  0  0  0  0  0  0  0
    0.8790  -15.4290  -42.0280 H   0  0  0  0  0  0  0  0  0  0  0  0
    2.3860  -14.5140  -40.8620 C   0  0  0  0  0  0  0  0  0  0  0  0
    2.0300  -14.2870  -39.5510 C   0  0  0  0  0  3  0  0  0  0  0  0
    2.5860  -13.2450  -38.8570 C   0  0  0  0  0  3  0  0  0  0  0  0
    3.5120  -12.4090  -39.4720 C   0  0  0  0  0  0  0  0  0  0  0  0
    4.2850  -10.9650  -38.5080 Br  0  0  0  0  0  0  0  0  0  0  0  0
    3.8830  -12.6210  -40.7880 C   0  0  0  0  0  3  0  0  0  0  0  0
    3.3060  -13.6760  -41.4570 C   0  0  0  0  0  3  0  0  0  0  0  0
  1  5  2  0  0  0  0
  1  2  1  0  0  0  0
  2  3  1  0  0  0  0
  3  6  1  6  0  0  0
  4  3  1  0  0  0  0
  4 11  1  0  0  0  0
  5  4  1  0  0  0  0
  6  7  1  0  0  0  0
  8  7  1  0  0  0  0
  9  8  1  0  0  0  0
 10  2  1  0  0  0  0
 10  9  1  0  0  0  0
 11 12  2  0  0  0  0
 12 14  1  0  0  0  0
 12 13  1  0  0  0  0
 14 19  1  0  0  0  0
 15 14  2  0  0  0  0
 15 16  1  0  0  0  0
 16 17  2  0  0  0  0
 17 18  1  0  0  0  0
 17 20  1  0  0  0  0
 19 18  2  0  0  0  0
 21 20  1  0  0  0  0
 22 23  1  0  0  0  0
 22  1  1  0  0  0  0
 23 25  1  0  0  0  0
 24 23  1  0  0  0  0
 25 26  1  0  0  0  0
 26 27  2  0  0  0  0
 28 27  1  0  0  0  0
 28 29  1  0  0  0  0
 30 28  2  0  0  0  0
 31 25  2  0  0  0  0
 31 30  1  0  0  0  0
M  END
>  <Pose>
1

>  <Score>
-6.285

$$$$
