/Users/jonathanwahrer/Desktop/Msc/3_Semester/Drug_Design_Praktikum/waehrer_HTS_screening/HTS_experiment/out/docking_results/vina_output/6y4q/0860_docked.pdbqt
 OpenBabel03232217573D

 29 32  0  0  1  0  0  0  0  0999 V2000
    4.7280  -20.3830  -41.4750 Br  0  0  0  0  0  0  0  0  0  0  0  0
    3.9420  -19.6250  -39.9020 C   0  0  0  0  0  0  0  0  0  0  0  0
    3.1320  -18.5080  -39.9650 C   0  0  0  0  0  3  0  0  0  0  0  0
    2.5690  -17.9660  -38.8310 C   0  0  0  0  0  0  0  0  0  0  0  0
    2.8550  -18.5910  -37.6350 C   0  0  0  0  0  0  0  0  0  0  0  0
    3.6640  -19.7070  -37.5660 C   0  0  0  0  0  3  0  0  0  0  0  0
    4.2250  -20.2460  -38.7040 C   0  0  0  0  0  0  0  0  0  0  0  0
    5.0970  -21.4530  -38.6180 C   0  0  0  0  0  1  0  0  0  0  0  0
    2.2740  -18.0240  -36.5020 O   0  0  0  0  0  0  0  0  0  0  0  0
    1.7170  -16.7530  -36.4650 C   0  0  0  0  0  2  0  0  0  0  0  0
    1.0810  -16.2910  -37.7330 C   0  0  2  0  0  0  0  0  0  0  0  0
    1.7220  -16.7790  -38.9840 C   0  0  2  0  0  3  0  0  0  0  0  0
    1.2230  -14.8310  -37.7300 N   0  0  0  0  0  4  0  0  0  0  0  0
    1.5480  -14.2980  -36.4520 C   0  0  0  0  0  2  0  0  0  0  0  0
    2.0220  -12.8570  -36.6970 C   0  0  0  0  0  2  0  0  0  0  0  0
    0.9310  -12.1690  -37.2000 O   0  0  0  0  0  0  0  0  0  0  0  0
    0.4610  -12.6870  -38.4010 C   0  0  0  0  0  2  0  0  0  0  0  0
    0.0670  -14.1620  -38.2450 C   0  0  0  0  0  2  0  0  0  0  0  0
    2.0170  -14.6310  -38.3790 H   0  0  0  0  0  0  0  0  0  0  0  0
   -0.4060  -16.5750  -37.7790 C   0  0  0  0  0  2  0  0  0  0  0  0
   -0.8150  -17.6610  -36.9420 N   0  0  0  0  0  4  0  0  0  0  0  0
   -2.0350  -17.3770  -36.2090 C   0  0  0  0  0  2  0  0  0  0  0  0
   -3.0010  -18.5520  -36.2430 C   0  0  0  0  0  2  0  0  0  0  0  0
   -3.4360  -18.8400  -37.5260 O   0  0  0  0  0  0  0  0  0  0  0  0
   -2.4350  -18.6060  -38.4650 C   0  0  0  0  0  2  0  0  0  0  0  0
   -1.1130  -18.8450  -37.7640 C   0  0  0  0  0  2  0  0  0  0  0  0
   -0.1160  -17.9760  -36.2520 H   0  0  0  0  0  0  0  0  0  0  0  0
    0.7450  -17.1000  -39.9580 O   0  0  0  0  0  0  0  0  0  0  0  0
    1.1300  -17.1780  -40.8560 H   0  0  0  0  0  0  0  0  0  0  0  0
  1  2  1  0  0  0  0
  2  7  1  0  0  0  0
  3  2  2  0  0  0  0
  3  4  1  0  0  0  0
  4  5  2  0  0  0  0
  5  6  1  0  0  0  0
  5  9  1  0  0  0  0
  7  8  1  0  0  0  0
  7  6  2  0  0  0  0
  9 10  1  0  0  0  0
 11 20  1  1  0  0  0
 11 13  1  0  0  0  0
 11 10  1  0  0  0  0
 12 28  1  6  0  0  0
 12  4  1  0  0  0  0
 12 11  1  0  0  0  0
 13 14  1  0  0  0  0
 15 14  1  0  0  0  0
 16 15  1  0  0  0  0
 17 18  1  0  0  0  0
 17 16  1  0  0  0  0
 18 13  1  0  0  0  0
 19 13  1  0  0  0  0
 20 21  1  0  0  0  0
 21 27  1  0  0  0  0
 21 22  1  0  0  0  0
 23 22  1  0  0  0  0
 24 23  1  0  0  0  0
 25 26  1  0  0  0  0
 25 24  1  0  0  0  0
 26 21  1  0  0  0  0
 29 28  1  0  0  0  0
M  END
>  <Pose>
1

>  <Score>
-5.584

$$$$
