/Users/jonathanwahrer/Desktop/Msc/3_Semester/Drug_Design_Praktikum/waehrer_HTS_screening/HTS_experiment/out/docking_results/vina_output/6y4q/0865_docked.pdbqt
 OpenBabel03232217573D

 30 33  0  0  0  0  0  0  0  0999 V2000
    0.9990  -17.2300  -37.0180 C   0  0  0  0  0  0  0  0  0  0  0  0
   -0.0740  -17.8720  -37.5320 N   0  0  0  0  0  4  0  0  0  0  0  0
    0.0140  -19.0830  -38.1360 C   0  0  0  0  0  0  0  0  0  0  0  0
    1.2310  -19.6250  -38.2060 N   0  0  0  0  0  0  0  0  0  0  0  0
    2.3420  -19.0460  -37.7180 C   0  0  0  0  0  0  0  0  0  0  0  0
    2.1880  -17.8460  -37.1300 N   0  0  0  0  0  2  0  0  0  0  0  0
    0.8340  -15.9690  -36.4010 N   0  0  0  0  0  0  0  0  0  0  0  0
    0.0850  -15.8430  -35.7000 H   0  0  0  0  0  0  0  0  0  0  0  0
    1.6630  -14.9050  -36.7280 N   0  0  0  0  0  0  0  0  0  0  0  0
    1.6230  -14.2870  -37.8540 C   0  0  0  0  0  3  0  0  0  0  0  0
    2.5260  -13.1770  -38.1260 C   0  0  0  0  0  0  0  0  0  0  0  0
    3.0920  -12.9750  -39.3740 C   0  0  0  0  0  3  0  0  0  0  0  0
    3.9470  -11.9230  -39.6270 C   0  0  0  0  0  0  0  0  0  0  0  0
    4.2740  -11.0230  -38.6330 C   0  0  0  0  0  0  0  0  0  0  0  0
    4.7130  -11.6690  -41.3580 Br  0  0  0  0  0  0  0  0  0  0  0  0
    5.1150   -9.9760  -38.8620 F   0  0  0  0  0  0  0  0  0  0  0  0
    3.7180  -11.2110  -37.3890 C   0  0  0  0  0  3  0  0  0  0  0  0
    2.8580  -12.2720  -37.1390 C   0  0  0  0  0  3  0  0  0  0  0  0
   -1.1490  -19.7140  -38.6590 N   0  0  0  0  0  0  0  0  0  0  0  0
   -2.3380  -19.0070  -39.0730 C   0  0  0  0  0  2  0  0  0  0  0  0
   -3.4590  -19.6810  -38.2840 C   0  0  0  0  0  2  0  0  0  0  0  0
   -3.6130  -20.9420  -38.7290 O   0  0  0  0  0  0  0  0  0  0  0  0
   -2.5460  -21.7280  -38.9150 C   0  0  0  0  0  3  0  0  0  0  0  0
   -1.1910  -21.1510  -38.8040 C   0  0  0  0  0  3  0  0  0  0  0  0
    3.6060  -19.6840  -37.8290 N   0  0  0  0  0  0  0  0  0  0  0  0
    3.7290  -20.8540  -38.6790 C   0  0  0  0  0  2  0  0  0  0  0  0
    5.1440  -21.3820  -38.6070 C   0  0  0  0  0  2  0  0  0  0  0  0
    6.1110  -20.4340  -38.7830 O   0  0  0  0  0  0  0  0  0  0  0  0
    5.9120  -19.2280  -38.1670 C   0  0  0  0  0  2  0  0  0  0  0  0
    4.7860  -19.2440  -37.1460 C   0  0  0  0  0  2  0  0  0  0  0  0
  1  7  1  0  0  0  0
  2  1  2  0  0  0  0
  3  2  2  0  0  0  0
  4  3  1  0  0  0  0
  4  5  2  0  0  0  0
  5  6  1  0  0  0  0
  6  1  1  0  0  0  0
  7  8  1  0  0  0  0
  9  7  1  0  0  0  0
 10  9  2  0  0  0  0
 11 10  1  0  0  0  0
 11 18  1  0  0  0  0
 12 11  2  0  0  0  0
 13 12  1  0  0  0  0
 13 14  2  0  0  0  0
 14 17  1  0  0  0  0
 15 13  1  0  0  0  0
 16 14  1  0  0  0  0
 17 18  2  0  0  0  0
 19  3  1  0  0  0  0
 20 19  1  0  0  0  0
 20 21  1  0  0  0  0
 22 21  1  0  0  0  0
 23 24  2  0  0  0  0
 23 22  1  0  0  0  0
 24 19  1  0  0  0  0
 25  5  1  0  0  0  0
 25 30  1  0  0  0  0
 26 27  1  0  0  0  0
 26 25  1  0  0  0  0
 28 27  1  0  0  0  0
 28 29  1  0  0  0  0
 29 30  1  0  0  0  0
M  END
>  <Pose>
1

>  <Score>
-6.951

$$$$
