/Users/jonathanwahrer/Desktop/Msc/3_Semester/Drug_Design_Praktikum/waehrer_HTS_screening/HTS_experiment/out/docking_results/vina_output/6y4q/0873_docked.pdbqt
 OpenBabel03232217583D

 32 35  0  0  1  0  0  0  0  0999 V2000
    0.5950  -17.2400  -38.7400 C   0  0  2  0  0  3  0  0  0  0  0  0
    1.7890  -17.9400  -38.2930 N   0  0  0  0  0  0  0  0  0  0  0  0
    2.0830  -17.2470  -37.0620 C   0  0  0  0  0  0  0  0  0  0  0  0
    2.6240  -17.6960  -36.0170 O   0  0  0  0  0  0  0  0  0  0  0  0
    1.6340  -15.8320  -37.1940 C   0  0  0  0  0  0  0  0  0  0  0  0
    1.6740  -14.8750  -36.4220 O   0  0  0  0  0  0  0  0  0  0  0  0
    1.0790  -15.8150  -38.5790 C   0  0  0  0  0  0  0  0  0  0  0  0
    1.0380  -14.7940  -39.4000 C   0  0  0  0  0  0  0  0  0  0  0  0
    0.4620  -14.9600  -40.6750 O   0  0  0  0  0  1  0  0  0  0  0  0
    2.5540  -18.9990  -38.7950 C   0  0  0  0  0  2  0  0  0  0  0  0
    2.8080  -20.2070  -37.9670 C   0  0  0  0  0  2  0  0  0  0  0  0
    4.1910  -20.5820  -37.8790 N   0  0  0  0  0  4  0  0  0  0  0  0
    5.0080  -19.3950  -38.0250 C   0  0  0  0  0  2  0  0  0  0  0  0
    6.4760  -19.7240  -37.8200 C   0  0  0  0  0  2  0  0  0  0  0  0
    6.8610  -20.6690  -38.7520 O   0  0  0  0  0  0  0  0  0  0  0  0
    6.0610  -21.8040  -38.6570 C   0  0  0  0  0  2  0  0  0  0  0  0
    4.6060  -21.4520  -38.9980 C   0  0  0  0  0  2  0  0  0  0  0  0
    4.4270  -21.1490  -37.0390 H   0  0  0  0  0  0  0  0  0  0  0  0
   -0.5840  -17.4210  -37.8780 C   0  0  0  0  0  0  0  0  0  0  0  0
   -1.0090  -18.6570  -37.4340 C   0  0  0  0  0  0  0  0  0  0  0  0
   -0.3600  -19.7710  -37.7360 F   0  0  0  0  0  0  0  0  0  0  0  0
   -2.1510  -18.7910  -36.6400 C   0  0  0  0  0  3  0  0  0  0  0  0
   -2.8850  -17.7100  -36.2750 C   0  0  0  0  0  3  0  0  0  0  0  0
   -2.4960  -16.4700  -36.6950 C   0  0  0  0  0  3  0  0  0  0  0  0
   -1.3610  -16.3610  -37.4820 C   0  0  0  0  0  3  0  0  0  0  0  0
    1.5740  -13.4910  -39.0350 C   0  0  0  0  0  0  0  0  0  0  0  0
    2.9000  -13.2180  -39.2920 C   0  0  0  0  0  3  0  0  0  0  0  0
    3.4820  -12.0100  -38.9470 C   0  0  0  0  0  3  0  0  0  0  0  0
    2.7270  -11.0380  -38.3270 C   0  0  0  0  0  0  0  0  0  0  0  0
    1.4140  -11.2860  -38.0630 C   0  0  0  0  0  3  0  0  0  0  0  0
    3.5100   -9.3460  -37.8350 Br  0  0  0  0  0  0  0  0  0  0  0  0
    0.8350  -12.5170  -38.4180 C   0  0  0  0  0  3  0  0  0  0  0  0
  1  7  1  0  0  0  0
  1  2  1  0  0  0  0
  1 19  1  1  0  0  0
  2  3  1  0  0  0  0
  3  4  2  0  0  0  0
  5  3  1  0  0  0  0
  5  6  2  0  0  0  0
  7  5  1  0  0  0  0
  8 26  1  0  0  0  0
  8  7  2  0  0  0  0
  9  8  1  0  0  0  0
 10  2  1  0  0  0  0
 10 11  1  0  0  0  0
 11 12  1  0  0  0  0
 12 18  1  0  0  0  0
 13 12  1  0  0  0  0
 13 14  1  0  0  0  0
 15 16  1  0  0  0  0
 15 14  1  0  0  0  0
 17 16  1  0  0  0  0
 17 12  1  0  0  0  0
 19 25  2  0  0  0  0
 19 20  1  0  0  0  0
 20 22  2  0  0  0  0
 21 20  1  0  0  0  0
 22 23  1  0  0  0  0
 24 23  2  0  0  0  0
 25 24  1  0  0  0  0
 26 32  1  0  0  0  0
 27 26  2  0  0  0  0
 27 28  1  0  0  0  0
 28 29  2  0  0  0  0
 29 30  1  0  0  0  0
 29 31  1  0  0  0  0
 32 30  2  0  0  0  0
M  END
>  <Pose>
1

>  <Score>
-6.820

$$$$
