/Users/jonathanwahrer/Desktop/Msc/3_Semester/Drug_Design_Praktikum/waehrer_HTS_screening/HTS_experiment/out/docking_results/vina_output/6y4q/0935_docked.pdbqt
 OpenBabel03232218003D

 34 38  0  0  1  0  0  0  0  0999 V2000
    0.7170  -16.9090  -37.8500 N   0  0  0  0  0  0  0  0  0  0  0  0
    0.7250  -15.5930  -38.1240 C   0  0  0  0  0  0  0  0  0  0  0  0
   -0.3620  -14.7810  -37.8850 C   0  0  2  0  0  3  0  0  0  0  0  0
   -1.4700  -15.4000  -37.3420 C   0  0  0  0  0  0  0  0  0  0  0  0
   -2.5490  -14.7940  -37.0640 O   0  0  0  0  0  0  0  0  0  0  0  0
   -1.4910  -16.7390  -37.0580 N   0  0  0  0  0  0  0  0  0  0  0  0
   -0.3880  -17.4600  -37.3240 C   0  0  0  0  0  0  0  0  0  0  0  0
   -0.3600  -18.6930  -37.0810 O   0  0  0  0  0  0  0  0  0  0  0  0
    1.8470  -15.0150  -38.6600 O   0  0  0  0  0  0  0  0  0  0  0  0
   -2.3260  -17.2000  -36.6510 H   0  0  0  0  0  0  0  0  0  0  0  0
   -0.4350  -13.3590  -38.1680 C   0  0  1  0  0  3  0  0  0  0  0  0
   -1.1020  -12.5310  -37.2150 N   0  0  0  0  0  4  0  0  0  0  0  0
   -0.4700  -12.4720  -35.9250 C   0  0  0  0  0  2  0  0  0  0  0  0
   -0.9910  -11.1520  -37.7580 C   0  0  0  0  0  1  0  0  0  0  0  0
   -2.1280  -12.6370  -37.1480 H   0  0  0  0  0  0  0  0  0  0  0  0
    0.9070  -13.1010  -35.9030 C   0  0  0  0  0  2  0  0  0  0  0  0
    1.6590  -12.6440  -37.1310 C   0  0  0  0  0  0  0  0  0  0  0  0
    0.9440  -12.7640  -38.2960 C   0  0  0  0  0  0  0  0  0  0  0  0
    2.9120  -12.1280  -37.1080 C   0  0  0  0  0  3  0  0  0  0  0  0
    1.4850  -12.3560  -39.4910 C   0  0  0  0  0  0  0  0  0  0  0  0
    2.7680  -11.8280  -39.4610 C   0  0  0  0  0  0  0  0  0  0  0  0
    3.5010  -11.7030  -38.2980 C   0  0  0  0  0  0  0  0  0  0  0  0
    3.6000  -11.3270  -40.4740 O   0  0  0  0  0  0  0  0  0  0  0  0
    4.7300  -11.1450  -38.6120 O   0  0  0  0  0  0  0  0  0  0  0  0
    4.9420  -11.2500  -40.0290 C   0  0  0  0  0  2  0  0  0  0  0  0
    0.7660  -12.4780  -40.6450 O   0  0  0  0  0  0  0  0  0  0  0  0
    0.9630  -13.4020  -41.6670 C   0  0  0  0  0  1  0  0  0  0  0  0
    1.8490  -17.7260  -38.1060 C   0  0  0  0  0  0  0  0  0  0  0  0
    2.1270  -18.2400  -39.3630 C   0  0  0  0  0  3  0  0  0  0  0  0
    3.2140  -19.0260  -39.6110 C   0  0  0  0  0  3  0  0  0  0  0  0
    4.1000  -19.3450  -38.5880 C   0  0  0  0  0  0  0  0  0  0  0  0
    5.7690  -20.5550  -38.9840 I   0  0  0  0  0  0  0  0  0  0  0  0
    3.8280  -18.8360  -37.3400 C   0  0  0  0  0  3  0  0  0  0  0  0
    2.7320  -18.0410  -37.0790 C   0  0  0  0  0  3  0  0  0  0  0  0
  1  7  1  0  0  0  0
  2  1  1  0  0  0  0
  3  2  1  6  0  0  0
  3  4  1  0  0  0  0
  4  5  2  0  0  0  0
  4  6  1  0  0  0  0
  6 10  1  0  0  0  0
  7  8  2  0  0  0  0
  7  6  1  0  0  0  0
  9  2  2  0  0  0  0
 11 18  1  1  0  0  0
 11  3  1  0  0  0  0
 11 12  1  0  0  0  0
 12 15  1  0  0  0  0
 12 13  1  0  0  0  0
 13 16  1  0  0  0  0
 14 12  1  0  0  0  0
 17 19  1  0  0  0  0
 17 16  1  0  0  0  0
 18 17  2  0  0  0  0
 20 21  2  0  0  0  0
 20 18  1  0  0  0  0
 21 22  1  0  0  0  0
 22 19  2  0  0  0  0
 23 25  1  0  0  0  0
 23 21  1  0  0  0  0
 24 22  1  0  0  0  0
 25 24  1  0  0  0  0
 26 20  1  0  0  0  0
 27 26  1  0  0  0  0
 28  1  1  0  0  0  0
 28 34  1  0  0  0  0
 29 28  2  0  0  0  0
 30 29  1  0  0  0  0
 30 31  2  0  0  0  0
 31 33  1  0  0  0  0
 32 31  1  0  0  0  0
 33 34  2  0  0  0  0
M  END
>  <Pose>
1

>  <Score>
-6.433

$$$$
