/Users/jonathanwahrer/Desktop/Msc/3_Semester/Drug_Design_Praktikum/waehrer_HTS_screening/HTS_experiment/out/docking_results/vina_output/6y4q/0937_docked.pdbqt
 OpenBabel03232218003D

 26 29  0  0  1  0  0  0  0  0999 V2000
    0.6440  -15.1560  -37.0530 N   0  0  0  0  0  0  0  0  0  0  0  0
    0.9630  -16.4640  -36.6070 C   0  0  0  0  0  0  0  0  0  0  0  0
    2.0950  -16.7970  -36.1700 O   0  0  0  0  0  0  0  0  0  0  0  0
   -0.2330  -17.3420  -36.7380 C   0  0  1  0  0  3  0  0  0  0  0  0
   -1.3630  -16.3410  -36.5700 C   0  0  0  0  0  2  0  0  0  0  0  0
   -0.7750  -15.0470  -36.9720 C   0  0  0  0  0  0  0  0  0  0  0  0
   -1.4060  -13.9780  -37.2150 O   0  0  0  0  0  0  0  0  0  0  0  0
   -0.2000  -17.9510  -38.0040 N   0  0  1  0  0  0  0  0  0  0  0  0
    0.6460  -17.4850  -39.0100 C   0  0  0  0  0  2  0  0  0  0  0  0
    0.9260  -18.6820  -39.9560 C   0  0  0  0  0  2  0  0  0  0  0  0
    1.3200  -19.8180  -39.1360 N   0  0  0  0  0  0  0  0  0  0  0  0
    0.3530  -20.2780  -38.1700 C   0  0  0  0  0  2  0  0  0  0  0  0
   -0.7610  -19.2360  -38.1150 C   0  0  0  0  0  2  0  0  0  0  0  0
    2.5850  -20.4240  -39.2830 C   0  0  0  0  0  0  0  0  0  0  0  0
    3.4150  -20.5670  -38.2140 N   0  0  0  0  0  0  0  0  0  0  0  0
    4.6150  -21.1390  -38.2890 C   0  0  0  0  0  3  0  0  0  0  0  0
    5.0820  -21.6260  -39.5020 C   0  0  0  0  0  3  0  0  0  0  0  0
    4.2330  -21.4770  -40.5850 C   0  0  0  0  0  3  0  0  0  0  0  0
    3.0320  -20.8950  -40.4650 N   0  0  0  0  0  0  0  0  0  0  0  0
    1.5430  -14.1240  -37.5020 C   0  0  0  0  0  0  0  0  0  0  0  0
    1.9620  -14.1120  -38.8160 C   0  0  0  0  0  3  0  0  0  0  0  0
    2.8240  -13.1450  -39.2930 C   0  0  0  0  0  3  0  0  0  0  0  0
    3.3000  -12.1500  -38.4640 C   0  0  0  0  0  0  0  0  0  0  0  0
    4.6190  -10.6500  -39.1520 I   0  0  0  0  0  0  0  0  0  0  0  0
    2.8920  -12.1470  -37.1480 C   0  0  0  0  0  3  0  0  0  0  0  0
    2.0290  -13.1250  -36.6930 C   0  0  0  0  0  3  0  0  0  0  0  0
  1  6  1  0  0  0  0
  1  2  1  0  0  0  0
  2  3  2  0  0  0  0
  4  2  1  0  0  0  0
  4  5  1  6  0  0  0
  6  5  1  0  0  0  0
  7  6  2  0  0  0  0
  8  9  1  1  0  0  0
  8  4  1  0  0  0  0
 10 11  1  0  0  0  0
 10  9  1  0  0  0  0
 11 12  1  0  0  0  0
 12 13  1  0  0  0  0
 13  8  1  0  0  0  0
 14 11  1  0  0  0  0
 14 15  2  0  0  0  0
 16 15  1  0  0  0  0
 17 16  2  0  0  0  0
 18 19  2  0  0  0  0
 18 17  1  0  0  0  0
 19 14  1  0  0  0  0
 20  1  1  0  0  0  0
 20 26  1  0  0  0  0
 21 20  2  0  0  0  0
 22 21  1  0  0  0  0
 22 23  2  0  0  0  0
 23 25  1  0  0  0  0
 24 23  1  0  0  0  0
 25 26  2  0  0  0  0
M  END
>  <Pose>
1

>  <Score>
-6.924

$$$$
