/Users/jonathanwahrer/Desktop/Msc/3_Semester/Drug_Design_Praktikum/waehrer_HTS_screening/HTS_experiment/out/docking_results/vina_output/6y4q/0950_docked.pdbqt
 OpenBabel03232218003D

 26 29  0  0  0  0  0  0  0  0999 V2000
    1.4730  -16.9040  -37.7350 C   0  0  0  0  0  0  0  0  0  0  0  0
    2.3080  -17.4940  -36.7810 C   0  0  0  0  0  0  0  0  0  0  0  0
    2.3810  -17.3430  -35.4470 N   0  0  0  0  0  0  0  0  0  0  0  0
    3.3280  -18.1130  -34.9980 O   0  0  0  0  0  0  0  0  0  0  0  0
    3.8820  -18.7630  -35.9740 N   0  0  0  0  0  0  0  0  0  0  0  0
    3.2730  -18.4060  -37.1210 C   0  0  0  0  0  0  0  0  0  0  0  0
    3.4400  -18.7670  -38.4400 C   0  0  0  0  0  0  0  0  0  0  0  0
    2.6150  -18.1830  -39.3680 C   0  0  0  0  0  3  0  0  0  0  0  0
    1.6270  -17.2490  -39.0310 C   0  0  0  0  0  3  0  0  0  0  0  0
    0.5120  -15.9760  -37.2700 N   0  0  0  0  0  0  0  0  0  0  0  0
    0.6640  -14.6010  -37.1490 C   0  0  0  0  0  0  0  0  0  0  0  0
    1.7720  -14.0510  -37.4750 O   0  0  0  0  0  0  0  0  0  0  0  0
   -0.4380  -16.3530  -36.9610 H   0  0  0  0  0  0  0  0  0  0  0  0
   -0.3770  -13.6790  -36.6590 C   0  0  0  0  0  0  0  0  0  0  0  0
   -1.7270  -13.7470  -36.6590 C   0  0  0  0  0  0  0  0  0  0  0  0
   -2.9530  -15.2380  -37.4460 I   0  0  0  0  0  0  0  0  0  0  0  0
   -2.2000  -12.5930  -36.0340 C   0  0  0  0  0  3  0  0  0  0  0  0
   -1.1530  -11.8530  -35.6690 N   0  0  0  0  0  0  0  0  0  0  0  0
   -0.0750  -12.4890  -36.0370 N   0  0  0  0  0  0  0  0  0  0  0  0
   -1.2400  -10.5580  -34.9790 C   0  0  0  0  0  1  0  0  0  0  0  0
    4.4440  -19.7120  -38.7720 N   0  0  0  0  0  0  0  0  0  0  0  0
    4.3750  -21.0680  -38.2690 C   0  0  0  0  0  2  0  0  0  0  0  0
    5.5040  -21.8550  -38.8390 C   0  0  0  0  0  2  0  0  0  0  0  0
    5.6500  -21.7300  -40.2060 O   0  0  0  0  0  0  0  0  0  0  0  0
    5.8110  -20.4580  -40.6570 C   0  0  0  0  0  2  0  0  0  0  0  0
    5.5780  -19.3930  -39.6160 C   0  0  0  0  0  2  0  0  0  0  0  0
  1 10  1  0  0  0  0
  1  2  1  0  0  0  0
  2  3  2  0  0  0  0
  3  4  1  0  0  0  0
  5  4  1  0  0  0  0
  6  2  1  0  0  0  0
  6  5  2  0  0  0  0
  7  6  1  0  0  0  0
  8  9  1  0  0  0  0
  8  7  2  0  0  0  0
  9  1  2  0  0  0  0
 10 11  1  0  0  0  0
 10 13  1  0  0  0  0
 11 14  1  0  0  0  0
 12 11  2  0  0  0  0
 14 15  1  0  0  0  0
 14 19  2  0  0  0  0
 15 17  2  0  0  0  0
 16 15  1  0  0  0  0
 17 18  1  0  0  0  0
 18 20  1  0  0  0  0
 19 18  1  0  0  0  0
 21  7  1  0  0  0  0
 21 22  1  0  0  0  0
 23 22  1  0  0  0  0
 24 23  1  0  0  0  0
 25 24  1  0  0  0  0
 25 26  1  0  0  0  0
 26 21  1  0  0  0  0
M  END
>  <Pose>
1

>  <Score>
-5.996

$$$$
