/Users/jonathanwahrer/Desktop/Msc/3_Semester/Drug_Design_Praktikum/waehrer_HTS_screening/HTS_experiment/out/docking_results/vina_output/6y4q/0956_docked.pdbqt
 OpenBabel03232218003D

 30 33  0  0  1  0  0  0  0  0999 V2000
    2.1230  -17.1020  -40.4410 I   0  0  0  0  0  0  0  0  0  0  0  0
    0.5840  -17.9740  -39.2950 C   0  0  0  0  0  0  0  0  0  0  0  0
    0.1910  -17.5940  -38.0450 C   0  0  0  0  0  0  0  0  0  0  0  0
   -0.8480  -18.4680  -37.7240 C   0  0  0  0  0  0  0  0  0  0  0  0
   -1.0870  -19.3350  -38.7090 N   0  0  0  0  0  0  0  0  0  0  0  0
   -0.2160  -19.0400  -39.6740 C   0  0  0  0  0  3  0  0  0  0  0  0
   -1.4360  -18.3210  -36.5250 N   0  0  0  0  0  0  0  0  0  0  0  0
   -1.0360  -17.3690  -35.6680 C   0  0  0  0  0  3  0  0  0  0  0  0
   -0.0410  -16.5330  -35.9790 N   0  0  0  0  0  0  0  0  0  0  0  0
    0.6140  -16.6120  -37.1790 C   0  0  0  0  0  0  0  0  0  0  0  0
   -2.0630  -20.3810  -38.7670 C   0  0  2  0  0  3  0  0  0  0  0  0
   -1.5520  -21.6390  -38.4710 O   0  0  0  0  0  0  0  0  0  0  0  0
   -2.6380  -22.4710  -38.7270 C   0  0  1  0  0  3  0  0  0  0  0  0
   -3.3100  -21.9470  -39.9740 C   0  0  2  0  0  3  0  0  0  0  0  0
   -2.5850  -20.6130  -40.1880 C   0  0  0  0  0  2  0  0  0  0  0  0
   -2.1440  -23.8840  -39.0670 C   0  0  0  0  0  2  0  0  0  0  0  0
   -2.0610  -24.6290  -37.8830 O   0  0  0  0  0  0  0  0  0  0  0  0
   -2.1820  -25.6130  -38.0720 H   0  0  0  0  0  0  0  0  0  0  0  0
   -4.6490  -21.6280  -39.7440 O   0  0  0  0  0  0  0  0  0  0  0  0
   -4.8160  -21.8640  -38.7800 H   0  0  0  0  0  0  0  0  0  0  0  0
    1.6670  -15.6950  -37.4570 N   0  0  0  0  0  0  0  0  0  0  0  0
    1.3320  -14.3540  -37.7990 C   0  0  0  0  0  0  0  0  0  0  0  0
    0.1100  -14.0570  -37.8350 O   0  0  0  0  0  0  0  0  0  0  0  0
    2.6680  -15.9110  -37.4340 H   0  0  0  0  0  0  0  0  0  0  0  0
    2.2930  -13.3290  -38.1010 C   0  0  0  0  0  0  0  0  0  0  0  0
    2.6960  -12.4300  -37.1530 C   0  0  0  0  0  3  0  0  0  0  0  0
    3.6320  -11.4310  -37.4300 C   0  0  0  0  0  3  0  0  0  0  0  0
    4.1640  -11.3420  -38.6820 C   0  0  0  0  0  3  0  0  0  0  0  0
    3.7780  -12.2280  -39.6540 C   0  0  0  0  0  3  0  0  0  0  0  0
    2.8390  -13.2220  -39.3540 C   0  0  0  0  0  3  0  0  0  0  0  0
  1  2  1  0  0  0  0
  2  3  1  0  0  0  0
  3  4  2  0  0  0  0
  3 10  1  0  0  0  0
  4  7  1  0  0  0  0
  5  4  1  0  0  0  0
  6  2  2  0  0  0  0
  6  5  1  0  0  0  0
  7  8  2  0  0  0  0
  9  8  1  0  0  0  0
 10  9  2  0  0  0  0
 11 15  1  6  0  0  0
 11  5  1  0  0  0  0
 11 12  1  0  0  0  0
 13 16  1  6  0  0  0
 13 12  1  0  0  0  0
 14 19  1  1  0  0  0
 14 13  1  0  0  0  0
 15 14  1  0  0  0  0
 16 17  1  0  0  0  0
 18 17  1  0  0  0  0
 19 20  1  0  0  0  0
 21 24  1  0  0  0  0
 21 10  1  0  0  0  0
 22 21  1  0  0  0  0
 23 22  2  0  0  0  0
 25 22  1  0  0  0  0
 25 26  1  0  0  0  0
 27 26  2  0  0  0  0
 28 27  1  0  0  0  0
 29 30  1  0  0  0  0
 29 28  2  0  0  0  0
 30 25  2  0  0  0  0
M  END
>  <Pose>
1

>  <Score>
-6.023

$$$$
