/Users/jonathanwahrer/Desktop/Msc/3_Semester/Drug_Design_Praktikum/waehrer_HTS_screening/HTS_experiment/out/docking_results/vina_output/6y4q/0969_docked.pdbqt
 OpenBabel03232218013D

 31 34  0  0  1  0  0  0  0  0999 V2000
   -4.6230  -16.5860  -39.3080 Br  0  0  0  0  0  0  0  0  0  0  0  0
   -3.1920  -15.3390  -39.2120 C   0  0  0  0  0  0  0  0  0  0  0  0
   -1.8760  -15.7050  -38.9410 C   0  0  0  0  0  0  0  0  0  0  0  0
   -0.8680  -14.7560  -38.8800 C   0  0  0  0  0  0  0  0  0  0  0  0
   -1.1590  -13.4240  -39.0890 C   0  0  0  0  0  2  0  0  0  0  0  0
   -2.4480  -13.0560  -39.3560 C   0  0  0  0  0  0  0  0  0  0  0  0
   -3.4420  -14.0000  -39.4140 C   0  0  0  0  0  0  0  0  0  0  0  0
   -4.7430  -13.5450  -39.6950 O   0  0  0  0  0  1  0  0  0  0  0  0
   -2.7840  -11.1860  -39.6390 Br  0  0  0  0  0  0  0  0  0  0  0  0
    0.4420  -15.0920  -38.6140 C   0  0  0  0  0  0  0  0  0  0  0  0
    0.7240  -16.4260  -38.4070 C   0  0  0  0  0  0  0  0  0  0  0  0
   -0.4050  -17.3600  -38.4890 C   0  0  0  0  0  0  0  0  0  0  0  0
   -0.1030  -18.7060  -38.2770 C   0  0  1  0  0  3  0  0  0  0  0  0
    1.1860  -19.1020  -38.0070 C   0  0  0  0  0  0  0  0  0  0  0  0
    1.4110  -20.3250  -37.8230 O   0  0  0  0  0  0  0  0  0  0  0  0
    2.2350  -18.1910  -37.9360 C   0  0  0  0  0  0  0  0  0  0  0  0
    2.0120  -16.8600  -38.1340 C   0  0  0  0  0  3  0  0  0  0  0  0
    3.9970  -18.8280  -37.5570 Br  0  0  0  0  0  0  0  0  0  0  0  0
   -1.5340  -19.9860  -38.3680 Br  0  0  0  0  0  0  0  0  0  0  0  0
   -1.6330  -16.9750  -38.7480 O   0  0  0  0  0  0  0  0  0  0  0  0
    1.5040  -14.0870  -38.5420 C   0  0  0  0  0  0  0  0  0  0  0  0
    1.7740  -13.4320  -37.3550 C   0  0  0  0  0  0  0  0  0  0  0  0
    2.7650  -12.4780  -37.2630 C   0  0  0  0  0  3  0  0  0  0  0  0
    0.8210  -13.8340  -35.9220 Cl  0  0  0  0  0  0  0  0  0  0  0  0
    3.5000  -12.1780  -38.3920 C   0  0  0  0  0  3  0  0  0  0  0  0
    3.2660  -12.8000  -39.5810 C   0  0  0  0  0  0  0  0  0  0  0  0
    2.2720  -13.7500  -39.6540 C   0  0  0  0  0  0  0  0  0  0  0  0
    4.2490  -12.3580  -40.9680 Cl  0  0  0  0  0  0  0  0  0  0  0  0
    2.0140  -14.4090  -40.9120 C   0  0  0  0  0  0  0  0  0  0  0  0
    2.6380  -15.4460  -41.2700 O   0  0  0  0  0  1  0  0  0  0  0  0
    1.0500  -13.9110  -41.7850 O   0  0  0  0  0  0  0  0  0  0  0  0
  1  2  1  0  0  0  0
  2  3  2  0  0  0  0
  3  4  1  0  0  0  0
  3 20  1  0  0  0  0
  4 10  2  0  0  0  0
  5  4  1  0  0  0  0
  6  5  1  0  0  0  0
  7  6  2  0  0  0  0
  7  2  1  0  0  0  0
  8  7  1  0  0  0  0
  9  6  1  0  0  0  0
 10 21  1  0  0  0  0
 10 11  1  0  0  0  0
 11 17  1  0  0  0  0
 12 11  2  0  0  0  0
 12 13  1  0  0  0  0
 13 19  1  1  0  0  0
 13 14  1  0  0  0  0
 14 16  1  0  0  0  0
 14 15  2  0  0  0  0
 16 18  1  0  0  0  0
 17 16  2  0  0  0  0
 20 12  1  0  0  0  0
 21 22  1  0  0  0  0
 22 23  2  0  0  0  0
 22 24  1  0  0  0  0
 25 23  1  0  0  0  0
 26 25  2  0  0  0  0
 27 26  1  0  0  0  0
 27 21  2  0  0  0  0
 28 26  1  0  0  0  0
 29 27  1  0  0  0  0
 30 29  1  0  0  0  0
 31 29  2  0  0  0  0
M  END
>  <Pose>
1

>  <Score>
-5.713

$$$$
