/Users/jonathanwahrer/Desktop/Msc/3_Semester/Drug_Design_Praktikum/waehrer_HTS_screening/HTS_experiment/out/docking_results/vina_output/6y4q/0971_docked.pdbqt
 OpenBabel03232218013D

 29 33  0  0  1  0  0  0  0  0999 V2000
    3.3750  -22.4310  -41.3120 Br  0  0  0  0  0  0  0  0  0  0  0  0
    3.5130  -20.9370  -40.1350 C   0  0  0  0  0  0  0  0  0  0  0  0
    2.4190  -20.0850  -39.8990 C   0  0  0  0  0  0  0  0  0  0  0  0
    2.4770  -19.0070  -39.0650 C   0  0  0  0  0  0  0  0  0  0  0  0
    3.6910  -18.7540  -38.4230 C   0  0  0  0  0  3  0  0  0  0  0  0
    4.7510  -19.5790  -38.6510 C   0  0  0  0  0  0  0  0  0  0  0  0
    4.6980  -20.6720  -39.4930 C   0  0  0  0  0  0  0  0  0  0  0  0
    5.8320  -21.4800  -39.6810 O   0  0  0  0  0  1  0  0  0  0  0  0
    6.4130  -19.2400  -37.7770 Br  0  0  0  0  0  0  0  0  0  0  0  0
    1.3260  -18.1430  -38.8410 C   0  0  1  0  0  0  0  0  0  0  0  0
    0.9950  -18.2560  -37.4580 O   0  0  0  0  0  0  0  0  0  0  0  0
    1.0890  -17.0580  -36.8060 C   0  0  0  0  0  0  0  0  0  0  0  0
    0.8540  -16.8690  -35.5900 O   0  0  0  0  0  0  0  0  0  0  0  0
    1.5040  -16.0920  -37.8050 C   0  0  0  0  0  0  0  0  0  0  0  0
    1.6560  -16.7010  -39.0300 C   0  0  0  0  0  0  0  0  0  0  0  0
    2.0420  -15.9360  -40.0810 C   0  0  0  0  0  3  0  0  0  0  0  0
    2.2720  -14.5880  -39.9050 C   0  0  0  0  0  3  0  0  0  0  0  0
    2.1210  -13.9750  -38.6800 C   0  0  0  0  0  3  0  0  0  0  0  0
    1.7300  -14.7330  -37.6080 C   0  0  0  0  0  3  0  0  0  0  0  0
    0.1360  -18.5420  -39.5840 C   0  0  0  0  0  0  0  0  0  0  0  0
    0.1390  -19.6340  -40.4070 C   0  0  0  0  0  0  0  0  0  0  0  0
   -1.0210  -20.0050  -41.1180 C   0  0  0  0  0  0  0  0  0  0  0  0
   -2.1590  -19.2470  -40.9690 C   0  0  0  0  0  0  0  0  0  0  0  0
   -2.1700  -18.1370  -40.1370 C   0  0  0  0  0  0  0  0  0  0  0  0
   -1.0420  -17.7840  -39.4510 C   0  0  0  0  0  3  0  0  0  0  0  0
   -3.7390  -17.0780  -39.9220 Br  0  0  0  0  0  0  0  0  0  0  0  0
   -3.2920  -19.6230  -41.6740 O   0  0  0  0  0  1  0  0  0  0  0  0
   -0.9770  -21.5400  -42.2580 Br  0  0  0  0  0  0  0  0  0  0  0  0
    1.2580  -20.4340  -40.5930 O   0  0  0  0  0  0  0  0  0  0  0  0
  1  2  1  0  0  0  0
  2  3  2  0  0  0  0
  2  7  1  0  0  0  0
  3  4  1  0  0  0  0
  4 10  1  0  0  0  0
  4  5  2  0  0  0  0
  6  5  1  0  0  0  0
  6  9  1  0  0  0  0
  7  6  2  0  0  0  0
  8  7  1  0  0  0  0
 10 20  1  6  0  0  0
 10 11  1  0  0  0  0
 11 12  1  0  0  0  0
 12 13  2  0  0  0  0
 14 19  1  0  0  0  0
 14 12  1  0  0  0  0
 15 10  1  0  0  0  0
 15 14  2  0  0  0  0
 16 17  2  0  0  0  0
 16 15  1  0  0  0  0
 17 18  1  0  0  0  0
 18 19  2  0  0  0  0
 20 25  1  0  0  0  0
 21 20  2  0  0  0  0
 22 23  2  0  0  0  0
 22 21  1  0  0  0  0
 23 24  1  0  0  0  0
 24 26  1  0  0  0  0
 24 25  2  0  0  0  0
 27 23  1  0  0  0  0
 28 22  1  0  0  0  0
 29 21  1  0  0  0  0
 29  3  1  0  0  0  0
M  END
>  <Pose>
1

>  <Score>
-6.794

$$$$
