/Users/jonathanwahrer/Desktop/Msc/3_Semester/Drug_Design_Praktikum/waehrer_HTS_screening/HTS_experiment/out/docking_results/vina_output/6y4q/0978_docked.pdbqt
 OpenBabel03232218013D

 33 37  0  0  1  0  0  0  0  0999 V2000
   -1.5070  -21.5100  -42.7510 I   0  0  0  0  0  0  0  0  0  0  0  0
   -1.4890  -19.9210  -41.3600 C   0  0  0  0  0  0  0  0  0  0  0  0
   -0.2960  -19.6800  -40.6860 C   0  0  0  0  0  0  0  0  0  0  0  0
   -0.2540  -18.6660  -39.7860 C   0  0  0  0  0  0  0  0  0  0  0  0
   -1.4040  -17.9040  -39.5670 C   0  0  0  0  0  3  0  0  0  0  0  0
   -2.5900  -18.1350  -40.2290 C   0  0  0  0  0  0  0  0  0  0  0  0
   -2.6240  -19.1680  -41.1440 C   0  0  0  0  0  0  0  0  0  0  0  0
   -3.8080  -19.4190  -41.8220 O   0  0  0  0  0  1  0  0  0  0  0  0
   -4.3080  -16.9480  -39.8610 I   0  0  0  0  0  0  0  0  0  0  0  0
    0.9370  -18.3290  -39.0290 C   0  0  2  0  0  0  0  0  0  0  0  0
    0.7060  -18.4330  -37.6170 O   0  0  0  0  0  0  0  0  0  0  0  0
    0.9500  -17.2520  -36.9650 C   0  0  0  0  0  0  0  0  0  0  0  0
    0.8530  -16.9740  -35.7350 O   0  0  0  0  0  0  0  0  0  0  0  0
    1.3660  -16.3020  -37.9870 C   0  0  0  0  0  0  0  0  0  0  0  0
    1.3600  -16.9290  -39.1960 C   0  0  0  0  0  0  0  0  0  0  0  0
    1.7220  -16.2370  -40.3510 C   0  0  0  0  0  0  0  0  0  0  0  0
    2.0920  -14.9100  -40.2990 C   0  0  0  0  0  0  0  0  0  0  0  0
    2.0970  -14.2710  -39.0620 C   0  0  0  0  0  0  0  0  0  0  0  0
    1.7420  -14.9490  -37.9230 C   0  0  0  0  0  0  0  0  0  0  0  0
    1.7540  -14.1440  -36.4000 Cl  0  0  0  0  0  0  0  0  0  0  0  0
    2.5560  -12.5960  -38.9270 Cl  0  0  0  0  0  0  0  0  0  0  0  0
    2.5410  -14.0730  -41.7670 Cl  0  0  0  0  0  0  0  0  0  0  0  0
    1.6920  -17.0960  -41.8550 Cl  0  0  0  0  0  0  0  0  0  0  0  0
    2.0810  -19.2210  -39.3630 C   0  0  0  0  0  0  0  0  0  0  0  0
    2.0050  -20.2240  -40.2670 C   0  0  0  0  0  0  0  0  0  0  0  0
    3.1520  -20.9840  -40.4840 C   0  0  0  0  0  0  0  0  0  0  0  0
    4.3380  -20.7540  -39.8230 C   0  0  0  0  0  0  0  0  0  0  0  0
    4.3790  -19.7210  -38.9070 C   0  0  0  0  0  0  0  0  0  0  0  0
    3.2680  -18.9540  -38.6680 C   0  0  0  0  0  3  0  0  0  0  0  0
    6.1780  -19.3440  -37.8790 I   0  0  0  0  0  0  0  0  0  0  0  0
    5.4670  -21.5010  -40.0360 O   0  0  0  0  0  1  0  0  0  0  0  0
    3.0460  -22.5440  -41.8850 I   0  0  0  0  0  0  0  0  0  0  0  0
    0.8300  -20.4850  -40.9500 O   0  0  0  0  0  0  0  0  0  0  0  0
  1  2  1  0  0  0  0
  2  7  2  0  0  0  0
  2  3  1  0  0  0  0
  3  4  2  0  0  0  0
  4  5  1  0  0  0  0
  6  9  1  0  0  0  0
  6  5  2  0  0  0  0
  7  6  1  0  0  0  0
  8  7  1  0  0  0  0
 10  4  1  6  0  0  0
 10 11  1  0  0  0  0
 11 12  1  0  0  0  0
 12 13  2  0  0  0  0
 14 19  1  0  0  0  0
 14 12  1  0  0  0  0
 15 10  1  0  0  0  0
 15 14  2  0  0  0  0
 16 17  2  0  0  0  0
 16 15  1  0  0  0  0
 17 18  1  0  0  0  0
 18 21  1  0  0  0  0
 18 19  2  0  0  0  0
 19 20  1  0  0  0  0
 22 17  1  0  0  0  0
 23 16  1  0  0  0  0
 24 10  1  0  0  0  0
 24 29  1  0  0  0  0
 25 24  2  0  0  0  0
 26 25  1  0  0  0  0
 26 27  2  0  0  0  0
 27 28  1  0  0  0  0
 28 29  2  0  0  0  0
 28 30  1  0  0  0  0
 31 27  1  0  0  0  0
 32 26  1  0  0  0  0
 33  3  1  0  0  0  0
 33 25  1  0  0  0  0
M  END
>  <Pose>
1

>  <Score>
-6.517

$$$$
