/Users/jonathanwahrer/Desktop/Msc/3_Semester/Drug_Design_Praktikum/waehrer_HTS_screening/HTS_experiment/out/docking_results/vina_output/6y4q/0985_docked.pdbqt
 OpenBabel03232218023D

 28 31  0  0  1  0  0  0  0  0999 V2000
    2.2030  -18.8200  -39.0990 N   0  0  0  0  0  0  0  0  0  0  0  0
    3.4330  -19.3400  -39.0240 C   0  0  0  0  0  0  0  0  0  0  0  0
    4.5670  -18.9050  -38.4090 N   0  0  0  0  0  0  0  0  0  0  0  0
    5.7180  -19.5700  -38.4440 C   0  0  0  0  0  0  0  0  0  0  0  0
    5.7660  -20.7320  -39.1220 N   0  0  0  0  0  0  0  0  0  0  0  0
    4.6800  -21.2220  -39.7530 C   0  0  0  0  0  0  0  0  0  0  0  0
    3.4850  -20.5330  -39.7180 C   0  0  0  0  0  0  0  0  0  0  0  0
    2.2550  -20.7220  -40.2170 N   0  0  0  0  0  0  0  0  0  0  0  0
    1.4790  -19.6790  -39.8390 C   0  0  0  0  0  0  0  0  0  0  0  0
   -0.3710  -19.4350  -40.2730 Br  0  0  0  0  0  0  0  0  0  0  0  0
    1.8280  -17.5750  -38.4760 C   0  0  2  0  0  3  0  0  0  0  0  0
    0.7910  -17.7380  -37.5580 O   0  0  0  0  0  0  0  0  0  0  0  0
    0.5500  -16.4380  -37.1870 C   0  0  1  0  0  3  0  0  0  0  0  0
    0.3350  -15.7630  -38.5470 C   0  0  1  0  0  3  0  0  0  0  0  0
   -0.6660  -16.2240  -36.3670 C   0  0  0  0  0  2  0  0  0  0  0  0
    0.8390  -14.4710  -38.4140 O   0  0  0  0  0  0  0  0  0  0  0  0
    1.1780  -16.6150  -39.4720 C   0  0  1  0  0  3  0  0  0  0  0  0
    0.3810  -13.9370  -36.8590 P   0  0  2  0  0  0  0  0  0  0  0  0
    1.5830  -13.8340  -35.9460 O   0  0  0  0  0  1  0  0  0  0  0  0
   -0.8590  -14.8470  -36.2170 O   0  0  0  0  0  0  0  0  0  0  0  0
   -0.1860  -12.3360  -37.0710 O   0  0  0  0  0  0  0  0  0  0  0  0
    2.0990  -15.8940  -40.1900 O   0  0  0  0  0  0  0  0  0  0  0  0
    2.6920  -16.5210  -40.7140 H   0  0  0  0  0  0  0  0  0  0  0  0
    6.8780  -19.0720  -37.7840 N   0  0  0  0  0  0  0  0  0  0  0  0
    6.8530  -19.0600  -36.7420 H   0  0  0  0  0  0  0  0  0  0  0  0
    7.7220  -18.7310  -38.3090 H   0  0  0  0  0  0  0  0  0  0  0  0
    4.7250  -22.4230  -40.4550 O   0  0  0  0  0  0  0  0  0  0  0  0
    3.9030  -23.0370  -40.3480 H   0  0  0  0  0  0  0  0  0  0  0  0
  1  2  1  0  0  0  0
  2  3  1  0  0  0  0
  4  3  2  0  0  0  0
  4 24  1  0  0  0  0
  5  4  1  0  0  0  0
  6  7  1  0  0  0  0
  6  5  2  0  0  0  0
  7  2  2  0  0  0  0
  8  9  2  0  0  0  0
  8  7  1  0  0  0  0
  9  1  1  0  0  0  0
 10  9  1  0  0  0  0
 11  1  1  6  0  0  0
 11 12  1  0  0  0  0
 12 13  1  0  0  0  0
 13 15  1  1  0  0  0
 14 16  1  1  0  0  0
 14 13  1  0  0  0  0
 15 20  1  0  0  0  0
 16 18  1  0  0  0  0
 17 22  1  1  0  0  0
 17 14  1  0  0  0  0
 17 11  1  0  0  0  0
 18 21  2  6  0  0  0
 18 20  1  0  0  0  0
 18 19  1  0  0  0  0
 23 22  1  0  0  0  0
 24 25  1  0  0  0  0
 26 24  1  0  0  0  0
 27 28  1  0  0  0  0
 27  6  1  0  0  0  0
M  END
>  <Pose>
1

>  <Score>
-5.632

$$$$
