/Users/jonathanwahrer/Desktop/Msc/3_Semester/Drug_Design_Praktikum/waehrer_HTS_screening/HTS_experiment/out/docking_results/vina_output/6y4q/0999_docked.pdbqt
 OpenBabel03232218023D

 35 39  0  0  1  0  0  0  0  0999 V2000
   -0.4040  -17.5680  -38.8180 N   0  0  0  0  0  0  0  0  0  0  0  0
   -1.4310  -16.9150  -38.0920 C   0  0  0  0  0  0  0  0  0  0  0  0
   -2.5530  -17.4820  -38.0050 O   0  0  0  0  0  0  0  0  0  0  0  0
    0.5230  -17.0750  -38.8770 H   0  0  0  0  0  0  0  0  0  0  0  0
   -0.6700  -18.8340  -39.4210 C   0  0  1  0  0  3  0  0  0  0  0  0
    0.3470  -19.4200  -40.3060 C   0  0  1  0  0  0  0  0  0  0  0  0
    1.2620  -18.4170  -41.4740 S   0  0  0  0  0  0  0  0  0  0  0  0
    1.1420  -19.5760  -39.1290 N   0  0  0  0  0  0  0  0  0  0  0  0
    2.8230  -19.3710  -41.4380 C   0  0  0  0  0  2  0  0  0  0  0  0
    3.3210  -19.2930  -39.9870 C   0  0  0  0  0  0  0  0  0  0  0  0
    2.5490  -19.3870  -38.9510 C   0  0  0  0  0  0  0  0  0  0  0  0
   -0.0900  -19.9040  -38.5100 C   0  0  1  0  0  0  0  0  0  0  0  0
   -0.6310  -20.6290  -37.6680 O   0  0  0  0  0  1  0  0  0  0  0  0
    4.7480  -19.0960  -39.9660 C   0  0  0  0  0  2  0  0  0  0  0  0
    5.6380  -20.0290  -40.3810 O   0  0  0  0  0  0  0  0  0  0  0  0
    5.5620  -21.3800  -40.0230 C   0  0  0  0  0  0  0  0  0  0  0  0
    5.0700  -22.1610  -40.8590 O   0  0  0  0  0  0  0  0  0  0  0  0
    6.0680  -21.7730  -38.6860 C   0  0  0  0  0  1  0  0  0  0  0  0
    3.0200  -19.3190  -37.5370 C   0  0  0  0  0  0  0  0  0  0  0  0
    3.5050  -20.2220  -36.8910 O   0  0  0  0  0  0  0  0  0  0  0  0
    2.9070  -18.0960  -36.8500 O   0  0  0  0  0  1  0  0  0  0  0  0
   -1.2250  -15.6140  -37.4490 C   0  0  0  0  0  0  0  0  0  0  0  0
   -0.1270  -15.0670  -37.0300 O   0  0  0  0  0  0  0  0  0  0  0  0
   -0.3240  -13.9000  -36.5080 C   0  0  0  0  0  0  0  0  0  0  0  0
   -1.6970  -13.6370  -36.5830 C   0  0  0  0  0  3  0  0  0  0  0  0
   -2.2510  -14.7360  -37.1820 C   0  0  0  0  0  3  0  0  0  0  0  0
    0.6930  -12.9560  -35.9150 C   0  0  0  0  0  2  0  0  0  0  0  0
    1.9920  -13.3070  -36.3150 O   0  0  0  0  0  0  0  0  0  0  0  0
    2.7050  -12.7330  -37.3290 C   0  0  0  0  0  0  0  0  0  0  0  0
    2.6430  -13.1310  -38.6620 C   0  0  0  0  0  3  0  0  0  0  0  0
    3.4060  -12.4780  -39.6040 C   0  0  0  0  0  3  0  0  0  0  0  0
    4.2470  -11.4320  -39.3060 C   0  0  0  0  0  0  0  0  0  0  0  0
    4.3140  -11.0290  -37.9830 C   0  0  0  0  0  3  0  0  0  0  0  0
    5.2790  -10.5660  -40.6560 Br  0  0  0  0  0  0  0  0  0  0  0  0
    3.5470  -11.6820  -37.0270 C   0  0  0  0  0  3  0  0  0  0  0  0
  1  2  1  0  0  0  0
  2  3  2  0  0  0  0
  2 22  1  0  0  0  0
  4  1  1  0  0  0  0
  5  1  1  1  0  0  0
  5 12  1  0  0  0  0
  6  7  1  6  0  0  0
  6  5  1  0  0  0  0
  6  8  1  0  0  0  0
  6 12  1  0  0  0  0
  7  9  1  0  0  0  0
  8 11  1  0  0  0  0
  8 12  1  0  0  0  0
  9 10  1  0  0  0  0
 10 14  1  0  0  0  0
 10 11  2  0  0  0  0
 11 19  1  0  0  0  0
 12 13  1  1  0  0  0
 15 16  1  0  0  0  0
 15 14  1  0  0  0  0
 16 18  1  0  0  0  0
 17 16  2  0  0  0  0
 19 20  2  0  0  0  0
 19 21  1  0  0  0  0
 22 26  2  0  0  0  0
 22 23  1  0  0  0  0
 23 24  1  0  0  0  0
 24 27  1  0  0  0  0
 25 24  2  0  0  0  0
 26 25  1  0  0  0  0
 28 27  1  0  0  0  0
 29 35  1  0  0  0  0
 29 28  1  0  0  0  0
 30 29  2  0  0  0  0
 31 32  2  0  0  0  0
 31 30  1  0  0  0  0
 32 33  1  0  0  0  0
 33 35  2  0  0  0  0
 34 32  1  0  0  0  0
M  END
>  <Pose>
1

>  <Score>
-6.420

$$$$
