/Users/jonathanwahrer/Desktop/Msc/3_Semester/Drug_Design_Praktikum/waehrer_HTS_screening/HTS_experiment/out/docking_results/vina_output/6y4q/1008_docked.pdbqt
 OpenBabel03232218033D

 29 32  0  0  1  0  0  0  0  0999 V2000
    1.8000  -14.9780  -39.4340 C   0  0  0  0  0  0  0  0  0  0  0  0
    2.2960  -15.3000  -40.5420 O   0  0  0  0  0  0  0  0  0  0  0  0
    1.3360  -15.9880  -38.5410 N   0  0  0  0  0  0  0  0  0  0  0  0
    1.4270  -17.3870  -38.9000 C   0  0  0  0  0  2  0  0  0  0  0  0
    1.8310  -18.2640  -37.7550 C   0  0  2  0  0  3  0  0  0  0  0  0
    2.4020  -17.3440  -36.6720 C   0  0  0  0  0  2  0  0  0  0  0  0
    1.2240  -16.5450  -36.1570 C   0  0  0  0  0  2  0  0  0  0  0  0
    0.7640  -15.6370  -37.2670 C   0  0  0  0  0  2  0  0  0  0  0  0
    1.7110  -13.5750  -39.0810 C   0  0  0  0  0  0  0  0  0  0  0  0
    2.7970  -12.8970  -38.5360 C   0  0  0  0  0  3  0  0  0  0  0  0
    2.7270  -11.5660  -38.1970 C   0  0  0  0  0  0  0  0  0  0  0  0
    1.5520  -10.8620  -38.3940 C   0  0  0  0  0  3  0  0  0  0  0  0
    0.4670  -11.5170  -38.9320 C   0  0  0  0  0  3  0  0  0  0  0  0
    0.5460  -12.8670  -39.2740 C   0  0  0  0  0  0  0  0  0  0  0  0
   -0.9770  -13.7200  -40.0100 Br  0  0  0  0  0  0  0  0  0  0  0  0
    4.1200  -10.7760  -37.5190 S   0  0  0  0  0  0  0  0  0  0  0  0
    5.2170  -10.7410  -38.5640 O   0  0  0  0  0  0  0  0  0  0  0  0
    4.6320  -11.5330  -36.3180 O   0  0  0  0  0  0  0  0  0  0  0  0
    3.7490   -9.1500  -37.1210 N   0  0  0  0  0  0  0  0  0  0  0  0
    2.9260   -8.7940  -37.6640 H   0  0  0  0  0  0  0  0  0  0  0  0
    4.5840   -8.5350  -37.2900 H   0  0  0  0  0  0  0  0  0  0  0  0
    2.8260  -19.3150  -38.1400 C   0  0  0  0  0  0  0  0  0  0  0  0
    2.7570  -20.1370  -39.2190 N   0  0  0  0  0  0  0  0  0  0  0  0
    3.8180  -20.9490  -39.2510 C   0  0  0  0  0  0  0  0  0  0  0  0
    1.8820  -20.4040  -40.3470 C   0  0  0  0  0  2  0  0  0  0  0  0
    4.5560  -20.6070  -38.1530 N   0  0  0  0  0  0  0  0  0  0  0  0
    3.7870  -21.8750  -40.4210 C   0  0  0  0  0  2  0  0  0  0  0  0
    3.9600  -19.6320  -37.4950 N   0  0  0  0  0  0  0  0  0  0  0  0
    2.7190  -21.2620  -41.2720 C   0  0  0  0  0  2  0  0  0  0  0  0
  1  9  1  0  0  0  0
  1  3  1  0  0  0  0
  2  1  2  0  0  0  0
  3  8  1  0  0  0  0
  4  3  1  0  0  0  0
  4  5  1  0  0  0  0
  5 22  1  6  0  0  0
  5  6  1  0  0  0  0
  6  7  1  0  0  0  0
  8  7  1  0  0  0  0
  9 10  1  0  0  0  0
 10 11  2  0  0  0  0
 11 16  1  0  0  0  0
 12 11  1  0  0  0  0
 13 12  2  0  0  0  0
 14  9  2  0  0  0  0
 14 13  1  0  0  0  0
 15 14  1  0  0  0  0
 16 19  1  0  0  0  0
 16 18  2  0  0  0  0
 17 16  2  0  0  0  0
 20 19  1  0  0  0  0
 21 19  1  0  0  0  0
 22 28  2  0  0  0  0
 23 22  1  0  0  0  0
 24 23  1  0  0  0  0
 24 26  2  0  0  0  0
 25 23  1  0  0  0  0
 26 28  1  0  0  0  0
 27 24  1  0  0  0  0
 29 27  1  0  0  0  0
 29 25  1  0  0  0  0
M  END
>  <Pose>
1

>  <Score>
-6.454

$$$$
