/Users/jonathanwahrer/Desktop/Msc/3_Semester/Drug_Design_Praktikum/waehrer_HTS_screening/HTS_experiment/out/docking_results/vina_output/6y4q/1011_docked.pdbqt
 OpenBabel03232218033D

 29 32  0  0  0  0  0  0  0  0999 V2000
    1.4850  -13.9910  -38.7190 C   0  0  0  0  0  0  0  0  0  0  0  0
    2.3740  -13.1900  -39.4430 C   0  0  0  0  0  3  0  0  0  0  0  0
    3.1980  -12.2970  -38.7950 C   0  0  0  0  0  0  0  0  0  0  0  0
    3.1920  -12.1460  -37.4200 C   0  0  0  0  0  0  0  0  0  0  0  0
    2.3270  -12.9240  -36.7030 C   0  0  0  0  0  3  0  0  0  0  0  0
    1.4870  -13.8330  -37.3540 C   0  0  0  0  0  0  0  0  0  0  0  0
    0.2690  -14.9130  -36.3410 Br  0  0  0  0  0  0  0  0  0  0  0  0
    4.1820  -11.1010  -37.0360 C   0  0  0  0  0  2  0  0  0  0  0  0
    4.3650  -10.3400  -38.3670 C   0  0  0  0  0  2  0  0  0  0  0  0
    4.1780  -11.3980  -39.3470 N   0  0  0  0  0  0  0  0  0  0  0  0
    4.7970  -11.5850  -40.6040 C   0  0  0  0  0  0  0  0  0  0  0  0
    4.5520  -12.5660  -41.3440 O   0  0  0  0  0  0  0  0  0  0  0  0
    0.4560  -15.1160  -39.5640 S   0  0  0  0  0  0  0  0  0  0  0  0
   -1.0050  -14.7320  -39.3650 O   0  0  0  0  0  0  0  0  0  0  0  0
    0.6910  -15.0910  -41.0370 O   0  0  0  0  0  0  0  0  0  0  0  0
    0.6170  -16.6990  -38.9050 N   0  0  0  0  0  0  0  0  0  0  0  0
    0.3460  -16.6580  -37.9030 H   0  0  0  0  0  0  0  0  0  0  0  0
    1.9530  -17.2370  -39.0600 C   0  0  0  0  0  2  0  0  0  0  0  0
    2.2880  -17.9300  -37.7470 C   0  0  0  0  0  2  0  0  0  0  0  0
    2.1780  -19.4250  -37.8840 C   0  0  0  0  0  2  0  0  0  0  0  0
    3.4710  -19.9660  -38.0750 N   0  0  0  0  0  0  0  0  0  0  0  0
    3.7060  -20.6330  -39.3050 C   0  0  0  0  0  2  0  0  0  0  0  0
    4.9010  -21.5550  -39.1300 C   0  0  0  0  0  2  0  0  0  0  0  0
    5.9110  -20.9440  -38.4140 O   0  0  0  0  0  0  0  0  0  0  0  0
    5.8030  -19.5600  -38.3700 C   0  0  0  0  0  2  0  0  0  0  0  0
    4.5600  -19.2370  -37.5360 C   0  0  0  0  0  2  0  0  0  0  0  0
    5.7810  -10.5790  -41.0690 C   0  0  0  0  0  3  0  0  0  0  0  0
    6.8310  -11.1020  -41.9610 C   0  0  0  0  0  2  0  0  0  0  0  0
    7.1810  -10.6160  -40.5760 C   0  0  0  0  0  2  0  0  0  0  0  0
  1  6  1  0  0  0  0
  2  3  1  0  0  0  0
  2  1  2  0  0  0  0
  3  4  2  0  0  0  0
  4  8  1  0  0  0  0
  4  5  1  0  0  0  0
  6  5  2  0  0  0  0
  6  7  1  0  0  0  0
  9  8  1  0  0  0  0
 10  3  1  0  0  0  0
 10  9  1  0  0  0  0
 11 10  1  0  0  0  0
 12 11  2  0  0  0  0
 13 14  2  0  0  0  0
 13 16  1  0  0  0  0
 13  1  1  0  0  0  0
 15 13  2  0  0  0  0
 16 17  1  0  0  0  0
 18 16  1  0  0  0  0
 18 19  1  0  0  0  0
 20 19  1  0  0  0  0
 21 20  1  0  0  0  0
 21 26  1  0  0  0  0
 22 23  1  0  0  0  0
 22 21  1  0  0  0  0
 23 24  1  0  0  0  0
 24 25  1  0  0  0  0
 25 26  1  0  0  0  0
 27 11  1  0  0  0  0
 27 29  1  0  0  0  0
 28 27  1  0  0  0  0
 28 29  1  0  0  0  0
M  END
>  <Pose>
1

>  <Score>
-6.051

$$$$
