/Users/jonathanwahrer/Desktop/Msc/3_Semester/Drug_Design_Praktikum/waehrer_HTS_screening/HTS_experiment/out/docking_results/vina_output/6y4q/1027_docked.pdbqt
 OpenBabel03232218043D

 32 35  0  0  0  0  0  0  0  0999 V2000
   -1.0200  -16.1860  -36.6290 N   0  0  0  0  0  0  0  0  0  0  0  0
    0.1410  -16.3430  -35.8760 C   0  0  0  0  0  2  0  0  0  0  0  0
    1.2130  -17.1390  -36.5140 C   0  0  0  0  0  0  0  0  0  0  0  0
    2.4180  -16.9550  -36.2180 O   0  0  0  0  0  0  0  0  0  0  0  0
    0.7950  -18.1110  -37.4660 N   0  0  0  0  0  0  0  0  0  0  0  0
   -0.5900  -18.4130  -37.5000 C   0  0  0  0  0  0  0  0  0  0  0  0
   -0.9410  -19.5530  -37.9130 O   0  0  0  0  0  0  0  0  0  0  0  0
   -1.6150  -17.4400  -37.0690 C   0  0  0  0  0  2  0  0  0  0  0  0
   -1.1770  -14.9500  -37.7510 S   0  0  0  0  0  0  0  0  0  0  0  0
   -2.2370  -13.9820  -37.2240 O   0  0  0  0  0  0  0  0  0  0  0  0
   -1.7640  -15.4750  -39.0400 O   0  0  0  0  0  0  0  0  0  0  0  0
    0.2410  -13.9900  -38.0750 C   0  0  0  0  0  0  0  0  0  0  0  0
    0.9490  -14.2320  -39.2590 C   0  0  0  0  0  3  0  0  0  0  0  0
    2.1180  -13.5890  -39.5980 C   0  0  0  0  0  0  0  0  0  0  0  0
    2.6540  -12.6460  -38.7490 C   0  0  0  0  0  0  0  0  0  0  0  0
    2.9750  -13.6960  -40.7370 N   0  0  0  0  0  0  0  0  0  0  0  0
    1.9730  -12.3940  -37.5840 C   0  0  0  0  0  3  0  0  0  0  0  0
    3.9040  -12.0840  -39.3160 C   0  0  0  0  0  2  0  0  0  0  0  0
    0.7790  -13.0520  -37.2430 C   0  0  0  0  0  0  0  0  0  0  0  0
   -0.1350  -12.5410  -35.6370 Br  0  0  0  0  0  0  0  0  0  0  0  0
    3.7790  -12.4800  -40.7880 C   0  0  0  0  0  2  0  0  0  0  0  0
    3.0690  -14.7570  -41.6540 C   0  0  0  0  0  0  0  0  0  0  0  0
    3.8890  -14.6490  -42.6310 O   0  0  0  0  0  0  0  0  0  0  0  0
    2.2970  -16.0210  -41.6010 C   0  0  0  0  0  1  0  0  0  0  0  0
    1.7610  -18.7460  -38.3380 C   0  0  0  0  0  2  0  0  0  0  0  0
    2.3900  -19.9750  -37.7800 C   0  0  0  0  0  2  0  0  0  0  0  0
    3.8350  -20.0950  -37.9660 C   0  0  0  0  0  0  0  0  0  0  0  0
    4.7090  -19.1380  -37.5310 C   0  0  0  0  0  3  0  0  0  0  0  0
    6.0480  -19.3090  -37.7400 C   0  0  0  0  0  3  0  0  0  0  0  0
    6.5550  -20.4320  -38.3850 C   0  0  0  0  0  3  0  0  0  0  0  0
    5.6610  -21.3760  -38.8100 C   0  0  0  0  0  3  0  0  0  0  0  0
    4.3080  -21.2360  -38.6160 C   0  0  0  0  0  3  0  0  0  0  0  0
  1  2  1  0  0  0  0
  3  4  2  0  0  0  0
  3  2  1  0  0  0  0
  5  3  1  0  0  0  0
  6  5  1  0  0  0  0
  6  8  1  0  0  0  0
  7  6  2  0  0  0  0
  8  1  1  0  0  0  0
  9 10  2  0  0  0  0
  9  1  1  0  0  0  0
 11  9  2  0  0  0  0
 12  9  1  0  0  0  0
 12 19  1  0  0  0  0
 13 12  2  0  0  0  0
 14 13  1  0  0  0  0
 14 15  2  0  0  0  0
 15 17  1  0  0  0  0
 16 14  1  0  0  0  0
 17 19  2  0  0  0  0
 18 15  1  0  0  0  0
 19 20  1  0  0  0  0
 21 16  1  0  0  0  0
 21 18  1  0  0  0  0
 22 24  1  0  0  0  0
 22 16  1  0  0  0  0
 23 22  2  0  0  0  0
 25 26  1  0  0  0  0
 25  5  1  0  0  0  0
 27 26  1  0  0  0  0
 27 28  1  0  0  0  0
 29 28  2  0  0  0  0
 30 29  1  0  0  0  0
 31 32  1  0  0  0  0
 31 30  2  0  0  0  0
 32 27  2  0  0  0  0
M  END
>  <Pose>
1

>  <Score>
-7.126

$$$$
