/Users/jonathanwahrer/Desktop/Msc/3_Semester/Drug_Design_Praktikum/waehrer_HTS_screening/HTS_experiment/out/docking_results/vina_output/6y4q/1028_docked.pdbqt
 OpenBabel03232218043D

 25 28  0  0  1  0  0  0  0  0999 V2000
    0.7700  -17.5180  -37.2630 N   0  0  0  0  0  0  0  0  0  0  0  0
    0.9200  -18.2690  -38.4580 C   0  0  0  0  0  2  0  0  0  0  0  0
    2.3820  -18.0520  -38.4500 C   0  0  1  0  0  3  0  0  0  0  0  0
    2.1790  -17.4530  -37.1020 C   0  0  0  0  0  2  0  0  0  0  0  0
    3.2130  -19.2400  -38.4160 N   0  0  0  0  0  0  0  0  0  0  0  0
    3.2420  -20.1870  -37.5150 N   0  0  0  0  0  0  0  0  0  0  0  0
    4.1500  -21.1150  -37.8440 N   0  0  0  0  0  0  0  0  0  0  0  0
    4.7320  -20.7570  -39.0020 C   0  0  0  0  0  0  0  0  0  0  0  0
    4.1230  -19.5600  -39.3520 C   0  0  0  0  0  3  0  0  0  0  0  0
    5.8050  -21.4840  -39.7600 C   0  0  0  0  0  2  0  0  0  0  0  0
    5.3630  -21.6170  -41.1360 N   0  0  0  0  0  0  0  0  0  0  0  0
    4.3580  -22.5220  -41.6070 C   0  0  0  0  0  2  0  0  0  0  0  0
    4.1970  -22.2370  -43.0730 C   0  0  0  0  0  2  0  0  0  0  0  0
    4.9370  -20.9790  -43.3940 C   0  0  0  0  0  2  0  0  0  0  0  0
    5.8750  -20.8540  -42.2240 C   0  0  0  0  0  0  0  0  0  0  0  0
    6.9200  -20.1790  -42.2540 O   0  0  0  0  0  0  0  0  0  0  0  0
   -0.0250  -16.0300  -37.3070 S   0  0  0  0  0  0  0  0  0  0  0  0
   -0.8290  -15.8690  -36.0480 O   0  0  0  0  0  0  0  0  0  0  0  0
   -1.0050  -15.9420  -38.4530 O   0  0  0  0  0  0  0  0  0  0  0  0
    1.0650  -14.6480  -37.3930 C   0  0  0  0  0  0  0  0  0  0  0  0
    1.8600  -14.0190  -38.7760 S   0  0  0  0  0  0  0  0  0  0  0  0
    2.7020  -12.7260  -38.0440 C   0  0  0  0  0  0  0  0  0  0  0  0
    2.3310  -12.8290  -36.7280 C   0  0  0  0  0  3  0  0  0  0  0  0
    3.8840  -11.4280  -38.8370 Br  0  0  0  0  0  0  0  0  0  0  0  0
    1.4920  -13.8150  -36.4020 C   0  0  0  0  0  3  0  0  0  0  0  0
  1  4  1  0  0  0  0
  2  1  1  0  0  0  0
  3  2  1  1  0  0  0
  3  5  1  0  0  0  0
  3  4  1  0  0  0  0
  5  6  1  0  0  0  0
  7  6  2  0  0  0  0
  8  7  1  0  0  0  0
  9  8  2  0  0  0  0
  9  5  1  0  0  0  0
 10  8  1  0  0  0  0
 11 10  1  0  0  0  0
 12 11  1  0  0  0  0
 13 12  1  0  0  0  0
 14 13  1  0  0  0  0
 14 15  1  0  0  0  0
 15 11  1  0  0  0  0
 16 15  2  0  0  0  0
 17  1  1  0  0  0  0
 17 18  2  0  0  0  0
 19 17  2  0  0  0  0
 20 17  1  0  0  0  0
 20 25  2  0  0  0  0
 21 22  1  0  0  0  0
 21 20  1  0  0  0  0
 22 23  2  0  0  0  0
 23 25  1  0  0  0  0
 24 22  1  0  0  0  0
M  END
>  <Pose>
1

>  <Score>
-5.679

$$$$
