/Users/jonathanwahrer/Desktop/Msc/3_Semester/Drug_Design_Praktikum/waehrer_HTS_screening/HTS_experiment/out/docking_results/vina_output/6y4q/1043_docked.pdbqt
 OpenBabel03232218053D

 31 34  0  0  0  0  0  0  0  0999 V2000
    0.7380  -15.0780  -37.3170 N   0  0  0  0  0  0  0  0  0  0  0  0
   -0.3610  -15.6810  -36.5920 C   0  0  0  0  0  2  0  0  0  0  0  0
   -1.0980  -16.6790  -37.4500 C   0  0  0  0  0  2  0  0  0  0  0  0
   -0.0850  -17.6030  -37.9990 N   0  0  0  0  0  0  0  0  0  0  0  0
    0.9750  -16.9840  -38.7320 C   0  0  0  0  0  2  0  0  0  0  0  0
    0.7310  -15.4580  -38.6860 C   0  0  0  0  0  2  0  0  0  0  0  0
   -0.1920  -18.9860  -37.7890 C   0  0  0  0  0  0  0  0  0  0  0  0
   -1.2380  -19.3510  -37.0750 O   0  0  0  0  0  0  0  0  0  0  0  0
    0.6200  -20.1030  -38.1990 C   0  0  0  0  0  2  0  0  0  0  0  0
    1.7930  -19.8960  -38.9890 N   0  0  0  0  0  0  0  0  0  0  0  0
    1.8740  -19.7600  -40.4310 C   0  0  0  0  0  0  0  0  0  0  0  0
    0.8560  -19.7950  -41.1770 O   0  0  0  0  0  0  0  0  0  0  0  0
    3.2400  -19.5910  -40.7740 N   0  0  0  0  0  0  0  0  0  0  0  0
    4.0140  -20.0460  -39.6700 C   0  0  0  0  0  0  0  0  0  0  0  0
    3.5460  -19.1920  -41.7040 H   0  0  0  0  0  0  0  0  0  0  0  0
    4.4450  -21.4880  -39.7930 C   0  0  0  0  0  2  0  0  0  0  0  0
    5.3510  -19.3340  -39.5560 C   0  0  0  0  0  2  0  0  0  0  0  0
    3.1520  -19.8000  -38.5150 C   0  0  0  0  0  0  0  0  0  0  0  0
    5.4880  -21.5860  -38.6950 C   0  0  0  0  0  2  0  0  0  0  0  0
    6.0720  -20.2010  -38.5510 C   0  0  0  0  0  2  0  0  0  0  0  0
    3.4870  -19.5520  -37.3290 O   0  0  0  0  0  0  0  0  0  0  0  0
    0.8810  -13.3990  -37.0450 S   0  0  0  0  0  0  0  0  0  0  0  0
    1.0200  -13.2030  -35.5460 O   0  0  0  0  0  0  0  0  0  0  0  0
   -0.4110  -12.7210  -37.4270 O   0  0  0  0  0  0  0  0  0  0  0  0
    2.2210  -12.6750  -37.9000 C   0  0  0  0  0  0  0  0  0  0  0  0
    2.4900  -12.9610  -39.2240 C   0  0  0  0  0  3  0  0  0  0  0  0
    3.5590  -12.3800  -39.8950 C   0  0  0  0  0  3  0  0  0  0  0  0
    4.3900  -11.4950  -39.2570 C   0  0  0  0  0  0  0  0  0  0  0  0
    4.1330  -11.2010  -37.9350 C   0  0  0  0  0  3  0  0  0  0  0  0
    5.8730  -10.6850  -40.1810 Br  0  0  0  0  0  0  0  0  0  0  0  0
    3.0640  -11.7840  -37.2710 C   0  0  0  0  0  3  0  0  0  0  0  0
  1 22  1  0  0  0  0
  1  2  1  0  0  0  0
  3  2  1  0  0  0  0
  4  7  1  0  0  0  0
  4  3  1  0  0  0  0
  5  6  1  0  0  0  0
  5  4  1  0  0  0  0
  6  1  1  0  0  0  0
  7  8  2  0  0  0  0
  9  7  1  0  0  0  0
 10 18  1  0  0  0  0
 10  9  1  0  0  0  0
 11 10  1  0  0  0  0
 12 11  2  0  0  0  0
 13 11  1  0  0  0  0
 13 14  1  0  0  0  0
 14 17  1  0  0  0  0
 14 18  1  0  0  0  0
 15 13  1  0  0  0  0
 16 14  1  0  0  0  0
 16 19  1  0  0  0  0
 17 20  1  0  0  0  0
 18 21  2  0  0  0  0
 19 20  1  0  0  0  0
 22 23  2  0  0  0  0
 24 22  2  0  0  0  0
 25 31  1  0  0  0  0
 25 22  1  0  0  0  0
 26 25  2  0  0  0  0
 27 28  2  0  0  0  0
 27 26  1  0  0  0  0
 28 29  1  0  0  0  0
 29 31  2  0  0  0  0
 30 28  1  0  0  0  0
M  END
>  <Pose>
1

>  <Score>
-7.635

$$$$
