/Users/jonathanwahrer/Desktop/Msc/3_Semester/Drug_Design_Praktikum/waehrer_HTS_screening/HTS_experiment/out/docking_results/vina_output/6y4q/1044_docked.pdbqt
 OpenBabel03232218053D

 30 33  0  0  0  0  0  0  0  0999 V2000
   -0.2500  -15.7010  -37.3700 N   0  0  0  0  0  0  0  0  0  0  0  0
   -0.4070  -15.8400  -38.7500 C   0  0  0  0  0  2  0  0  0  0  0  0
   -0.0330  -14.6720  -39.5920 C   0  0  0  0  0  2  0  0  0  0  0  0
    0.9500  -13.8100  -39.0160 N   0  0  0  0  0  0  0  0  0  0  0  0
    1.4910  -14.1330  -37.7140 C   0  0  0  0  0  2  0  0  0  0  0  0
    0.2880  -14.5110  -36.8510 C   0  0  0  0  0  2  0  0  0  0  0  0
    1.4170  -12.6450  -39.6720 C   0  0  0  0  0  0  0  0  0  0  0  0
    0.9710  -12.3210  -40.8190 O   0  0  0  0  0  0  0  0  0  0  0  0
   -0.0310  -17.1090  -36.4590 S   0  0  0  0  0  0  0  0  0  0  0  0
    0.3540  -16.8760  -35.0510 O   0  0  0  0  0  0  0  0  0  0  0  0
   -1.3600  -17.8540  -36.4380 O   0  0  0  0  0  0  0  0  0  0  0  0
    1.1000  -18.1880  -37.2680 C   0  0  0  0  0  0  0  0  0  0  0  0
    2.4610  -18.0860  -37.0660 C   0  0  0  0  0  3  0  0  0  0  0  0
    3.3730  -18.9170  -37.6850 C   0  0  0  0  0  0  0  0  0  0  0  0
    2.9430  -19.9040  -38.5480 C   0  0  0  0  0  0  0  0  0  0  0  0
    4.7760  -18.8150  -37.4810 N   0  0  0  0  0  0  0  0  0  0  0  0
    1.5760  -20.0100  -38.7520 C   0  0  0  0  0  3  0  0  0  0  0  0
    3.8400  -20.7580  -39.1870 O   0  0  0  0  0  0  0  0  0  0  0  0
    0.6700  -19.1760  -38.1310 C   0  0  0  0  0  3  0  0  0  0  0  0
    5.2390  -20.5550  -39.2270 C   0  0  0  0  0  2  0  0  0  0  0  0
    5.7080  -19.6770  -38.1250 C   0  0  0  0  0  0  0  0  0  0  0  0
    6.9240  -19.7430  -37.8140 O   0  0  0  0  0  0  0  0  0  0  0  0
    5.1180  -18.0750  -36.8320 H   0  0  0  0  0  0  0  0  0  0  0  0
    2.4180  -11.7550  -39.0990 C   0  0  0  0  0  0  0  0  0  0  0  0
    2.0850  -10.7190  -38.2460 C   0  0  0  0  0  0  0  0  0  0  0  0
    3.0210   -9.8720  -37.6990 C   0  0  0  0  0  3  0  0  0  0  0  0
    0.2320  -10.4960  -37.8420 Br  0  0  0  0  0  0  0  0  0  0  0  0
    4.3530  -10.0780  -38.0250 C   0  0  0  0  0  3  0  0  0  0  0  0
    4.7430  -11.0920  -38.8670 C   0  0  0  0  0  3  0  0  0  0  0  0
    3.7670  -11.9120  -39.3900 C   0  0  0  0  0  3  0  0  0  0  0  0
  1  6  1  0  0  0  0
  1  9  1  0  0  0  0
  2  1  1  0  0  0  0
  3  4  1  0  0  0  0
  3  2  1  0  0  0  0
  4  5  1  0  0  0  0
  5  6  1  0  0  0  0
  7 24  1  0  0  0  0
  7  4  1  0  0  0  0
  8  7  2  0  0  0  0
  9 11  2  0  0  0  0
  9 10  2  0  0  0  0
 12 13  1  0  0  0  0
 12  9  1  0  0  0  0
 14 16  1  0  0  0  0
 14 13  2  0  0  0  0
 15 14  1  0  0  0  0
 16 23  1  0  0  0  0
 17 15  2  0  0  0  0
 17 19  1  0  0  0  0
 18 15  1  0  0  0  0
 19 12  2  0  0  0  0
 20 18  1  0  0  0  0
 20 21  1  0  0  0  0
 21 22  2  0  0  0  0
 21 16  1  0  0  0  0
 24 25  1  0  0  0  0
 25 27  1  0  0  0  0
 25 26  2  0  0  0  0
 28 26  1  0  0  0  0
 29 28  2  0  0  0  0
 30 24  2  0  0  0  0
 30 29  1  0  0  0  0
M  END
>  <Pose>
1

>  <Score>
-6.677

$$$$
