/Users/jonathanwahrer/Desktop/Msc/3_Semester/Drug_Design_Praktikum/waehrer_HTS_screening/HTS_experiment/out/docking_results/vina_output/6y4q/1051_docked.pdbqt
 OpenBabel03232218053D

 27 30  0  0  0  0  0  0  0  0999 V2000
    0.0680  -15.3580  -37.1560 N   0  0  0  0  0  0  0  0  0  0  0  0
    1.3740  -15.8380  -36.8940 C   0  0  0  0  0  2  0  0  0  0  0  0
    1.7050  -17.1950  -37.4160 C   0  0  0  0  0  2  0  0  0  0  0  0
    0.5980  -18.1120  -37.4070 N   0  0  0  0  0  0  0  0  0  0  0  0
   -0.6520  -17.6100  -36.8810 C   0  0  0  0  0  2  0  0  0  0  0  0
   -0.8870  -16.3080  -37.6170 C   0  0  0  0  0  2  0  0  0  0  0  0
    0.6600  -19.4400  -37.8680 C   0  0  0  0  0  0  0  0  0  0  0  0
   -0.3580  -20.1650  -37.8200 O   0  0  0  0  0  0  0  0  0  0  0  0
    1.9050  -19.9820  -38.4030 C   0  0  0  0  0  0  0  0  0  0  0  0
    2.1430  -20.2720  -39.6780 N   0  0  0  0  0  0  0  0  0  0  0  0
    3.3820  -20.7490  -39.8230 N   0  0  0  0  0  0  0  0  0  0  0  0
    3.9940  -20.7810  -38.6170 C   0  0  0  0  0  0  0  0  0  0  0  0
    4.0670  -21.1720  -40.9060 C   0  0  0  0  0  3  0  0  0  0  0  0
    3.0470  -20.2910  -37.7100 C   0  0  0  0  0  3  0  0  0  0  0  0
    5.2670  -21.2250  -38.4700 N   0  0  0  0  0  0  0  0  0  0  0  0
    5.9570  -21.6520  -39.5670 C   0  0  0  0  0  3  0  0  0  0  0  0
    5.3620  -21.6310  -40.8090 C   0  0  0  0  0  0  0  0  0  0  0  0
    6.3370  -22.2340  -42.3530 Br  0  0  0  0  0  0  0  0  0  0  0  0
    0.0200  -13.9850  -38.1950 S   0  0  0  0  0  0  0  0  0  0  0  0
   -1.0050  -13.0100  -37.7140 O   0  0  0  0  0  0  0  0  0  0  0  0
   -0.4100  -14.4950  -39.5640 O   0  0  0  0  0  0  0  0  0  0  0  0
    1.5680  -13.1840  -38.2910 C   0  0  0  0  0  0  0  0  0  0  0  0
    2.1400  -12.3560  -37.3520 C   0  0  0  0  0  3  0  0  0  0  0  0
    3.3300  -11.9370  -37.7860 N   0  0  0  0  0  0  0  0  0  0  0  0
    3.5500  -12.4650  -38.9750 N   0  0  0  0  0  0  0  0  0  0  0  0
    4.2480  -11.0610  -37.1080 C   0  0  0  0  0  1  0  0  0  0  0  0
    2.4950  -13.2410  -39.3320 C   0  0  0  0  0  3  0  0  0  0  0  0
  1  2  1  0  0  0  0
  3  4  1  0  0  0  0
  3  2  1  0  0  0  0
  4  5  1  0  0  0  0
  6  1  1  0  0  0  0
  6  5  1  0  0  0  0
  7  8  2  0  0  0  0
  7  4  1  0  0  0  0
  9  7  1  0  0  0  0
  9 14  1  0  0  0  0
 10  9  2  0  0  0  0
 11 10  1  0  0  0  0
 11 12  1  0  0  0  0
 12 15  1  0  0  0  0
 12 14  2  0  0  0  0
 13 17  2  0  0  0  0
 13 11  1  0  0  0  0
 16 15  2  0  0  0  0
 17 16  1  0  0  0  0
 18 17  1  0  0  0  0
 19 20  2  0  0  0  0
 19  1  1  0  0  0  0
 21 19  2  0  0  0  0
 22 19  1  0  0  0  0
 22 23  2  0  0  0  0
 24 23  1  0  0  0  0
 24 26  1  0  0  0  0
 25 24  1  0  0  0  0
 27 25  2  0  0  0  0
 27 22  1  0  0  0  0
M  END
>  <Pose>
1

>  <Score>
-6.117

$$$$
