/Users/jonathanwahrer/Desktop/Msc/3_Semester/Drug_Design_Praktikum/waehrer_HTS_screening/HTS_experiment/out/docking_results/vina_output/6y4q/1076_docked.pdbqt
 OpenBabel03232218063D

 29 32  0  0  0  0  0  0  0  0999 V2000
   -0.4940  -18.8460  -38.9520 N   0  0  0  0  0  0  0  0  0  0  0  0
   -1.6360  -18.9610  -39.8030 C   0  0  0  0  0  2  0  0  0  0  0  0
   -2.8620  -18.8410  -38.8810 C   0  0  0  0  0  2  0  0  0  0  0  0
   -2.6000  -19.3490  -37.6040 N   0  0  0  0  0  0  0  0  0  0  0  0
   -1.6620  -20.4360  -37.5320 C   0  0  0  0  0  2  0  0  0  0  0  0
   -0.3790  -20.1530  -38.2800 C   0  0  0  0  0  2  0  0  0  0  0  0
   -2.6660  -18.5300  -36.4680 C   0  0  0  0  0  2  0  0  0  0  0  0
   -1.9930  -17.2710  -36.4940 N   0  0  0  0  0  0  0  0  0  0  0  0
   -0.5980  -17.1830  -36.2550 N   0  0  0  0  0  0  0  0  0  0  0  0
   -0.2730  -15.8000  -36.3720 C   0  0  0  0  0  0  0  0  0  0  0  0
    0.0580  -17.9700  -36.0370 H   0  0  0  0  0  0  0  0  0  0  0  0
    0.9580  -15.3310  -36.2110 C   0  0  0  0  0  3  0  0  0  0  0  0
   -1.4240  -15.0280  -36.6760 N   0  0  0  0  0  0  0  0  0  0  0  0
    1.5650  -13.9820  -36.2730 C   0  0  0  0  0  2  0  0  0  0  0  0
    0.5520  -12.9170  -35.9320 C   0  0  0  0  0  2  0  0  0  0  0  0
   -0.3910  -12.8360  -37.1190 C   0  0  0  0  0  2  0  0  0  0  0  0
   -1.6410  -13.6300  -36.8910 C   0  0  0  0  0  2  0  0  0  0  0  0
   -2.4930  -15.9670  -36.7470 C   0  0  0  0  0  0  0  0  0  0  0  0
   -3.6810  -15.6450  -36.9990 O   0  0  0  0  0  0  0  0  0  0  0  0
    0.9770  -18.5920  -39.7880 S   0  0  0  0  0  0  0  0  0  0  0  0
    1.0990  -17.1820  -40.3030 O   0  0  0  0  0  0  0  0  0  0  0  0
    0.9590  -19.4880  -41.0050 O   0  0  0  0  0  0  0  0  0  0  0  0
    2.3790  -18.9770  -38.8670 C   0  0  0  0  0  0  0  0  0  0  0  0
    3.3310  -19.8950  -39.1970 C   0  0  0  0  0  3  0  0  0  0  0  0
    4.4280  -20.1300  -38.3810 C   0  0  0  0  0  0  0  0  0  0  0  0
    4.6010  -19.4520  -37.2110 C   0  0  0  0  0  3  0  0  0  0  0  0
    5.7580  -21.4290  -38.8670 Br  0  0  0  0  0  0  0  0  0  0  0  0
    3.6480  -18.5120  -36.8480 C   0  0  0  0  0  3  0  0  0  0  0  0
    2.5680  -18.2890  -37.6640 C   0  0  0  0  0  3  0  0  0  0  0  0
  1  6  1  0  0  0  0
  2  1  1  0  0  0  0
  2  3  1  0  0  0  0
  3  4  1  0  0  0  0
  4  5  1  0  0  0  0
  4  7  1  0  0  0  0
  6  5  1  0  0  0  0
  8  7  1  0  0  0  0
  8  9  1  0  0  0  0
  9 11  1  0  0  0  0
 10  9  1  0  0  0  0
 10 12  2  0  0  0  0
 13 10  1  0  0  0  0
 14 12  1  0  0  0  0
 14 15  1  0  0  0  0
 16 17  1  0  0  0  0
 16 15  1  0  0  0  0
 17 13  1  0  0  0  0
 18 13  1  0  0  0  0
 18  8  1  0  0  0  0
 19 18  2  0  0  0  0
 20  1  1  0  0  0  0
 20 23  1  0  0  0  0
 21 20  2  0  0  0  0
 22 20  2  0  0  0  0
 23 29  1  0  0  0  0
 24 23  2  0  0  0  0
 24 25  1  0  0  0  0
 25 26  2  0  0  0  0
 26 28  1  0  0  0  0
 27 25  1  0  0  0  0
 29 28  2  0  0  0  0
M  END
>  <Pose>
1

>  <Score>
-6.188

$$$$
