/Users/jonathanwahrer/Desktop/Msc/3_Semester/Drug_Design_Praktikum/waehrer_HTS_screening/HTS_experiment/out/docking_results/vina_output/6y4q/1081_docked.pdbqt
 OpenBabel03232218063D

 27 30  0  0  0  0  0  0  0  0999 V2000
    0.3080  -17.2370  -37.1440 N   0  0  0  0  0  0  0  0  0  0  0  0
    1.6760  -17.2450  -36.7930 C   0  0  0  0  0  2  0  0  0  0  0  0
    2.6370  -17.7390  -37.8230 C   0  0  0  0  0  2  0  0  0  0  0  0
    2.0270  -18.1460  -39.0650 N   0  0  0  0  0  0  0  0  0  0  0  0
    0.7390  -18.7590  -39.0450 C   0  0  0  0  0  3  0  0  0  0  0  0
   -0.1780  -18.2680  -37.9800 C   0  0  0  0  0  3  0  0  0  0  0  0
    2.7700  -17.9140  -40.2700 C   0  0  0  0  0  0  0  0  0  0  0  0
    3.8700  -18.5830  -40.6570 N   0  0  0  0  0  0  0  0  0  0  0  0
    4.2300  -18.0270  -41.8200 N   0  0  0  0  0  0  0  0  0  0  0  0
    3.3910  -17.0630  -42.1310 N   0  0  0  0  0  0  0  0  0  0  0  0
    2.4720  -16.9620  -41.1940 N   0  0  0  0  0  0  0  0  0  0  0  0
    4.5000  -19.6580  -39.9760 C   0  0  0  0  0  0  0  0  0  0  0  0
    3.9940  -20.9360  -40.0320 C   0  0  0  0  0  3  0  0  0  0  0  0
    4.6360  -21.9700  -39.3520 C   0  0  0  0  0  3  0  0  0  0  0  0
    5.7790  -21.7420  -38.6180 C   0  0  0  0  0  3  0  0  0  0  0  0
    6.2950  -20.4410  -38.5610 C   0  0  0  0  0  3  0  0  0  0  0  0
    5.6380  -19.4190  -39.2470 C   0  0  0  0  0  3  0  0  0  0  0  0
   -0.4250  -15.7180  -37.3620 S   0  0  0  0  0  0  0  0  0  0  0  0
   -1.4540  -15.3710  -36.3620 O   0  0  0  0  0  0  0  0  0  0  0  0
   -1.1280  -15.7340  -38.7140 O   0  0  0  0  0  0  0  0  0  0  0  0
    0.7960  -14.4780  -37.4410 C   0  0  0  0  0  0  0  0  0  0  0  0
    1.5150  -14.2080  -38.5780 C   0  0  0  0  0  3  0  0  0  0  0  0
    2.4880  -13.2100  -38.6280 C   0  0  0  0  0  3  0  0  0  0  0  0
    2.7280  -12.4660  -37.4690 C   0  0  0  0  0  0  0  0  0  0  0  0
    2.0120  -12.7280  -36.3220 C   0  0  0  0  0  3  0  0  0  0  0  0
    4.0470  -11.0790  -37.4660 Br  0  0  0  0  0  0  0  0  0  0  0  0
    1.0670  -13.7150  -36.3140 C   0  0  0  0  0  3  0  0  0  0  0  0
  1  2  1  0  0  0  0
  3  2  1  0  0  0  0
  4  5  1  0  0  0  0
  4  3  1  0  0  0  0
  5  6  2  0  0  0  0
  6  1  1  0  0  0  0
  7  4  1  0  0  0  0
  8  7  1  0  0  0  0
  8 12  1  0  0  0  0
  9  8  1  0  0  0  0
 10  9  2  0  0  0  0
 10 11  1  0  0  0  0
 11  7  2  0  0  0  0
 12 17  1  0  0  0  0
 13 12  2  0  0  0  0
 13 14  1  0  0  0  0
 14 15  2  0  0  0  0
 15 16  1  0  0  0  0
 17 16  2  0  0  0  0
 18  1  1  0  0  0  0
 18 19  2  0  0  0  0
 20 18  2  0  0  0  0
 21 18  1  0  0  0  0
 21 27  1  0  0  0  0
 22 21  2  0  0  0  0
 23 22  1  0  0  0  0
 23 24  2  0  0  0  0
 24 26  1  0  0  0  0
 24 25  1  0  0  0  0
 25 27  2  0  0  0  0
M  END
>  <Pose>
1

>  <Score>
-6.243

$$$$
