/Users/jonathanwahrer/Desktop/Msc/3_Semester/Drug_Design_Praktikum/waehrer_HTS_screening/HTS_experiment/out/docking_results/vina_output/6y4q/1084_docked.pdbqt
 OpenBabel03232218073D

 29 32  0  0  0  0  0  0  0  0999 V2000
    1.7790  -17.2450  -38.3810 N   0  0  0  0  0  0  0  0  0  0  0  0
    1.0480  -18.3110  -38.9790 C   0  0  0  0  0  2  0  0  0  0  0  0
    1.4500  -19.6780  -38.4670 C   0  0  0  0  0  2  0  0  0  0  0  0
    2.8110  -19.5900  -38.0230 N   0  0  0  0  0  0  0  0  0  0  0  0
    3.1220  -18.7120  -36.9340 C   0  0  0  0  0  2  0  0  0  0  0  0
    2.2180  -17.5080  -37.0320 C   0  0  0  0  0  2  0  0  0  0  0  0
    3.8080  -20.3550  -38.6490 C   0  0  0  0  0  0  0  0  0  0  0  0
    3.5930  -21.0360  -39.7870 N   0  0  0  0  0  0  0  0  0  0  0  0
    4.4880  -21.7730  -40.4220 C   0  0  0  0  0  0  0  0  0  0  0  0
    5.7580  -21.8510  -39.8760 C   0  0  0  0  0  3  0  0  0  0  0  0
    6.0280  -21.1700  -38.7100 C   0  0  0  0  0  0  0  0  0  0  0  0
    5.0560  -20.4430  -38.1280 N   0  0  0  0  0  0  0  0  0  0  0  0
    7.3790  -21.2300  -38.0910 C   0  0  0  0  0  1  0  0  0  0  0  0
    4.1340  -22.4440  -41.6170 N   0  0  0  0  0  0  0  0  0  0  0  0
    5.1020  -22.9740  -42.5560 C   0  0  0  0  0  2  0  0  0  0  0  0
    4.3840  -24.0740  -43.3350 C   0  0  0  0  0  2  0  0  0  0  0  0
    3.6280  -24.8000  -42.4110 O   0  0  0  0  0  0  0  0  0  0  0  0
    2.5000  -24.1340  -41.9890 C   0  0  0  0  0  2  0  0  0  0  0  0
    2.7350  -22.6210  -41.9330 C   0  0  0  0  0  2  0  0  0  0  0  0
    0.7490  -15.8560  -38.3170 S   0  0  0  0  0  0  0  0  0  0  0  0
   -0.0230  -15.7910  -39.6250 O   0  0  0  0  0  0  0  0  0  0  0  0
   -0.2420  -16.0310  -37.2030 O   0  0  0  0  0  0  0  0  0  0  0  0
    1.6670  -14.3880  -38.1400 C   0  0  0  0  0  0  0  0  0  0  0  0
    1.6630  -13.7450  -36.9100 C   0  0  0  0  0  3  0  0  0  0  0  0
    2.3650  -12.5790  -36.6970 C   0  0  0  0  0  3  0  0  0  0  0  0
    3.0920  -12.0260  -37.7220 C   0  0  0  0  0  0  0  0  0  0  0  0
    3.1210  -12.6360  -38.9620 C   0  0  0  0  0  3  0  0  0  0  0  0
    4.0580  -10.4130  -37.4090 Br  0  0  0  0  0  0  0  0  0  0  0  0
    2.4010  -13.8130  -39.1450 C   0  0  0  0  0  3  0  0  0  0  0  0
  1 20  1  0  0  0  0
  1  6  1  0  0  0  0
  2  3  1  0  0  0  0
  2  1  1  0  0  0  0
  3  4  1  0  0  0  0
  4  5  1  0  0  0  0
  6  5  1  0  0  0  0
  7 12  1  0  0  0  0
  7  4  1  0  0  0  0
  8  7  2  0  0  0  0
  9 10  2  0  0  0  0
  9  8  1  0  0  0  0
 10 11  1  0  0  0  0
 11 12  2  0  0  0  0
 11 13  1  0  0  0  0
 14  9  1  0  0  0  0
 15 14  1  0  0  0  0
 16 15  1  0  0  0  0
 16 17  1  0  0  0  0
 17 18  1  0  0  0  0
 18 19  1  0  0  0  0
 19 14  1  0  0  0  0
 20 23  1  0  0  0  0
 20 22  2  0  0  0  0
 21 20  2  0  0  0  0
 23 24  1  0  0  0  0
 24 25  2  0  0  0  0
 26 28  1  0  0  0  0
 26 25  1  0  0  0  0
 27 26  2  0  0  0  0
 29 27  1  0  0  0  0
 29 23  2  0  0  0  0
M  END
>  <Pose>
1

>  <Score>
-7.285

$$$$
