/Users/jonathanwahrer/Desktop/Msc/3_Semester/Drug_Design_Praktikum/waehrer_HTS_screening/HTS_experiment/out/docking_results/vina_output/6y4q/1100_docked.pdbqt
 OpenBabel03232218073D

 26 29  0  0  1  0  0  0  0  0999 V2000
    1.4030  -17.1270  -38.2780 N   0  0  0  0  0  0  0  0  0  0  0  0
    1.2030  -18.2970  -37.4900 C   0  0  0  0  0  2  0  0  0  0  0  0
    0.9750  -19.5390  -38.3260 C   0  0  0  0  0  2  0  0  0  0  0  0
    1.7770  -19.4080  -39.5150 N   0  0  1  0  0  0  0  0  0  0  0  0
    1.3910  -18.3560  -40.4210 C   0  0  0  0  0  2  0  0  0  0  0  0
    0.9540  -17.1770  -39.6280 C   0  0  0  0  0  2  0  0  0  0  0  0
    2.8810  -20.2420  -39.8050 C   0  0  2  0  0  3  0  0  0  0  0  0
    2.8140  -21.2220  -40.7070 C   0  0  0  0  0  3  0  0  0  0  0  0
    3.9230  -22.0980  -41.0340 C   0  0  0  0  0  0  0  0  0  0  0  0
    3.7990  -23.0550  -41.9390 C   0  0  0  0  0  1  0  0  0  0  0  0
    5.1520  -21.9130  -40.3630 N   0  0  0  0  0  0  0  0  0  0  0  0
    5.1880  -20.8500  -39.3990 C   0  0  0  0  0  0  0  0  0  0  0  0
    5.9960  -22.4800  -40.5210 H   0  0  0  0  0  0  0  0  0  0  0  0
    4.1320  -20.0660  -39.1330 N   0  0  0  0  0  0  0  0  0  0  0  0
    6.1850  -20.4080  -38.5930 N   0  0  0  0  0  0  0  0  0  0  0  0
    4.4740  -19.1750  -38.1990 N   0  0  0  0  0  0  0  0  0  0  0  0
    5.7570  -19.3740  -37.8490 C   0  0  0  0  0  3  0  0  0  0  0  0
    0.8440  -15.7540  -37.4480 S   0  0  0  0  0  0  0  0  0  0  0  0
    0.7470  -15.9690  -35.9600 O   0  0  0  0  0  0  0  0  0  0  0  0
   -0.5730  -15.4690  -37.9240 O   0  0  0  0  0  0  0  0  0  0  0  0
    1.7850  -14.3100  -37.8170 C   0  0  0  0  0  0  0  0  0  0  0  0
    2.1940  -13.0630  -36.7380 S   0  0  0  0  0  0  0  0  0  0  0  0
    3.0760  -12.0610  -37.7930 C   0  0  0  0  0  0  0  0  0  0  0  0
    3.0280  -12.7380  -38.9830 C   0  0  0  0  0  3  0  0  0  0  0  0
    3.9490  -10.3750  -37.4420 Br  0  0  0  0  0  0  0  0  0  0  0  0
    2.3530  -13.9120  -38.9920 C   0  0  0  0  0  3  0  0  0  0  0  0
  1  2  1  0  0  0  0
  1 18  1  0  0  0  0
  3  2  1  0  0  0  0
  4  5  1  1  0  0  0
  4  3  1  0  0  0  0
  5  6  1  0  0  0  0
  6  1  1  0  0  0  0
  7  8  1  1  0  0  0
  7  4  1  0  0  0  0
  7 14  1  0  0  0  0
  9  8  2  0  0  0  0
  9 11  1  0  0  0  0
 10  9  1  0  0  0  0
 11 12  1  0  0  0  0
 12 14  1  0  0  0  0
 12 15  2  0  0  0  0
 13 11  1  0  0  0  0
 14 16  1  0  0  0  0
 15 17  1  0  0  0  0
 16 17  2  0  0  0  0
 18 19  2  0  0  0  0
 20 18  2  0  0  0  0
 21 18  1  0  0  0  0
 21 22  1  0  0  0  0
 23 25  1  0  0  0  0
 23 22  1  0  0  0  0
 24 23  2  0  0  0  0
 26 24  1  0  0  0  0
 26 21  2  0  0  0  0
M  END
>  <Pose>
1

>  <Score>
-6.281

$$$$
