/Users/jonathanwahrer/Desktop/Msc/3_Semester/Drug_Design_Praktikum/waehrer_HTS_screening/HTS_experiment/out/docking_results/vina_output/6y4q/1112_docked.pdbqt
 OpenBabel03232218083D

 32 35  0  0  0  0  0  0  0  0999 V2000
    2.3860  -17.6280  -36.4480 C   0  0  0  0  0  2  0  0  0  0  0  0
    3.1430  -18.3860  -37.4730 C   0  0  0  0  0  0  0  0  0  0  0  0
    4.2430  -19.1510  -37.2190 C   0  0  0  0  0  3  0  0  0  0  0  0
    4.9020  -19.8310  -38.2390 C   0  0  0  0  0  3  0  0  0  0  0  0
    4.4780  -19.7620  -39.5340 C   0  0  0  0  0  0  0  0  0  0  0  0
    3.3630  -18.9880  -39.7950 C   0  0  0  0  0  3  0  0  0  0  0  0
    2.7060  -18.3110  -38.7840 C   0  0  0  0  0  3  0  0  0  0  0  0
    5.2860  -20.6070  -40.8460 S   0  0  0  0  0  0  0  0  0  0  0  0
    6.2330  -19.7130  -41.5710 O   0  0  0  0  0  0  0  0  0  0  0  0
    6.1100  -21.7020  -40.2000 O   0  0  0  0  0  0  0  0  0  0  0  0
    4.1830  -21.3580  -41.9120 N   0  0  0  0  0  0  0  0  0  0  0  0
    3.4950  -22.4760  -41.3230 C   0  0  0  0  0  2  0  0  0  0  0  0
    2.9450  -23.3100  -42.4840 C   0  0  0  0  0  2  0  0  0  0  0  0
    3.9610  -24.0070  -43.1020 O   0  0  0  0  0  0  0  0  0  0  0  0
    5.1750  -23.3280  -42.8890 C   0  0  0  0  0  2  0  0  0  0  0  0
    4.8860  -21.8470  -43.0840 C   0  0  0  0  0  2  0  0  0  0  0  0
    1.0220  -17.4950  -36.7820 O   0  0  0  0  0  0  0  0  0  0  0  0
    0.1190  -16.7070  -36.1120 C   0  0  0  0  0  0  0  0  0  0  0  0
   -0.2480  -17.0380  -34.9680 O   0  0  0  0  0  0  0  0  0  0  0  0
   -0.4150  -15.4910  -36.7210 C   0  0  0  0  0  2  0  0  0  0  0  0
    0.5920  -14.6180  -37.2470 N   0  0  0  0  0  0  0  0  0  0  0  0
    1.0720  -14.7010  -38.5950 C   0  0  0  0  0  0  0  0  0  0  0  0
    0.6830  -15.5270  -39.4690 O   0  0  0  0  0  0  0  0  0  0  0  0
    2.0870  -13.6750  -38.8030 C   0  0  0  0  0  0  0  0  0  0  0  0
    2.2460  -12.9720  -37.6370 C   0  0  0  0  0  0  0  0  0  0  0  0
    2.8610  -13.3130  -39.8820 C   0  0  0  0  0  3  0  0  0  0  0  0
    3.1550  -11.9350  -37.5610 C   0  0  0  0  0  3  0  0  0  0  0  0
    1.3150  -13.5520  -36.6540 C   0  0  0  0  0  0  0  0  0  0  0  0
    3.9240  -11.5820  -38.6540 C   0  0  0  0  0  3  0  0  0  0  0  0
    3.7750  -12.2810  -39.8340 C   0  0  0  0  0  0  0  0  0  0  0  0
    4.8140  -11.8330  -41.3680 Br  0  0  0  0  0  0  0  0  0  0  0  0
    1.1610  -13.1830  -35.4690 O   0  0  0  0  0  0  0  0  0  0  0  0
  2  3  1  0  0  0  0
  2  1  1  0  0  0  0
  4  3  2  0  0  0  0
  5  4  1  0  0  0  0
  6  5  2  0  0  0  0
  6  7  1  0  0  0  0
  7  2  2  0  0  0  0
  8 10  2  0  0  0  0
  8  5  1  0  0  0  0
  9  8  2  0  0  0  0
 11 12  1  0  0  0  0
 11  8  1  0  0  0  0
 13 12  1  0  0  0  0
 14 15  1  0  0  0  0
 14 13  1  0  0  0  0
 16 15  1  0  0  0  0
 16 11  1  0  0  0  0
 17  1  1  0  0  0  0
 17 18  1  0  0  0  0
 18 19  2  0  0  0  0
 20 18  1  0  0  0  0
 21 20  1  0  0  0  0
 21 28  1  0  0  0  0
 22 21  1  0  0  0  0
 23 22  2  0  0  0  0
 24 22  1  0  0  0  0
 24 25  1  0  0  0  0
 25 27  2  0  0  0  0
 25 28  1  0  0  0  0
 26 30  1  0  0  0  0
 26 24  2  0  0  0  0
 28 32  2  0  0  0  0
 29 27  1  0  0  0  0
 30 29  2  0  0  0  0
 31 30  1  0  0  0  0
M  END
>  <Pose>
1

>  <Score>
-7.162

$$$$
