/Users/jonathanwahrer/Desktop/Msc/3_Semester/Drug_Design_Praktikum/waehrer_HTS_screening/HTS_experiment/out/docking_results/vina_output/6y4q/1113_docked.pdbqt
 OpenBabel03232218083D

 28 31  0  0  0  0  0  0  0  0999 V2000
    2.3360  -18.0240  -37.6130 C   0  0  0  0  0  0  0  0  0  0  0  0
    2.6480  -17.9610  -36.3070 N   0  0  0  0  0  0  0  0  0  0  0  0
    1.9120  -16.9790  -35.7270 C   0  0  0  0  0  3  0  0  0  0  0  0
    1.1260  -16.4080  -36.6560 N   0  0  0  0  0  0  0  0  0  0  0  0
    1.3710  -17.0300  -37.8000 C   0  0  0  0  0  3  0  0  0  0  0  0
    0.2010  -15.3220  -36.4030 C   0  0  0  0  0  2  0  0  0  0  0  0
    0.7940  -14.0080  -36.7440 C   0  0  0  0  0  0  0  0  0  0  0  0
    0.1060  -12.9440  -37.2370 N   0  0  0  0  0  0  0  0  0  0  0  0
    0.9450  -11.9690  -37.4150 O   0  0  0  0  0  0  0  0  0  0  0  0
    2.1600  -12.3150  -37.0710 C   0  0  0  0  0  0  0  0  0  0  0  0
    2.0610  -13.6020  -36.6480 N   0  0  0  0  0  0  0  0  0  0  0  0
    3.4080  -11.4950  -37.1200 C   0  0  0  0  0  2  0  0  0  0  0  0
    3.9180  -11.5720  -38.5180 C   0  0  0  0  0  0  0  0  0  0  0  0
    4.9140  -10.6900  -38.9050 C   0  0  0  0  0  3  0  0  0  0  0  0
    5.4430  -10.6900  -40.1690 C   0  0  0  0  0  3  0  0  0  0  0  0
    4.9620  -11.5990  -41.0720 C   0  0  0  0  0  0  0  0  0  0  0  0
    3.9840  -12.4850  -40.7410 C   0  0  0  0  0  3  0  0  0  0  0  0
    5.6730  -11.6290  -42.8420 Br  0  0  0  0  0  0  0  0  0  0  0  0
    3.4660  -12.4630  -39.4490 C   0  0  0  0  0  3  0  0  0  0  0  0
    2.9860  -19.1060  -38.8230 S   0  0  0  0  0  0  0  0  0  0  0  0
    1.9020  -20.1180  -39.1700 O   0  0  0  0  0  0  0  0  0  0  0  0
    3.2320  -18.3370  -40.1050 O   0  0  0  0  0  0  0  0  0  0  0  0
    4.3550  -19.9450  -38.3420 N   0  0  0  0  0  0  0  0  0  0  0  0
    4.4480  -21.3100  -38.6520 C   0  0  0  0  0  2  0  0  0  0  0  0
    5.8090  -21.6520  -39.1830 C   0  0  0  0  0  2  0  0  0  0  0  0
    6.7380  -21.2700  -38.2310 O   0  0  0  0  0  0  0  0  0  0  0  0
    6.8030  -19.8920  -38.0720 C   0  0  0  0  0  2  0  0  0  0  0  0
    5.4860  -19.2300  -37.9360 C   0  0  0  0  0  2  0  0  0  0  0  0
  1  2  1  0  0  0  0
  2  3  2  0  0  0  0
  4  6  1  0  0  0  0
  4  3  1  0  0  0  0
  5  1  2  0  0  0  0
  5  4  1  0  0  0  0
  7 11  1  0  0  0  0
  7  6  1  0  0  0  0
  8  7  2  0  0  0  0
  9  8  1  0  0  0  0
  9 10  1  0  0  0  0
 10 11  2  0  0  0  0
 12 10  1  0  0  0  0
 13 12  1  0  0  0  0
 14 13  1  0  0  0  0
 15 14  2  0  0  0  0
 16 17  2  0  0  0  0
 16 15  1  0  0  0  0
 17 19  1  0  0  0  0
 18 16  1  0  0  0  0
 19 13  2  0  0  0  0
 20 23  1  0  0  0  0
 20  1  1  0  0  0  0
 21 20  2  0  0  0  0
 22 20  2  0  0  0  0
 23 28  1  0  0  0  0
 24 23  1  0  0  0  0
 25 24  1  0  0  0  0
 25 26  1  0  0  0  0
 26 27  1  0  0  0  0
 27 28  1  0  0  0  0
M  END
>  <Pose>
1

>  <Score>
-6.672

$$$$
