/Users/jonathanwahrer/Desktop/Msc/3_Semester/Drug_Design_Praktikum/waehrer_HTS_screening/HTS_experiment/out/docking_results/vina_output/6y4q/1114_docked.pdbqt
 OpenBabel03232218093D

 27 30  0  0  0  0  0  0  0  0999 V2000
    2.4050  -18.7770  -37.8680 C   0  0  0  0  0  0  0  0  0  0  0  0
    1.2420  -18.8690  -38.5360 N   0  0  0  0  0  0  0  0  0  0  0  0
    0.4010  -17.9300  -38.0640 C   0  0  0  0  0  3  0  0  0  0  0  0
    0.9920  -17.2200  -37.0920 N   0  0  0  0  0  0  0  0  0  0  0  0
    2.2250  -17.7380  -36.9700 C   0  0  0  0  0  3  0  0  0  0  0  0
    0.4130  -16.1250  -36.3420 C   0  0  0  0  0  2  0  0  0  0  0  0
    1.0640  -14.8260  -36.6300 C   0  0  0  0  0  0  0  0  0  0  0  0
    0.8870  -13.7030  -35.9090 N   0  0  0  0  0  0  0  0  0  0  0  0
    1.6010  -12.7560  -36.4360 O   0  0  0  0  0  0  0  0  0  0  0  0
    2.2520  -13.1890  -37.4810 C   0  0  0  0  0  0  0  0  0  0  0  0
    1.9190  -14.4830  -37.6060 N   0  0  0  0  0  0  0  0  0  0  0  0
    3.1510  -12.3870  -38.3120 C   0  0  0  0  0  0  0  0  0  0  0  0
    3.4060  -12.7040  -39.6300 C   0  0  0  0  0  3  0  0  0  0  0  0
    4.2640  -11.9310  -40.4090 C   0  0  0  0  0  0  0  0  0  0  0  0
    4.8880  -10.8200  -39.8880 C   0  0  0  0  0  3  0  0  0  0  0  0
    4.6040  -12.3900  -42.2340 Br  0  0  0  0  0  0  0  0  0  0  0  0
    4.6350  -10.4990  -38.5710 C   0  0  0  0  0  3  0  0  0  0  0  0
    3.7740  -11.2770  -37.7920 C   0  0  0  0  0  3  0  0  0  0  0  0
    3.8510  -19.7680  -38.0910 S   0  0  0  0  0  0  0  0  0  0  0  0
    5.0160  -18.9830  -37.5500 O   0  0  0  0  0  0  0  0  0  0  0  0
    3.7580  -21.0330  -37.3000 O   0  0  0  0  0  0  0  0  0  0  0  0
    4.1320  -20.0850  -39.7480 N   0  0  0  0  0  0  0  0  0  0  0  0
    3.8320  -21.4070  -40.1530 C   0  0  0  0  0  2  0  0  0  0  0  0
    4.7220  -22.0090  -41.1900 C   0  0  0  0  0  2  0  0  0  0  0  0
    5.1010  -20.9680  -42.0690 O   0  0  0  0  0  0  0  0  0  0  0  0
    6.0270  -20.2180  -41.3370 C   0  0  0  0  0  2  0  0  0  0  0  0
    5.3050  -19.4800  -40.2650 C   0  0  0  0  0  2  0  0  0  0  0  0
  1  5  2  0  0  0  0
  2  3  2  0  0  0  0
  2  1  1  0  0  0  0
  3  4  1  0  0  0  0
  4  5  1  0  0  0  0
  4  6  1  0  0  0  0
  7  6  1  0  0  0  0
  7  8  2  0  0  0  0
  9  8  1  0  0  0  0
 10  9  1  0  0  0  0
 11 10  2  0  0  0  0
 11  7  1  0  0  0  0
 12 18  1  0  0  0  0
 12 10  1  0  0  0  0
 13 12  2  0  0  0  0
 14 15  2  0  0  0  0
 14 13  1  0  0  0  0
 15 17  1  0  0  0  0
 16 14  1  0  0  0  0
 17 18  2  0  0  0  0
 19  1  1  0  0  0  0
 19 20  2  0  0  0  0
 19 21  2  0  0  0  0
 22 19  1  0  0  0  0
 23 22  1  0  0  0  0
 24 23  1  0  0  0  0
 25 26  1  0  0  0  0
 25 24  1  0  0  0  0
 26 27  1  0  0  0  0
 27 22  1  0  0  0  0
M  END
>  <Pose>
1

>  <Score>
-6.861

$$$$
