/Users/jonathanwahrer/Desktop/Msc/3_Semester/Drug_Design_Praktikum/waehrer_HTS_screening/HTS_experiment/out/docking_results/vina_output/6y4q/1143_docked.pdbqt
 OpenBabel03232218103D

 33 37  0  0  1  0  0  0  0  0999 V2000
    0.8710  -15.2510  -38.8650 C   0  0  1  0  0  3  0  0  0  0  0  0
   -0.2000  -14.8100  -39.7480 N   0  0  0  0  0  4  0  0  0  0  0  0
    0.3060  -14.6380  -41.0990 C   0  0  0  0  0  2  0  0  0  0  0  0
    1.8090  -14.6330  -41.1980 C   0  0  0  0  0  2  0  0  0  0  0  0
    2.3490  -13.8140  -40.0540 C   0  0  0  0  0  0  0  0  0  0  0  0
    1.8110  -14.1460  -38.7880 C   0  0  0  0  0  0  0  0  0  0  0  0
    2.2160  -13.4460  -37.6850 C   0  0  0  0  0  0  0  0  0  0  0  0
    3.1510  -12.4310  -37.8670 C   0  0  0  0  0  0  0  0  0  0  0  0
    3.6610  -12.1280  -39.1080 C   0  0  0  0  0  0  0  0  0  0  0  0
    3.2610  -12.8250  -40.2320 C   0  0  0  0  0  3  0  0  0  0  0  0
    4.5570  -11.0880  -38.9690 O   0  0  0  0  0  0  0  0  0  0  0  0
    4.4080  -10.5330  -37.6850 C   0  0  0  0  0  2  0  0  0  0  0  0
    3.7370  -11.5740  -36.9750 O   0  0  0  0  0  0  0  0  0  0  0  0
   -0.8450  -13.6050  -39.3520 C   0  0  0  0  0  1  0  0  0  0  0  0
   -0.9010  -15.5790  -39.7730 H   0  0  0  0  0  0  0  0  0  0  0  0
    0.3880  -15.9660  -37.6920 C   0  0  1  0  0  3  0  0  0  0  0  0
   -0.9380  -16.6150  -38.1450 C   0  0  0  0  0  0  0  0  0  0  0  0
   -0.7810  -17.5880  -39.1640 N   0  0  0  0  0  2  0  0  0  0  0  0
   -2.0210  -16.2980  -37.6470 O   0  0  0  0  0  0  0  0  0  0  0  0
    0.2380  -18.3530  -39.3170 C   0  0  0  0  0  0  0  0  0  0  0  0
    0.3470  -19.5540  -40.6350 S   0  0  0  0  0  0  0  0  0  0  0  0
    1.2970  -18.1660  -38.3500 N   0  0  0  0  0  0  0  0  0  0  0  0
    1.1630  -17.1910  -37.3270 C   0  0  0  0  0  0  0  0  0  0  0  0
    1.6840  -17.4240  -36.2350 O   0  0  0  0  0  0  0  0  0  0  0  0
    2.4570  -18.9440  -38.4090 C   0  0  0  0  0  0  0  0  0  0  0  0
    3.4610  -18.5420  -39.2980 C   0  0  0  0  0  3  0  0  0  0  0  0
    4.6330  -19.2580  -39.4110 C   0  0  0  0  0  3  0  0  0  0  0  0
    4.8150  -20.3950  -38.6300 C   0  0  0  0  0  0  0  0  0  0  0  0
    3.8050  -20.7890  -37.7440 C   0  0  0  0  0  3  0  0  0  0  0  0
    6.4060  -21.4030  -38.7550 Br  0  0  0  0  0  0  0  0  0  0  0  0
    2.6420  -20.0620  -37.6440 C   0  0  0  0  0  3  0  0  0  0  0  0
    1.7150  -13.7240  -36.4210 O   0  0  0  0  0  0  0  0  0  0  0  0
    0.6620  -12.9160  -35.9070 C   0  0  0  0  0  1  0  0  0  0  0  0
  1  6  1  1  0  0  0
  1 16  1  0  0  0  0
  2 14  1  0  0  0  0
  2  1  1  0  0  0  0
  3  2  1  0  0  0  0
  4  3  1  0  0  0  0
  4  5  1  0  0  0  0
  5  6  1  0  0  0  0
  6  7  2  0  0  0  0
  7 32  1  0  0  0  0
  8  7  1  0  0  0  0
  8 13  1  0  0  0  0
  9 11  1  0  0  0  0
  9  8  2  0  0  0  0
 10  5  2  0  0  0  0
 10  9  1  0  0  0  0
 11 12  1  0  0  0  0
 12 13  1  0  0  0  0
 15  2  1  0  0  0  0
 16 17  1  6  0  0  0
 16 23  1  0  0  0  0
 17 19  2  0  0  0  0
 18 17  1  0  0  0  0
 20 18  1  0  0  0  0
 20 22  1  0  0  0  0
 21 20  2  0  0  0  0
 22 23  1  0  0  0  0
 23 24  2  0  0  0  0
 25 22  1  0  0  0  0
 25 31  1  0  0  0  0
 26 25  2  0  0  0  0
 27 26  1  0  0  0  0
 27 28  2  0  0  0  0
 28 29  1  0  0  0  0
 29 31  2  0  0  0  0
 30 28  1  0  0  0  0
 32 33  1  0  0  0  0
M  END
>  <Pose>
1

>  <Score>
-6.804

$$$$
