/Users/jonathanwahrer/Desktop/Msc/3_Semester/Drug_Design_Praktikum/waehrer_HTS_screening/HTS_experiment/out/docking_results/vina_output/6y4q/1161_docked.pdbqt
 OpenBabel03232218103D

 29 32  0  0  1  0  0  0  0  0999 V2000
    0.2950  -16.8240  -38.8060 N   0  0  0  0  0  0  0  0  0  0  0  0
   -0.3300  -17.8980  -38.2670 C   0  0  0  0  0  0  0  0  0  0  0  0
    0.2340  -19.0440  -38.7390 C   0  0  0  0  0  0  0  0  0  0  0  0
   -0.2360  -20.2780  -38.3280 C   0  0  0  0  0  3  0  0  0  0  0  0
   -1.2810  -20.3310  -37.4350 C   0  0  0  0  0  3  0  0  0  0  0  0
   -1.8650  -19.1920  -36.9440 C   0  0  0  0  0  3  0  0  0  0  0  0
   -1.3740  -17.9790  -37.3730 C   0  0  0  0  0  3  0  0  0  0  0  0
    1.2090  -18.6740  -39.5760 N   0  0  0  0  0  0  0  0  0  0  0  0
    1.2420  -17.3110  -39.6130 C   0  0  1  0  0  3  0  0  0  0  0  0
   -0.0480  -15.4530  -38.5210 C   0  0  0  0  0  2  0  0  0  0  0  0
    0.7920  -14.8850  -37.4390 C   0  0  0  0  0  0  0  0  0  0  0  0
    0.7080  -15.3130  -36.2610 O   0  0  0  0  0  0  0  0  0  0  0  0
    1.7520  -13.8040  -37.6890 C   0  0  0  0  0  0  0  0  0  0  0  0
    2.5010  -13.3150  -39.1490 S   0  0  0  0  0  0  0  0  0  0  0  0
    3.4530  -12.0330  -38.5650 C   0  0  0  0  0  0  0  0  0  0  0  0
    3.1570  -12.0220  -37.2300 C   0  0  0  0  0  3  0  0  0  0  0  0
    4.6310  -10.9070  -39.5550 Br  0  0  0  0  0  0  0  0  0  0  0  0
    2.2870  -12.9270  -36.7790 C   0  0  0  0  0  3  0  0  0  0  0  0
    2.0900  -16.7060  -40.3580 N   0  0  0  0  0  2  0  0  0  0  0  0
    3.0950  -16.8520  -40.4360 H   0  0  0  0  0  0  0  0  0  0  0  0
    2.0790  -19.5950  -40.2940 C   0  0  0  0  0  2  0  0  0  0  0  0
    3.4600  -19.5720  -39.6210 C   0  0  0  0  0  2  0  0  0  0  0  0
    3.6090  -20.6320  -38.6660 N   0  0  0  0  0  4  0  0  0  0  0  0
    4.9000  -21.2890  -38.7120 C   0  0  0  0  0  2  0  0  0  0  0  0
    6.0350  -20.3070  -38.6380 C   0  0  0  0  0  2  0  0  0  0  0  0
    5.8800  -19.3050  -37.5440 C   0  0  0  0  0  2  0  0  0  0  0  0
    4.4840  -18.9960  -37.1360 C   0  0  0  0  0  2  0  0  0  0  0  0
    3.4820  -20.0760  -37.3410 C   0  0  0  0  0  2  0  0  0  0  0  0
    2.9030  -21.3800  -38.8380 H   0  0  0  0  0  0  0  0  0  0  0  0
  1 10  1  0  0  0  0
  1  2  1  0  0  0  0
  2  7  1  0  0  0  0
  3  4  1  0  0  0  0
  3  2  2  0  0  0  0
  4  5  2  0  0  0  0
  5  6  1  0  0  0  0
  7  6  2  0  0  0  0
  8  3  1  0  0  0  0
  9 19  1  6  0  0  0
  9  8  1  0  0  0  0
  9  1  1  0  0  0  0
 10 11  1  0  0  0  0
 11 12  2  0  0  0  0
 13 11  1  0  0  0  0
 13 18  2  0  0  0  0
 14 15  1  0  0  0  0
 14 13  1  0  0  0  0
 15 16  2  0  0  0  0
 16 18  1  0  0  0  0
 17 15  1  0  0  0  0
 20 19  1  0  0  0  0
 21 22  1  0  0  0  0
 21  8  1  0  0  0  0
 22 23  1  0  0  0  0
 23 28  1  0  0  0  0
 24 23  1  0  0  0  0
 24 25  1  0  0  0  0
 25 26  1  0  0  0  0
 26 27  1  0  0  0  0
 28 27  1  0  0  0  0
 29 23  1  0  0  0  0
M  END
>  <Pose>
1

>  <Score>
-6.119

$$$$
