/Users/jonathanwahrer/Desktop/Msc/3_Semester/Drug_Design_Praktikum/waehrer_HTS_screening/HTS_experiment/out/docking_results/vina_output/6y4q/1177_docked.pdbqt
 OpenBabel03232218113D

 33 36  0  0  1  0  0  0  0  0999 V2000
    1.5590  -15.5410  -39.7850 C   0  0  2  0  0  3  0  0  0  0  0  0
    1.8610  -16.7390  -38.9330 C   0  0  2  0  0  3  0  0  0  0  0  0
    1.7770  -17.8360  -39.8450 N   0  0  0  0  0  0  0  0  0  0  0  0
    2.2730  -17.2970  -41.1020 C   0  0  0  0  0  0  0  0  0  0  0  0
    2.7310  -18.0240  -42.0250 O   0  0  0  0  0  0  0  0  0  0  0  0
    2.1460  -15.8510  -41.0820 C   0  0  0  0  0  0  0  0  0  0  0  0
    2.4790  -15.0280  -41.9990 O   0  0  0  0  0  0  0  0  0  0  0  0
    1.3860  -19.2020  -39.6590 C   0  0  0  0  0  2  0  0  0  0  0  0
    2.2470  -20.0210  -38.7540 C   0  0  0  0  0  2  0  0  0  0  0  0
    3.2150  -20.8940  -39.5670 C   0  0  0  0  0  2  0  0  0  0  0  0
    4.2570  -20.0610  -40.0660 N   0  0  0  0  0  4  0  0  0  0  0  0
    5.2110  -19.5990  -39.1100 C   0  0  0  0  0  2  0  0  0  0  0  0
    6.2010  -20.6580  -38.6880 C   0  0  0  0  0  2  0  0  0  0  0  0
    5.8290  -21.8500  -39.3500 O   0  0  0  0  0  0  0  0  0  0  0  0
    6.0730  -21.5940  -40.7140 C   0  0  0  0  0  2  0  0  0  0  0  0
    4.9660  -20.6690  -41.1770 C   0  0  0  0  0  2  0  0  0  0  0  0
    3.7910  -19.1940  -40.4720 H   0  0  0  0  0  0  0  0  0  0  0  0
    1.0200  -16.7880  -37.7440 C   0  0  0  0  0  0  0  0  0  0  0  0
   -0.3600  -16.9740  -37.9260 C   0  0  0  0  0  3  0  0  0  0  0  0
   -1.2500  -17.0620  -36.8860 C   0  0  0  0  0  0  0  0  0  0  0  0
   -0.7940  -16.9660  -35.5950 C   0  0  0  0  0  3  0  0  0  0  0  0
   -3.1230  -17.3170  -37.1620 Br  0  0  0  0  0  0  0  0  0  0  0  0
    0.5620  -16.7820  -35.3750 C   0  0  0  0  0  3  0  0  0  0  0  0
    1.4280  -16.6990  -36.4450 C   0  0  0  0  0  3  0  0  0  0  0  0
    0.9520  -14.4220  -39.4410 C   0  0  1  0  0  3  0  0  0  0  0  0
   -0.3710  -14.1970  -39.8850 O   0  0  0  0  0  1  0  0  0  0  0  0
    1.6240  -13.4230  -38.6130 C   0  0  0  0  0  0  0  0  0  0  0  0
    3.1060  -12.6380  -38.9580 S   0  0  0  0  0  0  0  0  0  0  0  0
    3.2440  -11.7030  -37.5380 C   0  0  0  0  0  0  0  0  0  0  0  0
    2.1540  -12.0410  -36.8750 N   0  0  0  0  0  0  0  0  0  0  0  0
    4.3340  -10.7370  -37.1370 C   0  0  0  0  0  1  0  0  0  0  0  0
    1.3210  -12.9000  -37.3830 C   0  0  0  0  0  0  0  0  0  0  0  0
    0.0870  -13.3180  -36.5940 C   0  0  0  0  0  1  0  0  0  0  0  0
  1 25  1  1  0  0  0
  1  2  1  0  0  0  0
  2 18  1  1  0  0  0
  3  8  1  0  0  0  0
  3  2  1  0  0  0  0
  4  6  1  0  0  0  0
  4  3  1  0  0  0  0
  5  4  2  0  0  0  0
  6  1  1  0  0  0  0
  7  6  2  0  0  0  0
  8  9  1  0  0  0  0
 10  9  1  0  0  0  0
 11 10  1  0  0  0  0
 11 12  1  0  0  0  0
 12 13  1  0  0  0  0
 14 13  1  0  0  0  0
 15 14  1  0  0  0  0
 16 15  1  0  0  0  0
 16 11  1  0  0  0  0
 17 11  1  0  0  0  0
 18 24  1  0  0  0  0
 19 18  2  0  0  0  0
 19 20  1  0  0  0  0
 20 21  2  0  0  0  0
 21 23  1  0  0  0  0
 22 20  1  0  0  0  0
 24 23  2  0  0  0  0
 25 26  1  1  0  0  0
 25 27  1  0  0  0  0
 27 32  2  0  0  0  0
 28 27  1  0  0  0  0
 28 29  1  0  0  0  0
 29 31  1  0  0  0  0
 29 30  2  0  0  0  0
 32 30  1  0  0  0  0
 32 33  1  0  0  0  0
M  END
>  <Pose>
1

>  <Score>
-5.756

$$$$
