/Users/jonathanwahrer/Desktop/Msc/3_Semester/Drug_Design_Praktikum/waehrer_HTS_screening/HTS_experiment/out/docking_results/vina_output/6y4q/1178_docked.pdbqt
 OpenBabel03232218113D

 33 36  0  0  1  0  0  0  0  0999 V2000
   -0.8030  -14.5870  -37.2510 C   0  0  1  0  0  3  0  0  0  0  0  0
    0.5870  -14.7910  -36.7340 C   0  0  1  0  0  3  0  0  0  0  0  0
    0.7720  -16.2100  -36.8840 N   0  0  0  0  0  0  0  0  0  0  0  0
   -0.5130  -16.7900  -36.6210 C   0  0  0  0  0  0  0  0  0  0  0  0
   -0.7280  -17.9610  -36.2600 O   0  0  0  0  0  0  0  0  0  0  0  0
   -1.5370  -15.7780  -36.8450 C   0  0  0  0  0  0  0  0  0  0  0  0
   -2.7920  -15.8320  -36.7320 O   0  0  0  0  0  0  0  0  0  0  0  0
    2.0090  -16.8560  -37.2060 C   0  0  0  0  0  3  0  0  0  0  0  0
    1.9750  -17.7460  -38.3780 C   0  0  0  0  0  3  0  0  0  0  0  0
    3.1040  -18.6060  -38.6210 C   0  0  0  0  0  2  0  0  0  0  0  0
    3.6220  -19.6300  -37.8450 N   0  0  0  0  0  4  0  0  0  0  0  0
    4.8560  -19.1670  -37.1070 C   0  0  0  0  0  2  0  0  0  0  0  0
    6.0220  -19.1980  -38.0390 C   0  0  0  0  0  2  0  0  0  0  0  0
    6.2920  -20.5320  -38.3190 O   0  0  0  0  0  0  0  0  0  0  0  0
    5.2230  -20.9640  -39.1370 C   0  0  0  0  0  2  0  0  0  0  0  0
    3.9220  -20.9090  -38.3860 C   0  0  0  0  0  2  0  0  0  0  0  0
    2.9860  -19.8150  -37.0310 H   0  0  0  0  0  0  0  0  0  0  0  0
    1.5470  -13.9410  -37.4530 C   0  0  0  0  0  0  0  0  0  0  0  0
    1.8830  -14.0300  -38.7760 C   0  0  0  0  0  3  0  0  0  0  0  0
    2.7930  -13.2150  -39.4110 C   0  0  0  0  0  3  0  0  0  0  0  0
    3.4180  -12.2360  -38.6810 C   0  0  0  0  0  0  0  0  0  0  0  0
    3.1240  -12.0970  -37.3500 C   0  0  0  0  0  3  0  0  0  0  0  0
    4.6830  -11.1020  -39.5690 Br  0  0  0  0  0  0  0  0  0  0  0  0
    2.2090  -12.9280  -36.7460 C   0  0  0  0  0  3  0  0  0  0  0  0
   -1.2210  -13.5290  -37.8810 C   0  0  1  0  0  3  0  0  0  0  0  0
   -1.6340  -13.6440  -39.2200 O   0  0  0  0  0  1  0  0  0  0  0  0
   -1.2660  -12.2140  -37.2040 C   0  0  0  0  0  0  0  0  0  0  0  0
   -1.8720  -11.8130  -35.6530 S   0  0  0  0  0  0  0  0  0  0  0  0
   -1.4800  -10.1550  -35.6420 C   0  0  0  0  0  0  0  0  0  0  0  0
   -0.9070   -9.9910  -36.8170 N   0  0  0  0  0  0  0  0  0  0  0  0
   -1.7100   -9.1100  -34.5840 C   0  0  0  0  0  1  0  0  0  0  0  0
   -0.7820  -10.9990  -37.6250 C   0  0  0  0  0  0  0  0  0  0  0  0
   -0.0850  -10.8560  -38.9750 C   0  0  0  0  0  1  0  0  0  0  0  0
  1 25  1  1  0  0  0
  1  6  1  0  0  0  0
  1  2  1  0  0  0  0
  2 18  1  6  0  0  0
  3  2  1  0  0  0  0
  3  4  1  0  0  0  0
  4  5  2  0  0  0  0
  6  7  2  0  0  0  0
  6  4  1  0  0  0  0
  8  3  1  0  0  0  0
  9  8  2  0  0  0  0
 10  9  1  0  0  0  0
 10 11  1  0  0  0  0
 11 12  1  0  0  0  0
 11 17  1  0  0  0  0
 13 12  1  0  0  0  0
 14 13  1  0  0  0  0
 15 16  1  0  0  0  0
 15 14  1  0  0  0  0
 16 11  1  0  0  0  0
 18 24  1  0  0  0  0
 19 18  2  0  0  0  0
 20 19  1  0  0  0  0
 20 21  2  0  0  0  0
 21 22  1  0  0  0  0
 22 24  2  0  0  0  0
 23 21  1  0  0  0  0
 25 26  1  1  0  0  0
 25 27  1  0  0  0  0
 27 28  1  0  0  0  0
 28 29  1  0  0  0  0
 29 31  1  0  0  0  0
 30 29  2  0  0  0  0
 32 27  2  0  0  0  0
 32 30  1  0  0  0  0
 33 32  1  0  0  0  0
M  END
>  <Pose>
1

>  <Score>
-6.268

$$$$
