/Users/jonathanwahrer/Desktop/Msc/3_Semester/Drug_Design_Praktikum/waehrer_HTS_screening/HTS_experiment/out/docking_results/vina_output/6y4q/1209_docked.pdbqt
 OpenBabel03232218123D

 24 27  0  0  1  0  0  0  0  0999 V2000
   -1.9550  -14.0400  -37.0040 S   0  0  0  0  0  0  0  0  0  0  0  0
   -3.6050  -14.4680  -37.6270 C   0  0  0  0  0  2  0  0  0  0  0  0
   -3.6140  -15.9650  -37.8830 C   0  0  0  0  0  2  0  0  0  0  0  0
   -2.9680  -16.6960  -36.7250 C   0  0  0  0  0  2  0  0  0  0  0  0
   -1.5360  -16.6950  -36.9780 N   0  0  0  0  0  0  0  0  0  0  0  0
   -0.9470  -15.5070  -37.1270 C   0  0  2  0  0  3  0  0  0  0  0  0
    0.3980  -15.7070  -37.3570 N   0  0  0  0  0  0  0  0  0  0  0  0
    0.6440  -17.0060  -37.3510 C   0  0  0  0  0  0  0  0  0  0  0  0
   -0.5860  -17.6130  -37.1110 C   0  0  0  0  0  3  0  0  0  0  0  0
    1.8820  -17.7440  -37.5410 C   0  0  0  0  0  0  0  0  0  0  0  0
    2.2400  -18.1620  -38.8320 C   0  0  0  0  0  3  0  0  0  0  0  0
    3.3910  -18.8590  -39.0730 C   0  0  0  0  0  3  0  0  0  0  0  0
    4.2790  -19.2010  -38.0780 C   0  0  0  0  0  0  0  0  0  0  0  0
    3.9390  -18.7970  -36.8130 C   0  0  0  0  0  3  0  0  0  0  0  0
    2.7630  -18.0820  -36.5430 C   0  0  0  0  0  3  0  0  0  0  0  0
    5.4390  -19.9090  -38.3620 O   0  0  0  0  0  0  0  0  0  0  0  0
    5.3840  -21.3030  -38.6000 C   0  0  0  0  0  1  0  0  0  0  0  0
    1.2980  -14.6190  -37.5560 C   0  0  0  0  0  0  0  0  0  0  0  0
    1.8040  -14.3380  -38.8130 C   0  0  0  0  0  3  0  0  0  0  0  0
    2.6530  -13.2740  -39.0450 C   0  0  0  0  0  3  0  0  0  0  0  0
    2.9990  -12.4750  -37.9730 C   0  0  0  0  0  0  0  0  0  0  0  0
    2.4900  -12.7620  -36.7250 C   0  0  0  0  0  3  0  0  0  0  0  0
    4.1750  -10.9720  -38.1980 Br  0  0  0  0  0  0  0  0  0  0  0  0
    1.6410  -13.8180  -36.4710 C   0  0  0  0  0  3  0  0  0  0  0  0
  2  1  1  0  0  0  0
  3  2  1  0  0  0  0
  3  4  1  0  0  0  0
  5  4  1  0  0  0  0
  6  1  1  1  0  0  0
  6  5  1  0  0  0  0
  7  8  1  0  0  0  0
  7  6  1  0  0  0  0
  8  9  2  0  0  0  0
  9  5  1  0  0  0  0
 10  8  1  0  0  0  0
 10 15  1  0  0  0  0
 11 10  2  0  0  0  0
 12 11  1  0  0  0  0
 12 13  2  0  0  0  0
 13 14  1  0  0  0  0
 14 15  2  0  0  0  0
 16 13  1  0  0  0  0
 17 16  1  0  0  0  0
 18  7  1  0  0  0  0
 18 24  1  0  0  0  0
 19 18  2  0  0  0  0
 20 19  1  0  0  0  0
 20 21  2  0  0  0  0
 21 22  1  0  0  0  0
 22 24  2  0  0  0  0
 23 21  1  0  0  0  0
M  END
>  <Pose>
1

>  <Score>
-6.572

$$$$
