/Users/jonathanwahrer/Desktop/Msc/3_Semester/Drug_Design_Praktikum/waehrer_HTS_screening/HTS_experiment/out/docking_results/vina_output/6y4q/1217_docked.pdbqt
 OpenBabel03232218123D

 28 31  0  0  1  0  0  0  0  0999 V2000
   -1.4280  -18.0930  -39.0790 S   0  0  0  0  0  0  0  0  0  0  0  0
   -2.9400  -18.3820  -38.1930 C   0  0  0  0  0  2  0  0  0  0  0  0
   -2.9440  -17.5690  -36.9140 C   0  0  0  0  0  2  0  0  0  0  0  0
   -1.7720  -17.9920  -36.0470 C   0  0  0  0  0  2  0  0  0  0  0  0
   -0.5420  -17.4580  -36.5850 N   0  0  2  0  0  0  0  0  0  0  0  0
    0.4750  -16.6400  -36.0070 C   0  0  2  0  0  0  0  0  0  0  0  0
    1.6900  -17.1930  -36.7360 C   0  0  0  0  0  2  0  0  0  0  0  0
    1.1740  -17.4850  -38.0540 N   0  0  0  0  0  0  0  0  0  0  0  0
   -0.0930  -17.6810  -37.9330 C   0  0  2  0  0  3  0  0  0  0  0  0
    1.8950  -17.5140  -39.2770 C   0  0  0  0  0  0  0  0  0  0  0  0
    2.5530  -18.6960  -39.5940 C   0  0  0  0  0  0  0  0  0  0  0  0
    3.3050  -18.7940  -40.7690 C   0  0  0  0  0  3  0  0  0  0  0  0
    3.3950  -17.7050  -41.6180 C   0  0  0  0  0  3  0  0  0  0  0  0
    2.7570  -16.5210  -41.3360 C   0  0  0  0  0  0  0  0  0  0  0  0
    2.0160  -16.4870  -40.1380 C   0  0  0  0  0  3  0  0  0  0  0  0
    2.4620  -19.7770  -38.7440 O   0  0  0  0  0  0  0  0  0  0  0  0
    3.5280  -20.3110  -37.9930 C   0  0  0  0  0  1  0  0  0  0  0  0
    2.8080  -15.3980  -42.1430 O   0  0  0  0  0  0  0  0  0  0  0  0
    3.1430  -14.1040  -41.7310 C   0  0  0  0  0  1  0  0  0  0  0  0
    0.5650  -16.8740  -34.6390 O   0  0  0  0  0  0  0  0  0  0  0  0
    0.4940  -17.8380  -34.4530 H   0  0  0  0  0  0  0  0  0  0  0  0
    0.3900  -15.1990  -36.3160 C   0  0  0  0  0  0  0  0  0  0  0  0
   -0.7470  -14.4920  -36.5500 C   0  0  0  0  0  3  0  0  0  0  0  0
   -0.7090  -13.1330  -36.8710 C   0  0  0  0  0  3  0  0  0  0  0  0
    0.4890  -12.4550  -36.9660 C   0  0  0  0  0  0  0  0  0  0  0  0
    1.6330  -13.1540  -36.7340 C   0  0  0  0  0  3  0  0  0  0  0  0
    0.5260  -10.5900  -37.4140 Br  0  0  0  0  0  0  0  0  0  0  0  0
    1.5950  -14.4840  -36.4200 C   0  0  0  0  0  3  0  0  0  0  0  0
  1  2  1  0  0  0  0
  2  3  1  0  0  0  0
  3  4  1  0  0  0  0
  5  4  1  6  0  0  0
  5  6  1  0  0  0  0
  6 20  1  1  0  0  0
  7  6  1  0  0  0  0
  8  9  1  0  0  0  0
  8  7  1  0  0  0  0
  9  1  1  6  0  0  0
  9  5  1  0  0  0  0
 10  8  1  0  0  0  0
 11 10  1  0  0  0  0
 11 16  1  0  0  0  0
 12 11  2  0  0  0  0
 13 14  2  0  0  0  0
 13 12  1  0  0  0  0
 14 15  1  0  0  0  0
 15 10  2  0  0  0  0
 16 17  1  0  0  0  0
 18 19  1  0  0  0  0
 18 14  1  0  0  0  0
 20 21  1  0  0  0  0
 22  6  1  0  0  0  0
 23 22  2  0  0  0  0
 24 23  1  0  0  0  0
 25 24  2  0  0  0  0
 25 26  1  0  0  0  0
 26 28  2  0  0  0  0
 27 25  1  0  0  0  0
 28 22  1  0  0  0  0
M  END
>  <Pose>
1

>  <Score>
-5.523

$$$$
