/Users/jonathanwahrer/Desktop/Msc/3_Semester/Drug_Design_Praktikum/waehrer_HTS_screening/HTS_experiment/out/docking_results/vina_output/6y4q/1219_docked.pdbqt
 OpenBabel03232218133D

 27 30  0  0  1  0  0  0  0  0999 V2000
   -1.0920  -14.1320  -39.2770 S   0  0  0  0  0  0  0  0  0  0  0  0
   -2.7540  -13.8060  -38.5560 C   0  0  0  0  0  2  0  0  0  0  0  0
   -2.8230  -14.4270  -37.1720 C   0  0  0  0  0  2  0  0  0  0  0  0
   -2.2640  -15.8260  -37.1760 C   0  0  0  0  0  2  0  0  0  0  0  0
   -0.8380  -15.7800  -37.1030 N   0  0  2  0  0  0  0  0  0  0  0  0
    0.2090  -16.4910  -36.3930 C   0  0  1  0  0  0  0  0  0  0  0  0
    1.3130  -15.4540  -36.2830 C   0  0  0  0  0  2  0  0  0  0  0  0
    1.0480  -14.6200  -37.4730 N   0  0  0  0  0  0  0  0  0  0  0  0
   -0.1370  -14.8110  -37.8990 C   0  0  1  0  0  3  0  0  0  0  0  0
   -0.2070  -16.9460  -35.1580 O   0  0  0  0  0  0  0  0  0  0  0  0
    0.3530  -17.6150  -34.7390 H   0  0  0  0  0  0  0  0  0  0  0  0
    0.7330  -17.6290  -37.1860 C   0  0  0  0  0  0  0  0  0  0  0  0
    2.0960  -17.7910  -37.3340 C   0  0  0  0  0  3  0  0  0  0  0  0
    2.5450  -18.8760  -38.0870 C   0  0  0  0  0  0  0  0  0  0  0  0
    1.6690  -19.7490  -38.6590 C   0  0  0  0  0  3  0  0  0  0  0  0
    0.3020  -19.5990  -38.5180 C   0  0  0  0  0  3  0  0  0  0  0  0
   -0.1410  -18.5080  -37.7600 C   0  0  0  0  0  3  0  0  0  0  0  0
    3.9430  -19.0510  -38.2450 N   0  0  0  0  0  0  0  0  0  0  0  0
    4.7180  -19.0630  -37.2700 O   0  0  0  0  0  0  0  0  0  0  0  0
    4.5010  -19.2150  -39.4810 O   0  0  0  0  0  0  0  0  0  0  0  0
    1.9920  -13.7170  -38.0420 C   0  0  0  0  0  0  0  0  0  0  0  0
    2.4710  -13.7500  -39.3180 C   0  0  0  0  0  3  0  0  0  0  0  0
    3.3780  -12.8240  -39.8140 C   0  0  0  0  0  3  0  0  0  0  0  0
    3.8360  -11.8110  -38.9950 C   0  0  0  0  0  0  0  0  0  0  0  0
    3.3700  -11.7470  -37.6860 C   0  0  0  0  0  3  0  0  0  0  0  0
    5.0910  -10.4920  -39.5830 Br  0  0  0  0  0  0  0  0  0  0  0  0
    2.4610  -12.6860  -37.2130 C   0  0  0  0  0  3  0  0  0  0  0  0
  1  2  1  0  0  0  0
  2  3  1  0  0  0  0
  4  3  1  0  0  0  0
  5  4  1  1  0  0  0
  5  6  1  0  0  0  0
  6  7  1  0  0  0  0
  6 10  1  1  0  0  0
  8  7  1  0  0  0  0
  9  1  1  6  0  0  0
  9  8  1  0  0  0  0
  9  5  1  0  0  0  0
 10 11  1  0  0  0  0
 12  6  1  0  0  0  0
 13 12  1  0  0  0  0
 14 13  2  0  0  0  0
 15 16  2  0  0  0  0
 15 14  1  0  0  0  0
 16 17  1  0  0  0  0
 17 12  2  0  0  0  0
 18 14  1  0  0  0  0
 18 19  2  0  0  0  0
 20 18  2  0  0  0  0
 21  8  1  0  0  0  0
 21 27  1  0  0  0  0
 22 21  2  0  0  0  0
 23 22  1  0  0  0  0
 23 24  2  0  0  0  0
 24 25  1  0  0  0  0
 25 27  2  0  0  0  0
 26 24  1  0  0  0  0
M  END
>  <Pose>
1

>  <Score>
-6.657

$$$$
