/Users/jonathanwahrer/Desktop/Msc/3_Semester/Drug_Design_Praktikum/waehrer_HTS_screening/HTS_experiment/out/docking_results/vina_output/6y4q/1220_docked.pdbqt
 OpenBabel03232218133D

 27 30  0  0  1  0  0  0  0  0999 V2000
   -2.4220  -17.0830  -37.6100 S   0  0  0  0  0  0  0  0  0  0  0  0
   -2.5260  -18.7380  -36.8170 C   0  0  0  0  0  2  0  0  0  0  0  0
   -1.3730  -19.6030  -37.1090 C   0  0  0  0  0  2  0  0  0  0  0  0
   -0.4120  -19.2060  -38.1540 C   0  0  0  0  0  2  0  0  0  0  0  0
    0.0980  -17.8970  -38.1310 N   0  0  1  0  0  0  0  0  0  0  0  0
    1.3230  -17.2950  -38.5610 C   0  0  2  0  0  0  0  0  0  0  0  0
    1.4850  -16.2120  -37.5170 C   0  0  0  0  0  2  0  0  0  0  0  0
    0.1100  -15.8330  -37.2720 N   0  0  0  0  0  0  0  0  0  0  0  0
   -0.6470  -16.7690  -37.6040 C   0  0  1  0  0  3  0  0  0  0  0  0
    1.1110  -16.6410  -39.7780 O   0  0  0  0  0  0  0  0  0  0  0  0
    1.0940  -17.2990  -40.4920 H   0  0  0  0  0  0  0  0  0  0  0  0
    2.5010  -18.1820  -38.6190 C   0  0  0  0  0  0  0  0  0  0  0  0
    3.1490  -18.4580  -37.4190 C   0  0  0  0  0  3  0  0  0  0  0  0
    4.2550  -19.2770  -37.3700 C   0  0  0  0  0  3  0  0  0  0  0  0
    4.7760  -19.8660  -38.5090 C   0  0  0  0  0  0  0  0  0  0  0  0
    4.1340  -19.5970  -39.7030 C   0  0  0  0  0  3  0  0  0  0  0  0
    3.0110  -18.7640  -39.7500 C   0  0  0  0  0  3  0  0  0  0  0  0
    5.9120  -20.7060  -38.4320 N   0  0  0  0  0  0  0  0  0  0  0  0
    5.9110  -21.8910  -38.7840 O   0  0  0  0  0  0  0  0  0  0  0  0
    7.0870  -20.1910  -37.9470 O   0  0  0  0  0  0  0  0  0  0  0  0
   -0.3110  -14.5680  -36.7460 C   0  0  0  0  0  0  0  0  0  0  0  0
    0.6440  -13.7390  -36.1750 C   0  0  0  0  0  3  0  0  0  0  0  0
    0.3050  -12.5050  -35.6250 C   0  0  0  0  0  3  0  0  0  0  0  0
   -1.0010  -12.0690  -35.6310 C   0  0  0  0  0  0  0  0  0  0  0  0
   -1.9580  -12.8800  -36.1930 C   0  0  0  0  0  3  0  0  0  0  0  0
   -1.4650  -10.3710  -34.8540 Br  0  0  0  0  0  0  0  0  0  0  0  0
   -1.5880  -14.1160  -36.7370 C   0  0  0  0  0  3  0  0  0  0  0  0
  1  2  1  0  0  0  0
  3  2  1  0  0  0  0
  4  3  1  0  0  0  0
  5  4  1  6  0  0  0
  5  9  1  0  0  0  0
  6 10  1  6  0  0  0
  6  5  1  0  0  0  0
  6  7  1  0  0  0  0
  7  8  1  0  0  0  0
  8 21  1  0  0  0  0
  9  1  1  6  0  0  0
  9  8  1  0  0  0  0
 11 10  1  0  0  0  0
 12  6  1  0  0  0  0
 12 13  1  0  0  0  0
 13 14  2  0  0  0  0
 15 18  1  0  0  0  0
 15 14  1  0  0  0  0
 16 15  2  0  0  0  0
 17 16  1  0  0  0  0
 17 12  2  0  0  0  0
 18 20  2  0  0  0  0
 19 18  2  0  0  0  0
 21 27  2  0  0  0  0
 21 22  1  0  0  0  0
 22 23  2  0  0  0  0
 24 23  1  0  0  0  0
 24 26  1  0  0  0  0
 25 24  2  0  0  0  0
 27 25  1  0  0  0  0
M  END
>  <Pose>
1

>  <Score>
-6.750

$$$$
