/Users/jonathanwahrer/Desktop/Msc/3_Semester/Drug_Design_Praktikum/waehrer_HTS_screening/HTS_experiment/out/docking_results/vina_output/6y4q/1226_docked.pdbqt
 OpenBabel03232218133D

 24 27  0  0  1  0  0  0  0  0999 V2000
   -0.2170  -19.4230  -38.9680 S   0  0  0  0  0  0  0  0  0  0  0  0
   -1.8860  -19.4320  -38.2560 C   0  0  0  0  0  2  0  0  0  0  0  0
   -1.7430  -18.8930  -36.8290 C   0  0  0  0  0  2  0  0  0  0  0  0
   -1.3010  -17.4240  -36.9230 C   0  0  0  0  0  2  0  0  0  0  0  0
    0.1580  -17.4070  -37.0830 N   0  0  1  0  0  0  0  0  0  0  0  0
    1.1800  -16.6200  -36.5250 C   0  0  2  0  0  0  0  0  0  0  0  0
    2.4680  -17.3700  -36.8490 C   0  0  0  0  0  2  0  0  0  0  0  0
    2.0630  -18.3810  -37.7770 N   0  0  0  0  0  0  0  0  0  0  0  0
    0.8010  -18.3620  -37.9150 C   0  0  1  0  0  3  0  0  0  0  0  0
    1.0740  -16.6470  -35.1160 O   0  0  0  0  0  0  0  0  0  0  0  0
    0.2280  -16.1790  -34.8950 H   0  0  0  0  0  0  0  0  0  0  0  0
    1.3240  -15.2300  -36.9520 C   0  0  0  0  0  0  0  0  0  0  0  0
    0.8910  -14.2590  -36.0490 C   0  0  0  0  0  3  0  0  0  0  0  0
    0.9850  -12.8990  -36.2820 C   0  0  0  0  0  3  0  0  0  0  0  0
    1.5250  -12.4460  -37.4540 C   0  0  0  0  0  0  0  0  0  0  0  0
    1.9600  -13.3940  -38.3630 C   0  0  0  0  0  3  0  0  0  0  0  0
    1.6970  -10.5630  -37.8350 Br  0  0  0  0  0  0  0  0  0  0  0  0
    1.8610  -14.7600  -38.1150 C   0  0  0  0  0  3  0  0  0  0  0  0
    3.0030  -19.2820  -38.3850 C   0  0  0  0  0  0  0  0  0  0  0  0
    3.4420  -19.0280  -39.6440 C   0  0  0  0  0  3  0  0  0  0  0  0
    4.3740  -19.8990  -40.1970 C   0  0  0  0  0  3  0  0  0  0  0  0
    4.8640  -20.9960  -39.5250 C   0  0  0  0  0  3  0  0  0  0  0  0
    4.3860  -21.2140  -38.2480 C   0  0  0  0  0  3  0  0  0  0  0  0
    3.4660  -20.3740  -37.6710 C   0  0  0  0  0  3  0  0  0  0  0  0
  1  2  1  0  0  0  0
  2  3  1  0  0  0  0
  4  3  1  0  0  0  0
  5  4  1  1  0  0  0
  5  6  1  0  0  0  0
  6 10  1  1  0  0  0
  7  6  1  0  0  0  0
  8  7  1  0  0  0  0
  9  1  1  1  0  0  0
  9  8  1  0  0  0  0
  9  5  1  0  0  0  0
 10 11  1  0  0  0  0
 12  6  1  0  0  0  0
 12 13  1  0  0  0  0
 14 13  2  0  0  0  0
 15 14  1  0  0  0  0
 16 18  1  0  0  0  0
 16 15  2  0  0  0  0
 17 15  1  0  0  0  0
 18 12  2  0  0  0  0
 19  8  1  0  0  0  0
 19 24  1  0  0  0  0
 20 19  2  0  0  0  0
 21 20  1  0  0  0  0
 21 22  2  0  0  0  0
 22 23  1  0  0  0  0
 23 24  2  0  0  0  0
M  END
>  <Pose>
1

>  <Score>
-6.916

$$$$
