/Users/jonathanwahrer/Desktop/Msc/3_Semester/Drug_Design_Praktikum/waehrer_HTS_screening/HTS_experiment/out/docking_results/vina_output/6y4q/1231_docked.pdbqt
 OpenBabel03232218143D

 37 40  0  0  0  0  0  0  0  0999 V2000
    2.8520  -18.2370  -37.4610 C   0  0  0  0  0  0  0  0  0  0  0  0
    3.8200  -19.0690  -37.0600 N   0  0  0  0  0  0  0  0  0  0  0  0
    3.9530  -18.8570  -35.7380 N   0  0  0  0  0  0  0  0  0  0  0  0
    3.1330  -17.9590  -35.3260 N   0  0  0  0  0  0  0  0  0  0  0  0
    2.3680  -17.4930  -36.3790 C   0  0  0  0  0  0  0  0  0  0  0  0
    1.3430  -16.4910  -36.2460 C   0  0  0  0  0  0  0  0  0  0  0  0
    0.1330  -16.9190  -36.0840 O   0  0  0  0  0  0  0  0  0  0  0  0
    1.4760  -15.1060  -36.2690 N   0  0  0  0  0  0  0  0  0  0  0  0
    2.3320  -14.5400  -36.3930 H   0  0  0  0  0  0  0  0  0  0  0  0
    0.3120  -14.2740  -36.1130 N   0  0  0  0  0  0  0  0  0  0  0  0
    0.3710  -13.0070  -36.2240 C   0  0  0  0  0  3  0  0  0  0  0  0
   -0.7820  -12.1300  -36.0740 C   0  0  0  0  0  0  0  0  0  0  0  0
   -1.3740  -11.5200  -37.1570 C   0  0  0  0  0  3  0  0  0  0  0  0
   -2.4700  -10.6920  -37.0320 C   0  0  0  0  0  0  0  0  0  0  0  0
   -3.0230  -10.4390  -35.8030 C   0  0  0  0  0  0  0  0  0  0  0  0
   -3.2570   -9.8680  -38.5670 Br  0  0  0  0  0  0  0  0  0  0  0  0
   -2.4450  -11.0440  -34.6760 C   0  0  0  0  0  0  0  0  0  0  0  0
   -4.1250   -9.6030  -35.7000 O   0  0  0  0  0  1  0  0  0  0  0  0
   -1.3500  -11.8660  -34.8350 C   0  0  0  0  0  3  0  0  0  0  0  0
   -3.0490  -10.7470  -33.4760 O   0  0  0  0  0  0  0  0  0  0  0  0
   -3.6530  -11.6740  -32.6090 C   0  0  0  0  0  1  0  0  0  0  0  0
    2.3070  -18.0990  -38.8210 C   0  0  0  0  0  2  0  0  0  0  0  0
    1.1320  -19.3240  -39.3560 S   0  0  0  0  0  0  0  0  0  0  0  0
   -0.5110  -19.0350  -38.7130 C   0  0  0  0  0  0  0  0  0  0  0  0
   -1.3260  -20.1860  -37.6060 S   0  0  0  0  0  0  0  0  0  0  0  0
   -2.9350  -19.3380  -37.6140 C   0  0  0  0  0  2  0  0  0  0  0  0
   -2.5450  -18.0610  -38.2880 C   0  0  0  0  0  2  0  0  0  0  0  0
   -1.3070  -18.1020  -38.8810 N   0  0  0  0  0  0  0  0  0  0  0  0
    4.5970  -20.0420  -37.7540 C   0  0  0  0  0  0  0  0  0  0  0  0
    4.1940  -21.2210  -38.2720 N   0  0  0  0  0  0  0  0  0  0  0  0
    5.1480  -21.8430  -38.8560 O   0  0  0  0  0  0  0  0  0  0  0  0
    6.2180  -21.1180  -38.7570 N   0  0  0  0  0  0  0  0  0  0  0  0
    5.9360  -19.9690  -38.0730 C   0  0  0  0  0  0  0  0  0  0  0  0
    6.8380  -18.9210  -37.7820 N   0  0  0  0  0  4  0  0  0  0  0  0
    7.0260  -18.3970  -38.6760 H   0  0  0  0  0  0  0  0  0  0  0  0
    7.7280  -19.2250  -37.3500 H   0  0  0  0  0  0  0  0  0  0  0  0
    6.3620  -18.2330  -37.1360 H   0  0  0  0  0  0  0  0  0  0  0  0
  1  2  1  0  0  0  0
  1  5  2  0  0  0  0
  2  3  1  0  0  0  0
  3  4  2  0  0  0  0
  5  6  1  0  0  0  0
  5  4  1  0  0  0  0
  6  7  2  0  0  0  0
  8  6  1  0  0  0  0
  8 10  1  0  0  0  0
  9  8  1  0  0  0  0
 11 10  2  0  0  0  0
 11 12  1  0  0  0  0
 12 19  1  0  0  0  0
 13 14  1  0  0  0  0
 13 12  2  0  0  0  0
 14 15  2  0  0  0  0
 15 18  1  0  0  0  0
 15 17  1  0  0  0  0
 16 14  1  0  0  0  0
 17 20  1  0  0  0  0
 19 17  2  0  0  0  0
 20 21  1  0  0  0  0
 22  1  1  0  0  0  0
 23 22  1  0  0  0  0
 23 24  1  0  0  0  0
 24 25  1  0  0  0  0
 26 25  1  0  0  0  0
 27 26  1  0  0  0  0
 28 24  2  0  0  0  0
 28 27  1  0  0  0  0
 29  2  1  0  0  0  0
 30 29  2  0  0  0  0
 31 32  1  0  0  0  0
 31 30  1  0  0  0  0
 32 33  2  0  0  0  0
 33 34  1  0  0  0  0
 33 29  1  0  0  0  0
 34 36  1  0  0  0  0
 34 37  1  0  0  0  0
 35 34  1  0  0  0  0
M  END
>  <Pose>
1

>  <Score>
-6.526

$$$$
