/Users/jonathanwahrer/Desktop/Msc/3_Semester/Drug_Design_Praktikum/waehrer_HTS_screening/HTS_experiment/out/docking_results/vina_output/6y4q/1236_docked.pdbqt
 OpenBabel03232218143D

 30 34  0  0  1  0  0  0  0  0999 V2000
    0.6400  -18.2260  -38.6680 C   0  0  2  0  0  3  0  0  0  0  0  0
    0.8770  -19.6340  -38.2490 C   0  0  1  0  0  3  0  0  0  0  0  0
    0.1860  -20.5130  -39.2300 C   0  0  0  0  0  0  0  0  0  0  0  0
    0.8490  -20.7420  -40.4890 N   0  0  0  0  0  0  0  0  0  0  0  0
   -0.9270  -21.0190  -38.9410 O   0  0  0  0  0  0  0  0  0  0  0  0
    2.0960  -20.5980  -40.6410 C   0  0  0  0  0  0  0  0  0  0  0  0
    3.1850  -20.7990  -42.0360 S   0  0  0  0  0  0  0  0  0  0  0  0
    2.9250  -20.2250  -39.5640 N   0  0  0  0  0  0  0  0  0  0  0  0
    4.7020  -21.0260  -40.9910 C   0  0  0  0  0  2  0  0  0  0  0  0
    4.3150  -20.0730  -39.8890 C   0  0  0  0  0  2  0  0  0  0  0  0
    2.3090  -20.0130  -38.2670 C   0  0  0  0  0  0  0  0  0  0  0  0
    3.0250  -20.1640  -37.2480 O   0  0  0  0  0  0  0  0  0  0  0  0
    1.8340  -17.3230  -38.4790 C   0  0  2  0  0  3  0  0  0  0  0  0
    1.8030  -16.5270  -37.2420 C   0  0  0  0  0  0  0  0  0  0  0  0
    2.0780  -17.0810  -36.1200 O   0  0  0  0  0  0  0  0  0  0  0  0
    1.4610  -15.1190  -37.2860 N   0  0  0  0  0  0  0  0  0  0  0  0
    1.1600  -14.2740  -36.1640 C   0  0  0  0  0  2  0  0  0  0  0  0
    1.4360  -14.4730  -38.5420 C   0  0  0  0  0  0  0  0  0  0  0  0
    0.1840  -13.1920  -36.5560 C   0  0  0  0  0  2  0  0  0  0  0  0
    0.9490  -12.7840  -38.1950 S   0  0  0  0  0  0  0  0  0  0  0  0
    1.7030  -15.0730  -39.6360 N   0  0  0  0  0  0  0  0  0  0  0  0
    2.0510  -16.4670  -39.6720 C   0  0  0  0  0  0  0  0  0  0  0  0
    2.5400  -16.9230  -40.7360 O   0  0  0  0  0  0  0  0  0  0  0  0
   -0.5640  -17.7120  -37.9780 C   0  0  0  0  0  0  0  0  0  0  0  0
   -1.3830  -16.7670  -38.5820 C   0  0  0  0  0  3  0  0  0  0  0  0
   -2.5100  -16.2840  -37.9500 C   0  0  0  0  0  0  0  0  0  0  0  0
   -2.8500  -16.7350  -36.6940 C   0  0  0  0  0  3  0  0  0  0  0  0
   -3.6410  -14.9860  -38.7730 Br  0  0  0  0  0  0  0  0  0  0  0  0
   -2.0450  -17.6610  -36.1030 C   0  0  0  0  0  3  0  0  0  0  0  0
   -0.9150  -18.1530  -36.7230 C   0  0  0  0  0  3  0  0  0  0  0  0
  1 24  1  1  0  0  0
  2  1  1  6  0  0  0
  3  5  2  0  0  0  0
  3  2  1  0  0  0  0
  4  3  1  0  0  0  0
  6  4  2  0  0  0  0
  6  8  1  0  0  0  0
  7  9  1  0  0  0  0
  7  6  1  0  0  0  0
  8 11  1  0  0  0  0
  9 10  1  0  0  0  0
 10  8  1  0  0  0  0
 11  2  1  0  0  0  0
 11 12  2  0  0  0  0
 13  1  1  6  0  0  0
 13 14  1  0  0  0  0
 14 15  2  0  0  0  0
 16 14  1  0  0  0  0
 16 17  1  0  0  0  0
 18 20  1  0  0  0  0
 18 16  1  0  0  0  0
 19 17  1  0  0  0  0
 20 19  1  0  0  0  0
 21 18  2  0  0  0  0
 22 21  1  0  0  0  0
 22 13  1  0  0  0  0
 23 22  2  0  0  0  0
 24 30  1  0  0  0  0
 25 24  2  0  0  0  0
 25 26  1  0  0  0  0
 26 27  2  0  0  0  0
 27 29  1  0  0  0  0
 28 26  1  0  0  0  0
 30 29  2  0  0  0  0
M  END
>  <Pose>
1

>  <Score>
-5.902

$$$$
