/Users/jonathanwahrer/Desktop/Msc/3_Semester/Drug_Design_Praktikum/waehrer_HTS_screening/HTS_experiment/out/docking_results/vina_output/6y4q/1237_docked.pdbqt
 OpenBabel03232218143D

 30 34  0  0  1  0  0  0  0  0999 V2000
    1.9800  -17.4040  -38.5150 C   0  0  2  0  0  3  0  0  0  0  0  0
    1.4360  -17.5860  -39.8690 C   0  0  1  0  0  3  0  0  0  0  0  0
    0.1180  -17.1620  -40.2500 C   0  0  0  0  0  0  0  0  0  0  0  0
   -0.0140  -15.8210  -40.7970 N   0  0  0  0  0  0  0  0  0  0  0  0
   -0.9740  -17.7780  -40.1910 O   0  0  0  0  0  0  0  0  0  0  0  0
    0.9880  -15.2470  -41.3820 C   0  0  0  0  0  0  0  0  0  0  0  0
    1.1470  -13.6160  -42.1550 S   0  0  0  0  0  0  0  0  0  0  0  0
    2.2700  -15.8220  -41.5050 N   0  0  0  0  0  0  0  0  0  0  0  0
    2.9910  -13.5930  -42.0740 C   0  0  0  0  0  2  0  0  0  0  0  0
    3.2450  -15.0620  -42.1930 C   0  0  0  0  0  2  0  0  0  0  0  0
    2.4230  -17.1350  -40.9210 C   0  0  0  0  0  0  0  0  0  0  0  0
    3.3560  -17.8730  -41.2870 O   0  0  0  0  0  0  0  0  0  0  0  0
    2.2460  -18.5410  -37.6250 C   0  0  1  0  0  3  0  0  0  0  0  0
    2.2150  -19.8070  -38.4820 C   0  0  0  0  0  0  0  0  0  0  0  0
    1.1160  -20.3010  -38.8220 O   0  0  0  0  0  0  0  0  0  0  0  0
    3.4510  -20.4310  -38.8990 N   0  0  0  0  0  0  0  0  0  0  0  0
    3.6310  -21.3840  -39.9390 C   0  0  0  0  0  2  0  0  0  0  0  0
    4.6220  -20.0760  -38.1870 C   0  0  0  0  0  0  0  0  0  0  0  0
    5.0050  -21.2770  -40.5520 C   0  0  0  0  0  2  0  0  0  0  0  0
    5.9380  -20.9860  -38.9750 S   0  0  0  0  0  0  0  0  0  0  0  0
    4.6450  -19.2540  -37.2130 N   0  0  0  0  0  0  0  0  0  0  0  0
    3.4050  -18.6210  -36.7760 C   0  0  0  0  0  0  0  0  0  0  0  0
    3.4280  -18.1660  -35.6180 O   0  0  0  0  0  0  0  0  0  0  0  0
    1.3730  -16.2130  -37.8050 C   0  0  0  0  0  0  0  0  0  0  0  0
    0.2930  -16.3620  -36.9690 C   0  0  0  0  0  3  0  0  0  0  0  0
   -0.2320  -15.2580  -36.3470 C   0  0  0  0  0  3  0  0  0  0  0  0
    0.2670  -14.0050  -36.5180 C   0  0  0  0  0  0  0  0  0  0  0  0
    1.3450  -13.8240  -37.3480 C   0  0  0  0  0  3  0  0  0  0  0  0
   -0.4750  -12.4670  -35.6450 Br  0  0  0  0  0  0  0  0  0  0  0  0
    1.8800  -14.9470  -37.9800 C   0  0  0  0  0  3  0  0  0  0  0  0
  1 24  1  1  0  0  0
  2  1  1  1  0  0  0
  3  5  2  0  0  0  0
  3  2  1  0  0  0  0
  4  3  1  0  0  0  0
  6  4  2  0  0  0  0
  7  9  1  0  0  0  0
  7  6  1  0  0  0  0
  8  6  1  0  0  0  0
  8 11  1  0  0  0  0
 10  9  1  0  0  0  0
 10  8  1  0  0  0  0
 11  2  1  0  0  0  0
 12 11  2  0  0  0  0
 13  1  1  6  0  0  0
 13 22  1  0  0  0  0
 14 13  1  0  0  0  0
 15 14  2  0  0  0  0
 16 14  1  0  0  0  0
 16 18  1  0  0  0  0
 17 16  1  0  0  0  0
 18 21  2  0  0  0  0
 19 17  1  0  0  0  0
 19 20  1  0  0  0  0
 20 18  1  0  0  0  0
 21 22  1  0  0  0  0
 22 23  2  0  0  0  0
 24 25  1  0  0  0  0
 25 26  2  0  0  0  0
 27 26  1  0  0  0  0
 27 29  1  0  0  0  0
 28 27  2  0  0  0  0
 30 24  2  0  0  0  0
 30 28  1  0  0  0  0
M  END
>  <Pose>
1

>  <Score>
-6.436

$$$$
