/Users/jonathanwahrer/Desktop/Msc/3_Semester/Drug_Design_Praktikum/waehrer_HTS_screening/HTS_experiment/out/docking_results/vina_output/6y4q/1248_docked.pdbqt
 OpenBabel03232218143D

 21 24  0  0  0  0  0  0  0  0999 V2000
    0.5080  -20.0130  -38.2400 S   0  0  0  0  0  0  0  0  0  0  0  0
   -0.2330  -18.5050  -37.8870 C   0  0  0  0  0  0  0  0  0  0  0  0
    0.8200  -17.6880  -37.9070 N   0  0  0  0  0  0  0  0  0  0  0  0
    0.2870  -16.4500  -37.6290 C   0  0  0  0  0  0  0  0  0  0  0  0
   -1.0290  -16.5610  -37.4570 N   0  0  0  0  0  0  0  0  0  0  0  0
   -1.3890  -17.8200  -37.6090 N   0  0  0  0  0  0  0  0  0  0  0  0
    1.9710  -18.1690  -38.1520 N   0  0  0  0  0  0  0  0  0  0  0  0
    2.1340  -19.4570  -38.3850 C   0  0  0  0  0  0  0  0  0  0  0  0
    3.3510  -20.2180  -38.6850 C   0  0  0  0  0  0  0  0  0  0  0  0
    3.8740  -21.2110  -37.9550 N   0  0  0  0  0  0  0  0  0  0  0  0
    4.9900  -21.6580  -38.5540 N   0  0  0  0  0  0  0  0  0  0  0  0
    5.1900  -20.9480  -39.6820 C   0  0  0  0  0  3  0  0  0  0  0  0
    5.5910  -22.4310  -38.1880 H   0  0  0  0  0  0  0  0  0  0  0  0
    4.1420  -20.0280  -39.7630 C   0  0  0  0  0  0  0  0  0  0  0  0
    3.9460  -18.7810  -41.1650 Br  0  0  0  0  0  0  0  0  0  0  0  0
    1.0390  -15.1830  -37.5320 C   0  0  0  0  0  0  0  0  0  0  0  0
    1.6660  -14.6620  -38.6030 N   0  0  0  0  0  0  0  0  0  0  0  0
    2.3520  -13.5020  -38.5010 C   0  0  0  0  0  3  0  0  0  0  0  0
    2.4160  -12.8390  -37.3060 C   0  0  0  0  0  3  0  0  0  0  0  0
    1.7890  -13.3670  -36.2540 N   0  0  0  0  0  0  0  0  0  0  0  0
    1.0970  -14.5250  -36.3280 C   0  0  0  0  0  3  0  0  0  0  0  0
  1  2  1  0  0  0  0
  2  6  2  0  0  0  0
  3  2  1  0  0  0  0
  3  4  1  0  0  0  0
  4 16  1  0  0  0  0
  4  5  2  0  0  0  0
  6  5  1  0  0  0  0
  7  3  1  0  0  0  0
  8  1  1  0  0  0  0
  8  7  2  0  0  0  0
  9  8  1  0  0  0  0
  9 10  2  0  0  0  0
 11 13  1  0  0  0  0
 11 10  1  0  0  0  0
 12 11  1  0  0  0  0
 14 12  2  0  0  0  0
 14  9  1  0  0  0  0
 15 14  1  0  0  0  0
 16 21  1  0  0  0  0
 17 18  1  0  0  0  0
 17 16  2  0  0  0  0
 18 19  2  0  0  0  0
 19 20  1  0  0  0  0
 21 20  2  0  0  0  0
M  END
>  <Pose>
1

>  <Score>
-5.236

$$$$
