/Users/jonathanwahrer/Desktop/Msc/3_Semester/Drug_Design_Praktikum/waehrer_HTS_screening/HTS_experiment/out/docking_results/vina_output/6y4q/1255_docked.pdbqt
 OpenBabel03232218153D

 34 38  0  0  1  0  0  0  0  0999 V2000
    0.8000  -16.7570  -39.0520 C   0  0  1  0  0  3  0  0  0  0  0  0
    0.2090  -17.5850  -37.9460 C   0  0  2  0  0  3  0  0  0  0  0  0
    0.8480  -17.1470  -36.6290 C   0  0  0  0  0  0  0  0  0  0  0  0
    2.2640  -17.4060  -36.4910 N   0  0  0  0  0  0  0  0  0  0  0  0
    0.1310  -16.6120  -35.7850 O   0  0  0  0  0  0  0  0  0  0  0  0
    2.7930  -18.4130  -37.1060 C   0  0  0  0  0  0  0  0  0  0  0  0
    4.4770  -19.0040  -37.1520 S   0  0  0  0  0  0  0  0  0  0  0  0
    2.0520  -19.3020  -37.9140 N   0  0  0  0  0  0  0  0  0  0  0  0
    4.1410  -20.3920  -38.2260 C   0  0  0  0  0  0  0  0  0  0  0  0
    2.7560  -20.3250  -38.4900 N   0  0  0  0  0  0  0  0  0  0  0  0
    5.0320  -21.2780  -38.6630 C   0  0  0  0  0  2  0  0  0  0  0  0
    2.3110  -21.0800  -39.1220 H   0  0  0  0  0  0  0  0  0  0  0  0
    0.6260  -19.0200  -38.0200 C   0  0  0  0  0  0  0  0  0  0  0  0
   -0.1920  -19.9730  -38.1640 O   0  0  0  0  0  0  0  0  0  0  0  0
    0.2280  -16.9170  -40.4040 C   0  0  2  0  0  3  0  0  0  0  0  0
   -0.1270  -18.2590  -40.8410 C   0  0  0  0  0  0  0  0  0  0  0  0
   -1.3490  -18.6320  -40.8290 O   0  0  0  0  0  0  0  0  0  0  0  0
    0.8770  -19.2000  -41.2990 N   0  0  0  0  0  0  0  0  0  0  0  0
    0.8080  -20.5560  -41.3150 N   0  0  0  0  0  0  0  0  0  0  0  0
    2.0620  -18.6150  -41.7910 C   0  0  0  0  0  0  0  0  0  0  0  0
    1.9280  -21.2600  -41.8240 C   0  0  0  0  0  0  0  0  0  0  0  0
   -0.0330  -21.1380  -40.9730 H   0  0  0  0  0  0  0  0  0  0  0  0
    2.1170  -22.5550  -41.9550 C   0  0  0  0  0  2  0  0  0  0  0  0
    3.0990  -19.9820  -42.2760 S   0  0  0  0  0  0  0  0  0  0  0  0
    2.2690  -17.3480  -41.8440 N   0  0  0  0  0  0  0  0  0  0  0  0
    1.2720  -16.4190  -41.3880 C   0  0  0  0  0  0  0  0  0  0  0  0
    1.2040  -15.2330  -41.7420 O   0  0  0  0  0  0  0  0  0  0  0  0
    0.8480  -15.3130  -38.6840 C   0  0  0  0  0  0  0  0  0  0  0  0
    2.0450  -14.6750  -38.4520 C   0  0  0  0  0  3  0  0  0  0  0  0
    2.0950  -13.3430  -38.1120 C   0  0  0  0  0  3  0  0  0  0  0  0
    0.9250  -12.6270  -37.9990 C   0  0  0  0  0  0  0  0  0  0  0  0
   -0.3110  -13.2360  -38.2250 C   0  0  0  0  0  3  0  0  0  0  0  0
    0.9620  -10.7740  -37.5280 Br  0  0  0  0  0  0  0  0  0  0  0  0
   -0.3190  -14.5730  -38.5650 C   0  0  0  0  0  3  0  0  0  0  0  0
  1 28  1  1  0  0  0
  2  1  1  6  0  0  0
  2  3  1  0  0  0  0
  3  4  1  0  0  0  0
  3  5  2  0  0  0  0
  6  4  2  0  0  0  0
  7  6  1  0  0  0  0
  8  6  1  0  0  0  0
  9  7  1  0  0  0  0
 10  9  1  0  0  0  0
 10  8  1  0  0  0  0
 11  9  2  0  0  0  0
 12 10  1  0  0  0  0
 13  2  1  0  0  0  0
 13  8  1  0  0  0  0
 14 13  2  0  0  0  0
 15  1  1  1  0  0  0
 16 17  2  0  0  0  0
 16 15  1  0  0  0  0
 18 16  1  0  0  0  0
 19 18  1  0  0  0  0
 19 22  1  0  0  0  0
 20 18  1  0  0  0  0
 21 19  1  0  0  0  0
 23 21  2  0  0  0  0
 24 21  1  0  0  0  0
 24 20  1  0  0  0  0
 25 20  2  0  0  0  0
 25 26  1  0  0  0  0
 26 15  1  0  0  0  0
 27 26  2  0  0  0  0
 28 34  2  0  0  0  0
 28 29  1  0  0  0  0
 29 30  2  0  0  0  0
 30 31  1  0  0  0  0
 31 33  1  0  0  0  0
 32 31  2  0  0  0  0
 34 32  1  0  0  0  0
M  END
>  <Pose>
1

>  <Score>
-5.749

$$$$
