/Users/jonathanwahrer/Desktop/Msc/3_Semester/Drug_Design_Praktikum/waehrer_HTS_screening/HTS_experiment/out/docking_results/vina_output/6y4q/1265_docked.pdbqt
 OpenBabel03232218153D

 24 27  0  0  1  0  0  0  0  0999 V2000
    1.6510  -17.4260  -40.1980 S   0  0  0  0  0  0  0  0  0  0  0  0
    1.6910  -17.2220  -38.4220 C   0  0  1  0  0  3  0  0  0  0  0  0
    1.1040  -16.6060  -37.4490 N   0  0  0  0  0  0  0  0  0  0  0  0
    1.6890  -16.9230  -36.2000 C   0  0  0  0  0  3  0  0  0  0  0  0
    2.7860  -17.8810  -36.5300 C   0  0  0  0  0  3  0  0  0  0  0  0
    2.7460  -18.0520  -38.0020 N   0  0  0  0  0  0  0  0  0  0  0  0
    3.4210  -18.7560  -39.0060 C   0  0  0  0  0  0  0  0  0  0  0  0
    3.0150  -18.5800  -40.2430 C   0  0  0  0  0  3  0  0  0  0  0  0
   -0.0390  -15.7060  -37.6890 C   0  0  0  0  0  2  0  0  0  0  0  0
    0.2780  -14.4240  -37.0290 C   0  0  0  0  0  0  0  0  0  0  0  0
   -0.3600  -14.0310  -36.0310 O   0  0  0  0  0  0  0  0  0  0  0  0
    1.3530  -13.5860  -37.5410 C   0  0  0  0  0  0  0  0  0  0  0  0
    1.6500  -13.5510  -38.9050 C   0  0  0  0  0  3  0  0  0  0  0  0
    2.6700  -12.7710  -39.4170 C   0  0  0  0  0  3  0  0  0  0  0  0
    3.3960  -12.0170  -38.5340 C   0  0  0  0  0  0  0  0  0  0  0  0
    3.1410  -12.0150  -37.1750 C   0  0  0  0  0  3  0  0  0  0  0  0
    4.8090  -10.9370  -39.2550 Br  0  0  0  0  0  0  0  0  0  0  0  0
    2.1050  -12.8120  -36.6830 C   0  0  0  0  0  3  0  0  0  0  0  0
    4.5600  -19.7010  -38.7600 C   0  0  0  0  0  0  0  0  0  0  0  0
    5.7470  -19.2690  -38.2140 C   0  0  0  0  0  3  0  0  0  0  0  0
    6.8250  -20.0930  -37.9710 C   0  0  0  0  0  3  0  0  0  0  0  0
    6.7510  -21.4320  -38.2790 C   0  0  0  0  0  3  0  0  0  0  0  0
    5.5830  -21.8850  -38.8240 C   0  0  0  0  0  3  0  0  0  0  0  0
    4.4880  -21.0350  -39.0680 C   0  0  0  0  0  3  0  0  0  0  0  0
  2  1  1  1  0  0  0
  2  6  1  0  0  0  0
  2  3  1  0  0  0  0
  3  4  1  0  0  0  0
  5  4  2  0  0  0  0
  6  5  1  0  0  0  0
  7 19  1  0  0  0  0
  7  6  1  0  0  0  0
  8  1  1  0  0  0  0
  8  7  2  0  0  0  0
  9  3  1  0  0  0  0
  9 10  1  0  0  0  0
 10 11  2  0  0  0  0
 12 10  1  0  0  0  0
 12 18  1  0  0  0  0
 13 12  2  0  0  0  0
 14 13  1  0  0  0  0
 14 15  2  0  0  0  0
 15 16  1  0  0  0  0
 16 18  2  0  0  0  0
 17 15  1  0  0  0  0
 19 20  1  0  0  0  0
 20 21  2  0  0  0  0
 22 21  1  0  0  0  0
 23 22  2  0  0  0  0
 24 23  1  0  0  0  0
 24 19  2  0  0  0  0
M  END
>  <Pose>
1

>  <Score>
-6.521

$$$$
