/Users/jonathanwahrer/Desktop/Msc/3_Semester/Drug_Design_Praktikum/waehrer_HTS_screening/HTS_experiment/out/docking_results/vina_output/6y4q/1266_docked.pdbqt
 OpenBabel03232218153D

 28 31  0  0  1  0  0  0  0  0999 V2000
   -2.0260  -16.2170  -37.5520 C   0  0  2  0  0  3  0  0  0  0  0  0
   -2.3630  -16.9950  -36.3660 N   0  0  0  0  0  0  0  0  0  0  0  0
   -2.1040  -18.3570  -36.3500 C   0  0  0  0  0  2  0  0  0  0  0  0
   -1.0060  -18.9160  -37.2300 C   0  0  0  0  0  2  0  0  0  0  0  0
   -0.7630  -18.1550  -38.3770 N   0  0  0  0  0  0  0  0  0  0  0  0
   -1.6470  -17.0690  -38.6750 C   0  0  0  0  0  2  0  0  0  0  0  0
    0.2940  -18.3460  -39.3030 C   0  0  0  0  0  0  0  0  0  0  0  0
    0.1680  -17.5730  -40.3560 O   0  0  0  0  0  0  0  0  0  0  0  0
   -2.0460  -16.5010  -35.5070 H   0  0  0  0  0  0  0  0  0  0  0  0
    1.4400  -19.1820  -39.3150 C   0  0  0  0  0  0  0  0  0  0  0  0
    1.4930  -20.1940  -40.3040 C   0  0  0  0  0  3  0  0  0  0  0  0
    2.5860  -20.9370  -40.4730 N   0  0  0  0  0  0  0  0  0  0  0  0
    3.6770  -20.7650  -39.7240 C   0  0  0  0  0  0  0  0  0  0  0  0
    3.6860  -19.8010  -38.7530 C   0  0  0  0  0  0  0  0  0  0  0  0
    4.8150  -21.5570  -39.9150 O   0  0  0  0  0  0  0  0  0  0  0  0
    2.5630  -19.0040  -38.5430 C   0  0  0  0  0  3  0  0  0  0  0  0
    4.8620  -19.5840  -37.9670 N   0  0  0  0  0  0  0  0  0  0  0  0
    6.0120  -20.3910  -38.2240 C   0  0  0  0  0  0  0  0  0  0  0  0
    4.8990  -18.8610  -37.2330 H   0  0  0  0  0  0  0  0  0  0  0  0
    7.1830  -20.0560  -37.9530 O   0  0  0  0  0  0  0  0  0  0  0  0
    5.7780  -21.7230  -38.8620 C   0  0  0  0  0  2  0  0  0  0  0  0
   -0.9380  -15.2830  -37.0920 C   0  0  0  0  0  0  0  0  0  0  0  0
   -1.3130  -13.9840  -36.7150 C   0  0  0  0  0  0  0  0  0  0  0  0
   -3.0090  -13.5240  -36.9720 Cl  0  0  0  0  0  0  0  0  0  0  0  0
   -0.4330  -13.0740  -36.1700 C   0  0  0  0  0  3  0  0  0  0  0  0
    0.8930  -13.4470  -35.9780 C   0  0  0  0  0  3  0  0  0  0  0  0
    1.2600  -14.7290  -36.3490 C   0  0  0  0  0  3  0  0  0  0  0  0
    0.3660  -15.6330  -36.8960 C   0  0  0  0  0  3  0  0  0  0  0  0
  1 22  1  1  0  0  0
  1  2  1  0  0  0  0
  2  3  1  0  0  0  0
  2  9  1  0  0  0  0
  4  3  1  0  0  0  0
  5  4  1  0  0  0  0
  6  5  1  0  0  0  0
  6  1  1  0  0  0  0
  7  5  1  0  0  0  0
  8  7  2  0  0  0  0
 10  7  1  0  0  0  0
 10 16  1  0  0  0  0
 11 10  2  0  0  0  0
 12 11  1  0  0  0  0
 12 13  2  0  0  0  0
 13 14  1  0  0  0  0
 14 16  2  0  0  0  0
 14 17  1  0  0  0  0
 15 13  1  0  0  0  0
 15 21  1  0  0  0  0
 17 19  1  0  0  0  0
 18 17  1  0  0  0  0
 18 20  2  0  0  0  0
 21 18  1  0  0  0  0
 22 28  2  0  0  0  0
 22 23  1  0  0  0  0
 23 25  2  0  0  0  0
 24 23  1  0  0  0  0
 25 26  1  0  0  0  0
 27 26  2  0  0  0  0
 28 27  1  0  0  0  0
M  END
>  <Pose>
1

>  <Score>
-6.385

$$$$
