/Users/jonathanwahrer/Desktop/Msc/3_Semester/Drug_Design_Praktikum/waehrer_HTS_screening/HTS_experiment/out/docking_results/vina_output/6y4q/1280_docked.pdbqt
 OpenBabel03232218163D

 35 38  0  0  1  0  0  0  0  0999 V2000
    0.0800  -14.2160  -37.6720 C   0  0  1  0  0  3  0  0  0  0  0  0
   -0.7000  -14.1620  -38.8920 N   0  0  0  0  0  0  0  0  0  0  0  0
    0.1220  -14.6660  -39.9300 C   0  0  0  0  0  0  0  0  0  0  0  0
    0.0200  -14.3810  -41.1280 O   0  0  0  0  0  0  0  0  0  0  0  0
    1.0920  -15.5730  -39.2910 C   0  0  0  0  0  0  0  0  0  0  0  0
    2.0000  -16.2390  -39.8460 O   0  0  0  0  0  0  0  0  0  0  0  0
    0.7680  -15.5360  -37.8710 C   0  0  0  0  0  0  0  0  0  0  0  0
    1.0150  -16.5030  -36.9990 C   0  0  0  0  0  0  0  0  0  0  0  0
    0.5660  -16.2620  -35.6800 O   0  0  0  0  0  1  0  0  0  0  0  0
    1.0030  -13.0740  -37.6030 C   0  0  0  0  0  0  0  0  0  0  0  0
    0.5520  -11.7940  -37.8880 C   0  0  0  0  0  3  0  0  0  0  0  0
    1.4020  -10.6850  -37.8080 C   0  0  0  0  0  0  0  0  0  0  0  0
    0.7420   -8.9260  -38.2110 Br  0  0  0  0  0  0  0  0  0  0  0  0
    2.7130  -10.8470  -37.4420 C   0  0  0  0  0  3  0  0  0  0  0  0
    3.1750  -12.1090  -37.1550 C   0  0  0  0  0  3  0  0  0  0  0  0
    2.3170  -13.1980  -37.2400 C   0  0  0  0  0  3  0  0  0  0  0  0
    1.7010  -17.7470  -37.3320 C   0  0  0  0  0  0  0  0  0  0  0  0
    1.1000  -18.8350  -37.8910 C   0  0  0  0  0  0  0  0  0  0  0  0
    1.8270  -20.0140  -38.1340 C   0  0  0  0  0  3  0  0  0  0  0  0
   -0.3230  -18.7780  -38.3000 C   0  0  0  0  0  1  0  0  0  0  0  0
    3.1560  -20.1350  -37.8290 C   0  0  0  0  0  0  0  0  0  0  0  0
    3.7670  -19.0360  -37.2650 C   0  0  0  0  0  3  0  0  0  0  0  0
    3.0680  -17.8820  -37.0240 C   0  0  0  0  0  3  0  0  0  0  0  0
    3.8820  -21.3020  -38.0690 O   0  0  0  0  0  0  0  0  0  0  0  0
    5.1440  -21.2460  -38.6830 C   0  0  0  0  0  1  0  0  0  0  0  0
   -2.0590  -13.6680  -38.9720 C   0  0  0  0  0  2  0  0  0  0  0  0
   -2.7650  -13.6360  -37.6530 C   0  0  0  0  0  2  0  0  0  0  0  0
   -3.3290  -12.3260  -37.2510 C   0  0  0  0  0  2  0  0  0  0  0  0
   -2.8420  -11.7960  -36.0280 N   0  0  0  0  0  4  0  0  0  0  0  0
   -2.3590  -10.4100  -36.1360 C   0  0  0  0  0  2  0  0  0  0  0  0
   -1.3940  -10.2280  -34.9620 C   0  0  0  0  0  2  0  0  0  0  0  0
   -1.4890  -11.2610  -34.0470 O   0  0  0  0  0  0  0  0  0  0  0  0
   -2.8150  -11.4800  -33.6760 C   0  0  0  0  0  2  0  0  0  0  0  0
   -3.6870  -11.8470  -34.8900 C   0  0  0  0  0  2  0  0  0  0  0  0
   -1.9690  -12.3540  -35.7790 H   0  0  0  0  0  0  0  0  0  0  0  0
  1 10  1  6  0  0  0
  2  1  1  0  0  0  0
  3  5  1  0  0  0  0
  3  2  1  0  0  0  0
  4  3  2  0  0  0  0
  5  7  1  0  0  0  0
  6  5  2  0  0  0  0
  7  1  1  0  0  0  0
  7  8  2  0  0  0  0
  8  9  1  0  0  0  0
 10 16  1  0  0  0  0
 11 12  1  0  0  0  0
 11 10  2  0  0  0  0
 12 14  2  0  0  0  0
 13 12  1  0  0  0  0
 14 15  1  0  0  0  0
 16 15  2  0  0  0  0
 17 23  1  0  0  0  0
 17  8  1  0  0  0  0
 18 17  2  0  0  0  0
 19 18  1  0  0  0  0
 19 21  2  0  0  0  0
 20 18  1  0  0  0  0
 21 22  1  0  0  0  0
 22 23  2  0  0  0  0
 24 21  1  0  0  0  0
 25 24  1  0  0  0  0
 26  2  1  0  0  0  0
 26 27  1  0  0  0  0
 27 28  1  0  0  0  0
 28 29  1  0  0  0  0
 29 35  1  0  0  0  0
 29 34  1  0  0  0  0
 30 29  1  0  0  0  0
 30 31  1  0  0  0  0
 31 32  1  0  0  0  0
 32 33  1  0  0  0  0
 34 33  1  0  0  0  0
M  END
>  <Pose>
1

>  <Score>
-6.444

$$$$
