/Users/jonathanwahrer/Desktop/Msc/3_Semester/Drug_Design_Praktikum/waehrer_HTS_screening/HTS_experiment/out/docking_results/vina_output/6y4q/1284_docked.pdbqt
 OpenBabel03232218173D

 35 38  0  0  1  0  0  0  0  0999 V2000
    2.5150  -20.2100  -38.9690 C   0  0  1  0  0  3  0  0  0  0  0  0
    3.7810  -20.3860  -38.3610 N   0  0  0  0  0  0  0  0  0  0  0  0
    3.9870  -19.3760  -37.3870 C   0  0  0  0  0  0  0  0  0  0  0  0
    5.0630  -19.2040  -36.7330 O   0  0  0  0  0  0  0  0  0  0  0  0
    2.7740  -18.5970  -37.2670 C   0  0  0  0  0  0  0  0  0  0  0  0
    2.6870  -17.6260  -36.4680 O   0  0  0  0  0  0  0  0  0  0  0  0
    1.8110  -19.1520  -38.1980 C   0  0  0  0  0  0  0  0  0  0  0  0
    0.5750  -18.7270  -38.3350 C   0  0  0  0  0  0  0  0  0  0  0  0
   -0.2240  -19.2920  -39.3020 O   0  0  0  0  0  1  0  0  0  0  0  0
    2.6570  -19.8580  -40.3860 C   0  0  0  0  0  0  0  0  0  0  0  0
    2.2190  -20.7650  -41.3360 C   0  0  0  0  0  3  0  0  0  0  0  0
    2.2620  -20.5830  -42.6840 C   0  0  0  0  0  0  0  0  0  0  0  0
    1.6410  -21.8690  -43.9510 Br  0  0  0  0  0  0  0  0  0  0  0  0
    2.8000  -19.3670  -43.1370 C   0  0  0  0  0  3  0  0  0  0  0  0
    3.2480  -18.4400  -42.2120 C   0  0  0  0  0  3  0  0  0  0  0  0
    3.1880  -18.6570  -40.8490 C   0  0  0  0  0  3  0  0  0  0  0  0
    0.0430  -17.6890  -37.4880 C   0  0  0  0  0  0  0  0  0  0  0  0
    0.1800  -16.3150  -37.7510 C   0  0  0  0  0  0  0  0  0  0  0  0
   -0.4560  -15.6220  -36.7980 N   0  0  0  0  0  0  0  0  0  0  0  0
    0.9230  -15.7630  -38.9200 C   0  0  0  0  0  1  0  0  0  0  0  0
   -0.9770  -16.5010  -35.9620 N   0  0  0  0  0  0  0  0  0  0  0  0
   -0.7010  -17.7570  -36.3430 C   0  0  0  0  0  3  0  0  0  0  0  0
   -0.5730  -14.2100  -36.6950 C   0  0  0  0  0  0  0  0  0  0  0  0
    0.4500  -13.4970  -36.0840 C   0  0  0  0  0  3  0  0  0  0  0  0
    0.4070  -12.1230  -35.9590 C   0  0  0  0  0  3  0  0  0  0  0  0
   -0.6760  -11.3910  -36.4450 C   0  0  0  0  0  3  0  0  0  0  0  0
   -1.6960  -12.1010  -37.0540 C   0  0  0  0  0  3  0  0  0  0  0  0
   -1.6300  -13.4650  -37.1660 C   0  0  0  0  0  3  0  0  0  0  0  0
    4.7680  -21.4650  -38.6460 C   0  0  0  0  0  2  0  0  0  0  0  0
    5.7770  -20.9740  -39.6510 C   0  0  0  0  0  2  0  0  0  0  0  0
    5.8400  -21.8080  -40.8910 C   0  0  0  0  0  2  0  0  0  0  0  0
    5.7470  -21.1070  -42.1290 N   0  0  0  0  0  4  0  0  0  0  0  0
    6.6890  -20.0580  -42.3360 C   0  0  0  0  0  1  0  0  0  0  0  0
    5.8740  -22.0480  -43.2540 C   0  0  0  0  0  1  0  0  0  0  0  0
    4.7670  -20.7050  -42.2360 H   0  0  0  0  0  0  0  0  0  0  0  0
  1 10  1  6  0  0  0
  1  2  1  0  0  0  0
  1  7  1  0  0  0  0
  2  3  1  0  0  0  0
  3  5  1  0  0  0  0
  3  4  2  0  0  0  0
  5  6  2  0  0  0  0
  7  5  1  0  0  0  0
  8  7  2  0  0  0  0
  8 17  1  0  0  0  0
  9  8  1  0  0  0  0
 11 10  2  0  0  0  0
 12 11  1  0  0  0  0
 13 12  1  0  0  0  0
 14 12  2  0  0  0  0
 14 15  1  0  0  0  0
 15 16  2  0  0  0  0
 16 10  1  0  0  0  0
 17 22  1  0  0  0  0
 18 17  2  0  0  0  0
 18 19  1  0  0  0  0
 19 23  1  0  0  0  0
 19 21  1  0  0  0  0
 20 18  1  0  0  0  0
 22 21  2  0  0  0  0
 23 24  1  0  0  0  0
 24 25  2  0  0  0  0
 26 25  1  0  0  0  0
 27 26  2  0  0  0  0
 28 27  1  0  0  0  0
 28 23  2  0  0  0  0
 29  2  1  0  0  0  0
 30 29  1  0  0  0  0
 31 30  1  0  0  0  0
 32 31  1  0  0  0  0
 33 32  1  0  0  0  0
 34 32  1  0  0  0  0
 35 32  1  0  0  0  0
M  END
>  <Pose>
1

>  <Score>
-5.798

$$$$
