/Users/jonathanwahrer/Desktop/Msc/3_Semester/Drug_Design_Praktikum/waehrer_HTS_screening/HTS_experiment/out/docking_results/vina_output/6y4q/1285_docked.pdbqt
 OpenBabel03232218173D

 34 37  0  0  1  0  0  0  0  0999 V2000
    1.7460  -19.1330  -39.2280 C   0  0  1  0  0  3  0  0  0  0  0  0
    2.4540  -18.7840  -38.0120 N   0  0  0  0  0  0  0  0  0  0  0  0
    3.2320  -19.9320  -37.6070 C   0  0  0  0  0  0  0  0  0  0  0  0
    3.6360  -20.2120  -36.4720 O   0  0  0  0  0  0  0  0  0  0  0  0
    3.4370  -20.6910  -38.8370 C   0  0  0  0  0  0  0  0  0  0  0  0
    4.0600  -21.7830  -38.9950 O   0  0  0  0  0  0  0  0  0  0  0  0
    2.7850  -19.9770  -39.9220 C   0  0  0  0  0  0  0  0  0  0  0  0
    3.0060  -20.0730  -41.2230 C   0  0  0  0  0  0  0  0  0  0  0  0
    2.1790  -19.3030  -42.0900 O   0  0  0  0  0  1  0  0  0  0  0  0
    0.5120  -19.9020  -39.0210 C   0  0  0  0  0  0  0  0  0  0  0  0
    0.0620  -20.7080  -40.0710 C   0  0  0  0  0  3  0  0  0  0  0  0
   -1.0720  -21.4460  -39.9420 C   0  0  0  0  0  0  0  0  0  0  0  0
   -1.6690  -22.5410  -41.3890 Br  0  0  0  0  0  0  0  0  0  0  0  0
   -1.8040  -21.4200  -38.7790 C   0  0  0  0  0  3  0  0  0  0  0  0
   -1.3880  -20.6380  -37.7270 C   0  0  0  0  0  3  0  0  0  0  0  0
   -0.2290  -19.8840  -37.8590 C   0  0  0  0  0  3  0  0  0  0  0  0
    4.0490  -20.9130  -41.7570 C   0  0  0  0  0  0  0  0  0  0  0  0
    3.9690  -22.2020  -42.1500 N   0  0  0  0  0  0  0  0  0  0  0  0
    5.1820  -22.5840  -42.6190 C   0  0  0  0  0  0  0  0  0  0  0  0
    2.9890  -23.1220  -42.1490 C   0  0  0  0  0  3  0  0  0  0  0  0
    6.0490  -21.5370  -42.5290 N   0  0  0  0  0  0  0  0  0  0  0  0
    5.4740  -23.8360  -43.0930 C   0  0  0  0  0  0  0  0  0  0  0  0
    5.3390  -20.5150  -41.9960 C   0  0  0  0  0  0  0  0  0  0  0  0
    5.9030  -19.1640  -41.7200 C   0  0  0  0  0  1  0  0  0  0  0  0
    4.4630  -24.7720  -43.0890 C   0  0  0  0  0  3  0  0  0  0  0  0
    6.8280  -24.2010  -43.6000 C   0  0  0  0  0  1  0  0  0  0  0  0
    3.2270  -24.3890  -42.6100 C   0  0  0  0  0  3  0  0  0  0  0  0
    2.3980  -17.5150  -37.3060 C   0  0  0  0  0  2  0  0  0  0  0  0
    1.4260  -16.5400  -37.8750 C   0  0  0  0  0  2  0  0  0  0  0  0
    1.6940  -15.0990  -37.5200 C   0  0  0  0  0  2  0  0  0  0  0  0
    1.1160  -14.7980  -36.2320 N   0  0  0  0  0  4  0  0  0  0  0  0
    1.0970  -13.3640  -36.0050 C   0  0  0  0  0  1  0  0  0  0  0  0
   -0.2670  -15.2330  -36.2380 C   0  0  0  0  0  1  0  0  0  0  0  0
    1.5800  -15.3130  -35.4530 H   0  0  0  0  0  0  0  0  0  0  0  0
  1 10  1  1  0  0  0
  1  2  1  0  0  0  0
  2  3  1  0  0  0  0
  2 28  1  0  0  0  0
  3  4  2  0  0  0  0
  5  3  1  0  0  0  0
  6  5  2  0  0  0  0
  7  1  1  0  0  0  0
  7  5  1  0  0  0  0
  8  7  2  0  0  0  0
  9  8  1  0  0  0  0
 10 16  1  0  0  0  0
 11 12  1  0  0  0  0
 11 10  2  0  0  0  0
 12 14  2  0  0  0  0
 13 12  1  0  0  0  0
 14 15  1  0  0  0  0
 16 15  2  0  0  0  0
 17  8  1  0  0  0  0
 18 20  1  0  0  0  0
 18 17  1  0  0  0  0
 19 21  2  0  0  0  0
 19 18  1  0  0  0  0
 21 23  1  0  0  0  0
 22 25  2  0  0  0  0
 22 19  1  0  0  0  0
 23 17  2  0  0  0  0
 23 24  1  0  0  0  0
 25 27  1  0  0  0  0
 26 22  1  0  0  0  0
 27 20  2  0  0  0  0
 29 30  1  0  0  0  0
 29 28  1  0  0  0  0
 30 31  1  0  0  0  0
 31 32  1  0  0  0  0
 31 34  1  0  0  0  0
 33 31  1  0  0  0  0
M  END
>  <Pose>
1

>  <Score>
-6.326

$$$$
