/Users/jonathanwahrer/Desktop/Msc/3_Semester/Drug_Design_Praktikum/waehrer_HTS_screening/HTS_experiment/out/docking_results/vina_output/6y4q/1295_docked.pdbqt
 OpenBabel03232218173D

 26 29  0  0  1  0  0  0  0  0999 V2000
    1.3830  -18.8910  -37.7900 C   0  0  0  0  0  0  0  0  0  0  0  0
    0.4260  -19.3540  -38.7700 C   0  0  0  0  0  0  0  0  0  0  0  0
    0.8030  -20.1770  -39.7940 C   0  0  1  0  0  3  0  0  0  0  0  0
    2.1500  -20.6430  -39.9410 N   0  0  0  0  0  0  0  0  0  0  0  0
    3.0720  -20.1980  -38.9540 C   0  0  0  0  0  0  0  0  0  0  0  0
    2.7370  -19.4160  -37.9660 C   0  0  0  0  0  0  0  0  0  0  0  0
    3.9400  -19.1830  -37.1100 C   0  0  0  0  0  0  0  0  0  0  0  0
    3.9160  -18.4580  -36.0700 O   0  0  0  0  0  0  0  0  0  0  0  0
    4.9500  -19.8820  -37.6860 O   0  0  0  0  0  0  0  0  0  0  0  0
    4.5520  -20.5200  -38.8510 C   0  0  0  0  0  2  0  0  0  0  0  0
   -0.1330  -20.5860  -40.7100 N   0  0  0  0  0  0  0  0  0  0  0  0
   -1.4060  -20.1870  -40.6080 C   0  0  0  0  0  0  0  0  0  0  0  0
   -2.2510  -20.5750  -41.4630 O   0  0  0  0  0  0  0  0  0  0  0  0
   -1.7660  -19.3780  -39.5980 N   0  0  0  0  0  0  0  0  0  0  0  0
   -0.9210  -18.9370  -38.6690 C   0  0  0  0  0  0  0  0  0  0  0  0
   -1.2490  -18.1820  -37.7200 O   0  0  0  0  0  0  0  0  0  0  0  0
   -3.1700  -18.9680  -39.5270 C   0  0  0  0  0  1  0  0  0  0  0  0
    0.3310  -21.4600  -41.7770 C   0  0  0  0  0  1  0  0  0  0  0  0
    2.3940  -21.2650  -40.7330 H   0  0  0  0  0  0  0  0  0  0  0  0
    1.3590  -17.4590  -37.5050 C   0  0  0  0  0  0  0  0  0  0  0  0
    1.0010  -16.9630  -36.2880 C   0  0  0  0  0  3  0  0  0  0  0  0
    0.9820  -15.5780  -36.0450 C   0  0  0  0  0  3  0  0  0  0  0  0
    1.3290  -14.7120  -37.0490 C   0  0  0  0  0  0  0  0  0  0  0  0
    1.3180  -12.8100  -36.7650 Br  0  0  0  0  0  0  0  0  0  0  0  0
    1.6890  -15.1960  -38.2730 C   0  0  0  0  0  3  0  0  0  0  0  0
    1.7040  -16.5830  -38.5040 C   0  0  0  0  0  3  0  0  0  0  0  0
  1 20  1  0  0  0  0
  2 15  1  0  0  0  0
  2  1  2  0  0  0  0
  3  2  1  1  0  0  0
  4  3  1  0  0  0  0
  4  5  1  0  0  0  0
  5 10  1  0  0  0  0
  5  6  2  0  0  0  0
  6  1  1  0  0  0  0
  6  7  1  0  0  0  0
  7  8  2  0  0  0  0
  9  7  1  0  0  0  0
 10  9  1  0  0  0  0
 11 12  1  0  0  0  0
 11  3  1  0  0  0  0
 12 14  1  0  0  0  0
 13 12  2  0  0  0  0
 14 17  1  0  0  0  0
 14 15  1  0  0  0  0
 15 16  2  0  0  0  0
 18 11  1  0  0  0  0
 19  4  1  0  0  0  0
 20 21  1  0  0  0  0
 21 22  2  0  0  0  0
 23 24  1  0  0  0  0
 23 22  1  0  0  0  0
 25 23  2  0  0  0  0
 26 25  1  0  0  0  0
 26 20  2  0  0  0  0
M  END
>  <Pose>
1

>  <Score>
-6.191

$$$$
