/Users/jonathanwahrer/Desktop/Msc/3_Semester/Drug_Design_Praktikum/waehrer_HTS_screening/HTS_experiment/out/docking_results/vina_output/6y4q/1300_docked.pdbqt
 OpenBabel03232218183D

 22 25  0  0  1  0  0  0  0  0999 V2000
    2.5160  -18.9110  -38.4040 N   0  0  0  0  0  0  0  0  0  0  0  0
    3.0940  -18.7160  -39.6820 C   0  0  0  0  0  0  0  0  0  0  0  0
    2.5630  -18.1540  -40.6610 O   0  0  0  0  0  0  0  0  0  0  0  0
    4.4600  -19.2810  -39.7220 C   0  0  2  0  0  3  0  0  0  0  0  0
    4.3380  -20.6730  -40.3020 C   0  0  2  0  0  3  0  0  0  0  0  0
    3.7670  -21.3500  -39.1910 O   0  0  0  0  0  0  0  0  0  0  0  0
    4.8360  -21.0970  -38.2910 C   0  0  2  0  0  3  0  0  0  0  0  0
    4.8080  -19.5930  -38.2690 C   0  0  2  0  0  3  0  0  0  0  0  0
    3.6080  -19.1650  -37.5170 C   0  0  0  0  0  0  0  0  0  0  0  0
    3.5460  -19.0400  -36.2510 O   0  0  0  0  0  0  0  0  0  0  0  0
    5.9630  -21.6280  -39.0880 C   0  0  0  0  0  2  0  0  0  0  0  0
    5.6650  -21.3350  -40.3510 C   0  0  0  0  0  2  0  0  0  0  0  0
    1.1610  -18.8810  -37.9840 C   0  0  0  0  0  0  0  0  0  0  0  0
    0.5670  -17.7210  -37.5410 C   0  0  0  0  0  0  0  0  0  0  0  0
    1.6580  -16.1470  -37.5310 Br  0  0  0  0  0  0  0  0  0  0  0  0
   -0.7580  -17.6660  -37.1170 C   0  0  0  0  0  3  0  0  0  0  0  0
   -1.5460  -18.8000  -37.1260 C   0  0  0  0  0  0  0  0  0  0  0  0
   -0.9490  -19.9680  -37.5720 C   0  0  0  0  0  3  0  0  0  0  0  0
    0.3590  -20.0240  -37.9910 C   0  0  0  0  0  3  0  0  0  0  0  0
   -2.9010  -18.7750  -36.6970 N   0  0  0  0  0  0  0  0  0  0  0  0
   -3.1720  -18.1850  -35.6370 O   0  0  0  0  0  0  0  0  0  0  0  0
   -3.9360  -19.3590  -37.3760 O   0  0  0  0  0  0  0  0  0  0  0  0
  1 13  1  0  0  0  0
  1  9  1  0  0  0  0
  2  1  1  0  0  0  0
  3  2  2  0  0  0  0
  4  2  1  1  0  0  0
  4  8  1  0  0  0  0
  5 12  1  1  0  0  0
  5  4  1  0  0  0  0
  5  6  1  0  0  0  0
  6  7  1  0  0  0  0
  7 11  1  6  0  0  0
  7  8  1  0  0  0  0
  8  9  1  1  0  0  0
  9 10  2  0  0  0  0
 12 11  1  0  0  0  0
 13 14  1  0  0  0  0
 14 15  1  0  0  0  0
 14 16  2  0  0  0  0
 17 16  1  0  0  0  0
 17 20  1  0  0  0  0
 18 17  2  0  0  0  0
 19 13  2  0  0  0  0
 19 18  1  0  0  0  0
 20 21  2  0  0  0  0
 22 20  2  0  0  0  0
M  END
>  <Pose>
1

>  <Score>
-6.509

$$$$
