/Users/jonathanwahrer/Desktop/Msc/3_Semester/Drug_Design_Praktikum/waehrer_HTS_screening/HTS_experiment/out/docking_results/vina_output/6y4q/1310_docked.pdbqt
 OpenBabel03232218183D

 32 35  0  0  1  0  0  0  0  0999 V2000
    1.0260  -16.8320  -37.2960 C   0  0  1  0  0  3  0  0  0  0  0  0
   -0.2980  -17.0910  -37.8200 N   0  0  0  0  0  0  0  0  0  0  0  0
   -0.1690  -17.1970  -39.2270 C   0  0  0  0  0  0  0  0  0  0  0  0
   -1.0380  -16.9640  -40.1030 O   0  0  0  0  0  0  0  0  0  0  0  0
    1.2030  -17.6420  -39.4740 C   0  0  0  0  0  0  0  0  0  0  0  0
    1.7740  -17.8700  -40.5640 O   0  0  0  0  0  0  0  0  0  0  0  0
    1.8200  -17.7770  -38.1440 C   0  0  0  0  0  0  0  0  0  0  0  0
    2.8460  -18.5430  -37.8550 C   0  0  0  0  0  0  0  0  0  0  0  0
    3.3210  -18.5010  -36.5380 O   0  0  0  0  0  1  0  0  0  0  0  0
    1.4580  -15.4360  -37.4080 C   0  0  0  0  0  0  0  0  0  0  0  0
    2.0320  -14.8730  -38.5190 C   0  0  0  0  0  3  0  0  0  0  0  0
    2.4200  -13.5330  -38.5740 C   0  0  0  0  0  0  0  0  0  0  0  0
    3.2210  -12.8190  -40.1700 Br  0  0  0  0  0  0  0  0  0  0  0  0
    2.2290  -12.7190  -37.4780 C   0  0  0  0  0  3  0  0  0  0  0  0
    1.6540  -13.2580  -36.3490 C   0  0  0  0  0  3  0  0  0  0  0  0
    1.2770  -14.5800  -36.3080 C   0  0  0  0  0  3  0  0  0  0  0  0
    3.4850  -19.4240  -38.8530 C   0  0  0  0  0  0  0  0  0  0  0  0
    3.0340  -20.5230  -39.3800 O   0  0  0  0  0  0  0  0  0  0  0  0
    3.8860  -21.0340  -40.2400 C   0  0  0  0  0  0  0  0  0  0  0  0
    5.0040  -20.2180  -40.3020 C   0  0  0  0  0  0  0  0  0  0  0  0
    3.8740  -22.1620  -41.0420 C   0  0  0  0  0  3  0  0  0  0  0  0
    4.7290  -19.1970  -39.4120 C   0  0  0  0  0  3  0  0  0  0  0  0
    6.0540  -20.5340  -41.1360 C   0  0  0  0  0  3  0  0  0  0  0  0
    6.0420  -21.6550  -41.9350 C   0  0  0  0  0  3  0  0  0  0  0  0
    4.9380  -22.4770  -41.8850 C   0  0  0  0  0  3  0  0  0  0  0  0
   -1.5700  -17.2550  -37.1200 C   0  0  0  0  0  2  0  0  0  0  0  0
   -1.7340  -18.6860  -36.6450 C   0  0  0  0  0  2  0  0  0  0  0  0
   -2.3750  -19.5730  -37.6810 C   0  0  0  0  0  2  0  0  0  0  0  0
   -1.6430  -20.7950  -37.7870 N   0  0  0  0  0  4  0  0  0  0  0  0
   -2.3210  -21.8020  -38.5750 C   0  0  0  0  0  1  0  0  0  0  0  0
   -0.3100  -20.6690  -38.2920 C   0  0  0  0  0  1  0  0  0  0  0  0
   -1.5650  -21.1990  -36.8060 H   0  0  0  0  0  0  0  0  0  0  0  0
  1 10  1  6  0  0  0
  2  1  1  0  0  0  0
  2 26  1  0  0  0  0
  3  2  1  0  0  0  0
  4  3  2  0  0  0  0
  5  3  1  0  0  0  0
  5  7  1  0  0  0  0
  6  5  2  0  0  0  0
  7  8  2  0  0  0  0
  7  1  1  0  0  0  0
  8  9  1  0  0  0  0
 10 16  1  0  0  0  0
 11 10  2  0  0  0  0
 12 11  1  0  0  0  0
 12 14  2  0  0  0  0
 13 12  1  0  0  0  0
 14 15  1  0  0  0  0
 15 16  2  0  0  0  0
 17  8  1  0  0  0  0
 18 17  1  0  0  0  0
 19 18  1  0  0  0  0
 20 19  1  0  0  0  0
 20 22  1  0  0  0  0
 21 19  2  0  0  0  0
 22 17  2  0  0  0  0
 23 20  2  0  0  0  0
 24 25  2  0  0  0  0
 24 23  1  0  0  0  0
 25 21  1  0  0  0  0
 26 27  1  0  0  0  0
 28 27  1  0  0  0  0
 29 28  1  0  0  0  0
 29 32  1  0  0  0  0
 30 29  1  0  0  0  0
 31 29  1  0  0  0  0
M  END
>  <Pose>
1

>  <Score>
-6.803

$$$$
