/Users/jonathanwahrer/Desktop/Msc/3_Semester/Drug_Design_Praktikum/waehrer_HTS_screening/HTS_experiment/out/docking_results/vina_output/6y4q/1315_docked.pdbqt
 OpenBabel03232218193D

 30 33  0  0  1  0  0  0  0  0999 V2000
    0.4580  -15.7240  -38.7110 N   0  0  0  0  0  0  0  0  0  0  0  0
   -0.2490  -16.6050  -37.9310 C   0  0  0  0  0  0  0  0  0  0  0  0
    0.0780  -17.8560  -38.3670 C   0  0  0  0  0  0  0  0  0  0  0  0
   -0.5030  -18.9700  -37.7530 C   0  0  0  0  0  3  0  0  0  0  0  0
   -1.3950  -18.7870  -36.7180 C   0  0  0  0  0  3  0  0  0  0  0  0
   -1.7260  -17.5250  -36.2750 C   0  0  0  0  0  3  0  0  0  0  0  0
   -1.1390  -16.4190  -36.8950 C   0  0  0  0  0  3  0  0  0  0  0  0
    0.9620  -17.7220  -39.3800 N   0  0  0  0  0  0  0  0  0  0  0  0
    1.2060  -16.4290  -39.6010 C   0  0  2  0  0  3  0  0  0  0  0  0
    0.4420  -14.2880  -38.5330 C   0  0  0  0  0  2  0  0  0  0  0  0
    1.5660  -13.7730  -37.7400 C   0  0  1  0  0  3  0  0  0  0  0  0
    1.6400  -14.2140  -36.5040 O   0  0  0  0  0  1  0  0  0  0  0  0
    2.6190  -12.8550  -38.0890 C   0  0  0  0  0  0  0  0  0  0  0  0
    3.1590  -12.6940  -39.3330 C   0  0  0  0  0  3  0  0  0  0  0  0
    4.1480  -11.7890  -39.5910 C   0  0  0  0  0  0  0  0  0  0  0  0
    4.8770  -11.5920  -41.3740 Br  0  0  0  0  0  0  0  0  0  0  0  0
    4.6330  -11.0000  -38.5730 C   0  0  0  0  0  3  0  0  0  0  0  0
    4.1290  -11.1150  -37.2990 C   0  0  0  0  0  3  0  0  0  0  0  0
    3.1390  -12.0320  -37.0780 C   0  0  0  0  0  3  0  0  0  0  0  0
    2.0840  -15.9450  -40.4510 N   0  0  0  0  0  0  0  0  0  0  0  0
    3.0650  -16.2080  -40.4520 H   0  0  0  0  0  0  0  0  0  0  0  0
    1.7670  -15.2410  -41.1330 H   0  0  0  0  0  0  0  0  0  0  0  0
    1.5450  -18.8750  -40.0430 C   0  0  0  0  0  2  0  0  0  0  0  0
    2.9570  -19.1550  -39.7310 C   0  0  0  0  0  2  0  0  0  0  0  0
    3.2880  -20.2930  -38.9520 N   0  0  0  0  0  0  0  0  0  0  0  0
    3.0950  -20.0070  -37.5070 C   0  0  0  0  0  2  0  0  0  0  0  0
    3.8760  -18.8150  -37.0600 C   0  0  0  0  0  2  0  0  0  0  0  0
    5.2260  -19.1610  -37.1360 O   0  0  0  0  0  0  0  0  0  0  0  0
    5.5850  -19.5410  -38.4050 C   0  0  0  0  0  2  0  0  0  0  0  0
    4.7240  -20.6140  -39.0160 C   0  0  0  0  0  2  0  0  0  0  0  0
  1 10  1  0  0  0  0
  1  2  1  0  0  0  0
  2  7  1  0  0  0  0
  3  2  2  0  0  0  0
  3  4  1  0  0  0  0
  4  5  2  0  0  0  0
  5  6  1  0  0  0  0
  7  6  2  0  0  0  0
  8  3  1  0  0  0  0
  9 20  1  1  0  0  0
  9  8  1  0  0  0  0
  9  1  1  0  0  0  0
 10 11  1  0  0  0  0
 11 12  1  6  0  0  0
 13 11  1  0  0  0  0
 13 19  1  0  0  0  0
 14 13  2  0  0  0  0
 15 14  1  0  0  0  0
 15 17  2  0  0  0  0
 16 15  1  0  0  0  0
 17 18  1  0  0  0  0
 18 19  2  0  0  0  0
 21 20  1  0  0  0  0
 22 20  1  0  0  0  0
 23 24  1  0  0  0  0
 23  8  1  0  0  0  0
 24 25  1  0  0  0  0
 25 26  1  0  0  0  0
 26 27  1  0  0  0  0
 28 27  1  0  0  0  0
 29 28  1  0  0  0  0
 30 25  1  0  0  0  0
 30 29  1  0  0  0  0
M  END
>  <Pose>
1

>  <Score>
-6.377

$$$$
