/Users/jonathanwahrer/Desktop/Msc/3_Semester/Drug_Design_Praktikum/waehrer_HTS_screening/HTS_experiment/out/docking_results/vina_output/6y4q/1325_docked.pdbqt
 OpenBabel03232218193D

 31 34  0  0  1  0  0  0  0  0999 V2000
    1.8960  -19.4810  -38.1690 C   0  0  1  0  0  3  0  0  0  0  0  0
    3.2540  -19.6850  -37.7600 N   0  0  0  0  0  0  0  0  0  0  0  0
    3.3960  -18.8080  -36.6030 C   0  0  0  0  0  0  0  0  0  0  0  0
    4.2060  -18.9550  -35.6620 O   0  0  0  0  0  0  0  0  0  0  0  0
    2.4280  -17.7370  -36.7450 C   0  0  0  0  0  0  0  0  0  0  0  0
    2.2010  -16.7580  -35.9730 O   0  0  0  0  0  0  0  0  0  0  0  0
    1.7250  -18.0100  -38.0030 C   0  0  0  0  0  0  0  0  0  0  0  0
    1.0870  -17.1350  -38.7300 C   0  0  0  0  0  0  0  0  0  0  0  0
    0.4210  -17.5820  -39.8780 O   0  0  0  0  0  1  0  0  0  0  0  0
    1.4630  -20.0070  -39.4400 C   0  0  0  0  0  0  0  0  0  0  0  0
    0.1930  -20.6070  -39.5040 C   0  0  0  0  0  3  0  0  0  0  0  0
   -0.3320  -21.1250  -40.6610 C   0  0  0  0  0  3  0  0  0  0  0  0
    0.3800  -21.0780  -41.8330 C   0  0  0  0  0  0  0  0  0  0  0  0
   -0.3200  -21.7920  -43.4670 Br  0  0  0  0  0  0  0  0  0  0  0  0
    1.6240  -20.4930  -41.7780 C   0  0  0  0  0  3  0  0  0  0  0  0
    2.1510  -19.9710  -40.6130 C   0  0  0  0  0  3  0  0  0  0  0  0
    1.0590  -15.7020  -38.3740 C   0  0  0  0  0  0  0  0  0  0  0  0
    0.1330  -15.1130  -37.6250 O   0  0  0  0  0  0  0  0  0  0  0  0
    0.3720  -13.8350  -37.4840 C   0  0  0  0  0  0  0  0  0  0  0  0
    1.5220  -13.4990  -38.1670 C   0  0  0  0  0  0  0  0  0  0  0  0
   -0.2860  -12.8030  -36.8080 C   0  0  0  0  0  3  0  0  0  0  0  0
    1.9340  -14.7010  -38.7200 C   0  0  0  0  0  3  0  0  0  0  0  0
    1.9850  -12.2030  -38.1690 C   0  0  0  0  0  3  0  0  0  0  0  0
    1.3440  -11.1790  -37.5060 C   0  0  0  0  0  3  0  0  0  0  0  0
    0.1900  -11.5100  -36.8200 C   0  0  0  0  0  3  0  0  0  0  0  0
    4.3100  -20.5580  -38.2240 C   0  0  0  0  0  2  0  0  0  0  0  0
    5.5660  -19.9470  -38.6840 C   0  0  0  0  0  2  0  0  0  0  0  0
    5.9670  -20.2030  -40.0420 N   0  0  0  0  0  4  0  0  0  0  0  0
    5.6840  -21.5470  -40.4580 C   0  0  0  0  0  1  0  0  0  0  0  0
    5.5910  -19.1880  -40.9860 C   0  0  0  0  0  1  0  0  0  0  0  0
    7.0430  -20.1600  -40.0000 H   0  0  0  0  0  0  0  0  0  0  0  0
  1 10  1  6  0  0  0
  1  7  1  0  0  0  0
  1  2  1  0  0  0  0
  2  3  1  0  0  0  0
  3  4  2  0  0  0  0
  5  3  1  0  0  0  0
  5  6  2  0  0  0  0
  7  5  1  0  0  0  0
  8 17  1  0  0  0  0
  8  7  2  0  0  0  0
  9  8  1  0  0  0  0
 11 10  1  0  0  0  0
 12 11  2  0  0  0  0
 13 15  2  0  0  0  0
 13 12  1  0  0  0  0
 14 13  1  0  0  0  0
 15 16  1  0  0  0  0
 16 10  2  0  0  0  0
 17 18  1  0  0  0  0
 18 19  1  0  0  0  0
 19 21  1  0  0  0  0
 20 19  2  0  0  0  0
 22 17  2  0  0  0  0
 22 20  1  0  0  0  0
 23 20  1  0  0  0  0
 23 24  2  0  0  0  0
 24 25  1  0  0  0  0
 25 21  2  0  0  0  0
 26  2  1  0  0  0  0
 27 26  1  0  0  0  0
 28 31  1  0  0  0  0
 28 27  1  0  0  0  0
 29 28  1  0  0  0  0
 30 28  1  0  0  0  0
M  END
>  <Pose>
1

>  <Score>
-6.127

$$$$
