/Users/jonathanwahrer/Desktop/Msc/3_Semester/Drug_Design_Praktikum/waehrer_HTS_screening/HTS_experiment/out/docking_results/vina_output/6y4q/1329_docked.pdbqt
 OpenBabel03232218203D

 28 31  0  0  0  0  0  0  0  0999 V2000
    1.9720  -16.9600  -35.9790 C   0  0  0  0  0  3  0  0  0  0  0  0
    2.3620  -17.9350  -36.8030 C   0  0  0  0  0  0  0  0  0  0  0  0
    1.7610  -18.3130  -38.0030 O   0  0  0  0  0  0  0  0  0  0  0  0
    2.4440  -19.3480  -38.5800 C   0  0  0  0  0  0  0  0  0  0  0  0
    3.5300  -19.7090  -37.7900 C   0  0  0  0  0  0  0  0  0  0  0  0
    4.3430  -20.7430  -38.2260 C   0  0  0  0  0  3  0  0  0  0  0  0
    4.0710  -21.3860  -39.4120 C   0  0  0  0  0  3  0  0  0  0  0  0
    2.9700  -20.9960  -40.1790 C   0  0  0  0  0  0  0  0  0  0  0  0
    2.1490  -19.9780  -39.7710 C   0  0  0  0  0  0  0  0  0  0  0  0
    2.7800  -21.7050  -41.3550 O   0  0  0  0  0  1  0  0  0  0  0  0
    3.5140  -18.8130  -36.6210 C   0  0  0  0  0  0  0  0  0  0  0  0
    4.3490  -18.8470  -35.6800 O   0  0  0  0  0  0  0  0  0  0  0  0
    0.9640  -19.6620  -40.5700 C   0  0  0  0  0  2  0  0  0  0  0  0
   -0.1010  -20.5960  -40.5180 N   0  0  0  0  0  4  0  0  0  0  0  0
   -1.1370  -20.1590  -41.4400 C   0  0  0  0  0  2  0  0  0  0  0  0
   -2.5350  -20.3630  -40.9670 C   0  0  0  0  0  2  0  0  0  0  0  0
   -2.8080  -19.8970  -39.6520 N   0  0  0  0  0  0  0  0  0  0  0  0
   -1.6130  -19.6270  -38.9230 C   0  0  0  0  0  2  0  0  0  0  0  0
   -3.6680  -20.8380  -38.9670 C   0  0  0  0  0  1  0  0  0  0  0  0
   -0.6110  -20.7040  -39.1720 C   0  0  0  0  0  2  0  0  0  0  0  0
    0.2030  -21.5840  -40.7730 H   0  0  0  0  0  0  0  0  0  0  0  0
    0.8100  -16.1480  -36.2780 C   0  0  0  0  0  0  0  0  0  0  0  0
   -0.4360  -16.7170  -36.4240 C   0  0  0  0  0  3  0  0  0  0  0  0
   -1.5420  -15.9260  -36.7240 C   0  0  0  0  0  0  0  0  0  0  0  0
   -3.2680  -16.7170  -36.9370 Br  0  0  0  0  0  0  0  0  0  0  0  0
   -1.3890  -14.5570  -36.8770 C   0  0  0  0  0  3  0  0  0  0  0  0
   -0.1280  -14.0270  -36.7250 C   0  0  0  0  0  3  0  0  0  0  0  0
    0.9750  -14.7920  -36.4270 C   0  0  0  0  0  3  0  0  0  0  0  0
  2 11  1  0  0  0  0
  2  1  2  0  0  0  0
  3  2  1  0  0  0  0
  4  3  1  0  0  0  0
  4  5  1  0  0  0  0
  5 11  1  0  0  0  0
  6  5  2  0  0  0  0
  7  6  1  0  0  0  0
  8  9  1  0  0  0  0
  8  7  2  0  0  0  0
  9  4  2  0  0  0  0
 10  8  1  0  0  0  0
 11 12  2  0  0  0  0
 13 14  1  0  0  0  0
 13  9  1  0  0  0  0
 14 20  1  0  0  0  0
 15 16  1  0  0  0  0
 15 14  1  0  0  0  0
 16 17  1  0  0  0  0
 17 19  1  0  0  0  0
 17 18  1  0  0  0  0
 20 18  1  0  0  0  0
 21 14  1  0  0  0  0
 22  1  1  0  0  0  0
 23 22  1  0  0  0  0
 24 23  2  0  0  0  0
 25 24  1  0  0  0  0
 26 27  2  0  0  0  0
 26 24  1  0  0  0  0
 27 28  1  0  0  0  0
 28 22  2  0  0  0  0
M  END
>  <Pose>
1

>  <Score>
-6.382

$$$$
