/Users/jonathanwahrer/Desktop/Msc/3_Semester/Drug_Design_Praktikum/waehrer_HTS_screening/HTS_experiment/out/docking_results/vina_output/6y4q/1343_docked.pdbqt
 OpenBabel03232218213D

 41 44  0  0  1  0  0  0  0  0999 V2000
    1.8120  -17.8390  -37.2210 C   0  0  0  0  0  0  0  0  0  0  0  0
    1.4670  -18.8180  -38.0960 N   0  0  0  0  0  0  0  0  0  0  0  0
    2.5790  -19.5320  -38.4100 C   0  0  0  0  0  0  0  0  0  0  0  0
    2.8200  -20.5820  -39.2040 N   0  0  0  0  0  0  0  0  0  0  0  0
    4.0500  -21.1100  -39.3390 C   0  0  0  0  0  0  0  0  0  0  0  0
    5.0750  -20.5620  -38.6510 N   0  0  0  0  0  0  0  0  0  0  0  0
    4.9110  -19.5190  -37.8460 C   0  0  0  0  0  0  0  0  0  0  0  0
    3.6460  -18.9820  -37.7110 C   0  0  0  0  0  0  0  0  0  0  0  0
    3.1390  -17.9770  -37.0170 N   0  0  0  0  0  0  0  0  0  0  0  0
    0.9350  -16.8770  -36.6480 N   0  0  0  0  0  0  0  0  0  0  0  0
    0.2460  -17.1760  -35.9410 H   0  0  0  0  0  0  0  0  0  0  0  0
    1.0590  -15.5430  -37.0840 N   0  0  0  0  0  0  0  0  0  0  0  0
    1.2530  -14.5620  -36.3040 C   0  0  0  0  0  3  0  0  0  0  0  0
    1.3850  -13.1710  -36.7250 C   0  0  0  0  0  0  0  0  0  0  0  0
    0.2890  -12.3370  -36.7740 C   0  0  0  0  0  0  0  0  0  0  0  0
   -1.4090  -13.0330  -36.2780 Br  0  0  0  0  0  0  0  0  0  0  0  0
    0.4080  -11.0040  -37.1770 C   0  0  0  0  0  3  0  0  0  0  0  0
    1.6280  -10.4750  -37.5420 C   0  0  0  0  0  0  0  0  0  0  0  0
    2.7240  -11.3100  -37.4940 C   0  0  0  0  0  0  0  0  0  0  0  0
    2.5950  -12.6240  -37.0940 C   0  0  0  0  0  3  0  0  0  0  0  0
    1.7640   -9.1470  -37.9470 O   0  0  0  0  0  0  0  0  0  0  0  0
    1.4890   -8.7070  -39.2430 C   0  0  0  0  0  1  0  0  0  0  0  0
    3.9500  -10.7650  -37.8630 O   0  0  0  0  0  0  0  0  0  0  0  0
    4.5860  -11.0010  -39.0790 C   0  0  0  0  0  1  0  0  0  0  0  0
    0.1500  -19.0550  -38.6010 C   0  0  2  0  0  3  0  0  0  0  0  0
   -0.3920  -17.9800  -39.2920 O   0  0  0  0  0  0  0  0  0  0  0  0
   -1.7520  -18.1000  -39.2860 C   0  0  1  0  0  3  0  0  0  0  0  0
   -2.1650  -19.1430  -38.3050 C   0  0  2  0  0  3  0  0  0  0  0  0
   -0.8680  -19.3780  -37.5270 C   0  0  1  0  0  3  0  0  0  0  0  0
   -2.3480  -16.7670  -38.8270 C   0  0  0  0  0  2  0  0  0  0  0  0
   -1.3220  -15.8590  -38.5420 O   0  0  0  0  0  0  0  0  0  0  0  0
   -0.4580  -16.3240  -38.3980 H   0  0  0  0  0  0  0  0  0  0  0  0
   -2.4250  -20.3600  -38.9660 O   0  0  0  0  0  0  0  0  0  0  0  0
   -3.3780  -20.5920  -38.9310 H   0  0  0  0  0  0  0  0  0  0  0  0
   -0.7800  -20.7050  -37.1090 O   0  0  0  0  0  0  0  0  0  0  0  0
   -0.9320  -20.7630  -36.1300 H   0  0  0  0  0  0  0  0  0  0  0  0
    5.9520  -18.9300  -37.1210 O   0  0  0  0  0  0  0  0  0  0  0  0
    5.6820  -18.4260  -36.2850 H   0  0  0  0  0  0  0  0  0  0  0  0
    4.2900  -22.2380  -40.1940 N   0  0  0  0  0  0  0  0  0  0  0  0
    4.0690  -22.2630  -41.1950 H   0  0  0  0  0  0  0  0  0  0  0  0
    4.7180  -23.0750  -39.7460 H   0  0  0  0  0  0  0  0  0  0  0  0
  1  9  2  0  0  0  0
  1 10  1  0  0  0  0
  2  1  1  0  0  0  0
  3  2  1  0  0  0  0
  3  8  2  0  0  0  0
  4  3  1  0  0  0  0
  5  4  2  0  0  0  0
  5  6  1  0  0  0  0
  6  7  2  0  0  0  0
  7  8  1  0  0  0  0
  7 37  1  0  0  0  0
  8  9  1  0  0  0  0
 10 11  1  0  0  0  0
 12 10  1  0  0  0  0
 12 13  2  0  0  0  0
 14 13  1  0  0  0  0
 15 14  1  0  0  0  0
 15 16  1  0  0  0  0
 17 15  2  0  0  0  0
 18 19  2  0  0  0  0
 18 17  1  0  0  0  0
 19 20  1  0  0  0  0
 20 14  2  0  0  0  0
 21 18  1  0  0  0  0
 22 21  1  0  0  0  0
 23 19  1  0  0  0  0
 24 23  1  0  0  0  0
 25  2  1  1  0  0  0
 25 29  1  0  0  0  0
 26 27  1  0  0  0  0
 26 25  1  0  0  0  0
 27 30  1  1  0  0  0
 27 28  1  0  0  0  0
 28 33  1  6  0  0  0
 28 29  1  0  0  0  0
 29 35  1  6  0  0  0
 30 31  1  0  0  0  0
 31 32  1  0  0  0  0
 33 34  1  0  0  0  0
 35 36  1  0  0  0  0
 37 38  1  0  0  0  0
 39 41  1  0  0  0  0
 39  5  1  0  0  0  0
 40 39  1  0  0  0  0
M  END
>  <Pose>
1

>  <Score>
-6.026

$$$$
