/Users/jonathanwahrer/Desktop/Msc/3_Semester/Drug_Design_Praktikum/waehrer_HTS_screening/HTS_experiment/out/docking_results/vina_output/6y4q/1355_docked.pdbqt
 OpenBabel03232218213D

 27 30  0  0  1  0  0  0  0  0999 V2000
    1.1790  -14.3380  -37.5690 N   0  0  0  0  0  0  0  0  0  0  0  0
    1.3750  -13.2010  -36.7660 C   0  0  0  0  0  0  0  0  0  0  0  0
    1.0080  -13.2220  -35.5710 O   0  0  0  0  0  0  0  0  0  0  0  0
    1.4860  -14.3160  -38.5620 H   0  0  0  0  0  0  0  0  0  0  0  0
    0.5570  -15.5390  -37.0410 C   0  0  0  0  0  2  0  0  0  0  0  0
    1.5990  -16.5990  -36.7910 C   0  0  0  0  0  0  0  0  0  0  0  0
    2.1180  -16.9610  -35.6450 O   0  0  0  0  0  0  0  0  0  0  0  0
    2.9980  -17.9210  -35.8350 N   0  0  0  0  0  0  0  0  0  0  0  0
    3.0680  -18.2080  -37.1450 C   0  0  0  0  0  0  0  0  0  0  0  0
    2.1890  -17.3740  -37.7280 N   0  0  0  0  0  0  0  0  0  0  0  0
    3.9140  -19.2050  -37.7930 C   0  0  0  0  0  0  0  0  0  0  0  0
    3.3950  -20.2440  -38.5350 C   0  0  0  0  0  0  0  0  0  0  0  0
    1.6580  -20.3460  -38.6880 Cl  0  0  0  0  0  0  0  0  0  0  0  0
    4.1970  -21.1970  -39.1550 C   0  0  0  0  0  3  0  0  0  0  0  0
    5.5620  -21.1260  -39.0410 C   0  0  0  0  0  3  0  0  0  0  0  0
    6.1090  -20.0770  -38.2920 C   0  0  0  0  0  3  0  0  0  0  0  0
    5.2840  -19.1530  -37.6930 C   0  0  0  0  0  3  0  0  0  0  0  0
    2.0060  -11.9950  -37.3230 C   0  0  1  0  0  3  0  0  0  0  0  0
    3.5040  -11.9720  -37.0830 C   0  0  0  0  0  2  0  0  0  0  0  0
    4.1550  -10.8450  -37.8140 C   0  0  0  0  0  2  0  0  0  0  0  0
    4.6520  -11.1830  -39.1820 C   0  0  0  0  0  2  0  0  0  0  0  0
    3.8410  -12.2990  -39.8330 C   0  0  0  0  0  2  0  0  0  0  0  0
    2.4550  -11.8910  -39.8140 N   0  0  0  0  0  0  0  0  0  0  0  0
    1.7750  -11.5880  -40.8870 N   0  0  0  0  0  0  0  0  0  0  0  0
    1.6710  -11.7620  -38.7360 C   0  0  0  0  0  0  0  0  0  0  0  0
    0.5570  -11.2620  -40.5350 N   0  0  0  0  0  0  0  0  0  0  0  0
    0.4820  -11.3640  -39.2220 N   0  0  0  0  0  0  0  0  0  0  0  0
  1  5  1  0  0  0  0
  1  2  1  0  0  0  0
  2  3  2  0  0  0  0
  4  1  1  0  0  0  0
  5  6  1  0  0  0  0
  6  7  1  0  0  0  0
  8  7  1  0  0  0  0
  9  8  2  0  0  0  0
 10  9  1  0  0  0  0
 10  6  2  0  0  0  0
 11 17  1  0  0  0  0
 11  9  1  0  0  0  0
 12 11  2  0  0  0  0
 13 12  1  0  0  0  0
 14 15  2  0  0  0  0
 14 12  1  0  0  0  0
 15 16  1  0  0  0  0
 16 17  2  0  0  0  0
 18 19  1  0  0  0  0
 18  2  1  6  0  0  0
 20 19  1  0  0  0  0
 21 20  1  0  0  0  0
 22 23  1  0  0  0  0
 22 21  1  0  0  0  0
 23 25  1  0  0  0  0
 24 26  2  0  0  0  0
 24 23  1  0  0  0  0
 25 18  1  0  0  0  0
 26 27  1  0  0  0  0
 27 25  2  0  0  0  0
M  END
>  <Pose>
1

>  <Score>
-6.910

$$$$
