/Users/jonathanwahrer/Desktop/Msc/3_Semester/Drug_Design_Praktikum/waehrer_HTS_screening/HTS_experiment/out/docking_results/vina_output/6y4q/1360_docked.pdbqt
 OpenBabel03232218213D

 34 37  0  0  1  0  0  0  0  0999 V2000
    1.7200  -19.1720  -38.0660 C   0  0  1  0  0  3  0  0  0  0  0  0
    1.1380  -19.9600  -39.1210 N   0  0  0  0  0  0  0  0  0  0  0  0
    2.1620  -19.8280  -40.1830 C   0  0  2  0  0  3  0  0  0  0  0  0
    1.7840  -20.7060  -41.2220 N   0  0  0  0  0  0  0  0  0  0  0  0
    0.5080  -21.2570  -40.8840 C   0  0  0  0  0  0  0  0  0  0  0  0
    0.1420  -20.7940  -39.6190 C   0  0  0  0  0  0  0  0  0  0  0  0
   -1.0650  -21.2000  -39.0890 C   0  0  0  0  0  0  0  0  0  0  0  0
   -1.3730  -20.7690  -37.9480 O   0  0  0  0  0  0  0  0  0  0  0  0
   -1.8530  -22.0220  -39.7900 N   0  0  0  0  0  0  0  0  0  0  0  0
   -1.4810  -22.4460  -40.9860 C   0  0  0  0  0  0  0  0  0  0  0  0
   -2.2530  -23.2200  -41.6150 O   0  0  0  0  0  0  0  0  0  0  0  0
   -0.2960  -22.0780  -41.5660 N   0  0  0  0  0  0  0  0  0  0  0  0
   -0.0090  -22.6090  -42.8790 C   0  0  0  0  0  1  0  0  0  0  0  0
   -3.1270  -22.4290  -39.1880 C   0  0  0  0  0  1  0  0  0  0  0  0
    2.4920  -21.0030  -42.4410 C   0  0  0  0  0  1  0  0  0  0  0  0
    3.4450  -19.9790  -39.4790 C   0  0  1  0  0  3  0  0  0  0  0  0
    3.0830  -19.8790  -37.9910 C   0  0  1  0  0  3  0  0  0  0  0  0
    1.9180  -17.7960  -38.4600 C   0  0  2  0  0  3  0  0  0  0  0  0
    2.5470  -17.6620  -39.5940 O   0  0  0  0  0  1  0  0  0  0  0  0
    1.5400  -16.5600  -37.8130 C   0  0  0  0  0  0  0  0  0  0  0  0
    1.0060  -16.5100  -36.5470 C   0  0  0  0  0  3  0  0  0  0  0  0
    0.6440  -15.2970  -36.0140 C   0  0  0  0  0  3  0  0  0  0  0  0
    0.8030  -14.1140  -36.7190 C   0  0  0  0  0  0  0  0  0  0  0  0
    0.2910  -12.4460  -35.9540 Br  0  0  0  0  0  0  0  0  0  0  0  0
    1.3410  -14.1710  -37.9920 C   0  0  0  0  0  3  0  0  0  0  0  0
    1.7080  -15.3770  -38.5380 C   0  0  0  0  0  3  0  0  0  0  0  0
    4.0800  -19.1250  -37.2370 C   0  0  0  0  0  0  0  0  0  0  0  0
    3.8720  -18.8460  -36.0100 O   0  0  0  0  0  0  0  0  0  0  0  0
    5.2500  -18.6980  -37.8040 O   0  0  0  0  0  0  0  0  0  0  0  0
    6.5160  -19.3030  -37.5280 C   0  0  0  0  0  1  0  0  0  0  0  0
    4.2620  -21.1560  -39.7430 C   0  0  0  0  0  0  0  0  0  0  0  0
    4.0940  -22.2020  -39.0620 O   0  0  0  0  0  0  0  0  0  0  0  0
    5.2250  -21.1680  -40.7280 O   0  0  0  0  0  0  0  0  0  0  0  0
    5.8310  -19.9760  -41.1790 C   0  0  0  0  0  1  0  0  0  0  0  0
  1 18  1  6  0  0  0
  1 17  1  0  0  0  0
  2  1  1  0  0  0  0
  3  4  1  6  0  0  0
  3 16  1  0  0  0  0
  3  2  1  0  0  0  0
  4  5  1  0  0  0  0
  5  6  2  0  0  0  0
  6  2  1  0  0  0  0
  6  7  1  0  0  0  0
  7  8  2  0  0  0  0
  9 14  1  0  0  0  0
  9  7  1  0  0  0  0
 10  9  1  0  0  0  0
 11 10  2  0  0  0  0
 12 10  1  0  0  0  0
 12  5  1  0  0  0  0
 13 12  1  0  0  0  0
 15  4  1  0  0  0  0
 16 31  1  1  0  0  0
 16 17  1  0  0  0  0
 17 27  1  1  0  0  0
 18 19  1  1  0  0  0
 18 20  1  0  0  0  0
 20 21  1  0  0  0  0
 21 22  2  0  0  0  0
 23 22  1  0  0  0  0
 23 24  1  0  0  0  0
 25 23  2  0  0  0  0
 26 25  1  0  0  0  0
 26 20  2  0  0  0  0
 27 28  2  0  0  0  0
 29 30  1  0  0  0  0
 29 27  1  0  0  0  0
 31 32  2  0  0  0  0
 33 31  1  0  0  0  0
 34 33  1  0  0  0  0
M  END
>  <Pose>
1

>  <Score>
-6.205

$$$$
