/Users/jonathanwahrer/Desktop/Msc/3_Semester/Drug_Design_Praktikum/waehrer_HTS_screening/HTS_experiment/out/docking_results/vina_output/6y4q/1372_docked.pdbqt
 OpenBabel03232218223D

 31 34  0  0  1  0  0  0  0  0999 V2000
    1.7290  -17.1580  -37.1440 C   0  0  0  0  0  0  0  0  0  0  0  0
    1.9650  -17.3170  -35.9280 O   0  0  0  0  0  0  0  0  0  0  0  0
    2.1240  -18.1300  -38.0690 N   0  0  0  0  0  0  0  0  0  0  0  0
    2.4860  -19.4940  -37.8840 C   0  0  0  0  0  2  0  0  0  0  0  0
    2.0520  -20.1820  -39.1870 C   0  0  0  0  0  2  0  0  0  0  0  0
    0.8610  -19.5030  -39.8160 C   0  0  1  0  0  0  0  0  0  0  0  0
    0.4730  -20.1530  -41.0380 N   0  0  0  0  0  0  0  0  0  0  0  0
   -0.6260  -19.3740  -41.6270 C   0  0  0  0  0  2  0  0  0  0  0  0
   -1.8660  -19.4400  -40.7900 C   0  0  0  0  0  2  0  0  0  0  0  0
   -1.5750  -19.5410  -39.3420 C   0  0  0  0  0  0  0  0  0  0  0  0
   -2.4040  -19.6080  -38.2960 N   0  0  0  0  0  0  0  0  0  0  0  0
   -1.6670  -19.6860  -37.1700 C   0  0  0  0  0  3  0  0  0  0  0  0
   -0.3780  -19.6640  -37.5350 N   0  0  0  0  0  0  0  0  0  0  0  0
   -0.2570  -19.5760  -38.8680 C   0  0  0  0  0  0  0  0  0  0  0  0
    1.1630  -18.0540  -40.2320 C   0  0  0  0  0  2  0  0  0  0  0  0
    2.3750  -17.6960  -39.4840 C   0  0  0  0  0  2  0  0  0  0  0  0
    1.2590  -20.0920  -41.7280 H   0  0  0  0  0  0  0  0  0  0  0  0
   -3.4470  -19.6080  -38.2660 H   0  0  0  0  0  0  0  0  0  0  0  0
    1.0080  -15.9140  -37.5540 C   0  0  1  0  0  3  0  0  0  0  0  0
   -0.0970  -15.6780  -36.4920 C   0  0  0  0  0  1  0  0  0  0  0  0
    1.8120  -14.7190  -37.4720 N   0  0  0  0  0  0  0  0  0  0  0  0
    2.0610  -13.9520  -38.6810 C   0  0  0  0  0  0  0  0  0  0  0  0
    1.5640  -14.2740  -39.7670 O   0  0  0  0  0  0  0  0  0  0  0  0
    2.1950  -14.4120  -36.5800 H   0  0  0  0  0  0  0  0  0  0  0  0
    2.9470  -12.7860  -38.5310 C   0  0  0  0  0  0  0  0  0  0  0  0
    3.6730  -12.3670  -39.6580 C   0  0  0  0  0  3  0  0  0  0  0  0
    4.5410  -11.3050  -39.6390 C   0  0  0  0  0  0  0  0  0  0  0  0
    5.4870  -10.7990  -41.2440 Br  0  0  0  0  0  0  0  0  0  0  0  0
    4.7100  -10.6180  -38.4600 C   0  0  0  0  0  3  0  0  0  0  0  0
    4.0060  -11.0190  -37.3370 C   0  0  0  0  0  3  0  0  0  0  0  0
    3.1290  -12.0980  -37.3690 C   0  0  0  0  0  3  0  0  0  0  0  0
  1  2  2  0  0  0  0
  3  4  1  0  0  0  0
  3  1  1  0  0  0  0
  5  4  1  0  0  0  0
  6 15  1  6  0  0  0
  6  5  1  0  0  0  0
  6 14  1  0  0  0  0
  7  6  1  0  0  0  0
  8  7  1  0  0  0  0
  8  9  1  0  0  0  0
  9 10  1  0  0  0  0
 10 14  2  0  0  0  0
 10 11  1  0  0  0  0
 11 18  1  0  0  0  0
 11 12  1  0  0  0  0
 13 12  2  0  0  0  0
 14 13  1  0  0  0  0
 15 16  1  0  0  0  0
 16  3  1  0  0  0  0
 17  7  1  0  0  0  0
 19 21  1  0  0  0  0
 19  1  1  0  0  0  0
 19 20  1  1  0  0  0
 21 24  1  0  0  0  0
 22 25  1  0  0  0  0
 22 21  1  0  0  0  0
 23 22  2  0  0  0  0
 25 31  1  0  0  0  0
 26 27  1  0  0  0  0
 26 25  2  0  0  0  0
 27 29  2  0  0  0  0
 28 27  1  0  0  0  0
 29 30  1  0  0  0  0
 31 30  2  0  0  0  0
M  END
>  <Pose>
1

>  <Score>
-6.386

$$$$
