/Users/jonathanwahrer/Desktop/Msc/3_Semester/Drug_Design_Praktikum/waehrer_HTS_screening/HTS_experiment/out/docking_results/vina_output/6y4q/1386_docked.pdbqt
 OpenBabel03232218223D

 33 36  0  0  1  0  0  0  0  0999 V2000
   -1.3300  -19.5580  -37.5850 C   0  0  0  0  0  0  0  0  0  0  0  0
   -1.3540  -20.7070  -37.0890 O   0  0  0  0  0  0  0  0  0  0  0  0
   -0.4070  -19.2830  -38.6600 N   0  0  0  0  0  0  0  0  0  0  0  0
    0.4530  -20.3370  -39.1250 C   0  0  0  0  0  2  0  0  0  0  0  0
    1.8700  -19.9580  -38.7480 C   0  0  2  0  0  3  0  0  0  0  0  0
    2.1170  -18.4930  -38.7540 C   0  0  2  0  0  0  0  0  0  0  0  0
    1.1540  -17.6820  -39.5400 C   0  0  0  0  0  2  0  0  0  0  0  0
   -0.2860  -18.0060  -39.3090 C   0  0  0  0  0  2  0  0  0  0  0  0
    3.5080  -18.2690  -39.3630 C   0  0  0  0  0  1  0  0  0  0  0  0
   -2.2050  -18.4770  -37.1150 C   0  0  0  0  0  2  0  0  0  0  0  0
   -1.7460  -17.6610  -35.9830 C   0  0  0  0  0  2  0  0  0  0  0  0
   -1.0380  -16.3950  -36.3010 C   0  0  0  0  0  0  0  0  0  0  0  0
    0.3080  -16.1830  -36.0920 N   0  0  0  0  0  0  0  0  0  0  0  0
    0.6150  -14.9210  -36.4280 C   0  0  0  0  0  0  0  0  0  0  0  0
    1.7910  -14.1890  -36.4180 C   0  0  0  0  0  3  0  0  0  0  0  0
   -0.5300  -14.2940  -36.8600 C   0  0  0  0  0  0  0  0  0  0  0  0
    1.8120  -12.8770  -36.8290 C   0  0  0  0  0  0  0  0  0  0  0  0
    3.3410  -11.9850  -36.7970 Cl  0  0  0  0  0  0  0  0  0  0  0  0
    0.6530  -12.2630  -37.2620 C   0  0  0  0  0  3  0  0  0  0  0  0
   -0.5200  -12.9790  -37.2750 C   0  0  0  0  0  3  0  0  0  0  0  0
   -1.5080  -15.2410  -36.7610 N   0  0  0  0  0  0  0  0  0  0  0  0
   -2.8840  -14.9160  -37.0960 C   0  0  0  0  0  1  0  0  0  0  0  0
    2.7670  -20.7010  -39.5990 N   0  0  0  0  0  0  0  0  0  0  0  0
    2.5170  -20.8090  -40.9190 C   0  0  0  0  0  3  0  0  0  0  0  0
    3.3450  -21.5080  -41.7680 C   0  0  0  0  0  3  0  0  0  0  0  0
    4.4630  -22.1120  -41.2420 C   0  0  0  0  0  0  0  0  0  0  0  0
    5.2700  -22.7740  -41.9750 O   0  0  0  0  0  0  0  0  0  0  0  0
    4.6870  -21.9890  -39.9240 N   0  0  0  0  0  0  0  0  0  0  0  0
    3.8690  -21.3060  -39.1220 C   0  0  0  0  0  0  0  0  0  0  0  0
    5.5390  -22.4410  -39.4760 H   0  0  0  0  0  0  0  0  0  0  0  0
    4.1250  -21.2200  -37.8870 O   0  0  0  0  0  0  0  0  0  0  0  0
    2.1890  -17.9470  -37.4630 O   0  0  0  0  0  0  0  0  0  0  0  0
    2.9500  -17.2870  -37.4500 H   0  0  0  0  0  0  0  0  0  0  0  0
  1 10  1  0  0  0  0
  1  2  2  0  0  0  0
  3  1  1  0  0  0  0
  4  5  1  0  0  0  0
  4  3  1  0  0  0  0
  5 23  1  6  0  0  0
  6  9  1  6  0  0  0
  6  5  1  0  0  0  0
  6 32  1  0  0  0  0
  7  8  1  0  0  0  0
  7  6  1  0  0  0  0
  8  3  1  0  0  0  0
 10 11  1  0  0  0  0
 12 13  2  0  0  0  0
 12 11  1  0  0  0  0
 14 15  1  0  0  0  0
 14 13  1  0  0  0  0
 16 21  1  0  0  0  0
 16 14  2  0  0  0  0
 17 18  1  0  0  0  0
 17 15  2  0  0  0  0
 19 17  1  0  0  0  0
 20 19  2  0  0  0  0
 20 16  1  0  0  0  0
 21 12  1  0  0  0  0
 22 21  1  0  0  0  0
 23 29  1  0  0  0  0
 24 23  1  0  0  0  0
 25 26  1  0  0  0  0
 25 24  2  0  0  0  0
 26 28  1  0  0  0  0
 27 26  2  0  0  0  0
 28 30  1  0  0  0  0
 28 29  1  0  0  0  0
 29 31  2  0  0  0  0
 32 33  1  0  0  0  0
M  END
>  <Pose>
1

>  <Score>
-6.776

$$$$
