/Users/jonathanwahrer/Desktop/Msc/3_Semester/Drug_Design_Praktikum/waehrer_HTS_screening/HTS_experiment/out/docking_results/vina_output/6y4q/1415_docked.pdbqt
 OpenBabel03232218233D

 32 35  0  0  1  0  0  0  0  0999 V2000
   -0.2150  -22.6620  -42.8700 Br  0  0  0  0  0  0  0  0  0  0  0  0
   -1.0310  -22.6350  -41.1360 C   0  0  0  0  0  0  0  0  0  0  0  0
   -0.8660  -21.5420  -40.3190 C   0  0  0  0  0  0  0  0  0  0  0  0
   -1.4470  -21.4820  -39.0420 C   0  0  0  0  0  0  0  0  0  0  0  0
   -2.1890  -22.5750  -38.6520 C   0  0  0  0  0  3  0  0  0  0  0  0
   -2.3690  -23.6840  -39.4510 C   0  0  0  0  0  0  0  0  0  0  0  0
   -1.7900  -23.7200  -40.6990 C   0  0  0  0  0  0  0  0  0  0  0  0
   -1.9260  -24.8670  -41.6320 C   0  0  0  0  0  1  0  0  0  0  0  0
   -3.4020  -25.1850  -38.8840 Br  0  0  0  0  0  0  0  0  0  0  0  0
   -1.2450  -20.3110  -38.2130 C   0  0  0  0  0  0  0  0  0  0  0  0
   -1.8350  -20.2040  -37.1330 O   0  0  0  0  0  0  0  0  0  0  0  0
   -0.3310  -19.2490  -38.6700 C   0  0  1  0  0  0  0  0  0  0  0  0
   -0.4230  -19.1980  -40.1790 C   0  0  0  0  0  2  0  0  0  0  0  0
   -0.1100  -20.4560  -40.7490 O   0  0  0  0  0  0  0  0  0  0  0  0
   -0.6060  -17.9110  -38.0540 C   0  0  0  0  0  2  0  0  0  0  0  0
   -0.5730  -17.8590  -36.6430 N   0  0  0  0  0  4  0  0  0  0  0  0
    0.4740  -16.9810  -36.2090 C   0  0  0  0  0  2  0  0  0  0  0  0
    0.2290  -15.5350  -36.4500 C   0  0  2  0  0  3  0  0  0  0  0  0
   -1.1290  -15.1540  -36.8990 C   0  0  0  0  0  2  0  0  0  0  0  0
    1.2200  -15.0700  -37.5240 C   0  0  0  0  0  1  0  0  0  0  0  0
   -2.2230  -16.0960  -36.5800 C   0  0  0  0  0  2  0  0  0  0  0  0
   -1.7800  -17.4100  -36.0060 C   0  0  0  0  0  2  0  0  0  0  0  0
   -0.3600  -18.8110  -36.2530 H   0  0  0  0  0  0  0  0  0  0  0  0
    1.0640  -19.7130  -38.3010 C   0  0  0  0  0  2  0  0  0  0  0  0
    2.0990  -19.2900  -39.1820 N   0  0  0  0  0  4  0  0  0  0  0  0
    3.0210  -20.3930  -39.4450 C   0  0  0  0  0  2  0  0  0  0  0  0
    4.2820  -20.2950  -38.6370 C   0  0  1  0  0  3  0  0  0  0  0  0
    3.9490  -19.8650  -37.2270 C   0  0  0  0  0  2  0  0  0  0  0  0
    4.8570  -21.7140  -38.5300 C   0  0  0  0  0  1  0  0  0  0  0  0
    3.4360  -18.4600  -37.2870 C   0  0  0  0  0  2  0  0  0  0  0  0
    2.9030  -18.2000  -38.6740 C   0  0  0  0  0  2  0  0  0  0  0  0
    1.7120  -19.0140  -40.0880 H   0  0  0  0  0  0  0  0  0  0  0  0
  1  2  1  0  0  0  0
  2  7  2  0  0  0  0
  2  3  1  0  0  0  0
  3  4  2  0  0  0  0
  4  5  1  0  0  0  0
  4 10  1  0  0  0  0
  6  9  1  0  0  0  0
  6  5  2  0  0  0  0
  7  6  1  0  0  0  0
  8  7  1  0  0  0  0
 10 11  2  0  0  0  0
 12 24  1  1  0  0  0
 12 10  1  0  0  0  0
 12 15  1  0  0  0  0
 13 12  1  0  0  0  0
 14  3  1  0  0  0  0
 14 13  1  0  0  0  0
 15 16  1  0  0  0  0
 16 23  1  0  0  0  0
 16 17  1  0  0  0  0
 16 22  1  0  0  0  0
 18 20  1  6  0  0  0
 18 17  1  0  0  0  0
 19 21  1  0  0  0  0
 19 18  1  0  0  0  0
 21 22  1  0  0  0  0
 25 31  1  0  0  0  0
 25 24  1  0  0  0  0
 26 25  1  0  0  0  0
 26 27  1  0  0  0  0
 27 29  1  1  0  0  0
 27 28  1  0  0  0  0
 30 28  1  0  0  0  0
 31 30  1  0  0  0  0
 32 25  1  0  0  0  0
M  END
>  <Pose>
1

>  <Score>
-6.071

$$$$
