/Users/jonathanwahrer/Desktop/Msc/3_Semester/Drug_Design_Praktikum/waehrer_HTS_screening/HTS_experiment/out/docking_results/vina_output/6y4q/1428_docked.pdbqt
 OpenBabel03232218233D

 37 40  0  0  1  0  0  0  0  0999 V2000
   -2.0520  -15.9220  -39.3700 Cl  0  0  0  0  0  0  0  0  0  0  0  0
   -0.7270  -16.3310  -38.2840 C   0  0  0  0  0  0  0  0  0  0  0  0
    0.2310  -17.2490  -38.6210 C   0  0  0  0  0  3  0  0  0  0  0  0
    1.2460  -17.5330  -37.7350 C   0  0  0  0  0  0  0  0  0  0  0  0
    1.2590  -16.8770  -36.5320 C   0  0  0  0  0  0  0  0  0  0  0  0
    0.2790  -15.9400  -36.1910 C   0  0  0  0  0  3  0  0  0  0  0  0
   -0.7220  -15.6670  -37.0770 C   0  0  0  0  0  3  0  0  0  0  0  0
    2.3660  -17.2540  -35.7220 N   0  0  0  0  0  0  0  0  0  0  0  0
    3.0860  -18.2000  -36.4630 C   0  0  0  0  0  0  0  0  0  0  0  0
    4.1560  -18.7300  -36.0180 O   0  0  0  0  0  0  0  0  0  0  0  0
    2.4180  -18.4400  -37.7500 C   0  0  2  0  0  0  0  0  0  0  0  0
    3.3460  -18.1120  -38.7960 N   0  0  0  0  0  0  0  0  0  0  0  0
    3.7230  -19.3130  -39.4740 C   0  0  2  0  0  3  0  0  0  0  0  0
    3.2570  -20.4620  -38.6400 C   0  0  0  0  0  2  0  0  0  0  0  0
    2.0970  -19.8640  -37.8930 C   0  0  2  0  0  3  0  0  0  0  0  0
    2.6030  -16.8980  -34.7590 H   0  0  0  0  0  0  0  0  0  0  0  0
    2.9640  -17.3710  -39.4210 H   0  0  0  0  0  0  0  0  0  0  0  0
    0.7860  -20.1870  -38.5130 C   0  0  0  0  0  0  0  0  0  0  0  0
    0.7240  -20.0710  -39.7610 O   0  0  0  0  0  0  0  0  0  0  0  0
   -0.3380  -20.5980  -37.7870 N   0  0  0  0  0  0  0  0  0  0  0  0
   -0.1770  -20.6750  -36.7360 H   0  0  0  0  0  0  0  0  0  0  0  0
   -1.6130  -20.9210  -38.2540 C   0  0  0  0  0  0  0  0  0  0  0  0
   -2.6670  -20.0560  -38.0010 C   0  0  0  0  0  0  0  0  0  0  0  0
   -3.9530  -20.3110  -38.4330 C   0  0  0  0  0  3  0  0  0  0  0  0
   -4.2510  -21.4480  -39.1420 C   0  0  0  0  0  3  0  0  0  0  0  0
   -3.2330  -22.3200  -39.4060 C   0  0  0  0  0  0  0  0  0  0  0  0
   -1.9400  -22.0490  -38.9640 C   0  0  0  0  0  3  0  0  0  0  0  0
   -2.4470  -18.8880  -37.2920 O   0  0  0  0  0  0  0  0  0  0  0  0
   -3.3430  -18.3520  -36.3680 C   0  0  0  0  0  1  0  0  0  0  0  0
   -3.4910  -23.4770  -40.1180 O   0  0  0  0  0  0  0  0  0  0  0  0
   -2.6450  -24.6110  -40.0680 C   0  0  0  0  0  1  0  0  0  0  0  0
    5.2190  -19.3660  -39.7360 C   0  0  0  0  0  2  0  0  0  0  0  0
    5.9580  -19.9330  -38.5980 C   0  0  0  0  0  0  0  0  0  0  0  0
    6.0710  -21.1630  -38.4740 O   0  0  0  0  0  0  0  0  0  0  0  0
    6.5380  -19.0760  -37.6450 N   0  0  0  0  0  0  0  0  0  0  0  0
    7.5260  -19.2510  -37.3630 H   0  0  0  0  0  0  0  0  0  0  0  0
    6.0440  -18.2670  -37.1950 H   0  0  0  0  0  0  0  0  0  0  0  0
  1  2  1  0  0  0  0
  2  7  1  0  0  0  0
  3  2  2  0  0  0  0
  3  4  1  0  0  0  0
  4  5  2  0  0  0  0
  5  6  1  0  0  0  0
  5  8  1  0  0  0  0
  7  6  2  0  0  0  0
  8 16  1  0  0  0  0
  9 10  2  0  0  0  0
  9  8  1  0  0  0  0
 11  4  1  6  0  0  0
 11  9  1  0  0  0  0
 12 11  1  0  0  0  0
 13 32  1  1  0  0  0
 13 12  1  0  0  0  0
 13 14  1  0  0  0  0
 14 15  1  0  0  0  0
 15 18  1  6  0  0  0
 15 11  1  0  0  0  0
 17 12  1  0  0  0  0
 18 20  1  0  0  0  0
 19 18  2  0  0  0  0
 20 21  1  0  0  0  0
 22 23  1  0  0  0  0
 22 20  1  0  0  0  0
 23 28  1  0  0  0  0
 24 23  2  0  0  0  0
 25 24  1  0  0  0  0
 26 25  2  0  0  0  0
 26 27  1  0  0  0  0
 27 22  2  0  0  0  0
 28 29  1  0  0  0  0
 30 31  1  0  0  0  0
 30 26  1  0  0  0  0
 32 33  1  0  0  0  0
 33 34  2  0  0  0  0
 33 35  1  0  0  0  0
 35 36  1  0  0  0  0
 35 37  1  0  0  0  0
M  END
>  <Pose>
1

>  <Score>
-6.712

$$$$
