/Users/jonathanwahrer/Desktop/Msc/3_Semester/Drug_Design_Praktikum/waehrer_HTS_screening/HTS_experiment/out/docking_results/vina_output/6y4q/1433_docked.pdbqt
 OpenBabel03232218243D

 28 31  0  0  1  0  0  0  0  0999 V2000
    3.6850  -20.2890  -42.8320 Br  0  0  0  0  0  0  0  0  0  0  0  0
    4.0190  -20.3690  -40.9670 C   0  0  0  0  0  0  0  0  0  0  0  0
    3.1700  -19.6970  -40.0820 C   0  0  0  0  0  0  0  0  0  0  0  0
    3.3740  -19.7430  -38.7250 C   0  0  0  0  0  0  0  0  0  0  0  0
    4.4460  -20.4730  -38.2670 C   0  0  0  0  0  3  0  0  0  0  0  0
    5.3080  -21.1510  -39.1270 C   0  0  0  0  0  0  0  0  0  0  0  0
    5.0850  -21.0980  -40.5060 C   0  0  0  0  0  0  0  0  0  0  0  0
    5.9960  -21.8240  -41.4340 C   0  0  0  0  0  1  0  0  0  0  0  0
    6.4660  -21.9090  -38.5840 C   0  0  0  0  0  1  0  0  0  0  0  0
    2.5000  -19.0910  -37.7080 C   0  0  2  0  0  3  0  0  0  0  0  0
    1.4670  -18.1670  -38.2760 C   0  0  2  0  0  0  0  0  0  0  0  0
    1.8970  -17.7530  -39.6720 C   0  0  0  0  0  2  0  0  0  0  0  0
    2.0800  -18.9400  -40.4880 O   0  0  0  0  0  0  0  0  0  0  0  0
    1.4780  -16.9840  -37.4430 N   0  0  0  0  0  0  0  0  0  0  0  0
    0.3780  -16.9100  -36.5390 C   0  0  0  0  0  2  0  0  0  0  0  0
    0.1180  -15.5550  -35.9450 C   0  0  0  0  0  2  0  0  0  0  0  0
    0.3270  -14.4970  -36.7880 O   0  0  0  0  0  0  0  0  0  0  0  0
    1.6530  -14.5620  -37.2380 C   0  0  0  0  0  2  0  0  0  0  0  0
    1.6510  -15.7790  -38.1990 C   0  0  0  0  0  2  0  0  0  0  0  0
    0.1120  -18.7370  -38.4570 C   0  0  0  0  0  2  0  0  0  0  0  0
   -0.2080  -20.0710  -38.2340 N   0  0  0  0  0  0  0  0  0  0  0  0
   -1.4000  -20.1530  -37.3230 C   0  0  0  0  0  2  0  0  0  0  0  0
   -2.5470  -19.3860  -37.8680 C   0  0  0  0  0  2  0  0  0  0  0  0
   -2.6150  -19.3390  -39.2350 O   0  0  0  0  0  0  0  0  0  0  0  0
   -2.0050  -20.3610  -39.9010 C   0  0  0  0  0  2  0  0  0  0  0  0
   -0.7180  -20.8670  -39.3350 C   0  0  0  0  0  2  0  0  0  0  0  0
    3.3600  -18.3770  -36.8170 O   0  0  0  0  0  0  0  0  0  0  0  0
    4.2280  -18.2770  -37.2800 H   0  0  0  0  0  0  0  0  0  0  0  0
  1  2  1  0  0  0  0
  2  7  2  0  0  0  0
  2  3  1  0  0  0  0
  3  4  2  0  0  0  0
  4  5  1  0  0  0  0
  4 10  1  0  0  0  0
  6  9  1  0  0  0  0
  6  5  2  0  0  0  0
  7  6  1  0  0  0  0
  8  7  1  0  0  0  0
 10 27  1  1  0  0  0
 11 20  1  6  0  0  0
 11 10  1  0  0  0  0
 11 14  1  0  0  0  0
 12 11  1  0  0  0  0
 13  3  1  0  0  0  0
 13 12  1  0  0  0  0
 14 15  1  0  0  0  0
 15 16  1  0  0  0  0
 17 16  1  0  0  0  0
 18 17  1  0  0  0  0
 19 14  1  0  0  0  0
 19 18  1  0  0  0  0
 20 21  1  0  0  0  0
 21 22  1  0  0  0  0
 23 22  1  0  0  0  0
 24 23  1  0  0  0  0
 25 26  1  0  0  0  0
 25 24  1  0  0  0  0
 26 21  1  0  0  0  0
 28 27  1  0  0  0  0
M  END
>  <Pose>
1

>  <Score>
-5.721

$$$$
