/Users/jonathanwahrer/Desktop/Msc/3_Semester/Drug_Design_Praktikum/waehrer_HTS_screening/HTS_experiment/out/docking_results/vina_output/6y4q/1434_docked.pdbqt
 OpenBabel03232218243D

 28 31  0  0  1  0  0  0  0  0999 V2000
    2.5110  -18.2640  -38.0500 C   0  0  0  0  0  0  0  0  0  0  0  0
    3.1200  -17.9230  -36.9190 O   0  0  0  0  0  0  0  0  0  0  0  0
    2.6210  -19.6070  -38.3760 N   0  0  0  0  0  0  0  0  0  0  0  0
    2.0920  -20.2800  -39.5080 C   0  0  0  0  0  2  0  0  0  0  0  0
    3.2240  -20.6540  -40.4660 C   0  0  0  0  0  2  0  0  0  0  0  0
    4.4860  -20.9480  -39.6720 C   0  0  1  0  0  0  0  0  0  0  0  0
    5.1680  -22.0060  -40.3990 N   0  0  0  0  0  0  0  0  0  0  0  0
    6.0300  -21.3520  -41.3530 C   0  0  0  0  0  0  0  0  0  0  0  0
    6.5410  -21.8820  -42.3700 O   0  0  0  0  0  0  0  0  0  0  0  0
    6.1890  -19.9880  -40.9170 N   0  0  0  0  0  0  0  0  0  0  0  0
    5.4370  -19.8180  -39.7220 C   0  0  0  0  0  0  0  0  0  0  0  0
    5.5840  -18.8820  -38.9020 O   0  0  0  0  0  0  0  0  0  0  0  0
    4.1980  -21.4350  -38.2880 C   0  0  0  0  0  2  0  0  0  0  0  0
    3.3870  -20.4900  -37.4620 C   0  0  0  0  0  2  0  0  0  0  0  0
    5.0640  -23.0330  -40.2690 H   0  0  0  0  0  0  0  0  0  0  0  0
    6.7500  -19.2670  -41.3920 H   0  0  0  0  0  0  0  0  0  0  0  0
    1.8700  -17.1270  -38.6790 C   0  0  0  0  0  2  0  0  0  0  0  0
    0.7140  -16.5480  -38.0900 N   0  0  0  0  0  0  0  0  0  0  0  0
    0.7370  -15.3670  -37.4030 C   0  0  0  0  0  0  0  0  0  0  0  0
   -0.5330  -15.0700  -36.9800 C   0  0  0  0  0  0  0  0  0  0  0  0
    1.7820  -14.4950  -37.0970 C   0  0  0  0  0  3  0  0  0  0  0  0
   -1.3450  -16.0870  -37.4150 C   0  0  0  0  0  0  0  0  0  0  0  0
   -0.7640  -13.9100  -36.2550 C   0  0  0  0  0  3  0  0  0  0  0  0
   -3.2250  -16.1380  -37.0770 Br  0  0  0  0  0  0  0  0  0  0  0  0
   -0.5680  -16.9840  -38.0940 C   0  0  0  0  0  0  0  0  0  0  0  0
   -1.0390  -18.2330  -38.7350 C   0  0  0  0  0  1  0  0  0  0  0  0
    0.2730  -13.0560  -35.9570 C   0  0  0  0  0  3  0  0  0  0  0  0
    1.5460  -13.3350  -36.3710 C   0  0  0  0  0  3  0  0  0  0  0  0
  1  2  2  0  0  0  0
  3  1  1  0  0  0  0
  3 14  1  0  0  0  0
  4  3  1  0  0  0  0
  5  4  1  0  0  0  0
  6  5  1  6  0  0  0
  6 13  1  0  0  0  0
  7 15  1  0  0  0  0
  7  6  1  0  0  0  0
  8 10  1  0  0  0  0
  8  7  1  0  0  0  0
  9  8  2  0  0  0  0
 10 11  1  0  0  0  0
 11  6  1  0  0  0  0
 11 12  2  0  0  0  0
 13 14  1  0  0  0  0
 16 10  1  0  0  0  0
 17 18  1  0  0  0  0
 17  1  1  0  0  0  0
 18 19  1  0  0  0  0
 19 21  2  0  0  0  0
 19 20  1  0  0  0  0
 20 23  2  0  0  0  0
 21 28  1  0  0  0  0
 22 24  1  0  0  0  0
 22 20  1  0  0  0  0
 23 27  1  0  0  0  0
 25 18  1  0  0  0  0
 25 22  2  0  0  0  0
 26 25  1  0  0  0  0
 28 27  2  0  0  0  0
M  END
>  <Pose>
1

>  <Score>
-6.825

$$$$
