/Users/jonathanwahrer/Desktop/Msc/3_Semester/Drug_Design_Praktikum/waehrer_HTS_screening/HTS_experiment/out/docking_results/vina_output/6y4q/1435_docked.pdbqt
 OpenBabel03232218243D

 32 35  0  0  0  0  0  0  0  0999 V2000
    1.0820  -16.3130  -37.7740 C   0  0  0  0  0  2  0  0  0  0  0  0
    0.5320  -14.9850  -38.2780 C   0  0  0  0  0  2  0  0  0  0  0  0
    1.5250  -14.2520  -39.0260 N   0  0  0  0  0  0  0  0  0  0  0  0
    1.8820  -14.3870  -40.3260 C   0  0  0  0  0  0  0  0  0  0  0  0
    1.0830  -15.6630  -41.5010 Br  0  0  0  0  0  0  0  0  0  0  0  0
    2.8530  -13.5110  -40.6410 N   0  0  0  0  0  0  0  0  0  0  0  0
    3.1490  -12.7820  -39.5390 C   0  0  0  0  0  0  0  0  0  0  0  0
    2.3130  -13.2610  -38.5520 C   0  0  0  0  0  0  0  0  0  0  0  0
    4.0370  -11.7850  -39.3220 N   0  0  0  0  0  0  0  0  0  0  0  0
    2.3980  -12.6860  -37.2950 C   0  0  0  0  0  0  0  0  0  0  0  0
    3.2820  -11.6990  -37.0880 N   0  0  0  0  0  0  0  0  0  0  0  0
    1.6330  -13.1310  -36.4110 O   0  0  0  0  0  0  0  0  0  0  0  0
    4.0920  -11.2530  -38.0880 C   0  0  0  0  0  0  0  0  0  0  0  0
    3.3530  -11.2590  -36.1410 H   0  0  0  0  0  0  0  0  0  0  0  0
    4.8930  -10.3220  -37.8100 O   0  0  0  0  0  0  0  0  0  0  0  0
    4.9100  -11.2940  -40.3720 C   0  0  0  0  0  1  0  0  0  0  0  0
    0.3620  -17.4730  -38.4090 C   0  0  0  0  0  2  0  0  0  0  0  0
    0.6450  -18.8060  -37.7850 C   0  0  0  0  0  2  0  0  0  0  0  0
    1.6950  -19.4720  -38.4820 N   0  0  0  0  0  0  0  0  0  0  0  0
    2.9990  -19.5490  -38.2260 C   0  0  0  0  0  0  0  0  0  0  0  0
    3.5970  -20.3540  -39.1880 C   0  0  0  0  0  0  0  0  0  0  0  0
    3.8160  -19.0170  -37.2630 C   0  0  0  0  0  0  0  0  0  0  0  0
    2.6160  -20.7360  -40.0010 N   0  0  0  0  0  0  0  0  0  0  0  0
    4.9120  -20.5910  -39.1620 N   0  0  0  0  0  0  0  0  0  0  0  0
    1.4580  -20.2130  -39.5940 C   0  0  0  0  0  0  0  0  0  0  0  0
   -0.2120  -20.4990  -40.4680 Br  0  0  0  0  0  0  0  0  0  0  0  0
    5.6930  -20.0560  -38.2030 C   0  0  0  0  0  0  0  0  0  0  0  0
    5.5650  -21.4330  -40.1590 C   0  0  0  0  0  1  0  0  0  0  0  0
    6.9280  -20.2840  -38.1850 O   0  0  0  0  0  0  0  0  0  0  0  0
    5.1310  -19.2790  -37.2720 N   0  0  0  0  0  0  0  0  0  0  0  0
    5.7090  -18.8390  -36.5010 H   0  0  0  0  0  0  0  0  0  0  0  0
    3.3090  -18.2870  -36.3870 O   0  0  0  0  0  0  0  0  0  0  0  0
  2  1  1  0  0  0  0
  3  8  1  0  0  0  0
  3  2  1  0  0  0  0
  4  3  1  0  0  0  0
  5  4  1  0  0  0  0
  6  4  2  0  0  0  0
  6  7  1  0  0  0  0
  7  9  1  0  0  0  0
  7  8  2  0  0  0  0
  8 10  1  0  0  0  0
  9 13  1  0  0  0  0
 10 11  1  0  0  0  0
 10 12  2  0  0  0  0
 11 14  1  0  0  0  0
 13 15  2  0  0  0  0
 13 11  1  0  0  0  0
 16  9  1  0  0  0  0
 17 18  1  0  0  0  0
 17  1  1  0  0  0  0
 19 20  1  0  0  0  0
 19 18  1  0  0  0  0
 20 22  1  0  0  0  0
 21 24  1  0  0  0  0
 21 20  2  0  0  0  0
 22 32  2  0  0  0  0
 23 25  2  0  0  0  0
 23 21  1  0  0  0  0
 24 27  1  0  0  0  0
 25 19  1  0  0  0  0
 26 25  1  0  0  0  0
 27 29  2  0  0  0  0
 27 30  1  0  0  0  0
 28 24  1  0  0  0  0
 30 22  1  0  0  0  0
 30 31  1  0  0  0  0
M  END
>  <Pose>
1

>  <Score>
-6.280

$$$$
