/Users/jonathanwahrer/Desktop/Msc/3_Semester/Drug_Design_Praktikum/waehrer_HTS_screening/HTS_experiment/out/docking_results/vina_output/6y4q/1436_docked.pdbqt
 OpenBabel03232218253D

 33 36  0  0  0  0  0  0  0  0999 V2000
    0.7020  -16.5910  -38.0990 O   0  0  0  0  0  0  0  0  0  0  0  0
    1.4590  -15.9700  -39.0360 C   0  0  0  0  0  2  0  0  0  0  0  0
    1.1980  -14.5880  -39.4730 C   0  0  0  0  0  2  0  0  0  0  0  0
    1.6780  -13.5180  -38.6660 N   0  0  0  0  0  0  0  0  0  0  0  0
    1.2830  -13.0680  -37.4770 C   0  0  0  0  0  0  0  0  0  0  0  0
   -0.1990  -13.6820  -36.4360 Br  0  0  0  0  0  0  0  0  0  0  0  0
    2.0520  -12.0350  -37.0580 N   0  0  0  0  0  0  0  0  0  0  0  0
    2.9500  -11.8310  -38.0120 C   0  0  0  0  0  0  0  0  0  0  0  0
    2.7370  -12.7420  -39.0250 C   0  0  0  0  0  0  0  0  0  0  0  0
    3.9630  -10.9300  -38.1370 N   0  0  0  0  0  0  0  0  0  0  0  0
    3.5210  -12.7640  -40.1610 C   0  0  0  0  0  0  0  0  0  0  0  0
    4.5180  -11.8360  -40.2270 N   0  0  0  0  0  0  0  0  0  0  0  0
    3.3410  -13.5830  -41.0970 O   0  0  0  0  0  0  0  0  0  0  0  0
    4.7170  -10.9540  -39.2350 C   0  0  0  0  0  0  0  0  0  0  0  0
    5.1160  -11.8430  -41.0810 H   0  0  0  0  0  0  0  0  0  0  0  0
    5.6500  -10.1040  -39.3220 O   0  0  0  0  0  0  0  0  0  0  0  0
    4.2200   -9.9570  -37.0950 C   0  0  0  0  0  1  0  0  0  0  0  0
    0.0420  -17.6890  -38.6260 C   0  0  0  0  0  2  0  0  0  0  0  0
    0.5060  -18.9270  -37.9190 C   0  0  0  0  0  2  0  0  0  0  0  0
    1.6080  -19.5460  -38.5850 N   0  0  0  0  0  0  0  0  0  0  0  0
    2.8960  -19.4440  -38.2320 C   0  0  0  0  0  0  0  0  0  0  0  0
    3.6290  -20.1700  -39.1180 C   0  0  0  0  0  0  0  0  0  0  0  0
    3.5280  -18.7780  -37.2000 C   0  0  0  0  0  0  0  0  0  0  0  0
    2.7710  -20.6960  -39.9880 N   0  0  0  0  0  0  0  0  0  0  0  0
    4.9650  -20.2390  -38.9900 N   0  0  0  0  0  0  0  0  0  0  0  0
    1.5120  -20.3330  -39.6910 C   0  0  0  0  0  0  0  0  0  0  0  0
   -0.1120  -20.7760  -40.5710 Br  0  0  0  0  0  0  0  0  0  0  0  0
    5.5540  -19.5900  -37.9880 C   0  0  0  0  0  0  0  0  0  0  0  0
    5.7620  -21.0070  -39.9240 C   0  0  0  0  0  1  0  0  0  0  0  0
    6.8070  -19.6640  -37.8800 O   0  0  0  0  0  0  0  0  0  0  0  0
    4.8570  -18.8770  -37.1130 N   0  0  0  0  0  0  0  0  0  0  0  0
    5.3370  -18.3750  -36.3350 H   0  0  0  0  0  0  0  0  0  0  0  0
    2.8970  -18.0840  -36.3400 O   0  0  0  0  0  0  0  0  0  0  0  0
  2  1  1  0  0  0  0
  3  2  1  0  0  0  0
  3  4  1  0  0  0  0
  4  5  1  0  0  0  0
  5  7  2  0  0  0  0
  5  6  1  0  0  0  0
  8  7  1  0  0  0  0
  9  4  1  0  0  0  0
  9  8  2  0  0  0  0
 10  8  1  0  0  0  0
 10 17  1  0  0  0  0
 11  9  1  0  0  0  0
 12 11  1  0  0  0  0
 12 14  1  0  0  0  0
 13 11  2  0  0  0  0
 14 10  1  0  0  0  0
 15 12  1  0  0  0  0
 16 14  2  0  0  0  0
 18  1  1  0  0  0  0
 18 19  1  0  0  0  0
 20 21  1  0  0  0  0
 20 19  1  0  0  0  0
 21 23  1  0  0  0  0
 22 25  1  0  0  0  0
 22 21  2  0  0  0  0
 23 31  1  0  0  0  0
 23 33  2  0  0  0  0
 24 26  2  0  0  0  0
 24 22  1  0  0  0  0
 25 28  1  0  0  0  0
 26 20  1  0  0  0  0
 27 26  1  0  0  0  0
 28 30  2  0  0  0  0
 28 31  1  0  0  0  0
 29 25  1  0  0  0  0
 31 32  1  0  0  0  0
M  END
>  <Pose>
1

>  <Score>
-6.115

$$$$
