/Users/jonathanwahrer/Desktop/Msc/3_Semester/Drug_Design_Praktikum/waehrer_HTS_screening/HTS_experiment/out/docking_results/vina_output/6y4q/1466_docked.pdbqt
 OpenBabel03232218263D

 29 32  0  0  0  0  0  0  0  0999 V2000
    1.3610  -17.3300  -37.0140 N   0  0  0  0  0  0  0  0  0  0  0  0
    2.3370  -17.3150  -36.1220 N   0  0  0  0  0  0  0  0  0  0  0  0
    3.2290  -18.2580  -36.3940 N   0  0  0  0  0  0  0  0  0  0  0  0
    2.8470  -18.9250  -37.4940 C   0  0  0  0  0  0  0  0  0  0  0  0
    1.6670  -18.3330  -37.8790 C   0  0  0  0  0  3  0  0  0  0  0  0
    0.1810  -16.4600  -37.0820 C   0  0  0  0  0  2  0  0  0  0  0  0
    0.5890  -15.1500  -36.4460 C   0  0  0  0  0  2  0  0  0  0  0  0
    1.6540  -14.5170  -37.2080 N   0  0  0  0  0  0  0  0  0  0  0  0
    1.8410  -13.1170  -37.0590 C   0  0  0  0  0  0  0  0  0  0  0  0
    1.0820  -12.4590  -36.2730 O   0  0  0  0  0  0  0  0  0  0  0  0
    2.2650  -15.0670  -37.8440 H   0  0  0  0  0  0  0  0  0  0  0  0
    2.8750  -12.3820  -37.7720 C   0  0  0  0  0  0  0  0  0  0  0  0
    3.6370  -11.4620  -37.1100 C   0  0  0  0  0  3  0  0  0  0  0  0
    4.6160  -10.7330  -37.6780 N   0  0  0  0  0  0  0  0  0  0  0  0
    4.8730  -10.9120  -38.9950 C   0  0  0  0  0  3  0  0  0  0  0  0
    4.1400  -11.8230  -39.7220 C   0  0  0  0  0  0  0  0  0  0  0  0
    4.5370  -12.0440  -41.5770 Br  0  0  0  0  0  0  0  0  0  0  0  0
    3.1300  -12.5710  -39.1160 C   0  0  0  0  0  3  0  0  0  0  0  0
    3.5270  -20.0320  -38.1420 C   0  0  0  0  0  0  0  0  0  0  0  0
    3.7390  -20.1960  -39.4600 N   0  0  0  0  0  0  0  0  0  0  0  0
    4.4030  -21.3460  -39.6640 C   0  0  0  0  0  0  0  0  0  0  0  0
    4.5910  -21.8780  -38.4460 N   0  0  0  0  0  0  0  0  0  0  0  0
    4.0630  -21.0780  -37.5710 O   0  0  0  0  0  0  0  0  0  0  0  0
    4.8360  -21.9100  -40.9600 C   0  0  0  0  0  0  0  0  0  0  0  0
    3.9840  -22.7220  -41.6720 C   0  0  0  0  0  3  0  0  0  0  0  0
    4.3680  -23.2410  -42.8540 N   0  0  0  0  0  0  0  0  0  0  0  0
    5.5780  -23.0050  -43.4020 C   0  0  0  0  0  3  0  0  0  0  0  0
    6.4250  -22.1870  -42.6800 C   0  0  0  0  0  3  0  0  0  0  0  0
    6.0750  -21.6390  -41.4740 C   0  0  0  0  0  3  0  0  0  0  0  0
  1  2  1  0  0  0  0
  3  2  2  0  0  0  0
  4  3  1  0  0  0  0
  5  4  2  0  0  0  0
  5  1  1  0  0  0  0
  6  1  1  0  0  0  0
  6  7  1  0  0  0  0
  8  9  1  0  0  0  0
  8  7  1  0  0  0  0
  9 10  2  0  0  0  0
 11  8  1  0  0  0  0
 12 13  1  0  0  0  0
 12  9  1  0  0  0  0
 14 13  2  0  0  0  0
 15 14  1  0  0  0  0
 16 18  1  0  0  0  0
 16 15  2  0  0  0  0
 17 16  1  0  0  0  0
 18 12  2  0  0  0  0
 19 23  1  0  0  0  0
 19  4  1  0  0  0  0
 20 19  2  0  0  0  0
 21 20  1  0  0  0  0
 21 22  2  0  0  0  0
 22 23  1  0  0  0  0
 24 21  1  0  0  0  0
 25 24  2  0  0  0  0
 26 25  1  0  0  0  0
 27 26  2  0  0  0  0
 27 28  1  0  0  0  0
 28 29  2  0  0  0  0
 29 24  1  0  0  0  0
M  END
>  <Pose>
1

>  <Score>
-6.837

$$$$
