/Users/jonathanwahrer/Desktop/Msc/3_Semester/Drug_Design_Praktikum/waehrer_HTS_screening/HTS_experiment/out/docking_results/vina_output/6y4q/1477_docked.pdbqt
 OpenBabel03232218273D

 35 39  0  0  1  0  0  0  0  0999 V2000
    1.8100  -17.0480  -38.6130 C   0  0  2  0  0  3  0  0  0  0  0  0
    2.1530  -17.7630  -37.4640 N   0  0  0  0  0  0  0  0  0  0  0  0
    1.7890  -16.9320  -36.3200 C   0  0  0  0  0  0  0  0  0  0  0  0
    1.8010  -17.2520  -35.1040 O   0  0  0  0  0  0  0  0  0  0  0  0
    1.3910  -15.6120  -36.7820 C   0  0  0  0  0  0  0  0  0  0  0  0
    1.0050  -14.6380  -36.0510 O   0  0  0  0  0  0  0  0  0  0  0  0
    1.5140  -15.6340  -38.2150 C   0  0  2  0  0  3  0  0  0  0  0  0
    1.3440  -14.6000  -39.0130 C   0  0  2  0  0  3  0  0  0  0  0  0
    0.0090  -14.3640  -39.4150 O   0  0  0  0  0  1  0  0  0  0  0  0
    2.3820  -13.7120  -39.5030 C   0  0  0  0  0  0  0  0  0  0  0  0
    3.0660  -12.7080  -38.9340 N   0  0  0  0  0  0  0  0  0  0  0  0
    3.9180  -12.1150  -39.7840 C   0  0  0  0  0  0  0  0  0  0  0  0
    2.9960  -12.2670  -37.6480 C   0  0  0  0  0  3  0  0  0  0  0  0
    3.7790  -12.7680  -40.9590 N   0  0  0  0  0  0  0  0  0  0  0  0
    4.7350  -11.0680  -39.4030 C   0  0  0  0  0  3  0  0  0  0  0  0
    2.8660  -13.7330  -40.8300 C   0  0  0  0  0  0  0  0  0  0  0  0
    2.4210  -14.6720  -41.8690 C   0  0  0  0  0  1  0  0  0  0  0  0
    4.6710  -10.6150  -38.1120 C   0  0  0  0  0  3  0  0  0  0  0  0
    3.7940  -11.2260  -37.2360 C   0  0  0  0  0  3  0  0  0  0  0  0
    0.8770  -17.5390  -39.6080 C   0  0  0  0  0  0  0  0  0  0  0  0
   -0.4600  -17.7830  -39.2670 C   0  0  0  0  0  3  0  0  0  0  0  0
   -1.3670  -18.2000  -40.2160 C   0  0  0  0  0  0  0  0  0  0  0  0
   -3.1770  -18.5250  -39.7500 Br  0  0  0  0  0  0  0  0  0  0  0  0
   -0.9890  -18.3900  -41.5300 C   0  0  0  0  0  3  0  0  0  0  0  0
    0.3230  -18.1600  -41.9050 C   0  0  0  0  0  3  0  0  0  0  0  0
    1.1880  -17.7480  -40.9340 C   0  0  0  0  0  3  0  0  0  0  0  0
    2.8240  -19.0050  -37.3400 C   0  0  0  0  0  2  0  0  0  0  0  0
    4.2710  -19.1120  -37.5050 C   0  0  0  0  0  2  0  0  0  0  0  0
    4.8500  -19.3190  -38.8000 N   0  0  0  0  0  4  0  0  0  0  0  0
    6.1170  -20.0180  -38.5870 C   0  0  0  0  0  2  0  0  0  0  0  0
    5.9650  -21.5050  -38.5780 C   0  0  0  0  0  2  0  0  0  0  0  0
    4.6130  -21.8720  -38.4970 O   0  0  0  0  0  0  0  0  0  0  0  0
    4.0460  -21.4410  -39.6760 C   0  0  0  0  0  2  0  0  0  0  0  0
    3.9770  -19.9600  -39.7240 C   0  0  0  0  0  2  0  0  0  0  0  0
    5.1640  -18.4030  -39.2390 H   0  0  0  0  0  0  0  0  0  0  0  0
  1 20  1  1  0  0  0
  1  7  1  0  0  0  0
  1  2  1  0  0  0  0
  2 27  1  0  0  0  0
  2  3  1  0  0  0  0
  3  4  2  0  0  0  0
  5  3  1  0  0  0  0
  5  6  2  0  0  0  0
  7  8  1  6  0  0  0
  7  5  1  0  0  0  0
  8  9  1  6  0  0  0
 10  8  1  0  0  0  0
 10 11  1  0  0  0  0
 11 13  1  0  0  0  0
 12 15  1  0  0  0  0
 12 11  1  0  0  0  0
 13 19  2  0  0  0  0
 14 16  1  0  0  0  0
 14 12  2  0  0  0  0
 15 18  2  0  0  0  0
 16 10  2  0  0  0  0
 17 16  1  0  0  0  0
 18 19  1  0  0  0  0
 20 21  1  0  0  0  0
 22 23  1  0  0  0  0
 22 21  2  0  0  0  0
 24 22  1  0  0  0  0
 25 24  2  0  0  0  0
 25 26  1  0  0  0  0
 26 20  2  0  0  0  0
 28 27  1  0  0  0  0
 29 30  1  0  0  0  0
 29 28  1  0  0  0  0
 30 31  1  0  0  0  0
 31 32  1  0  0  0  0
 33 32  1  0  0  0  0
 34 33  1  0  0  0  0
 34 29  1  0  0  0  0
 35 29  1  0  0  0  0
M  END
>  <Pose>
1

>  <Score>
-6.717

$$$$
