/Users/jonathanwahrer/Desktop/Msc/3_Semester/Drug_Design_Praktikum/waehrer_HTS_screening/HTS_experiment/out/docking_results/vina_output/6y4q/1491_docked.pdbqt
 OpenBabel03232218273D

 34 38  0  0  0  0  0  0  0  0999 V2000
   -1.1670  -21.0430  -41.6870 F   0  0  0  0  0  0  0  0  0  0  0  0
    0.1470  -21.1230  -41.4110 C   0  0  0  0  0  0  0  0  0  0  0  0
    0.8290  -22.0740  -42.1640 C   0  0  0  0  0  3  0  0  0  0  0  0
    2.1830  -22.2600  -41.9930 C   0  0  0  0  0  0  0  0  0  0  0  0
    2.8320  -21.4800  -41.0650 C   0  0  0  0  0  0  0  0  0  0  0  0
    2.1320  -20.5340  -40.3240 C   0  0  0  0  0  3  0  0  0  0  0  0
    0.7860  -20.3400  -40.4830 C   0  0  0  0  0  0  0  0  0  0  0  0
    4.1570  -21.6790  -40.9170 N   0  0  0  0  0  0  0  0  0  0  0  0
    4.8380  -22.5930  -41.6310 C   0  0  0  0  0  3  0  0  0  0  0  0
    4.2180  -23.3900  -42.5680 C   0  0  0  0  0  0  0  0  0  0  0  0
    2.8660  -23.2200  -42.7530 C   0  0  0  0  0  0  0  0  0  0  0  0
    2.2400  -23.9120  -43.5900 O   0  0  0  0  0  0  0  0  0  0  0  0
    0.1180  -19.3880  -39.7140 N   0  0  0  0  0  4  0  0  0  0  0  0
    0.3580  -18.0140  -40.0760 C   0  0  0  0  0  2  0  0  0  0  0  0
   -0.5570  -17.0850  -39.2430 C   0  0  0  0  0  2  0  0  0  0  0  0
   -0.1560  -17.2630  -37.9030 N   0  0  0  0  0  0  0  0  0  0  0  0
   -0.5290  -18.6520  -37.4270 C   0  0  0  0  0  2  0  0  0  0  0  0
    0.5140  -16.4860  -37.0200 C   0  0  0  0  0  0  0  0  0  0  0  0
    0.3000  -19.5360  -38.3070 C   0  0  0  0  0  2  0  0  0  0  0  0
    0.6340  -16.9840  -35.8120 O   0  0  0  0  0  0  0  0  0  0  0  0
   -0.9230  -19.5430  -39.8890 H   0  0  0  0  0  0  0  0  0  0  0  0
    1.1270  -15.1950  -37.1660 C   0  0  0  0  0  0  0  0  0  0  0  0
    1.8220  -14.7960  -38.2610 C   0  0  0  0  0  3  0  0  0  0  0  0
    2.3500  -13.5170  -38.3810 C   0  0  0  0  0  0  0  0  0  0  0  0
    2.1710  -12.6210  -37.3600 C   0  0  0  0  0  3  0  0  0  0  0  0
    3.2450  -13.0430  -39.8270 Cl  0  0  0  0  0  0  0  0  0  0  0  0
    1.4810  -12.9720  -36.2340 C   0  0  0  0  0  3  0  0  0  0  0  0
    0.9740  -14.2320  -36.1460 C   0  0  0  0  0  3  0  0  0  0  0  0
    4.8320  -20.8380  -39.9210 C   0  0  0  0  0  3  0  0  0  0  0  0
    6.0820  -21.2690  -39.2900 C   0  0  0  0  0  2  0  0  0  0  0  0
    4.8720  -21.4740  -38.4920 C   0  0  0  0  0  2  0  0  0  0  0  0
    4.9800  -24.3870  -43.3430 C   0  0  0  0  0  0  0  0  0  0  0  0
    5.0450  -25.5820  -43.0120 O   0  0  0  0  0  1  0  0  0  0  0  0
    5.6370  -23.9620  -44.4760 O   0  0  0  0  0  0  0  0  0  0  0  0
  1  2  1  0  0  0  0
  2  7  1  0  0  0  0
  3  4  1  0  0  0  0
  3  2  2  0  0  0  0
  4  5  2  0  0  0  0
  5  8  1  0  0  0  0
  5  6  1  0  0  0  0
  7  6  2  0  0  0  0
  7 13  1  0  0  0  0
  8 29  1  0  0  0  0
  9  8  1  0  0  0  0
 10  9  2  0  0  0  0
 11 10  1  0  0  0  0
 11  4  1  0  0  0  0
 12 11  2  0  0  0  0
 13 19  1  0  0  0  0
 14 13  1  0  0  0  0
 14 15  1  0  0  0  0
 15 16  1  0  0  0  0
 16 17  1  0  0  0  0
 16 18  1  0  0  0  0
 18 20  2  0  0  0  0
 19 17  1  0  0  0  0
 21 13  1  0  0  0  0
 22 18  1  0  0  0  0
 22 28  1  0  0  0  0
 23 22  2  0  0  0  0
 24 23  1  0  0  0  0
 24 25  2  0  0  0  0
 25 27  1  0  0  0  0
 26 24  1  0  0  0  0
 27 28  2  0  0  0  0
 29 30  1  0  0  0  0
 29 31  1  0  0  0  0
 30 31  1  0  0  0  0
 32 33  1  0  0  0  0
 32 10  1  0  0  0  0
 34 32  2  0  0  0  0
M  END
>  <Pose>
1

>  <Score>
-7.027

$$$$
