/Users/jonathanwahrer/Desktop/Msc/3_Semester/Drug_Design_Praktikum/waehrer_HTS_screening/HTS_experiment/out/docking_results/vina_output/6y4q/1506_docked.pdbqt
 OpenBabel03232218283D

 32 35  0  0  1  0  0  0  0  0999 V2000
   -1.9440  -14.3660  -36.2910 N   0  0  0  0  0  0  0  0  0  0  0  0
   -1.4820  -15.1890  -37.3810 C   0  0  0  0  0  0  0  0  0  0  0  0
   -0.9330  -14.6490  -38.3550 O   0  0  0  0  0  0  0  0  0  0  0  0
   -2.3560  -14.8770  -35.5150 H   0  0  0  0  0  0  0  0  0  0  0  0
   -1.6460  -16.6610  -37.3650 C   0  0  2  0  0  3  0  0  0  0  0  0
   -0.7810  -17.2160  -36.2550 C   0  0  0  0  0  2  0  0  0  0  0  0
    0.6580  -17.0800  -36.6990 C   0  0  0  0  0  2  0  0  0  0  0  0
    0.8300  -18.0490  -37.7770 N   0  0  0  0  0  0  0  0  0  0  0  0
   -0.2410  -18.3070  -38.6790 C   0  0  0  0  0  2  0  0  0  0  0  0
   -1.3440  -17.3120  -38.6640 C   0  0  0  0  0  2  0  0  0  0  0  0
    2.0810  -18.7000  -37.8770 C   0  0  0  0  0  0  0  0  0  0  0  0
    2.3390  -19.6550  -38.7900 N   0  0  0  0  0  0  0  0  0  0  0  0
    3.5000  -20.2730  -38.8950 N   0  0  0  0  0  0  0  0  0  0  0  0
    3.9300  -21.2230  -39.7190 N   0  0  0  0  0  0  0  0  0  0  0  0
    4.5330  -19.9980  -38.0910 C   0  0  0  0  0  0  0  0  0  0  0  0
    5.1690  -21.5360  -39.4530 N   0  0  0  0  0  0  0  0  0  0  0  0
    5.5680  -20.7880  -38.4460 N   0  0  0  0  0  0  0  0  0  0  0  0
    4.3310  -19.0250  -37.1290 C   0  0  0  0  0  3  0  0  0  0  0  0
    3.1170  -18.3770  -37.0180 C   0  0  0  0  0  3  0  0  0  0  0  0
   -1.7390  -12.9760  -36.4020 C   0  0  0  0  0  2  0  0  0  0  0  0
   -0.5380  -12.3170  -35.8620 C   0  0  0  0  0  2  0  0  0  0  0  0
    0.5450  -12.0630  -36.7330 N   0  0  0  0  0  0  0  0  0  0  0  0
    1.7300  -12.7510  -36.9510 C   0  0  0  0  0  0  0  0  0  0  0  0
    2.0040  -13.8060  -36.3390 O   0  0  0  0  0  0  0  0  0  0  0  0
    0.4740  -11.1530  -37.3690 H   0  0  0  0  0  0  0  0  0  0  0  0
    2.7530  -12.2890  -37.9180 C   0  0  0  0  0  0  0  0  0  0  0  0
    3.6170  -11.2750  -37.5660 C   0  0  0  0  0  3  0  0  0  0  0  0
    4.5870  -10.8190  -38.4270 C   0  0  0  0  0  3  0  0  0  0  0  0
    4.7030  -11.3910  -39.6830 C   0  0  0  0  0  0  0  0  0  0  0  0
    5.9380  -10.8170  -40.7910 Cl  0  0  0  0  0  0  0  0  0  0  0  0
    3.8610  -12.4020  -40.0650 C   0  0  0  0  0  3  0  0  0  0  0  0
    2.8870  -12.8400  -39.1650 C   0  0  0  0  0  3  0  0  0  0  0  0
  1  4  1  0  0  0  0
  2  1  1  0  0  0  0
  3  2  2  0  0  0  0
  5  2  1  6  0  0  0
  5  6  1  0  0  0  0
  7  6  1  0  0  0  0
  8  7  1  0  0  0  0
  9 10  1  0  0  0  0
  9  8  1  0  0  0  0
 10  5  1  0  0  0  0
 11  8  1  0  0  0  0
 11 19  1  0  0  0  0
 12 11  2  0  0  0  0
 13 12  1  0  0  0  0
 13 15  1  0  0  0  0
 14 16  2  0  0  0  0
 14 13  1  0  0  0  0
 15 18  1  0  0  0  0
 16 17  1  0  0  0  0
 17 15  2  0  0  0  0
 18 19  2  0  0  0  0
 20  1  1  0  0  0  0
 20 21  1  0  0  0  0
 22 21  1  0  0  0  0
 23 22  1  0  0  0  0
 23 24  2  0  0  0  0
 25 22  1  0  0  0  0
 26 27  1  0  0  0  0
 26 23  1  0  0  0  0
 28 27  2  0  0  0  0
 29 28  1  0  0  0  0
 30 29  1  0  0  0  0
 31 29  2  0  0  0  0
 31 32  1  0  0  0  0
 32 26  2  0  0  0  0
M  END
>  <Pose>
1

>  <Score>
-6.912

$$$$
