/Users/jonathanwahrer/Desktop/Msc/3_Semester/Drug_Design_Praktikum/waehrer_HTS_screening/HTS_experiment/out/docking_results/vina_output/6y4q/1521_docked.pdbqt
 OpenBabel03232218293D

 24 27  0  0  1  0  0  0  0  0999 V2000
    1.9020  -12.9620  -38.2080 Cl  0  0  0  0  0  0  0  0  0  0  0  0
    1.5720  -14.6070  -37.7060 C   0  0  0  0  0  0  0  0  0  0  0  0
    1.7100  -15.6310  -38.6110 C   0  0  0  0  0  0  0  0  0  0  0  0
    2.0650  -15.7040  -39.9050 N   0  0  0  0  0  0  0  0  0  0  0  0
    2.0460  -16.9740  -40.3520 C   0  0  0  0  0  0  0  0  0  0  0  0
    1.6550  -17.7380  -39.2730 C   0  0  0  0  0  0  0  0  0  0  0  0
    1.4410  -16.9210  -38.1840 C   0  0  0  0  0  0  0  0  0  0  0  0
    1.0490  -17.1330  -36.8790 C   0  0  0  0  0  3  0  0  0  0  0  0
    0.9050  -16.1290  -35.9540 C   0  0  0  0  0  3  0  0  0  0  0  0
    1.1750  -14.8350  -36.3880 C   0  0  0  0  0  3  0  0  0  0  0  0
    1.5600  -19.1990  -39.5200 C   0  0  0  0  0  2  0  0  0  0  0  0
    2.8260  -19.5530  -40.1220 N   0  0  0  0  0  0  0  0  0  0  0  0
    3.0420  -19.0170  -41.4090 C   0  0  0  0  0  2  0  0  0  0  0  0
    2.3120  -17.7080  -41.6070 C   0  0  0  0  0  2  0  0  0  0  0  0
    2.3350  -14.8950  -40.5330 H   0  0  0  0  0  0  0  0  0  0  0  0
    3.2690  -20.8530  -39.8440 C   0  0  0  0  0  2  0  0  0  0  0  0
    4.4670  -20.8880  -38.9440 C   0  0  1  0  0  0  0  0  0  0  0  0
    5.6850  -20.2800  -39.5490 C   0  0  0  0  0  2  0  0  0  0  0  0
    6.1880  -19.2440  -38.7150 N   0  0  0  0  0  0  0  0  0  0  0  0
    5.3220  -19.0800  -37.5930 C   0  0  0  0  0  3  0  0  0  0  0  0
    7.1900  -19.3720  -38.4350 H   0  0  0  0  0  0  0  0  0  0  0  0
    4.1840  -20.0330  -37.7380 C   0  0  0  0  0  3  0  0  0  0  0  0
    4.7030  -22.1860  -38.4710 O   0  0  0  0  0  0  0  0  0  0  0  0
    3.8250  -22.5190  -38.1450 H   0  0  0  0  0  0  0  0  0  0  0  0
  1  2  1  0  0  0  0
  2 10  1  0  0  0  0
  3  7  1  0  0  0  0
  3  2  2  0  0  0  0
  4  3  1  0  0  0  0
  5  4  1  0  0  0  0
  5  6  2  0  0  0  0
  6  7  1  0  0  0  0
  7  8  2  0  0  0  0
  8  9  1  0  0  0  0
 10  9  2  0  0  0  0
 11  6  1  0  0  0  0
 12 16  1  0  0  0  0
 12 11  1  0  0  0  0
 13 12  1  0  0  0  0
 14 13  1  0  0  0  0
 14  5  1  0  0  0  0
 15  4  1  0  0  0  0
 17 16  1  6  0  0  0
 17 23  1  0  0  0  0
 17 22  1  0  0  0  0
 18 17  1  0  0  0  0
 18 19  1  0  0  0  0
 19 21  1  0  0  0  0
 19 20  1  0  0  0  0
 22 20  2  0  0  0  0
 23 24  1  0  0  0  0
M  END
>  <Pose>
1

>  <Score>
-6.058

$$$$
