/Users/jonathanwahrer/Desktop/Msc/3_Semester/Drug_Design_Praktikum/waehrer_HTS_screening/HTS_experiment/out/docking_results/vina_output/6y4q/1525_docked.pdbqt
 OpenBabel03232218293D

 26 29  0  0  1  0  0  0  0  0999 V2000
    2.3600  -18.3240  -37.4950 N   0  0  0  0  0  0  0  0  0  0  0  0
    2.1020  -19.1390  -38.6320 C   0  0  0  0  0  0  0  0  0  0  0  0
    1.0400  -19.0810  -39.2970 O   0  0  0  0  0  0  0  0  0  0  0  0
    3.2740  -19.9860  -38.8190 C   0  0  2  0  0  3  0  0  0  0  0  0
    3.8050  -20.1520  -37.4110 C   0  0  0  0  0  2  0  0  0  0  0  0
    3.3540  -18.9550  -36.6780 C   0  0  0  0  0  0  0  0  0  0  0  0
    3.7490  -18.5480  -35.5530 O   0  0  0  0  0  0  0  0  0  0  0  0
    4.2480  -19.5260  -39.7250 N   0  0  2  0  0  0  0  0  0  0  0  0
    3.8120  -18.8810  -40.8970 C   0  0  0  0  0  2  0  0  0  0  0  0
    3.7920  -19.9050  -42.0410 C   0  0  0  0  0  2  0  0  0  0  0  0
    4.5900  -21.0650  -41.6760 N   0  0  0  0  0  0  0  0  0  0  0  0
    5.7980  -20.9480  -40.8840 C   0  0  0  0  0  2  0  0  0  0  0  0
    5.5460  -20.0370  -39.7050 C   0  0  0  0  0  2  0  0  0  0  0  0
    4.1960  -22.3850  -42.0740 C   0  0  0  0  0  0  0  0  0  0  0  0
    2.9570  -22.8510  -41.8080 N   0  0  0  0  0  0  0  0  0  0  0  0
    2.5880  -24.0860  -42.1990 C   0  0  0  0  0  3  0  0  0  0  0  0
    3.4610  -24.9210  -42.8870 C   0  0  0  0  0  3  0  0  0  0  0  0
    4.7280  -24.4370  -43.1570 C   0  0  0  0  0  3  0  0  0  0  0  0
    5.0370  -23.1960  -42.7400 N   0  0  0  0  0  0  0  0  0  0  0  0
    1.7180  -17.0740  -37.2420 C   0  0  0  0  0  0  0  0  0  0  0  0
    1.9860  -15.9270  -37.9590 C   0  0  0  0  0  3  0  0  0  0  0  0
    1.3310  -14.7320  -37.6750 C   0  0  0  0  0  0  0  0  0  0  0  0
    1.6940  -13.1430  -38.6590 Br  0  0  0  0  0  0  0  0  0  0  0  0
    0.3940  -14.6660  -36.6670 C   0  0  0  0  0  3  0  0  0  0  0  0
    0.1130  -15.7970  -35.9400 C   0  0  0  0  0  3  0  0  0  0  0  0
    0.7670  -16.9630  -36.2340 C   0  0  0  0  0  3  0  0  0  0  0  0
  1 20  1  0  0  0  0
  1  6  1  0  0  0  0
  2  1  1  0  0  0  0
  3  2  2  0  0  0  0
  4  2  1  0  0  0  0
  4  5  1  1  0  0  0
  5  6  1  0  0  0  0
  6  7  2  0  0  0  0
  8  9  1  6  0  0  0
  8 13  1  0  0  0  0
  8  4  1  0  0  0  0
 10 11  1  0  0  0  0
 10  9  1  0  0  0  0
 11 12  1  0  0  0  0
 12 13  1  0  0  0  0
 14 15  2  0  0  0  0
 14 11  1  0  0  0  0
 16 15  1  0  0  0  0
 17 16  2  0  0  0  0
 18 17  1  0  0  0  0
 18 19  2  0  0  0  0
 19 14  1  0  0  0  0
 20 26  1  0  0  0  0
 21 22  1  0  0  0  0
 21 20  2  0  0  0  0
 22 24  2  0  0  0  0
 23 22  1  0  0  0  0
 24 25  1  0  0  0  0
 26 25  2  0  0  0  0
M  END
>  <Pose>
1

>  <Score>
-6.397

$$$$
