/Users/jonathanwahrer/Desktop/Msc/3_Semester/Drug_Design_Praktikum/waehrer_HTS_screening/HTS_experiment/out/docking_results/vina_output/6y4q/1533_docked.pdbqt
 OpenBabel03232218303D

 28 31  0  0  1  0  0  0  0  0999 V2000
    1.8300  -18.1120  -37.5810 C   0  0  0  0  0  0  0  0  0  0  0  0
    0.4920  -18.1810  -37.8030 N   0  0  0  0  0  0  0  0  0  0  0  0
   -0.1050  -17.1230  -37.2470 C   0  0  2  0  0  3  0  0  0  0  0  0
    0.8280  -16.3240  -36.6440 N   0  0  0  0  0  0  0  0  0  0  0  0
    2.0020  -16.9410  -36.8560 C   0  0  0  0  0  3  0  0  0  0  0  0
   -1.5700  -17.1680  -37.4570 C   0  0  0  0  0  2  0  0  0  0  0  0
   -1.6760  -18.0750  -38.6520 C   0  0  0  0  0  2  0  0  0  0  0  0
   -0.5140  -19.0210  -38.4560 C   0  0  0  0  0  2  0  0  0  0  0  0
    0.5810  -15.1220  -35.9020 C   0  0  0  0  0  3  0  0  0  0  0  0
    1.0860  -13.8410  -36.3140 C   0  0  0  0  0  0  0  0  0  0  0  0
    0.7350  -12.8540  -35.4950 O   0  0  0  0  0  1  0  0  0  0  0  0
    1.8900  -13.3870  -37.4200 C   0  0  0  0  0  0  0  0  0  0  0  0
    2.7900  -12.3130  -37.2380 C   0  0  0  0  0  3  0  0  0  0  0  0
    3.5960  -11.8130  -38.2270 C   0  0  0  0  0  0  0  0  0  0  0  0
    3.5020  -12.4160  -39.4650 C   0  0  0  0  0  3  0  0  0  0  0  0
    2.6330  -13.4650  -39.6680 C   0  0  0  0  0  3  0  0  0  0  0  0
    1.8140  -13.9690  -38.6560 C   0  0  0  0  0  3  0  0  0  0  0  0
    4.4910  -10.7350  -38.0230 N   0  0  0  0  0  0  0  0  0  0  0  0
    5.4220  -10.5640  -38.8170 O   0  0  0  0  0  0  0  0  0  0  0  0
    4.3550   -9.8750  -36.9720 O   0  0  0  0  0  0  0  0  0  0  0  0
    2.9050  -19.0190  -37.9830 C   0  0  0  0  0  0  0  0  0  0  0  0
    2.5880  -20.1100  -38.7610 C   0  0  0  0  0  3  0  0  0  0  0  0
    3.5680  -21.0080  -39.1930 C   0  0  0  0  0  3  0  0  0  0  0  0
    4.8780  -20.7930  -38.8310 C   0  0  0  0  0  0  0  0  0  0  0  0
    5.1980  -19.7140  -38.0600 C   0  0  0  0  0  0  0  0  0  0  0  0
    6.1000  -21.9380  -39.3870 Cl  0  0  0  0  0  0  0  0  0  0  0  0
    6.8750  -19.4720  -37.6180 Cl  0  0  0  0  0  0  0  0  0  0  0  0
    4.2110  -18.8290  -37.6380 C   0  0  0  0  0  3  0  0  0  0  0  0
  1  5  2  0  0  0  0
  2  1  1  0  0  0  0
  2  3  1  0  0  0  0
  3  6  1  1  0  0  0
  3  4  1  0  0  0  0
  4  9  1  0  0  0  0
  5  4  1  0  0  0  0
  7  8  1  0  0  0  0
  7  6  1  0  0  0  0
  8  2  1  0  0  0  0
 10  9  2  0  0  0  0
 10 11  1  0  0  0  0
 12 13  1  0  0  0  0
 12 10  1  0  0  0  0
 14 18  1  0  0  0  0
 14 13  2  0  0  0  0
 15 14  1  0  0  0  0
 16 15  2  0  0  0  0
 16 17  1  0  0  0  0
 17 12  2  0  0  0  0
 18 20  2  0  0  0  0
 19 18  2  0  0  0  0
 21 28  1  0  0  0  0
 21  1  1  0  0  0  0
 22 21  2  0  0  0  0
 23 24  2  0  0  0  0
 23 22  1  0  0  0  0
 24 25  1  0  0  0  0
 25 28  2  0  0  0  0
 25 27  1  0  0  0  0
 26 24  1  0  0  0  0
M  END
>  <Pose>
1

>  <Score>
-8.158

$$$$
