/Users/jonathanwahrer/Desktop/Msc/3_Semester/Drug_Design_Praktikum/waehrer_HTS_screening/HTS_experiment/out/docking_results/vina_output/6y4q/1536_docked.pdbqt
 OpenBabel03232218303D

 31 34  0  0  1  0  0  0  0  0999 V2000
    1.2090  -16.2050  -38.8740 S   0  0  0  0  0  0  0  0  0  0  0  0
   -0.2690  -16.0030  -39.2240 O   0  0  0  0  0  0  0  0  0  0  0  0
    1.8410  -16.5490  -40.2250 O   0  0  0  0  0  0  0  0  0  0  0  0
    1.3300  -17.5000  -37.8550 N   0  0  0  0  0  0  0  0  0  0  0  0
    2.3860  -17.7140  -36.9760 C   0  0  0  0  0  2  0  0  0  0  0  0
    3.5200  -18.5480  -37.4790 C   0  0  0  0  0  2  0  0  0  0  0  0
    3.0220  -19.4270  -38.6240 C   0  0  2  0  0  3  0  0  0  0  0  0
    1.6460  -19.9090  -38.1350 C   0  0  0  0  0  2  0  0  0  0  0  0
    0.7150  -18.7260  -38.3500 C   0  0  0  0  0  2  0  0  0  0  0  0
    3.9190  -20.5360  -38.8990 C   0  0  0  0  0  0  0  0  0  0  0  0
    4.1520  -21.3850  -38.0000 O   0  0  0  0  0  0  0  0  0  0  0  0
    4.5350  -20.6890  -40.1460 N   0  0  0  0  0  0  0  0  0  0  0  0
    5.4150  -21.8180  -40.4690 C   0  0  0  0  0  2  0  0  0  0  0  0
    4.3540  -19.7200  -41.1900 C   0  0  0  0  0  2  0  0  0  0  0  0
    6.0310  -21.5050  -41.8170 C   0  0  0  0  0  2  0  0  0  0  0  0
    5.0010  -21.4180  -42.8340 N   0  0  0  0  0  0  0  0  0  0  0  0
    4.0360  -20.3790  -42.5210 C   0  0  0  0  0  2  0  0  0  0  0  0
    5.5790  -21.2030  -44.1420 C   0  0  0  0  0  1  0  0  0  0  0  0
    1.7740  -14.6520  -38.3290 C   0  0  0  0  0  0  0  0  0  0  0  0
    2.5920  -13.8850  -39.1760 C   0  0  0  0  0  3  0  0  0  0  0  0
    3.1160  -12.6760  -38.7990 C   0  0  0  0  0  0  0  0  0  0  0  0
    2.8460  -12.1830  -37.5600 C   0  0  0  0  0  0  0  0  0  0  0  0
    3.9280  -11.9400  -39.6710 O   0  0  0  0  0  0  0  0  0  0  0  0
    2.0530  -12.8870  -36.6890 C   0  0  0  0  0  3  0  0  0  0  0  0
    3.4090  -10.9150  -37.1790 N   0  0  0  0  0  0  0  0  0  0  0  0
    1.5300  -14.1150  -37.0990 C   0  0  0  0  0  0  0  0  0  0  0  0
    0.4590  -14.9350  -35.9760 Cl  0  0  0  0  0  0  0  0  0  0  0  0
    4.2290  -10.2120  -38.0960 C   0  0  0  0  0  0  0  0  0  0  0  0
    3.2070  -10.5300  -36.2350 H   0  0  0  0  0  0  0  0  0  0  0  0
    4.4290   -8.9840  -37.9900 O   0  0  0  0  0  0  0  0  0  0  0  0
    4.8480  -10.9920  -39.2000 C   0  0  0  0  0  2  0  0  0  0  0  0
  1 19  1  0  0  0  0
  1  4  1  0  0  0  0
  2  1  2  0  0  0  0
  3  1  2  0  0  0  0
  4  5  1  0  0  0  0
  6  5  1  0  0  0  0
  7 10  1  1  0  0  0
  7  8  1  0  0  0  0
  7  6  1  0  0  0  0
  9  8  1  0  0  0  0
  9  4  1  0  0  0  0
 10 11  2  0  0  0  0
 12 10  1  0  0  0  0
 13 12  1  0  0  0  0
 14 12  1  0  0  0  0
 15 13  1  0  0  0  0
 16 17  1  0  0  0  0
 16 15  1  0  0  0  0
 17 14  1  0  0  0  0
 18 16  1  0  0  0  0
 19 26  1  0  0  0  0
 20 21  1  0  0  0  0
 20 19  2  0  0  0  0
 21 22  2  0  0  0  0
 22 25  1  0  0  0  0
 22 24  1  0  0  0  0
 23 31  1  0  0  0  0
 23 21  1  0  0  0  0
 25 29  1  0  0  0  0
 26 24  2  0  0  0  0
 26 27  1  0  0  0  0
 28 30  2  0  0  0  0
 28 25  1  0  0  0  0
 31 28  1  0  0  0  0
M  END
>  <Pose>
1

>  <Score>
-7.275

$$$$
