/Users/jonathanwahrer/Desktop/Msc/3_Semester/Drug_Design_Praktikum/waehrer_HTS_screening/HTS_experiment/out/docking_results/vina_output/6y4q/1539_docked.pdbqt
 OpenBabel03232218313D

 34 37  0  0  1  0  0  0  0  0999 V2000
    0.8930  -18.5380  -37.5030 C   0  0  2  0  0  3  0  0  0  0  0  0
    0.1260  -18.7850  -38.7310 N   0  0  0  0  0  0  0  0  0  0  0  0
    0.6520  -17.8700  -39.6820 C   0  0  0  0  0  0  0  0  0  0  0  0
    0.6720  -18.0080  -40.9160 O   0  0  0  0  0  0  0  0  0  0  0  0
    1.1630  -16.7360  -38.9180 C   0  0  0  0  0  0  0  0  0  0  0  0
    1.7270  -15.6710  -39.3070 O   0  0  0  0  0  0  0  0  0  0  0  0
    0.9040  -17.0460  -37.5040 C   0  0  0  0  0  0  0  0  0  0  0  0
    0.7580  -16.1790  -36.5210 C   0  0  0  0  0  0  0  0  0  0  0  0
    0.5590  -16.6700  -35.2280 O   0  0  0  0  0  1  0  0  0  0  0  0
    2.2500  -19.0780  -37.7580 C   0  0  0  0  0  0  0  0  0  0  0  0
    3.3630  -18.5630  -37.1290 C   0  0  0  0  0  3  0  0  0  0  0  0
    4.6360  -19.0460  -37.3480 C   0  0  0  0  0  3  0  0  0  0  0  0
    4.8480  -20.0910  -38.2280 C   0  0  0  0  0  0  0  0  0  0  0  0
    6.4670  -20.7240  -38.5220 Cl  0  0  0  0  0  0  0  0  0  0  0  0
    3.7530  -20.6200  -38.8670 C   0  0  0  0  0  3  0  0  0  0  0  0
    2.4850  -20.1360  -38.6460 C   0  0  0  0  0  3  0  0  0  0  0  0
    0.7900  -14.7390  -36.7240 C   0  0  0  0  0  0  0  0  0  0  0  0
    1.9760  -14.0240  -36.7640 C   0  0  0  0  0  3  0  0  0  0  0  0
    2.0010  -12.6550  -36.9300 C   0  0  0  0  0  0  0  0  0  0  0  0
    0.8210  -11.9360  -37.0640 C   0  0  0  0  0  0  0  0  0  0  0  0
    3.2920  -11.9340  -36.9670 C   0  0  0  0  0  1  0  0  0  0  0  0
   -0.3640  -12.6340  -37.0250 C   0  0  0  0  0  3  0  0  0  0  0  0
   -0.3760  -14.0210  -36.8570 C   0  0  0  0  0  3  0  0  0  0  0  0
    0.8290  -10.5540  -37.2330 O   0  0  0  0  0  0  0  0  0  0  0  0
   -0.3310   -9.8260  -36.9390 C   0  0  0  0  0  1  0  0  0  0  0  0
   -0.9430  -19.7660  -38.9220 C   0  0  0  0  0  2  0  0  0  0  0  0
   -1.7060  -19.8290  -37.6200 C   0  0  0  0  0  2  0  0  0  0  0  0
   -3.0260  -19.2680  -37.7250 N   0  0  0  0  0  4  0  0  0  0  0  0
   -3.1590  -18.4920  -38.9150 C   0  0  0  0  0  2  0  0  0  0  0  0
   -2.9560  -17.0210  -38.7650 C   0  0  0  0  0  2  0  0  0  0  0  0
   -3.3430  -16.4970  -37.5610 O   0  0  0  0  0  0  0  0  0  0  0  0
   -2.7930  -17.1590  -36.4720 C   0  0  0  0  0  2  0  0  0  0  0  0
   -3.3240  -18.5680  -36.5070 C   0  0  0  0  0  2  0  0  0  0  0  0
   -3.6800  -20.0980  -37.8150 H   0  0  0  0  0  0  0  0  0  0  0  0
  1 10  1  6  0  0  0
  2  1  1  0  0  0  0
  3  5  1  0  0  0  0
  3  2  1  0  0  0  0
  4  3  2  0  0  0  0
  5  7  1  0  0  0  0
  6  5  2  0  0  0  0
  7  1  1  0  0  0  0
  7  8  2  0  0  0  0
  8  9  1  0  0  0  0
 10 11  1  0  0  0  0
 12 11  2  0  0  0  0
 13 12  1  0  0  0  0
 14 13  1  0  0  0  0
 15 16  1  0  0  0  0
 15 13  2  0  0  0  0
 16 10  2  0  0  0  0
 17  8  1  0  0  0  0
 18 17  1  0  0  0  0
 19 18  2  0  0  0  0
 20 22  2  0  0  0  0
 20 19  1  0  0  0  0
 21 19  1  0  0  0  0
 22 23  1  0  0  0  0
 23 17  2  0  0  0  0
 24 20  1  0  0  0  0
 24 25  1  0  0  0  0
 26  2  1  0  0  0  0
 26 27  1  0  0  0  0
 28 27  1  0  0  0  0
 28 33  1  0  0  0  0
 29 30  1  0  0  0  0
 29 28  1  0  0  0  0
 30 31  1  0  0  0  0
 31 32  1  0  0  0  0
 33 32  1  0  0  0  0
 34 28  1  0  0  0  0
M  END
>  <Pose>
1

>  <Score>
-6.702

$$$$
