/Users/jonathanwahrer/Desktop/Msc/3_Semester/Drug_Design_Praktikum/waehrer_HTS_screening/HTS_experiment/out/docking_results/vina_output/6y4q/1553_docked.pdbqt
 OpenBabel03232218313D

 29 32  0  0  1  0  0  0  0  0999 V2000
    1.4660  -18.0610  -37.3520 C   0  0  1  0  0  3  0  0  0  0  0  0
    0.2380  -18.6460  -37.7380 N   0  0  0  0  0  4  0  0  0  0  0  0
    0.2800  -20.0050  -38.1920 C   0  0  2  0  0  3  0  0  0  0  0  0
    1.3070  -20.1210  -39.3310 C   0  0  0  0  0  2  0  0  0  0  0  0
    2.5930  -19.8080  -38.6790 C   0  0  0  0  0  0  0  0  0  0  0  0
    3.8570  -20.3560  -38.8300 C   0  0  0  0  0  0  0  0  0  0  0  0
    4.6810  -19.6810  -37.9570 C   0  0  0  0  0  0  0  0  0  0  0  0
    3.9700  -18.7570  -37.2920 N   0  0  0  0  0  0  0  0  0  0  0  0
    2.6720  -18.8310  -37.7360 C   0  0  0  0  0  0  0  0  0  0  0  0
    6.0140  -20.0470  -37.9150 C   0  0  0  0  0  3  0  0  0  0  0  0
    6.4530  -21.0550  -38.7370 C   0  0  0  0  0  3  0  0  0  0  0  0
    5.6270  -21.7280  -39.6080 C   0  0  0  0  0  3  0  0  0  0  0  0
    4.2810  -21.3700  -39.6610 C   0  0  0  0  0  3  0  0  0  0  0  0
   -0.4100  -18.6250  -36.8870 H   0  0  0  0  0  0  0  0  0  0  0  0
   -0.2860  -18.1050  -38.4710 H   0  0  0  0  0  0  0  0  0  0  0  0
    4.2910  -18.0740  -36.5580 H   0  0  0  0  0  0  0  0  0  0  0  0
    1.5950  -16.7070  -38.0040 C   0  0  0  0  0  0  0  0  0  0  0  0
    1.5780  -15.5370  -37.2650 C   0  0  0  0  0  0  0  0  0  0  0  0
    1.7080  -14.2940  -37.8940 C   0  0  0  0  0  0  0  0  0  0  0  0
    1.6780  -12.6860  -36.8580 Br  0  0  0  0  0  0  0  0  0  0  0  0
    1.8530  -14.2020  -39.2510 C   0  0  0  0  0  3  0  0  0  0  0  0
    1.8710  -15.3630  -39.9880 C   0  0  0  0  0  0  0  0  0  0  0  0
    1.7430  -16.6010  -39.3720 C   0  0  0  0  0  3  0  0  0  0  0  0
    2.0710  -15.2750  -41.9010 Br  0  0  0  0  0  0  0  0  0  0  0  0
    1.4370  -15.5140  -35.9030 O   0  0  0  0  0  0  0  0  0  0  0  0
    1.3070  -16.2870  -35.3100 H   0  0  0  0  0  0  0  0  0  0  0  0
   -1.0610  -20.4220  -38.6500 C   0  0  0  0  0  0  0  0  0  0  0  0
   -1.3890  -21.6330  -38.5520 O   0  0  0  0  0  1  0  0  0  0  0  0
   -1.9270  -19.4790  -39.1760 O   0  0  0  0  0  0  0  0  0  0  0  0
  1 17  1  6  0  0  0
  2  1  1  0  0  0  0
  2 14  1  0  0  0  0
  3 27  1  6  0  0  0
  3  2  1  0  0  0  0
  4  5  1  0  0  0  0
  4  3  1  0  0  0  0
  5  9  2  0  0  0  0
  6  5  1  0  0  0  0
  6  7  1  0  0  0  0
  7 10  2  0  0  0  0
  7  8  1  0  0  0  0
  8 16  1  0  0  0  0
  9  1  1  0  0  0  0
  9  8  1  0  0  0  0
 11 10  1  0  0  0  0
 12 11  2  0  0  0  0
 13 12  1  0  0  0  0
 13  6  2  0  0  0  0
 15  2  1  0  0  0  0
 17 18  1  0  0  0  0
 18 25  1  0  0  0  0
 19 18  2  0  0  0  0
 19 20  1  0  0  0  0
 21 19  1  0  0  0  0
 22 23  1  0  0  0  0
 22 21  2  0  0  0  0
 23 17  2  0  0  0  0
 24 22  1  0  0  0  0
 25 26  1  0  0  0  0
 27 28  1  0  0  0  0
 29 27  2  0  0  0  0
M  END
>  <Pose>
1

>  <Score>
-6.893

$$$$
