/Users/jonathanwahrer/Desktop/Msc/3_Semester/Drug_Design_Praktikum/waehrer_HTS_screening/HTS_experiment/out/docking_results/vina_output/6y4q/1571_docked.pdbqt
 OpenBabel03232218313D

 28 31  0  0  1  0  0  0  0  0999 V2000
    0.4900  -17.9420  -38.1120 O   0  0  0  0  0  0  0  0  0  0  0  0
   -0.3400  -16.8820  -37.7260 C   0  0  0  0  0  2  0  0  0  0  0  0
    0.3890  -15.5970  -37.6040 C   0  0  0  0  0  0  0  0  0  0  0  0
    1.2360  -15.1380  -38.5450 N   0  0  0  0  0  0  0  0  0  0  0  0
    1.8800  -13.9760  -38.4100 C   0  0  0  0  0  0  0  0  0  0  0  0
    1.7370  -13.1710  -37.3270 N   0  0  0  0  0  0  0  0  0  0  0  0
    2.7390  -13.5700  -39.4290 C   0  0  0  0  0  3  0  0  0  0  0  0
    2.4050  -12.0120  -37.2390 C   0  0  0  0  0  3  0  0  0  0  0  0
    0.8900  -13.6050  -36.3590 C   0  0  0  0  0  0  0  0  0  0  0  0
    3.2620  -11.5790  -38.2230 C   0  0  0  0  0  0  0  0  0  0  0  0
    4.2030   -9.9050  -38.0540 Br  0  0  0  0  0  0  0  0  0  0  0  0
    3.4220  -12.3770  -39.3260 C   0  0  0  0  0  3  0  0  0  0  0  0
    0.2180  -14.8050  -36.4870 C   0  0  0  0  0  3  0  0  0  0  0  0
    0.7620  -12.8510  -35.3550 O   0  0  0  0  0  0  0  0  0  0  0  0
    0.1370  -19.2720  -38.1180 C   0  0  0  0  0  0  0  0  0  0  0  0
   -0.9240  -19.5650  -37.4970 O   0  0  0  0  0  0  0  0  0  0  0  0
    0.9420  -20.3160  -38.8080 C   0  0  0  0  0  2  0  0  0  0  0  0
    2.3330  -19.8930  -38.9830 N   0  0  0  0  0  0  0  0  0  0  0  0
    3.3600  -19.8720  -37.9950 C   0  0  0  0  0  0  0  0  0  0  0  0
    3.3000  -20.3810  -36.8480 O   0  0  0  0  0  0  0  0  0  0  0  0
    4.5180  -19.1420  -38.5620 C   0  0  2  0  0  3  0  0  0  0  0  0
    4.3710  -19.4900  -40.0250 C   0  0  1  0  0  3  0  0  0  0  0  0
    5.8210  -19.4880  -37.9660 C   0  0  0  0  0  2  0  0  0  0  0  0
    4.8220  -20.9020  -40.3440 C   0  0  0  0  0  2  0  0  0  0  0  0
    2.9010  -19.4120  -40.1880 C   0  0  0  0  0  0  0  0  0  0  0  0
    5.4850  -21.5870  -39.1780 C   0  0  0  0  0  2  0  0  0  0  0  0
    6.4970  -20.6890  -38.5250 C   0  0  0  0  0  2  0  0  0  0  0  0
    2.2520  -19.0000  -41.2000 O   0  0  0  0  0  0  0  0  0  0  0  0
  1  2  1  0  0  0  0
  2  3  1  0  0  0  0
  3 13  2  0  0  0  0
  4  5  2  0  0  0  0
  4  3  1  0  0  0  0
  5  6  1  0  0  0  0
  6  8  1  0  0  0  0
  6  9  1  0  0  0  0
  7 12  2  0  0  0  0
  7  5  1  0  0  0  0
  9 14  2  0  0  0  0
 10 11  1  0  0  0  0
 10  8  2  0  0  0  0
 12 10  1  0  0  0  0
 13  9  1  0  0  0  0
 15  1  1  0  0  0  0
 15 16  2  0  0  0  0
 17 15  1  0  0  0  0
 18 17  1  0  0  0  0
 18 19  1  0  0  0  0
 19 20  2  0  0  0  0
 21 19  1  0  0  0  0
 21 23  1  1  0  0  0
 22 24  1  1  0  0  0
 22 21  1  0  0  0  0
 24 26  1  0  0  0  0
 25 22  1  0  0  0  0
 25 18  1  0  0  0  0
 26 27  1  0  0  0  0
 27 23  1  0  0  0  0
 28 25  2  0  0  0  0
M  END
>  <Pose>
1

>  <Score>
-6.677

$$$$
