/Users/jonathanwahrer/Desktop/Msc/3_Semester/Drug_Design_Praktikum/waehrer_HTS_screening/HTS_experiment/out/docking_results/vina_output/6y4q/1576_docked.pdbqt
 OpenBabel03232218313D

 30 33  0  0  0  0  0  0  0  0999 V2000
    1.2260  -12.8830  -37.7300 N   0  0  0  0  0  0  0  0  0  0  0  0
   -0.2000  -12.8550  -37.9710 C   0  0  0  0  0  2  0  0  0  0  0  0
   -0.8970  -13.5960  -36.8330 C   0  0  0  0  0  2  0  0  0  0  0  0
   -0.1320  -14.7840  -36.4900 N   0  0  0  0  0  0  0  0  0  0  0  0
    1.2490  -14.6240  -36.1010 C   0  0  0  0  0  2  0  0  0  0  0  0
    1.6420  -13.1880  -36.3520 C   0  0  0  0  0  2  0  0  0  0  0  0
   -0.7110  -16.0830  -36.5280 C   0  0  0  0  0  0  0  0  0  0  0  0
   -1.9310  -16.1860  -36.8700 O   0  0  0  0  0  0  0  0  0  0  0  0
    0.0120  -17.3150  -36.1960 C   0  0  0  0  0  2  0  0  0  0  0  0
    0.5970  -17.9780  -37.3600 N   0  0  0  0  0  0  0  0  0  0  0  0
    1.7490  -17.7540  -37.9590 N   0  0  0  0  0  0  0  0  0  0  0  0
    1.9580  -18.5600  -39.0030 C   0  0  0  0  0  0  0  0  0  0  0  0
    0.8460  -19.3780  -39.0880 C   0  0  0  0  0  3  0  0  0  0  0  0
    0.0170  -18.9950  -38.0560 C   0  0  0  0  0  0  0  0  0  0  0  0
   -1.2970  -19.6030  -37.7610 C   0  0  0  0  0  1  0  0  0  0  0  0
    3.1390  -18.5760  -39.8860 C   0  0  0  0  0  0  0  0  0  0  0  0
    3.1910  -17.8210  -40.8770 O   0  0  0  0  0  0  0  0  0  0  0  0
    4.2020  -19.4560  -39.5870 N   0  0  0  0  0  0  0  0  0  0  0  0
    4.2110  -20.3520  -38.4650 C   0  0  0  0  0  2  0  0  0  0  0  0
    5.3820  -19.4810  -40.4560 C   0  0  0  0  0  2  0  0  0  0  0  0
    5.4720  -21.2130  -38.6110 C   0  0  0  0  0  2  0  0  0  0  0  0
    5.5280  -21.8050  -39.8530 O   0  0  0  0  0  0  0  0  0  0  0  0
    5.5920  -20.9140  -40.8980 C   0  0  0  0  0  2  0  0  0  0  0  0
    2.2220  -12.6490  -38.6800 C   0  0  0  0  0  0  0  0  0  0  0  0
    2.4900  -13.4720  -39.7530 C   0  0  0  0  0  0  0  0  0  0  0  0
    1.5450  -14.9030  -39.9600 Cl  0  0  0  0  0  0  0  0  0  0  0  0
    3.4840  -13.2030  -40.6730 C   0  0  0  0  0  3  0  0  0  0  0  0
    4.2460  -12.0860  -40.5380 C   0  0  0  0  0  3  0  0  0  0  0  0
    4.0170  -11.2380  -39.4860 C   0  0  0  0  0  3  0  0  0  0  0  0
    3.0210  -11.5130  -38.5700 C   0  0  0  0  0  3  0  0  0  0  0  0
  1  6  1  0  0  0  0
  2  1  1  0  0  0  0
  2  3  1  0  0  0  0
  3  4  1  0  0  0  0
  4  5  1  0  0  0  0
  6  5  1  0  0  0  0
  7  4  1  0  0  0  0
  7  9  1  0  0  0  0
  8  7  2  0  0  0  0
 10  9  1  0  0  0  0
 11 10  1  0  0  0  0
 12 11  2  0  0  0  0
 13 12  1  0  0  0  0
 13 14  2  0  0  0  0
 14 15  1  0  0  0  0
 14 10  1  0  0  0  0
 16 18  1  0  0  0  0
 16 12  1  0  0  0  0
 17 16  2  0  0  0  0
 18 19  1  0  0  0  0
 20 18  1  0  0  0  0
 21 19  1  0  0  0  0
 22 21  1  0  0  0  0
 23 20  1  0  0  0  0
 23 22  1  0  0  0  0
 24 30  1  0  0  0  0
 24  1  1  0  0  0  0
 25 24  2  0  0  0  0
 26 25  1  0  0  0  0
 27 28  2  0  0  0  0
 27 25  1  0  0  0  0
 28 29  1  0  0  0  0
 29 30  2  0  0  0  0
M  END
>  <Pose>
1

>  <Score>
-6.379

$$$$
