/Users/jonathanwahrer/Desktop/Msc/3_Semester/Drug_Design_Praktikum/waehrer_HTS_screening/HTS_experiment/out/docking_results/vina_output/6y4q/1591_docked.pdbqt
 OpenBabel03232218323D

 26 29  0  0  0  0  0  0  0  0999 V2000
    2.8340  -18.0210  -40.0040 Cl  0  0  0  0  0  0  0  0  0  0  0  0
    2.4770  -17.5660  -38.3530 C   0  0  0  0  0  0  0  0  0  0  0  0
    3.0100  -18.2730  -37.3130 C   0  0  0  0  0  0  0  0  0  0  0  0
    2.6440  -17.8280  -36.0400 C   0  0  0  0  0  3  0  0  0  0  0  0
    1.8240  -16.7760  -35.8880 N   0  0  0  0  0  0  0  0  0  0  0  0
    1.3000  -16.0840  -36.8740 N   0  0  0  0  0  0  0  0  0  0  0  0
    1.6240  -16.4750  -38.1140 C   0  0  0  0  0  0  0  0  0  0  0  0
    1.1740  -15.8750  -39.1230 O   0  0  0  0  0  0  0  0  0  0  0  0
    3.8920  -19.3670  -37.4820 N   0  0  0  0  0  0  0  0  0  0  0  0
    5.3170  -19.2800  -37.2080 C   0  0  0  0  0  2  0  0  0  0  0  0
    6.1370  -19.5000  -38.4530 C   0  0  0  0  0  2  0  0  0  0  0  0
    5.5050  -20.5710  -39.1840 N   0  0  0  0  0  0  0  0  0  0  0  0
    4.6690  -21.4870  -38.4520 C   0  0  0  0  0  2  0  0  0  0  0  0
    3.4510  -20.6680  -37.9720 C   0  0  0  0  0  2  0  0  0  0  0  0
    5.6970  -20.7220  -40.5790 C   0  0  0  0  0  0  0  0  0  0  0  0
    5.6710  -19.7430  -41.5280 N   0  0  0  0  0  0  0  0  0  0  0  0
    5.8950  -20.2790  -42.7120 N   0  0  0  0  0  0  0  0  0  0  0  0
    6.0630  -21.5840  -42.5410 C   0  0  0  0  0  0  0  0  0  0  0  0
    5.9400  -21.8240  -41.2620 O   0  0  0  0  0  0  0  0  0  0  0  0
    6.3410  -22.6390  -43.5680 C   0  0  0  0  0  1  0  0  0  0  0  0
    0.4370  -14.9780  -36.6250 C   0  0  0  0  0  0  0  0  0  0  0  0
   -0.9330  -15.0520  -36.7790 C   0  0  0  0  0  3  0  0  0  0  0  0
   -1.7590  -13.9760  -36.5350 C   0  0  0  0  0  3  0  0  0  0  0  0
   -1.2350  -12.7680  -36.1220 C   0  0  0  0  0  3  0  0  0  0  0  0
    0.1330  -12.6880  -35.9650 C   0  0  0  0  0  3  0  0  0  0  0  0
    0.9570  -13.7690  -36.2110 C   0  0  0  0  0  3  0  0  0  0  0  0
  1  2  1  0  0  0  0
  2  7  1  0  0  0  0
  2  3  2  0  0  0  0
  3  4  1  0  0  0  0
  4  5  2  0  0  0  0
  6 21  1  0  0  0  0
  6  5  1  0  0  0  0
  7  6  1  0  0  0  0
  8  7  2  0  0  0  0
  9  3  1  0  0  0  0
  9 10  1  0  0  0  0
 11 10  1  0  0  0  0
 12 11  1  0  0  0  0
 12 13  1  0  0  0  0
 13 14  1  0  0  0  0
 14  9  1  0  0  0  0
 15 12  1  0  0  0  0
 16 15  2  0  0  0  0
 17 18  2  0  0  0  0
 17 16  1  0  0  0  0
 18 19  1  0  0  0  0
 19 15  1  0  0  0  0
 20 18  1  0  0  0  0
 21 26  1  0  0  0  0
 22 21  2  0  0  0  0
 22 23  1  0  0  0  0
 23 24  2  0  0  0  0
 24 25  1  0  0  0  0
 26 25  2  0  0  0  0
M  END
>  <Pose>
1

>  <Score>
-6.202

$$$$
