/Users/jonathanwahrer/Desktop/Msc/3_Semester/Drug_Design_Praktikum/waehrer_HTS_screening/HTS_experiment/out/docking_results/vina_output/6y4q/1612_docked.pdbqt
 OpenBabel03232218333D

 31 34  0  0  0  0  0  0  0  0999 V2000
    2.1400  -19.4990  -38.3550 N   0  0  0  0  0  0  0  0  0  0  0  0
    3.3060  -19.9860  -38.8260 C   0  0  0  0  0  0  0  0  0  0  0  0
    2.9990  -20.8060  -39.8860 C   0  0  0  0  0  0  0  0  0  0  0  0
    1.6880  -20.7930  -40.0250 N   0  0  0  0  0  0  0  0  0  0  0  0
    1.1340  -19.9870  -39.0860 C   0  0  0  0  0  0  0  0  0  0  0  0
    4.0280  -21.4200  -40.5350 N   0  0  0  0  0  0  0  0  0  0  0  0
    5.3010  -21.2410  -40.1640 C   0  0  0  0  0  0  0  0  0  0  0  0
    6.2190  -21.8320  -40.7980 O   0  0  0  0  0  0  0  0  0  0  0  0
    5.6440  -20.4520  -39.1380 N   0  0  0  0  0  0  0  0  0  0  0  0
    4.6420  -19.8270  -38.4740 C   0  0  0  0  0  0  0  0  0  0  0  0
    4.9560  -19.0880  -37.5150 O   0  0  0  0  0  0  0  0  0  0  0  0
    3.7240  -22.2910  -41.6680 C   0  0  0  0  0  1  0  0  0  0  0  0
    6.6500  -20.3390  -38.8820 H   0  0  0  0  0  0  0  0  0  0  0  0
   -0.2690  -19.6950  -38.9970 N   0  0  0  0  0  0  0  0  0  0  0  0
   -1.0220  -20.2760  -37.8670 C   0  0  0  0  0  2  0  0  0  0  0  0
   -1.7160  -19.2260  -37.0610 C   0  0  0  0  0  2  0  0  0  0  0  0
   -1.9440  -18.0320  -37.8420 N   0  0  0  0  0  0  0  0  0  0  0  0
   -2.1880  -18.2010  -39.2600 C   0  0  0  0  0  2  0  0  0  0  0  0
   -1.9350  -16.7490  -37.2330 C   0  0  0  0  0  0  0  0  0  0  0  0
   -0.9930  -18.8800  -39.9050 C   0  0  0  0  0  2  0  0  0  0  0  0
   -1.7430  -16.6340  -36.0030 O   0  0  0  0  0  0  0  0  0  0  0  0
   -2.1510  -15.5170  -38.0290 C   0  0  0  0  0  2  0  0  0  0  0  0
   -2.2070  -14.3490  -37.0470 C   0  0  0  0  0  1  0  0  0  0  0  0
    2.0700  -18.5650  -37.2770 C   0  0  0  0  0  2  0  0  0  0  0  0
    1.8840  -17.1450  -37.6600 C   0  0  0  0  0  0  0  0  0  0  0  0
    1.6710  -16.1650  -36.7330 C   0  0  0  0  0  3  0  0  0  0  0  0
    1.4620  -14.8650  -37.1750 C   0  0  0  0  0  0  0  0  0  0  0  0
    1.1940  -13.6220  -35.9530 Cl  0  0  0  0  0  0  0  0  0  0  0  0
    1.4580  -14.5110  -38.5060 C   0  0  0  0  0  3  0  0  0  0  0  0
    1.6740  -15.5170  -39.4320 C   0  0  0  0  0  3  0  0  0  0  0  0
    1.8830  -16.8030  -39.0270 C   0  0  0  0  0  3  0  0  0  0  0  0
  1 24  1  0  0  0  0
  2 10  1  0  0  0  0
  2  1  1  0  0  0  0
  3  2  2  0  0  0  0
  4  3  1  0  0  0  0
  4  5  2  0  0  0  0
  5 14  1  0  0  0  0
  5  1  1  0  0  0  0
  6  7  1  0  0  0  0
  6  3  1  0  0  0  0
  7  9  1  0  0  0  0
  8  7  2  0  0  0  0
  9 13  1  0  0  0  0
  9 10  1  0  0  0  0
 10 11  2  0  0  0  0
 12  6  1  0  0  0  0
 14 15  1  0  0  0  0
 15 16  1  0  0  0  0
 17 19  1  0  0  0  0
 17 16  1  0  0  0  0
 18 17  1  0  0  0  0
 19 21  2  0  0  0  0
 20 18  1  0  0  0  0
 20 14  1  0  0  0  0
 22 19  1  0  0  0  0
 22 23  1  0  0  0  0
 25 24  1  0  0  0  0
 25 26  1  0  0  0  0
 27 26  2  0  0  0  0
 27 28  1  0  0  0  0
 29 27  1  0  0  0  0
 30 31  1  0  0  0  0
 30 29  2  0  0  0  0
 31 25  2  0  0  0  0
M  END
>  <Pose>
1

>  <Score>
-6.299

$$$$
