/Users/jonathanwahrer/Desktop/Msc/3_Semester/Drug_Design_Praktikum/waehrer_HTS_screening/HTS_experiment/out/docking_results/vina_output/6y4q/1631_docked.pdbqt
 OpenBabel03232218343D

 29 32  0  0  1  0  0  0  0  0999 V2000
    0.8550  -17.3110  -37.0690 C   0  0  1  0  0  3  0  0  0  0  0  0
   -0.2640  -17.6750  -37.8910 N   0  0  0  0  0  0  0  0  0  0  0  0
    0.1790  -18.2030  -39.1370 C   0  0  0  0  0  0  0  0  0  0  0  0
   -0.5030  -18.3640  -40.1900 O   0  0  0  0  0  0  0  0  0  0  0  0
    1.6110  -18.5430  -38.9940 C   0  0  0  0  0  0  0  0  0  0  0  0
    2.3290  -19.0290  -39.8960 O   0  0  0  0  0  0  0  0  0  0  0  0
    1.9470  -18.1860  -37.6220 C   0  0  0  0  0  0  0  0  0  0  0  0
    3.0550  -18.5590  -37.0170 C   0  0  0  0  0  0  0  0  0  0  0  0
    3.2570  -18.0870  -35.7040 O   0  0  0  0  0  1  0  0  0  0  0  0
    1.2110  -15.8720  -37.1430 C   0  0  0  0  0  0  0  0  0  0  0  0
    1.8150  -15.3270  -38.2690 C   0  0  0  0  0  3  0  0  0  0  0  0
    2.1600  -14.0010  -38.3790 C   0  0  0  0  0  0  0  0  0  0  0  0
    2.9170  -13.3480  -39.8150 Cl  0  0  0  0  0  0  0  0  0  0  0  0
    1.8890  -13.1750  -37.3100 C   0  0  0  0  0  3  0  0  0  0  0  0
    1.2900  -13.6700  -36.1710 C   0  0  0  0  0  3  0  0  0  0  0  0
    0.9550  -15.0030  -36.0870 C   0  0  0  0  0  3  0  0  0  0  0  0
    4.0680  -19.4200  -37.6110 C   0  0  0  0  0  0  0  0  0  0  0  0
    5.3560  -18.9160  -37.8400 C   0  0  0  0  0  3  0  0  0  0  0  0
    6.3420  -19.7170  -38.3740 C   0  0  0  0  0  3  0  0  0  0  0  0
    6.1210  -21.0370  -38.7060 C   0  0  0  0  0  3  0  0  0  0  0  0
    4.8630  -21.5510  -38.4880 C   0  0  0  0  0  3  0  0  0  0  0  0
    3.8650  -20.7380  -37.9480 C   0  0  0  0  0  3  0  0  0  0  0  0
   -1.6220  -17.5330  -37.5330 C   0  0  1  0  0  3  0  0  0  0  0  0
   -2.3500  -16.6690  -38.2890 N   0  0  0  0  0  0  0  0  0  0  0  0
   -3.6420  -16.4480  -38.0530 C   0  0  0  0  0  3  0  0  0  0  0  0
   -1.9020  -16.1480  -39.0930 H   0  0  0  0  0  0  0  0  0  0  0  0
   -4.2370  -17.1240  -37.0130 C   0  0  0  0  0  3  0  0  0  0  0  0
   -3.4790  -17.9960  -36.2590 C   0  0  0  0  0  3  0  0  0  0  0  0
   -2.1750  -18.2120  -36.5030 N   0  0  0  0  0  0  0  0  0  0  0  0
  1 10  1  6  0  0  0
  2  1  1  0  0  0  0
  3  5  1  0  0  0  0
  3  2  1  0  0  0  0
  4  3  2  0  0  0  0
  5  7  1  0  0  0  0
  6  5  2  0  0  0  0
  7  1  1  0  0  0  0
  7  8  2  0  0  0  0
  8  9  1  0  0  0  0
 10 16  1  0  0  0  0
 11 10  2  0  0  0  0
 12 11  1  0  0  0  0
 12 14  2  0  0  0  0
 13 12  1  0  0  0  0
 14 15  1  0  0  0  0
 15 16  2  0  0  0  0
 17  8  1  0  0  0  0
 18 17  1  0  0  0  0
 19 18  2  0  0  0  0
 20 21  2  0  0  0  0
 20 19  1  0  0  0  0
 21 22  1  0  0  0  0
 22 17  2  0  0  0  0
 23  2  1  6  0  0  0
 23 29  1  0  0  0  0
 24 25  1  0  0  0  0
 24 23  1  0  0  0  0
 25 27  2  0  0  0  0
 26 24  1  0  0  0  0
 27 28  1  0  0  0  0
 29 28  2  0  0  0  0
M  END
>  <Pose>
1

>  <Score>
-7.806

$$$$
