/Users/jonathanwahrer/Desktop/Msc/3_Semester/Drug_Design_Praktikum/waehrer_HTS_screening/HTS_experiment/out/docking_results/vina_output/6y4q/1637_docked.pdbqt
 OpenBabel03232218343D

 29 32  0  0  0  0  0  0  0  0999 V2000
   -2.3000  -17.6020  -36.7060 C   0  0  0  0  0  0  0  0  0  0  0  0
   -1.6600  -17.8860  -37.8460 N   0  0  0  0  0  0  0  0  0  0  0  0
   -0.3370  -17.9010  -37.9790 C   0  0  0  0  0  0  0  0  0  0  0  0
    0.4240  -17.5870  -36.8420 C   0  0  0  0  0  0  0  0  0  0  0  0
   -0.2270  -17.3010  -35.6950 C   0  0  0  0  0  0  0  0  0  0  0  0
   -1.5880  -17.3130  -35.6320 N   0  0  0  0  0  0  0  0  0  0  0  0
    1.8670  -17.4780  -37.0750 C   0  0  0  0  0  2  0  0  0  0  0  0
    2.0100  -16.6140  -38.2060 N   0  0  0  0  0  0  0  0  0  0  0  0
    1.7260  -17.5540  -39.3800 C   0  0  0  0  0  2  0  0  0  0  0  0
    0.3910  -18.1960  -39.2420 C   0  0  0  0  0  2  0  0  0  0  0  0
    0.9250  -15.5920  -38.4280 C   0  0  0  0  0  2  0  0  0  0  0  0
    1.7510  -14.3190  -38.2300 C   0  0  0  0  0  0  0  0  0  0  0  0
    2.5050  -13.7200  -39.1620 C   0  0  0  0  0  0  0  0  0  0  0  0
    3.2550  -12.5340  -38.9340 C   0  0  0  0  0  0  0  0  0  0  0  0
    2.5240  -14.3920  -40.7570 Cl  0  0  0  0  0  0  0  0  0  0  0  0
    3.1440  -12.0210  -37.6380 C   0  0  0  0  0  0  0  0  0  0  0  0
    4.0310  -11.8970  -39.8410 C   0  0  0  0  0  3  0  0  0  0  0  0
    3.8420  -10.8830  -37.3600 C   0  0  0  0  0  3  0  0  0  0  0  0
    2.4120  -12.5830  -36.7390 O   0  0  0  0  0  0  0  0  0  0  0  0
    4.6600  -10.2030  -38.2890 C   0  0  0  0  0  3  0  0  0  0  0  0
    4.7360  -10.7550  -39.5810 C   0  0  0  0  0  3  0  0  0  0  0  0
    1.7160  -13.7050  -36.9800 C   0  0  0  0  0  0  0  0  0  0  0  0
    0.9960  -14.2630  -36.0650 O   0  0  0  0  0  0  0  0  0  0  0  0
    0.5220  -17.0030  -34.5670 O   0  0  0  0  0  0  0  0  0  0  0  0
    1.5450  -17.0620  -34.5280 H   0  0  0  0  0  0  0  0  0  0  0  0
   -4.0720  -17.5280  -36.7320 S   0  0  0  0  0  0  0  0  0  0  0  0
   -4.5700  -16.1770  -36.6020 O   0  0  0  0  0  0  0  0  0  0  0  0
   -4.5500  -18.4130  -35.6200 O   0  0  0  0  0  0  0  0  0  0  0  0
   -4.5600  -18.3120  -38.2890 C   0  0  0  0  0  1  0  0  0  0  0  0
  1  6  1  0  0  0  0
  2  1  2  0  0  0  0
  3  2  1  0  0  0  0
  3  4  2  0  0  0  0
  4  5  1  0  0  0  0
  5  6  2  0  0  0  0
  5 24  1  0  0  0  0
  7  4  1  0  0  0  0
  8  7  1  0  0  0  0
  9 10  1  0  0  0  0
  9  8  1  0  0  0  0
 10  3  1  0  0  0  0
 11 12  1  0  0  0  0
 11  8  1  0  0  0  0
 12 22  1  0  0  0  0
 13 14  1  0  0  0  0
 13 12  2  0  0  0  0
 14 16  1  0  0  0  0
 15 13  1  0  0  0  0
 16 18  2  0  0  0  0
 16 19  1  0  0  0  0
 17 21  1  0  0  0  0
 17 14  2  0  0  0  0
 20 18  1  0  0  0  0
 21 20  2  0  0  0  0
 22 19  1  0  0  0  0
 22 23  2  0  0  0  0
 24 25  1  0  0  0  0
 26  1  1  0  0  0  0
 26 27  2  0  0  0  0
 26 28  2  0  0  0  0
 29 26  1  0  0  0  0
M  END
>  <Pose>
1

>  <Score>
-6.503

$$$$
