/Users/jonathanwahrer/Desktop/Msc/3_Semester/Drug_Design_Praktikum/waehrer_HTS_screening/HTS_experiment/out/docking_results/vina_output/6y4q/1638_docked.pdbqt
 OpenBabel03232218343D

 38 41  0  0  1  0  0  0  0  0999 V2000
    3.6830  -20.1830  -39.2880 C   0  0  0  0  0  0  0  0  0  0  0  0
    4.1970  -19.3280  -38.3230 C   0  0  0  0  0  0  0  0  0  0  0  0
    3.3600  -18.4990  -37.6420 N   0  0  0  0  0  0  0  0  0  0  0  0
    2.0380  -18.4670  -37.8600 C   0  0  0  0  0  0  0  0  0  0  0  0
    1.5350  -19.2920  -38.7930 N   0  0  0  0  0  0  0  0  0  0  0  0
    2.3210  -20.1290  -39.4920 C   0  0  0  0  0  3  0  0  0  0  0  0
    1.1620  -17.6010  -37.1420 N   0  0  0  0  0  0  0  0  0  0  0  0
    1.6060  -16.8210  -36.0130 C   0  0  0  0  0  2  0  0  0  0  0  0
    1.3310  -15.3470  -36.1310 C   0  0  0  0  0  2  0  0  0  0  0  0
    0.1650  -15.0530  -37.0610 C   0  0  2  0  0  0  0  0  0  0  0  0
   -0.7760  -16.2510  -36.8450 C   0  0  0  0  0  2  0  0  0  0  0  0
   -0.2340  -17.4680  -37.5170 C   0  0  0  0  0  2  0  0  0  0  0  0
    0.4880  -14.9690  -38.4040 N   0  0  0  0  0  0  0  0  0  0  0  0
    1.7200  -14.4400  -38.8460 C   0  0  0  0  0  2  0  0  0  0  0  0
    2.0960  -15.1840  -40.1390 C   0  0  0  0  0  2  0  0  0  0  0  0
    0.8310  -15.7230  -40.7480 C   0  0  0  0  0  2  0  0  0  0  0  0
   -0.3230  -14.7590  -40.6320 C   0  0  0  0  0  2  0  0  0  0  0  0
   -0.5410  -14.3420  -39.1870 C   0  0  0  0  0  2  0  0  0  0  0  0
   -0.5550  -13.8760  -36.5230 C   0  0  0  0  0  0  0  0  0  0  0  0
   -1.8280  -13.8790  -36.4290 O   0  0  0  0  0  0  0  0  0  0  0  0
    0.0870  -12.7100  -36.0920 N   0  0  0  0  0  0  0  0  0  0  0  0
    0.0380  -11.8560  -36.7120 H   0  0  0  0  0  0  0  0  0  0  0  0
    0.6160  -12.5820  -35.2060 H   0  0  0  0  0  0  0  0  0  0  0  0
    5.5850  -19.3660  -38.0980 N   0  0  0  0  0  0  0  0  0  0  0  0
    6.2930  -19.0820  -38.8070 H   0  0  0  0  0  0  0  0  0  0  0  0
    5.9400  -19.6960  -37.1770 H   0  0  0  0  0  0  0  0  0  0  0  0
    4.7210  -21.2690  -40.1890 S   0  0  0  0  0  0  0  0  0  0  0  0
    5.7840  -21.8640  -39.3240 O   0  0  0  0  0  0  0  0  0  0  0  0
    3.8410  -22.3260  -40.8070 O   0  0  0  0  0  0  0  0  0  0  0  0
    5.4520  -20.3430  -41.5090 C   0  0  0  0  0  0  0  0  0  0  0  0
    6.3960  -20.9320  -42.3250 C   0  0  0  0  0  0  0  0  0  0  0  0
    6.9390  -20.1730  -43.3400 C   0  0  0  0  0  3  0  0  0  0  0  0
    6.5560  -18.8520  -43.5490 C   0  0  0  0  0  3  0  0  0  0  0  0
    5.6090  -18.3000  -42.7130 C   0  0  0  0  0  0  0  0  0  0  0  0
    5.0480  -19.0340  -41.6880 C   0  0  0  0  0  3  0  0  0  0  0  0
    5.1100  -16.6220  -42.9640 Cl  0  0  0  0  0  0  0  0  0  0  0  0
    6.7480  -22.2310  -42.0890 O   0  0  0  0  0  0  0  0  0  0  0  0
    6.9730  -23.2030  -43.0720 C   0  0  0  0  0  1  0  0  0  0  0  0
  1  2  2  0  0  0  0
  2 24  1  0  0  0  0
  2  3  1  0  0  0  0
  4  3  2  0  0  0  0
  4  7  1  0  0  0  0
  5  4  1  0  0  0  0
  6  1  1  0  0  0  0
  6  5  2  0  0  0  0
  7  8  1  0  0  0  0
  9  8  1  0  0  0  0
 10 11  1  0  0  0  0
 10 19  1  1  0  0  0
 10  9  1  0  0  0  0
 12  7  1  0  0  0  0
 12 11  1  0  0  0  0
 13 10  1  0  0  0  0
 14 13  1  0  0  0  0
 15 14  1  0  0  0  0
 16 17  1  0  0  0  0
 16 15  1  0  0  0  0
 17 18  1  0  0  0  0
 18 13  1  0  0  0  0
 19 20  2  0  0  0  0
 19 21  1  0  0  0  0
 21 23  1  0  0  0  0
 22 21  1  0  0  0  0
 24 26  1  0  0  0  0
 25 24  1  0  0  0  0
 27 28  2  0  0  0  0
 27  1  1  0  0  0  0
 29 27  2  0  0  0  0
 30 27  1  0  0  0  0
 31 37  1  0  0  0  0
 31 30  2  0  0  0  0
 32 31  1  0  0  0  0
 33 32  2  0  0  0  0
 33 34  1  0  0  0  0
 34 35  2  0  0  0  0
 35 30  1  0  0  0  0
 36 34  1  0  0  0  0
 38 37  1  0  0  0  0
M  END
>  <Pose>
1

>  <Score>
-5.704

$$$$
