/Users/jonathanwahrer/Desktop/Msc/3_Semester/Drug_Design_Praktikum/waehrer_HTS_screening/HTS_experiment/out/docking_results/vina_output/6y4q/1651_docked.pdbqt
 OpenBabel03232218353D

 23 26  0  0  1  0  0  0  0  0999 V2000
    1.5370  -13.5750  -36.0800 Cl  0  0  0  0  0  0  0  0  0  0  0  0
    0.9680  -15.1890  -36.5130 C   0  0  0  0  0  0  0  0  0  0  0  0
    1.6890  -16.0100  -37.3450 C   0  0  0  0  0  3  0  0  0  0  0  0
    1.2160  -17.2890  -37.6740 C   0  0  0  0  0  0  0  0  0  0  0  0
    0.0310  -17.7590  -37.1830 C   0  0  0  0  0  0  0  0  0  0  0  0
   -0.7140  -16.9240  -36.3300 C   0  0  0  0  0  3  0  0  0  0  0  0
   -0.2220  -15.6780  -36.0280 C   0  0  0  0  0  3  0  0  0  0  0  0
   -0.2570  -19.0700  -37.6400 N   0  0  0  0  0  0  0  0  0  0  0  0
    0.8220  -19.4490  -38.4760 C   0  0  0  0  0  0  0  0  0  0  0  0
    0.9000  -20.5680  -39.0620 O   0  0  0  0  0  0  0  0  0  0  0  0
    1.8030  -18.3430  -38.5370 C   0  0  1  0  0  0  0  0  0  0  0  0
    1.8740  -17.9010  -39.9830 C   0  0  0  0  0  2  0  0  0  0  0  0
    2.5840  -19.0150  -40.6980 C   0  0  0  0  0  0  0  0  0  0  0  0
    2.1200  -19.5870  -41.7020 O   0  0  0  0  0  0  0  0  0  0  0  0
    3.8530  -19.4040  -40.1580 N   0  0  0  0  0  0  0  0  0  0  0  0
    4.0980  -19.2460  -38.7660 C   0  0  0  0  0  0  0  0  0  0  0  0
    5.1770  -19.5090  -37.9800 N   0  0  0  0  0  0  0  0  0  0  0  0
    4.8800  -19.1690  -36.7500 N   0  0  0  0  0  0  0  0  0  0  0  0
    3.6320  -18.6820  -36.6720 C   0  0  0  0  0  3  0  0  0  0  0  0
    3.1090  -18.7260  -37.9710 C   0  0  0  0  0  0  0  0  0  0  0  0
   -1.4450  -19.8610  -37.3010 C   0  0  0  0  0  1  0  0  0  0  0  0
    4.6000  -19.8010  -40.7690 H   0  0  0  0  0  0  0  0  0  0  0  0
    6.0670  -19.9150  -38.3530 H   0  0  0  0  0  0  0  0  0  0  0  0
  2  1  1  0  0  0  0
  2  7  1  0  0  0  0
  3  2  2  0  0  0  0
  4  3  1  0  0  0  0
  4  5  2  0  0  0  0
  5  6  1  0  0  0  0
  6  7  2  0  0  0  0
  8 21  1  0  0  0  0
  8  5  1  0  0  0  0
  9  8  1  0  0  0  0
 10  9  2  0  0  0  0
 11 12  1  6  0  0  0
 11  9  1  0  0  0  0
 11 20  1  0  0  0  0
 11  4  1  0  0  0  0
 13 15  1  0  0  0  0
 13 12  1  0  0  0  0
 14 13  2  0  0  0  0
 15 16  1  0  0  0  0
 16 17  1  0  0  0  0
 16 20  2  0  0  0  0
 17 18  1  0  0  0  0
 18 19  2  0  0  0  0
 20 19  1  0  0  0  0
 22 15  1  0  0  0  0
 23 17  1  0  0  0  0
M  END
>  <Pose>
1

>  <Score>
-6.434

$$$$
