/Users/jonathanwahrer/Desktop/Msc/3_Semester/Drug_Design_Praktikum/waehrer_HTS_screening/HTS_experiment/out/docking_results/vina_output/6y4q/1666_docked.pdbqt
 OpenBabel03232218353D

 30 34  0  0  1  0  0  0  0  0999 V2000
    0.9390  -14.9030  -36.5840 N   0  0  0  0  0  0  0  0  0  0  0  0
   -0.2870  -15.6190  -36.3490 C   0  0  0  0  0  2  0  0  0  0  0  0
   -0.2730  -16.9790  -37.0100 C   0  0  0  0  0  2  0  0  0  0  0  0
    0.0330  -16.8380  -38.4550 N   0  0  0  0  0  0  0  0  0  0  0  0
    1.3860  -16.3110  -38.5660 C   0  0  0  0  0  2  0  0  0  0  0  0
    1.9010  -15.7120  -37.2680 C   0  0  0  0  0  2  0  0  0  0  0  0
    0.0040  -18.1990  -38.9460 C   0  0  0  0  0  2  0  0  0  0  0  0
    0.5880  -19.2480  -38.1000 C   0  0  0  0  0  2  0  0  0  0  0  0
    1.8980  -19.7320  -38.3740 N   0  0  0  0  0  0  0  0  0  0  0  0
    3.1080  -19.6100  -37.6350 C   0  0  0  0  0  0  0  0  0  0  0  0
    3.3680  -18.7030  -36.8310 O   0  0  0  0  0  0  0  0  0  0  0  0
    3.9990  -20.7410  -37.9860 C   0  0  1  0  0  3  0  0  0  0  0  0
    3.5510  -21.0080  -39.4410 C   0  0  2  0  0  3  0  0  0  0  0  0
    5.3850  -20.2530  -38.2170 C   0  0  2  0  0  3  0  0  0  0  0  0
    4.5490  -20.3240  -40.2970 C   0  0  1  0  0  3  0  0  0  0  0  0
    2.1770  -20.5350  -39.5430 C   0  0  0  0  0  0  0  0  0  0  0  0
    5.1070  -19.2490  -39.3490 C   0  0  0  0  0  2  0  0  0  0  0  0
    5.7790  -21.2090  -40.3050 C   0  0  0  0  0  2  0  0  0  0  0  0
    6.0890  -21.3140  -39.0120 C   0  0  0  0  0  2  0  0  0  0  0  0
    1.4000  -20.7970  -40.4950 O   0  0  0  0  0  0  0  0  0  0  0  0
    0.7980  -13.2940  -37.0450 S   0  0  0  0  0  0  0  0  0  0  0  0
   -0.4940  -13.1460  -37.8370 O   0  0  0  0  0  0  0  0  0  0  0  0
    0.5460  -12.4710  -35.7810 O   0  0  0  0  0  0  0  0  0  0  0  0
    2.1340  -12.5840  -37.8580 C   0  0  0  0  0  0  0  0  0  0  0  0
    2.2970  -12.7400  -39.2130 C   0  0  0  0  0  3  0  0  0  0  0  0
    3.3790  -12.1440  -39.8350 C   0  0  0  0  0  3  0  0  0  0  0  0
    4.3130  -11.3920  -39.1450 C   0  0  0  0  0  0  0  0  0  0  0  0
    4.1440  -11.2380  -37.7850 C   0  0  0  0  0  3  0  0  0  0  0  0
    5.8060  -10.5720  -40.0010 Br  0  0  0  0  0  0  0  0  0  0  0  0
    3.0560  -11.8370  -37.1600 C   0  0  0  0  0  3  0  0  0  0  0  0
  1  2  1  0  0  0  0
  3  2  1  0  0  0  0
  4  3  1  0  0  0  0
  5  4  1  0  0  0  0
  5  6  1  0  0  0  0
  6  1  1  0  0  0  0
  7  4  1  0  0  0  0
  7  8  1  0  0  0  0
  9  8  1  0  0  0  0
  9 10  1  0  0  0  0
 10 11  2  0  0  0  0
 12 10  1  6  0  0  0
 13 16  1  1  0  0  0
 13 12  1  0  0  0  0
 14 17  1  6  0  0  0
 14 12  1  0  0  0  0
 15 18  1  1  0  0  0
 15 13  1  0  0  0  0
 15 17  1  0  0  0  0
 16  9  1  0  0  0  0
 18 19  1  0  0  0  0
 19 14  1  0  0  0  0
 20 16  2  0  0  0  0
 21  1  1  0  0  0  0
 21 23  2  0  0  0  0
 22 21  2  0  0  0  0
 24 30  1  0  0  0  0
 24 21  1  0  0  0  0
 25 24  2  0  0  0  0
 26 25  1  0  0  0  0
 26 27  2  0  0  0  0
 27 28  1  0  0  0  0
 28 30  2  0  0  0  0
 29 27  1  0  0  0  0
M  END
>  <Pose>
1

>  <Score>
-7.119

$$$$
