/Users/jonathanwahrer/Desktop/Msc/3_Semester/Drug_Design_Praktikum/waehrer_HTS_screening/HTS_experiment/out/docking_results/vina_output/6y4q/1673_docked.pdbqt
 OpenBabel03232218363D

 35 38  0  0  1  0  0  0  0  0999 V2000
    0.5030  -16.7940  -37.4690 C   0  0  2  0  0  3  0  0  0  0  0  0
    0.7980  -18.2360  -37.7840 C   0  0  1  0  0  3  0  0  0  0  0  0
   -0.2710  -18.7160  -38.5410 N   0  0  0  0  0  0  0  0  0  0  0  0
   -1.4290  -18.0810  -37.8670 C   0  0  0  0  0  0  0  0  0  0  0  0
   -2.5880  -18.5590  -37.7360 O   0  0  0  0  0  0  0  0  0  0  0  0
   -0.9740  -16.7870  -37.3830 C   0  0  0  0  0  0  0  0  0  0  0  0
   -1.7180  -15.8530  -36.9710 O   0  0  0  0  0  0  0  0  0  0  0  0
    2.1890  -18.5740  -37.9480 C   0  0  0  0  0  0  0  0  0  0  0  0
    2.8030  -18.8570  -39.1270 C   0  0  0  0  0  3  0  0  0  0  0  0
    4.1560  -19.1520  -39.1810 C   0  0  0  0  0  0  0  0  0  0  0  0
    4.9020  -19.1600  -37.9920 C   0  0  0  0  0  0  0  0  0  0  0  0
    4.2830  -18.8750  -36.8090 C   0  0  0  0  0  3  0  0  0  0  0  0
    2.9560  -18.5840  -36.7580 C   0  0  0  0  0  3  0  0  0  0  0  0
    6.2520  -19.4480  -37.9900 O   0  0  0  0  0  1  0  0  0  0  0  0
    0.9800  -15.8350  -38.4660 C   0  0  0  0  0  0  0  0  0  0  0  0
    0.7730  -16.0630  -39.7080 O   0  0  0  0  0  0  0  0  0  0  0  0
    1.6930  -14.5970  -38.1870 C   0  0  0  0  0  0  0  0  0  0  0  0
    1.6850  -14.0160  -36.9390 C   0  0  0  0  0  3  0  0  0  0  0  0
    2.3660  -12.8160  -36.7650 C   0  0  0  0  0  3  0  0  0  0  0  0
    3.0470  -12.1780  -37.7700 C   0  0  0  0  0  0  0  0  0  0  0  0
    3.9690  -10.5150  -37.4550 Br  0  0  0  0  0  0  0  0  0  0  0  0
    3.0590  -12.7560  -39.0220 C   0  0  0  0  0  3  0  0  0  0  0  0
    2.3850  -13.9420  -39.1940 C   0  0  0  0  0  3  0  0  0  0  0  0
   -0.5850  -19.6440  -39.5820 C   0  0  0  0  0  2  0  0  0  0  0  0
   -0.8990  -21.0360  -39.1800 C   0  0  0  0  0  2  0  0  0  0  0  0
   -2.2130  -21.4840  -38.9900 N   0  0  0  0  0  4  0  0  0  0  0  0
   -3.0870  -21.1970  -40.1350 C   0  0  0  0  0  2  0  0  0  0  0  0
   -2.6630  -21.9060  -41.3770 C   0  0  0  0  0  2  0  0  0  0  0  0
   -1.6610  -22.8020  -41.0830 O   0  0  0  0  0  0  0  0  0  0  0  0
   -2.1340  -23.6570  -40.0740 C   0  0  0  0  0  2  0  0  0  0  0  0
   -2.2110  -22.9380  -38.7440 C   0  0  0  0  0  2  0  0  0  0  0  0
   -2.6590  -21.0670  -38.1770 H   0  0  0  0  0  0  0  0  0  0  0  0
    4.7980  -19.4360  -40.3430 O   0  0  0  0  0  0  0  0  0  0  0  0
    4.5820  -20.5840  -41.0980 C   0  0  0  0  0  2  0  0  0  0  0  0
    5.3590  -21.7920  -40.6080 C   0  0  0  0  0  1  0  0  0  0  0  0
  1 15  1  6  0  0  0
  1  6  1  0  0  0  0
  2  8  1  6  0  0  0
  2  1  1  0  0  0  0
  3  4  1  0  0  0  0
  3  2  1  0  0  0  0
  4  5  2  0  0  0  0
  4  6  1  0  0  0  0
  6  7  2  0  0  0  0
  8 13  1  0  0  0  0
  9  8  2  0  0  0  0
 10  9  1  0  0  0  0
 10 11  2  0  0  0  0
 11 14  1  0  0  0  0
 11 12  1  0  0  0  0
 12 13  2  0  0  0  0
 15 17  1  0  0  0  0
 16 15  2  0  0  0  0
 17 18  1  0  0  0  0
 18 19  2  0  0  0  0
 20 21  1  0  0  0  0
 20 19  1  0  0  0  0
 22 20  2  0  0  0  0
 23 22  1  0  0  0  0
 23 17  2  0  0  0  0
 24 25  1  0  0  0  0
 24  3  1  0  0  0  0
 25 26  1  0  0  0  0
 26 31  1  0  0  0  0
 26 32  1  0  0  0  0
 27 26  1  0  0  0  0
 28 29  1  0  0  0  0
 28 27  1  0  0  0  0
 29 30  1  0  0  0  0
 30 31  1  0  0  0  0
 33 10  1  0  0  0  0
 34 35  1  0  0  0  0
 34 33  1  0  0  0  0
M  END
>  <Pose>
1

>  <Score>
-6.659

$$$$
