/Users/jonathanwahrer/Desktop/Msc/3_Semester/Drug_Design_Praktikum/waehrer_HTS_screening/HTS_experiment/out/docking_results/vina_output/6y4q/1676_docked.pdbqt
 OpenBabel03232218363D

 25 28  0  0  0  0  0  0  0  0999 V2000
    2.1210  -14.0050  -38.5650 C   0  0  0  0  0  0  0  0  0  0  0  0
    1.5190  -13.6310  -37.5400 O   0  0  0  0  0  0  0  0  0  0  0  0
    1.9480  -15.3400  -39.0090 N   0  0  0  0  0  0  0  0  0  0  0  0
    2.4410  -15.6640  -39.8570 H   0  0  0  0  0  0  0  0  0  0  0  0
    2.9770  -13.0500  -39.2600 C   0  0  0  0  0  0  0  0  0  0  0  0
    3.5660  -12.0390  -38.5220 C   0  0  0  0  0  0  0  0  0  0  0  0
    4.3760  -11.1270  -39.1540 C   0  0  0  0  0  0  0  0  0  0  0  0
    3.5250  -11.7100  -37.2030 N   0  0  0  0  0  0  0  0  0  0  0  0
    4.5870  -11.2370  -40.5090 C   0  0  0  0  0  3  0  0  0  0  0  0
    4.8050  -10.2680  -38.1980 N   0  0  0  0  0  0  0  0  0  0  0  0
    4.0020  -12.2420  -41.2500 C   0  0  0  0  0  0  0  0  0  0  0  0
    4.3130  -12.3690  -43.1320 Br  0  0  0  0  0  0  0  0  0  0  0  0
    3.1930  -13.1550  -40.6260 C   0  0  0  0  0  3  0  0  0  0  0  0
    4.2740  -10.6530  -37.0530 N   0  0  0  0  0  0  0  0  0  0  0  0
    2.9660  -12.2660  -36.5230 H   0  0  0  0  0  0  0  0  0  0  0  0
    1.0950  -16.2620  -38.3010 C   0  0  0  0  0  2  0  0  0  0  0  0
    1.9520  -17.3070  -37.6380 C   0  0  0  0  0  0  0  0  0  0  0  0
    2.5110  -18.3810  -38.2170 N   0  0  0  0  0  0  0  0  0  0  0  0
    3.2140  -19.0980  -37.3140 C   0  0  0  0  0  0  0  0  0  0  0  0
    2.4980  -18.8880  -39.5710 C   0  0  0  0  0  2  0  0  0  0  0  0
    3.0850  -18.4510  -36.1500 N   0  0  0  0  0  0  0  0  0  0  0  0
    3.8890  -20.3230  -37.8250 C   0  0  0  0  0  2  0  0  0  0  0  0
    2.3200  -17.3650  -36.3430 N   0  0  0  0  0  0  0  0  0  0  0  0
    4.7360  -19.8340  -39.0090 C   0  0  0  0  0  2  0  0  0  0  0  0
    3.9300  -19.0840  -40.0190 C   0  0  0  0  0  2  0  0  0  0  0  0
  1  2  2  0  0  0  0
  3  1  1  0  0  0  0
  3 16  1  0  0  0  0
  4  3  1  0  0  0  0
  5  1  1  0  0  0  0
  5  6  1  0  0  0  0
  6  8  1  0  0  0  0
  7  6  2  0  0  0  0
  7 10  1  0  0  0  0
  8 14  1  0  0  0  0
  8 15  1  0  0  0  0
  9  7  1  0  0  0  0
 10 14  2  0  0  0  0
 11 13  1  0  0  0  0
 11  9  2  0  0  0  0
 12 11  1  0  0  0  0
 13  5  2  0  0  0  0
 16 17  1  0  0  0  0
 17 23  2  0  0  0  0
 18 17  1  0  0  0  0
 18 19  1  0  0  0  0
 19 21  2  0  0  0  0
 20 18  1  0  0  0  0
 22 19  1  0  0  0  0
 23 21  1  0  0  0  0
 24 22  1  0  0  0  0
 25 20  1  0  0  0  0
 25 24  1  0  0  0  0
M  END
>  <Pose>
1

>  <Score>
-6.008

$$$$
