/Users/jonathanwahrer/Desktop/Msc/3_Semester/Drug_Design_Praktikum/waehrer_HTS_screening/HTS_experiment/out/docking_results/vina_output/6y4q/1687_docked.pdbqt
 OpenBabel03232218363D

 27 30  0  0  0  0  0  0  0  0999 V2000
    1.4360  -17.4600  -36.8390 N   0  0  0  0  0  0  0  0  0  0  0  0
    2.7510  -17.7720  -36.8160 C   0  0  0  0  0  2  0  0  0  0  0  0
    3.2690  -18.8230  -37.5400 C   0  0  0  0  0  0  0  0  0  0  0  0
    2.3810  -19.6350  -38.3630 C   0  0  0  0  0  0  0  0  0  0  0  0
    3.1520  -20.5670  -38.9410 N   0  0  0  0  0  2  0  0  0  0  0  0
    4.4300  -20.4160  -38.5600 N   0  0  0  0  0  0  0  0  0  0  0  0
    4.5200  -19.3730  -37.7200 C   0  0  0  0  0  0  0  0  0  0  0  0
    5.5880  -18.9850  -37.1940 O   0  0  0  0  0  0  0  0  0  0  0  0
    1.0400  -19.2890  -38.3630 C   0  0  0  0  0  0  0  0  0  0  0  0
    0.6410  -18.2230  -37.6040 C   0  0  0  0  0  3  0  0  0  0  0  0
    5.1970  -21.0480  -38.9030 H   0  0  0  0  0  0  0  0  0  0  0  0
    0.9220  -16.3400  -36.0600 C   0  0  0  0  0  2  0  0  0  0  0  0
    0.3710  -15.3140  -37.0270 C   0  0  0  0  0  2  0  0  0  0  0  0
    1.2990  -14.2250  -37.2410 N   0  0  0  0  0  0  0  0  0  0  0  0
    1.6670  -13.3100  -36.3200 C   0  0  0  0  0  3  0  0  0  0  0  0
    2.5440  -12.4420  -36.8550 N   0  0  0  0  0  0  0  0  0  0  0  0
    2.7660  -12.7820  -38.1540 C   0  0  0  0  0  0  0  0  0  0  0  0
    3.5570  -12.2450  -39.1490 C   0  0  0  0  0  3  0  0  0  0  0  0
    1.9750  -13.8950  -38.3560 C   0  0  0  0  0  0  0  0  0  0  0  0
    3.5700  -12.8290  -40.3980 C   0  0  0  0  0  0  0  0  0  0  0  0
    4.5560  -12.1980  -41.7170 Cl  0  0  0  0  0  0  0  0  0  0  0  0
    2.7740  -13.9420  -40.5890 C   0  0  0  0  0  3  0  0  0  0  0  0
    1.9800  -14.4850  -39.5990 C   0  0  0  0  0  3  0  0  0  0  0  0
    0.1210  -20.0780  -39.1740 C   0  0  0  0  0  0  0  0  0  0  0  0
    0.0620  -19.8660  -40.4120 O   0  0  0  0  0  0  0  0  0  0  0  0
   -0.6810  -21.0430  -38.6240 O   0  0  0  0  0  0  0  0  0  0  0  0
   -2.0220  -20.7710  -38.2500 C   0  0  0  0  0  1  0  0  0  0  0  0
  1  2  1  0  0  0  0
  1 12  1  0  0  0  0
  3  2  1  0  0  0  0
  4  3  2  0  0  0  0
  5  6  1  0  0  0  0
  5  4  1  0  0  0  0
  6  7  1  0  0  0  0
  7  3  1  0  0  0  0
  7  8  2  0  0  0  0
  9  4  1  0  0  0  0
  9 10  2  0  0  0  0
 10  1  1  0  0  0  0
 11  6  1  0  0  0  0
 13 12  1  0  0  0  0
 14 13  1  0  0  0  0
 14 15  1  0  0  0  0
 16 15  2  0  0  0  0
 17 16  1  0  0  0  0
 18 17  2  0  0  0  0
 19 17  1  0  0  0  0
 19 14  1  0  0  0  0
 20 18  1  0  0  0  0
 21 20  1  0  0  0  0
 22 20  2  0  0  0  0
 22 23  1  0  0  0  0
 23 19  2  0  0  0  0
 24 26  1  0  0  0  0
 24  9  1  0  0  0  0
 25 24  2  0  0  0  0
 26 27  1  0  0  0  0
M  END
>  <Pose>
1

>  <Score>
-6.284

$$$$
