/Users/jonathanwahrer/Desktop/Msc/3_Semester/Drug_Design_Praktikum/waehrer_HTS_screening/HTS_experiment/out/docking_results/vina_output/6y4q/1689_docked.pdbqt
 OpenBabel03232218363D

 32 35  0  0  1  0  0  0  0  0999 V2000
   -2.0490  -17.6740  -36.5200 C   0  0  0  0  0  0  0  0  0  0  0  0
   -2.7970  -18.0700  -35.5930 O   0  0  0  0  0  0  0  0  0  0  0  0
   -1.8000  -18.5470  -37.6000 N   0  0  0  0  0  0  0  0  0  0  0  0
   -0.9860  -18.3750  -38.7860 C   0  0  0  0  0  2  0  0  0  0  0  0
   -0.3520  -19.6830  -38.9560 C   0  0  2  0  0  3  0  0  0  0  0  0
   -1.0610  -20.6560  -38.0120 C   0  0  1  0  0  3  0  0  0  0  0  0
   -2.3580  -19.8670  -37.7320 C   0  0  0  0  0  2  0  0  0  0  0  0
   -1.4710  -16.3170  -36.4240 C   0  0  0  0  0  2  0  0  0  0  0  0
   -0.0440  -16.3870  -35.9740 C   0  0  0  0  0  2  0  0  0  0  0  0
    0.7840  -15.3680  -36.6470 C   0  0  0  0  0  0  0  0  0  0  0  0
    1.3380  -14.2770  -36.0490 N   0  0  0  0  0  0  0  0  0  0  0  0
    2.0250  -13.5360  -36.9320 C   0  0  0  0  0  0  0  0  0  0  0  0
    1.2700  -14.0030  -35.0380 H   0  0  0  0  0  0  0  0  0  0  0  0
    2.7590  -12.3640  -36.8580 C   0  0  0  0  0  3  0  0  0  0  0  0
    1.9090  -14.1760  -38.1420 C   0  0  0  0  0  0  0  0  0  0  0  0
    3.3700  -11.8360  -37.9870 C   0  0  0  0  0  0  0  0  0  0  0  0
    4.2890  -10.3550  -37.8720 Cl  0  0  0  0  0  0  0  0  0  0  0  0
    3.2560  -12.4740  -39.2030 C   0  0  0  0  0  3  0  0  0  0  0  0
    2.5180  -13.6470  -39.2600 C   0  0  0  0  0  3  0  0  0  0  0  0
    1.1620  -15.2700  -37.9490 N   0  0  0  0  0  0  0  0  0  0  0  0
    1.0490  -19.8390  -38.9030 N   0  0  0  0  0  0  0  0  0  0  0  0
    1.6990  -19.3140  -37.8290 C   0  0  0  0  0  3  0  0  0  0  0  0
    3.0640  -19.4170  -37.6830 C   0  0  0  0  0  0  0  0  0  0  0  0
    3.8150  -20.0650  -38.6350 C   0  0  0  0  0  0  0  0  0  0  0  0
    3.7650  -18.8330  -36.4930 C   0  0  0  0  0  1  0  0  0  0  0  0
    5.0740  -20.1740  -38.5260 O   0  0  0  0  0  0  0  0  0  0  0  0
    3.1750  -20.5830  -39.6940 N   0  0  0  0  0  0  0  0  0  0  0  0
    1.8490  -20.4520  -39.7810 C   0  0  0  0  0  0  0  0  0  0  0  0
    3.7340  -21.0890  -40.4480 H   0  0  0  0  0  0  0  0  0  0  0  0
    1.3060  -20.9560  -40.7860 O   0  0  0  0  0  0  0  0  0  0  0  0
   -1.3400  -21.8670  -38.5950 O   0  0  0  0  0  0  0  0  0  0  0  0
   -0.7840  -21.9530  -39.4090 H   0  0  0  0  0  0  0  0  0  0  0  0
  1  8  1  0  0  0  0
  1  2  2  0  0  0  0
  3  1  1  0  0  0  0
  4  3  1  0  0  0  0
  5 21  1  1  0  0  0
  5  4  1  0  0  0  0
  5  6  1  0  0  0  0
  6 31  1  6  0  0  0
  6  7  1  0  0  0  0
  7  3  1  0  0  0  0
  8  9  1  0  0  0  0
 10 11  1  0  0  0  0
 10  9  1  0  0  0  0
 11 13  1  0  0  0  0
 12 14  1  0  0  0  0
 12 11  1  0  0  0  0
 15 20  1  0  0  0  0
 15 12  2  0  0  0  0
 16 17  1  0  0  0  0
 16 14  2  0  0  0  0
 18 16  1  0  0  0  0
 19 18  2  0  0  0  0
 19 15  1  0  0  0  0
 20 10  2  0  0  0  0
 21 22  1  0  0  0  0
 22 23  2  0  0  0  0
 23 25  1  0  0  0  0
 24 26  2  0  0  0  0
 24 23  1  0  0  0  0
 27 24  1  0  0  0  0
 28 27  1  0  0  0  0
 28 21  1  0  0  0  0
 29 27  1  0  0  0  0
 30 28  2  0  0  0  0
 32 31  1  0  0  0  0
M  END
>  <Pose>
1

>  <Score>
-7.341

$$$$
