/Users/jonathanwahrer/Desktop/Msc/3_Semester/Drug_Design_Praktikum/waehrer_HTS_screening/HTS_experiment/out/docking_results/vina_output/6y4q/1690_docked.pdbqt
 OpenBabel03232218373D

 34 37  0  0  1  0  0  0  0  0999 V2000
    5.8860  -21.8210  -42.9770 C   0  0  0  0  0  0  0  0  0  0  0  0
    5.9250  -21.1540  -44.0430 O   0  0  0  0  0  0  0  0  0  0  0  0
    5.9710  -21.1760  -41.7070 N   0  0  0  0  0  0  0  0  0  0  0  0
    5.9330  -21.8760  -40.4420 C   0  0  0  0  0  2  0  0  0  0  0  0
    5.1610  -21.0530  -39.3970 C   0  0  2  0  0  0  0  0  0  0  0  0
    4.2070  -20.1960  -40.1580 C   0  0  2  0  0  3  0  0  0  0  0  0
    4.9760  -19.1050  -40.8680 C   0  0  0  0  0  2  0  0  0  0  0  0
    6.1010  -19.7350  -41.6630 C   0  0  0  0  0  2  0  0  0  0  0  0
    6.1780  -20.3160  -38.5850 C   0  0  0  0  0  1  0  0  0  0  0  0
    5.7540  -23.2870  -43.0110 C   0  0  0  0  0  2  0  0  0  0  0  0
    6.3470  -23.8140  -44.2860 C   0  0  0  0  0  2  0  0  0  0  0  0
    7.4880  -24.7010  -43.9540 C   0  0  0  0  0  0  0  0  0  0  0  0
    8.1120  -25.5250  -44.8390 N   0  0  0  0  0  0  0  0  0  0  0  0
    9.0950  -26.2060  -44.2360 C   0  0  0  0  0  0  0  0  0  0  0  0
    7.8320  -25.5940  -45.8560 H   0  0  0  0  0  0  0  0  0  0  0  0
   10.0030  -27.1410  -44.6730 C   0  0  0  0  0  3  0  0  0  0  0  0
    9.0960  -25.7980  -42.9240 C   0  0  0  0  0  0  0  0  0  0  0  0
   10.9400  -27.7040  -43.8240 C   0  0  0  0  0  0  0  0  0  0  0  0
   12.1000  -28.8950  -44.3680 Cl  0  0  0  0  0  0  0  0  0  0  0  0
   10.9350  -27.2900  -42.5040 C   0  0  0  0  0  3  0  0  0  0  0  0
   10.0190  -26.3440  -42.0600 C   0  0  0  0  0  3  0  0  0  0  0  0
    8.1160  -24.8980  -42.8050 N   0  0  0  0  0  0  0  0  0  0  0  0
    4.5070  -22.0000  -38.5960 O   0  0  0  0  0  0  0  0  0  0  0  0
    4.8150  -21.8870  -37.6400 H   0  0  0  0  0  0  0  0  0  0  0  0
    3.0830  -19.7180  -39.4350 N   0  0  0  0  0  0  0  0  0  0  0  0
    3.1610  -18.8100  -38.4500 C   0  0  0  0  0  3  0  0  0  0  0  0
    2.0380  -18.3650  -37.7650 C   0  0  0  0  0  0  0  0  0  0  0  0
    0.8040  -18.8690  -38.1050 C   0  0  0  0  0  0  0  0  0  0  0  0
    2.1900  -17.3450  -36.6700 C   0  0  0  0  0  1  0  0  0  0  0  0
   -0.2260  -18.4650  -37.4810 O   0  0  0  0  0  0  0  0  0  0  0  0
    0.7290  -19.7760  -39.0890 N   0  0  0  0  0  0  0  0  0  0  0  0
    1.8450  -20.1740  -39.7230 C   0  0  0  0  0  0  0  0  0  0  0  0
   -0.1990  -20.1650  -39.3560 H   0  0  0  0  0  0  0  0  0  0  0  0
    1.7680  -21.0410  -40.6630 O   0  0  0  0  0  0  0  0  0  0  0  0
  1  3  1  0  0  0  0
  2  1  2  0  0  0  0
  3  8  1  0  0  0  0
  3  4  1  0  0  0  0
  4  5  1  0  0  0  0
  5 23  1  0  0  0  0
  5  9  1  1  0  0  0
  6  7  1  1  0  0  0
  6 25  1  0  0  0  0
  6  5  1  0  0  0  0
  8  7  1  0  0  0  0
 10  1  1  0  0  0  0
 11 12  1  0  0  0  0
 11 10  1  0  0  0  0
 12 22  2  0  0  0  0
 13 14  1  0  0  0  0
 13 12  1  0  0  0  0
 14 17  1  0  0  0  0
 15 13  1  0  0  0  0
 16 14  2  0  0  0  0
 16 18  1  0  0  0  0
 17 22  1  0  0  0  0
 17 21  2  0  0  0  0
 18 20  2  0  0  0  0
 19 18  1  0  0  0  0
 20 21  1  0  0  0  0
 23 24  1  0  0  0  0
 25 26  1  0  0  0  0
 26 27  2  0  0  0  0
 27 29  1  0  0  0  0
 28 27  1  0  0  0  0
 28 30  2  0  0  0  0
 31 28  1  0  0  0  0
 32 25  1  0  0  0  0
 32 31  1  0  0  0  0
 33 31  1  0  0  0  0
 34 32  2  0  0  0  0
M  END
>  <Pose>
1

>  <Score>
-7.019

$$$$
