/Users/jonathanwahrer/Desktop/Msc/3_Semester/Drug_Design_Praktikum/waehrer_HTS_screening/HTS_experiment/out/docking_results/vina_output/6y4q/1691_docked.pdbqt
 OpenBabel03232218373D

 35 39  0  0  1  0  0  0  0  0999 V2000
   -0.4200  -16.3970  -36.3730 C   0  0  0  0  0  0  0  0  0  0  0  0
   -0.2530  -16.8340  -35.2180 O   0  0  0  0  0  0  0  0  0  0  0  0
   -0.5990  -17.2860  -37.4450 N   0  0  0  0  0  0  0  0  0  0  0  0
   -0.6240  -18.7130  -37.5020 C   0  0  0  0  0  2  0  0  0  0  0  0
    0.1660  -19.0610  -38.7870 C   0  0  1  0  0  3  0  0  0  0  0  0
   -0.2310  -17.9120  -39.6450 C   0  0  2  0  0  3  0  0  0  0  0  0
   -0.8350  -16.8390  -38.8040 C   0  0  0  0  0  2  0  0  0  0  0  0
   -0.4280  -14.9430  -36.6000 C   0  0  0  0  0  2  0  0  0  0  0  0
    0.7800  -14.3000  -35.9550 C   0  0  0  0  0  2  0  0  0  0  0  0
    1.6340  -13.6870  -37.0250 C   0  0  0  0  0  0  0  0  0  0  0  0
    2.4340  -12.6220  -36.8450 N   0  0  0  0  0  0  0  0  0  0  0  0
    3.0740  -12.3040  -37.9830 C   0  0  0  0  0  0  0  0  0  0  0  0
    2.5670  -12.0850  -35.9460 H   0  0  0  0  0  0  0  0  0  0  0  0
    3.9920  -11.3090  -38.3210 C   0  0  0  0  0  3  0  0  0  0  0  0
    2.6490  -13.2190  -38.9230 C   0  0  0  0  0  0  0  0  0  0  0  0
    4.4810  -11.2350  -39.6040 C   0  0  0  0  0  0  0  0  0  0  0  0
    5.6400   -9.9990  -40.0810 Cl  0  0  0  0  0  0  0  0  0  0  0  0
    4.0590  -12.1440  -40.5330 C   0  0  0  0  0  3  0  0  0  0  0  0
    3.1420  -13.1440  -40.2090 C   0  0  0  0  0  3  0  0  0  0  0  0
    1.7780  -14.0410  -38.3020 N   0  0  0  0  0  0  0  0  0  0  0  0
    1.5640  -19.1090  -38.4660 N   0  0  0  0  0  0  0  0  0  0  0  0
    2.5260  -19.8330  -39.0610 C   0  0  0  0  0  0  0  0  0  0  0  0
    3.7530  -19.5660  -38.4190 C   0  0  0  0  0  0  0  0  0  0  0  0
    2.4970  -20.7010  -40.0920 N   0  0  0  0  0  0  0  0  0  0  0  0
    3.4770  -18.6800  -37.4480 N   0  0  0  0  0  0  0  0  0  0  0  0
    4.9190  -20.1760  -38.8240 C   0  0  0  0  0  0  0  0  0  0  0  0
    2.1770  -18.3970  -37.4620 C   0  0  0  0  0  3  0  0  0  0  0  0
    6.0000  -19.9170  -38.2300 O   0  0  0  0  0  0  0  0  0  0  0  0
    4.8480  -21.0310  -39.8510 N   0  0  0  0  0  0  0  0  0  0  0  0
    3.6840  -21.2780  -40.4530 C   0  0  0  0  0  0  0  0  0  0  0  0
    6.0720  -21.6950  -40.3050 C   0  0  0  0  0  1  0  0  0  0  0  0
    3.6350  -22.0860  -41.4170 O   0  0  0  0  0  0  0  0  0  0  0  0
    1.2860  -21.0140  -40.7820 C   0  0  0  0  0  1  0  0  0  0  0  0
   -1.1750  -18.2480  -40.6150 O   0  0  0  0  0  0  0  0  0  0  0  0
   -0.8940  -19.0500  -41.1390 H   0  0  0  0  0  0  0  0  0  0  0  0
  1  2  2  0  0  0  0
  3  1  1  0  0  0  0
  4  3  1  0  0  0  0
  5 21  1  1  0  0  0
  5  4  1  0  0  0  0
  6 34  1  6  0  0  0
  6  7  1  0  0  0  0
  6  5  1  0  0  0  0
  7  3  1  0  0  0  0
  8  1  1  0  0  0  0
  8  9  1  0  0  0  0
 10 11  1  0  0  0  0
 10  9  1  0  0  0  0
 11 13  1  0  0  0  0
 12 11  1  0  0  0  0
 14 12  1  0  0  0  0
 15 20  1  0  0  0  0
 15 12  2  0  0  0  0
 16 14  2  0  0  0  0
 17 16  1  0  0  0  0
 18 19  2  0  0  0  0
 18 16  1  0  0  0  0
 19 15  1  0  0  0  0
 20 10  2  0  0  0  0
 21 27  1  0  0  0  0
 22 21  1  0  0  0  0
 22 23  2  0  0  0  0
 23 25  1  0  0  0  0
 24 22  1  0  0  0  0
 26 23  1  0  0  0  0
 26 28  2  0  0  0  0
 27 25  2  0  0  0  0
 29 26  1  0  0  0  0
 30 24  1  0  0  0  0
 30 29  1  0  0  0  0
 31 29  1  0  0  0  0
 32 30  2  0  0  0  0
 33 24  1  0  0  0  0
 35 34  1  0  0  0  0
M  END
>  <Pose>
1

>  <Score>
-7.183

$$$$
