/Users/jonathanwahrer/Desktop/Msc/3_Semester/Drug_Design_Praktikum/waehrer_HTS_screening/HTS_experiment/out/docking_results/vina_output/6y4q/1711_docked.pdbqt
 OpenBabel03232218383D

 30 33  0  0  0  0  0  0  0  0999 V2000
   -0.2800  -14.0230  -37.5460 N   0  0  0  0  0  0  0  0  0  0  0  0
   -0.2280  -14.0410  -38.9650 C   0  0  0  0  0  2  0  0  0  0  0  0
   -0.7410  -15.3240  -39.5670 C   0  0  0  0  0  2  0  0  0  0  0  0
   -0.4820  -16.4680  -38.7310 N   0  0  0  0  0  0  0  0  0  0  0  0
   -0.8390  -16.4170  -37.3340 C   0  0  0  0  0  2  0  0  0  0  0  0
   -1.1330  -14.9950  -36.9670 C   0  0  0  0  0  2  0  0  0  0  0  0
    0.1130  -17.6510  -39.2330 C   0  0  0  0  0  0  0  0  0  0  0  0
    0.4240  -17.7040  -40.4390 O   0  0  0  0  0  0  0  0  0  0  0  0
    0.3760  -18.8230  -38.3680 C   0  0  0  0  0  2  0  0  0  0  0  0
    1.7500  -19.2260  -38.4420 N   0  0  0  0  0  0  0  0  0  0  0  0
    2.3690  -20.1950  -39.2780 C   0  0  0  0  0  0  0  0  0  0  0  0
    1.7610  -20.8810  -40.1270 O   0  0  0  0  0  0  0  0  0  0  0  0
    3.7890  -20.2290  -38.9670 C   0  0  0  0  0  0  0  0  0  0  0  0
    4.0530  -19.3170  -37.9730 C   0  0  0  0  0  0  0  0  0  0  0  0
    4.8240  -20.9740  -39.4730 C   0  0  0  0  0  3  0  0  0  0  0  0
    5.3530  -19.1730  -37.5070 C   0  0  0  0  0  3  0  0  0  0  0  0
    2.7910  -18.6750  -37.6270 C   0  0  0  0  0  0  0  0  0  0  0  0
    6.3820  -19.9170  -38.0130 C   0  0  0  0  0  3  0  0  0  0  0  0
    6.1290  -20.8460  -39.0220 C   0  0  0  0  0  3  0  0  0  0  0  0
    2.7060  -17.7850  -36.7410 O   0  0  0  0  0  0  0  0  0  0  0  0
    1.1490  -13.6640  -36.7400 S   0  0  0  0  0  0  0  0  0  0  0  0
    0.8100  -12.8900  -35.4740 O   0  0  0  0  0  0  0  0  0  0  0  0
    1.7660  -14.9620  -36.2550 O   0  0  0  0  0  0  0  0  0  0  0  0
    2.3420  -12.8320  -37.6630 C   0  0  0  0  0  0  0  0  0  0  0  0
    3.0160  -11.7570  -37.1080 C   0  0  0  0  0  3  0  0  0  0  0  0
    3.9810  -11.0570  -37.8030 C   0  0  0  0  0  3  0  0  0  0  0  0
    4.2700  -11.4590  -39.0940 C   0  0  0  0  0  0  0  0  0  0  0  0
    3.5900  -12.5310  -39.6340 C   0  0  0  0  0  3  0  0  0  0  0  0
    5.6060  -10.5250  -40.1200 Br  0  0  0  0  0  0  0  0  0  0  0  0
    2.6230  -13.2410  -38.9510 C   0  0  0  0  0  3  0  0  0  0  0  0
  1  6  1  0  0  0  0
  1 21  1  0  0  0  0
  2  1  1  0  0  0  0
  3  2  1  0  0  0  0
  3  4  1  0  0  0  0
  4  5  1  0  0  0  0
  5  6  1  0  0  0  0
  7  4  1  0  0  0  0
  7  9  1  0  0  0  0
  8  7  2  0  0  0  0
 10  9  1  0  0  0  0
 10 17  1  0  0  0  0
 11 13  1  0  0  0  0
 11 10  1  0  0  0  0
 12 11  2  0  0  0  0
 13 14  1  0  0  0  0
 14 17  1  0  0  0  0
 14 16  2  0  0  0  0
 15 19  1  0  0  0  0
 15 13  2  0  0  0  0
 17 20  2  0  0  0  0
 18 16  1  0  0  0  0
 19 18  2  0  0  0  0
 21 23  2  0  0  0  0
 21 22  2  0  0  0  0
 24 25  1  0  0  0  0
 24 21  1  0  0  0  0
 26 25  2  0  0  0  0
 27 26  1  0  0  0  0
 28 27  2  0  0  0  0
 28 30  1  0  0  0  0
 29 27  1  0  0  0  0
 30 24  2  0  0  0  0
M  END
>  <Pose>
1

>  <Score>
-7.513

$$$$
