/Users/jonathanwahrer/Desktop/Msc/3_Semester/Drug_Design_Praktikum/waehrer_HTS_screening/HTS_experiment/out/docking_results/vina_output/6y4q/1721_docked.pdbqt
 OpenBabel03232218383D

 28 31  0  0  1  0  0  0  0  0999 V2000
    1.9950  -18.4730  -38.8910 C   0  0  0  0  0  2  0  0  0  0  0  0
    2.2810  -19.8280  -38.6030 N   0  0  0  0  0  0  0  0  0  0  0  0
    1.6560  -20.3860  -38.0130 H   0  0  0  0  0  0  0  0  0  0  0  0
    3.4820  -20.4300  -39.1390 C   0  0  0  0  0  0  0  0  0  0  0  0
    4.6710  -20.0580  -38.5600 C   0  0  1  0  0  3  0  0  0  0  0  0
    5.8510  -20.6130  -39.0490 C   0  0  0  0  0  0  0  0  0  0  0  0
    5.0550  -19.2390  -37.5690 N   0  0  0  0  0  0  0  0  0  0  0  0
    5.7260  -21.4780  -40.0600 N   0  0  0  0  0  4  0  0  0  0  0  0
    6.8730  -20.1080  -38.3380 N   0  0  0  0  0  0  0  0  0  0  0  0
    4.5840  -21.8440  -40.6260 C   0  0  0  0  0  0  0  0  0  0  0  0
    4.5380  -22.9830  -41.9460 Cl  0  0  0  0  0  0  0  0  0  0  0  0
    3.4370  -21.3050  -40.1530 N   0  0  0  0  0  0  0  0  0  0  0  0
    6.3930  -19.2550  -37.4180 C   0  0  0  0  0  3  0  0  0  0  0  0
    4.3550  -18.6790  -37.0130 H   0  0  0  0  0  0  0  0  0  0  0  0
    1.8310  -17.5920  -37.7460 C   0  0  0  0  0  0  0  0  0  0  0  0
    2.6320  -17.9370  -36.7150 O   0  0  0  0  0  0  0  0  0  0  0  0
    1.0300  -16.5050  -37.5320 N   0  0  0  0  0  0  0  0  0  0  0  0
    0.0140  -15.9740  -38.3760 C   0  0  0  0  0  2  0  0  0  0  0  0
    1.2690  -15.7560  -36.2390 C   0  0  0  0  0  2  0  0  0  0  0  0
    0.3610  -14.5700  -38.8660 C   0  0  0  0  0  2  0  0  0  0  0  0
    1.1400  -13.9790  -37.8150 N   0  0  0  0  0  0  0  0  0  0  0  0
    0.8010  -14.3140  -36.4630 C   0  0  0  0  0  2  0  0  0  0  0  0
    2.2040  -13.0950  -38.0650 C   0  0  0  0  0  0  0  0  0  0  0  0
    2.7050  -12.2800  -37.0920 N   0  0  0  0  0  0  0  0  0  0  0  0
    3.7010  -11.4270  -37.2600 C   0  0  0  0  0  3  0  0  0  0  0  0
    4.3290  -11.2890  -38.4660 C   0  0  0  0  0  3  0  0  0  0  0  0
    3.8690  -12.0890  -39.5010 C   0  0  0  0  0  3  0  0  0  0  0  0
    2.8230  -12.9770  -39.3000 C   0  0  0  0  0  3  0  0  0  0  0  0
  1  2  1  0  0  0  0
  1 15  1  0  0  0  0
  2  3  1  0  0  0  0
  4  2  1  0  0  0  0
  5  4  1  6  0  0  0
  5  7  1  0  0  0  0
  6  5  1  0  0  0  0
  6  9  1  0  0  0  0
  7 13  1  0  0  0  0
  7 14  1  0  0  0  0
  8  6  2  0  0  0  0
  9 13  2  0  0  0  0
 10 12  1  0  0  0  0
 10  8  2  0  0  0  0
 11 10  1  0  0  0  0
 12  4  2  0  0  0  0
 15 17  1  0  0  0  0
 15 16  2  0  0  0  0
 17 19  1  0  0  0  0
 18 17  1  0  0  0  0
 20 18  1  0  0  0  0
 20 21  1  0  0  0  0
 21 22  1  0  0  0  0
 22 19  1  0  0  0  0
 23 21  1  0  0  0  0
 23 24  1  0  0  0  0
 25 24  2  0  0  0  0
 26 25  1  0  0  0  0
 27 28  1  0  0  0  0
 27 26  2  0  0  0  0
 28 23  2  0  0  0  0
M  END
>  <Pose>
1

>  <Score>
-6.682

$$$$
