/Users/jonathanwahrer/Desktop/Msc/3_Semester/Drug_Design_Praktikum/waehrer_HTS_screening/HTS_experiment/out/docking_results/vina_output/6y4q/1726_docked.pdbqt
 OpenBabel03232218383D

 30 33  0  0  1  0  0  0  0  0999 V2000
    1.2120  -17.6720  -39.3740 N   0  0  0  0  0  4  0  0  0  0  0  0
    0.3960  -18.8150  -39.6160 C   0  0  0  0  0  2  0  0  0  0  0  0
    1.0200  -20.1310  -39.2740 C   0  0  1  0  0  3  0  0  0  0  0  0
    2.0850  -20.5720  -40.2140 C   0  0  0  0  0  2  0  0  0  0  0  0
    3.4070  -20.6150  -39.6550 N   0  0  0  0  0  0  0  0  0  0  0  0
    3.8050  -19.9120  -38.5790 C   0  0  0  0  0  0  0  0  0  0  0  0
    5.0620  -19.9520  -38.0470 C   0  0  0  0  0  3  0  0  0  0  0  0
    6.0050  -20.7670  -38.6400 C   0  0  0  0  0  3  0  0  0  0  0  0
    5.6070  -21.4890  -39.7400 C   0  0  0  0  0  3  0  0  0  0  0  0
    4.3320  -21.4230  -40.2490 C   0  0  0  0  0  0  0  0  0  0  0  0
    4.0030  -22.0990  -41.2590 O   0  0  0  0  0  0  0  0  0  0  0  0
    2.7260  -19.0400  -37.9780 C   0  0  1  0  0  3  0  0  0  0  0  0
    2.5220  -17.9060  -38.9020 C   0  0  0  0  0  2  0  0  0  0  0  0
    1.5430  -19.9660  -37.8420 C   0  0  0  0  0  2  0  0  0  0  0  0
    0.7110  -17.0730  -38.6500 H   0  0  0  0  0  0  0  0  0  0  0  0
    1.2050  -16.8760  -40.5860 C   0  0  0  0  0  2  0  0  0  0  0  0
   -0.0530  -16.0950  -40.7910 C   0  0  1  0  0  3  0  0  0  0  0  0
    0.0850  -14.8170  -39.9640 C   0  0  0  0  0  2  0  0  0  0  0  0
    1.3450  -14.8660  -39.3600 O   0  0  0  0  0  0  0  0  0  0  0  0
    2.0630  -13.8370  -38.8490 C   0  0  0  0  0  0  0  0  0  0  0  0
    1.9510  -13.5040  -37.5180 C   0  0  0  0  0  0  0  0  0  0  0  0
    0.7700  -14.5250  -36.4250 Br  0  0  0  0  0  0  0  0  0  0  0  0
    2.6710  -12.4530  -36.9550 C   0  0  0  0  0  3  0  0  0  0  0  0
    3.5160  -11.7220  -37.7370 C   0  0  0  0  0  0  0  0  0  0  0  0
    3.6510  -12.0310  -39.0770 C   0  0  0  0  0  3  0  0  0  0  0  0
    4.2860  -10.5940  -37.1270 C   0  0  0  0  0  1  0  0  0  0  0  0
    2.9200  -13.0900  -39.6260 C   0  0  0  0  0  0  0  0  0  0  0  0
    3.0980  -13.5230  -41.4700 Br  0  0  0  0  0  0  0  0  0  0  0  0
   -0.2170  -15.8080  -42.1450 O   0  0  0  0  0  0  0  0  0  0  0  0
   -0.2310  -14.8120  -42.2130 H   0  0  0  0  0  0  0  0  0  0  0  0
  1 13  1  0  0  0  0
  1 15  1  0  0  0  0
  2  1  1  0  0  0  0
  2  3  1  0  0  0  0
  3  4  1  6  0  0  0
  3 14  1  0  0  0  0
  4  5  1  0  0  0  0
  5  6  1  0  0  0  0
  6  7  2  0  0  0  0
  6 12  1  0  0  0  0
  8  7  1  0  0  0  0
  9  8  2  0  0  0  0
 10  9  1  0  0  0  0
 10  5  1  0  0  0  0
 11 10  2  0  0  0  0
 12 13  1  6  0  0  0
 12 14  1  0  0  0  0
 16  1  1  0  0  0  0
 17 16  1  6  0  0  0
 17 18  1  0  0  0  0
 18 19  1  0  0  0  0
 19 20  1  0  0  0  0
 20 21  1  0  0  0  0
 21 23  2  0  0  0  0
 21 22  1  0  0  0  0
 24 26  1  0  0  0  0
 24 23  1  0  0  0  0
 25 24  2  0  0  0  0
 27 25  1  0  0  0  0
 27 20  2  0  0  0  0
 28 27  1  0  0  0  0
 29 17  1  0  0  0  0
 30 29  1  0  0  0  0
M  END
>  <Pose>
1

>  <Score>
-6.243

$$$$
