/Users/jonathanwahrer/Desktop/Msc/3_Semester/Drug_Design_Praktikum/waehrer_HTS_screening/HTS_experiment/out/docking_results/vina_output/6y4q/1741_docked.pdbqt
 OpenBabel03232218393D

 28 31  0  0  0  0  0  0  0  0999 V2000
    0.0370  -14.7950  -36.5520 C   0  0  0  0  0  0  0  0  0  0  0  0
   -1.1240  -14.4350  -36.8270 O   0  0  0  0  0  0  0  0  0  0  0  0
    0.3100  -16.1370  -36.2490 N   0  0  0  0  0  0  0  0  0  0  0  0
   -0.7000  -17.1720  -36.2400 C   0  0  0  0  0  2  0  0  0  0  0  0
   -0.1860  -18.2970  -37.1230 C   0  0  0  0  0  2  0  0  0  0  0  0
    0.9940  -17.9370  -37.7910 N   0  0  0  0  0  0  0  0  0  0  0  0
    2.1140  -17.5050  -37.0610 C   0  0  0  0  0  2  0  0  0  0  0  0
    1.6650  -16.6050  -35.9160 C   0  0  0  0  0  2  0  0  0  0  0  0
    1.1300  -13.7640  -36.5510 C   0  0  0  0  0  2  0  0  0  0  0  0
    1.7120  -13.5970  -37.8660 N   0  0  0  0  0  0  0  0  0  0  0  0
    2.6830  -12.6950  -38.1900 C   0  0  0  0  0  0  0  0  0  0  0  0
    3.0050  -12.7980  -39.5230 C   0  0  0  0  0  0  0  0  0  0  0  0
    3.3290  -11.7700  -37.4040 C   0  0  0  0  0  3  0  0  0  0  0  0
    3.9720  -11.9890  -40.1110 C   0  0  0  0  0  3  0  0  0  0  0  0
    2.2110  -13.7940  -40.0480 C   0  0  0  0  0  3  0  0  0  0  0  0
    4.6320  -11.0470  -39.3200 C   0  0  0  0  0  0  0  0  0  0  0  0
    5.9710   -9.9170  -40.1000 Br  0  0  0  0  0  0  0  0  0  0  0  0
    4.2970  -10.9570  -37.9860 C   0  0  0  0  0  3  0  0  0  0  0  0
    1.4380  -14.2520  -39.0010 C   0  0  0  0  0  3  0  0  0  0  0  0
    0.9990  -17.8430  -39.1920 C   0  0  0  0  0  2  0  0  0  0  0  0
    2.3420  -17.9920  -39.8140 C   0  0  0  0  0  0  0  0  0  0  0  0
    2.7670  -17.0120  -40.4740 O   0  0  0  0  0  0  0  0  0  0  0  0
    3.1320  -19.1460  -39.7000 N   0  0  0  0  0  0  0  0  0  0  0  0
    4.4270  -19.2140  -40.3460 C   0  0  0  0  0  2  0  0  0  0  0  0
    2.7390  -20.3270  -38.9570 C   0  0  0  0  0  2  0  0  0  0  0  0
    5.4370  -19.5870  -39.2810 C   0  0  0  0  0  2  0  0  0  0  0  0
    5.0970  -20.8890  -38.8830 O   0  0  0  0  0  0  0  0  0  0  0  0
    3.8920  -20.9200  -38.2240 C   0  0  0  0  0  2  0  0  0  0  0  0
  1  9  1  0  0  0  0
  1  3  1  0  0  0  0
  2  1  2  0  0  0  0
  3  4  1  0  0  0  0
  3  8  1  0  0  0  0
  5  4  1  0  0  0  0
  6  5  1  0  0  0  0
  6  7  1  0  0  0  0
  7  8  1  0  0  0  0
 10  9  1  0  0  0  0
 11 10  1  0  0  0  0
 11 13  1  0  0  0  0
 12 11  2  0  0  0  0
 14 12  1  0  0  0  0
 14 16  2  0  0  0  0
 15 12  1  0  0  0  0
 15 19  2  0  0  0  0
 16 18  1  0  0  0  0
 17 16  1  0  0  0  0
 18 13  2  0  0  0  0
 19 10  1  0  0  0  0
 20  6  1  0  0  0  0
 21 23  1  0  0  0  0
 21 20  1  0  0  0  0
 22 21  2  0  0  0  0
 23 25  1  0  0  0  0
 24 23  1  0  0  0  0
 24 26  1  0  0  0  0
 25 28  1  0  0  0  0
 26 27  1  0  0  0  0
 27 28  1  0  0  0  0
M  END
>  <Pose>
1

>  <Score>
-6.748

$$$$
