/Users/jonathanwahrer/Desktop/Msc/3_Semester/Drug_Design_Praktikum/waehrer_HTS_screening/HTS_experiment/out/docking_results/vina_output/6y4q/1750_docked.pdbqt
 OpenBabel03232218403D

 27 30  0  0  0  0  0  0  0  0999 V2000
   -0.1980  -12.2940  -36.8900 N   0  0  0  0  0  0  0  0  0  0  0  0
    0.6150  -13.0180  -35.9610 C   0  0  0  0  0  2  0  0  0  0  0  0
    0.9150  -14.4300  -36.4250 C   0  0  0  0  0  2  0  0  0  0  0  0
   -0.3100  -15.0520  -36.8510 N   0  0  0  0  0  0  0  0  0  0  0  0
   -1.5490  -14.3270  -36.6510 C   0  0  0  0  0  2  0  0  0  0  0  0
   -1.3840  -12.9680  -37.2960 C   0  0  0  0  0  2  0  0  0  0  0  0
   -0.3530  -16.3410  -37.4560 C   0  0  0  0  0  0  0  0  0  0  0  0
   -1.4340  -16.8610  -37.8190 O   0  0  0  0  0  0  0  0  0  0  0  0
    0.8780  -17.1040  -37.6730 C   0  0  0  0  0  0  0  0  0  0  0  0
    1.7340  -17.5460  -36.7100 N   0  0  0  0  0  0  0  0  0  0  0  0
    2.7460  -18.2050  -37.2950 C   0  0  0  0  0  0  0  0  0  0  0  0
    2.5270  -18.1760  -38.6100 N   0  0  0  0  0  0  0  0  0  0  0  0
    3.8710  -18.8470  -36.8020 C   0  0  0  0  0  3  0  0  0  0  0  0
    1.3930  -17.5100  -38.8660 C   0  0  0  0  0  3  0  0  0  0  0  0
    3.4120  -18.7770  -39.4280 C   0  0  0  0  0  3  0  0  0  0  0  0
    4.5370  -19.4240  -38.9960 C   0  0  0  0  0  0  0  0  0  0  0  0
    4.7830  -19.4640  -37.6280 C   0  0  0  0  0  3  0  0  0  0  0  0
    5.6730  -20.1980  -40.0950 Cl  0  0  0  0  0  0  0  0  0  0  0  0
    0.6360  -11.4990  -38.1260 S   0  0  0  0  0  0  0  0  0  0  0  0
    0.9610  -12.4600  -39.2230 O   0  0  0  0  0  0  0  0  0  0  0  0
   -0.2500  -10.4220  -38.6860 O   0  0  0  0  0  0  0  0  0  0  0  0
    2.0930  -10.7490  -37.6130 N   0  0  0  0  0  0  0  0  0  0  0  0
    2.2510   -9.4150  -38.1620 C   0  0  0  0  0  2  0  0  0  0  0  0
    3.7280   -9.0980  -38.1480 C   0  0  0  0  0  2  0  0  0  0  0  0
    4.3680   -9.6790  -37.0590 O   0  0  0  0  0  0  0  0  0  0  0  0
    4.4090  -11.0690  -37.1380 C   0  0  0  0  0  2  0  0  0  0  0  0
    3.2610  -11.5040  -38.0270 C   0  0  0  0  0  2  0  0  0  0  0  0
  1  2  1  0  0  0  0
  3  2  1  0  0  0  0
  4  5  1  0  0  0  0
  4  3  1  0  0  0  0
  6  1  1  0  0  0  0
  6  5  1  0  0  0  0
  7  4  1  0  0  0  0
  8  7  2  0  0  0  0
  9  7  1  0  0  0  0
  9 10  1  0  0  0  0
 11 13  1  0  0  0  0
 11 10  2  0  0  0  0
 12 11  1  0  0  0  0
 14 12  1  0  0  0  0
 14  9  2  0  0  0  0
 15 16  2  0  0  0  0
 15 12  1  0  0  0  0
 16 17  1  0  0  0  0
 17 13  2  0  0  0  0
 18 16  1  0  0  0  0
 19 22  1  0  0  0  0
 19  1  1  0  0  0  0
 20 19  2  0  0  0  0
 21 19  2  0  0  0  0
 23 24  1  0  0  0  0
 23 22  1  0  0  0  0
 24 25  1  0  0  0  0
 26 25  1  0  0  0  0
 27 22  1  0  0  0  0
 27 26  1  0  0  0  0
M  END
>  <Pose>
1

>  <Score>
-6.076

$$$$
