/Users/jonathanwahrer/Desktop/Msc/3_Semester/Drug_Design_Praktikum/waehrer_HTS_screening/HTS_experiment/out/docking_results/vina_output/6y4q/1764_docked.pdbqt
 OpenBabel03232218413D

 34 37  0  0  1  0  0  0  0  0999 V2000
    0.5230  -15.9890  -37.9560 N   0  0  0  0  0  0  0  0  0  0  0  0
    1.5510  -16.2970  -37.0860 C   0  0  1  0  0  3  0  0  0  0  0  0
    0.8810  -16.5320  -35.7250 C   0  0  0  0  0  2  0  0  0  0  0  0
   -0.4080  -17.2110  -36.1350 C   0  0  0  0  0  2  0  0  0  0  0  0
   -0.6950  -16.6620  -37.5120 C   0  0  0  0  0  2  0  0  0  0  0  0
    0.2600  -14.5080  -38.6590 S   0  0  0  0  0  0  0  0  0  0  0  0
   -1.0070  -13.8280  -38.1440 O   0  0  0  0  0  0  0  0  0  0  0  0
   -0.0300  -14.7240  -40.1450 O   0  0  0  0  0  0  0  0  0  0  0  0
    1.5870  -13.3890  -38.5560 C   0  0  0  0  0  0  0  0  0  0  0  0
    2.3460  -13.1330  -39.7100 C   0  0  0  0  0  3  0  0  0  0  0  0
    3.4440  -12.3220  -39.7330 C   0  0  0  0  0  0  0  0  0  0  0  0
    3.8140  -11.7270  -38.5400 C   0  0  0  0  0  0  0  0  0  0  0  0
    4.1890  -12.0730  -40.8750 O   0  0  0  0  0  0  0  0  0  0  0  0
    3.1230  -11.9300  -37.3840 C   0  0  0  0  0  3  0  0  0  0  0  0
    4.9640  -10.8670  -38.5510 N   0  0  0  0  0  0  0  0  0  0  0  0
    2.0120  -12.7650  -37.4170 C   0  0  0  0  0  0  0  0  0  0  0  0
    1.1180  -12.8920  -35.9190 Cl  0  0  0  0  0  0  0  0  0  0  0  0
    5.6730  -10.6580  -39.7700 C   0  0  0  0  0  0  0  0  0  0  0  0
    5.2570  -10.4080  -37.6540 H   0  0  0  0  0  0  0  0  0  0  0  0
    6.8690  -10.3170  -39.7450 O   0  0  0  0  0  0  0  0  0  0  0  0
    4.9260  -10.8640  -41.0360 C   0  0  0  0  0  2  0  0  0  0  0  0
    2.1870  -17.6020  -37.5350 C   0  0  0  0  0  0  0  0  0  0  0  0
    1.8450  -18.0100  -38.6530 O   0  0  0  0  0  0  0  0  0  0  0  0
    3.0980  -18.2560  -36.6880 N   0  0  0  0  0  0  0  0  0  0  0  0
    3.3530  -17.8930  -35.7470 H   0  0  0  0  0  0  0  0  0  0  0  0
    3.7190  -19.4900  -37.1030 C   0  0  0  0  0  2  0  0  0  0  0  0
    5.0610  -19.3630  -37.7140 C   0  0  0  0  0  2  0  0  0  0  0  0
    5.2370  -19.9580  -38.9910 N   0  0  0  0  0  0  0  0  0  0  0  0
    4.7100  -19.2230  -40.0950 C   0  0  0  0  0  2  0  0  0  0  0  0
    5.6870  -19.3530  -41.2460 C   0  0  0  0  0  2  0  0  0  0  0  0
    5.9860  -20.8210  -41.4710 C   0  0  0  0  0  2  0  0  0  0  0  0
    4.6830  -21.5750  -41.4700 C   0  0  0  0  0  2  0  0  0  0  0  0
    4.1350  -21.8610  -40.1220 C   0  0  0  0  0  2  0  0  0  0  0  0
    4.9210  -21.3480  -38.9750 C   0  0  0  0  0  2  0  0  0  0  0  0
  1  5  1  0  0  0  0
  1  2  1  0  0  0  0
  2 22  1  6  0  0  0
  2  3  1  0  0  0  0
  4  3  1  0  0  0  0
  5  4  1  0  0  0  0
  6  9  1  0  0  0  0
  6  7  2  0  0  0  0
  6  1  1  0  0  0  0
  8  6  2  0  0  0  0
  9 16  1  0  0  0  0
 10  9  2  0  0  0  0
 11 10  1  0  0  0  0
 11 12  2  0  0  0  0
 12 14  1  0  0  0  0
 13 11  1  0  0  0  0
 15 12  1  0  0  0  0
 15 19  1  0  0  0  0
 16 14  2  0  0  0  0
 16 17  1  0  0  0  0
 18 20  2  0  0  0  0
 18 15  1  0  0  0  0
 21 13  1  0  0  0  0
 21 18  1  0  0  0  0
 22 24  1  0  0  0  0
 23 22  2  0  0  0  0
 24 25  1  0  0  0  0
 26 24  1  0  0  0  0
 27 26  1  0  0  0  0
 28 34  1  0  0  0  0
 28 27  1  0  0  0  0
 29 28  1  0  0  0  0
 30 29  1  0  0  0  0
 31 32  1  0  0  0  0
 31 30  1  0  0  0  0
 32 33  1  0  0  0  0
 33 34  1  0  0  0  0
M  END
>  <Pose>
1

>  <Score>
-7.036

$$$$
