/Users/jonathanwahrer/Desktop/Msc/3_Semester/Drug_Design_Praktikum/waehrer_HTS_screening/HTS_experiment/out/docking_results/vina_output/6y4q/1781_docked.pdbqt
 OpenBabel03232218413D

 24 27  0  0  0  0  0  0  0  0999 V2000
    2.3690  -17.8190  -36.7320 C   0  0  0  0  0  0  0  0  0  0  0  0
    2.8180  -17.5780  -35.5250 O   0  0  0  0  0  0  0  0  0  0  0  0
    1.2660  -17.0650  -37.1030 N   0  0  0  0  0  0  0  0  0  0  0  0
    0.4710  -17.0780  -38.2860 C   0  0  0  0  0  2  0  0  0  0  0  0
    0.9730  -15.8780  -39.1150 C   0  0  0  0  0  2  0  0  0  0  0  0
    1.1970  -14.7660  -38.1730 N   0  0  0  0  0  0  0  0  0  0  0  0
    0.4510  -14.7660  -36.9480 C   0  0  0  0  0  2  0  0  0  0  0  0
    0.8270  -15.9970  -36.1440 C   0  0  0  0  0  2  0  0  0  0  0  0
    3.1170  -18.8230  -37.4340 C   0  0  0  0  0  0  0  0  0  0  0  0
    4.5130  -18.8460  -37.3290 C   0  0  0  0  0  3  0  0  0  0  0  0
    5.3080  -19.7460  -37.9990 C   0  0  0  0  0  3  0  0  0  0  0  0
    4.7560  -20.6930  -38.8260 C   0  0  0  0  0  0  0  0  0  0  0  0
    5.7760  -21.8540  -39.6880 Cl  0  0  0  0  0  0  0  0  0  0  0  0
    3.3930  -20.7090  -38.9590 C   0  0  0  0  0  3  0  0  0  0  0  0
    2.5910  -19.7820  -38.2690 C   0  0  0  0  0  3  0  0  0  0  0  0
    2.1290  -13.7420  -38.5080 C   0  0  0  0  0  0  0  0  0  0  0  0
    2.5610  -12.8590  -37.5810 N   0  0  0  0  0  0  0  0  0  0  0  0
    3.4230  -11.8960  -37.8560 N   0  0  0  0  0  0  0  0  0  0  0  0
    3.9370  -11.7200  -39.0810 C   0  0  0  0  0  0  0  0  0  0  0  0
    3.9820  -10.9160  -37.0910 C   0  0  0  0  0  3  0  0  0  0  0  0
    4.7900  -10.6660  -39.0850 N   0  0  0  0  0  0  0  0  0  0  0  0
    3.5440  -12.5850  -40.0860 C   0  0  0  0  0  3  0  0  0  0  0  0
    4.8080  -10.1820  -37.8570 N   0  0  0  0  0  0  0  0  0  0  0  0
    2.6460  -13.5790  -39.7740 C   0  0  0  0  0  3  0  0  0  0  0  0
  1  2  2  0  0  0  0
  3  1  1  0  0  0  0
  3  8  1  0  0  0  0
  4  3  1  0  0  0  0
  5  4  1  0  0  0  0
  5  6  1  0  0  0  0
  6  7  1  0  0  0  0
  7  8  1  0  0  0  0
  9 10  1  0  0  0  0
  9  1  1  0  0  0  0
 11 10  2  0  0  0  0
 12 11  1  0  0  0  0
 13 12  1  0  0  0  0
 14 12  2  0  0  0  0
 14 15  1  0  0  0  0
 15  9  2  0  0  0  0
 16  6  1  0  0  0  0
 16 17  2  0  0  0  0
 18 17  1  0  0  0  0
 18 20  1  0  0  0  0
 19 18  1  0  0  0  0
 21 19  2  0  0  0  0
 21 23  1  0  0  0  0
 22 24  2  0  0  0  0
 22 19  1  0  0  0  0
 23 20  2  0  0  0  0
 24 16  1  0  0  0  0
M  END
>  <Pose>
1

>  <Score>
-7.238

$$$$
