/Users/jonathanwahrer/Desktop/Msc/3_Semester/Drug_Design_Praktikum/waehrer_HTS_screening/HTS_experiment/out/docking_results/vina_output/6y4q/1788_docked.pdbqt
 OpenBabel03232218413D

 30 33  0  0  0  0  0  0  0  0999 V2000
    0.9560  -16.4120  -37.8090 N   0  0  0  0  0  0  0  0  0  0  0  0
   -0.2700  -16.7370  -38.0190 N   0  0  0  0  0  0  0  0  0  0  0  0
   -0.4240  -18.1120  -38.1020 C   0  0  0  0  0  0  0  0  0  0  0  0
    0.7800  -18.6240  -37.9330 N   0  0  0  0  0  0  0  0  0  0  0  0
    1.6340  -17.5610  -37.7480 C   0  0  0  0  0  0  0  0  0  0  0  0
    2.8610  -17.6950  -37.5550 O   0  0  0  0  0  0  0  0  0  0  0  0
    1.2110  -19.9840  -38.0240 C   0  0  0  0  0  2  0  0  0  0  0  0
    2.0210  -20.3140  -39.2110 C   0  0  0  0  0  0  0  0  0  0  0  0
    1.3500  -20.2440  -40.3240 O   0  0  0  0  0  0  0  0  0  0  0  0
    3.3440  -20.6760  -39.3390 N   0  0  0  0  0  0  0  0  0  0  0  0
    4.2700  -20.8610  -38.2540 C   0  0  0  0  0  2  0  0  0  0  0  0
    3.9020  -20.8910  -40.6850 C   0  0  0  0  0  2  0  0  0  0  0  0
    5.6560  -21.3190  -38.7430 C   0  0  0  0  0  2  0  0  0  0  0  0
    6.1330  -20.3840  -39.7660 N   0  0  0  0  0  0  0  0  0  0  0  0
    5.1340  -20.0690  -40.7610 C   0  0  0  0  0  0  0  0  0  0  0  0
    7.0780  -19.9900  -39.7800 H   0  0  0  0  0  0  0  0  0  0  0  0
    5.3400  -19.1620  -41.5990 O   0  0  0  0  0  0  0  0  0  0  0  0
   -1.7420  -18.6880  -38.3650 C   0  0  0  0  0  0  0  0  0  0  0  0
   -2.7050  -18.6170  -37.3500 C   0  0  0  0  0  3  0  0  0  0  0  0
   -3.9530  -19.1670  -37.4420 C   0  0  0  0  0  3  0  0  0  0  0  0
   -4.3400  -19.8490  -38.5880 C   0  0  0  0  0  3  0  0  0  0  0  0
   -3.4080  -19.9270  -39.5840 C   0  0  0  0  0  3  0  0  0  0  0  0
   -2.1330  -19.3620  -39.4840 C   0  0  0  0  0  3  0  0  0  0  0  0
    1.4520  -15.0840  -37.6740 C   0  0  0  0  0  0  0  0  0  0  0  0
    2.0270  -14.4470  -38.7560 C   0  0  0  0  0  3  0  0  0  0  0  0
    2.5150  -13.1560  -38.6440 C   0  0  0  0  0  3  0  0  0  0  0  0
    2.4560  -12.4440  -37.4610 C   0  0  0  0  0  0  0  0  0  0  0  0
    3.0730  -10.8100  -37.3070 Cl  0  0  0  0  0  0  0  0  0  0  0  0
    1.8790  -13.0860  -36.3770 C   0  0  0  0  0  3  0  0  0  0  0  0
    1.3870  -14.3840  -36.4880 C   0  0  0  0  0  3  0  0  0  0  0  0
  1  5  1  0  0  0  0
  1 24  1  0  0  0  0
  2  1  1  0  0  0  0
  3  2  2  0  0  0  0
  3  4  1  0  0  0  0
  4  5  1  0  0  0  0
  5  6  2  0  0  0  0
  7  4  1  0  0  0  0
  8  7  1  0  0  0  0
  9  8  2  0  0  0  0
 10  8  1  0  0  0  0
 10 11  1  0  0  0  0
 12 10  1  0  0  0  0
 13 11  1  0  0  0  0
 14 13  1  0  0  0  0
 15 12  1  0  0  0  0
 15 14  1  0  0  0  0
 16 14  1  0  0  0  0
 17 15  2  0  0  0  0
 18  3  1  0  0  0  0
 18 19  1  0  0  0  0
 20 19  2  0  0  0  0
 21 20  1  0  0  0  0
 22 23  1  0  0  0  0
 22 21  2  0  0  0  0
 23 18  2  0  0  0  0
 24 30  1  0  0  0  0
 25 26  1  0  0  0  0
 25 24  2  0  0  0  0
 26 27  2  0  0  0  0
 27 28  1  0  0  0  0
 27 29  1  0  0  0  0
 30 29  2  0  0  0  0
M  END
>  <Pose>
1

>  <Score>
-6.383

$$$$
