/Users/jonathanwahrer/Desktop/Msc/3_Semester/Drug_Design_Praktikum/waehrer_HTS_screening/HTS_experiment/out/docking_results/vina_output/6y4q/1790_docked.pdbqt
 OpenBabel03232218413D

 29 32  0  0  0  0  0  0  0  0999 V2000
    3.8570  -21.2820  -40.0260 N   0  0  0  0  0  0  0  0  0  0  0  0
    4.8780  -21.8540  -39.4200 N   0  0  0  0  0  0  0  0  0  0  0  0
    4.9590  -21.2860  -38.2240 N   0  0  0  0  0  0  0  0  0  0  0  0
    4.0020  -20.3570  -38.0550 C   0  0  0  0  0  0  0  0  0  0  0  0
    3.3090  -20.3630  -39.2060 C   0  0  0  0  0  0  0  0  0  0  0  0
    2.3260  -19.4080  -39.0290 C   0  0  0  0  0  0  0  0  0  0  0  0
    1.4730  -19.1390  -39.9260 O   0  0  0  0  0  0  0  0  0  0  0  0
    2.4010  -18.8280  -37.8190 N   0  0  0  0  0  0  0  0  0  0  0  0
    3.4440  -19.4190  -37.2120 C   0  0  0  0  0  0  0  0  0  0  0  0
    3.8360  -19.1370  -36.0400 O   0  0  0  0  0  0  0  0  0  0  0  0
    5.4890  -22.6040  -39.8230 H   0  0  0  0  0  0  0  0  0  0  0  0
    5.6730  -21.5260  -37.5030 H   0  0  0  0  0  0  0  0  0  0  0  0
    1.5300  -17.8080  -37.3360 C   0  0  0  0  0  0  0  0  0  0  0  0
    0.2230  -18.0670  -36.9740 C   0  0  0  0  0  3  0  0  0  0  0  0
   -0.6380  -17.0970  -36.5030 C   0  0  0  0  0  0  0  0  0  0  0  0
   -0.1690  -15.8050  -36.3900 C   0  0  0  0  0  3  0  0  0  0  0  0
    1.1280  -15.4890  -36.7380 C   0  0  0  0  0  0  0  0  0  0  0  0
    1.9590  -16.5010  -37.2080 C   0  0  0  0  0  3  0  0  0  0  0  0
   -1.9630  -17.4130  -36.1460 O   0  0  0  0  0  0  0  0  0  0  0  0
   -2.5170  -18.6320  -36.5850 C   0  0  0  0  0  1  0  0  0  0  0  0
    1.5640  -14.1770  -36.6110 O   0  0  0  0  0  0  0  0  0  0  0  0
    0.7900  -13.1950  -35.9770 C   0  0  0  0  0  1  0  0  0  0  0  0
    3.3980  -21.5770  -41.3340 C   0  0  0  0  0  0  0  0  0  0  0  0
    3.4550  -20.6530  -42.3670 C   0  0  0  0  0  3  0  0  0  0  0  0
    3.0020  -20.9730  -43.6200 C   0  0  0  0  0  3  0  0  0  0  0  0
    2.4750  -22.2140  -43.9100 C   0  0  0  0  0  0  0  0  0  0  0  0
    1.9050  -22.5710  -45.5460 Cl  0  0  0  0  0  0  0  0  0  0  0  0
    2.4090  -23.1420  -42.9040 C   0  0  0  0  0  3  0  0  0  0  0  0
    2.8650  -22.8170  -41.6440 C   0  0  0  0  0  3  0  0  0  0  0  0
  1  2  1  0  0  0  0
  1  5  1  0  0  0  0
  2  3  1  0  0  0  0
  3  4  1  0  0  0  0
  3 12  1  0  0  0  0
  4  9  1  0  0  0  0
  5  6  1  0  0  0  0
  5  4  2  0  0  0  0
  6  8  1  0  0  0  0
  7  6  2  0  0  0  0
  8 13  1  0  0  0  0
  8  9  1  0  0  0  0
  9 10  2  0  0  0  0
 11  2  1  0  0  0  0
 13 18  2  0  0  0  0
 13 14  1  0  0  0  0
 14 15  2  0  0  0  0
 15 16  1  0  0  0  0
 15 19  1  0  0  0  0
 17 21  1  0  0  0  0
 17 16  2  0  0  0  0
 18 17  1  0  0  0  0
 20 19  1  0  0  0  0
 21 22  1  0  0  0  0
 23  1  1  0  0  0  0
 24 23  2  0  0  0  0
 25 24  1  0  0  0  0
 26 25  2  0  0  0  0
 26 28  1  0  0  0  0
 27 26  1  0  0  0  0
 28 29  2  0  0  0  0
 29 23  1  0  0  0  0
M  END
>  <Pose>
1

>  <Score>
-6.033

$$$$
