/Users/jonathanwahrer/Desktop/Msc/3_Semester/Drug_Design_Praktikum/waehrer_HTS_screening/HTS_experiment/out/docking_results/vina_output/6y4q/1801_docked.pdbqt
 OpenBabel03232218423D

 26 29  0  0  0  0  0  0  0  0999 V2000
   -0.5250  -21.4620  -42.1320 Cl  0  0  0  0  0  0  0  0  0  0  0  0
    0.9410  -21.0960  -41.2240 C   0  0  0  0  0  0  0  0  0  0  0  0
    0.9040  -20.2040  -40.1670 C   0  0  0  0  0  3  0  0  0  0  0  0
    2.0340  -19.9120  -39.4540 C   0  0  0  0  0  0  0  0  0  0  0  0
    3.1940  -20.5430  -39.8370 C   0  0  0  0  0  0  0  0  0  0  0  0
    3.2570  -21.4310  -40.8790 C   0  0  0  0  0  3  0  0  0  0  0  0
    2.1050  -21.7170  -41.5920 C   0  0  0  0  0  3  0  0  0  0  0  0
    4.4330  -20.2520  -39.0900 C   0  0  0  0  0  0  0  0  0  0  0  0
    5.6440  -20.6710  -39.2030 N   0  0  0  0  0  0  0  0  0  0  0  0
    6.5150  -20.0870  -38.2240 C   0  0  0  0  0  3  0  0  0  0  0  0
    5.6360  -19.1820  -37.4240 C   0  0  0  0  0  3  0  0  0  0  0  0
    4.3290  -19.3290  -38.0190 N   0  0  0  0  0  0  0  0  0  0  0  0
    3.0910  -18.6980  -37.6620 C   0  0  0  0  0  0  0  0  0  0  0  0
    2.7630  -17.8130  -36.7090 N   0  0  0  0  0  0  0  0  0  0  0  0
    1.4750  -17.5260  -36.7790 N   0  0  0  0  0  0  0  0  0  0  0  0
    0.9980  -18.2540  -37.8040 C   0  0  0  0  0  0  0  0  0  0  0  0
   -0.2010  -18.2410  -38.1730 O   0  0  0  0  0  0  0  0  0  0  0  0
    1.9880  -18.9940  -38.3720 N   0  0  0  0  0  0  0  0  0  0  0  0
    0.7060  -16.6160  -35.9370 C   0  0  0  0  0  2  0  0  0  0  0  0
    0.7220  -15.2670  -36.5510 C   0  0  0  0  0  0  0  0  0  0  0  0
   -0.2690  -14.5050  -36.3690 O   0  0  0  0  0  0  0  0  0  0  0  0
    1.8060  -14.7920  -37.3350 N   0  0  0  0  0  0  0  0  0  0  0  0
    2.6140  -15.4330  -37.4740 H   0  0  0  0  0  0  0  0  0  0  0  0
    1.7760  -13.4680  -37.9140 C   0  0  0  0  0  3  0  0  0  0  0  0
    2.6410  -12.5050  -37.0970 C   0  0  0  0  0  1  0  0  0  0  0  0
    2.4470  -13.5730  -39.2770 C   0  0  0  0  0  1  0  0  0  0  0  0
  1  2  1  0  0  0  0
  2  3  1  0  0  0  0
  3  4  2  0  0  0  0
  4 18  1  0  0  0  0
  5  4  1  0  0  0  0
  5  8  1  0  0  0  0
  6  5  2  0  0  0  0
  7  2  2  0  0  0  0
  7  6  1  0  0  0  0
  8 12  1  0  0  0  0
  9  8  2  0  0  0  0
  9 10  1  0  0  0  0
 10 11  2  0  0  0  0
 12 13  1  0  0  0  0
 12 11  1  0  0  0  0
 13 14  2  0  0  0  0
 15 14  1  0  0  0  0
 15 19  1  0  0  0  0
 16 15  1  0  0  0  0
 17 16  2  0  0  0  0
 18 16  1  0  0  0  0
 18 13  1  0  0  0  0
 20 21  2  0  0  0  0
 20 19  1  0  0  0  0
 22 20  1  0  0  0  0
 23 22  1  0  0  0  0
 24 22  1  0  0  0  0
 24 25  1  0  0  0  0
 26 24  1  0  0  0  0
M  END
>  <Pose>
1

>  <Score>
-6.092

$$$$
