/Users/jonathanwahrer/Desktop/Msc/3_Semester/Drug_Design_Praktikum/waehrer_HTS_screening/HTS_experiment/out/docking_results/vina_output/6y4q/1804_docked.pdbqt
 OpenBabel03232218423D

 26 30  0  0  0  0  0  0  0  0999 V2000
    6.5230  -19.2400  -37.4680 Cl  0  0  0  0  0  0  0  0  0  0  0  0
    4.9480  -19.5290  -38.1750 C   0  0  0  0  0  0  0  0  0  0  0  0
    3.8060  -18.8570  -37.7720 C   0  0  0  0  0  3  0  0  0  0  0  0
    2.5740  -19.0930  -38.3360 C   0  0  0  0  0  0  0  0  0  0  0  0
    2.5230  -20.0390  -39.3310 C   0  0  0  0  0  0  0  0  0  0  0  0
    3.6230  -20.7360  -39.7710 C   0  0  0  0  0  3  0  0  0  0  0  0
    4.8600  -20.4720  -39.1770 C   0  0  0  0  0  3  0  0  0  0  0  0
    1.2170  -20.3190  -39.9590 C   0  0  0  0  0  0  0  0  0  0  0  0
    0.8790  -21.1330  -40.8920 N   0  0  0  0  0  0  0  0  0  0  0  0
   -0.5270  -21.0650  -41.1860 C   0  0  0  0  0  3  0  0  0  0  0  0
   -1.0540  -20.0290  -40.2450 C   0  0  0  0  0  3  0  0  0  0  0  0
    0.0960  -19.5950  -39.4970 N   0  0  0  0  0  0  0  0  0  0  0  0
    0.2100  -18.6120  -38.4470 C   0  0  0  0  0  0  0  0  0  0  0  0
   -0.6980  -17.8150  -37.8530 N   0  0  0  0  0  0  0  0  0  0  0  0
   -0.0980  -17.0780  -36.9330 N   0  0  0  0  0  0  0  0  0  0  0  0
    1.1960  -17.4370  -36.9710 C   0  0  0  0  0  0  0  0  0  0  0  0
    2.0700  -16.9260  -36.2150 O   0  0  0  0  0  0  0  0  0  0  0  0
    1.4180  -18.3890  -37.9030 N   0  0  0  0  0  0  0  0  0  0  0  0
   -0.7080  -16.0750  -36.0470 C   0  0  0  0  0  2  0  0  0  0  0  0
   -0.9340  -14.8370  -36.8390 C   0  0  0  0  0  0  0  0  0  0  0  0
   -1.9710  -14.8030  -37.5490 O   0  0  0  0  0  0  0  0  0  0  0  0
   -0.0270  -13.7440  -36.8030 N   0  0  0  0  0  0  0  0  0  0  0  0
   -0.1920  -12.5130  -37.5530 C   0  0  0  0  0  2  0  0  0  0  0  0
    1.1920  -13.6530  -36.0340 C   0  0  0  0  0  2  0  0  0  0  0  0
    1.0800  -11.7300  -37.3690 C   0  0  0  0  0  2  0  0  0  0  0  0
    2.0620  -12.8140  -36.9760 C   0  0  0  0  0  2  0  0  0  0  0  0
  2  3  1  0  0  0  0
  2  1  1  0  0  0  0
  4 18  1  0  0  0  0
  4  3  2  0  0  0  0
  5  4  1  0  0  0  0
  6  5  2  0  0  0  0
  6  7  1  0  0  0  0
  7  2  2  0  0  0  0
  8 12  1  0  0  0  0
  8  5  1  0  0  0  0
  9  8  2  0  0  0  0
 10  9  1  0  0  0  0
 10 11  2  0  0  0  0
 11 12  1  0  0  0  0
 12 13  1  0  0  0  0
 13 18  1  0  0  0  0
 13 14  2  0  0  0  0
 14 15  1  0  0  0  0
 15 19  1  0  0  0  0
 16 15  1  0  0  0  0
 16 17  2  0  0  0  0
 18 16  1  0  0  0  0
 20 22  1  0  0  0  0
 20 19  1  0  0  0  0
 21 20  2  0  0  0  0
 22 24  1  0  0  0  0
 23 25  1  0  0  0  0
 23 22  1  0  0  0  0
 25 26  1  0  0  0  0
 26 24  1  0  0  0  0
M  END
>  <Pose>
1

>  <Score>
-6.224

$$$$
