/Users/jonathanwahrer/Desktop/Msc/3_Semester/Drug_Design_Praktikum/waehrer_HTS_screening/HTS_experiment/out/docking_results/vina_output/6y4q/1806_docked.pdbqt
 OpenBabel03232218423D

 32 35  0  0  0  0  0  0  0  0999 V2000
   -0.1950  -15.2580  -37.1600 N   0  0  0  0  0  0  0  0  0  0  0  0
    0.7470  -15.1810  -36.0630 C   0  0  0  0  0  2  0  0  0  0  0  0
    1.5830  -13.9070  -36.2710 C   0  0  0  0  0  2  0  0  0  0  0  0
    1.3180  -13.2930  -37.5260 N   0  0  0  0  0  0  0  0  0  0  0  0
   -0.0600  -12.8350  -37.6960 C   0  0  0  0  0  2  0  0  0  0  0  0
   -0.9290  -14.0540  -37.5010 C   0  0  0  0  0  2  0  0  0  0  0  0
   -0.4520  -16.4510  -37.8880 C   0  0  0  0  0  3  0  0  0  0  0  0
    0.3900  -17.4310  -38.1170 C   0  0  0  0  0  0  0  0  0  0  0  0
    1.7240  -17.4230  -37.6480 N   0  0  0  0  0  0  0  0  0  0  0  0
   -0.0470  -18.5770  -38.8820 N   0  0  0  0  0  0  0  0  0  0  0  0
    2.6180  -18.5250  -37.9230 C   0  0  0  0  0  0  0  0  0  0  0  0
    2.0760  -16.6220  -37.0950 H   0  0  0  0  0  0  0  0  0  0  0  0
    2.2240  -19.6220  -38.6470 C   0  0  0  0  0  0  0  0  0  0  0  0
    3.9030  -18.4770  -37.4490 C   0  0  0  0  0  3  0  0  0  0  0  0
    3.1050  -20.6560  -38.8920 C   0  0  0  0  0  3  0  0  0  0  0  0
    0.8530  -19.6410  -39.1370 C   0  0  0  0  0  0  0  0  0  0  0  0
    4.3810  -20.6060  -38.4200 C   0  0  0  0  0  0  0  0  0  0  0  0
    5.5490  -21.8960  -38.7020 Cl  0  0  0  0  0  0  0  0  0  0  0  0
    4.7890  -19.5120  -37.6930 C   0  0  0  0  0  3  0  0  0  0  0  0
    0.4900  -20.6650  -39.8110 O   0  0  0  0  0  0  0  0  0  0  0  0
   -1.0200  -18.6170  -39.2440 H   0  0  0  0  0  0  0  0  0  0  0  0
    2.1910  -13.0850  -38.6230 C   0  0  0  0  0  0  0  0  0  0  0  0
    2.0400  -13.8930  -39.7370 N   0  0  0  0  0  0  0  0  0  0  0  0
    2.8030  -13.8080  -40.8250 C   0  0  0  0  0  3  0  0  0  0  0  0
    3.7950  -12.8680  -40.8470 C   0  0  0  0  0  3  0  0  0  0  0  0
    3.9720  -12.0510  -39.7660 C   0  0  0  0  0  3  0  0  0  0  0  0
    3.1680  -12.1350  -38.6120 C   0  0  0  0  0  0  0  0  0  0  0  0
    3.3620  -11.2430  -37.5100 C   0  0  0  0  0  0  0  0  0  0  0  0
    4.1910  -11.3790  -36.6120 O   0  0  0  0  0  0  0  0  0  0  0  0
    2.5360  -10.0880  -37.4190 N   0  0  0  0  0  0  0  0  0  0  0  0
    2.6260   -9.3120  -38.1130 H   0  0  0  0  0  0  0  0  0  0  0  0
    1.8130   -9.9520  -36.6790 H   0  0  0  0  0  0  0  0  0  0  0  0
  1  2  1  0  0  0  0
  3  2  1  0  0  0  0
  4  3  1  0  0  0  0
  5  4  1  0  0  0  0
  5  6  1  0  0  0  0
  6  1  1  0  0  0  0
  7  1  1  0  0  0  0
  8  7  2  0  0  0  0
  8  9  1  0  0  0  0
  9 12  1  0  0  0  0
 10  8  1  0  0  0  0
 11  9  1  0  0  0  0
 11 14  1  0  0  0  0
 13 11  2  0  0  0  0
 15 13  1  0  0  0  0
 15 17  2  0  0  0  0
 16 10  1  0  0  0  0
 16 13  1  0  0  0  0
 17 19  1  0  0  0  0
 18 17  1  0  0  0  0
 19 14  2  0  0  0  0
 20 16  2  0  0  0  0
 21 10  1  0  0  0  0
 22 27  1  0  0  0  0
 22  4  1  0  0  0  0
 23 22  2  0  0  0  0
 24 23  1  0  0  0  0
 25 24  2  0  0  0  0
 25 26  1  0  0  0  0
 26 27  2  0  0  0  0
 27 28  1  0  0  0  0
 28 30  1  0  0  0  0
 28 29  2  0  0  0  0
 30 32  1  0  0  0  0
 31 30  1  0  0  0  0
M  END
>  <Pose>
1

>  <Score>
-6.917

$$$$
