/Users/jonathanwahrer/Desktop/Msc/3_Semester/Drug_Design_Praktikum/waehrer_HTS_screening/HTS_experiment/out/docking_results/vina_output/6y4q/1810_docked.pdbqt
 OpenBabel03232218433D

 32 35  0  0  1  0  0  0  0  0999 V2000
    3.5860  -19.6490  -39.5600 N   0  0  0  0  0  0  0  0  0  0  0  0
    4.2720  -19.5740  -38.2940 C   0  0  0  0  0  2  0  0  0  0  0  0
    3.3160  -18.9820  -37.2860 C   0  0  0  0  0  2  0  0  0  0  0  0
    1.9880  -18.9590  -37.8420 N   0  0  0  0  0  0  0  0  0  0  0  0
    1.4620  -20.0790  -38.6130 C   0  0  0  0  0  2  0  0  0  0  0  0
    2.5830  -20.6890  -39.4570 C   0  0  0  0  0  2  0  0  0  0  0  0
    1.1700  -17.8300  -37.6530 C   0  0  0  0  0  0  0  0  0  0  0  0
   -0.0220  -17.8430  -38.1190 O   0  0  0  0  0  0  0  0  0  0  0  0
    1.6830  -16.6370  -36.9250 C   0  0  1  0  0  3  0  0  0  0  0  0
    1.9860  -15.4850  -37.8400 C   0  0  0  0  0  2  0  0  0  0  0  0
    0.8810  -14.5470  -37.6650 N   0  0  0  0  0  0  0  0  0  0  0  0
   -0.0750  -15.0950  -36.7770 C   0  0  0  0  0  0  0  0  0  0  0  0
   -1.2820  -14.7560  -36.7330 O   0  0  0  0  0  0  0  0  0  0  0  0
    0.6550  -16.0960  -35.9700 C   0  0  0  0  0  2  0  0  0  0  0  0
    0.7890  -13.2580  -38.3120 C   0  0  0  0  0  2  0  0  0  0  0  0
    2.0860  -12.5390  -38.2970 C   0  0  0  0  0  0  0  0  0  0  0  0
    2.7910  -12.3920  -39.4820 C   0  0  0  0  0  0  0  0  0  0  0  0
    4.0080  -11.7350  -39.5450 C   0  0  0  0  0  3  0  0  0  0  0  0
    2.1060  -13.0650  -40.9360 Cl  0  0  0  0  0  0  0  0  0  0  0  0
    4.5090  -11.2210  -38.3670 C   0  0  0  0  0  3  0  0  0  0  0  0
    3.8310  -11.3490  -37.1670 C   0  0  0  0  0  3  0  0  0  0  0  0
    2.6070  -12.0160  -37.1330 C   0  0  0  0  0  3  0  0  0  0  0  0
    4.6830  -19.9330  -40.8520 S   0  0  0  0  0  0  0  0  0  0  0  0
    4.3170  -21.1650  -41.6290 O   0  0  0  0  0  0  0  0  0  0  0  0
    6.0290  -20.2260  -40.2230 O   0  0  0  0  0  0  0  0  0  0  0  0
    4.8380  -18.5410  -41.8800 C   0  0  0  0  0  0  0  0  0  0  0  0
    5.8270  -18.1820  -42.7680 C   0  0  0  0  0  0  0  0  0  0  0  0
    5.4700  -16.9820  -43.3210 N   0  0  0  0  0  0  0  0  0  0  0  0
    7.0390  -18.9720  -43.0580 C   0  0  0  0  0  1  0  0  0  0  0  0
    4.3490  -16.6370  -42.8090 O   0  0  0  0  0  0  0  0  0  0  0  0
    3.9110  -17.5180  -41.9420 C   0  0  0  0  0  0  0  0  0  0  0  0
    2.6390  -17.3720  -41.2010 C   0  0  0  0  0  1  0  0  0  0  0  0
  1  6  1  0  0  0  0
  1  2  1  0  0  0  0
  2  3  1  0  0  0  0
  4  7  1  0  0  0  0
  4  3  1  0  0  0  0
  5  4  1  0  0  0  0
  6  5  1  0  0  0  0
  8  7  2  0  0  0  0
  9  7  1  6  0  0  0
  9 14  1  0  0  0  0
 10 11  1  0  0  0  0
 10  9  1  0  0  0  0
 11 12  1  0  0  0  0
 12 13  2  0  0  0  0
 12 14  1  0  0  0  0
 15 16  1  0  0  0  0
 15 11  1  0  0  0  0
 16 22  1  0  0  0  0
 17 16  2  0  0  0  0
 18 17  1  0  0  0  0
 18 20  2  0  0  0  0
 19 17  1  0  0  0  0
 20 21  1  0  0  0  0
 21 22  2  0  0  0  0
 23 25  2  0  0  0  0
 23  1  1  0  0  0  0
 24 23  2  0  0  0  0
 26 23  1  0  0  0  0
 27 26  1  0  0  0  0
 28 30  1  0  0  0  0
 28 27  2  0  0  0  0
 29 27  1  0  0  0  0
 30 31  1  0  0  0  0
 31 26  2  0  0  0  0
 31 32  1  0  0  0  0
M  END
>  <Pose>
1

>  <Score>
-6.298

$$$$
