/Users/jonathanwahrer/Desktop/Msc/3_Semester/Drug_Design_Praktikum/waehrer_HTS_screening/HTS_experiment/out/docking_results/vina_output/6y4q/1822_docked.pdbqt
 OpenBabel03232218433D

 24 27  0  0  1  0  0  0  0  0999 V2000
   -0.7140  -12.0590  -35.5940 Cl  0  0  0  0  0  0  0  0  0  0  0  0
   -0.4940  -13.6340  -36.3490 C   0  0  0  0  0  0  0  0  0  0  0  0
   -1.6030  -14.2840  -36.8420 C   0  0  0  0  0  0  0  0  0  0  0  0
   -1.4250  -15.4840  -37.4160 N   0  0  0  0  0  0  0  0  0  0  0  0
   -0.2040  -16.0700  -37.5260 C   0  0  0  0  0  0  0  0  0  0  0  0
    0.8860  -15.4450  -37.0500 N   0  0  0  0  0  0  0  0  0  0  0  0
    1.9500  -16.2100  -37.2730 N   0  0  0  0  0  0  0  0  0  0  0  0
    1.5810  -17.3470  -37.8980 C   0  0  0  0  0  0  0  0  0  0  0  0
    0.2370  -17.2320  -38.0420 N   0  0  0  0  0  0  0  0  0  0  0  0
    0.7410  -14.2310  -36.4630 C   0  0  0  0  0  0  0  0  0  0  0  0
    1.7710  -13.6370  -36.0110 O   0  0  0  0  0  0  0  0  0  0  0  0
   -2.9600  -13.6500  -36.7270 C   0  0  0  0  0  1  0  0  0  0  0  0
   -2.2650  -15.9840  -37.7920 H   0  0  0  0  0  0  0  0  0  0  0  0
    2.4130  -18.4270  -38.3120 N   0  0  0  0  0  0  0  0  0  0  0  0
    2.5170  -18.9390  -39.6330 C   0  0  0  0  0  0  0  0  0  0  0  0
    2.2000  -18.3770  -40.7140 O   0  0  0  0  0  0  0  0  0  0  0  0
    3.0920  -20.3260  -39.5790 C   0  0  2  0  0  3  0  0  0  0  0  0
    3.6060  -20.4920  -38.1940 C   0  0  1  0  0  3  0  0  0  0  0  0
    4.2180  -20.4260  -40.5860 C   0  0  0  0  0  2  0  0  0  0  0  0
    5.1110  -20.6690  -38.0990 C   0  0  0  0  0  2  0  0  0  0  0  0
    3.2960  -19.2130  -37.5270 C   0  0  0  0  0  0  0  0  0  0  0  0
    5.7190  -19.5710  -38.9170 C   0  0  0  0  0  3  0  0  0  0  0  0
    5.2610  -19.4670  -40.1510 C   0  0  0  0  0  3  0  0  0  0  0  0
    3.7520  -18.8460  -36.3950 O   0  0  0  0  0  0  0  0  0  0  0  0
  2  1  1  0  0  0  0
  3 12  1  0  0  0  0
  3  2  2  0  0  0  0
  4  3  1  0  0  0  0
  5  4  1  0  0  0  0
  5  6  1  0  0  0  0
  6 10  1  0  0  0  0
  7  6  1  0  0  0  0
  8  7  2  0  0  0  0
  9  8  1  0  0  0  0
  9  5  2  0  0  0  0
 10  2  1  0  0  0  0
 10 11  2  0  0  0  0
 13  4  1  0  0  0  0
 14  8  1  0  0  0  0
 14 21  1  0  0  0  0
 15 17  1  0  0  0  0
 15 14  1  0  0  0  0
 16 15  2  0  0  0  0
 17 19  1  6  0  0  0
 17 18  1  0  0  0  0
 18 20  1  6  0  0  0
 18 21  1  0  0  0  0
 19 23  1  0  0  0  0
 21 24  2  0  0  0  0
 22 20  1  0  0  0  0
 23 22  2  0  0  0  0
M  END
>  <Pose>
1

>  <Score>
-6.197

$$$$
