/Users/jonathanwahrer/Desktop/Msc/3_Semester/Drug_Design_Praktikum/waehrer_HTS_screening/HTS_experiment/out/docking_results/vina_output/6y4q/1825_docked.pdbqt
 OpenBabel03232218433D

 29 32  0  0  1  0  0  0  0  0999 V2000
    0.6100  -14.7570  -36.4440 N   0  0  0  0  0  0  0  0  0  0  0  0
   -0.5370  -15.3780  -36.8520 C   0  0  1  0  0  3  0  0  0  0  0  0
   -0.2430  -16.6280  -37.2470 N   0  0  0  0  0  0  0  0  0  0  0  0
    1.0690  -16.8630  -37.1130 C   0  0  0  0  0  0  0  0  0  0  0  0
    1.5790  -15.6600  -36.6020 C   0  0  0  0  0  3  0  0  0  0  0  0
   -1.4740  -17.2800  -37.6900 C   0  0  0  0  0  2  0  0  0  0  0  0
   -2.4680  -16.1530  -37.8970 C   0  0  0  0  0  2  0  0  0  0  0  0
   -1.9890  -15.0930  -36.9710 C   0  0  0  0  0  2  0  0  0  0  0  0
    0.6860  -13.3700  -35.9620 C   0  0  0  0  0  2  0  0  0  0  0  0
    1.3920  -12.5390  -37.0150 C   0  0  0  0  0  0  0  0  0  0  0  0
    2.7380  -12.7080  -37.2930 N   0  0  0  0  0  0  0  0  0  0  0  0
    3.2470  -13.4570  -36.7320 H   0  0  0  0  0  0  0  0  0  0  0  0
    0.6770  -11.7110  -37.5900 O   0  0  0  0  0  0  0  0  0  0  0  0
    3.4900  -11.9830  -38.2390 C   0  0  0  0  0  0  0  0  0  0  0  0
    3.5350  -12.4660  -39.5650 C   0  0  0  0  0  0  0  0  0  0  0  0
    4.2540  -11.8110  -40.5400 C   0  0  0  0  0  0  0  0  0  0  0  0
    2.8020  -13.6940  -39.9180 C   0  0  0  0  0  1  0  0  0  0  0  0
    4.3140  -12.3940  -42.1900 Cl  0  0  0  0  0  0  0  0  0  0  0  0
    4.9590  -10.6630  -40.2670 C   0  0  0  0  0  3  0  0  0  0  0  0
    4.9360  -10.1710  -38.9880 C   0  0  0  0  0  3  0  0  0  0  0  0
    4.1980  -10.8440  -37.9930 C   0  0  0  0  0  3  0  0  0  0  0  0
    1.8900  -18.0280  -37.3970 C   0  0  0  0  0  0  0  0  0  0  0  0
    3.0890  -18.2560  -36.7800 C   0  0  0  0  0  3  0  0  0  0  0  0
    3.8710  -19.3700  -37.0260 C   0  0  0  0  0  3  0  0  0  0  0  0
    3.4660  -20.3330  -37.9370 C   0  0  0  0  0  0  0  0  0  0  0  0
    2.2610  -20.1060  -38.5570 C   0  0  0  0  0  3  0  0  0  0  0  0
    1.4800  -18.9940  -38.3120 C   0  0  0  0  0  3  0  0  0  0  0  0
    4.2230  -21.4600  -38.2090 O   0  0  0  0  0  0  0  0  0  0  0  0
    5.5350  -21.3950  -38.7380 C   0  0  0  0  0  1  0  0  0  0  0  0
  1  9  1  0  0  0  0
  2  8  1  1  0  0  0
  2  1  1  0  0  0  0
  3  4  1  0  0  0  0
  3  2  1  0  0  0  0
  4  5  2  0  0  0  0
  5  1  1  0  0  0  0
  6  3  1  0  0  0  0
  7  6  1  0  0  0  0
  7  8  1  0  0  0  0
 10  9  1  0  0  0  0
 11 10  1  0  0  0  0
 11 12  1  0  0  0  0
 13 10  2  0  0  0  0
 14 21  1  0  0  0  0
 14 11  1  0  0  0  0
 15 14  2  0  0  0  0
 16 19  2  0  0  0  0
 16 15  1  0  0  0  0
 17 15  1  0  0  0  0
 18 16  1  0  0  0  0
 19 20  1  0  0  0  0
 20 21  2  0  0  0  0
 22  4  1  0  0  0  0
 22 23  1  0  0  0  0
 24 23  2  0  0  0  0
 25 24  1  0  0  0  0
 26 27  1  0  0  0  0
 26 25  2  0  0  0  0
 27 22  2  0  0  0  0
 28 25  1  0  0  0  0
 29 28  1  0  0  0  0
M  END
>  <Pose>
1

>  <Score>
-7.210

$$$$
