/Users/jonathanwahrer/Desktop/Msc/3_Semester/Drug_Design_Praktikum/waehrer_HTS_screening/HTS_experiment/out/docking_results/vina_output/6y4q/1837_docked.pdbqt
 OpenBabel03232218443D

 29 32  0  0  0  0  0  0  0  0999 V2000
   -0.3440  -18.0430  -37.4600 N   0  0  0  0  0  0  0  0  0  0  0  0
   -1.3030  -19.1160  -37.1250 C   0  0  0  0  0  2  0  0  0  0  0  0
   -0.6840  -20.3380  -37.8360 C   0  0  0  0  0  2  0  0  0  0  0  0
   -0.1270  -19.7550  -39.0670 N   0  0  0  0  0  0  0  0  0  0  0  0
   -0.9310  -18.7400  -39.6710 C   0  0  0  0  0  2  0  0  0  0  0  0
   -0.8130  -17.5070  -38.7600 C   0  0  0  0  0  2  0  0  0  0  0  0
   -0.4010  -16.9800  -36.4720 C   0  0  0  0  0  2  0  0  0  0  0  0
    0.7750  -16.0740  -36.7530 C   0  0  0  0  0  0  0  0  0  0  0  0
    0.6160  -14.8170  -37.3410 N   0  0  0  0  0  0  0  0  0  0  0  0
   -0.3810  -14.5500  -37.6170 H   0  0  0  0  0  0  0  0  0  0  0  0
    1.9240  -16.4800  -36.4440 O   0  0  0  0  0  0  0  0  0  0  0  0
    1.6090  -13.8640  -37.6510 C   0  0  0  0  0  0  0  0  0  0  0  0
    2.1380  -13.7890  -38.9490 C   0  0  0  0  0  3  0  0  0  0  0  0
    3.0960  -12.8760  -39.3050 C   0  0  0  0  0  3  0  0  0  0  0  0
    3.5860  -11.9760  -38.3710 C   0  0  0  0  0  0  0  0  0  0  0  0
    4.8100  -10.7970  -38.7930 Cl  0  0  0  0  0  0  0  0  0  0  0  0
    3.0780  -12.0360  -37.0960 C   0  0  0  0  0  3  0  0  0  0  0  0
    2.1060  -12.9660  -36.7490 C   0  0  0  0  0  3  0  0  0  0  0  0
    1.1150  -20.2140  -39.5270 C   0  0  0  0  0  0  0  0  0  0  0  0
    1.2070  -20.8860  -40.7150 N   0  0  0  0  0  0  0  0  0  0  0  0
    2.3470  -21.3630  -41.2120 C   0  0  0  0  0  3  0  0  0  0  0  0
    3.4850  -21.1900  -40.5310 N   0  0  0  0  0  0  0  0  0  0  0  0
    3.5240  -20.5520  -39.3660 C   0  0  0  0  0  0  0  0  0  0  0  0
    4.5070  -20.2500  -38.4940 N   0  0  0  0  0  0  0  0  0  0  0  0
    2.3200  -20.0570  -38.8560 C   0  0  0  0  0  0  0  0  0  0  0  0
    3.9420  -19.6050  -37.5050 N   0  0  0  0  0  0  0  0  0  0  0  0
    2.6390  -19.4840  -37.7110 N   0  0  0  0  0  0  0  0  0  0  0  0
    5.9220  -20.5570  -38.5830 C   0  0  0  0  0  2  0  0  0  0  0  0
    6.7560  -19.5270  -37.8510 C   0  0  0  0  0  1  0  0  0  0  0  0
  1  2  1  0  0  0  0
  1  7  1  0  0  0  0
  3  2  1  0  0  0  0
  4  3  1  0  0  0  0
  5  4  1  0  0  0  0
  5  6  1  0  0  0  0
  6  1  1  0  0  0  0
  8  7  1  0  0  0  0
  8 11  2  0  0  0  0
  9  8  1  0  0  0  0
 10  9  1  0  0  0  0
 12  9  1  0  0  0  0
 12 18  1  0  0  0  0
 13 12  2  0  0  0  0
 14 13  1  0  0  0  0
 14 15  2  0  0  0  0
 15 17  1  0  0  0  0
 16 15  1  0  0  0  0
 17 18  2  0  0  0  0
 19  4  1  0  0  0  0
 19 25  1  0  0  0  0
 20 19  2  0  0  0  0
 21 20  1  0  0  0  0
 21 22  2  0  0  0  0
 22 23  1  0  0  0  0
 23 25  2  0  0  0  0
 23 24  1  0  0  0  0
 24 26  1  0  0  0  0
 25 27  1  0  0  0  0
 27 26  2  0  0  0  0
 28 24  1  0  0  0  0
 28 29  1  0  0  0  0
M  END
>  <Pose>
1

>  <Score>
-6.740

$$$$
