/Users/jonathanwahrer/Desktop/Msc/3_Semester/Drug_Design_Praktikum/waehrer_HTS_screening/HTS_experiment/out/docking_results/vina_output/6y4q/1846_docked.pdbqt
 OpenBabel03232218443D

 31 34  0  0  1  0  0  0  0  0999 V2000
    0.6790  -17.3620  -36.8920 N   0  0  0  0  0  0  0  0  0  0  0  0
   -0.0270  -17.9260  -37.8970 C   0  0  0  0  0  2  0  0  0  0  0  0
    0.5490  -18.8350  -38.7120 N   0  0  0  0  0  0  0  0  0  0  0  0
    1.8220  -19.2260  -38.5790 C   0  0  0  0  0  0  0  0  0  0  0  0
    2.4050  -20.1290  -39.3840 N   0  0  0  0  0  0  0  0  0  0  0  0
    3.6800  -20.5380  -39.2730 C   0  0  0  0  0  0  0  0  0  0  0  0
    4.4080  -19.9820  -38.2670 N   0  0  0  0  0  0  0  0  0  0  0  0
    3.8650  -19.0760  -37.4390 C   0  0  0  0  0  3  0  0  0  0  0  0
    2.5550  -18.6630  -37.5620 C   0  0  2  0  0  3  0  0  0  0  0  0
    1.9790  -17.7330  -36.7220 C   0  0  0  0  0  0  0  0  0  0  0  0
    2.7000  -17.2550  -35.8110 O   0  0  0  0  0  0  0  0  0  0  0  0
    0.1450  -16.3940  -35.9870 C   0  0  0  0  0  2  0  0  0  0  0  0
    0.2630  -14.9900  -36.5120 C   0  0  0  0  0  0  0  0  0  0  0  0
    1.3730  -14.1890  -36.2000 N   0  0  0  0  0  0  0  0  0  0  0  0
    2.1400  -14.6060  -35.5730 H   0  0  0  0  0  0  0  0  0  0  0  0
   -0.6710  -14.5960  -37.2280 O   0  0  0  0  0  0  0  0  0  0  0  0
    1.5340  -12.8640  -36.6620 C   0  0  0  0  0  0  0  0  0  0  0  0
    0.5560  -11.9040  -36.6950 C   0  0  0  0  0  3  0  0  0  0  0  0
    0.8330  -10.6280  -37.1890 C   0  0  0  0  0  3  0  0  0  0  0  0
    2.0660  -10.2530  -37.6630 C   0  0  0  0  0  0  0  0  0  0  0  0
    3.0520  -11.2090  -37.6340 C   0  0  0  0  0  0  0  0  0  0  0  0
    4.6620  -10.8350  -38.2140 Cl  0  0  0  0  0  0  0  0  0  0  0  0
    2.7920  -12.4660  -37.1500 C   0  0  0  0  0  3  0  0  0  0  0  0
    2.3060   -8.9610  -38.1510 O   0  0  0  0  0  0  0  0  0  0  0  0
    2.2360   -8.7100  -39.5360 C   0  0  0  0  0  1  0  0  0  0  0  0
    4.2570  -21.4930  -40.1440 N   0  0  0  0  0  0  0  0  0  0  0  0
    3.3940  -22.1940  -41.0660 C   0  0  0  0  0  2  0  0  0  0  0  0
    4.1170  -22.3370  -42.4040 C   0  0  0  0  0  2  0  0  0  0  0  0
    5.4110  -22.8250  -42.2430 O   0  0  0  0  0  0  0  0  0  0  0  0
    6.1410  -21.8180  -41.6100 C   0  0  0  0  0  2  0  0  0  0  0  0
    5.6680  -21.8010  -40.1560 C   0  0  0  0  0  2  0  0  0  0  0  0
  1 10  1  0  0  0  0
  1 12  1  0  0  0  0
  2  1  1  0  0  0  0
  3  4  2  0  0  0  0
  3  2  1  0  0  0  0
  4  9  1  0  0  0  0
  5  6  2  0  0  0  0
  5  4  1  0  0  0  0
  6  7  1  0  0  0  0
  7  8  2  0  0  0  0
  9  8  1  1  0  0  0
  9 10  1  0  0  0  0
 10 11  2  0  0  0  0
 13 14  1  0  0  0  0
 13 12  1  0  0  0  0
 14 15  1  0  0  0  0
 16 13  2  0  0  0  0
 17 14  1  0  0  0  0
 18 17  1  0  0  0  0
 19 18  2  0  0  0  0
 20 21  2  0  0  0  0
 20 19  1  0  0  0  0
 21 23  1  0  0  0  0
 22 21  1  0  0  0  0
 23 17  2  0  0  0  0
 24 20  1  0  0  0  0
 25 24  1  0  0  0  0
 26  6  1  0  0  0  0
 27 26  1  0  0  0  0
 28 29  1  0  0  0  0
 28 27  1  0  0  0  0
 29 30  1  0  0  0  0
 30 31  1  0  0  0  0
 31 26  1  0  0  0  0
M  END
>  <Pose>
1

>  <Score>
-6.698

$$$$
