/Users/jonathanwahrer/Desktop/Msc/3_Semester/Drug_Design_Praktikum/waehrer_HTS_screening/HTS_experiment/out/docking_results/vina_output/6y4q/1850_docked.pdbqt
 OpenBabel03232218443D

 24 27  0  0  0  0  0  0  0  0999 V2000
    4.6830  -11.7200  -41.3020 Cl  0  0  0  0  0  0  0  0  0  0  0  0
    4.0930  -11.8440  -39.6500 C   0  0  0  0  0  0  0  0  0  0  0  0
    3.1240  -12.7700  -39.3210 C   0  0  0  0  0  0  0  0  0  0  0  0
    2.6650  -12.8670  -38.0370 C   0  0  0  0  0  0  0  0  0  0  0  0
    3.1920  -12.0210  -37.0880 C   0  0  0  0  0  3  0  0  0  0  0  0
    4.1600  -11.0900  -37.3950 C   0  0  0  0  0  3  0  0  0  0  0  0
    4.6170  -11.0000  -38.6940 C   0  0  0  0  0  3  0  0  0  0  0  0
    1.6280  -13.8350  -37.6060 C   0  0  0  0  0  2  0  0  0  0  0  0
    1.3830  -14.7210  -38.7170 N   0  0  0  0  0  0  0  0  0  0  0  0
    1.2240  -14.1080  -40.0150 C   0  0  0  0  0  2  0  0  0  0  0  0
    2.6230  -13.6350  -40.4270 C   0  0  0  0  0  2  0  0  0  0  0  0
    1.2990  -16.1260  -38.5720 C   0  0  0  0  0  0  0  0  0  0  0  0
    1.0830  -16.8430  -39.5840 O   0  0  0  0  0  0  0  0  0  0  0  0
    1.4520  -16.8210  -37.2730 C   0  0  0  0  0  2  0  0  0  0  0  0
    1.5070  -18.2060  -37.4190 O   0  0  0  0  0  0  0  0  0  0  0  0
    2.6580  -18.9100  -37.7470 C   0  0  0  0  0  0  0  0  0  0  0  0
    2.6210  -19.7940  -38.7620 N   0  0  0  0  0  0  0  0  0  0  0  0
    3.6890  -20.4990  -39.1260 N   0  0  0  0  0  0  0  0  0  0  0  0
    4.8720  -20.3780  -38.5090 C   0  0  0  0  0  0  0  0  0  0  0  0
    3.8470  -21.4160  -40.0980 C   0  0  0  0  0  3  0  0  0  0  0  0
    5.7600  -21.2090  -39.0880 N   0  0  0  0  0  0  0  0  0  0  0  0
    4.9480  -19.4730  -37.4560 C   0  0  0  0  0  3  0  0  0  0  0  0
    5.1230  -21.8320  -40.0500 N   0  0  0  0  0  0  0  0  0  0  0  0
    3.8460  -18.7440  -37.0790 C   0  0  0  0  0  3  0  0  0  0  0  0
  1  2  1  0  0  0  0
  2  3  2  0  0  0  0
  2  7  1  0  0  0  0
  3  4  1  0  0  0  0
  4  8  1  0  0  0  0
  4  5  2  0  0  0  0
  6  5  1  0  0  0  0
  7  6  2  0  0  0  0
  9 12  1  0  0  0  0
  9  8  1  0  0  0  0
 10  9  1  0  0  0  0
 11 10  1  0  0  0  0
 11  3  1  0  0  0  0
 12 14  1  0  0  0  0
 13 12  2  0  0  0  0
 15 14  1  0  0  0  0
 16 15  1  0  0  0  0
 16 24  1  0  0  0  0
 17 16  2  0  0  0  0
 18 17  1  0  0  0  0
 18 19  1  0  0  0  0
 19 22  1  0  0  0  0
 20 23  2  0  0  0  0
 20 18  1  0  0  0  0
 21 19  2  0  0  0  0
 22 24  2  0  0  0  0
 23 21  1  0  0  0  0
M  END
>  <Pose>
1

>  <Score>
-7.146

$$$$
