/Users/jonathanwahrer/Desktop/Msc/3_Semester/Drug_Design_Praktikum/waehrer_HTS_screening/HTS_experiment/out/docking_results/vina_output/6y4q/1852_docked.pdbqt
 OpenBabel03232218453D

 26 29  0  0  1  0  0  0  0  0999 V2000
    1.3860  -15.3260  -36.7760 N   0  0  0  0  0  0  0  0  0  0  0  0
    1.9580  -16.4760  -37.4040 C   0  0  0  0  0  2  0  0  0  0  0  0
    1.2320  -17.6990  -36.8690 C   0  0  1  0  0  3  0  0  0  0  0  0
   -0.1230  -17.1220  -36.5140 C   0  0  0  0  0  2  0  0  0  0  0  0
    0.2850  -15.7480  -35.9700 C   0  0  0  0  0  2  0  0  0  0  0  0
    0.9680  -14.0950  -37.9040 S   0  0  0  0  0  0  0  0  0  0  0  0
   -0.2310  -13.3480  -37.4260 O   0  0  0  0  0  0  0  0  0  0  0  0
    0.6310  -14.7700  -39.2070 O   0  0  0  0  0  0  0  0  0  0  0  0
    2.2910  -12.9840  -38.1700 C   0  0  0  0  0  0  0  0  0  0  0  0
    2.8250  -12.8230  -39.4320 C   0  0  0  0  0  3  0  0  0  0  0  0
    3.8730  -11.9570  -39.6960 C   0  0  0  0  0  0  0  0  0  0  0  0
    4.4220  -11.2100  -38.6700 C   0  0  0  0  0  0  0  0  0  0  0  0
    4.4140  -11.7880  -40.9500 O   0  0  0  0  0  0  0  0  0  0  0  0
    3.8850  -11.3750  -37.4190 C   0  0  0  0  0  3  0  0  0  0  0  0
    5.4680  -10.3550  -38.9790 O   0  0  0  0  0  0  0  0  0  0  0  0
    2.8430  -12.2360  -37.1520 C   0  0  0  0  0  3  0  0  0  0  0  0
    6.3300  -10.5440  -40.0860 C   0  0  0  0  0  2  0  0  0  0  0  0
    5.6640  -11.2380  -41.2450 C   0  0  0  0  0  2  0  0  0  0  0  0
    1.0610  -18.6020  -37.9480 O   0  0  0  0  0  0  0  0  0  0  0  0
    2.1030  -19.3780  -38.4300 C   0  0  0  0  0  0  0  0  0  0  0  0
    2.1920  -19.4800  -39.7880 N   0  0  0  0  0  0  0  0  0  0  0  0
    3.1930  -20.2250  -40.2850 C   0  0  0  0  0  3  0  0  0  0  0  0
    4.1080  -20.8710  -39.4780 C   0  0  0  0  0  0  0  0  0  0  0  0
    3.9690  -20.7320  -38.1100 C   0  0  0  0  0  2  0  0  0  0  0  0
    5.4080  -21.8410  -40.1400 Cl  0  0  0  0  0  0  0  0  0  0  0  0
    2.9630  -19.9830  -37.6120 N   0  0  0  0  0  0  0  0  0  0  0  0
  1  5  1  0  0  0  0
  2  3  1  0  0  0  0
  2  1  1  0  0  0  0
  3 19  1  6  0  0  0
  3  4  1  0  0  0  0
  4  5  1  0  0  0  0
  6  7  2  0  0  0  0
  6  1  1  0  0  0  0
  8  6  2  0  0  0  0
  9  6  1  0  0  0  0
  9 16  1  0  0  0  0
 10  9  2  0  0  0  0
 11 10  1  0  0  0  0
 11 12  2  0  0  0  0
 12 14  1  0  0  0  0
 13 11  1  0  0  0  0
 14 16  2  0  0  0  0
 15 12  1  0  0  0  0
 17 15  1  0  0  0  0
 18 13  1  0  0  0  0
 18 17  1  0  0  0  0
 20 19  1  0  0  0  0
 20 26  2  0  0  0  0
 21 20  2  0  0  0  0
 22 21  1  0  0  0  0
 22 23  2  0  0  0  0
 23 24  1  0  0  0  0
 24 26  1  0  0  0  0
 25 23  1  0  0  0  0
M  END
>  <Pose>
1

>  <Score>
-6.194

$$$$
