/Users/jonathanwahrer/Desktop/Msc/3_Semester/Drug_Design_Praktikum/waehrer_HTS_screening/HTS_experiment/out/docking_results/vina_output/6y4q/1856_docked.pdbqt
 OpenBabel03232218453D

 31 34  0  0  0  0  0  0  0  0999 V2000
    0.9490  -18.3560  -37.7960 C   0  0  0  0  0  0  0  0  0  0  0  0
    2.2130  -18.6880  -38.1030 N   0  0  0  0  0  4  0  0  0  0  0  0
    2.5520  -19.7720  -38.8490 C   0  0  0  0  0  0  0  0  0  0  0  0
    1.5040  -20.5240  -39.2790 N   0  0  0  0  0  0  0  0  0  0  0  0
    0.2210  -20.2430  -39.0040 C   0  0  0  0  0  0  0  0  0  0  0  0
   -0.0280  -19.1660  -38.2700 N   0  0  0  0  0  2  0  0  0  0  0  0
    0.6460  -17.2110  -37.0120 N   0  0  0  0  0  0  0  0  0  0  0  0
   -0.1840  -17.1920  -36.3880 H   0  0  0  0  0  0  0  0  0  0  0  0
    1.4520  -16.0730  -37.0520 N   0  0  0  0  0  0  0  0  0  0  0  0
    1.1770  -15.1630  -37.9610 C   0  0  0  0  0  3  0  0  0  0  0  0
    1.9920  -13.9610  -38.0380 C   0  0  0  0  0  0  0  0  0  0  0  0
    2.5980  -13.6160  -39.2560 C   0  0  0  0  0  3  0  0  0  0  0  0
    3.3650  -12.4930  -39.3470 C   0  0  0  0  0  0  0  0  0  0  0  0
    4.1920  -12.0200  -40.9990 Br  0  0  0  0  0  0  0  0  0  0  0  0
    3.5600  -11.6750  -38.2560 C   0  0  0  0  0  3  0  0  0  0  0  0
    2.9770  -11.9920  -37.0550 C   0  0  0  0  0  3  0  0  0  0  0  0
    2.1870  -13.1480  -36.9550 C   0  0  0  0  0  0  0  0  0  0  0  0
    1.6150  -13.4380  -35.7320 O   0  0  0  0  0  0  0  0  0  0  0  0
    1.3010  -14.3440  -35.4510 H   0  0  0  0  0  0  0  0  0  0  0  0
    3.8890  -20.0910  -39.1540 N   0  0  0  0  0  0  0  0  0  0  0  0
    4.9030  -19.0800  -39.1300 C   0  0  0  0  0  2  0  0  0  0  0  0
    6.0150  -19.5820  -38.2240 C   0  0  0  0  0  2  0  0  0  0  0  0
    6.4630  -20.7960  -38.7660 O   0  0  0  0  0  0  0  0  0  0  0  0
    5.4820  -21.7780  -38.6240 C   0  0  0  0  0  2  0  0  0  0  0  0
    4.2680  -21.4290  -39.4940 C   0  0  0  0  0  2  0  0  0  0  0  0
   -0.8200  -21.0710  -39.4840 N   0  0  0  0  0  0  0  0  0  0  0  0
   -1.8090  -21.6820  -38.6210 C   0  0  0  0  0  2  0  0  0  0  0  0
   -3.1120  -21.8490  -39.3740 C   0  0  0  0  0  2  0  0  0  0  0  0
   -2.9910  -22.5720  -40.5300 O   0  0  0  0  0  0  0  0  0  0  0  0
   -1.6800  -22.7180  -40.9660 C   0  0  0  0  0  2  0  0  0  0  0  0
   -0.9690  -21.3690  -40.9120 C   0  0  0  0  0  2  0  0  0  0  0  0
  1  7  1  0  0  0  0
  2  1  2  0  0  0  0
  3  2  2  0  0  0  0
  4  5  2  0  0  0  0
  4  3  1  0  0  0  0
  5  6  1  0  0  0  0
  6  1  1  0  0  0  0
  7  8  1  0  0  0  0
  9  7  1  0  0  0  0
 10  9  2  0  0  0  0
 11 10  1  0  0  0  0
 11 17  1  0  0  0  0
 12 11  2  0  0  0  0
 13 12  1  0  0  0  0
 13 15  2  0  0  0  0
 14 13  1  0  0  0  0
 15 16  1  0  0  0  0
 16 17  2  0  0  0  0
 17 18  1  0  0  0  0
 18 19  1  0  0  0  0
 20 21  1  0  0  0  0
 20  3  1  0  0  0  0
 21 22  1  0  0  0  0
 23 24  1  0  0  0  0
 23 22  1  0  0  0  0
 25 20  1  0  0  0  0
 25 24  1  0  0  0  0
 26  5  1  0  0  0  0
 26 27  1  0  0  0  0
 28 27  1  0  0  0  0
 29 28  1  0  0  0  0
 30 31  1  0  0  0  0
 30 29  1  0  0  0  0
 31 26  1  0  0  0  0
M  END
>  <Pose>
1

>  <Score>
-6.507

$$$$
