/Users/jonathanwahrer/Desktop/Msc/3_Semester/Drug_Design_Praktikum/waehrer_HTS_screening/HTS_experiment/out/docking_results/vina_output/6y4q/1863_docked.pdbqt
 OpenBabel03232218453D

 33 36  0  0  0  0  0  0  0  0999 V2000
    1.7580  -19.1910  -38.4340 N   0  0  0  0  0  0  0  0  0  0  0  0
    2.9800  -19.7450  -38.6590 C   0  0  0  0  0  0  0  0  0  0  0  0
    2.8580  -20.6020  -39.7210 C   0  0  0  0  0  0  0  0  0  0  0  0
    1.5820  -20.5410  -40.1000 N   0  0  0  0  0  0  0  0  0  0  0  0
    0.8820  -19.6760  -39.3180 C   0  0  0  0  0  0  0  0  0  0  0  0
    3.9440  -21.2850  -40.1210 N   0  0  0  0  0  0  0  0  0  0  0  0
    5.1460  -21.1440  -39.4990 C   0  0  0  0  0  0  0  0  0  0  0  0
    6.1780  -21.7850  -39.8700 O   0  0  0  0  0  0  0  0  0  0  0  0
    5.2960  -20.3120  -38.4540 N   0  0  0  0  0  0  0  0  0  0  0  0
    4.2230  -19.6220  -38.0420 C   0  0  0  0  0  0  0  0  0  0  0  0
    4.3960  -18.8580  -37.0670 O   0  0  0  0  0  0  0  0  0  0  0  0
    3.8650  -22.2010  -41.2290 C   0  0  0  0  0  1  0  0  0  0  0  0
    6.2380  -20.2040  -37.9700 H   0  0  0  0  0  0  0  0  0  0  0  0
   -0.5330  -19.4220  -39.4480 N   0  0  0  0  0  0  0  0  0  0  0  0
   -1.3870  -20.5670  -39.2350 C   0  0  0  0  0  2  0  0  0  0  0  0
   -2.8580  -20.2460  -39.2940 C   0  0  0  0  0  2  0  0  0  0  0  0
   -3.0820  -19.0830  -38.5150 N   0  0  0  0  0  0  0  0  0  0  0  0
   -2.4370  -17.9360  -39.0590 C   0  0  0  0  0  2  0  0  0  0  0  0
   -1.1340  -18.1720  -39.7650 C   0  0  0  0  0  2  0  0  0  0  0  0
   -2.7920  -19.3270  -37.1370 C   0  0  0  0  0  2  0  0  0  0  0  0
   -2.9130  -18.1200  -36.2670 C   0  0  0  0  0  0  0  0  0  0  0  0
   -3.9730  -17.5080  -36.0660 O   0  0  0  0  0  0  0  0  0  0  0  0
   -1.6890  -17.6890  -35.6550 N   0  0  0  0  0  0  0  0  0  0  0  0
   -0.9980  -17.0950  -36.1660 H   0  0  0  0  0  0  0  0  0  0  0  0
   -1.4970  -17.9740  -34.6970 H   0  0  0  0  0  0  0  0  0  0  0  0
    1.5130  -18.2230  -37.4170 C   0  0  0  0  0  2  0  0  0  0  0  0
    1.6220  -16.8020  -37.8400 C   0  0  0  0  0  0  0  0  0  0  0  0
    1.4030  -15.8090  -36.8740 C   0  0  0  0  0  3  0  0  0  0  0  0
    1.4700  -14.4720  -37.1500 C   0  0  0  0  0  0  0  0  0  0  0  0
    1.2070  -13.2180  -35.9420 Cl  0  0  0  0  0  0  0  0  0  0  0  0
    1.7620  -14.0650  -38.4340 C   0  0  0  0  0  3  0  0  0  0  0  0
    1.9780  -15.0350  -39.3910 C   0  0  0  0  0  3  0  0  0  0  0  0
    1.9100  -16.3910  -39.1060 C   0  0  0  0  0  3  0  0  0  0  0  0
  1 26  1  0  0  0  0
  2  1  1  0  0  0  0
  2 10  1  0  0  0  0
  3  2  2  0  0  0  0
  4  3  1  0  0  0  0
  4  5  2  0  0  0  0
  5  1  1  0  0  0  0
  6  3  1  0  0  0  0
  6  7  1  0  0  0  0
  7  9  1  0  0  0  0
  8  7  2  0  0  0  0
  9 10  1  0  0  0  0
  9 13  1  0  0  0  0
 10 11  2  0  0  0  0
 12  6  1  0  0  0  0
 14  5  1  0  0  0  0
 14 15  1  0  0  0  0
 16 15  1  0  0  0  0
 16 17  1  0  0  0  0
 17 20  1  0  0  0  0
 18 17  1  0  0  0  0
 19 14  1  0  0  0  0
 19 18  1  0  0  0  0
 20 21  1  0  0  0  0
 21 22  2  0  0  0  0
 21 23  1  0  0  0  0
 23 25  1  0  0  0  0
 24 23  1  0  0  0  0
 27 26  1  0  0  0  0
 27 28  1  0  0  0  0
 29 28  2  0  0  0  0
 29 30  1  0  0  0  0
 31 29  1  0  0  0  0
 32 33  1  0  0  0  0
 32 31  2  0  0  0  0
 33 27  2  0  0  0  0
M  END
>  <Pose>
1

>  <Score>
-6.522

$$$$
