/Users/jonathanwahrer/Desktop/Msc/3_Semester/Drug_Design_Praktikum/waehrer_HTS_screening/HTS_experiment/out/docking_results/vina_output/6y4q/1871_docked.pdbqt
 OpenBabel03232218463D

 28 31  0  0  1  0  0  0  0  0999 V2000
    0.5650  -16.0870  -36.6290 C   0  0  2  0  0  0  0  0  0  0  0  0
    0.6060  -17.3280  -37.2970 N   0  0  0  0  0  4  0  0  0  0  0  0
   -0.4280  -17.4160  -38.2400 C   0  0  0  0  0  0  0  0  0  0  0  0
   -0.9880  -18.2590  -39.0720 C   0  0  0  0  0  3  0  0  0  0  0  0
   -2.1240  -17.8690  -39.9150 C   0  0  0  0  0  3  0  0  0  0  0  0
   -2.4420  -16.4610  -40.1180 C   0  0  0  0  0  3  0  0  0  0  0  0
   -1.6230  -15.4890  -39.3060 C   0  0  0  0  0  2  0  0  0  0  0  0
   -1.0720  -16.1130  -38.1560 N   0  0  0  0  0  0  0  0  0  0  0  0
   -0.9410  -15.7950  -36.7390 C   0  0  2  0  0  3  0  0  0  0  0  0
   -1.3460  -14.4070  -36.4690 C   0  0  0  0  0  1  0  0  0  0  0  0
    0.1970  -18.0120  -36.5120 H   0  0  0  0  0  0  0  0  0  0  0  0
    1.3200  -14.9640  -37.1810 C   0  0  0  0  0  0  0  0  0  0  0  0
    1.6680  -13.9140  -36.3730 C   0  0  0  0  0  3  0  0  0  0  0  0
    2.3700  -12.8110  -36.8550 C   0  0  0  0  0  3  0  0  0  0  0  0
    2.7200  -12.7890  -38.1980 C   0  0  0  0  0  0  0  0  0  0  0  0
    3.6020  -11.4470  -38.9020 Cl  0  0  0  0  0  0  0  0  0  0  0  0
    2.3630  -13.8560  -39.0000 C   0  0  0  0  0  3  0  0  0  0  0  0
    1.6670  -14.9470  -38.5210 C   0  0  0  0  0  3  0  0  0  0  0  0
    0.8040  -16.2690  -35.2860 O   0  0  0  0  0  0  0  0  0  0  0  0
    0.2570  -15.7530  -34.6650 H   0  0  0  0  0  0  0  0  0  0  0  0
    1.8480  -17.9210  -37.5010 C   0  0  0  0  0  0  0  0  0  0  0  0
    2.1650  -18.2940  -38.7970 C   0  0  0  0  0  3  0  0  0  0  0  0
    3.3530  -18.8980  -39.1300 C   0  0  0  0  0  3  0  0  0  0  0  0
    4.3320  -19.1790  -38.1710 C   0  0  0  0  0  0  0  0  0  0  0  0
    3.9910  -18.8000  -36.8970 C   0  0  0  0  0  3  0  0  0  0  0  0
    2.8010  -18.1960  -36.5720 C   0  0  0  0  0  3  0  0  0  0  0  0
    5.5250  -19.7830  -38.5180 O   0  0  0  0  0  0  0  0  0  0  0  0
    5.5660  -21.1730  -38.7180 C   0  0  0  0  0  1  0  0  0  0  0  0
  1 19  1  1  0  0  0
  2  1  1  0  0  0  0
  2 11  1  0  0  0  0
  3  8  1  0  0  0  0
  3  2  1  0  0  0  0
  4  3  2  0  0  0  0
  5  4  1  0  0  0  0
  6  5  2  0  0  0  0
  6  7  1  0  0  0  0
  7  8  1  0  0  0  0
  8  9  1  0  0  0  0
  9  1  1  0  0  0  0
  9 10  1  6  0  0  0
 12  1  1  0  0  0  0
 12 13  1  0  0  0  0
 14 13  2  0  0  0  0
 15 14  1  0  0  0  0
 16 15  1  0  0  0  0
 17 18  1  0  0  0  0
 17 15  2  0  0  0  0
 18 12  2  0  0  0  0
 19 20  1  0  0  0  0
 21  2  1  0  0  0  0
 21 26  1  0  0  0  0
 22 21  2  0  0  0  0
 23 22  1  0  0  0  0
 23 24  2  0  0  0  0
 24 25  1  0  0  0  0
 25 26  2  0  0  0  0
 27 24  1  0  0  0  0
 28 27  1  0  0  0  0
M  END
>  <Pose>
1

>  <Score>
-6.724

$$$$
