/Users/jonathanwahrer/Desktop/Msc/3_Semester/Drug_Design_Praktikum/waehrer_HTS_screening/HTS_experiment/out/docking_results/vina_output/6y4q/1894_docked.pdbqt
 OpenBabel03232218463D

 26 29  0  0  0  0  0  0  0  0999 V2000
    3.1170  -18.7030  -38.5770 N   0  0  0  0  0  0  0  0  0  0  0  0
    2.5270  -17.5250  -38.8790 C   0  0  0  0  0  0  0  0  0  0  0  0
    2.3760  -17.0950  -40.0420 O   0  0  0  0  0  0  0  0  0  0  0  0
    2.1170  -16.8670  -37.7310 C   0  0  0  0  0  0  0  0  0  0  0  0
    2.4660  -17.6630  -36.7100 C   0  0  0  0  0  0  0  0  0  0  0  0
    2.0620  -17.0170  -35.6020 N   0  0  0  0  0  0  0  0  0  0  0  0
    1.4910  -15.8750  -35.9380 N   0  0  0  0  0  0  0  0  0  0  0  0
    1.5170  -15.7670  -37.2490 N   0  0  0  0  0  0  0  0  0  0  0  0
    3.0750  -18.7800  -37.2420 C   0  0  0  0  0  0  0  0  0  0  0  0
    3.5300  -19.7400  -36.5620 O   0  0  0  0  0  0  0  0  0  0  0  0
    2.1660  -17.3380  -34.6170 H   0  0  0  0  0  0  0  0  0  0  0  0
    1.0780  -15.1580  -35.2710 H   0  0  0  0  0  0  0  0  0  0  0  0
    3.6660  -19.6570  -39.4850 C   0  0  0  0  0  0  0  0  0  0  0  0
    4.9760  -19.5750  -39.9080 C   0  0  0  0  0  3  0  0  0  0  0  0
    5.5160  -20.4950  -40.7860 C   0  0  0  0  0  3  0  0  0  0  0  0
    4.7630  -21.5400  -41.2790 C   0  0  0  0  0  0  0  0  0  0  0  0
    5.4540  -22.7110  -42.3990 Cl  0  0  0  0  0  0  0  0  0  0  0  0
    3.4500  -21.6320  -40.8640 C   0  0  0  0  0  3  0  0  0  0  0  0
    2.9190  -20.7070  -39.9860 C   0  0  0  0  0  3  0  0  0  0  0  0
    1.0060  -14.6740  -38.0430 C   0  0  0  0  0  2  0  0  0  0  0  0
    2.0180  -13.6430  -38.3590 C   0  0  0  0  0  0  0  0  0  0  0  0
    2.5600  -13.5850  -39.6190 C   0  0  0  0  0  3  0  0  0  0  0  0
    3.5030  -12.6200  -39.8900 C   0  0  0  0  0  3  0  0  0  0  0  0
    3.9100  -11.7160  -38.9250 C   0  0  0  0  0  3  0  0  0  0  0  0
    3.3680  -11.7740  -37.6610 C   0  0  0  0  0  3  0  0  0  0  0  0
    2.4320  -12.7380  -37.4080 C   0  0  0  0  0  3  0  0  0  0  0  0
  1  9  1  0  0  0  0
  2  1  1  0  0  0  0
  2  4  1  0  0  0  0
  3  2  2  0  0  0  0
  4  8  1  0  0  0  0
  4  5  2  0  0  0  0
  5  6  1  0  0  0  0
  6 11  1  0  0  0  0
  7  6  1  0  0  0  0
  7 12  1  0  0  0  0
  8  7  1  0  0  0  0
  9  5  1  0  0  0  0
  9 10  2  0  0  0  0
 13  1  1  0  0  0  0
 14 13  1  0  0  0  0
 15 14  2  0  0  0  0
 16 18  2  0  0  0  0
 16 15  1  0  0  0  0
 17 16  1  0  0  0  0
 18 19  1  0  0  0  0
 19 13  2  0  0  0  0
 20  8  1  0  0  0  0
 21 20  1  0  0  0  0
 21 26  1  0  0  0  0
 22 21  2  0  0  0  0
 23 22  1  0  0  0  0
 23 24  2  0  0  0  0
 24 25  1  0  0  0  0
 25 26  2  0  0  0  0
M  END
>  <Pose>
1

>  <Score>
-7.022

$$$$
