/Users/jonathanwahrer/Desktop/Msc/3_Semester/Drug_Design_Praktikum/waehrer_HTS_screening/HTS_experiment/out/docking_results/vina_output/6y4q/1906_docked.pdbqt
 OpenBabel03232218473D

 33 36  0  0  1  0  0  0  0  0999 V2000
    1.3570  -16.4020  -39.6950 C   0  0  1  0  0  0  0  0  0  0  0  0
   -0.0450  -16.3770  -39.7430 O   0  0  0  0  0  0  0  0  0  0  0  0
   -0.5790  -16.7040  -40.9590 C   0  0  0  0  0  2  0  0  0  0  0  0
   -0.4300  -18.1660  -41.3270 C   0  0  0  0  0  2  0  0  0  0  0  0
    0.9270  -18.5200  -40.8360 N   0  0  0  0  0  0  0  0  0  0  0  0
    1.8210  -17.4310  -40.7420 C   0  0  0  0  0  2  0  0  0  0  0  0
    1.1830  -19.8400  -40.5260 C   0  0  0  0  0  0  0  0  0  0  0  0
    0.2530  -20.7380  -40.6670 O   0  0  0  0  0  0  0  0  0  0  0  0
    1.8070  -15.0650  -40.2100 C   0  0  0  0  0  2  0  0  0  0  0  0
    2.0430  -14.0640  -39.3930 O   0  0  0  0  0  0  0  0  0  0  0  0
    2.7790  -13.0790  -38.9680 C   0  0  0  0  0  0  0  0  0  0  0  0
    3.6880  -12.3840  -39.7240 C   0  0  0  0  0  3  0  0  0  0  0  0
    4.4150  -11.3620  -39.1760 C   0  0  0  0  0  0  0  0  0  0  0  0
    5.5750  -10.4900  -40.1780 Cl  0  0  0  0  0  0  0  0  0  0  0  0
    4.2650  -10.9900  -37.8530 C   0  0  0  0  0  3  0  0  0  0  0  0
    3.3560  -11.6820  -37.0960 C   0  0  0  0  0  3  0  0  0  0  0  0
    2.6270  -12.6970  -37.6210 C   0  0  0  0  0  3  0  0  0  0  0  0
    1.7650  -16.7600  -38.3400 C   0  0  0  0  0  2  0  0  0  0  0  0
    0.8270  -16.5280  -37.2400 C   0  0  0  0  0  0  0  0  0  0  0  0
    0.7840  -15.4280  -36.6560 O   0  0  0  0  0  0  0  0  0  0  0  0
   -0.0660  -17.5450  -36.7980 N   0  0  0  0  0  0  0  0  0  0  0  0
   -0.0860  -18.8640  -37.4210 C   0  0  0  0  0  2  0  0  0  0  0  0
   -0.9950  -17.3220  -35.7100 C   0  0  0  0  0  2  0  0  0  0  0  0
   -1.5350  -19.2040  -37.6970 C   0  0  0  0  0  2  0  0  0  0  0  0
   -2.2450  -19.1630  -36.4920 O   0  0  0  0  0  0  0  0  0  0  0  0
   -2.3480  -17.8340  -36.0830 C   0  0  0  0  0  2  0  0  0  0  0  0
    2.4310  -20.3430  -40.0410 C   0  0  0  0  0  0  0  0  0  0  0  0
    2.8290  -20.2440  -38.7720 N   0  0  0  0  0  0  0  0  0  0  0  0
    4.0030  -20.7160  -38.3080 C   0  0  0  0  0  3  0  0  0  0  0  0
    4.8720  -21.3510  -39.1810 C   0  0  0  0  0  0  0  0  0  0  0  0
    4.5110  -21.4690  -40.4480 N   0  0  0  0  0  0  0  0  0  0  0  0
    6.1500  -21.8510  -38.6160 C   0  0  0  0  0  1  0  0  0  0  0  0
    3.3360  -20.9900  -40.8890 C   0  0  0  0  0  3  0  0  0  0  0  0
  1  9  1  6  0  0  0
  1 18  1  0  0  0  0
  2  1  1  0  0  0  0
  3  2  1  0  0  0  0
  4  3  1  0  0  0  0
  4  5  1  0  0  0  0
  5  6  1  0  0  0  0
  5  7  1  0  0  0  0
  6  1  1  0  0  0  0
  7 27  1  0  0  0  0
  8  7  2  0  0  0  0
  9 10  1  0  0  0  0
 10 11  1  0  0  0  0
 11 17  1  0  0  0  0
 12 13  1  0  0  0  0
 12 11  2  0  0  0  0
 13 15  2  0  0  0  0
 14 13  1  0  0  0  0
 15 16  1  0  0  0  0
 17 16  2  0  0  0  0
 18 19  1  0  0  0  0
 19 21  1  0  0  0  0
 19 20  2  0  0  0  0
 21 23  1  0  0  0  0
 22 21  1  0  0  0  0
 24 22  1  0  0  0  0
 24 25  1  0  0  0  0
 25 26  1  0  0  0  0
 26 23  1  0  0  0  0
 27 28  1  0  0  0  0
 28 29  2  0  0  0  0
 30 32  1  0  0  0  0
 30 29  1  0  0  0  0
 31 30  2  0  0  0  0
 33 31  1  0  0  0  0
 33 27  2  0  0  0  0
M  END
>  <Pose>
1

>  <Score>
-6.541

$$$$
