/Users/jonathanwahrer/Desktop/Msc/3_Semester/Drug_Design_Praktikum/waehrer_HTS_screening/HTS_experiment/out/docking_results/vina_output/6y4q/1927_docked.pdbqt
 OpenBabel03232218473D

 36 39  0  0  1  0  0  0  0  0999 V2000
   -1.4230  -18.0790  -37.1980 C   0  0  0  0  0  2  0  0  0  0  0  0
   -1.5500  -16.6380  -36.9310 C   0  0  0  0  0  0  0  0  0  0  0  0
   -0.5950  -15.6690  -36.6560 N   0  0  0  0  0  0  0  0  0  0  0  0
    0.7710  -15.8990  -36.3430 C   0  0  0  0  0  2  0  0  0  0  0  0
   -1.0170  -14.2440  -36.7010 C   0  0  0  0  0  2  0  0  0  0  0  0
    1.6660  -15.1910  -37.3400 C   0  0  0  0  0  2  0  0  0  0  0  0
    1.4410  -13.7100  -37.0420 C   0  0  2  0  0  0  0  0  0  0  0  0
    0.0240  -13.3230  -37.2410 C   0  0  0  0  0  2  0  0  0  0  0  0
   -2.7920  -16.2270  -36.9560 O   0  0  0  0  0  0  0  0  0  0  0  0
    2.4410  -12.9010  -37.7160 C   0  0  0  0  0  0  0  0  0  0  0  0
    2.6620  -13.1470  -39.0770 C   0  0  0  0  0  3  0  0  0  0  0  0
    3.6230  -12.4510  -39.8090 C   0  0  0  0  0  3  0  0  0  0  0  0
    4.3970  -11.4840  -39.2150 C   0  0  0  0  0  0  0  0  0  0  0  0
    5.6340  -10.5980  -40.1450 Cl  0  0  0  0  0  0  0  0  0  0  0  0
    4.1890  -11.2300  -37.8700 C   0  0  0  0  0  3  0  0  0  0  0  0
    3.2340  -11.9280  -37.1560 C   0  0  0  0  0  3  0  0  0  0  0  0
    1.6980  -13.6190  -35.6370 O   0  0  0  0  0  0  0  0  0  0  0  0
    2.3390  -14.3430  -35.4250 H   0  0  0  0  0  0  0  0  0  0  0  0
   -0.2470  -18.5320  -37.8000 N   0  0  0  0  0  0  0  0  0  0  0  0
    0.0340  -19.8940  -38.1300 C   0  0  0  0  0  0  0  0  0  0  0  0
   -0.8670  -20.7140  -37.8140 O   0  0  0  0  0  0  0  0  0  0  0  0
    0.4990  -17.8600  -38.1230 H   0  0  0  0  0  0  0  0  0  0  0  0
    1.2620  -20.2650  -38.7780 C   0  0  0  0  0  3  0  0  0  0  0  0
    2.4920  -19.9910  -38.4920 C   0  0  0  0  0  0  0  0  0  0  0  0
    2.8770  -19.1840  -37.3760 N   0  0  0  0  0  0  0  0  0  0  0  0
    3.6050  -20.5340  -39.3100 C   0  0  0  0  0  0  0  0  0  0  0  0
    4.2290  -18.9190  -37.0740 N   0  0  0  0  0  0  0  0  0  0  0  0
    2.1570  -18.7590  -36.7450 H   0  0  0  0  0  0  0  0  0  0  0  0
    5.2680  -19.4470  -37.8670 C   0  0  0  0  0  0  0  0  0  0  0  0
    4.4790  -18.3290  -36.2460 H   0  0  0  0  0  0  0  0  0  0  0  0
    6.4670  -19.1870  -37.5590 O   0  0  0  0  0  0  0  0  0  0  0  0
    4.9220  -20.2710  -39.0080 C   0  0  0  0  0  0  0  0  0  0  0  0
    5.9740  -20.7860  -39.7380 C   0  0  0  0  0  3  0  0  0  0  0  0
    5.6750  -21.6050  -40.8230 C   0  0  0  0  0  3  0  0  0  0  0  0
    4.3830  -21.8960  -41.1650 C   0  0  0  0  0  3  0  0  0  0  0  0
    3.3620  -21.3410  -40.3840 C   0  0  0  0  0  3  0  0  0  0  0  0
  1  2  1  0  0  0  0
  2  3  1  0  0  0  0
  3  4  1  0  0  0  0
  5  3  1  0  0  0  0
  6  7  1  0  0  0  0
  6  4  1  0  0  0  0
  7 17  1  1  0  0  0
  8  7  1  0  0  0  0
  8  5  1  0  0  0  0
  9  2  2  0  0  0  0
 10 16  1  0  0  0  0
 10  7  1  0  0  0  0
 11 10  2  0  0  0  0
 12 13  2  0  0  0  0
 12 11  1  0  0  0  0
 13 15  1  0  0  0  0
 14 13  1  0  0  0  0
 15 16  2  0  0  0  0
 17 18  1  0  0  0  0
 19  1  1  0  0  0  0
 20 21  2  0  0  0  0
 20 19  1  0  0  0  0
 22 19  1  0  0  0  0
 23 24  2  0  0  0  0
 23 20  1  0  0  0  0
 24 25  1  0  0  0  0
 25 27  1  0  0  0  0
 25 28  1  0  0  0  0
 26 32  1  0  0  0  0
 26 24  1  0  0  0  0
 27 30  1  0  0  0  0
 29 31  2  0  0  0  0
 29 27  1  0  0  0  0
 32 29  1  0  0  0  0
 33 32  2  0  0  0  0
 34 33  1  0  0  0  0
 35 34  2  0  0  0  0
 35 36  1  0  0  0  0
 36 26  2  0  0  0  0
M  END
>  <Pose>
1

>  <Score>
-8.619

$$$$
