/Users/jonathanwahrer/Desktop/Msc/3_Semester/Drug_Design_Praktikum/waehrer_HTS_screening/HTS_experiment/out/docking_results/vina_output/6y4q/1928_docked.pdbqt
 OpenBabel03232218473D

 28 31  0  0  0  0  0  0  0  0999 V2000
    0.7260  -16.8980  -36.8850 N   0  0  0  0  0  0  0  0  0  0  0  0
   -0.0120  -17.5200  -37.8280 C   0  0  0  0  0  2  0  0  0  0  0  0
    0.4790  -18.6120  -38.4980 C   0  0  0  0  0  0  0  0  0  0  0  0
    1.8240  -19.1030  -38.1780 C   0  0  0  0  0  0  0  0  0  0  0  0
    2.0420  -20.1700  -38.9770 N   0  0  0  0  0  2  0  0  0  0  0  0
    0.9840  -20.3710  -39.7360 N   0  0  0  0  0  0  0  0  0  0  0  0
    0.0190  -19.4720  -39.4940 C   0  0  0  0  0  0  0  0  0  0  0  0
   -1.1060  -19.3840  -40.0410 O   0  0  0  0  0  0  0  0  0  0  0  0
    2.5390  -18.4360  -37.2070 C   0  0  0  0  0  0  0  0  0  0  0  0
    1.9440  -17.3600  -36.6090 C   0  0  0  0  0  3  0  0  0  0  0  0
    0.9090  -21.1340  -40.4340 H   0  0  0  0  0  0  0  0  0  0  0  0
    0.1510  -15.7380  -36.2020 C   0  0  0  0  0  2  0  0  0  0  0  0
    0.9260  -14.5260  -36.5330 C   0  0  0  0  0  0  0  0  0  0  0  0
    0.9310  -13.4290  -35.8170 O   0  0  0  0  0  0  0  0  0  0  0  0
    1.7130  -12.5590  -36.3820 N   0  0  0  0  0  0  0  0  0  0  0  0
    2.2470  -13.0740  -37.5010 C   0  0  0  0  0  0  0  0  0  0  0  0
    1.7500  -14.3150  -37.5950 N   0  0  0  0  0  0  0  0  0  0  0  0
    3.1690  -12.3860  -38.3930 C   0  0  0  0  0  0  0  0  0  0  0  0
    3.2980  -12.7430  -39.7150 C   0  0  0  0  0  3  0  0  0  0  0  0
    4.1710  -12.0970  -40.5710 C   0  0  0  0  0  3  0  0  0  0  0  0
    4.9550  -11.0540  -40.1130 C   0  0  0  0  0  0  0  0  0  0  0  0
    6.0700  -10.2180  -41.1800 Cl  0  0  0  0  0  0  0  0  0  0  0  0
    4.8280  -10.6920  -38.7800 C   0  0  0  0  0  3  0  0  0  0  0  0
    3.9490  -11.3460  -37.9310 C   0  0  0  0  0  3  0  0  0  0  0  0
    3.8840  -18.8970  -36.8610 C   0  0  0  0  0  0  0  0  0  0  0  0
    4.2540  -18.9400  -35.6790 O   0  0  0  0  0  0  0  0  0  0  0  0
    4.7760  -19.2960  -37.8410 O   0  0  0  0  0  0  0  0  0  0  0  0
    6.1720  -19.1480  -37.7330 C   0  0  0  0  0  1  0  0  0  0  0  0
  1 10  1  0  0  0  0
  1 12  1  0  0  0  0
  2  1  1  0  0  0  0
  3  4  2  0  0  0  0
  3  2  1  0  0  0  0
  4  9  1  0  0  0  0
  5  4  1  0  0  0  0
  6  7  1  0  0  0  0
  6  5  1  0  0  0  0
  7  3  1  0  0  0  0
  8  7  2  0  0  0  0
  9 25  1  0  0  0  0
  9 10  2  0  0  0  0
 11  6  1  0  0  0  0
 13 12  1  0  0  0  0
 13 14  1  0  0  0  0
 15 14  1  0  0  0  0
 16 15  2  0  0  0  0
 17 16  1  0  0  0  0
 17 13  2  0  0  0  0
 18 24  1  0  0  0  0
 18 16  1  0  0  0  0
 19 18  2  0  0  0  0
 20 21  2  0  0  0  0
 20 19  1  0  0  0  0
 21 23  1  0  0  0  0
 22 21  1  0  0  0  0
 23 24  2  0  0  0  0
 25 26  2  0  0  0  0
 27 28  1  0  0  0  0
 27 25  1  0  0  0  0
M  END
>  <Pose>
1

>  <Score>
-6.960

$$$$
