/Users/jonathanwahrer/Desktop/Msc/3_Semester/Drug_Design_Praktikum/waehrer_HTS_screening/HTS_experiment/out/docking_results/vina_output/6y4q/1930_docked.pdbqt
 OpenBabel03232218483D

 34 37  0  0  1  0  0  0  0  0999 V2000
    1.5650  -18.9920  -39.5680 C   0  0  0  0  0  0  0  0  0  0  0  0
    1.1470  -18.9170  -40.7520 O   0  0  0  0  0  0  0  0  0  0  0  0
    2.9430  -19.1440  -39.3260 N   0  0  0  0  0  0  0  0  0  0  0  0
    3.9270  -19.2180  -40.4060 C   0  0  0  0  0  2  0  0  0  0  0  0
    4.5130  -20.6130  -40.3190 C   0  0  2  0  0  3  0  0  0  0  0  0
    5.0730  -20.8780  -38.9410 C   0  0  2  0  0  0  0  0  0  0  0  0
    4.9650  -19.6210  -38.0700 C   0  0  0  0  0  2  0  0  0  0  0  0
    3.4980  -19.2370  -37.9870 C   0  0  0  0  0  2  0  0  0  0  0  0
    6.4870  -21.3750  -38.9480 C   0  0  0  0  0  1  0  0  0  0  0  0
    0.5870  -18.9190  -38.4560 C   0  0  0  0  0  2  0  0  0  0  0  0
   -0.2810  -17.7040  -38.5010 C   0  0  0  0  0  2  0  0  0  0  0  0
    0.4530  -16.4330  -38.2790 C   0  0  0  0  0  0  0  0  0  0  0  0
    1.1420  -15.6860  -39.1580 N   0  0  0  0  0  0  0  0  0  0  0  0
    1.6660  -14.6010  -38.5620 C   0  0  0  0  0  0  0  0  0  0  0  0
    2.4400  -13.5240  -38.9670 C   0  0  0  0  0  3  0  0  0  0  0  0
    1.2930  -14.6600  -37.2350 C   0  0  0  0  0  0  0  0  0  0  0  0
    2.8360  -12.5340  -38.1040 C   0  0  0  0  0  0  0  0  0  0  0  0
    3.8160  -11.1650  -38.6070 Cl  0  0  0  0  0  0  0  0  0  0  0  0
    2.4450  -12.6230  -36.7850 C   0  0  0  0  0  3  0  0  0  0  0  0
    1.6700  -13.6860  -36.3350 C   0  0  0  0  0  3  0  0  0  0  0  0
    0.5630  -15.7720  -37.0900 N   0  0  0  0  0  0  0  0  0  0  0  0
   -0.0600  -16.2740  -35.8670 C   0  0  0  0  0  1  0  0  0  0  0  0
    5.3820  -20.9560  -41.3890 N   0  0  0  0  0  0  0  0  0  0  0  0
    6.3480  -20.0980  -41.8300 C   0  0  0  0  0  3  0  0  0  0  0  0
    7.1920  -20.4290  -42.8690 C   0  0  0  0  0  0  0  0  0  0  0  0
    7.0640  -21.6550  -43.4820 C   0  0  0  0  0  0  0  0  0  0  0  0
    8.2520  -19.5190  -43.3720 C   0  0  0  0  0  1  0  0  0  0  0  0
    7.8260  -22.0000  -44.4480 O   0  0  0  0  0  0  0  0  0  0  0  0
    6.1110  -22.4950  -43.0430 N   0  0  0  0  0  0  0  0  0  0  0  0
    5.2990  -22.1230  -42.0110 C   0  0  0  0  0  0  0  0  0  0  0  0
    6.0110  -23.4190  -43.5010 H   0  0  0  0  0  0  0  0  0  0  0  0
    4.4300  -22.9460  -41.6450 O   0  0  0  0  0  0  0  0  0  0  0  0
    4.3200  -21.8520  -38.2400 O   0  0  0  0  0  0  0  0  0  0  0  0
    3.3950  -21.5040  -38.2080 H   0  0  0  0  0  0  0  0  0  0  0  0
  1  3  1  0  0  0  0
  1 10  1  0  0  0  0
  2  1  2  0  0  0  0
  3  8  1  0  0  0  0
  4  5  1  0  0  0  0
  4  3  1  0  0  0  0
  5 23  1  6  0  0  0
  5  6  1  0  0  0  0
  6  9  1  6  0  0  0
  6 33  1  0  0  0  0
  6  7  1  0  0  0  0
  7  8  1  0  0  0  0
 11 10  1  0  0  0  0
 11 12  1  0  0  0  0
 12 21  1  0  0  0  0
 13 14  1  0  0  0  0
 13 12  2  0  0  0  0
 14 16  1  0  0  0  0
 15 14  2  0  0  0  0
 15 17  1  0  0  0  0
 16 21  1  0  0  0  0
 16 20  2  0  0  0  0
 17 19  2  0  0  0  0
 18 17  1  0  0  0  0
 19 20  1  0  0  0  0
 21 22  1  0  0  0  0
 24 23  1  0  0  0  0
 25 24  2  0  0  0  0
 26 29  1  0  0  0  0
 26 25  1  0  0  0  0
 27 25  1  0  0  0  0
 28 26  2  0  0  0  0
 29 30  1  0  0  0  0
 30 32  2  0  0  0  0
 30 23  1  0  0  0  0
 31 29  1  0  0  0  0
 33 34  1  0  0  0  0
M  END
>  <Pose>
1

>  <Score>
-6.990

$$$$
