/Users/jonathanwahrer/Desktop/Msc/3_Semester/Drug_Design_Praktikum/waehrer_HTS_screening/HTS_experiment/out/docking_results/vina_output/6y4q/1937_docked.pdbqt
 OpenBabel03232218483D

 31 34  0  0  1  0  0  0  0  0999 V2000
    0.9420  -18.5410  -38.0420 N   0  0  0  0  0  0  0  0  0  0  0  0
    0.5470  -19.8560  -38.2550 C   0  0  0  0  0  2  0  0  0  0  0  0
    1.3540  -20.3880  -39.5140 C   0  0  0  0  0  2  0  0  0  0  0  0
    2.5570  -19.6060  -39.4080 N   0  0  0  0  0  0  0  0  0  0  0  0
    2.3560  -18.2480  -39.9910 C   0  0  0  0  0  2  0  0  0  0  0  0
    1.0650  -17.8160  -39.3560 C   0  0  0  0  0  2  0  0  0  0  0  0
    3.7520  -20.0540  -38.9290 C   0  0  0  0  0  0  0  0  0  0  0  0
    4.5650  -19.1850  -38.4600 O   0  0  0  0  0  0  0  0  0  0  0  0
    0.2480  -17.6430  -37.1500 C   0  0  0  0  0  2  0  0  0  0  0  0
    1.2060  -16.4840  -36.8600 C   0  0  0  0  0  0  0  0  0  0  0  0
    1.0460  -15.3140  -37.6050 N   0  0  0  0  0  0  0  0  0  0  0  0
    0.4270  -15.4250  -38.4860 H   0  0  0  0  0  0  0  0  0  0  0  0
    2.0450  -16.6040  -36.0060 O   0  0  0  0  0  0  0  0  0  0  0  0
    1.6760  -14.0610  -37.3910 C   0  0  0  0  0  2  0  0  0  0  0  0
    2.3010  -13.5070  -38.6200 C   0  0  0  0  0  0  0  0  0  0  0  0
    3.2060  -12.4610  -38.4790 C   0  0  0  0  0  0  0  0  0  0  0  0
    3.3400  -11.6870  -36.9180 Cl  0  0  0  0  0  0  0  0  0  0  0  0
    3.9390  -11.9950  -39.5210 C   0  0  0  0  0  3  0  0  0  0  0  0
    3.8690  -12.5210  -40.7950 C   0  0  0  0  0  3  0  0  0  0  0  0
    2.9500  -13.5820  -40.9350 C   0  0  0  0  0  3  0  0  0  0  0  0
    2.1870  -14.0510  -39.8720 C   0  0  0  0  0  3  0  0  0  0  0  0
    4.2630  -21.4600  -38.8980 C   0  0  1  0  0  3  0  0  0  0  0  0
    4.1170  -21.9200  -40.2820 O   0  0  0  0  0  0  0  0  0  0  0  0
    4.3900  -20.8530  -41.1880 C   0  0  0  0  0  0  0  0  0  0  0  0
    5.3540  -19.9510  -40.8240 C   0  0  0  0  0  0  0  0  0  0  0  0
    3.7200  -20.7190  -42.3980 C   0  0  0  0  0  3  0  0  0  0  0  0
    5.6850  -18.8730  -41.6380 C   0  0  0  0  0  3  0  0  0  0  0  0
    6.0220  -20.1190  -39.6060 O   0  0  0  0  0  0  0  0  0  0  0  0
    4.9850  -18.7660  -42.8350 C   0  0  0  0  0  3  0  0  0  0  0  0
    4.0160  -19.6610  -43.2340 C   0  0  0  0  0  3  0  0  0  0  0  0
    5.8030  -21.2970  -38.7890 C   0  0  0  0  0  2  0  0  0  0  0  0
  1  9  1  0  0  0  0
  2  1  1  0  0  0  0
  3  4  1  0  0  0  0
  3  2  1  0  0  0  0
  4  7  1  0  0  0  0
  5  4  1  0  0  0  0
  5  6  1  0  0  0  0
  6  1  1  0  0  0  0
  7  8  2  0  0  0  0
  9 10  1  0  0  0  0
 10 13  2  0  0  0  0
 11 14  1  0  0  0  0
 11 10  1  0  0  0  0
 12 11  1  0  0  0  0
 15 16  1  0  0  0  0
 15 14  1  0  0  0  0
 16 17  1  0  0  0  0
 18 16  2  0  0  0  0
 19 18  1  0  0  0  0
 20 19  2  0  0  0  0
 20 21  1  0  0  0  0
 21 15  2  0  0  0  0
 22  7  1  6  0  0  0
 22 31  1  0  0  0  0
 23 22  1  0  0  0  0
 24 25  1  0  0  0  0
 24 23  1  0  0  0  0
 25 28  1  0  0  0  0
 26 24  2  0  0  0  0
 27 25  2  0  0  0  0
 28 31  1  0  0  0  0
 29 27  1  0  0  0  0
 30 29  2  0  0  0  0
 30 26  1  0  0  0  0
M  END
>  <Pose>
1

>  <Score>
-6.661

$$$$
