/Users/jonathanwahrer/Desktop/Msc/3_Semester/Drug_Design_Praktikum/waehrer_HTS_screening/HTS_experiment/out/docking_results/vina_output/6y4q/1939_docked.pdbqt
 OpenBabel03232218483D

 28 31  0  0  0  0  0  0  0  0999 V2000
   -0.0490  -13.9870  -36.4060 N   0  0  0  0  0  0  0  0  0  0  0  0
   -0.3510  -15.3200  -36.4450 C   0  0  0  0  0  0  0  0  0  0  0  0
   -1.6850  -15.4900  -36.6910 C   0  0  0  0  0  0  0  0  0  0  0  0
   -2.1620  -14.2560  -36.7950 N   0  0  0  0  0  0  0  0  0  0  0  0
   -1.1800  -13.3130  -36.6240 C   0  0  0  0  0  0  0  0  0  0  0  0
   -2.2400  -16.7130  -36.7710 N   0  0  0  0  0  0  0  0  0  0  0  0
   -1.4650  -17.8170  -36.6040 C   0  0  0  0  0  0  0  0  0  0  0  0
   -2.0240  -18.9330  -36.6870 O   0  0  0  0  0  0  0  0  0  0  0  0
   -0.1480  -17.7020  -36.3600 N   0  0  0  0  0  0  0  0  0  0  0  0
    0.3930  -16.4770  -36.2820 C   0  0  0  0  0  0  0  0  0  0  0  0
    1.6220  -16.4230  -36.0520 O   0  0  0  0  0  0  0  0  0  0  0  0
   -3.6650  -16.8010  -37.0360 C   0  0  0  0  0  1  0  0  0  0  0  0
    0.4010  -18.5780  -36.2400 H   0  0  0  0  0  0  0  0  0  0  0  0
    1.2820  -13.4990  -36.1630 C   0  0  0  0  0  2  0  0  0  0  0  0
    2.0610  -13.0900  -37.3290 C   0  0  0  0  0  0  0  0  0  0  0  0
    1.9960  -13.6840  -38.5460 C   0  0  0  0  0  3  0  0  0  0  0  0
    2.8000  -13.2890  -39.6200 C   0  0  0  0  0  3  0  0  0  0  0  0
    3.6960  -12.2730  -39.4730 C   0  0  0  0  0  0  0  0  0  0  0  0
    4.6810  -11.8170  -40.8460 Cl  0  0  0  0  0  0  0  0  0  0  0  0
    3.7960  -11.6440  -38.2530 C   0  0  0  0  0  3  0  0  0  0  0  0
    2.9950  -12.0490  -37.2110 C   0  0  0  0  0  3  0  0  0  0  0  0
   -1.4420  -11.9270  -36.6780 N   0  0  0  0  0  0  0  0  0  0  0  0
   -1.5530  -11.2080  -35.4160 C   0  0  0  0  0  2  0  0  0  0  0  0
   -0.9270   -9.8370  -35.7300 C   0  0  0  0  0  2  0  0  0  0  0  0
    0.1430   -9.9500  -36.6960 N   0  0  0  0  0  0  0  0  0  0  0  0
   -0.2950  -10.3560  -38.0140 C   0  0  0  0  0  2  0  0  0  0  0  0
    0.5650   -9.0100  -36.7830 H   0  0  0  0  0  0  0  0  0  0  0  0
   -1.6090  -11.0960  -37.8130 C   0  0  0  0  0  2  0  0  0  0  0  0
  1 14  1  0  0  0  0
  2  1  1  0  0  0  0
  2 10  1  0  0  0  0
  3  2  2  0  0  0  0
  4  3  1  0  0  0  0
  4  5  2  0  0  0  0
  5  1  1  0  0  0  0
  6  3  1  0  0  0  0
  6  7  1  0  0  0  0
  7  9  1  0  0  0  0
  8  7  2  0  0  0  0
  9 10  1  0  0  0  0
  9 13  1  0  0  0  0
 10 11  2  0  0  0  0
 12  6  1  0  0  0  0
 15 21  1  0  0  0  0
 15 14  1  0  0  0  0
 16 15  2  0  0  0  0
 17 18  2  0  0  0  0
 17 16  1  0  0  0  0
 18 20  1  0  0  0  0
 19 18  1  0  0  0  0
 20 21  2  0  0  0  0
 22  5  1  0  0  0  0
 22 23  1  0  0  0  0
 24 23  1  0  0  0  0
 25 24  1  0  0  0  0
 26 28  1  0  0  0  0
 26 25  1  0  0  0  0
 27 25  1  0  0  0  0
 28 22  1  0  0  0  0
M  END
>  <Pose>
1

>  <Score>
-6.180

$$$$
