/Users/jonathanwahrer/Desktop/Msc/3_Semester/Drug_Design_Praktikum/waehrer_HTS_screening/HTS_experiment/out/docking_results/vina_output/6y4q/1940_docked.pdbqt
 OpenBabel03232218493D

 30 33  0  0  1  0  0  0  0  0999 V2000
    0.4160  -18.5440  -37.8250 C   0  0  1  0  0  3  0  0  0  0  0  0
    0.6240  -18.7770  -39.2600 N   0  0  0  0  0  0  0  0  0  0  0  0
   -0.0120  -17.6940  -39.9140 C   0  0  0  0  0  0  0  0  0  0  0  0
   -0.5190  -17.7060  -41.0600 O   0  0  0  0  0  0  0  0  0  0  0  0
    0.0350  -16.5470  -38.9880 C   0  0  0  0  0  0  0  0  0  0  0  0
   -0.4150  -15.3940  -39.1710 O   0  0  0  0  0  0  0  0  0  0  0  0
    0.7210  -17.0550  -37.8080 C   0  0  0  0  0  0  0  0  0  0  0  0
    1.4260  -16.3850  -36.9640 C   0  0  0  0  0  0  0  0  0  0  0  0
    2.0400  -17.0110  -35.8810 O   0  0  0  0  0  1  0  0  0  0  0  0
    1.3320  -19.9020  -39.8540 C   0  0  0  0  0  2  0  0  0  0  0  0
    2.8230  -19.8210  -39.7400 C   0  0  0  0  0  2  0  0  0  0  0  0
    3.4430  -20.7830  -38.8950 N   0  0  0  0  0  4  0  0  0  0  0  0
    4.7790  -21.1630  -39.2230 C   0  0  0  0  0  2  0  0  0  0  0  0
    5.7770  -20.0330  -39.1170 C   0  0  0  0  0  2  0  0  0  0  0  0
    5.7660  -19.4800  -37.8410 O   0  0  0  0  0  0  0  0  0  0  0  0
    4.4800  -19.1460  -37.4270 C   0  0  0  0  0  2  0  0  0  0  0  0
    3.5130  -20.2980  -37.5010 C   0  0  0  0  0  2  0  0  0  0  0  0
    2.8580  -21.6470  -38.8990 H   0  0  0  0  0  0  0  0  0  0  0  0
   -1.0240  -18.6460  -37.4840 C   0  0  0  0  0  0  0  0  0  0  0  0
   -1.8840  -19.4670  -38.1690 C   0  0  0  0  0  3  0  0  0  0  0  0
   -3.2240  -19.5780  -37.8520 C   0  0  0  0  0  3  0  0  0  0  0  0
   -3.7370  -18.8410  -36.8060 C   0  0  0  0  0  0  0  0  0  0  0  0
   -5.4160  -18.9220  -36.3360 Cl  0  0  0  0  0  0  0  0  0  0  0  0
   -2.8960  -18.0140  -36.1070 C   0  0  0  0  0  3  0  0  0  0  0  0
   -1.5600  -17.9080  -36.4280 C   0  0  0  0  0  3  0  0  0  0  0  0
    1.6030  -14.9440  -37.1170 C   0  0  0  0  0  0  0  0  0  0  0  0
    2.2270  -14.2400  -37.9920 O   0  0  0  0  0  0  0  0  0  0  0  0
    2.1190  -12.9680  -37.7330 C   0  0  0  0  0  3  0  0  0  0  0  0
    1.3650  -12.8000  -36.6000 C   0  0  0  0  0  3  0  0  0  0  0  0
    1.0280  -14.0610  -36.1930 C   0  0  0  0  0  3  0  0  0  0  0  0
  1  7  1  0  0  0  0
  1 19  1  6  0  0  0
  2  1  1  0  0  0  0
  3  2  1  0  0  0  0
  3  5  1  0  0  0  0
  4  3  2  0  0  0  0
  5  7  1  0  0  0  0
  6  5  2  0  0  0  0
  7  8  2  0  0  0  0
  8  9  1  0  0  0  0
 10 11  1  0  0  0  0
 10  2  1  0  0  0  0
 11 12  1  0  0  0  0
 12 17  1  0  0  0  0
 13 14  1  0  0  0  0
 13 12  1  0  0  0  0
 14 15  1  0  0  0  0
 15 16  1  0  0  0  0
 17 16  1  0  0  0  0
 18 12  1  0  0  0  0
 19 25  1  0  0  0  0
 20 21  1  0  0  0  0
 20 19  2  0  0  0  0
 21 22  2  0  0  0  0
 22 23  1  0  0  0  0
 22 24  1  0  0  0  0
 25 24  2  0  0  0  0
 26  8  1  0  0  0  0
 26 30  2  0  0  0  0
 27 28  1  0  0  0  0
 27 26  1  0  0  0  0
 28 29  2  0  0  0  0
 29 30  1  0  0  0  0
M  END
>  <Pose>
1

>  <Score>
-6.094

$$$$
