/Users/jonathanwahrer/Desktop/Msc/3_Semester/Drug_Design_Praktikum/waehrer_HTS_screening/HTS_experiment/out/docking_results/vina_output/6y4q/1941_docked.pdbqt
 OpenBabel03232218493D

 22 25  0  0  1  0  0  0  0  0999 V2000
    2.6060  -18.2740  -37.7440 N   0  0  0  0  0  0  0  0  0  0  0  0
    2.3850  -17.4370  -36.6000 C   0  0  0  0  0  0  0  0  0  0  0  0
    2.8280  -17.7500  -35.4410 O   0  0  0  0  0  0  0  0  0  0  0  0
    1.6120  -16.2510  -37.0010 C   0  0  1  0  0  3  0  0  0  0  0  0
    0.9750  -16.6850  -38.2990 C   0  0  2  0  0  3  0  0  0  0  0  0
   -0.5290  -16.7030  -38.1260 C   0  0  2  0  0  3  0  0  0  0  0  0
   -0.9350  -15.2330  -37.9490 C   0  0  0  0  0  2  0  0  0  0  0  0
   -0.2930  -14.7980  -36.6630 C   0  0  0  0  0  0  0  0  0  0  0  0
   -0.5030  -13.7030  -36.2150 O   0  0  0  0  0  0  0  0  0  0  0  0
    0.6080  -15.8020  -35.9960 C   0  0  1  0  0  3  0  0  0  0  0  0
   -0.3050  -16.9660  -35.5950 C   0  0  0  0  0  2  0  0  0  0  0  0
   -0.9430  -17.4300  -36.8770 C   0  0  0  0  0  0  0  0  0  0  0  0
   -1.7350  -18.3310  -36.8610 O   0  0  0  0  0  0  0  0  0  0  0  0
    1.5550  -17.9790  -38.6540 C   0  0  0  0  0  0  0  0  0  0  0  0
    1.1870  -18.7080  -39.6030 O   0  0  0  0  0  0  0  0  0  0  0  0
    3.6570  -19.2110  -37.9510 C   0  0  0  0  0  0  0  0  0  0  0  0
    4.9750  -18.8070  -37.8520 C   0  0  0  0  0  3  0  0  0  0  0  0
    6.0260  -19.6760  -38.0420 C   0  0  0  0  0  3  0  0  0  0  0  0
    5.8050  -20.9980  -38.3410 C   0  0  0  0  0  0  0  0  0  0  0  0
    7.1400  -22.1180  -38.5840 Cl  0  0  0  0  0  0  0  0  0  0  0  0
    4.4910  -21.4250  -38.4450 C   0  0  0  0  0  3  0  0  0  0  0  0
    3.4550  -20.5400  -38.2520 C   0  0  0  0  0  3  0  0  0  0  0  0
  1  2  1  0  0  0  0
  2  3  2  0  0  0  0
  4  2  1  1  0  0  0
  4 10  1  0  0  0  0
  5 14  1  1  0  0  0
  5  6  1  0  0  0  0
  5  4  1  0  0  0  0
  6  7  1  1  0  0  0
  6 12  1  0  0  0  0
  7  8  1  0  0  0  0
  8  9  2  0  0  0  0
  8 10  1  0  0  0  0
 10 11  1  6  0  0  0
 12 13  2  0  0  0  0
 12 11  1  0  0  0  0
 14  1  1  0  0  0  0
 15 14  2  0  0  0  0
 16 17  1  0  0  0  0
 16  1  1  0  0  0  0
 18 17  2  0  0  0  0
 19 18  1  0  0  0  0
 20 19  1  0  0  0  0
 21 19  2  0  0  0  0
 21 22  1  0  0  0  0
 22 16  2  0  0  0  0
M  END
>  <Pose>
1

>  <Score>
-6.575

$$$$
