/Users/jonathanwahrer/Desktop/Msc/3_Semester/Drug_Design_Praktikum/waehrer_HTS_screening/HTS_experiment/out/docking_results/vina_output/6y4q/1943_docked.pdbqt
 OpenBabel03232218493D

 34 38  0  0  1  0  0  0  0  0999 V2000
    0.7630  -15.6460  -36.8400 N   0  0  0  0  0  0  0  0  0  0  0  0
    1.5930  -15.9960  -37.9690 C   0  0  0  0  0  0  0  0  0  0  0  0
    1.9200  -15.2410  -38.8890 O   0  0  0  0  0  0  0  0  0  0  0  0
    2.0010  -17.4030  -37.8610 C   0  0  2  0  0  3  0  0  0  0  0  0
    1.8480  -18.2260  -39.1180 C   0  0  2  0  0  0  0  0  0  0  0  0
    0.5480  -18.8500  -39.0810 N   0  0  0  0  0  0  0  0  0  0  0  0
   -0.1920  -18.1840  -38.0280 C   0  0  2  0  0  3  0  0  0  0  0  0
    0.8980  -17.9690  -36.9980 C   0  0  2  0  0  3  0  0  0  0  0  0
    0.6260  -16.8540  -36.0720 C   0  0  0  0  0  0  0  0  0  0  0  0
    0.3440  -17.0010  -34.8800 O   0  0  0  0  0  0  0  0  0  0  0  0
    2.9520  -19.2450  -39.0480 C   0  0  0  0  0  0  0  0  0  0  0  0
    3.8630  -18.9340  -40.0170 C   0  0  0  0  0  0  0  0  0  0  0  0
    5.0510  -19.6640  -40.1760 C   0  0  0  0  0  3  0  0  0  0  0  0
    5.3260  -20.7290  -39.3430 C   0  0  0  0  0  3  0  0  0  0  0  0
    4.4130  -21.0430  -38.3720 C   0  0  0  0  0  3  0  0  0  0  0  0
    3.2500  -20.3150  -38.2290 C   0  0  0  0  0  3  0  0  0  0  0  0
    3.3940  -17.8750  -40.8360 N   0  0  0  0  0  0  0  0  0  0  0  0
    2.1110  -17.5100  -40.3500 C   0  0  0  0  0  0  0  0  0  0  0  0
    1.3630  -16.6970  -40.9330 O   0  0  0  0  0  0  0  0  0  0  0  0
    0.0990  -18.7060  -40.0170 H   0  0  0  0  0  0  0  0  0  0  0  0
    3.9070  -17.4370  -41.6610 H   0  0  0  0  0  0  0  0  0  0  0  0
   -1.3010  -19.0420  -37.4780 C   0  0  0  0  0  2  0  0  0  0  0  0
   -1.6680  -20.1680  -38.3310 C   0  0  0  0  0  0  0  0  0  0  0  0
   -2.2440  -19.9780  -39.4190 O   0  0  0  0  0  0  0  0  0  0  0  0
   -1.3700  -21.4900  -37.9250 N   0  0  0  0  0  0  0  0  0  0  0  0
   -0.9420  -21.7430  -37.0020 H   0  0  0  0  0  0  0  0  0  0  0  0
   -1.5640  -22.3370  -38.5360 H   0  0  0  0  0  0  0  0  0  0  0  0
    0.1970  -14.4100  -36.5120 C   0  0  0  0  0  0  0  0  0  0  0  0
    0.9200  -13.3570  -36.0230 C   0  0  0  0  0  3  0  0  0  0  0  0
    0.3560  -12.1280  -35.7010 C   0  0  0  0  0  3  0  0  0  0  0  0
   -0.9930  -11.9400  -35.8760 C   0  0  0  0  0  0  0  0  0  0  0  0
   -1.7170  -10.3910  -35.4840 Cl  0  0  0  0  0  0  0  0  0  0  0  0
   -1.7440  -12.9670  -36.3590 C   0  0  0  0  0  3  0  0  0  0  0  0
   -1.1500  -14.1940  -36.6750 C   0  0  0  0  0  3  0  0  0  0  0  0
  1 28  1  0  0  0  0
  1  9  1  0  0  0  0
  2  1  1  0  0  0  0
  3  2  2  0  0  0  0
  4  2  1  6  0  0  0
  4  8  1  0  0  0  0
  5 18  1  6  0  0  0
  5  6  1  0  0  0  0
  5 11  1  0  0  0  0
  5  4  1  0  0  0  0
  6  7  1  0  0  0  0
  7 22  1  1  0  0  0
  7  8  1  0  0  0  0
  8  9  1  1  0  0  0
  9 10  2  0  0  0  0
 11 16  1  0  0  0  0
 12 11  2  0  0  0  0
 13 12  1  0  0  0  0
 13 14  2  0  0  0  0
 14 15  1  0  0  0  0
 15 16  2  0  0  0  0
 17 18  1  0  0  0  0
 17 12  1  0  0  0  0
 19 18  2  0  0  0  0
 20  6  1  0  0  0  0
 21 17  1  0  0  0  0
 23 25  1  0  0  0  0
 23 22  1  0  0  0  0
 24 23  2  0  0  0  0
 25 26  1  0  0  0  0
 27 25  1  0  0  0  0
 28 29  1  0  0  0  0
 29 30  2  0  0  0  0
 31 30  1  0  0  0  0
 31 32  1  0  0  0  0
 33 31  2  0  0  0  0
 34 28  2  0  0  0  0
 34 33  1  0  0  0  0
M  END
>  <Pose>
1

>  <Score>
-6.844

$$$$
