/Users/jonathanwahrer/Desktop/Msc/3_Semester/Drug_Design_Praktikum/waehrer_HTS_screening/HTS_experiment/out/docking_results/vina_output/6y4q/1945_docked.pdbqt
 OpenBabel03232218493D

 24 27  0  0  0  0  0  0  0  0999 V2000
    1.4780  -15.1310  -42.2330 Cl  0  0  0  0  0  0  0  0  0  0  0  0
    2.3570  -16.5020  -41.5880 C   0  0  0  0  0  0  0  0  0  0  0  0
    2.0110  -17.0880  -40.3920 C   0  0  0  0  0  3  0  0  0  0  0  0
    2.7220  -18.1810  -39.8880 C   0  0  0  0  0  0  0  0  0  0  0  0
    3.7900  -18.6660  -40.6270 C   0  0  0  0  0  0  0  0  0  0  0  0
    4.1470  -18.0920  -41.8240 C   0  0  0  0  0  3  0  0  0  0  0  0
    3.4430  -17.0190  -42.3070 C   0  0  0  0  0  3  0  0  0  0  0  0
    4.5680  -19.8180  -40.1360 C   0  0  0  0  0  0  0  0  0  0  0  0
    5.5830  -20.4550  -40.6130 N   0  0  0  0  0  0  0  0  0  0  0  0
    6.0050  -21.5340  -39.7630 C   0  0  0  0  0  3  0  0  0  0  0  0
    5.0530  -21.4870  -38.6090 C   0  0  0  0  0  3  0  0  0  0  0  0
    4.1740  -20.3870  -38.9030 N   0  0  0  0  0  0  0  0  0  0  0  0
    3.0730  -19.8660  -38.1680 C   0  0  0  0  0  0  0  0  0  0  0  0
    2.7050  -20.3600  -37.0650 O   0  0  0  0  0  0  0  0  0  0  0  0
    2.3120  -18.7420  -38.6460 N   0  0  0  0  0  0  0  0  0  0  0  0
    1.1890  -18.2260  -37.8760 C   0  0  0  0  0  2  0  0  0  0  0  0
    1.5910  -17.0580  -37.0600 C   0  0  0  0  0  0  0  0  0  0  0  0
    2.3840  -17.2480  -36.1050 O   0  0  0  0  0  0  0  0  0  0  0  0
    1.1260  -15.7450  -37.3060 N   0  0  0  0  0  0  0  0  0  0  0  0
    0.4700  -15.6040  -38.1010 H   0  0  0  0  0  0  0  0  0  0  0  0
    1.5340  -14.6230  -36.4950 C   0  0  0  0  0  2  0  0  0  0  0  0
    1.5170  -13.3600  -37.3140 C   0  0  0  0  0  3  0  0  0  0  0  0
    2.4480  -13.2230  -38.4660 C   0  0  0  0  0  2  0  0  0  0  0  0
    2.7210  -12.4710  -37.2200 C   0  0  0  0  0  2  0  0  0  0  0  0
  1  2  1  0  0  0  0
  2  3  1  0  0  0  0
  3  4  2  0  0  0  0
  4 15  1  0  0  0  0
  5  8  1  0  0  0  0
  5  4  1  0  0  0  0
  6  5  2  0  0  0  0
  7  6  1  0  0  0  0
  7  2  2  0  0  0  0
  8 12  1  0  0  0  0
  9  8  2  0  0  0  0
  9 10  1  0  0  0  0
 10 11  2  0  0  0  0
 12 11  1  0  0  0  0
 12 13  1  0  0  0  0
 13 14  2  0  0  0  0
 15 13  1  0  0  0  0
 15 16  1  0  0  0  0
 16 17  1  0  0  0  0
 17 18  2  0  0  0  0
 19 17  1  0  0  0  0
 19 21  1  0  0  0  0
 20 19  1  0  0  0  0
 22 24  1  0  0  0  0
 22 21  1  0  0  0  0
 23 22  1  0  0  0  0
 23 24  1  0  0  0  0
M  END
>  <Pose>
1

>  <Score>
-5.407

$$$$
