/Users/jonathanwahrer/Desktop/Msc/3_Semester/Drug_Design_Praktikum/waehrer_HTS_screening/HTS_experiment/out/docking_results/vina_output/6y4q/1957_docked.pdbqt
 OpenBabel03232218503D

 36 40  0  0  1  0  0  0  0  0999 V2000
    0.6060  -15.9710  -37.1580 C   0  0  2  0  0  3  0  0  0  0  0  0
    1.5920  -15.0960  -37.7790 N   0  0  0  0  0  0  0  0  0  0  0  0
    1.0620  -13.7490  -37.7010 C   0  0  1  0  0  0  0  0  0  0  0  0
    0.3010  -13.7720  -36.4070 C   0  0  2  0  0  3  0  0  0  0  0  0
   -0.2980  -15.1400  -36.3270 C   0  0  1  0  0  3  0  0  0  0  0  0
   -1.6710  -15.0190  -36.8900 C   0  0  0  0  0  0  0  0  0  0  0  0
   -2.4190  -15.9600  -37.2450 O   0  0  0  0  0  0  0  0  0  0  0  0
   -1.9660  -13.6060  -36.9430 N   0  0  0  0  0  0  0  0  0  0  0  0
   -0.8820  -12.8940  -36.3820 C   0  0  0  0  0  0  0  0  0  0  0  0
   -0.8960  -11.7220  -35.9340 O   0  0  0  0  0  0  0  0  0  0  0  0
    2.1380  -12.7270  -37.6860 C   0  0  0  0  0  0  0  0  0  0  0  0
    1.9610  -11.9510  -38.8070 C   0  0  0  0  0  0  0  0  0  0  0  0
    2.8400  -10.9030  -39.0410 C   0  0  0  0  0  3  0  0  0  0  0  0
    3.8590  -10.6680  -38.1500 C   0  0  0  0  0  3  0  0  0  0  0  0
    4.0450  -11.4430  -37.0170 C   0  0  0  0  0  3  0  0  0  0  0  0
    3.1650  -12.4820  -36.7970 C   0  0  0  0  0  3  0  0  0  0  0  0
    0.8310  -12.4040  -39.5750 N   0  0  0  0  0  0  0  0  0  0  0  0
    0.2760  -13.5180  -38.9000 C   0  0  0  0  0  0  0  0  0  0  0  0
   -0.7120  -14.1520  -39.3070 O   0  0  0  0  0  0  0  0  0  0  0  0
    1.7720  -15.3830  -38.7470 H   0  0  0  0  0  0  0  0  0  0  0  0
    0.5260  -11.9480  -40.4650 H   0  0  0  0  0  0  0  0  0  0  0  0
    1.3950  -16.9960  -36.3890 C   0  0  1  0  0  3  0  0  0  0  0  0
    1.9910  -18.0490  -37.2610 C   0  0  0  0  0  0  0  0  0  0  0  0
    1.2350  -18.6350  -38.2760 C   0  0  0  0  0  3  0  0  0  0  0  0
    1.7530  -19.6180  -39.0770 C   0  0  0  0  0  3  0  0  0  0  0  0
    3.0470  -20.0760  -38.9190 C   0  0  0  0  0  0  0  0  0  0  0  0
    3.7220  -21.3350  -39.9380 Cl  0  0  0  0  0  0  0  0  0  0  0  0
    3.7740  -19.4840  -37.9100 C   0  0  0  0  0  3  0  0  0  0  0  0
    3.2780  -18.4960  -37.0930 C   0  0  0  0  0  3  0  0  0  0  0  0
    2.3780  -16.4650  -35.5960 O   0  0  0  0  0  0  0  0  0  0  0  0
    3.2470  -16.5870  -36.0580 H   0  0  0  0  0  0  0  0  0  0  0  0
   -3.1600  -13.0320  -37.4910 C   0  0  0  0  0  2  0  0  0  0  0  0
   -4.3440  -13.0200  -36.5990 C   0  0  0  0  0  2  0  0  0  0  0  0
   -4.4880  -11.8490  -35.6920 C   0  0  0  0  0  2  0  0  0  0  0  0
   -3.9220  -12.0490  -34.4390 O   0  0  0  0  0  0  0  0  0  0  0  0
   -3.5820  -10.8010  -33.8770 C   0  0  0  0  0  1  0  0  0  0  0  0
  1 22  1  1  0  0  0
  1  5  1  0  0  0  0
  2  3  1  0  0  0  0
  2  1  1  0  0  0  0
  3 18  1  6  0  0  0
  3 11  1  0  0  0  0
  3  4  1  0  0  0  0
  4  9  1  6  0  0  0
  4  5  1  0  0  0  0
  5  6  1  6  0  0  0
  7  6  2  0  0  0  0
  8  6  1  0  0  0  0
  8  9  1  0  0  0  0
  9 10  2  0  0  0  0
 11 16  1  0  0  0  0
 12 11  2  0  0  0  0
 13 12  1  0  0  0  0
 13 14  2  0  0  0  0
 14 15  1  0  0  0  0
 15 16  2  0  0  0  0
 17 18  1  0  0  0  0
 17 12  1  0  0  0  0
 19 18  2  0  0  0  0
 20  2  1  0  0  0  0
 21 17  1  0  0  0  0
 22 30  1  6  0  0  0
 23 29  1  0  0  0  0
 23 22  1  0  0  0  0
 24 23  2  0  0  0  0
 25 26  2  0  0  0  0
 25 24  1  0  0  0  0
 26 28  1  0  0  0  0
 27 26  1  0  0  0  0
 28 29  2  0  0  0  0
 31 30  1  0  0  0  0
 32  8  1  0  0  0  0
 32 33  1  0  0  0  0
 33 34  1  0  0  0  0
 34 35  1  0  0  0  0
 35 36  1  0  0  0  0
M  END
>  <Pose>
1

>  <Score>
-6.161

$$$$
