/Users/jonathanwahrer/Desktop/Msc/3_Semester/Drug_Design_Praktikum/waehrer_HTS_screening/HTS_experiment/out/docking_results/vina_output/6y4q/1958_docked.pdbqt
 OpenBabel03232218503D

 28 31  0  0  1  0  0  0  0  0999 V2000
    0.9610  -17.8470  -38.5080 C   0  0  0  0  0  0  0  0  0  0  0  0
    0.1850  -18.3550  -39.3900 O   0  0  0  0  0  0  0  0  0  0  0  0
    1.9070  -18.6200  -37.8200 N   0  0  0  0  0  0  0  0  0  0  0  0
    2.7760  -18.0600  -36.8350 C   0  0  0  0  0  2  0  0  0  0  0  0
    4.0770  -18.7930  -36.6650 C   0  0  0  0  0  2  0  0  0  0  0  0
    4.4120  -19.5320  -37.9060 C   0  0  2  0  0  3  0  0  0  0  0  0
    3.4240  -20.1590  -38.6440 C   0  0  0  0  0  0  0  0  0  0  0  0
    3.7170  -20.8340  -39.7610 N   0  0  0  0  0  0  0  0  0  0  0  0
    4.9750  -20.9460  -40.2380 C   0  0  2  0  0  3  0  0  0  0  0  0
    5.9460  -20.3330  -39.5190 N   0  0  0  0  0  0  0  0  0  0  0  0
    5.7020  -19.6450  -38.3910 C   0  0  0  0  0  0  0  0  0  0  0  0
    2.0190  -20.0230  -38.1080 C   0  0  0  0  0  2  0  0  0  0  0  0
    0.8060  -16.3800  -38.2470 C   0  0  0  0  0  2  0  0  0  0  0  0
    1.5910  -15.5820  -39.2030 C   0  0  0  0  0  0  0  0  0  0  0  0
    1.9960  -16.0520  -40.4340 C   0  0  0  0  0  3  0  0  0  0  0  0
    2.7320  -15.2810  -41.3080 C   0  0  0  0  0  3  0  0  0  0  0  0
    3.0930  -13.9830  -40.9600 C   0  0  0  0  0  0  0  0  0  0  0  0
    4.0280  -12.9920  -42.0580 Cl  0  0  0  0  0  0  0  0  0  0  0  0
    2.6800  -13.5270  -39.7220 C   0  0  0  0  0  3  0  0  0  0  0  0
    1.9440  -14.2980  -38.8510 C   0  0  0  0  0  3  0  0  0  0  0  0
    6.7200  -19.0280  -37.6780 O   0  0  0  0  0  0  0  0  0  0  0  0
    7.6820  -18.9920  -38.0240 H   0  0  0  0  0  0  0  0  0  0  0  0
    5.2290  -21.6650  -41.4190 N   0  0  0  0  0  0  0  0  0  0  0  0
    4.3420  -22.7050  -41.8470 C   0  0  0  0  0  2  0  0  0  0  0  0
    4.5560  -22.8560  -43.3600 C   0  0  0  0  0  2  0  0  0  0  0  0
    5.8410  -23.2470  -43.6430 O   0  0  0  0  0  0  0  0  0  0  0  0
    6.8350  -22.5550  -43.0070 C   0  0  0  0  0  2  0  0  0  0  0  0
    6.3850  -21.3620  -42.2100 C   0  0  0  0  0  2  0  0  0  0  0  0
  1 13  1  0  0  0  0
  1  3  1  0  0  0  0
  2  1  2  0  0  0  0
  3  4  1  0  0  0  0
  4  5  1  0  0  0  0
  6  5  1  1  0  0  0
  7 12  1  0  0  0  0
  7  6  1  0  0  0  0
  8  7  2  0  0  0  0
  9 23  1  6  0  0  0
  9  8  1  0  0  0  0
  9 10  1  0  0  0  0
 10 11  2  0  0  0  0
 11  6  1  0  0  0  0
 11 21  1  0  0  0  0
 12  3  1  0  0  0  0
 14 20  1  0  0  0  0
 14 13  1  0  0  0  0
 15 14  2  0  0  0  0
 16 17  2  0  0  0  0
 16 15  1  0  0  0  0
 17 19  1  0  0  0  0
 18 17  1  0  0  0  0
 19 20  2  0  0  0  0
 22 21  1  0  0  0  0
 24 23  1  0  0  0  0
 25 24  1  0  0  0  0
 26 25  1  0  0  0  0
 26 27  1  0  0  0  0
 27 28  1  0  0  0  0
 28 23  1  0  0  0  0
M  END
>  <Pose>
1

>  <Score>
-6.916

$$$$
