/Users/jonathanwahrer/Desktop/Msc/3_Semester/Drug_Design_Praktikum/waehrer_HTS_screening/HTS_experiment/out/docking_results/vina_output/6y4q/1960_docked.pdbqt
 OpenBabel03232218503D

 28 31  0  0  0  0  0  0  0  0999 V2000
    5.3910  -21.0550  -39.7900 C   0  0  0  0  0  0  0  0  0  0  0  0
    6.5160  -21.0040  -39.2260 O   0  0  0  0  0  0  0  0  0  0  0  0
    5.3060  -20.7320  -41.1530 N   0  0  0  0  0  0  0  0  0  0  0  0
    6.5030  -20.3390  -41.9170 C   0  0  0  0  0  2  0  0  0  0  0  0
    6.3910  -20.9390  -43.3110 C   0  0  0  0  0  2  0  0  0  0  0  0
    5.5770  -22.1310  -43.1860 N   0  0  0  0  0  0  0  0  0  0  0  0
    4.1610  -21.8960  -42.9590 C   0  0  0  0  0  2  0  0  0  0  0  0
    4.0770  -20.7530  -41.9330 C   0  0  0  0  0  2  0  0  0  0  0  0
    6.1320  -23.4340  -43.2660 C   0  0  0  0  0  0  0  0  0  0  0  0
    5.3050  -24.5320  -43.4150 C   0  0  0  0  0  3  0  0  0  0  0  0
    5.8640  -25.7760  -43.4760 N   0  0  0  0  0  0  0  0  0  0  0  0
    7.1640  -25.9820  -43.3980 N   0  0  0  0  0  0  0  0  0  0  0  0
    8.0410  -24.9420  -43.2500 C   0  0  0  0  0  0  0  0  0  0  0  0
    7.4780  -23.7030  -43.1900 C   0  0  0  0  0  3  0  0  0  0  0  0
    9.4210  -25.2350  -43.1700 N   0  0  0  0  0  0  0  0  0  0  0  0
   10.3470  -24.7460  -44.1740 C   0  0  0  0  0  2  0  0  0  0  0  0
   11.3140  -25.8540  -44.5940 C   0  0  0  0  0  2  0  0  0  0  0  0
   11.8420  -26.5110  -43.5010 O   0  0  0  0  0  0  0  0  0  0  0  0
   10.7990  -27.1260  -42.8250 C   0  0  0  0  0  2  0  0  0  0  0  0
    9.9890  -26.0290  -42.1110 C   0  0  0  0  0  2  0  0  0  0  0  0
    4.2350  -21.4550  -38.9650 C   0  0  0  0  0  2  0  0  0  0  0  0
    3.5850  -20.2780  -38.3300 C   0  0  0  0  0  0  0  0  0  0  0  0
    2.3260  -19.8760  -38.7700 C   0  0  0  0  0  3  0  0  0  0  0  0
    1.6880  -18.7880  -38.2040 C   0  0  0  0  0  3  0  0  0  0  0  0
    2.2960  -18.0670  -37.1750 C   0  0  0  0  0  0  0  0  0  0  0  0
    1.5010  -16.6990  -36.4580 Cl  0  0  0  0  0  0  0  0  0  0  0  0
    3.5390  -18.4770  -36.7530 C   0  0  0  0  0  3  0  0  0  0  0  0
    4.1840  -19.5750  -37.3220 C   0  0  0  0  0  3  0  0  0  0  0  0
  1  2  2  0  0  0  0
  1 21  1  0  0  0  0
  3  1  1  0  0  0  0
  4  3  1  0  0  0  0
  5  6  1  0  0  0  0
  5  4  1  0  0  0  0
  6  7  1  0  0  0  0
  7  8  1  0  0  0  0
  8  3  1  0  0  0  0
  9 14  1  0  0  0  0
  9  6  1  0  0  0  0
 10  9  2  0  0  0  0
 11 10  1  0  0  0  0
 11 12  2  0  0  0  0
 12 13  1  0  0  0  0
 13 14  2  0  0  0  0
 13 15  1  0  0  0  0
 15 20  1  0  0  0  0
 16 15  1  0  0  0  0
 17 16  1  0  0  0  0
 17 18  1  0  0  0  0
 18 19  1  0  0  0  0
 19 20  1  0  0  0  0
 21 22  1  0  0  0  0
 22 28  1  0  0  0  0
 23 22  2  0  0  0  0
 23 24  1  0  0  0  0
 24 25  2  0  0  0  0
 25 27  1  0  0  0  0
 25 26  1  0  0  0  0
 28 27  2  0  0  0  0
M  END
>  <Pose>
1

>  <Score>
-6.805

$$$$
