/Users/jonathanwahrer/Desktop/Msc/3_Semester/Drug_Design_Praktikum/waehrer_HTS_screening/HTS_experiment/out/docking_results/vina_output/6y4q/1976_docked.pdbqt
 OpenBabel03232218513D

 26 29  0  0  0  0  0  0  0  0999 V2000
    1.7670  -17.5760  -37.8020 C   0  0  0  0  0  0  0  0  0  0  0  0
    0.9390  -17.2100  -38.7080 O   0  0  0  0  0  0  0  0  0  0  0  0
    2.7700  -18.5480  -38.0560 N   0  0  0  0  0  0  0  0  0  0  0  0
    3.6640  -18.9120  -37.0130 C   0  0  0  0  0  2  0  0  0  0  0  0
    5.0900  -18.8680  -37.5740 C   0  0  0  0  0  2  0  0  0  0  0  0
    5.0650  -19.9550  -38.6290 C   0  0  0  0  0  0  0  0  0  0  0  0
    3.9680  -20.0670  -39.4570 C   0  0  0  0  0  0  0  0  0  0  0  0
    3.9600  -21.0600  -40.3920 N   0  0  0  0  0  0  0  0  0  0  0  0
    4.9730  -21.9290  -40.5360 C   0  0  0  0  0  3  0  0  0  0  0  0
    6.0350  -21.8050  -39.7190 N   0  0  0  0  0  0  0  0  0  0  0  0
    6.1030  -20.8310  -38.7640 C   0  0  0  0  0  0  0  0  0  0  0  0
    2.8300  -19.1320  -39.3530 C   0  0  0  0  0  2  0  0  0  0  0  0
    1.6350  -16.9330  -36.4550 C   0  0  0  0  0  2  0  0  0  0  0  0
    0.9280  -15.6220  -36.5740 C   0  0  0  0  0  0  0  0  0  0  0  0
   -0.4200  -15.4780  -36.3110 C   0  0  0  0  0  0  0  0  0  0  0  0
   -1.3070  -16.8990  -35.8260 Cl  0  0  0  0  0  0  0  0  0  0  0  0
   -1.0370  -14.2430  -36.4280 C   0  0  0  0  0  3  0  0  0  0  0  0
   -0.3490  -13.1070  -36.8120 C   0  0  0  0  0  0  0  0  0  0  0  0
    1.0010  -13.2350  -37.0790 C   0  0  0  0  0  0  0  0  0  0  0  0
   -0.9120  -11.8620  -36.9430 O   0  0  0  0  0  0  0  0  0  0  0  0
    1.6000  -14.4740  -36.9560 C   0  0  0  0  0  3  0  0  0  0  0  0
    1.6880  -12.1010  -37.4600 O   0  0  0  0  0  0  0  0  0  0  0  0
    1.2470  -10.7760  -37.2430 C   0  0  0  0  0  2  0  0  0  0  0  0
   -0.2020  -10.6540  -36.9270 C   0  0  0  0  0  2  0  0  0  0  0  0
    7.1930  -20.7010  -37.9230 O   0  0  0  0  0  0  0  0  0  0  0  0
    7.2090  -21.2560  -37.0760 H   0  0  0  0  0  0  0  0  0  0  0  0
  1 13  1  0  0  0  0
  2  1  2  0  0  0  0
  3  1  1  0  0  0  0
  3  4  1  0  0  0  0
  5  4  1  0  0  0  0
  6  5  1  0  0  0  0
  7 12  1  0  0  0  0
  7  6  2  0  0  0  0
  8  7  1  0  0  0  0
  9  8  2  0  0  0  0
  9 10  1  0  0  0  0
 10 11  2  0  0  0  0
 11  6  1  0  0  0  0
 11 25  1  0  0  0  0
 12  3  1  0  0  0  0
 14 13  1  0  0  0  0
 14 15  1  0  0  0  0
 15 16  1  0  0  0  0
 17 15  2  0  0  0  0
 18 17  1  0  0  0  0
 19 21  1  0  0  0  0
 19 18  2  0  0  0  0
 20 24  1  0  0  0  0
 20 18  1  0  0  0  0
 21 14  2  0  0  0  0
 22 23  1  0  0  0  0
 22 19  1  0  0  0  0
 23 24  1  0  0  0  0
 25 26  1  0  0  0  0
M  END
>  <Pose>
1

>  <Score>
-6.583

$$$$
