/Users/jonathanwahrer/Desktop/Msc/3_Semester/Drug_Design_Praktikum/waehrer_HTS_screening/HTS_experiment/out/docking_results/vina_output/6y4q/1982_docked.pdbqt
 OpenBabel03232218513D

 25 28  0  0  0  0  0  0  0  0999 V2000
    2.3990  -13.0650  -36.8350 Cl  0  0  0  0  0  0  0  0  0  0  0  0
    1.2680  -14.3990  -36.9070 C   0  0  0  0  0  0  0  0  0  0  0  0
    1.6210  -15.6520  -37.3630 C   0  0  0  0  0  3  0  0  0  0  0  0
    0.7390  -16.7120  -37.4260 C   0  0  0  0  0  0  0  0  0  0  0  0
   -0.5590  -16.4890  -37.0070 C   0  0  0  0  0  0  0  0  0  0  0  0
   -0.9240  -15.2400  -36.5490 C   0  0  0  0  0  3  0  0  0  0  0  0
   -0.0420  -14.1810  -36.4860 C   0  0  0  0  0  3  0  0  0  0  0  0
   -1.5210  -17.6110  -37.0650 C   0  0  0  0  0  0  0  0  0  0  0  0
   -2.7460  -17.6730  -36.7480 N   0  0  0  0  0  0  0  0  0  0  0  0
   -3.3340  -18.9780  -36.9610 C   0  0  0  0  0  3  0  0  0  0  0  0
   -2.2220  -19.8140  -37.5060 C   0  0  0  0  0  3  0  0  0  0  0  0
   -1.1100  -18.8840  -37.5430 N   0  0  0  0  0  0  0  0  0  0  0  0
    0.2490  -19.0300  -37.9560 C   0  0  0  0  0  0  0  0  0  0  0  0
    0.9080  -20.0970  -38.4420 N   0  0  0  0  0  0  0  0  0  0  0  0
    2.1690  -19.7950  -38.7010 N   0  0  0  0  0  0  0  0  0  0  0  0
    2.2950  -18.4890  -38.3610 C   0  0  0  0  0  0  0  0  0  0  0  0
    3.3660  -17.8530  -38.4720 O   0  0  0  0  0  0  0  0  0  0  0  0
    1.1310  -17.9990  -37.9020 N   0  0  0  0  0  0  0  0  0  0  0  0
    3.1930  -20.6740  -39.2330 C   0  0  0  0  0  2  0  0  0  0  0  0
    4.1810  -21.0330  -38.1140 C   0  0  0  0  0  2  0  0  0  0  0  0
    5.5760  -20.8610  -38.5920 C   0  0  0  0  0  0  0  0  0  0  0  0
    6.3820  -21.8060  -38.7820 O   0  0  0  0  0  0  0  0  0  0  0  0
    6.0300  -19.5420  -38.8510 N   0  0  0  0  0  0  0  0  0  0  0  0
    5.7690  -18.7220  -38.2730 H   0  0  0  0  0  0  0  0  0  0  0  0
    6.6590  -19.3980  -39.6670 H   0  0  0  0  0  0  0  0  0  0  0  0
  2  1  1  0  0  0  0
  2  7  1  0  0  0  0
  3  2  2  0  0  0  0
  4  3  1  0  0  0  0
  4  5  2  0  0  0  0
  5  6  1  0  0  0  0
  6  7  2  0  0  0  0
  8  5  1  0  0  0  0
  8  9  2  0  0  0  0
 10  9  1  0  0  0  0
 11 10  2  0  0  0  0
 12 11  1  0  0  0  0
 12  8  1  0  0  0  0
 13 18  1  0  0  0  0
 13 12  1  0  0  0  0
 14 13  2  0  0  0  0
 15 14  1  0  0  0  0
 15 16  1  0  0  0  0
 16 18  1  0  0  0  0
 17 16  2  0  0  0  0
 18  4  1  0  0  0  0
 19 15  1  0  0  0  0
 19 20  1  0  0  0  0
 21 20  1  0  0  0  0
 22 21  2  0  0  0  0
 23 21  1  0  0  0  0
 23 24  1  0  0  0  0
 25 23  1  0  0  0  0
M  END
>  <Pose>
1

>  <Score>
-5.602

$$$$
