/Users/jonathanwahrer/Desktop/Msc/3_Semester/Drug_Design_Praktikum/waehrer_HTS_screening/HTS_experiment/out/docking_results/vina_output/6y4q/2003_docked.pdbqt
 OpenBabel03232218523D

 28 31  0  0  0  0  0  0  0  0999 V2000
    1.8310  -15.2370  -37.9070 N   0  0  0  0  0  0  0  0  0  0  0  0
    1.6670  -16.1390  -39.0050 C   0  0  0  0  0  2  0  0  0  0  0  0
    2.5040  -17.3850  -38.8850 C   0  0  0  0  0  2  0  0  0  0  0  0
    2.6170  -17.8420  -37.5200 N   0  0  0  0  0  0  0  0  0  0  0  0
    1.9690  -17.1970  -36.4090 C   0  0  0  0  0  3  0  0  0  0  0  0
    1.5850  -15.7820  -36.6200 C   0  0  0  0  0  3  0  0  0  0  0  0
    3.4090  -18.9940  -37.2610 C   0  0  0  0  0  0  0  0  0  0  0  0
    3.5470  -19.4480  -36.0770 O   0  0  0  0  0  0  0  0  0  0  0  0
    4.0930  -19.6950  -38.3480 C   0  0  0  0  0  0  0  0  0  0  0  0
    5.4390  -19.5470  -38.6140 C   0  0  0  0  0  3  0  0  0  0  0  0
    6.0020  -20.2260  -39.6310 N   0  0  0  0  0  0  0  0  0  0  0  0
    5.3170  -21.0650  -40.4290 C   0  0  0  0  0  0  0  0  0  0  0  0
    4.0040  -21.2210  -40.1830 N   0  0  0  0  0  0  0  0  0  0  0  0
    5.9330  -21.7490  -41.4700 C   0  0  0  0  0  3  0  0  0  0  0  0
    3.3010  -22.0580  -40.9710 C   0  0  0  0  0  3  0  0  0  0  0  0
    3.4040  -20.5590  -39.1750 C   0  0  0  0  0  0  0  0  0  0  0  0
    3.8840  -22.7500  -42.0130 C   0  0  0  0  0  3  0  0  0  0  0  0
    5.2300  -22.6130  -42.2920 C   0  0  0  0  0  3  0  0  0  0  0  0
    2.1780  -20.7040  -38.9450 O   0  0  0  0  0  0  0  0  0  0  0  0
    1.2090  -13.6840  -38.1700 S   0  0  0  0  0  0  0  0  0  0  0  0
    0.3190  -13.6550  -39.3520 O   0  0  0  0  0  0  0  0  0  0  0  0
    0.4410  -13.2550  -36.9400 O   0  0  0  0  0  0  0  0  0  0  0  0
    2.5610  -12.5630  -38.4050 C   0  0  0  0  0  0  0  0  0  0  0  0
    3.5080  -12.2840  -39.7950 S   0  0  0  0  0  0  0  0  0  0  0  0
    4.5510  -11.0860  -39.1760 C   0  0  0  0  0  0  0  0  0  0  0  0
    4.1220  -10.9390  -37.8860 C   0  0  0  0  0  3  0  0  0  0  0  0
    5.8780  -10.2160  -39.9720 Cl  0  0  0  0  0  0  0  0  0  0  0  0
    3.0970  -11.6980  -37.4860 C   0  0  0  0  0  3  0  0  0  0  0  0
  1  6  1  0  0  0  0
  2  3  1  0  0  0  0
  2  1  1  0  0  0  0
  3  4  1  0  0  0  0
  4  7  1  0  0  0  0
  4  5  1  0  0  0  0
  6  5  2  0  0  0  0
  7  8  2  0  0  0  0
  9  7  1  0  0  0  0
 10  9  2  0  0  0  0
 11 10  1  0  0  0  0
 12 13  1  0  0  0  0
 12 11  2  0  0  0  0
 13 16  1  0  0  0  0
 14 12  1  0  0  0  0
 15 13  1  0  0  0  0
 16 19  2  0  0  0  0
 16  9  1  0  0  0  0
 17 15  2  0  0  0  0
 18 17  1  0  0  0  0
 18 14  2  0  0  0  0
 20  1  1  0  0  0  0
 20 22  2  0  0  0  0
 21 20  2  0  0  0  0
 23 20  1  0  0  0  0
 23 28  2  0  0  0  0
 24 25  1  0  0  0  0
 24 23  1  0  0  0  0
 25 26  2  0  0  0  0
 26 28  1  0  0  0  0
 27 25  1  0  0  0  0
M  END
>  <Pose>
1

>  <Score>
-6.598

$$$$
