/Users/jonathanwahrer/Desktop/Msc/3_Semester/Drug_Design_Praktikum/waehrer_HTS_screening/HTS_experiment/out/docking_results/vina_output/6y4q/2004_docked.pdbqt
 OpenBabel03232218523D

 29 32  0  0  1  0  0  0  0  0999 V2000
    0.4040  -15.8510  -38.8160 S   0  0  0  0  0  0  0  0  0  0  0  0
    0.1360  -15.8720  -40.3140 O   0  0  0  0  0  0  0  0  0  0  0  0
   -0.9020  -16.3520  -38.2020 O   0  0  0  0  0  0  0  0  0  0  0  0
    0.7070  -14.2990  -38.2680 N   0  0  0  0  0  0  0  0  0  0  0  0
   -0.0490  -13.2500  -38.7960 C   0  0  0  0  0  2  0  0  0  0  0  0
    0.1340  -11.9350  -38.0250 C   0  0  0  0  0  2  0  0  0  0  0  0
    1.4920  -11.7540  -37.6060 N   0  0  0  0  0  0  0  0  0  0  0  0
    2.1820  -12.8870  -37.0280 C   0  0  0  0  0  2  0  0  0  0  0  0
    2.1230  -10.5140  -37.7560 C   0  0  0  0  0  0  0  0  0  0  0  0
    2.1040  -14.0060  -38.0480 C   0  0  0  0  0  2  0  0  0  0  0  0
    1.5030   -9.5440  -38.2620 O   0  0  0  0  0  0  0  0  0  0  0  0
    3.5390  -10.2780  -37.3330 C   0  0  0  0  0  3  0  0  0  0  0  0
    4.0560   -8.9030  -37.6870 C   0  0  0  0  0  2  0  0  0  0  0  0
    4.5500   -9.5010  -39.0020 C   0  0  0  0  0  2  0  0  0  0  0  0
    4.5210  -10.8680  -38.3130 C   0  0  0  0  0  2  0  0  0  0  0  0
    1.6180  -17.0600  -38.4630 C   0  0  0  0  0  0  0  0  0  0  0  0
    2.2620  -17.7060  -39.5370 C   0  0  0  0  0  3  0  0  0  0  0  0
    3.1820  -18.7070  -39.3240 C   0  0  0  0  0  0  0  0  0  0  0  0
    3.5280  -19.1380  -38.0630 C   0  0  0  0  0  0  0  0  0  0  0  0
    3.8060  -19.3300  -40.4050 O   0  0  0  0  0  0  0  0  0  0  0  0
    2.9050  -18.5100  -37.0130 C   0  0  0  0  0  3  0  0  0  0  0  0
    4.4810  -20.1750  -37.9120 N   0  0  0  0  0  0  0  0  0  0  0  0
    1.9660  -17.4880  -37.2090 C   0  0  0  0  0  0  0  0  0  0  0  0
    1.2740  -16.6870  -35.8180 Cl  0  0  0  0  0  0  0  0  0  0  0  0
    5.1050  -20.8020  -39.0250 C   0  0  0  0  0  0  0  0  0  0  0  0
    4.7400  -20.4980  -36.9510 H   0  0  0  0  0  0  0  0  0  0  0  0
    6.1190  -21.5240  -38.9620 O   0  0  0  0  0  0  0  0  0  0  0  0
    4.4760  -20.5600  -40.3500 C   0  0  1  0  0  3  0  0  0  0  0  0
    3.4860  -21.6540  -40.6820 C   0  0  0  0  0  1  0  0  0  0  0  0
  1 16  1  0  0  0  0
  1  4  1  0  0  0  0
  1  3  2  0  0  0  0
  2  1  2  0  0  0  0
  4 10  1  0  0  0  0
  5  4  1  0  0  0  0
  5  6  1  0  0  0  0
  6  7  1  0  0  0  0
  7  8  1  0  0  0  0
  9  7  1  0  0  0  0
  9 12  1  0  0  0  0
 10  8  1  0  0  0  0
 11  9  2  0  0  0  0
 13 12  1  0  0  0  0
 14 15  1  0  0  0  0
 14 13  1  0  0  0  0
 15 12  1  0  0  0  0
 16 23  1  0  0  0  0
 17 18  1  0  0  0  0
 17 16  2  0  0  0  0
 18 19  2  0  0  0  0
 19 22  1  0  0  0  0
 19 21  1  0  0  0  0
 20 28  1  0  0  0  0
 20 18  1  0  0  0  0
 22 26  1  0  0  0  0
 23 21  2  0  0  0  0
 23 24  1  0  0  0  0
 25 27  2  0  0  0  0
 25 22  1  0  0  0  0
 28 29  1  1  0  0  0
 28 25  1  0  0  0  0
M  END
>  <Pose>
1

>  <Score>
-6.427

$$$$
