/Users/jonathanwahrer/Desktop/Msc/3_Semester/Drug_Design_Praktikum/waehrer_HTS_screening/HTS_experiment/out/docking_results/vina_output/6y4q/2014_docked.pdbqt
 OpenBabel03232218523D

 26 29  0  0  0  0  0  0  0  0999 V2000
    2.0880  -17.3260  -36.7680 C   0  0  0  0  0  0  0  0  0  0  0  0
    2.3210  -18.2080  -37.7350 N   0  0  0  0  0  0  0  0  0  0  0  0
    3.2510  -19.1180  -37.3210 C   0  0  0  0  0  0  0  0  0  0  0  0
    3.5670  -18.7500  -36.0580 N   0  0  0  0  0  0  0  0  0  0  0  0
    2.8860  -17.6900  -35.7160 N   0  0  0  0  0  0  0  0  0  0  0  0
    3.4950  -20.0180  -38.2860 N   0  0  0  0  0  0  0  0  0  0  0  0
    2.7440  -19.7300  -39.3430 C   0  0  0  0  0  0  0  0  0  0  0  0
    2.0010  -18.5880  -38.9980 C   0  0  0  0  0  0  0  0  0  0  0  0
    1.1360  -18.0720  -39.8800 N   0  0  0  0  0  0  0  0  0  0  0  0
    1.0180  -18.6830  -41.0900 C   0  0  0  0  0  0  0  0  0  0  0  0
    0.1910  -18.1710  -41.9080 O   0  0  0  0  0  0  0  0  0  0  0  0
    1.6980  -19.7620  -41.4660 N   0  0  0  0  0  0  0  0  0  0  0  0
    2.5590  -20.2810  -40.5890 C   0  0  0  0  0  0  0  0  0  0  0  0
    3.2290  -21.3020  -40.8930 O   0  0  0  0  0  0  0  0  0  0  0  0
    1.5110  -20.3630  -42.7990 C   0  0  0  0  0  1  0  0  0  0  0  0
    0.3190  -16.9330  -39.5810 C   0  0  0  0  0  1  0  0  0  0  0  0
    4.4210  -21.1300  -38.2140 C   0  0  0  0  0  1  0  0  0  0  0  0
    1.2050  -16.1690  -36.6640 C   0  0  0  0  0  0  0  0  0  0  0  0
    1.6690  -14.8920  -36.9670 C   0  0  0  0  0  3  0  0  0  0  0  0
    0.8110  -13.8270  -36.9400 C   0  0  0  0  0  0  0  0  0  0  0  0
    1.4330  -12.0600  -37.3540 Br  0  0  0  0  0  0  0  0  0  0  0  0
   -0.5300  -13.9430  -36.6200 C   0  0  0  0  0  3  0  0  0  0  0  0
   -0.9790  -15.2190  -36.3210 C   0  0  0  0  0  3  0  0  0  0  0  0
   -0.1320  -16.2870  -36.3450 C   0  0  0  0  0  0  0  0  0  0  0  0
   -0.5760  -17.5940  -36.0430 O   0  0  0  0  0  0  0  0  0  0  0  0
   -1.9290  -17.9630  -36.2360 C   0  0  0  0  0  1  0  0  0  0  0  0
  1 18  1  0  0  0  0
  1  5  2  0  0  0  0
  2  3  1  0  0  0  0
  2  1  1  0  0  0  0
  3  4  2  0  0  0  0
  4  5  1  0  0  0  0
  6 17  1  0  0  0  0
  6  3  1  0  0  0  0
  7  8  2  0  0  0  0
  7  6  1  0  0  0  0
  8  2  1  0  0  0  0
  9 16  1  0  0  0  0
  9  8  1  0  0  0  0
 10  9  1  0  0  0  0
 11 10  2  0  0  0  0
 12 10  1  0  0  0  0
 12 13  1  0  0  0  0
 13  7  1  0  0  0  0
 14 13  2  0  0  0  0
 15 12  1  0  0  0  0
 18 24  1  0  0  0  0
 19 20  1  0  0  0  0
 19 18  2  0  0  0  0
 20 22  2  0  0  0  0
 21 20  1  0  0  0  0
 22 23  1  0  0  0  0
 24 23  2  0  0  0  0
 24 25  1  0  0  0  0
 26 25  1  0  0  0  0
M  END
>  <Pose>
1

>  <Score>
-5.837

$$$$
