/Users/jonathanwahrer/Desktop/Msc/3_Semester/Drug_Design_Praktikum/waehrer_HTS_screening/HTS_experiment/out/docking_results/vina_output/6y4q/2020_docked.pdbqt
 OpenBabel03232218533D

 22 24  0  0  1  0  0  0  0  0999 V2000
    0.9870  -15.6610  -36.0370 C   0  0  2  0  0  3  0  0  0  0  0  0
    2.0260  -16.2440  -37.0350 C   0  0  2  0  0  3  0  0  0  0  0  0
    1.3580  -15.7520  -38.3340 C   0  0  0  0  0  0  0  0  0  0  0  0
    1.9540  -15.1770  -39.2270 O   0  0  0  0  0  0  0  0  0  0  0  0
   -0.0520  -16.0700  -38.3320 N   0  0  0  0  0  0  0  0  0  0  0  0
   -0.4250  -17.1350  -37.3830 C   0  0  1  0  0  0  0  0  0  0  0  0
    0.5960  -18.1660  -37.6210 N   0  0  0  0  0  0  0  0  0  0  0  0
    1.8990  -17.7250  -37.1900 C   0  0  0  0  0  0  0  0  0  0  0  0
    2.8480  -18.4980  -36.9650 O   0  0  0  0  0  0  0  0  0  0  0  0
   -0.1100  -16.5830  -35.9670 C   0  0  0  0  0  2  0  0  0  0  0  0
   -1.8010  -17.6270  -37.4870 C   0  0  0  0  0  1  0  0  0  0  0  0
   -0.7460  -15.5950  -38.9160 H   0  0  0  0  0  0  0  0  0  0  0  0
    0.3890  -19.0780  -38.0450 H   0  0  0  0  0  0  0  0  0  0  0  0
    0.8440  -14.2820  -36.4900 C   0  0  0  0  0  0  0  0  0  0  0  0
    2.0260  -13.5790  -36.7550 C   0  0  0  0  0  3  0  0  0  0  0  0
    2.0000  -12.2280  -37.1080 C   0  0  0  0  0  0  0  0  0  0  0  0
    3.6260  -11.3020  -37.4500 Br  0  0  0  0  0  0  0  0  0  0  0  0
    0.8290  -11.5470  -37.2090 C   0  0  0  0  0  3  0  0  0  0  0  0
   -0.3330  -12.2180  -36.9520 C   0  0  0  0  0  3  0  0  0  0  0  0
   -0.3290  -13.5570  -36.6020 C   0  0  0  0  0  0  0  0  0  0  0  0
   -1.4730  -14.2600  -36.3510 O   0  0  0  0  0  0  0  0  0  0  0  0
   -2.6550  -13.9430  -37.0360 C   0  0  0  0  0  1  0  0  0  0  0  0
  1 14  1  6  0  0  0
  1 10  1  0  0  0  0
  2  3  1  6  0  0  0
  2  1  1  0  0  0  0
  3  5  1  0  0  0  0
  4  3  2  0  0  0  0
  5  6  1  0  0  0  0
  6 11  1  6  0  0  0
  6 10  1  0  0  0  0
  7  6  1  0  0  0  0
  7  8  1  0  0  0  0
  8  2  1  0  0  0  0
  8  9  2  0  0  0  0
 12  5  1  0  0  0  0
 13  7  1  0  0  0  0
 15 14  2  0  0  0  0
 16 15  1  0  0  0  0
 17 16  1  0  0  0  0
 18 16  2  0  0  0  0
 18 19  1  0  0  0  0
 19 20  2  0  0  0  0
 20 14  1  0  0  0  0
 20 21  1  0  0  0  0
 22 21  1  0  0  0  0
M  END
>  <Pose>
1

>  <Score>
-5.134

$$$$
