/Users/jonathanwahrer/Desktop/Msc/3_Semester/Drug_Design_Praktikum/waehrer_HTS_screening/HTS_experiment/out/docking_results/vina_output/6y4q/2028_docked.pdbqt
 OpenBabel03232218533D

 31 34  0  0  1  0  0  0  0  0999 V2000
    3.1790  -12.5520  -40.5390 Cl  0  0  0  0  0  0  0  0  0  0  0  0
    2.4050  -13.7030  -39.4520 C   0  0  0  0  0  0  0  0  0  0  0  0
    2.1960  -15.0140  -39.9170 C   0  0  0  0  0  0  0  0  0  0  0  0
    1.6010  -15.9030  -39.0720 C   0  0  0  0  0  0  0  0  0  0  0  0
    1.2020  -15.5430  -37.7920 C   0  0  0  0  0  3  0  0  0  0  0  0
    1.4180  -14.2530  -37.3660 C   0  0  0  0  0  0  0  0  0  0  0  0
    2.0200  -13.3240  -38.1850 C   0  0  0  0  0  3  0  0  0  0  0  0
    0.9750  -13.8900  -35.9740 C   0  0  0  0  0  1  0  0  0  0  0  0
    1.6150  -17.2340  -39.7530 C   0  0  2  0  0  0  0  0  0  0  0  0
    0.4730  -18.0290  -39.5370 N   0  0  0  0  0  0  0  0  0  0  0  0
    0.7250  -18.8030  -38.3540 C   0  0  2  0  0  3  0  0  0  0  0  0
    2.1420  -18.6620  -37.9740 C   0  0  2  0  0  3  0  0  0  0  0  0
    2.7460  -18.0770  -39.2530 C   0  0  1  0  0  3  0  0  0  0  0  0
    2.9660  -19.2830  -40.0300 C   0  0  0  0  0  0  0  0  0  0  0  0
    2.8530  -19.5580  -41.2450 O   0  0  0  0  0  0  0  0  0  0  0  0
    3.3990  -20.2730  -39.0590 N   0  0  0  0  0  0  0  0  0  0  0  0
    2.9180  -19.8810  -37.7820 C   0  0  0  0  0  0  0  0  0  0  0  0
    3.1350  -20.4830  -36.7210 O   0  0  0  0  0  0  0  0  0  0  0  0
    1.8800  -16.8950  -41.1500 C   0  0  0  0  0  0  0  0  0  0  0  0
    1.7190  -17.5630  -42.2190 O   0  0  0  0  0  0  0  0  0  0  0  0
    2.3940  -15.5850  -41.2050 N   0  0  0  0  0  0  0  0  0  0  0  0
   -0.4090  -17.4690  -39.4520 H   0  0  0  0  0  0  0  0  0  0  0  0
    2.8460  -15.0730  -42.0050 H   0  0  0  0  0  0  0  0  0  0  0  0
    0.2170  -20.2270  -38.4820 C   0  0  2  0  0  3  0  0  0  0  0  0
   -0.3740  -20.4200  -39.8390 C   0  0  0  0  0  1  0  0  0  0  0  0
   -0.5240  -20.6750  -37.4290 O   0  0  0  0  0  0  0  0  0  0  0  0
   -1.4500  -20.3240  -37.3950 H   0  0  0  0  0  0  0  0  0  0  0  0
    4.1880  -21.4540  -39.2900 C   0  0  0  0  0  2  0  0  0  0  0  0
    5.6370  -21.3280  -38.9990 C   0  0  0  0  0  2  0  0  0  0  0  0
    6.1910  -20.0850  -39.0510 O   0  0  0  0  0  0  0  0  0  0  0  0
    6.6080  -19.5740  -37.8400 C   0  0  0  0  0  1  0  0  0  0  0  0
  1  2  1  0  0  0  0
  2  7  1  0  0  0  0
  3  2  2  0  0  0  0
  3  4  1  0  0  0  0
  4  5  2  0  0  0  0
  5  6  1  0  0  0  0
  6  8  1  0  0  0  0
  7  6  2  0  0  0  0
  9 19  1  6  0  0  0
  9 10  1  0  0  0  0
  9 13  1  0  0  0  0
  9  4  1  0  0  0  0
 10 22  1  0  0  0  0
 10 11  1  0  0  0  0
 11 24  1  6  0  0  0
 11 12  1  0  0  0  0
 12 17  1  6  0  0  0
 13 14  1  6  0  0  0
 13 12  1  0  0  0  0
 14 16  1  0  0  0  0
 15 14  2  0  0  0  0
 16 17  1  0  0  0  0
 17 18  2  0  0  0  0
 20 19  2  0  0  0  0
 21 19  1  0  0  0  0
 21  3  1  0  0  0  0
 23 21  1  0  0  0  0
 24 25  1  6  0  0  0
 24 26  1  0  0  0  0
 26 27  1  0  0  0  0
 28 16  1  0  0  0  0
 28 29  1  0  0  0  0
 30 29  1  0  0  0  0
 30 31  1  0  0  0  0
M  END
>  <Pose>
1

>  <Score>
-6.179

$$$$
