/Users/jonathanwahrer/Desktop/Msc/3_Semester/Drug_Design_Praktikum/waehrer_HTS_screening/HTS_experiment/out/docking_results/vina_output/6y4q/2032_docked.pdbqt
 OpenBabel03232218533D

 31 34  0  0  0  0  0  0  0  0999 V2000
    2.5940  -12.2770  -37.7380 C   0  0  0  0  0  3  0  0  0  0  0  0
    2.0120  -13.4100  -37.5130 C   0  0  0  0  0  0  0  0  0  0  0  0
    2.1310  -14.5520  -38.2550 O   0  0  0  0  0  0  0  0  0  0  0  0
    1.3520  -15.5530  -37.6780 C   0  0  0  0  0  0  0  0  0  0  0  0
    0.7030  -15.1210  -36.5670 C   0  0  0  0  0  0  0  0  0  0  0  0
   -0.1190  -15.9800  -35.8280 C   0  0  0  0  0  3  0  0  0  0  0  0
   -0.3130  -17.2890  -36.1840 C   0  0  0  0  0  3  0  0  0  0  0  0
    0.3760  -17.6870  -37.3430 C   0  0  0  0  0  0  0  0  0  0  0  0
    1.1810  -16.8840  -38.0760 C   0  0  0  0  0  0  0  0  0  0  0  0
    0.1290  -19.0360  -37.6770 O   0  0  0  0  0  1  0  0  0  0  0  0
    1.0980  -13.7170  -36.4110 C   0  0  0  0  0  0  0  0  0  0  0  0
    0.7210  -12.9290  -35.4950 O   0  0  0  0  0  0  0  0  0  0  0  0
    3.5050  -11.9600  -38.8280 C   0  0  0  0  0  0  0  0  0  0  0  0
    3.4560  -12.6700  -39.9990 C   0  0  0  0  0  3  0  0  0  0  0  0
    4.3580  -12.3960  -41.0420 C   0  0  0  0  0  0  0  0  0  0  0  0
    4.3190  -13.3520  -42.6810 Br  0  0  0  0  0  0  0  0  0  0  0  0
    5.2990  -11.4040  -40.8760 C   0  0  0  0  0  3  0  0  0  0  0  0
    5.3500  -10.7010  -39.7160 C   0  0  0  0  0  3  0  0  0  0  0  0
    4.4500  -10.9720  -38.6740 C   0  0  0  0  0  0  0  0  0  0  0  0
    4.4520  -10.3080  -37.4970 O   0  0  0  0  0  0  0  0  0  0  0  0
    4.1390   -8.9760  -37.2760 C   0  0  0  0  0  1  0  0  0  0  0  0
    1.8640  -17.2850  -39.3210 C   0  0  0  0  0  2  0  0  0  0  0  0
    2.4030  -18.6210  -39.2230 N   0  0  0  0  0  4  0  0  0  0  0  0
    3.5370  -18.6140  -38.3170 C   0  0  0  0  0  2  0  0  0  0  0  0
    4.6640  -19.4650  -38.7250 C   0  0  0  0  0  2  0  0  0  0  0  0
    4.3330  -20.6370  -39.4710 N   0  0  0  0  0  0  0  0  0  0  0  0
    3.0240  -20.7830  -39.9210 C   0  0  0  0  0  2  0  0  0  0  0  0
    2.4650  -19.4040  -40.3600 C   0  0  0  0  0  2  0  0  0  0  0  0
    1.6110  -19.1110  -38.5990 H   0  0  0  0  0  0  0  0  0  0  0  0
    5.3710  -21.2220  -40.2320 C   0  0  0  0  0  2  0  0  0  0  0  0
    4.9330  -22.1270  -41.3290 C   0  0  0  0  0  1  0  0  0  0  0  0
  1  2  2  0  0  0  0
  2 11  1  0  0  0  0
  3  4  1  0  0  0  0
  3  2  1  0  0  0  0
  4  5  1  0  0  0  0
  5 11  1  0  0  0  0
  5  6  2  0  0  0  0
  7  6  1  0  0  0  0
  8  7  2  0  0  0  0
  9  4  2  0  0  0  0
  9  8  1  0  0  0  0
 10  8  1  0  0  0  0
 11 12  2  0  0  0  0
 13 19  1  0  0  0  0
 13  1  1  0  0  0  0
 14 13  2  0  0  0  0
 15 17  2  0  0  0  0
 15 14  1  0  0  0  0
 16 15  1  0  0  0  0
 17 18  1  0  0  0  0
 18 19  2  0  0  0  0
 19 20  1  0  0  0  0
 20 21  1  0  0  0  0
 22 23  1  0  0  0  0
 22  9  1  0  0  0  0
 23 29  1  0  0  0  0
 23 24  1  0  0  0  0
 25 24  1  0  0  0  0
 26 25  1  0  0  0  0
 27 26  1  0  0  0  0
 28 27  1  0  0  0  0
 28 23  1  0  0  0  0
 30 26  1  0  0  0  0
 31 30  1  0  0  0  0
M  END
>  <Pose>
1

>  <Score>
-7.148

$$$$
