/Users/jonathanwahrer/Desktop/Msc/3_Semester/Drug_Design_Praktikum/waehrer_HTS_screening/HTS_experiment/out/docking_results/vina_output/6y4q/2033_docked.pdbqt
 OpenBabel03232218533D

 29 32  0  0  0  0  0  0  0  0999 V2000
    1.9710  -16.7590  -35.9650 C   0  0  0  0  0  3  0  0  0  0  0  0
    2.4140  -17.7190  -36.7280 C   0  0  0  0  0  0  0  0  0  0  0  0
    1.9970  -17.9440  -38.0300 O   0  0  0  0  0  0  0  0  0  0  0  0
    2.6360  -19.0320  -38.5950 C   0  0  0  0  0  0  0  0  0  0  0  0
    3.5150  -19.5950  -37.6990 C   0  0  0  0  0  0  0  0  0  0  0  0
    4.2600  -20.6990  -38.0590 C   0  0  0  0  0  3  0  0  0  0  0  0
    4.1140  -21.2310  -39.3230 C   0  0  0  0  0  3  0  0  0  0  0  0
    3.2070  -20.6360  -40.2210 C   0  0  0  0  0  0  0  0  0  0  0  0
    2.4630  -19.5460  -39.8880 C   0  0  0  0  0  0  0  0  0  0  0  0
    3.1640  -21.2840  -41.4660 O   0  0  0  0  0  1  0  0  0  0  0  0
    3.4000  -18.7770  -36.4870 C   0  0  0  0  0  0  0  0  0  0  0  0
    4.0300  -18.9420  -35.4190 O   0  0  0  0  0  0  0  0  0  0  0  0
    0.9750  -15.7630  -36.3240 C   0  0  0  0  0  0  0  0  0  0  0  0
    1.2970  -14.4620  -36.6410 C   0  0  0  0  0  3  0  0  0  0  0  0
    0.3770  -13.5080  -36.9670 C   0  0  0  0  0  0  0  0  0  0  0  0
    0.7880  -11.7020  -37.4100 Br  0  0  0  0  0  0  0  0  0  0  0  0
   -0.9620  -13.8880  -36.9730 C   0  0  0  0  0  3  0  0  0  0  0  0
   -1.3480  -15.1860  -36.6610 C   0  0  0  0  0  3  0  0  0  0  0  0
   -0.3820  -16.1010  -36.3420 C   0  0  0  0  0  0  0  0  0  0  0  0
   -0.7330  -17.3980  -36.0220 O   0  0  0  0  0  0  0  0  0  0  0  0
   -2.0820  -17.7870  -36.0150 C   0  0  0  0  0  1  0  0  0  0  0  0
    1.5380  -18.8860  -40.7690 C   0  0  0  0  0  2  0  0  0  0  0  0
    0.3370  -19.4770  -41.1960 N   0  0  0  0  0  4  0  0  0  0  0  0
   -0.3550  -20.2690  -40.2150 C   0  0  0  0  0  2  0  0  0  0  0  0
   -1.2050  -19.4650  -39.2620 C   0  0  0  0  0  2  0  0  0  0  0  0
   -1.0730  -18.0930  -39.4230 O   0  0  0  0  0  0  0  0  0  0  0  0
   -1.4420  -17.8150  -40.7340 C   0  0  0  0  0  2  0  0  0  0  0  0
   -0.6020  -18.4940  -41.7660 C   0  0  0  0  0  2  0  0  0  0  0  0
    0.5310  -20.0940  -42.0110 H   0  0  0  0  0  0  0  0  0  0  0  0
  2 11  1  0  0  0  0
  2  1  2  0  0  0  0
  3  2  1  0  0  0  0
  4  3  1  0  0  0  0
  4  5  1  0  0  0  0
  5 11  1  0  0  0  0
  6  5  2  0  0  0  0
  7  6  1  0  0  0  0
  8  9  1  0  0  0  0
  8  7  2  0  0  0  0
  9  4  2  0  0  0  0
 10  8  1  0  0  0  0
 11 12  2  0  0  0  0
 13  1  1  0  0  0  0
 14 13  2  0  0  0  0
 15 14  1  0  0  0  0
 16 15  1  0  0  0  0
 17 15  2  0  0  0  0
 17 18  1  0  0  0  0
 18 19  2  0  0  0  0
 19 13  1  0  0  0  0
 19 20  1  0  0  0  0
 20 21  1  0  0  0  0
 22  9  1  0  0  0  0
 23 22  1  0  0  0  0
 23 24  1  0  0  0  0
 24 25  1  0  0  0  0
 26 25  1  0  0  0  0
 27 26  1  0  0  0  0
 28 23  1  0  0  0  0
 28 27  1  0  0  0  0
 29 23  1  0  0  0  0
M  END
>  <Pose>
1

>  <Score>
-6.298

$$$$
