/Users/jonathanwahrer/Desktop/Msc/3_Semester/Drug_Design_Praktikum/waehrer_HTS_screening/HTS_experiment/out/docking_results/vina_output/6y4q/2041_docked.pdbqt
 OpenBabel03232218543D

 30 33  0  0  0  0  0  0  0  0999 V2000
    4.6920  -20.8270  -40.6210 N   0  0  0  0  0  0  0  0  0  0  0  0
    3.9500  -22.0590  -40.8000 C   0  0  0  0  0  2  0  0  0  0  0  0
    3.9750  -22.4850  -42.2630 C   0  0  0  0  0  2  0  0  0  0  0  0
    5.3720  -22.7000  -42.6390 N   0  0  0  0  0  0  0  0  0  0  0  0
    6.3350  -22.2320  -41.6850 C   0  0  0  0  0  2  0  0  0  0  0  0
    5.9540  -20.8280  -41.2970 C   0  0  0  0  0  2  0  0  0  0  0  0
    5.6650  -23.3360  -43.8490 C   0  0  0  0  0  0  0  0  0  0  0  0
    4.6820  -23.7230  -44.6030 O   0  0  0  0  0  0  0  0  0  0  0  0
    6.9780  -23.6490  -44.4230 C   0  0  0  0  0  2  0  0  0  0  0  0
    7.4790  -25.3550  -44.2410 S   0  0  0  0  0  0  0  0  0  0  0  0
    9.0700  -25.5720  -43.4640 C   0  0  0  0  0  0  0  0  0  0  0  0
    9.2010  -26.2700  -42.3440 N   0  0  0  0  0  0  0  0  0  0  0  0
   10.3710  -26.4770  -41.7330 C   0  0  0  0  0  3  0  0  0  0  0  0
   11.4960  -25.9360  -42.2940 N   0  0  0  0  0  0  0  0  0  0  0  0
   11.3990  -25.2260  -43.4230 C   0  0  0  0  0  0  0  0  0  0  0  0
   12.3480  -24.6000  -44.1770 N   0  0  0  0  0  0  0  0  0  0  0  0
   10.1850  -25.0150  -44.0520 C   0  0  0  0  0  0  0  0  0  0  0  0
   11.7530  -24.0370  -45.2090 N   0  0  0  0  0  0  0  0  0  0  0  0
   13.7530  -24.5730  -43.8940 C   0  0  0  0  0  1  0  0  0  0  0  0
   10.4390  -24.2660  -45.1700 C   0  0  0  0  0  3  0  0  0  0  0  0
    4.8900  -20.4980  -38.9450 S   0  0  0  0  0  0  0  0  0  0  0  0
    4.6040  -21.7860  -38.2090 O   0  0  0  0  0  0  0  0  0  0  0  0
    6.2880  -20.1030  -38.6090 O   0  0  0  0  0  0  0  0  0  0  0  0
    3.7540  -19.2610  -38.4530 C   0  0  0  0  0  0  0  0  0  0  0  0
    2.9220  -18.5860  -39.3160 C   0  0  0  0  0  3  0  0  0  0  0  0
    2.0570  -17.6170  -38.8690 C   0  0  0  0  0  3  0  0  0  0  0  0
    2.0050  -17.2980  -37.5120 C   0  0  0  0  0  0  0  0  0  0  0  0
    2.8460  -17.9760  -36.6230 C   0  0  0  0  0  3  0  0  0  0  0  0
    0.9020  -16.0660  -36.9590 Cl  0  0  0  0  0  0  0  0  0  0  0  0
    3.7050  -18.9440  -37.0960 C   0  0  0  0  0  3  0  0  0  0  0  0
  1 21  1  0  0  0  0
  2  1  1  0  0  0  0
  3  2  1  0  0  0  0
  4  3  1  0  0  0  0
  4  5  1  0  0  0  0
  5  6  1  0  0  0  0
  6  1  1  0  0  0  0
  7  4  1  0  0  0  0
  8  7  2  0  0  0  0
  9 10  1  0  0  0  0
  9  7  1  0  0  0  0
 10 11  1  0  0  0  0
 11 12  1  0  0  0  0
 12 13  2  0  0  0  0
 14 13  1  0  0  0  0
 15 14  2  0  0  0  0
 16 19  1  0  0  0  0
 16 15  1  0  0  0  0
 17 11  2  0  0  0  0
 17 15  1  0  0  0  0
 18 20  2  0  0  0  0
 18 16  1  0  0  0  0
 20 17  1  0  0  0  0
 21 23  2  0  0  0  0
 21 24  1  0  0  0  0
 21 22  2  0  0  0  0
 24 30  1  0  0  0  0
 25 26  1  0  0  0  0
 25 24  2  0  0  0  0
 26 27  2  0  0  0  0
 27 29  1  0  0  0  0
 27 28  1  0  0  0  0
 30 28  2  0  0  0  0
M  END
>  <Pose>
1

>  <Score>
-6.965

$$$$
