/Users/jonathanwahrer/Desktop/Msc/3_Semester/Drug_Design_Praktikum/waehrer_HTS_screening/HTS_experiment/out/docking_results/vina_output/6y4q/2043_docked.pdbqt
 OpenBabel03232218543D

 32 35  0  0  0  0  0  0  0  0999 V2000
    4.4340  -20.6020  -42.8240 N   0  0  0  0  0  0  0  0  0  0  0  0
    4.3490  -19.1730  -42.6500 C   0  0  0  0  0  2  0  0  0  0  0  0
    2.9120  -18.7510  -42.9490 C   0  0  0  0  0  2  0  0  0  0  0  0
    2.0160  -19.6860  -42.3830 N   0  0  0  0  0  0  0  0  0  0  0  0
    2.0060  -20.9730  -43.2110 C   0  0  0  0  0  2  0  0  0  0  0  0
    3.4190  -21.1880  -43.6190 C   0  0  0  0  0  2  0  0  0  0  0  0
    1.2430  -19.6580  -41.2580 C   0  0  0  0  0  0  0  0  0  0  0  0
    0.4110  -20.7560  -41.2430 O   0  0  0  0  0  0  0  0  0  0  0  0
    1.0070  -18.8830  -40.1050 C   0  0  0  0  0  3  0  0  0  0  0  0
    0.1560  -18.7380  -39.1440 C   0  0  0  0  0  0  0  0  0  0  0  0
   -1.0120  -19.5040  -39.0110 N   0  0  0  0  0  0  0  0  0  0  0  0
    0.4300  -17.7500  -38.0580 C   0  0  0  0  0  0  0  0  0  0  0  0
   -1.9240  -19.4030  -37.9370 N   0  0  0  0  0  0  0  0  0  0  0  0
   -1.2870  -20.1700  -39.7360 H   0  0  0  0  0  0  0  0  0  0  0  0
   -1.6700  -18.4790  -36.9180 C   0  0  0  0  0  0  0  0  0  0  0  0
   -2.7760  -20.0390  -37.9460 H   0  0  0  0  0  0  0  0  0  0  0  0
   -2.4740  -18.3780  -35.9550 O   0  0  0  0  0  0  0  0  0  0  0  0
   -0.4590  -17.6450  -37.0040 C   0  0  0  0  0  0  0  0  0  0  0  0
   -0.2630  -16.7500  -35.9660 C   0  0  0  0  0  3  0  0  0  0  0  0
    0.8440  -15.9290  -35.9620 C   0  0  0  0  0  3  0  0  0  0  0  0
    1.7230  -16.0380  -37.0100 C   0  0  0  0  0  3  0  0  0  0  0  0
    1.5220  -16.9430  -38.0580 C   0  0  0  0  0  3  0  0  0  0  0  0
    4.9620  -21.4650  -41.4830 S   0  0  0  0  0  0  0  0  0  0  0  0
    4.3670  -22.8640  -41.5660 O   0  0  0  0  0  0  0  0  0  0  0  0
    6.4650  -21.6790  -41.6170 O   0  0  0  0  0  0  0  0  0  0  0  0
    4.6670  -20.7310  -39.9560 C   0  0  0  0  0  0  0  0  0  0  0  0
    3.5980  -21.1000  -39.1790 C   0  0  0  0  0  3  0  0  0  0  0  0
    3.3810  -20.4950  -37.9540 C   0  0  0  0  0  3  0  0  0  0  0  0
    4.2140  -19.5120  -37.4690 C   0  0  0  0  0  0  0  0  0  0  0  0
    5.2950  -19.1340  -38.2490 C   0  0  0  0  0  3  0  0  0  0  0  0
    3.8940  -18.7760  -35.9110 Cl  0  0  0  0  0  0  0  0  0  0  0  0
    5.5020  -19.7520  -39.4810 C   0  0  0  0  0  3  0  0  0  0  0  0
  1  2  1  0  0  0  0
  1 23  1  0  0  0  0
  3  2  1  0  0  0  0
  3  4  1  0  0  0  0
  4  7  1  0  0  0  0
  5  4  1  0  0  0  0
  6  5  1  0  0  0  0
  6  1  1  0  0  0  0
  7  8  2  0  0  0  0
  7  9  1  0  0  0  0
  9 10  2  0  0  0  0
 10 11  1  0  0  0  0
 10 12  1  0  0  0  0
 11 13  1  0  0  0  0
 12 22  2  0  0  0  0
 12 18  1  0  0  0  0
 13 15  1  0  0  0  0
 14 11  1  0  0  0  0
 15 17  2  0  0  0  0
 16 13  1  0  0  0  0
 18 15  1  0  0  0  0
 18 19  2  0  0  0  0
 19 20  1  0  0  0  0
 21 20  2  0  0  0  0
 22 21  1  0  0  0  0
 23 26  1  0  0  0  0
 24 23  2  0  0  0  0
 25 23  2  0  0  0  0
 26 32  2  0  0  0  0
 26 27  1  0  0  0  0
 27 28  2  0  0  0  0
 28 29  1  0  0  0  0
 29 31  1  0  0  0  0
 30 29  2  0  0  0  0
 32 30  1  0  0  0  0
M  END
>  <Pose>
1

>  <Score>
-6.439

$$$$
