/Users/jonathanwahrer/Desktop/Msc/3_Semester/Drug_Design_Praktikum/waehrer_HTS_screening/HTS_experiment/out/docking_results/vina_output/6y4q/2046_docked.pdbqt
 OpenBabel03232218543D

 26 29  0  0  0  0  0  0  0  0999 V2000
    0.5490   -9.9770  -37.6570 Cl  0  0  0  0  0  0  0  0  0  0  0  0
    0.7360  -11.6270  -37.1480 C   0  0  0  0  0  0  0  0  0  0  0  0
    1.9400  -12.2740  -37.2620 C   0  0  0  0  0  0  0  0  0  0  0  0
    2.0230  -13.5820  -36.8420 C   0  0  0  0  0  3  0  0  0  0  0  0
    0.9580  -14.2770  -36.3110 C   0  0  0  0  0  0  0  0  0  0  0  0
   -0.2420  -13.6130  -36.2040 C   0  0  0  0  0  3  0  0  0  0  0  0
   -0.3360  -12.3030  -36.6230 C   0  0  0  0  0  3  0  0  0  0  0  0
    1.0760  -15.6550  -35.8760 N   0  0  0  0  0  0  0  0  0  0  0  0
    0.9900  -15.9110  -34.8880 H   0  0  0  0  0  0  0  0  0  0  0  0
    1.3160  -16.6210  -36.8910 C   0  0  0  0  0  2  0  0  0  0  0  0
    2.3150  -17.6560  -36.6450 C   0  0  0  0  0  0  0  0  0  0  0  0
    2.8060  -17.5970  -35.4310 O   0  0  0  0  0  0  0  0  0  0  0  0
    2.8230  -18.6560  -37.4360 N   0  0  0  0  0  0  0  0  0  0  0  0
    2.3890  -18.9970  -38.7530 C   0  0  0  0  0  2  0  0  0  0  0  0
    3.9540  -19.4750  -36.9490 C   0  0  0  0  0  2  0  0  0  0  0  0
    3.5780  -18.8650  -39.7000 C   0  0  0  0  0  2  0  0  0  0  0  0
    4.4990  -19.8400  -39.2560 O   0  0  0  0  0  0  0  0  0  0  0  0
    5.0200  -19.4250  -38.0500 C   0  0  0  0  0  2  0  0  0  0  0  0
    3.0820  -11.6550  -37.7990 N   0  0  0  0  0  0  0  0  0  0  0  0
    3.9700  -10.9830  -37.0940 N   0  0  0  0  0  0  0  0  0  0  0  0
    4.9290  -10.5340  -37.8810 N   0  0  0  0  0  0  0  0  0  0  0  0
    4.6280  -10.9360  -39.1000 N   0  0  0  0  0  0  0  0  0  0  0  0
    3.4620  -11.6480  -39.0700 C   0  0  0  0  0  0  0  0  0  0  0  0
    2.8590  -12.2200  -40.2730 C   0  0  0  0  0  3  0  0  0  0  0  0
    3.5770  -12.9070  -41.3400 C   0  0  0  0  0  2  0  0  0  0  0  0
    2.8360  -13.7770  -40.3100 C   0  0  0  0  0  2  0  0  0  0  0  0
  1  2  1  0  0  0  0
  2  7  1  0  0  0  0
  3  2  2  0  0  0  0
  3  4  1  0  0  0  0
  4  5  2  0  0  0  0
  5  6  1  0  0  0  0
  5  8  1  0  0  0  0
  7  6  2  0  0  0  0
  8  9  1  0  0  0  0
 10 11  1  0  0  0  0
 10  8  1  0  0  0  0
 11 12  2  0  0  0  0
 13 15  1  0  0  0  0
 13 11  1  0  0  0  0
 14 13  1  0  0  0  0
 16 17  1  0  0  0  0
 16 14  1  0  0  0  0
 17 18  1  0  0  0  0
 18 15  1  0  0  0  0
 19  3  1  0  0  0  0
 19 20  1  0  0  0  0
 21 20  2  0  0  0  0
 22 23  2  0  0  0  0
 22 21  1  0  0  0  0
 23 19  1  0  0  0  0
 24 23  1  0  0  0  0
 25 26  1  0  0  0  0
 25 24  1  0  0  0  0
 26 24  1  0  0  0  0
M  END
>  <Pose>
1

>  <Score>
-6.062

$$$$
