/Users/jonathanwahrer/Desktop/Msc/3_Semester/Drug_Design_Praktikum/waehrer_HTS_screening/HTS_experiment/out/docking_results/vina_output/6y4q/2079_docked.pdbqt
 OpenBabel03232218553D

 31 34  0  0  0  0  0  0  0  0999 V2000
    1.6020  -16.3770  -37.7560 C   0  0  0  0  0  0  0  0  0  0  0  0
    2.1670  -17.3400  -36.9520 C   0  0  0  0  0  3  0  0  0  0  0  0
    2.7800  -18.4470  -37.5560 C   0  0  0  0  0  0  0  0  0  0  0  0
    2.8200  -18.5870  -38.9260 C   0  0  0  0  0  0  0  0  0  0  0  0
    3.4070  -19.6480  -39.6170 C   0  0  0  0  0  0  0  0  0  0  0  0
    3.9980  -20.6140  -38.7640 C   0  0  0  0  0  0  0  0  0  0  0  0
    3.9830  -20.5070  -37.3770 C   0  0  0  0  0  3  0  0  0  0  0  0
    3.3710  -19.4140  -36.7840 C   0  0  0  0  0  3  0  0  0  0  0  0
    4.6370  -21.7420  -39.2410 O   0  0  0  0  0  1  0  0  0  0  0  0
    2.2850  -17.6730  -39.6300 O   0  0  0  0  0  0  0  0  0  0  0  0
    1.6820  -16.5830  -39.1490 C   0  0  0  0  0  0  0  0  0  0  0  0
    1.1750  -15.7360  -39.8950 O   0  0  0  0  0  0  0  0  0  0  0  0
    3.6290  -19.7790  -41.0140 C   0  0  0  0  0  2  0  0  0  0  0  0
    4.1570  -18.7420  -41.8630 N   0  0  0  0  0  4  0  0  0  0  0  0
    5.6450  -18.6950  -41.8100 C   0  0  0  0  0  2  0  0  0  0  0  0
    6.1940  -20.0770  -41.7850 C   0  0  0  0  0  2  0  0  0  0  0  0
    5.8670  -20.8930  -42.9310 N   0  0  0  0  0  0  0  0  0  0  0  0
    4.6280  -20.5370  -43.5340 C   0  0  0  0  0  2  0  0  0  0  0  0
    4.0240  -19.2390  -43.2710 C   0  0  0  0  0  2  0  0  0  0  0  0
    3.7460  -17.8370  -41.8710 H   0  0  0  0  0  0  0  0  0  0  0  0
    5.8600  -22.3160  -42.5560 C   0  0  0  0  0  2  0  0  0  0  0  0
    4.5020  -22.9490  -42.7490 C   0  0  0  0  0  2  0  0  0  0  0  0
    3.8850  -23.2690  -41.5480 O   0  0  0  0  0  0  0  0  0  0  0  0
    3.6310  -24.2450  -41.5770 H   0  0  0  0  0  0  0  0  0  0  0  0
    1.0460  -15.1290  -37.1960 C   0  0  0  0  0  0  0  0  0  0  0  0
   -0.3360  -15.1180  -36.9260 C   0  0  0  0  0  3  0  0  0  0  0  0
   -0.9180  -14.0020  -36.3520 C   0  0  0  0  0  3  0  0  0  0  0  0
   -0.1810  -12.8690  -36.0280 C   0  0  0  0  0  0  0  0  0  0  0  0
   -0.8940  -11.4600  -35.2060 Cl  0  0  0  0  0  0  0  0  0  0  0  0
    1.1750  -12.8870  -36.3020 C   0  0  0  0  0  3  0  0  0  0  0  0
    1.7340  -14.0140  -36.8790 C   0  0  0  0  0  3  0  0  0  0  0  0
  1 25  1  0  0  0  0
  1  2  2  0  0  0  0
  3  2  1  0  0  0  0
  3  8  1  0  0  0  0
  4  3  2  0  0  0  0
  5  4  1  0  0  0  0
  5  6  2  0  0  0  0
  6  7  1  0  0  0  0
  7  8  2  0  0  0  0
  9  6  1  0  0  0  0
 10 11  1  0  0  0  0
 10  4  1  0  0  0  0
 11  1  1  0  0  0  0
 12 11  2  0  0  0  0
 13  5  1  0  0  0  0
 14 15  1  0  0  0  0
 14 13  1  0  0  0  0
 15 16  1  0  0  0  0
 17 21  1  0  0  0  0
 17 16  1  0  0  0  0
 18 19  1  0  0  0  0
 18 17  1  0  0  0  0
 19 14  1  0  0  0  0
 20 14  1  0  0  0  0
 22 21  1  0  0  0  0
 22 23  1  0  0  0  0
 24 23  1  0  0  0  0
 25 26  2  0  0  0  0
 25 31  1  0  0  0  0
 26 27  1  0  0  0  0
 27 28  2  0  0  0  0
 28 29  1  0  0  0  0
 30 28  1  0  0  0  0
 31 30  2  0  0  0  0
M  END
>  <Pose>
1

>  <Score>
-6.335

$$$$
