/Users/jonathanwahrer/Desktop/Msc/3_Semester/Drug_Design_Praktikum/waehrer_HTS_screening/HTS_experiment/out/docking_results/vina_output/6y4q/2091_docked.pdbqt
 OpenBabel03232218553D

 28 31  0  0  0  0  0  0  0  0999 V2000
    1.2690  -18.6030  -38.2010 N   0  0  0  0  0  0  0  0  0  0  0  0
    2.4420  -19.2530  -38.1520 C   0  0  0  0  0  0  0  0  0  0  0  0
    2.5150  -20.1210  -39.2190 C   0  0  0  0  0  0  0  0  0  0  0  0
    1.3820  -19.9710  -39.8860 N   0  0  0  0  0  0  0  0  0  0  0  0
    0.6040  -19.0550  -39.2920 C   0  0  0  0  0  0  0  0  0  0  0  0
    3.5830  -20.9220  -39.4640 N   0  0  0  0  0  0  0  0  0  0  0  0
    4.6110  -20.8410  -38.6040 C   0  0  0  0  0  0  0  0  0  0  0  0
    5.5910  -21.5910  -38.8440 O   0  0  0  0  0  0  0  0  0  0  0  0
    4.6010  -20.0120  -37.5460 N   0  0  0  0  0  0  0  0  0  0  0  0
    3.5460  -19.2140  -37.2940 C   0  0  0  0  0  0  0  0  0  0  0  0
    3.5060  -18.4370  -36.3300 O   0  0  0  0  0  0  0  0  0  0  0  0
    3.5690  -21.8060  -40.6100 C   0  0  0  0  0  1  0  0  0  0  0  0
    5.4050  -19.9540  -36.8850 H   0  0  0  0  0  0  0  0  0  0  0  0
    0.7920  -17.6150  -37.2650 C   0  0  0  0  0  2  0  0  0  0  0  0
    1.2240  -16.2430  -37.4450 C   0  0  0  0  0  0  0  0  0  0  0  0
    1.6040  -15.6620  -38.6150 C   0  0  0  0  0  3  0  0  0  0  0  0
    1.9700  -14.3210  -38.7240 C   0  0  0  0  0  3  0  0  0  0  0  0
    1.9510  -13.5200  -37.5870 C   0  0  0  0  0  0  0  0  0  0  0  0
    2.4230  -11.6740  -37.6490 Br  0  0  0  0  0  0  0  0  0  0  0  0
    1.5730  -14.0650  -36.3820 C   0  0  0  0  0  3  0  0  0  0  0  0
    1.2210  -15.3940  -36.3220 C   0  0  0  0  0  3  0  0  0  0  0  0
   -0.6960  -18.6240  -39.7170 N   0  0  0  0  0  0  0  0  0  0  0  0
   -1.8430  -19.3480  -39.2170 C   0  0  0  0  0  2  0  0  0  0  0  0
   -2.5190  -20.0230  -40.4010 C   0  0  0  0  0  2  0  0  0  0  0  0
   -2.2340  -19.3840  -41.6420 N   0  0  0  0  0  0  0  0  0  0  0  0
   -2.0140  -17.9770  -41.5860 C   0  0  0  0  0  2  0  0  0  0  0  0
   -1.4970  -20.1140  -42.6020 C   0  0  0  0  0  1  0  0  0  0  0  0
   -0.9480  -17.5310  -40.6190 C   0  0  0  0  0  2  0  0  0  0  0  0
  1  2  1  0  0  0  0
  1 14  1  0  0  0  0
  2 10  1  0  0  0  0
  3  2  2  0  0  0  0
  4  5  2  0  0  0  0
  4  3  1  0  0  0  0
  5  1  1  0  0  0  0
  6  3  1  0  0  0  0
  6  7  1  0  0  0  0
  7  9  1  0  0  0  0
  8  7  2  0  0  0  0
  9 10  1  0  0  0  0
  9 13  1  0  0  0  0
 10 11  2  0  0  0  0
 12  6  1  0  0  0  0
 15 14  1  0  0  0  0
 15 21  1  0  0  0  0
 16 15  2  0  0  0  0
 17 16  1  0  0  0  0
 17 18  2  0  0  0  0
 18 20  1  0  0  0  0
 19 18  1  0  0  0  0
 20 21  2  0  0  0  0
 22  5  1  0  0  0  0
 22 23  1  0  0  0  0
 24 23  1  0  0  0  0
 25 26  1  0  0  0  0
 25 24  1  0  0  0  0
 26 28  1  0  0  0  0
 27 25  1  0  0  0  0
 28 22  1  0  0  0  0
M  END
>  <Pose>
1

>  <Score>
-6.038

$$$$
