/Users/jonathanwahrer/Desktop/Msc/3_Semester/Drug_Design_Praktikum/waehrer_HTS_screening/HTS_experiment/out/docking_results/vina_output/6y4q/2109_docked.pdbqt
 OpenBabel03232218563D

 21 24  0  0  1  0  0  0  0  0999 V2000
    1.7750  -17.6960  -37.7400 N   0  0  0  0  0  0  0  0  0  0  0  0
    1.7270  -17.0690  -36.4500 C   0  0  0  0  0  0  0  0  0  0  0  0
    2.4900  -17.3070  -35.4810 O   0  0  0  0  0  0  0  0  0  0  0  0
    0.6260  -16.0790  -36.4100 C   0  0  1  0  0  3  0  0  0  0  0  0
    1.0430  -14.8330  -35.9560 O   0  0  0  0  0  0  0  0  0  0  0  0
    1.8770  -14.3280  -36.8510 N   0  0  1  0  0  0  0  0  0  0  0  0
    1.6560  -14.8760  -38.1160 C   0  0  1  0  0  3  0  0  0  0  0  0
    0.4500  -15.7920  -37.8980 C   0  0  1  0  0  3  0  0  0  0  0  0
    0.6860  -17.1370  -38.4740 C   0  0  0  0  0  0  0  0  0  0  0  0
    0.0850  -17.7290  -39.4210 O   0  0  0  0  0  0  0  0  0  0  0  0
    1.4940  -13.9840  -39.2720 C   0  0  0  0  0  2  0  0  0  0  0  0
    1.6400  -12.5300  -39.0540 C   0  0  0  0  0  2  0  0  0  0  0  0
    2.6750  -12.3000  -37.9750 C   0  0  0  0  0  2  0  0  0  0  0  0
    2.1430  -12.9550  -36.7270 C   0  0  0  0  0  2  0  0  0  0  0  0
    2.7050  -18.6720  -38.2110 C   0  0  0  0  0  0  0  0  0  0  0  0
    2.9900  -19.8350  -37.5280 C   0  0  0  0  0  3  0  0  0  0  0  0
    3.8940  -20.7760  -37.9920 C   0  0  0  0  0  3  0  0  0  0  0  0
    4.5560  -20.5750  -39.1860 C   0  0  0  0  0  0  0  0  0  0  0  0
    5.7030  -21.7600  -39.7850 Cl  0  0  0  0  0  0  0  0  0  0  0  0
    4.2790  -19.4140  -39.8780 C   0  0  0  0  0  3  0  0  0  0  0  0
    3.3750  -18.4780  -39.4100 C   0  0  0  0  0  3  0  0  0  0  0  0
  1  2  1  0  0  0  0
  2  3  2  0  0  0  0
  4  2  1  6  0  0  0
  4  5  1  0  0  0  0
  6 14  1  6  0  0  0
  6  5  1  0  0  0  0
  7 11  1  6  0  0  0
  7  8  1  0  0  0  0
  7  6  1  0  0  0  0
  8  9  1  6  0  0  0
  8  4  1  0  0  0  0
  9  1  1  0  0  0  0
 10  9  2  0  0  0  0
 11 12  1  0  0  0  0
 12 13  1  0  0  0  0
 13 14  1  0  0  0  0
 15  1  1  0  0  0  0
 15 16  1  0  0  0  0
 17 16  2  0  0  0  0
 18 17  1  0  0  0  0
 19 18  1  0  0  0  0
 20 21  1  0  0  0  0
 20 18  2  0  0  0  0
 21 15  2  0  0  0  0
M  END
>  <Pose>
1

>  <Score>
-6.080

$$$$
