/Users/jonathanwahrer/Desktop/Msc/3_Semester/Drug_Design_Praktikum/waehrer_HTS_screening/HTS_experiment/out/docking_results/vina_output/6y4q/2121_docked.pdbqt
 OpenBabel03232218563D

 31 34  0  0  1  0  0  0  0  0999 V2000
    0.9670  -16.5900  -38.4170 C   0  0  0  0  0  0  0  0  0  0  0  0
   -0.0840  -16.7360  -39.2350 O   0  0  0  0  0  0  0  0  0  0  0  0
    1.2000  -17.6960  -37.6290 N   0  0  0  0  0  0  0  0  0  0  0  0
    0.2350  -18.7910  -37.9300 C   0  0  0  0  0  2  0  0  0  0  0  0
    0.8130  -19.6700  -39.0230 C   0  0  0  0  0  2  0  0  0  0  0  0
    2.2810  -19.4770  -39.0330 C   0  0  1  0  0  3  0  0  0  0  0  0
    2.8840  -19.8410  -37.7150 C   0  0  2  0  0  3  0  0  0  0  0  0
    3.4630  -18.5370  -37.1390 C   0  0  0  0  0  2  0  0  0  0  0  0
    2.2200  -17.7760  -36.6410 C   0  0  0  0  0  2  0  0  0  0  0  0
    1.6100  -15.3110  -38.5520 C   0  0  0  0  0  0  0  0  0  0  0  0
    2.2030  -14.7450  -39.6060 N   0  0  0  0  0  0  0  0  0  0  0  0
    2.7170  -13.5210  -39.2750 C   0  0  0  0  0  0  0  0  0  0  0  0
    2.2860  -15.1050  -40.5650 H   0  0  0  0  0  0  0  0  0  0  0  0
    2.4380  -13.3120  -37.9700 C   0  0  0  0  0  0  0  0  0  0  0  0
    3.4060  -12.5740  -39.9840 C   0  0  0  0  0  3  0  0  0  0  0  0
    2.8280  -12.1490  -37.2970 C   0  0  0  0  0  3  0  0  0  0  0  0
    1.7490  -14.4110  -37.4970 C   0  0  0  0  0  3  0  0  0  0  0  0
    3.5100  -11.2190  -38.0130 C   0  0  0  0  0  0  0  0  0  0  0  0
    4.0220   -9.7390  -37.1980 Cl  0  0  0  0  0  0  0  0  0  0  0  0
    3.8080  -11.4100  -39.3470 C   0  0  0  0  0  3  0  0  0  0  0  0
    3.0300  -20.0600  -40.1000 N   0  0  0  0  0  0  0  0  0  0  0  0
    4.0150  -19.1930  -40.6970 C   0  0  0  0  0  2  0  0  0  0  0  0
    3.3940  -18.0240  -41.3610 C   0  0  0  0  0  2  0  0  0  0  0  0
    2.4310  -18.5570  -42.3310 N   0  0  0  0  0  0  0  0  0  0  0  0
    2.3570  -19.9930  -42.4160 C   0  0  0  0  0  2  0  0  0  0  0  0
    1.6550  -17.6650  -43.1310 C   0  0  0  0  0  0  0  0  0  0  0  0
    2.2150  -20.6960  -41.0990 C   0  0  0  0  0  2  0  0  0  0  0  0
    0.8350  -18.1250  -43.9370 O   0  0  0  0  0  0  0  0  0  0  0  0
    1.8660  -16.1920  -42.9650 C   0  0  0  0  0  1  0  0  0  0  0  0
    3.8590  -20.8330  -37.7920 O   0  0  0  0  0  0  0  0  0  0  0  0
    3.3520  -21.7010  -37.9140 H   0  0  0  0  0  0  0  0  0  0  0  0
  1  3  1  0  0  0  0
  2  1  2  0  0  0  0
  3  9  1  0  0  0  0
  4  3  1  0  0  0  0
  5  4  1  0  0  0  0
  6 21  1  6  0  0  0
  6  5  1  0  0  0  0
  6  7  1  0  0  0  0
  7 30  1  6  0  0  0
  7  8  1  0  0  0  0
  8  9  1  0  0  0  0
 10  1  1  0  0  0  0
 10 17  2  0  0  0  0
 11 12  1  0  0  0  0
 11 10  1  0  0  0  0
 12 14  1  0  0  0  0
 13 11  1  0  0  0  0
 14 17  1  0  0  0  0
 14 16  2  0  0  0  0
 15 20  1  0  0  0  0
 15 12  2  0  0  0  0
 18 16  1  0  0  0  0
 18 19  1  0  0  0  0
 20 18  2  0  0  0  0
 22 21  1  0  0  0  0
 23 22  1  0  0  0  0
 24 23  1  0  0  0  0
 25 24  1  0  0  0  0
 25 27  1  0  0  0  0
 26 29  1  0  0  0  0
 26 24  1  0  0  0  0
 27 21  1  0  0  0  0
 28 26  2  0  0  0  0
 31 30  1  0  0  0  0
M  END
>  <Pose>
1

>  <Score>
-6.545

$$$$
