/Users/jonathanwahrer/Desktop/Msc/3_Semester/Drug_Design_Praktikum/waehrer_HTS_screening/HTS_experiment/out/docking_results/vina_output/6y4q/2124_docked.pdbqt
 OpenBabel03232218573D

 25 29  0  0  1  0  0  0  0  0999 V2000
    1.6960  -16.6720  -38.0780 N   0  0  0  0  0  0  0  0  0  0  0  0
    2.5600  -17.6490  -37.5160 C   0  0  0  0  0  0  0  0  0  0  0  0
    2.7330  -17.8430  -36.2840 O   0  0  0  0  0  0  0  0  0  0  0  0
    3.2470  -18.4280  -38.6000 C   0  0  1  0  0  3  0  0  0  0  0  0
    2.9820  -19.8900  -38.4620 C   0  0  2  0  0  0  0  0  0  0  0  0
    2.5410  -20.2950  -39.7460 O   0  0  0  0  0  0  0  0  0  0  0  0
    1.5130  -19.3270  -39.8710 C   0  0  2  0  0  0  0  0  0  0  0  0
    2.3860  -18.0770  -39.8220 C   0  0  1  0  0  3  0  0  0  0  0  0
    1.6580  -16.8620  -39.4870 C   0  0  0  0  0  0  0  0  0  0  0  0
    1.0940  -16.1170  -40.3290 O   0  0  0  0  0  0  0  0  0  0  0  0
    0.7800  -19.5470  -38.6010 C   0  0  0  0  0  2  0  0  0  0  0  0
    1.6860  -20.0300  -37.7250 C   0  0  0  0  0  2  0  0  0  0  0  0
    0.7040  -19.4580  -41.0930 C   0  0  0  0  0  1  0  0  0  0  0  0
    0.9500  -15.6350  -37.4350 C   0  0  0  0  0  0  0  0  0  0  0  0
   -0.4170  -15.6690  -37.2910 C   0  0  0  0  0  3  0  0  0  0  0  0
   -1.1280  -14.6590  -36.6680 C   0  0  0  0  0  3  0  0  0  0  0  0
   -0.4700  -13.5640  -36.1630 C   0  0  0  0  0  0  0  0  0  0  0  0
   -1.3380  -12.2490  -35.3660 Cl  0  0  0  0  0  0  0  0  0  0  0  0
    0.8990  -13.5150  -36.3020 C   0  0  0  0  0  3  0  0  0  0  0  0
    1.6150  -14.5340  -36.9280 C   0  0  0  0  0  3  0  0  0  0  0  0
    4.0710  -20.7210  -37.9340 C   0  0  0  0  0  3  0  0  0  0  0  0
    4.2700  -21.7960  -38.8030 O   0  0  0  0  0  0  0  0  0  0  0  0
    5.1610  -21.4070  -39.7700 C   0  0  0  0  0  2  0  0  0  0  0  0
    5.9690  -20.3460  -39.0700 C   0  0  0  0  0  2  0  0  0  0  0  0
    5.2620  -19.9930  -37.9430 O   0  0  0  0  0  0  0  0  0  0  0  0
  1  2  1  0  0  0  0
  1 14  1  0  0  0  0
  2  3  2  0  0  0  0
  4  5  1  0  0  0  0
  4  2  1  1  0  0  0
  5 21  1  1  0  0  0
  5 12  1  0  0  0  0
  6  5  1  0  0  0  0
  7 13  1  6  0  0  0
  7  8  1  0  0  0  0
  7  6  1  0  0  0  0
  7 11  1  0  0  0  0
  8  9  1  1  0  0  0
  8  4  1  0  0  0  0
  9  1  1  0  0  0  0
 10  9  2  0  0  0  0
 11 12  1  0  0  0  0
 14 15  2  0  0  0  0
 14 20  1  0  0  0  0
 15 16  1  0  0  0  0
 16 17  2  0  0  0  0
 17 18  1  0  0  0  0
 19 17  1  0  0  0  0
 20 19  2  0  0  0  0
 22 21  1  0  0  0  0
 23 24  1  0  0  0  0
 23 22  1  0  0  0  0
 24 25  1  0  0  0  0
 25 21  1  0  0  0  0
M  END
>  <Pose>
1

>  <Score>
-6.415

$$$$
