/Users/jonathanwahrer/Desktop/Msc/3_Semester/Drug_Design_Praktikum/waehrer_HTS_screening/HTS_experiment/out/docking_results/vina_output/6y4q/2134_docked.pdbqt
 OpenBabel03232218573D

 36 39  0  0  0  0  0  0  0  0999 V2000
    6.6220  -23.2640  -42.9300 C   0  0  0  0  0  0  0  0  0  0  0  0
    7.8130  -23.8120  -42.9530 N   0  0  0  0  0  0  0  0  0  0  0  0
    7.8000  -25.0790  -43.4790 N   0  0  0  0  0  0  0  0  0  0  0  0
    6.4390  -25.3420  -43.8240 C   0  0  0  0  0  0  0  0  0  0  0  0
    5.8450  -26.3690  -44.3540 N   0  0  0  0  0  0  0  0  0  0  0  0
    4.4460  -26.3820  -44.6000 N   0  0  0  0  0  0  0  0  0  0  0  0
    3.6240  -25.2860  -44.2830 C   0  0  0  0  0  0  0  0  0  0  0  0
    2.3160  -25.2870  -44.4980 C   0  0  0  0  0  2  0  0  0  0  0  0
    4.2720  -24.1210  -43.6890 C   0  0  0  0  0  0  0  0  0  0  0  0
    3.5690  -23.1470  -43.4030 O   0  0  0  0  0  0  0  0  0  0  0  0
    5.6830  -24.1840  -43.4740 N   0  0  0  0  0  0  0  0  0  0  0  0
    4.0710  -27.2580  -45.0290 H   0  0  0  0  0  0  0  0  0  0  0  0
    6.3370  -21.9340  -42.4290 C   0  0  0  0  0  0  0  0  0  0  0  0
    5.4660  -21.7800  -41.3240 N   0  0  0  0  0  0  0  0  0  0  0  0
    5.0390  -22.5800  -40.8340 H   0  0  0  0  0  0  0  0  0  0  0  0
    6.8490  -20.9000  -42.9660 O   0  0  0  0  0  0  0  0  0  0  0  0
    5.1840  -20.4950  -40.8750 N   0  0  0  0  0  0  0  0  0  0  0  0
    4.1240  -20.1080  -40.0320 C   0  0  0  0  0  0  0  0  0  0  0  0
    3.8960  -18.7850  -39.6140 N   0  0  0  0  0  0  0  0  0  0  0  0
    3.3300  -20.9970  -39.6200 O   0  0  0  0  0  0  0  0  0  0  0  0
    4.5360  -18.0210  -39.9460 H   0  0  0  0  0  0  0  0  0  0  0  0
    5.8640  -19.7520  -41.2410 H   0  0  0  0  0  0  0  0  0  0  0  0
    2.8480  -18.3600  -38.7490 C   0  0  0  0  0  0  0  0  0  0  0  0
    1.5550  -18.1800  -39.2320 C   0  0  0  0  0  3  0  0  0  0  0  0
    0.5220  -17.7690  -38.4180 C   0  0  0  0  0  3  0  0  0  0  0  0
    0.8200  -17.5420  -37.1000 C   0  0  0  0  0  0  0  0  0  0  0  0
   -0.4370  -17.0170  -35.9710 Cl  0  0  0  0  0  0  0  0  0  0  0  0
    2.0760  -17.7070  -36.5820 C   0  0  0  0  0  3  0  0  0  0  0  0
    3.1000  -18.1170  -37.4060 C   0  0  0  0  0  3  0  0  0  0  0  0
    8.9150  -25.9570  -43.5970 C   0  0  0  0  0  0  0  0  0  0  0  0
    9.6910  -26.2800  -42.5110 C   0  0  0  0  0  3  0  0  0  0  0  0
   10.7630  -27.1610  -42.5630 C   0  0  0  0  0  3  0  0  0  0  0  0
   11.0980  -27.7660  -43.7570 C   0  0  0  0  0  0  0  0  0  0  0  0
   10.3350  -27.4550  -44.8630 C   0  0  0  0  0  3  0  0  0  0  0  0
   12.2200  -28.7500  -43.8500 C   0  0  0  0  0  1  0  0  0  0  0  0
    9.2650  -26.5660  -44.7810 C   0  0  0  0  0  3  0  0  0  0  0  0
  1 13  1  0  0  0  0
  2  1  2  0  0  0  0
  3  2  1  0  0  0  0
  4  3  1  0  0  0  0
  4 11  1  0  0  0  0
  5  4  2  0  0  0  0
  6  5  1  0  0  0  0
  6  7  1  0  0  0  0
  7  9  1  0  0  0  0
  8  7  2  0  0  0  0
  9 11  1  0  0  0  0
  9 10  2  0  0  0  0
 11  1  1  0  0  0  0
 12  6  1  0  0  0  0
 13 14  1  0  0  0  0
 14 17  1  0  0  0  0
 14 15  1  0  0  0  0
 16 13  2  0  0  0  0
 17 18  1  0  0  0  0
 18 20  2  0  0  0  0
 18 19  1  0  0  0  0
 19 23  1  0  0  0  0
 21 19  1  0  0  0  0
 22 17  1  0  0  0  0
 23 29  1  0  0  0  0
 24 23  2  0  0  0  0
 24 25  1  0  0  0  0
 25 26  2  0  0  0  0
 26 28  1  0  0  0  0
 26 27  1  0  0  0  0
 29 28  2  0  0  0  0
 30  3  1  0  0  0  0
 30 31  1  0  0  0  0
 32 31  2  0  0  0  0
 33 32  1  0  0  0  0
 34 36  1  0  0  0  0
 34 33  2  0  0  0  0
 35 33  1  0  0  0  0
 36 30  2  0  0  0  0
M  END
>  <Pose>
1

>  <Score>
-6.694

$$$$
