/Users/jonathanwahrer/Desktop/Msc/3_Semester/Drug_Design_Praktikum/waehrer_HTS_screening/HTS_experiment/out/docking_results/vina_output/6y4q/2136_docked.pdbqt
 OpenBabel03232218573D

 33 37  0  0  1  0  0  0  0  0999 V2000
    1.8470  -20.5820  -40.2520 Cl  0  0  0  0  0  0  0  0  0  0  0  0
    2.2190  -19.5890  -38.8580 C   0  0  0  0  0  0  0  0  0  0  0  0
    1.6310  -18.3600  -38.6400 C   0  0  0  0  0  0  0  0  0  0  0  0
    1.9500  -17.5960  -37.5230 C   0  0  0  0  0  0  0  0  0  0  0  0
    2.8680  -18.1270  -36.6590 C   0  0  0  0  0  3  0  0  0  0  0  0
    3.4630  -19.3500  -36.8580 C   0  0  0  0  0  3  0  0  0  0  0  0
    3.1480  -20.0940  -37.9550 C   0  0  0  0  0  3  0  0  0  0  0  0
    1.1660  -16.3570  -37.5790 C   0  0  2  0  0  0  0  0  0  0  0  0
    2.0020  -15.1700  -37.5870 N   0  0  0  0  0  0  0  0  0  0  0  0
    1.0350  -14.1170  -37.2640 C   0  0  1  0  0  3  0  0  0  0  0  0
    0.0710  -14.7020  -36.3040 C   0  0  2  0  0  3  0  0  0  0  0  0
    0.3610  -16.1690  -36.3210 C   0  0  1  0  0  3  0  0  0  0  0  0
   -0.9120  -16.8950  -36.3370 C   0  0  0  0  0  0  0  0  0  0  0  0
   -1.0220  -18.1230  -36.0920 O   0  0  0  0  0  0  0  0  0  0  0  0
   -1.9200  -15.9500  -36.6710 N   0  0  0  0  0  0  0  0  0  0  0  0
   -1.3430  -14.6610  -36.8320 C   0  0  0  0  0  0  0  0  0  0  0  0
   -1.8590  -13.6180  -37.3200 O   0  0  0  0  0  0  0  0  0  0  0  0
    0.3590  -16.4250  -38.8080 C   0  0  0  0  0  0  0  0  0  0  0  0
   -0.4460  -15.5950  -39.2550 O   0  0  0  0  0  0  0  0  0  0  0  0
    0.6730  -17.6650  -39.4250 N   0  0  0  0  0  0  0  0  0  0  0  0
    2.4390  -15.0030  -38.5350 H   0  0  0  0  0  0  0  0  0  0  0  0
    0.2720  -18.0400  -40.3260 H   0  0  0  0  0  0  0  0  0  0  0  0
    1.7170  -12.9110  -36.6920 C   0  0  0  0  0  2  0  0  0  0  0  0
    2.7110  -12.2880  -37.5820 C   0  0  0  0  0  0  0  0  0  0  0  0
    3.6800  -11.4750  -36.9980 C   0  0  0  0  0  3  0  0  0  0  0  0
    4.6320  -10.8970  -37.7980 C   0  0  0  0  0  3  0  0  0  0  0  0
    4.6760  -11.0820  -39.1590 C   0  0  0  0  0  3  0  0  0  0  0  0
    3.7010  -11.8920  -39.6980 C   0  0  0  0  0  3  0  0  0  0  0  0
    2.7210  -12.4990  -38.9400 C   0  0  0  0  0  3  0  0  0  0  0  0
   -3.3370  -16.2700  -36.8240 C   0  0  0  0  0  2  0  0  0  0  0  0
   -3.5530  -16.7670  -38.2460 C   0  0  0  0  0  2  0  0  0  0  0  0
   -3.5930  -18.1520  -38.2850 O   0  0  0  0  0  0  0  0  0  0  0  0
   -2.8320  -18.6050  -39.3450 C   0  0  0  0  0  1  0  0  0  0  0  0
  1  2  1  0  0  0  0
  2  3  2  0  0  0  0
  2  7  1  0  0  0  0
  3  4  1  0  0  0  0
  4  5  2  0  0  0  0
  6  5  1  0  0  0  0
  7  6  2  0  0  0  0
  8 18  1  6  0  0  0
  8  4  1  0  0  0  0
  8 12  1  0  0  0  0
  9  8  1  0  0  0  0
  9 10  1  0  0  0  0
 10 23  1  1  0  0  0
 10 11  1  0  0  0  0
 11 16  1  6  0  0  0
 12 13  1  6  0  0  0
 12 11  1  0  0  0  0
 13 14  2  0  0  0  0
 15 13  1  0  0  0  0
 16 15  1  0  0  0  0
 17 16  2  0  0  0  0
 19 18  2  0  0  0  0
 20 18  1  0  0  0  0
 20  3  1  0  0  0  0
 21  9  1  0  0  0  0
 22 20  1  0  0  0  0
 24 25  1  0  0  0  0
 24 23  1  0  0  0  0
 26 25  2  0  0  0  0
 27 26  1  0  0  0  0
 28 27  2  0  0  0  0
 28 29  1  0  0  0  0
 29 24  2  0  0  0  0
 30 15  1  0  0  0  0
 31 30  1  0  0  0  0
 32 31  1  0  0  0  0
 33 32  1  0  0  0  0
M  END
>  <Pose>
1

>  <Score>
-7.132

$$$$
