/Users/jonathanwahrer/Desktop/Msc/3_Semester/Drug_Design_Praktikum/waehrer_HTS_screening/HTS_experiment/out/docking_results/vina_output/6y4q/2139_docked.pdbqt
 OpenBabel03232218573D

 27 30  0  0  0  0  0  0  0  0999 V2000
    0.8440  -17.5370  -38.2150 N   0  0  0  0  0  0  0  0  0  0  0  0
    0.9480  -17.3050  -39.6010 C   0  0  0  0  0  2  0  0  0  0  0  0
    1.9710  -18.1220  -40.3420 C   0  0  0  0  0  2  0  0  0  0  0  0
    2.2110  -19.3300  -39.5090 N   0  0  0  0  0  0  0  0  0  0  0  0
    1.0430  -19.8470  -38.9040 C   0  0  0  0  0  2  0  0  0  0  0  0
    0.6460  -18.8960  -37.7950 C   0  0  0  0  0  2  0  0  0  0  0  0
    3.5380  -19.8080  -39.4610 C   0  0  0  0  0  0  0  0  0  0  0  0
    4.4260  -19.2230  -38.6030 N   0  0  0  0  0  0  0  0  0  0  0  0
    5.7060  -19.5530  -38.4860 C   0  0  0  0  0  0  0  0  0  0  0  0
    6.1860  -20.5380  -39.2630 N   0  0  0  0  0  0  0  0  0  0  0  0
    5.3540  -21.1560  -40.1320 C   0  0  0  0  0  0  0  0  0  0  0  0
    5.5450  -22.1600  -41.0070 N   0  0  0  0  0  0  0  0  0  0  0  0
    4.0070  -20.8120  -40.2590 C   0  0  0  0  0  0  0  0  0  0  0  0
    4.3960  -22.4220  -41.6320 C   0  0  0  0  0  3  0  0  0  0  0  0
    3.4320  -21.6000  -41.1820 N   0  0  0  0  0  0  0  0  0  0  0  0
    2.4440  -21.6210  -41.5140 H   0  0  0  0  0  0  0  0  0  0  0  0
    6.5900  -18.8920  -37.5570 N   0  0  0  0  0  0  0  0  0  0  0  0
    6.8900  -19.3360  -36.6780 H   0  0  0  0  0  0  0  0  0  0  0  0
    6.9420  -17.9380  -37.7710 H   0  0  0  0  0  0  0  0  0  0  0  0
    1.6020  -16.7210  -37.3480 C   0  0  0  0  0  2  0  0  0  0  0  0
    0.9550  -15.4990  -36.8740 C   0  0  0  0  0  0  0  0  0  0  0  0
    1.6990  -14.4010  -36.5230 C   0  0  0  0  0  3  0  0  0  0  0  0
    1.1460  -13.2100  -36.0650 C   0  0  0  0  0  3  0  0  0  0  0  0
   -0.2280  -13.1530  -35.9660 C   0  0  0  0  0  0  0  0  0  0  0  0
   -0.9970  -11.6870  -35.3950 Cl  0  0  0  0  0  0  0  0  0  0  0  0
   -0.9770  -14.2540  -36.3150 C   0  0  0  0  0  3  0  0  0  0  0  0
   -0.4110  -15.4210  -36.7660 C   0  0  0  0  0  3  0  0  0  0  0  0
  1  6  1  0  0  0  0
  1 20  1  0  0  0  0
  2  1  1  0  0  0  0
  3  2  1  0  0  0  0
  3  4  1  0  0  0  0
  4  7  1  0  0  0  0
  4  5  1  0  0  0  0
  5  6  1  0  0  0  0
  7  8  1  0  0  0  0
  8  9  2  0  0  0  0
  9 17  1  0  0  0  0
 10  9  1  0  0  0  0
 11 10  2  0  0  0  0
 12 11  1  0  0  0  0
 13 11  1  0  0  0  0
 13  7  2  0  0  0  0
 14 15  1  0  0  0  0
 14 12  2  0  0  0  0
 15 13  1  0  0  0  0
 16 15  1  0  0  0  0
 17 18  1  0  0  0  0
 19 17  1  0  0  0  0
 20 21  1  0  0  0  0
 21 27  2  0  0  0  0
 21 22  1  0  0  0  0
 22 23  2  0  0  0  0
 23 24  1  0  0  0  0
 24 25  1  0  0  0  0
 26 24  2  0  0  0  0
 27 26  1  0  0  0  0
M  END
>  <Pose>
1

>  <Score>
-6.198

$$$$
