/Users/jonathanwahrer/Desktop/Msc/3_Semester/Drug_Design_Praktikum/waehrer_HTS_screening/HTS_experiment/out/docking_results/vina_output/6y4q/2164_docked.pdbqt
 OpenBabel03232218583D

 25 28  0  0  1  0  0  0  0  0999 V2000
    0.6380  -16.6920  -36.0410 C   0  0  2  0  0  3  0  0  0  0  0  0
    2.0420  -17.2000  -36.2390 C   0  0  0  0  0  2  0  0  0  0  0  0
    1.6710  -17.8110  -37.5250 N   0  0  0  0  0  0  0  0  0  0  0  0
    0.2920  -17.7150  -37.0830 C   0  0  0  0  0  2  0  0  0  0  0  0
    0.4400  -15.2650  -36.4770 C   0  0  0  0  0  0  0  0  0  0  0  0
    1.5070  -14.3610  -36.3610 N   0  0  0  0  0  0  0  0  0  0  0  0
    2.4500  -14.7200  -35.9590 H   0  0  0  0  0  0  0  0  0  0  0  0
   -0.6890  -15.0010  -36.9140 O   0  0  0  0  0  0  0  0  0  0  0  0
    1.4670  -13.0020  -36.7260 C   0  0  0  0  0  0  0  0  0  0  0  0
    2.6320  -12.3900  -37.2110 C   0  0  0  0  0  3  0  0  0  0  0  0
    2.6810  -11.0690  -37.5900 C   0  0  0  0  0  0  0  0  0  0  0  0
    4.2870  -10.2780  -38.2430 Br  0  0  0  0  0  0  0  0  0  0  0  0
    1.5590  -10.2990  -37.4990 C   0  0  0  0  0  3  0  0  0  0  0  0
    0.4170  -10.8660  -37.0330 C   0  0  0  0  0  3  0  0  0  0  0  0
    0.3580  -12.2070  -36.6460 C   0  0  0  0  0  3  0  0  0  0  0  0
    2.4150  -18.2650  -38.6480 C   0  0  0  0  0  0  0  0  0  0  0  0
    2.4210  -17.5930  -39.8290 N   0  0  0  0  0  0  0  0  0  0  0  0
    3.1440  -18.0500  -40.8930 C   0  0  0  0  0  3  0  0  0  0  0  0
    3.8680  -19.1710  -40.8090 N   0  0  0  0  0  0  0  0  0  0  0  0
    3.9060  -19.8800  -39.6800 C   0  0  0  0  0  0  0  0  0  0  0  0
    4.5450  -21.0200  -39.3470 N   0  0  0  0  0  0  0  0  0  0  0  0
    3.1750  -19.4170  -38.6060 C   0  0  0  0  0  0  0  0  0  0  0  0
    4.2270  -21.2720  -38.0960 N   0  0  0  0  0  0  0  0  0  0  0  0
    5.4220  -21.8380  -40.1810 C   0  0  0  0  0  1  0  0  0  0  0  0
    3.4060  -20.3280  -37.6220 N   0  0  0  0  0  0  0  0  0  0  0  0
  1  5  1  6  0  0  0
  2  1  1  0  0  0  0
  3  4  1  0  0  0  0
  3  2  1  0  0  0  0
  4  1  1  0  0  0  0
  5  6  1  0  0  0  0
  6  7  1  0  0  0  0
  8  5  2  0  0  0  0
  9 15  1  0  0  0  0
  9  6  1  0  0  0  0
 10  9  2  0  0  0  0
 11 13  2  0  0  0  0
 11 10  1  0  0  0  0
 12 11  1  0  0  0  0
 13 14  1  0  0  0  0
 14 15  2  0  0  0  0
 16 22  1  0  0  0  0
 16  3  1  0  0  0  0
 17 16  2  0  0  0  0
 18 19  2  0  0  0  0
 18 17  1  0  0  0  0
 19 20  1  0  0  0  0
 20 21  1  0  0  0  0
 20 22  2  0  0  0  0
 21 23  1  0  0  0  0
 22 25  1  0  0  0  0
 23 25  2  0  0  0  0
 24 21  1  0  0  0  0
M  END
>  <Pose>
1

>  <Score>
-6.430

$$$$
