/Users/jonathanwahrer/Desktop/Msc/3_Semester/Drug_Design_Praktikum/waehrer_HTS_screening/HTS_experiment/out/docking_results/vina_output/6y4q/2170_docked.pdbqt
 OpenBabel03232218583D

 32 36  0  0  0  0  0  0  0  0999 V2000
   -0.4740  -15.5750  -37.8180 N   0  0  0  0  0  0  0  0  0  0  0  0
   -0.4170  -14.2740  -37.6270 N   0  0  0  0  0  0  0  0  0  0  0  0
   -1.5790  -13.7860  -37.1690 C   0  0  0  0  0  0  0  0  0  0  0  0
   -1.5000  -12.4590  -36.9830 N   0  0  0  0  0  0  0  0  0  0  0  0
   -0.2610  -12.0420  -37.3240 C   0  0  0  0  0  0  0  0  0  0  0  0
    0.4120  -13.2000  -37.7290 C   0  0  0  0  0  0  0  0  0  0  0  0
    1.7150  -13.0070  -38.1350 C   0  0  0  0  0  0  0  0  0  0  0  0
    2.3640  -14.0280  -38.5140 O   0  0  0  0  0  0  0  0  0  0  0  0
    2.3290  -11.7940  -38.1490 N   0  0  0  0  0  0  0  0  0  0  0  0
    1.6150  -10.7330  -37.7430 C   0  0  0  0  0  0  0  0  0  0  0  0
    2.2090   -9.6050  -37.7640 O   0  0  0  0  0  0  0  0  0  0  0  0
    0.3430  -10.8420  -37.3370 N   0  0  0  0  0  0  0  0  0  0  0  0
   -0.3670   -9.6650  -36.9160 C   0  0  0  0  0  1  0  0  0  0  0  0
    3.7010  -11.6780  -38.5870 C   0  0  0  0  0  1  0  0  0  0  0  0
   -2.4020  -14.8610  -37.0750 N   0  0  0  0  0  0  0  0  0  0  0  0
   -1.7410  -15.9580  -37.4690 C   0  0  0  0  0  0  0  0  0  0  0  0
    0.5320  -16.4930  -38.2980 C   0  0  0  0  0  2  0  0  0  0  0  0
    1.3830  -17.0500  -37.2310 C   0  0  0  0  0  0  0  0  0  0  0  0
    1.4010  -16.5850  -36.0700 O   0  0  0  0  0  0  0  0  0  0  0  0
    2.2330  -18.1870  -37.5570 C   0  0  0  0  0  0  0  0  0  0  0  0
    1.9150  -19.0850  -38.5540 C   0  0  0  0  0  3  0  0  0  0  0  0
    2.7250  -20.1600  -38.8610 C   0  0  0  0  0  3  0  0  0  0  0  0
    3.9050  -20.3770  -38.1630 C   0  0  0  0  0  0  0  0  0  0  0  0
    4.9520  -21.7370  -38.5340 Cl  0  0  0  0  0  0  0  0  0  0  0  0
    4.2410  -19.4910  -37.1610 C   0  0  0  0  0  3  0  0  0  0  0  0
    3.4260  -18.4190  -36.8630 C   0  0  0  0  0  3  0  0  0  0  0  0
   -2.2150  -17.3000  -37.5330 N   0  0  0  0  0  0  0  0  0  0  0  0
   -1.9730  -18.2500  -36.4610 C   0  0  0  0  0  2  0  0  0  0  0  0
   -1.6810  -19.5890  -37.0920 C   0  0  0  0  0  2  0  0  0  0  0  0
   -2.7340  -19.9590  -37.9440 O   0  0  0  0  0  0  0  0  0  0  0  0
   -2.7900  -19.1580  -39.0640 C   0  0  0  0  0  2  0  0  0  0  0  0
   -2.9600  -17.7290  -38.6870 C   0  0  0  0  0  2  0  0  0  0  0  0
  1  2  1  0  0  0  0
  1 16  1  0  0  0  0
  2  3  1  0  0  0  0
  3 15  1  0  0  0  0
  3  4  2  0  0  0  0
  5  4  1  0  0  0  0
  6  2  1  0  0  0  0
  6  5  2  0  0  0  0
  7  6  1  0  0  0  0
  8  7  2  0  0  0  0
  9  7  1  0  0  0  0
  9 10  1  0  0  0  0
 10 12  1  0  0  0  0
 11 10  2  0  0  0  0
 12  5  1  0  0  0  0
 12 13  1  0  0  0  0
 14  9  1  0  0  0  0
 16 15  2  0  0  0  0
 17  1  1  0  0  0  0
 17 18  1  0  0  0  0
 18 19  2  0  0  0  0
 20 18  1  0  0  0  0
 20 26  1  0  0  0  0
 21 20  2  0  0  0  0
 22 21  1  0  0  0  0
 22 23  2  0  0  0  0
 23 25  1  0  0  0  0
 24 23  1  0  0  0  0
 25 26  2  0  0  0  0
 27 16  1  0  0  0  0
 27 28  1  0  0  0  0
 29 28  1  0  0  0  0
 30 29  1  0  0  0  0
 31 32  1  0  0  0  0
 31 30  1  0  0  0  0
 32 27  1  0  0  0  0
M  END
>  <Pose>
1

>  <Score>
-6.383

$$$$
