/Users/jonathanwahrer/Desktop/Msc/3_Semester/Drug_Design_Praktikum/waehrer_HTS_screening/HTS_experiment/out/docking_results/vina_output/6y4q/2184_docked.pdbqt
 OpenBabel03232218593D

 29 32  0  0  0  0  0  0  0  0999 V2000
    0.2490  -15.2510  -36.3430 N   0  0  0  0  0  4  0  0  0  0  0  0
    0.5560  -16.5300  -35.9190 C   0  0  0  0  0  2  0  0  0  0  0  0
    0.1820  -17.5790  -37.0230 C   0  0  0  0  0  2  0  0  0  0  0  0
    1.2950  -17.2310  -38.0300 N   0  0  0  0  0  0  0  0  0  0  0  0
    1.1020  -15.9870  -38.5970 C   0  0  0  0  0  2  0  0  0  0  0  0
   -0.0440  -15.3190  -37.8040 C   0  0  0  0  0  2  0  0  0  0  0  0
   -0.7190  -15.0100  -35.9520 H   0  0  0  0  0  0  0  0  0  0  0  0
    1.0340  -14.1140  -36.1360 C   0  0  0  0  0  2  0  0  0  0  0  0
    0.4640  -12.7580  -36.0800 C   0  0  0  0  0  0  0  0  0  0  0  0
    1.0550  -11.8690  -37.0320 C   0  0  0  0  0  0  0  0  0  0  0  0
    2.1050  -12.2860  -37.7740 C   0  0  0  0  0  3  0  0  0  0  0  0
    0.5640  -10.5990  -37.1550 C   0  0  0  0  0  0  0  0  0  0  0  0
    2.7100  -11.4520  -38.6750 C   0  0  0  0  0  0  0  0  0  0  0  0
    4.1240  -11.9040  -39.6340 Cl  0  0  0  0  0  0  0  0  0  0  0  0
    2.2430  -10.1440  -38.8490 C   0  0  0  0  0  0  0  0  0  0  0  0
    1.1850   -9.7340  -38.0880 C   0  0  0  0  0  3  0  0  0  0  0  0
    2.8260   -9.2640  -39.7880 O   0  0  0  0  0  1  0  0  0  0  0  0
   -0.4290  -10.1530  -36.4390 O   0  0  0  0  0  0  0  0  0  0  0  0
   -1.0090  -10.9410  -35.5410 C   0  0  0  0  0  0  0  0  0  0  0  0
   -1.9500  -10.4970  -34.8720 O   0  0  0  0  0  0  0  0  0  0  0  0
   -0.5610  -12.2640  -35.3510 C   0  0  0  0  0  3  0  0  0  0  0  0
    2.2950  -18.2260  -38.0940 C   0  0  0  0  0  0  0  0  0  0  0  0
    3.2230  -18.4970  -37.1500 C   0  0  0  0  0  3  0  0  0  0  0  0
    4.0220  -19.6750  -37.2000 C   0  0  0  0  0  3  0  0  0  0  0  0
    3.8870  -20.5910  -38.2090 C   0  0  0  0  0  0  0  0  0  0  0  0
    2.9390  -20.3170  -39.1900 C   0  0  0  0  0  3  0  0  0  0  0  0
    2.1690  -19.1650  -39.1350 C   0  0  0  0  0  3  0  0  0  0  0  0
    4.6910  -21.7240  -38.2150 O   0  0  0  0  0  0  0  0  0  0  0  0
    5.9910  -21.7030  -38.8230 C   0  0  0  0  0  1  0  0  0  0  0  0
  1  8  1  0  0  0  0
  1  7  1  0  0  0  0
  1  2  1  0  0  0  0
  3  2  1  0  0  0  0
  4  3  1  0  0  0  0
  5  4  1  0  0  0  0
  5  6  1  0  0  0  0
  6  1  1  0  0  0  0
  8  9  1  0  0  0  0
  9 21  2  0  0  0  0
 10  9  1  0  0  0  0
 11 10  2  0  0  0  0
 12 10  1  0  0  0  0
 12 18  1  0  0  0  0
 13 11  1  0  0  0  0
 14 13  1  0  0  0  0
 15 13  2  0  0  0  0
 15 16  1  0  0  0  0
 16 12  2  0  0  0  0
 17 15  1  0  0  0  0
 18 19  1  0  0  0  0
 19 21  1  0  0  0  0
 19 20  2  0  0  0  0
 22  4  1  0  0  0  0
 22 23  1  0  0  0  0
 24 23  2  0  0  0  0
 25 24  1  0  0  0  0
 26 27  1  0  0  0  0
 26 25  2  0  0  0  0
 27 22  2  0  0  0  0
 28 25  1  0  0  0  0
 29 28  1  0  0  0  0
M  END
>  <Pose>
1

>  <Score>
-7.162

$$$$
