/Users/jonathanwahrer/Desktop/Msc/3_Semester/Drug_Design_Praktikum/waehrer_HTS_screening/HTS_experiment/out/docking_results/vina_output/6y4q/2195_docked.pdbqt
 OpenBabel03232218593D

 29 32  0  0  1  0  0  0  0  0999 V2000
    3.5510  -21.3970  -41.0910 C   0  0  0  0  0  0  0  0  0  0  0  0
    2.7450  -20.6100  -40.3830 N   0  0  0  0  0  0  0  0  0  0  0  0
    3.0460  -20.2280  -39.1300 C   0  0  0  0  0  0  0  0  0  0  0  0
    2.4180  -19.4490  -38.2070 N   0  0  0  0  0  0  0  0  0  0  0  0
    3.1950  -19.4310  -37.1450 N   0  0  0  0  0  0  0  0  0  0  0  0
    4.2850  -20.1520  -37.3320 N   0  0  0  0  0  0  0  0  0  0  0  0
    4.2330  -20.6710  -38.5640 C   0  0  0  0  0  0  0  0  0  0  0  0
    5.0820  -21.4900  -39.2890 C   0  0  0  0  0  0  0  0  0  0  0  0
    4.6900  -21.8130  -40.5280 N   0  0  0  0  0  0  0  0  0  0  0  0
    3.2540  -21.8340  -42.4830 C   0  0  1  0  0  3  0  0  0  0  0  0
    4.3490  -22.5260  -43.1660 C   0  0  0  0  0  2  0  0  0  0  0  0
    4.2940  -23.8960  -43.4090 N   0  0  0  0  0  0  0  0  0  0  0  0
    3.3320  -24.7000  -42.8120 C   0  0  0  0  0  2  0  0  0  0  0  0
    2.3440  -24.0150  -41.9130 C   0  0  0  0  0  2  0  0  0  0  0  0
    2.0050  -22.6760  -42.4640 C   0  0  0  0  0  2  0  0  0  0  0  0
    5.7810  -24.6060  -43.8050 S   0  0  0  0  0  0  0  0  0  0  0  0
    5.9770  -24.7860  -45.2690 O   0  0  0  0  0  0  0  0  0  0  0  0
    5.8710  -25.9370  -43.0880 O   0  0  0  0  0  0  0  0  0  0  0  0
    7.1500  -23.6300  -43.1630 C   0  0  0  0  0  1  0  0  0  0  0  0
    6.2740  -21.9430  -38.7410 O   0  0  0  0  0  0  0  0  0  0  0  0
    6.9430  -22.4300  -39.3170 H   0  0  0  0  0  0  0  0  0  0  0  0
    1.1620  -18.7860  -38.3700 C   0  0  0  0  0  2  0  0  0  0  0  0
    1.1400  -17.4100  -37.8190 C   0  0  0  0  0  0  0  0  0  0  0  0
    1.6100  -16.3840  -38.6000 C   0  0  0  0  0  0  0  0  0  0  0  0
    1.6260  -15.0630  -38.1600 C   0  0  0  0  0  3  0  0  0  0  0  0
    2.2200  -16.7110  -40.2090 Cl  0  0  0  0  0  0  0  0  0  0  0  0
    1.1580  -14.7510  -36.9020 C   0  0  0  0  0  3  0  0  0  0  0  0
    0.6830  -15.7750  -36.1120 C   0  0  0  0  0  3  0  0  0  0  0  0
    0.6730  -17.0930  -36.5630 C   0  0  0  0  0  3  0  0  0  0  0  0
  1  9  1  0  0  0  0
  1  2  2  0  0  0  0
  2  3  1  0  0  0  0
  3  7  2  0  0  0  0
  3  4  1  0  0  0  0
  4  5  1  0  0  0  0
  6  5  2  0  0  0  0
  7  6  1  0  0  0  0
  8 20  1  0  0  0  0
  8  7  1  0  0  0  0
  9  8  2  0  0  0  0
 10 15  1  0  0  0  0
 10  1  1  1  0  0  0
 11 10  1  0  0  0  0
 12 11  1  0  0  0  0
 12 13  1  0  0  0  0
 13 14  1  0  0  0  0
 15 14  1  0  0  0  0
 16 12  1  0  0  0  0
 16 19  1  0  0  0  0
 16 18  2  0  0  0  0
 17 16  2  0  0  0  0
 21 20  1  0  0  0  0
 22  4  1  0  0  0  0
 22 23  1  0  0  0  0
 23 29  1  0  0  0  0
 24 25  1  0  0  0  0
 24 23  2  0  0  0  0
 25 27  2  0  0  0  0
 26 24  1  0  0  0  0
 27 28  1  0  0  0  0
 29 28  2  0  0  0  0
M  END
>  <Pose>
1

>  <Score>
-6.349

$$$$
