/Users/jonathanwahrer/Desktop/Msc/3_Semester/Drug_Design_Praktikum/waehrer_HTS_screening/HTS_experiment/out/docking_results/vina_output/6y4q/2231_docked.pdbqt
 OpenBabel03232219003D

 27 31  0  0  0  0  0  0  0  0999 V2000
    1.1050  -16.9690  -37.0710 N   0  0  0  0  0  0  0  0  0  0  0  0
    0.0890  -16.9710  -36.2260 N   0  0  0  0  0  0  0  0  0  0  0  0
   -0.4510  -15.7740  -36.1070 N   0  0  0  0  0  0  0  0  0  0  0  0
    0.2120  -14.9110  -36.8970 C   0  0  0  0  0  0  0  0  0  0  0  0
    1.1880  -15.6830  -37.4950 C   0  0  0  0  0  0  0  0  0  0  0  0
    2.0280  -15.0720  -38.3620 N   0  0  0  0  0  0  0  0  0  0  0  0
    1.8830  -13.7570  -38.6060 C   0  0  0  0  0  3  0  0  0  0  0  0
    0.9230  -13.0040  -38.0140 N   0  0  0  0  0  0  0  0  0  0  0  0
    0.0610  -13.5610  -37.1440 C   0  0  0  0  0  0  0  0  0  0  0  0
   -0.9570  -12.7850  -36.5120 N   0  0  0  0  0  0  0  0  0  0  0  0
   -0.6080  -12.1670  -35.2470 C   0  0  0  0  0  2  0  0  0  0  0  0
   -1.4820  -10.9440  -34.9790 C   0  0  0  0  0  2  0  0  0  0  0  0
   -2.8060  -11.1400  -35.4490 N   0  0  0  0  0  0  0  0  0  0  0  0
   -2.8760  -11.3280  -36.9310 C   0  0  0  0  0  2  0  0  0  0  0  0
   -3.9590  -11.1750  -34.6850 C   0  0  0  0  0  0  0  0  0  0  0  0
   -2.2240  -12.6770  -37.1660 C   0  0  0  0  0  2  0  0  0  0  0  0
   -5.0650  -11.3710  -35.3830 O   0  0  0  0  0  0  0  0  0  0  0  0
   -4.2060  -11.0410  -33.2570 C   0  0  0  0  0  3  0  0  0  0  0  0
   -5.0360  -12.0630  -32.5780 C   0  0  0  0  0  2  0  0  0  0  0  0
   -3.6030  -11.8080  -32.1730 C   0  0  0  0  0  2  0  0  0  0  0  0
    1.9200  -18.0690  -37.4460 C   0  0  0  0  0  0  0  0  0  0  0  0
    1.5790  -18.9970  -38.4030 C   0  0  0  0  0  3  0  0  0  0  0  0
    2.4110  -20.0460  -38.7250 C   0  0  0  0  0  3  0  0  0  0  0  0
    3.6190  -20.1860  -38.0880 C   0  0  0  0  0  0  0  0  0  0  0  0
    4.6640  -21.5100  -38.5000 Cl  0  0  0  0  0  0  0  0  0  0  0  0
    3.9860  -19.2820  -37.1350 C   0  0  0  0  0  3  0  0  0  0  0  0
    3.1380  -18.2360  -36.8240 C   0  0  0  0  0  3  0  0  0  0  0  0
  1  2  1  0  0  0  0
  2  3  2  0  0  0  0
  4  3  1  0  0  0  0
  5  1  1  0  0  0  0
  5  4  2  0  0  0  0
  6  5  1  0  0  0  0
  7  6  2  0  0  0  0
  7  8  1  0  0  0  0
  8  9  2  0  0  0  0
  9  4  1  0  0  0  0
  9 10  1  0  0  0  0
 10 11  1  0  0  0  0
 11 12  1  0  0  0  0
 13 12  1  0  0  0  0
 13 15  1  0  0  0  0
 14 13  1  0  0  0  0
 15 18  1  0  0  0  0
 16 14  1  0  0  0  0
 16 10  1  0  0  0  0
 17 15  2  0  0  0  0
 18 19  1  0  0  0  0
 18 20  1  0  0  0  0
 19 20  1  0  0  0  0
 21  1  1  0  0  0  0
 21 27  1  0  0  0  0
 22 21  2  0  0  0  0
 23 22  1  0  0  0  0
 23 24  2  0  0  0  0
 24 26  1  0  0  0  0
 25 24  1  0  0  0  0
 26 27  2  0  0  0  0
M  END
>  <Pose>
1

>  <Score>
-6.546

$$$$
