/Users/jonathanwahrer/Desktop/Msc/3_Semester/Drug_Design_Praktikum/waehrer_HTS_screening/HTS_experiment/out/docking_results/vina_output/6y4q/2267_docked.pdbqt
 OpenBabel03232219013D

 27 30  0  0  1  0  0  0  0  0999 V2000
    1.4890  -17.9900  -37.3970 N   0  0  0  0  0  0  0  0  0  0  0  0
    2.4940  -17.6820  -36.4820 C   0  0  0  0  0  2  0  0  0  0  0  0
    3.6980  -18.5900  -36.5710 C   0  0  0  0  0  2  0  0  0  0  0  0
    3.9070  -19.1660  -37.9200 C   0  0  2  0  0  3  0  0  0  0  0  0
    2.7820  -19.4990  -38.6360 C   0  0  0  0  0  0  0  0  0  0  0  0
    2.8740  -20.0270  -39.8620 N   0  0  0  0  0  0  0  0  0  0  0  0
    4.1140  -20.2370  -40.4130 C   0  0  1  0  0  3  0  0  0  0  0  0
    5.2060  -19.9040  -39.6950 N   0  0  0  0  0  0  0  0  0  0  0  0
    6.2710  -20.2040  -40.4430 N   0  0  0  0  0  0  0  0  0  0  0  0
    5.8880  -20.7140  -41.6070 C   0  0  0  0  0  3  0  0  0  0  0  0
    4.4950  -20.7550  -41.6320 C   0  0  0  0  0  3  0  0  0  0  0  0
    5.1730  -19.3740  -38.4660 C   0  0  0  0  0  0  0  0  0  0  0  0
    6.1900  -19.0640  -37.8000 O   0  0  0  0  0  0  0  0  0  0  0  0
    1.4650  -19.2600  -38.0230 C   0  0  0  0  0  2  0  0  0  0  0  0
    7.2700  -20.0620  -40.1660 H   0  0  0  0  0  0  0  0  0  0  0  0
    0.6090  -16.7570  -38.0940 S   0  0  0  0  0  0  0  0  0  0  0  0
    0.4820  -17.0060  -39.5800 O   0  0  0  0  0  0  0  0  0  0  0  0
   -0.7860  -16.7020  -37.5460 O   0  0  0  0  0  0  0  0  0  0  0  0
    1.3160  -15.1670  -37.9120 C   0  0  0  0  0  0  0  0  0  0  0  0
    2.0110  -14.5330  -38.9280 C   0  0  0  0  0  3  0  0  0  0  0  0
    2.5510  -13.2720  -38.7270 C   0  0  0  0  0  0  0  0  0  0  0  0
    2.4250  -12.6000  -37.5330 C   0  0  0  0  0  0  0  0  0  0  0  0
    3.4270  -12.4840  -40.0240 Cl  0  0  0  0  0  0  0  0  0  0  0  0
    1.7340  -13.2300  -36.5210 C   0  0  0  0  0  3  0  0  0  0  0  0
    1.1970  -14.4830  -36.7210 C   0  0  0  0  0  3  0  0  0  0  0  0
    2.9800  -11.3230  -37.3520 O   0  0  0  0  0  0  0  0  0  0  0  0
    4.2970  -11.1960  -36.8510 C   0  0  0  0  0  1  0  0  0  0  0  0
  1  2  1  0  0  0  0
  3  2  1  0  0  0  0
  4  3  1  1  0  0  0
  5 14  1  0  0  0  0
  5  4  1  0  0  0  0
  6  5  2  0  0  0  0
  7 11  1  1  0  0  0
  7  6  1  0  0  0  0
  7  8  1  0  0  0  0
  8 12  1  0  0  0  0
  9 15  1  0  0  0  0
  9  8  1  0  0  0  0
 10  9  1  0  0  0  0
 11 10  2  0  0  0  0
 12  4  1  0  0  0  0
 12 13  2  0  0  0  0
 14  1  1  0  0  0  0
 16 19  1  0  0  0  0
 16 18  2  0  0  0  0
 16  1  1  0  0  0  0
 17 16  2  0  0  0  0
 19 25  1  0  0  0  0
 20 21  1  0  0  0  0
 20 19  2  0  0  0  0
 21 22  2  0  0  0  0
 22 26  1  0  0  0  0
 22 24  1  0  0  0  0
 23 21  1  0  0  0  0
 25 24  2  0  0  0  0
 26 27  1  0  0  0  0
M  END
>  <Pose>
1

>  <Score>
-7.038

$$$$
