/Users/jonathanwahrer/Desktop/Msc/3_Semester/Drug_Design_Praktikum/waehrer_HTS_screening/HTS_experiment/out/docking_results/vina_output/6y4q/2271_docked.pdbqt
 OpenBabel03232219013D

 27 30  0  0  1  0  0  0  0  0999 V2000
    0.9950  -16.4470  -36.5790 C   0  0  2  0  0  0  0  0  0  0  0  0
    1.0330  -17.6240  -37.2930 N   0  0  0  0  0  4  0  0  0  0  0  0
   -0.0030  -17.4900  -38.2950 C   0  0  0  0  0  0  0  0  0  0  0  0
   -0.1160  -17.7570  -39.5560 C   0  0  0  0  0  3  0  0  0  0  0  0
   -1.3340  -17.5050  -40.3460 C   0  0  0  0  0  2  0  0  0  0  0  0
   -2.4670  -16.8860  -39.6070 C   0  0  0  0  0  2  0  0  0  0  0  0
   -2.4200  -17.0740  -38.1290 C   0  0  0  0  0  2  0  0  0  0  0  0
   -1.0870  -16.9160  -37.5870 N   0  0  0  0  0  0  0  0  0  0  0  0
   -0.5390  -16.2620  -36.4020 C   0  0  0  0  0  2  0  0  0  0  0  0
    0.5940  -18.3790  -36.6480 H   0  0  0  0  0  0  0  0  0  0  0  0
    1.4740  -15.1760  -37.0840 C   0  0  0  0  0  0  0  0  0  0  0  0
    1.5390  -14.0930  -36.2300 C   0  0  0  0  0  3  0  0  0  0  0  0
    1.9650  -12.8780  -36.6800 C   0  0  0  0  0  3  0  0  0  0  0  0
    2.3490  -12.6740  -37.9990 C   0  0  0  0  0  0  0  0  0  0  0  0
    2.8980  -11.1300  -38.6000 Cl  0  0  0  0  0  0  0  0  0  0  0  0
    2.2840  -13.7480  -38.8440 C   0  0  0  0  0  3  0  0  0  0  0  0
    1.8520  -14.9810  -38.3890 C   0  0  0  0  0  3  0  0  0  0  0  0
    1.4380  -16.6250  -35.2380 O   0  0  0  0  0  0  0  0  0  0  0  0
    1.0870  -17.5100  -34.9590 H   0  0  0  0  0  0  0  0  0  0  0  0
    2.1920  -18.2080  -37.7820 C   0  0  0  0  0  0  0  0  0  0  0  0
    2.4960  -18.4580  -39.0770 C   0  0  0  0  0  3  0  0  0  0  0  0
    3.7150  -19.0430  -39.4150 C   0  0  0  0  0  3  0  0  0  0  0  0
    4.6620  -19.3920  -38.4670 C   0  0  0  0  0  0  0  0  0  0  0  0
    4.3230  -19.1250  -37.1570 C   0  0  0  0  0  3  0  0  0  0  0  0
    3.1340  -18.5520  -36.7920 C   0  0  0  0  0  3  0  0  0  0  0  0
    5.8610  -19.9730  -38.8460 O   0  0  0  0  0  0  0  0  0  0  0  0
    5.9120  -21.3560  -39.0850 C   0  0  0  0  0  1  0  0  0  0  0  0
  1  9  1  0  0  0  0
  1 18  1  1  0  0  0
  2 10  1  0  0  0  0
  2  1  1  0  0  0  0
  3  8  1  0  0  0  0
  3  2  1  0  0  0  0
  4  3  2  0  0  0  0
  5  6  1  0  0  0  0
  5  4  1  0  0  0  0
  6  7  1  0  0  0  0
  7  8  1  0  0  0  0
  8  9  1  0  0  0  0
 11  1  1  0  0  0  0
 11 12  1  0  0  0  0
 13 12  2  0  0  0  0
 14 13  1  0  0  0  0
 15 14  1  0  0  0  0
 16 17  1  0  0  0  0
 16 14  2  0  0  0  0
 17 11  2  0  0  0  0
 18 19  1  0  0  0  0
 20  2  1  0  0  0  0
 20 25  1  0  0  0  0
 21 20  2  0  0  0  0
 22 21  1  0  0  0  0
 22 23  2  0  0  0  0
 23 24  1  0  0  0  0
 24 25  2  0  0  0  0
 26 23  1  0  0  0  0
 27 26  1  0  0  0  0
M  END
>  <Pose>
1

>  <Score>
-6.801

$$$$
