/Users/jonathanwahrer/Desktop/Msc/3_Semester/Drug_Design_Praktikum/waehrer_HTS_screening/HTS_experiment/out/docking_results/vina_output/6y4q/2272_docked.pdbqt
 OpenBabel03232219023D

 29 32  0  0  0  0  0  0  0  0999 V2000
    0.1770  -16.5040  -36.3130 C   0  0  0  0  0  0  0  0  0  0  0  0
   -0.8010  -17.0070  -35.6380 O   0  0  0  0  0  0  0  0  0  0  0  0
    0.7100  -17.3280  -37.3060 N   0  0  0  0  0  0  0  0  0  0  0  0
    1.9560  -17.0470  -38.0450 C   0  0  0  0  0  2  0  0  0  0  0  0
    2.8510  -18.1630  -37.4220 C   0  0  0  0  0  2  0  0  0  0  0  0
    2.3240  -19.4460  -37.8660 N   0  0  0  0  0  0  0  0  0  0  0  0
    1.0200  -19.5790  -38.2260 C   0  0  0  0  0  2  0  0  0  0  0  0
    0.0570  -18.5270  -37.7530 C   0  0  0  0  0  2  0  0  0  0  0  0
    0.5410  -15.1590  -35.9380 C   0  0  0  0  0  2  0  0  0  0  0  0
    0.1120  -13.9950  -36.7060 C   0  0  0  0  0  2  0  0  0  0  0  0
    0.8730  -13.6630  -37.8980 N   0  0  0  0  0  0  0  0  0  0  0  0
    1.9550  -12.9090  -38.0770 C   0  0  0  0  0  0  0  0  0  0  0  0
    2.2610  -12.8270  -39.4150 C   0  0  0  0  0  0  0  0  0  0  0  0
    2.7760  -12.2490  -37.1460 C   0  0  0  0  0  3  0  0  0  0  0  0
    3.3650  -12.1040  -39.8850 C   0  0  0  0  0  3  0  0  0  0  0  0
    1.3460  -13.5390  -40.0190 O   0  0  0  0  0  0  0  0  0  0  0  0
    4.1700  -11.4560  -38.9900 C   0  0  0  0  0  0  0  0  0  0  0  0
    5.5640  -10.5570  -39.5380 Cl  0  0  0  0  0  0  0  0  0  0  0  0
    3.8580  -11.5440  -37.6450 C   0  0  0  0  0  3  0  0  0  0  0  0
    0.4990  -14.0550  -39.1630 C   0  0  0  0  0  0  0  0  0  0  0  0
   -0.4960  -14.7870  -39.4330 O   0  0  0  0  0  0  0  0  0  0  0  0
    3.1910  -20.4360  -37.4340 C   0  0  0  0  0  2  0  0  0  0  0  0
    4.0710  -20.9600  -38.5710 C   0  0  0  0  0  0  0  0  0  0  0  0
    4.8370  -21.9360  -38.2180 O   0  0  0  0  0  0  0  0  0  0  0  0
    4.0230  -20.4250  -39.7850 N   0  0  0  0  0  0  0  0  0  0  0  0
    4.8170  -21.4040  -40.2910 H   0  0  0  0  0  0  0  0  0  0  0  0
    3.9710  -19.8550  -41.0770 C   0  0  0  0  0  3  0  0  0  0  0  0
    5.1510  -18.8610  -41.4050 C   0  0  0  0  0  2  0  0  0  0  0  0
    3.8100  -18.3530  -41.1870 C   0  0  0  0  0  2  0  0  0  0  0  0
  1  9  1  0  0  0  0
  1  2  2  0  0  0  0
  3  1  1  0  0  0  0
  4  5  1  0  0  0  0
  4  3  1  0  0  0  0
  6 22  1  0  0  0  0
  6  5  1  0  0  0  0
  7  6  1  0  0  0  0
  7  8  1  0  0  0  0
  8  3  1  0  0  0  0
 10  9  1  0  0  0  0
 11 10  1  0  0  0  0
 12 11  1  0  0  0  0
 12 14  1  0  0  0  0
 13 12  2  0  0  0  0
 15 13  1  0  0  0  0
 15 17  2  0  0  0  0
 16 13  1  0  0  0  0
 16 20  1  0  0  0  0
 17 19  1  0  0  0  0
 18 17  1  0  0  0  0
 19 14  2  0  0  0  0
 20 11  1  0  0  0  0
 21 20  2  0  0  0  0
 23 24  2  0  0  0  0
 23 22  1  0  0  0  0
 25 23  1  0  0  0  0
 26 25  1  0  0  0  0
 27 25  1  0  0  0  0
 28 29  1  0  0  0  0
 28 27  1  0  0  0  0
 29 27  1  0  0  0  0
M  END
>  <Pose>
1

>  <Score>
-6.185

$$$$
