/Users/jonathanwahrer/Desktop/Msc/3_Semester/Drug_Design_Praktikum/waehrer_HTS_screening/HTS_experiment/out/docking_results/vina_output/6y4q/2275_docked.pdbqt
 OpenBabel03232219023D

 21 23  0  0  1  0  0  0  0  0999 V2000
    2.4560  -20.6870  -40.5070 Cl  0  0  0  0  0  0  0  0  0  0  0  0
    2.2420  -19.4590  -39.2790 C   0  0  0  0  0  0  0  0  0  0  0  0
    3.0600  -19.4420  -38.1680 C   0  0  0  0  0  0  0  0  0  0  0  0
    2.8380  -18.4440  -37.2460 C   0  0  0  0  0  0  0  0  0  0  0  0
    3.5330  -18.3360  -36.1890 O   0  0  0  0  0  0  0  0  0  0  0  0
    1.8620  -17.5470  -37.4500 N   0  0  0  0  0  0  0  0  0  0  0  0
    1.0580  -17.5250  -38.4950 N   0  0  0  0  0  0  0  0  0  0  0  0
    0.0130  -16.5320  -38.6760 C   0  0  1  0  0  3  0  0  0  0  0  0
   -1.1560  -16.7470  -37.7380 C   0  0  0  0  0  2  0  0  0  0  0  0
   -0.8540  -16.1600  -36.3700 C   0  0  0  0  0  2  0  0  0  0  0  0
    0.3540  -16.8180  -35.7440 C   0  0  0  0  0  2  0  0  0  0  0  0
    1.6430  -16.4900  -36.4500 C   0  0  2  0  0  3  0  0  0  0  0  0
    1.4440  -15.2320  -37.2160 C   0  0  0  0  0  3  0  0  0  0  0  0
    0.6310  -15.2160  -38.2670 C   0  0  0  0  0  3  0  0  0  0  0  0
    1.2580  -18.5050  -39.4250 C   0  0  0  0  0  0  0  0  0  0  0  0
    0.4940  -18.5090  -40.4490 O   0  0  0  0  0  0  0  0  0  0  0  0
    4.0940  -20.3970  -37.9490 N   0  0  0  0  0  0  0  0  0  0  0  0
    3.8440  -21.1520  -37.2420 H   0  0  0  0  0  0  0  0  0  0  0  0
    5.3730  -20.3800  -38.6050 C   0  0  0  0  0  3  0  0  0  0  0  0
    6.3680  -19.4870  -37.8840 C   0  0  0  0  0  1  0  0  0  0  0  0
    5.9990  -21.7240  -38.7750 C   0  0  0  0  0  1  0  0  0  0  0  0
  1  2  1  0  0  0  0
  2  3  2  0  0  0  0
  3 17  1  0  0  0  0
  3  4  1  0  0  0  0
  4  5  2  0  0  0  0
  6  4  1  0  0  0  0
  6 12  1  0  0  0  0
  7  6  1  0  0  0  0
  8  7  1  0  0  0  0
  8 14  1  1  0  0  0
  8  9  1  0  0  0  0
  9 10  1  0  0  0  0
 10 11  1  0  0  0  0
 12 13  1  6  0  0  0
 12 11  1  0  0  0  0
 14 13  2  0  0  0  0
 15  2  1  0  0  0  0
 15  7  1  0  0  0  0
 16 15  2  0  0  0  0
 17 18  1  0  0  0  0
 19 17  1  0  0  0  0
 19 20  1  0  0  0  0
 21 19  1  0  0  0  0
M  END
>  <Pose>
1

>  <Score>
-5.755

$$$$
