/Users/jonathanwahrer/Desktop/Msc/3_Semester/Drug_Design_Praktikum/waehrer_HTS_screening/HTS_experiment/out/docking_results/vina_output/6y4q/2276_docked.pdbqt
 OpenBabel03232219023D

 21 24  0  0  1  0  0  0  0  0999 V2000
    2.5540  -20.8840  -40.4330 Cl  0  0  0  0  0  0  0  0  0  0  0  0
    2.3210  -19.6250  -39.2370 C   0  0  0  0  0  0  0  0  0  0  0  0
    3.1760  -19.5940  -38.1560 C   0  0  0  0  0  0  0  0  0  0  0  0
    2.9290  -18.5650  -37.2380 C   0  0  0  0  0  0  0  0  0  0  0  0
    3.6720  -18.4900  -36.2410 O   0  0  0  0  0  0  0  0  0  0  0  0
    1.9310  -17.6920  -37.4230 N   0  0  0  0  0  0  0  0  0  0  0  0
    1.1140  -17.7280  -38.4650 N   0  0  0  0  0  0  0  0  0  0  0  0
    0.0840  -16.7000  -38.5160 C   0  0  1  0  0  3  0  0  0  0  0  0
   -0.7090  -16.8200  -37.2280 C   0  0  1  0  0  3  0  0  0  0  0  0
    0.1850  -16.8290  -36.0650 C   0  0  1  0  0  3  0  0  0  0  0  0
    1.6480  -16.6130  -36.4740 C   0  0  2  0  0  3  0  0  0  0  0  0
    1.6560  -15.3700  -37.3190 C   0  0  0  0  0  2  0  0  0  0  0  0
    0.8550  -15.4080  -38.3690 C   0  0  0  0  0  2  0  0  0  0  0  0
   -0.7910  -15.6680  -36.2970 C   0  0  0  0  0  2  0  0  0  0  0  0
    1.3020  -18.6850  -39.3670 C   0  0  0  0  0  0  0  0  0  0  0  0
    0.5310  -18.7280  -40.3600 O   0  0  0  0  0  0  0  0  0  0  0  0
    4.2450  -20.5120  -37.9480 N   0  0  0  0  0  0  0  0  0  0  0  0
    4.0460  -21.2790  -37.2710 H   0  0  0  0  0  0  0  0  0  0  0  0
    5.5140  -20.4530  -38.5760 C   0  0  0  0  0  3  0  0  0  0  0  0
    6.5230  -19.5810  -37.8760 C   0  0  0  0  0  1  0  0  0  0  0  0
    6.1650  -21.8200  -38.7410 C   0  0  0  0  0  1  0  0  0  0  0  0
  1  2  1  0  0  0  0
  2  3  2  0  0  0  0
  3 17  1  0  0  0  0
  3  4  1  0  0  0  0
  4  5  2  0  0  0  0
  6  4  1  0  0  0  0
  6 11  1  0  0  0  0
  7  6  1  0  0  0  0
  8  7  1  0  0  0  0
  8 13  1  1  0  0  0
  8  9  1  0  0  0  0
  9 14  1  1  0  0  0
  9 10  1  0  0  0  0
 10 14  1  1  0  0  0
 11 12  1  6  0  0  0
 11 10  1  0  0  0  0
 13 12  1  0  0  0  0
 15  2  1  0  0  0  0
 15  7  1  0  0  0  0
 16 15  2  0  0  0  0
 17 18  1  0  0  0  0
 19 17  1  0  0  0  0
 19 20  1  0  0  0  0
 21 19  1  0  0  0  0
M  END
>  <Pose>
1

>  <Score>
-5.767

$$$$
