/Users/jonathanwahrer/Desktop/Msc/3_Semester/Drug_Design_Praktikum/waehrer_HTS_screening/HTS_experiment/out/docking_results/vina_output/6y4q/2284_docked.pdbqt
 OpenBabel03232219033D

 33 37  0  0  0  0  0  0  0  0999 V2000
    3.5920  -20.2910  -38.7240 C   0  0  0  0  0  0  0  0  0  0  0  0
    3.9720  -20.0370  -37.4210 C   0  0  0  0  0  3  0  0  0  0  0  0
    3.5340  -18.9720  -36.6750 C   0  0  0  0  0  0  0  0  0  0  0  0
    3.9560  -18.8420  -35.4790 O   0  0  0  0  0  0  0  0  0  0  0  0
    2.6600  -18.0780  -37.2260 N   0  0  0  0  0  0  0  0  0  0  0  0
    2.1790  -17.0520  -36.6450 N   0  0  0  0  0  0  0  0  0  0  0  0
    1.3490  -16.2410  -37.2300 C   0  0  0  0  0  0  0  0  0  0  0  0
    1.2320  -17.0090  -38.7720 S   0  0  0  0  0  0  0  0  0  0  0  0
    2.2950  -18.3270  -38.4860 C   0  0  0  0  0  0  0  0  0  0  0  0
    2.7290  -19.3770  -39.2170 N   0  0  0  0  0  0  0  0  0  0  0  0
    4.0960  -21.4580  -39.4860 C   0  0  0  0  0  2  0  0  0  0  0  0
    4.6300  -21.0000  -40.7290 N   0  0  0  0  0  0  0  0  0  0  0  0
    3.8810  -21.2900  -41.8860 C   0  0  0  0  0  2  0  0  0  0  0  0
    4.3500  -20.3720  -43.0190 C   0  0  0  0  0  2  0  0  0  0  0  0
    5.7410  -20.4170  -43.1480 N   0  0  0  0  0  0  0  0  0  0  0  0
    6.3690  -21.3740  -42.3370 C   0  0  0  0  0  2  0  0  0  0  0  0
    6.0280  -21.1330  -40.8840 C   0  0  0  0  0  2  0  0  0  0  0  0
    6.5940  -19.1350  -43.7670 S   0  0  0  0  0  0  0  0  0  0  0  0
    6.6060  -18.0140  -42.7330 O   0  0  0  0  0  0  0  0  0  0  0  0
    6.0160  -18.6240  -45.0610 O   0  0  0  0  0  0  0  0  0  0  0  0
    8.2750  -19.5540  -44.0150 C   0  0  0  0  0  0  0  0  0  0  0  0
    9.3150  -19.2810  -43.1790 N   0  0  0  0  0  0  0  0  0  0  0  0
   10.4550  -19.7460  -43.6940 C   0  0  0  0  0  3  0  0  0  0  0  0
   10.2070  -20.3350  -44.8720 N   0  0  0  0  0  0  0  0  0  0  0  0
    8.8650  -20.2140  -45.0660 C   0  0  0  0  0  3  0  0  0  0  0  0
   10.8940  -20.7840  -45.4990 H   0  0  0  0  0  0  0  0  0  0  0  0
    0.6780  -15.0200  -36.7670 C   0  0  0  0  0  0  0  0  0  0  0  0
    1.4520  -13.9670  -36.3270 C   0  0  0  0  0  3  0  0  0  0  0  0
    0.8790  -12.7860  -35.8760 C   0  0  0  0  0  3  0  0  0  0  0  0
   -0.4940  -12.6520  -35.8660 C   0  0  0  0  0  0  0  0  0  0  0  0
   -1.2910  -13.6960  -36.3030 C   0  0  0  0  0  3  0  0  0  0  0  0
   -1.2240  -11.1820  -35.3060 Cl  0  0  0  0  0  0  0  0  0  0  0  0
   -0.6770  -14.8470  -36.7390 C   0  0  0  0  0  3  0  0  0  0  0  0
  1  2  2  0  0  0  0
  2  3  1  0  0  0  0
  3  4  2  0  0  0  0
  5  3  1  0  0  0  0
  5  6  1  0  0  0  0
  7 27  1  0  0  0  0
  7  6  2  0  0  0  0
  8  9  1  0  0  0  0
  8  7  1  0  0  0  0
  9  5  1  0  0  0  0
 10  1  1  0  0  0  0
 10  9  2  0  0  0  0
 11  1  1  0  0  0  0
 12 11  1  0  0  0  0
 13 12  1  0  0  0  0
 14 13  1  0  0  0  0
 15 14  1  0  0  0  0
 15 16  1  0  0  0  0
 16 17  1  0  0  0  0
 17 12  1  0  0  0  0
 18 15  1  0  0  0  0
 18 19  2  0  0  0  0
 20 18  2  0  0  0  0
 21 18  1  0  0  0  0
 21 22  1  0  0  0  0
 23 22  2  0  0  0  0
 24 23  1  0  0  0  0
 25 24  1  0  0  0  0
 25 21  2  0  0  0  0
 26 24  1  0  0  0  0
 27 33  2  0  0  0  0
 27 28  1  0  0  0  0
 28 29  2  0  0  0  0
 29 30  1  0  0  0  0
 30 32  1  0  0  0  0
 31 30  2  0  0  0  0
 33 31  1  0  0  0  0
M  END
>  <Pose>
1

>  <Score>
-6.638

$$$$
