/Users/jonathanwahrer/Desktop/Msc/3_Semester/Drug_Design_Praktikum/waehrer_HTS_screening/HTS_experiment/out/docking_results/vina_output/6y4q/2286_docked.pdbqt
 OpenBabel03232219033D

 31 34  0  0  0  0  0  0  0  0999 V2000
    0.5380  -14.9940  -38.0230 N   0  0  0  0  0  0  0  0  0  0  0  0
   -0.8130  -15.3420  -38.2810 C   0  0  0  0  0  2  0  0  0  0  0  0
   -1.0030  -16.7480  -38.7840 C   0  0  0  0  0  2  0  0  0  0  0  0
   -0.1260  -17.6890  -38.1200 N   0  0  0  0  0  0  0  0  0  0  0  0
    0.5660  -17.1980  -36.9440 C   0  0  0  0  0  2  0  0  0  0  0  0
    1.2810  -15.8980  -37.2200 C   0  0  0  0  0  2  0  0  0  0  0  0
    0.0100  -18.9880  -38.6250 C   0  0  0  0  0  0  0  0  0  0  0  0
   -0.6340  -19.3160  -39.6500 O   0  0  0  0  0  0  0  0  0  0  0  0
    0.8930  -20.0010  -37.9910 C   0  0  0  0  0  2  0  0  0  0  0  0
    2.2120  -20.0020  -38.5600 N   0  0  0  0  0  0  0  0  0  0  0  0
    3.3780  -19.5480  -37.8890 C   0  0  0  0  0  0  0  0  0  0  0  0
    3.3960  -19.0830  -36.6990 O   0  0  0  0  0  0  0  0  0  0  0  0
    4.5350  -19.6710  -38.7050 N   0  0  0  0  0  0  0  0  0  0  0  0
    4.0720  -20.0130  -40.0370 C   0  0  0  0  0  0  0  0  0  0  0  0
    5.9160  -19.4860  -38.2610 C   0  0  0  0  0  1  0  0  0  0  0  0
    4.8170  -21.1800  -40.6180 C   0  0  0  0  0  2  0  0  0  0  0  0
    4.1800  -18.7620  -40.8770 C   0  0  0  0  0  2  0  0  0  0  0  0
    2.6600  -20.4250  -39.8410 C   0  0  0  0  0  0  0  0  0  0  0  0
    6.1050  -20.8030  -41.2890 C   0  0  0  0  0  2  0  0  0  0  0  0
    5.9670  -19.6770  -42.2710 C   0  0  0  0  0  2  0  0  0  0  0  0
    4.5680  -19.1010  -42.2990 C   0  0  0  0  0  2  0  0  0  0  0  0
    1.9390  -21.0490  -40.6550 O   0  0  0  0  0  0  0  0  0  0  0  0
    1.3950  -14.3840  -39.3730 S   0  0  0  0  0  0  0  0  0  0  0  0
    0.4180  -13.9450  -40.4200 O   0  0  0  0  0  0  0  0  0  0  0  0
    2.2840  -15.4320  -39.9750 O   0  0  0  0  0  0  0  0  0  0  0  0
    2.4440  -13.0310  -38.9200 C   0  0  0  0  0  0  0  0  0  0  0  0
    2.3860  -12.0610  -37.5260 S   0  0  0  0  0  0  0  0  0  0  0  0
    3.6960  -11.0280  -37.8530 C   0  0  0  0  0  0  0  0  0  0  0  0
    4.1560  -11.4720  -39.0640 C   0  0  0  0  0  3  0  0  0  0  0  0
    4.3420   -9.6860  -36.8830 Cl  0  0  0  0  0  0  0  0  0  0  0  0
    3.5020  -12.5170  -39.6200 C   0  0  0  0  0  3  0  0  0  0  0  0
  1  6  1  0  0  0  0
  2  1  1  0  0  0  0
  3  2  1  0  0  0  0
  3  4  1  0  0  0  0
  4  5  1  0  0  0  0
  6  5  1  0  0  0  0
  7  4  1  0  0  0  0
  7  9  1  0  0  0  0
  8  7  2  0  0  0  0
 10  9  1  0  0  0  0
 10 11  1  0  0  0  0
 11 12  2  0  0  0  0
 13 15  1  0  0  0  0
 13 11  1  0  0  0  0
 14 18  1  0  0  0  0
 14 13  1  0  0  0  0
 16 14  1  0  0  0  0
 17 14  1  0  0  0  0
 18 10  1  0  0  0  0
 19 16  1  0  0  0  0
 20 19  1  0  0  0  0
 21 20  1  0  0  0  0
 21 17  1  0  0  0  0
 22 18  2  0  0  0  0
 23 26  1  0  0  0  0
 23  1  1  0  0  0  0
 24 23  2  0  0  0  0
 25 23  2  0  0  0  0
 26 27  1  0  0  0  0
 28 27  1  0  0  0  0
 28 30  1  0  0  0  0
 29 28  2  0  0  0  0
 31 29  1  0  0  0  0
 31 26  2  0  0  0  0
M  END
>  <Pose>
1

>  <Score>
-6.285

$$$$
