/Users/jonathanwahrer/Desktop/Msc/3_Semester/Drug_Design_Praktikum/waehrer_HTS_screening/HTS_experiment/out/docking_results/vina_output/6y4q/2298_docked.pdbqt
 OpenBabel03232219043D

 34 37  0  0  0  0  0  0  0  0999 V2000
    0.2360  -18.0380  -38.8790 C   0  0  0  0  0  2  0  0  0  0  0  0
    0.3930  -18.0340  -37.4530 N   0  0  0  0  0  0  0  0  0  0  0  0
    1.5780  -17.3980  -37.0010 C   0  0  0  0  0  2  0  0  0  0  0  0
    1.3800  -16.2140  -36.0940 C   0  0  0  0  0  2  0  0  0  0  0  0
    0.3750  -15.3970  -36.5700 N   0  0  0  0  0  0  0  0  0  0  0  0
   -0.8320  -16.0140  -36.9140 C   0  0  0  0  0  2  0  0  0  0  0  0
   -0.7620  -17.5320  -36.7810 C   0  0  0  0  0  2  0  0  0  0  0  0
    0.5370  -13.7530  -36.7500 S   0  0  0  0  0  0  0  0  0  0  0  0
   -0.7450  -13.0550  -37.1340 O   0  0  0  0  0  0  0  0  0  0  0  0
    1.0280  -13.0390  -35.5100 O   0  0  0  0  0  0  0  0  0  0  0  0
    1.6780  -13.4020  -38.0440 C   0  0  0  0  0  0  0  0  0  0  0  0
    2.6030  -12.4030  -37.9240 C   0  0  0  0  0  3  0  0  0  0  0  0
    3.4930  -12.1260  -38.9280 C   0  0  0  0  0  3  0  0  0  0  0  0
    3.4480  -12.8750  -40.0830 C   0  0  0  0  0  0  0  0  0  0  0  0
    2.5140  -13.8860  -40.2090 C   0  0  0  0  0  3  0  0  0  0  0  0
    4.6010  -12.4960  -41.3510 Cl  0  0  0  0  0  0  0  0  0  0  0  0
    1.6280  -14.1540  -39.1970 C   0  0  0  0  0  3  0  0  0  0  0  0
    0.8720  -19.2530  -39.4910 C   0  0  0  0  0  0  0  0  0  0  0  0
    0.4810  -20.3660  -39.0760 O   0  0  0  0  0  0  0  0  0  0  0  0
    1.8680  -19.1390  -40.4920 N   0  0  0  0  0  0  0  0  0  0  0  0
    2.1510  -18.1700  -40.7990 H   0  0  0  0  0  0  0  0  0  0  0  0
    2.4210  -20.3520  -41.0200 C   0  0  0  0  0  2  0  0  0  0  0  0
    3.8490  -20.6140  -40.7280 C   0  0  0  0  0  0  0  0  0  0  0  0
    3.9600  -21.4530  -39.4780 C   0  0  0  0  0  2  0  0  0  0  0  0
    4.0960  -20.5940  -38.2160 C   0  0  0  0  0  2  0  0  0  0  0  0
    5.4300  -19.8740  -38.2150 C   0  0  0  0  0  2  0  0  0  0  0  0
    5.7870  -19.5820  -39.6610 C   0  0  0  0  0  2  0  0  0  0  0  0
    4.4810  -19.2590  -40.3570 C   0  0  0  0  0  2  0  0  0  0  0  0
    4.6500  -21.1550  -41.7570 N   0  0  0  0  0  0  0  0  0  0  0  0
    4.6940  -22.5660  -41.9090 C   0  0  0  0  0  2  0  0  0  0  0  0
    5.9380  -22.8610  -42.7660 C   0  0  0  0  0  2  0  0  0  0  0  0
    5.7960  -22.2980  -44.0120 O   0  0  0  0  0  0  0  0  0  0  0  0
    4.6360  -21.5870  -44.1850 C   0  0  0  0  0  2  0  0  0  0  0  0
    4.4070  -20.5760  -43.0610 C   0  0  0  0  0  2  0  0  0  0  0  0
  1  2  1  0  0  0  0
  2  3  1  0  0  0  0
  2  7  1  0  0  0  0
  3  4  1  0  0  0  0
  5  4  1  0  0  0  0
  6  7  1  0  0  0  0
  6  5  1  0  0  0  0
  8  5  1  0  0  0  0
  8 10  2  0  0  0  0
  9  8  2  0  0  0  0
 11 12  1  0  0  0  0
 11  8  1  0  0  0  0
 13 12  2  0  0  0  0
 14 13  1  0  0  0  0
 15 14  2  0  0  0  0
 15 17  1  0  0  0  0
 16 14  1  0  0  0  0
 17 11  2  0  0  0  0
 18 19  2  0  0  0  0
 18  1  1  0  0  0  0
 20 18  1  0  0  0  0
 21 20  1  0  0  0  0
 22 23  1  0  0  0  0
 22 20  1  0  0  0  0
 23 28  1  0  0  0  0
 23 24  1  0  0  0  0
 24 25  1  0  0  0  0
 25 26  1  0  0  0  0
 27 26  1  0  0  0  0
 28 27  1  0  0  0  0
 29 23  1  0  0  0  0
 30 29  1  0  0  0  0
 31 30  1  0  0  0  0
 32 31  1  0  0  0  0
 33 32  1  0  0  0  0
 33 34  1  0  0  0  0
 34 29  1  0  0  0  0
M  END
>  <Pose>
1

>  <Score>
-6.242

$$$$
