/Users/jonathanwahrer/Desktop/Msc/3_Semester/Drug_Design_Praktikum/waehrer_HTS_screening/HTS_experiment/out/docking_results/vina_output/6y4q/2301_docked.pdbqt
 OpenBabel03232219043D

 24 27  0  0  1  0  0  0  0  0999 V2000
    1.0300  -17.2370  -37.9960 C   0  0  2  0  0  0  0  0  0  0  0  0
    1.0480  -16.0010  -38.8330 C   0  0  0  0  0  2  0  0  0  0  0  0
    1.9650  -14.9370  -38.2060 C   0  0  0  0  0  2  0  0  0  0  0  0
    1.2770  -14.6210  -36.9450 N   0  0  0  0  0  0  0  0  0  0  0  0
    1.2460  -15.6930  -36.0020 C   0  0  0  0  0  2  0  0  0  0  0  0
    0.7200  -16.9800  -36.5690 C   0  0  0  0  0  2  0  0  0  0  0  0
    2.2520  -18.0190  -38.2460 C   0  0  0  0  0  0  0  0  0  0  0  0
    2.7360  -18.3730  -39.4720 C   0  0  0  0  0  3  0  0  0  0  0  0
    3.8870  -19.1060  -39.5570 C   0  0  0  0  0  3  0  0  0  0  0  0
    4.6190  -19.5250  -38.4540 C   0  0  0  0  0  0  0  0  0  0  0  0
    6.0960  -20.4530  -38.6120 Cl  0  0  0  0  0  0  0  0  0  0  0  0
    4.1250  -19.1650  -37.2240 C   0  0  0  0  0  3  0  0  0  0  0  0
    2.9630  -18.4260  -37.1180 C   0  0  0  0  0  3  0  0  0  0  0  0
   -0.0190  -18.0360  -38.5170 O   0  0  0  0  0  0  0  0  0  0  0  0
    0.1800  -18.9850  -38.2450 H   0  0  0  0  0  0  0  0  0  0  0  0
    0.7220  -13.3300  -36.7770 C   0  0  0  0  0  0  0  0  0  0  0  0
    0.0400  -13.0420  -35.6550 N   0  0  0  0  0  0  0  0  0  0  0  0
   -0.5120  -11.8770  -35.3770 N   0  0  0  0  0  0  0  0  0  0  0  0
   -1.2110  -11.3830  -34.3520 N   0  0  0  0  0  0  0  0  0  0  0  0
   -0.4090  -10.8810  -36.2540 C   0  0  0  0  0  0  0  0  0  0  0  0
   -1.5360  -10.1290  -34.5750 N   0  0  0  0  0  0  0  0  0  0  0  0
   -1.0490   -9.8010  -35.7410 N   0  0  0  0  0  0  0  0  0  0  0  0
    0.2790  -11.1020  -37.4350 C   0  0  0  0  0  3  0  0  0  0  0  0
    0.8500  -12.3270  -37.7090 C   0  0  0  0  0  3  0  0  0  0  0  0
  1 14  1  6  0  0  0
  1  6  1  0  0  0  0
  2  3  1  0  0  0  0
  2  1  1  0  0  0  0
  3  4  1  0  0  0  0
  4 16  1  0  0  0  0
  4  5  1  0  0  0  0
  6  5  1  0  0  0  0
  7  1  1  0  0  0  0
  7 13  1  0  0  0  0
  8  7  2  0  0  0  0
  9  8  1  0  0  0  0
  9 10  2  0  0  0  0
 10 12  1  0  0  0  0
 11 10  1  0  0  0  0
 12 13  2  0  0  0  0
 14 15  1  0  0  0  0
 16 17  2  0  0  0  0
 17 18  1  0  0  0  0
 18 19  1  0  0  0  0
 20 22  2  0  0  0  0
 20 18  1  0  0  0  0
 21 19  2  0  0  0  0
 22 21  1  0  0  0  0
 23 20  1  0  0  0  0
 24 23  2  0  0  0  0
 24 16  1  0  0  0  0
M  END
>  <Pose>
1

>  <Score>
-6.242

$$$$
