/Users/jonathanwahrer/Desktop/Msc/3_Semester/Drug_Design_Praktikum/waehrer_HTS_screening/HTS_experiment/out/docking_results/vina_output/6y4q/2319_docked.pdbqt
 OpenBabel03232219043D

 33 36  0  0  0  0  0  0  0  0999 V2000
    3.4730  -19.9760  -37.5220 N   0  0  0  0  0  0  0  0  0  0  0  0
    2.5700  -18.8900  -37.5000 C   0  0  0  0  0  0  0  0  0  0  0  0
    1.7730  -18.7100  -38.4450 O   0  0  0  0  0  0  0  0  0  0  0  0
    4.1630  -20.1870  -36.7700 H   0  0  0  0  0  0  0  0  0  0  0  0
    2.5180  -17.9140  -36.3660 C   0  0  0  0  0  2  0  0  0  0  0  0
    2.1840  -16.5900  -36.8120 N   0  0  0  0  0  0  0  0  0  0  0  0
    0.9700  -15.9400  -36.4600 C   0  0  0  0  0  0  0  0  0  0  0  0
    0.1590  -16.5520  -35.7310 O   0  0  0  0  0  0  0  0  0  0  0  0
    2.8350  -16.0410  -37.4220 H   0  0  0  0  0  0  0  0  0  0  0  0
    0.6080  -14.5650  -36.9180 C   0  0  0  0  0  0  0  0  0  0  0  0
    0.9810  -14.3410  -38.2450 O   0  0  0  0  0  0  0  0  0  0  0  0
    2.0070  -13.4910  -38.6510 C   0  0  0  0  0  0  0  0  0  0  0  0
    2.4270  -12.5500  -37.7490 C   0  0  0  0  0  0  0  0  0  0  0  0
    2.5870  -13.5610  -39.8820 C   0  0  0  0  0  3  0  0  0  0  0  0
    3.4520  -11.6830  -38.1290 C   0  0  0  0  0  3  0  0  0  0  0  0
    1.8410  -12.4830  -36.5150 O   0  0  0  0  0  0  0  0  0  0  0  0
    4.0480  -11.7420  -39.3690 C   0  0  0  0  0  3  0  0  0  0  0  0
    3.5980  -12.7040  -40.2520 C   0  0  0  0  0  3  0  0  0  0  0  0
    1.0590  -13.5100  -35.9710 C   0  0  0  0  0  3  0  0  0  0  0  0
    3.4450  -20.8310  -38.6280 N   0  0  0  0  0  0  0  0  0  0  0  0
    4.3760  -20.8580  -39.5070 C   0  0  0  0  0  0  0  0  0  0  0  0
    4.5120  -21.6710  -40.7060 C   0  0  0  0  0  0  0  0  0  0  0  0
    5.5710  -20.0080  -39.4670 C   0  0  0  0  0  0  0  0  0  0  0  0
    5.6850  -21.3750  -41.3780 C   0  0  0  0  0  0  0  0  0  0  0  0
    3.7110  -22.6420  -41.2680 C   0  0  0  0  0  3  0  0  0  0  0  0
    6.0430  -22.0100  -42.5490 C   0  0  0  0  0  0  0  0  0  0  0  0
    6.3230  -20.3580  -40.6120 N   0  0  0  0  0  0  0  0  0  0  0  0
    7.6680  -21.5860  -43.4680 Br  0  0  0  0  0  0  0  0  0  0  0  0
    5.2120  -22.9890  -43.0940 C   0  0  0  0  0  3  0  0  0  0  0  0
    4.0340  -23.2980  -42.4340 C   0  0  0  0  0  0  0  0  0  0  0  0
    2.8770  -24.6350  -43.1600 Br  0  0  0  0  0  0  0  0  0  0  0  0
    7.2290  -19.9280  -40.8650 H   0  0  0  0  0  0  0  0  0  0  0  0
    5.8030  -19.1640  -38.5600 O   0  0  0  0  0  0  0  0  0  0  0  0
  1  2  1  0  0  0  0
  1  4  1  0  0  0  0
  2  5  1  0  0  0  0
  3  2  2  0  0  0  0
  6  7  1  0  0  0  0
  6  5  1  0  0  0  0
  7  8  2  0  0  0  0
  9  6  1  0  0  0  0
 10  7  1  0  0  0  0
 10 19  2  0  0  0  0
 11 10  1  0  0  0  0
 12 11  1  0  0  0  0
 12 13  1  0  0  0  0
 13 16  1  0  0  0  0
 14 12  2  0  0  0  0
 15 13  2  0  0  0  0
 16 19  1  0  0  0  0
 17 15  1  0  0  0  0
 18 14  1  0  0  0  0
 18 17  2  0  0  0  0
 20  1  1  0  0  0  0
 21 23  1  0  0  0  0
 21 20  2  0  0  0  0
 22 21  1  0  0  0  0
 23 33  2  0  0  0  0
 24 22  2  0  0  0  0
 24 27  1  0  0  0  0
 25 22  1  0  0  0  0
 26 24  1  0  0  0  0
 27 23  1  0  0  0  0
 28 26  1  0  0  0  0
 29 26  2  0  0  0  0
 29 30  1  0  0  0  0
 30 25  2  0  0  0  0
 31 30  1  0  0  0  0
 32 27  1  0  0  0  0
M  END
>  <Pose>
1

>  <Score>
-7.325

$$$$
