/Users/jonathanwahrer/Desktop/Msc/3_Semester/Drug_Design_Praktikum/waehrer_HTS_screening/HTS_experiment/out/docking_results/vina_output/6y4q/2334_docked.pdbqt
 OpenBabel03232219053D

 30 33  0  0  1  0  0  0  0  0999 V2000
    0.1150  -15.9800  -39.6180 S   0  0  0  0  0  0  0  0  0  0  0  0
    0.7960  -15.6220  -40.9410 O   0  0  0  0  0  0  0  0  0  0  0  0
   -1.3660  -15.6730  -39.8680 O   0  0  0  0  0  0  0  0  0  0  0  0
    0.3350  -17.6460  -39.3970 N   0  0  0  0  0  0  0  0  0  0  0  0
    1.1970  -18.0420  -38.3420 C   0  0  0  0  0  2  0  0  0  0  0  0
    1.3110  -19.5410  -38.1940 C   0  0  1  0  0  3  0  0  0  0  0  0
   -0.0370  -20.1510  -38.0230 C   0  0  0  0  0  2  0  0  0  0  0  0
   -1.0110  -19.6720  -39.0860 C   0  0  0  0  0  2  0  0  0  0  0  0
   -1.0100  -18.1830  -39.1030 C   0  0  0  0  0  2  0  0  0  0  0  0
    2.1650  -20.1860  -39.2120 C   0  0  0  0  0  0  0  0  0  0  0  0
    1.5940  -20.3980  -40.3460 O   0  0  0  0  0  0  0  0  0  0  0  0
    3.4900  -20.5760  -39.0820 N   0  0  0  0  0  0  0  0  0  0  0  0
    4.2140  -21.1600  -40.1680 C   0  0  0  0  0  2  0  0  0  0  0  0
    4.2090  -20.4320  -37.8400 C   0  0  0  0  0  2  0  0  0  0  0  0
    5.6620  -20.7570  -40.2150 C   0  0  0  0  0  2  0  0  0  0  0  0
    6.2000  -20.3610  -39.0310 O   0  0  0  0  0  0  0  0  0  0  0  0
    5.4140  -19.5600  -38.2280 C   0  0  0  0  0  2  0  0  0  0  0  0
    0.6670  -14.9370  -38.3760 C   0  0  0  0  0  0  0  0  0  0  0  0
    0.2030  -15.0070  -37.0860 C   0  0  0  0  0  0  0  0  0  0  0  0
    0.7370  -14.1780  -36.1110 C   0  0  0  0  0  3  0  0  0  0  0  0
   -1.1150  -16.0490  -36.5910 Cl  0  0  0  0  0  0  0  0  0  0  0  0
    1.7480  -13.2600  -36.4100 C   0  0  0  0  0  3  0  0  0  0  0  0
    2.2210  -13.1770  -37.7000 C   0  0  0  0  0  0  0  0  0  0  0  0
    1.6780  -14.0080  -38.6520 C   0  0  0  0  0  3  0  0  0  0  0  0
    3.2720  -12.2280  -38.0400 C   0  0  0  0  0  0  0  0  0  0  0  0
    3.8850  -11.3860  -37.1910 N   0  0  0  0  0  0  0  0  0  0  0  0
    4.7750  -10.6790  -37.8310 O   0  0  0  0  0  0  0  0  0  0  0  0
    4.7710  -11.0290  -39.0890 C   0  0  0  0  0  0  0  0  0  0  0  0
    3.8400  -11.9920  -39.2340 N   0  0  0  0  0  0  0  0  0  0  0  0
    5.6370  -10.4700  -40.1840 C   0  0  0  0  0  1  0  0  0  0  0  0
  1  4  1  0  0  0  0
  1 18  1  0  0  0  0
  2  1  2  0  0  0  0
  3  1  2  0  0  0  0
  4  9  1  0  0  0  0
  4  5  1  0  0  0  0
  5  6  1  0  0  0  0
  6 10  1  6  0  0  0
  6  7  1  0  0  0  0
  8  7  1  0  0  0  0
  9  8  1  0  0  0  0
 10 12  1  0  0  0  0
 11 10  2  0  0  0  0
 12 14  1  0  0  0  0
 13 12  1  0  0  0  0
 15 13  1  0  0  0  0
 15 16  1  0  0  0  0
 16 17  1  0  0  0  0
 17 14  1  0  0  0  0
 18 19  1  0  0  0  0
 19 21  1  0  0  0  0
 19 20  2  0  0  0  0
 22 20  1  0  0  0  0
 23 22  2  0  0  0  0
 24 18  2  0  0  0  0
 24 23  1  0  0  0  0
 25 23  1  0  0  0  0
 25 26  2  0  0  0  0
 27 26  1  0  0  0  0
 28 27  1  0  0  0  0
 29 28  2  0  0  0  0
 29 25  1  0  0  0  0
 30 28  1  0  0  0  0
M  END
>  <Pose>
1

>  <Score>
-6.960

$$$$
