/Users/jonathanwahrer/Desktop/Msc/3_Semester/Drug_Design_Praktikum/waehrer_HTS_screening/HTS_experiment/out/docking_results/vina_output/6y4q/2335_docked.pdbqt
 OpenBabel03232219053D

 35 38  0  0  1  0  0  0  0  0999 V2000
   -1.6960  -19.4460  -38.9210 N   0  0  0  0  0  0  0  0  0  0  0  0
   -2.1180  -20.6850  -38.3980 C   0  0  0  0  0  2  0  0  0  0  0  0
   -1.6200  -21.8770  -39.1860 C   0  0  2  0  0  3  0  0  0  0  0  0
   -1.3670  -21.5960  -40.6180 C   0  0  0  0  0  2  0  0  0  0  0  0
   -1.9660  -20.3590  -41.1800 C   0  0  0  0  0  3  0  0  0  0  0  0
   -1.9850  -19.1660  -40.2580 C   0  0  0  0  0  3  0  0  0  0  0  0
   -0.8200  -18.3990  -37.9740 S   0  0  0  0  0  0  0  0  0  0  0  0
   -1.4160  -18.3960  -36.5680 O   0  0  0  0  0  0  0  0  0  0  0  0
   -1.0690  -16.9790  -38.4680 O   0  0  0  0  0  0  0  0  0  0  0  0
    0.8850  -18.6540  -37.9000 C   0  0  0  0  0  0  0  0  0  0  0  0
    1.4760  -19.6440  -38.6700 C   0  0  0  0  0  3  0  0  0  0  0  0
    2.8300  -19.8780  -38.6580 C   0  0  0  0  0  0  0  0  0  0  0  0
    3.6440  -19.0890  -37.8370 C   0  0  0  0  0  0  0  0  0  0  0  0
    3.7110  -20.7780  -39.3150 N   0  0  0  0  0  0  0  0  0  0  0  0
    3.0560  -18.1240  -37.0870 C   0  0  0  0  0  3  0  0  0  0  0  0
    5.0670  -19.5030  -37.9680 C   0  0  0  0  0  2  0  0  0  0  0  0
    1.6910  -17.8880  -37.1010 C   0  0  0  0  0  0  0  0  0  0  0  0
    0.9680  -16.4880  -35.9880 Br  0  0  0  0  0  0  0  0  0  0  0  0
    4.9260  -20.9140  -38.5030 C   0  0  0  0  0  2  0  0  0  0  0  0
    3.5200  -21.4460  -40.5230 C   0  0  0  0  0  0  0  0  0  0  0  0
    4.4510  -22.1870  -40.9910 O   0  0  0  0  0  0  0  0  0  0  0  0
    2.2980  -21.3600  -41.3200 C   0  0  0  0  0  2  0  0  0  0  0  0
    2.0440  -22.6390  -42.1150 C   0  0  0  0  0  1  0  0  0  0  0  0
   -2.5470  -23.0290  -39.0470 C   0  0  0  0  0  0  0  0  0  0  0  0
   -3.6700  -22.9520  -39.6020 O   0  0  0  0  0  0  0  0  0  0  0  0
   -2.1540  -24.1980  -38.2930 N   0  0  0  0  0  0  0  0  0  0  0  0
   -1.2220  -24.1540  -37.8730 H   0  0  0  0  0  0  0  0  0  0  0  0
   -3.0880  -25.2600  -38.2040 C   0  0  0  0  0  2  0  0  0  0  0  0
   -2.5910  -26.6560  -38.2000 C   0  0  0  0  0  2  0  0  0  0  0  0
   -2.1110  -27.2230  -39.4060 N   0  0  0  0  0  0  0  0  0  0  0  0
   -0.7410  -27.2220  -39.6380 C   0  0  0  0  0  2  0  0  0  0  0  0
   -0.2530  -26.3820  -40.7830 C   0  0  0  0  0  2  0  0  0  0  0  0
   -1.0950  -26.4400  -41.8840 O   0  0  0  0  0  0  0  0  0  0  0  0
   -2.3130  -25.8960  -41.4790 C   0  0  0  0  0  2  0  0  0  0  0  0
   -2.9470  -26.8930  -40.5370 C   0  0  0  0  0  2  0  0  0  0  0  0
  1  2  1  0  0  0  0
  1  7  1  0  0  0  0
  3 24  1  6  0  0  0
  3  2  1  0  0  0  0
  4  3  1  0  0  0  0
  5  4  1  0  0  0  0
  5  6  2  0  0  0  0
  6  1  1  0  0  0  0
  7 10  1  0  0  0  0
  7  8  2  0  0  0  0
  9  7  2  0  0  0  0
 10 17  1  0  0  0  0
 11 12  1  0  0  0  0
 11 10  2  0  0  0  0
 12 13  2  0  0  0  0
 13 15  1  0  0  0  0
 14 12  1  0  0  0  0
 14 19  1  0  0  0  0
 16 13  1  0  0  0  0
 17 15  2  0  0  0  0
 17 18  1  0  0  0  0
 19 16  1  0  0  0  0
 20 14  1  0  0  0  0
 21 20  2  0  0  0  0
 22 20  1  0  0  0  0
 23 22  1  0  0  0  0
 24 26  1  0  0  0  0
 25 24  2  0  0  0  0
 26 28  1  0  0  0  0
 26 27  1  0  0  0  0
 28 29  1  0  0  0  0
 30 29  1  0  0  0  0
 31 30  1  0  0  0  0
 32 31  1  0  0  0  0
 33 34  1  0  0  0  0
 33 32  1  0  0  0  0
 34 35  1  0  0  0  0
 35 30  1  0  0  0  0
M  END
>  <Pose>
1

>  <Score>
-6.118

$$$$
