/Users/jonathanwahrer/Desktop/Msc/3_Semester/Drug_Design_Praktikum/waehrer_HTS_screening/HTS_experiment/out/docking_results/vina_output/6y4q/2345_docked.pdbqt
 OpenBabel03232219063D

 27 30  0  0  1  0  0  0  0  0999 V2000
    2.1540  -17.8010  -36.8650 C   0  0  0  0  0  0  0  0  0  0  0  0
    2.8390  -17.5710  -35.7990 O   0  0  0  0  0  0  0  0  0  0  0  0
    2.4650  -18.9760  -37.5570 N   0  0  0  0  0  0  0  0  0  0  0  0
    3.5180  -19.8540  -37.0730 C   0  0  0  0  0  2  0  0  0  0  0  0
    4.5790  -20.0600  -38.1500 C   0  0  0  0  0  2  0  0  0  0  0  0
    3.9440  -20.0720  -39.4350 N   0  0  0  0  0  0  0  0  0  0  0  0
    2.5710  -20.4680  -39.5190 C   0  0  0  0  0  2  0  0  0  0  0  0
    1.7790  -19.3850  -38.7600 C   0  0  0  0  0  2  0  0  0  0  0  0
    1.1350  -16.8070  -37.2230 C   0  0  2  0  0  3  0  0  0  0  0  0
    1.5450  -15.8340  -38.2930 C   0  0  0  0  0  2  0  0  0  0  0  0
    1.6330  -14.5280  -37.6500 N   0  0  0  0  0  0  0  0  0  0  0  0
    0.7360  -14.5990  -36.5200 C   0  0  0  0  0  0  0  0  0  0  0  0
    0.5820  -16.0080  -36.0900 C   0  0  0  0  0  2  0  0  0  0  0  0
    0.2090  -13.5420  -36.0420 O   0  0  0  0  0  0  0  0  0  0  0  0
    2.4250  -13.4090  -38.0350 C   0  0  0  0  0  0  0  0  0  0  0  0
    2.8350  -12.4520  -37.1320 C   0  0  0  0  0  3  0  0  0  0  0  0
    3.6000  -11.3620  -37.5030 C   0  0  0  0  0  3  0  0  0  0  0  0
    3.9820  -11.2010  -38.8080 C   0  0  0  0  0  0  0  0  0  0  0  0
    4.9580   -9.8170  -39.2990 Cl  0  0  0  0  0  0  0  0  0  0  0  0
    3.5930  -12.1320  -39.7310 C   0  0  0  0  0  3  0  0  0  0  0  0
    2.8160  -13.2330  -39.3450 C   0  0  0  0  0  3  0  0  0  0  0  0
    4.6500  -19.6940  -40.5960 C   0  0  0  0  0  0  0  0  0  0  0  0
    5.4810  -20.4790  -41.3360 N   0  0  0  0  0  0  0  0  0  0  0  0
    5.9550  -19.7640  -42.3640 C   0  0  0  0  0  3  0  0  0  0  0  0
    5.8060  -21.8820  -41.0470 C   0  0  0  0  0  1  0  0  0  0  0  0
    5.4250  -18.4980  -42.2880 C   0  0  0  0  0  3  0  0  0  0  0  0
    4.6500  -18.4980  -41.2170 N   0  0  0  0  0  0  0  0  0  0  0  0
  1  2  2  0  0  0  0
  3  4  1  0  0  0  0
  3  1  1  0  0  0  0
  5  4  1  0  0  0  0
  6  5  1  0  0  0  0
  7  6  1  0  0  0  0
  7  8  1  0  0  0  0
  8  3  1  0  0  0  0
  9  1  1  1  0  0  0
  9 13  1  0  0  0  0
 10 11  1  0  0  0  0
 10  9  1  0  0  0  0
 11 12  1  0  0  0  0
 12 13  1  0  0  0  0
 12 14  2  0  0  0  0
 15 11  1  0  0  0  0
 15 16  1  0  0  0  0
 17 16  2  0  0  0  0
 18 17  1  0  0  0  0
 19 18  1  0  0  0  0
 20 21  1  0  0  0  0
 20 18  2  0  0  0  0
 21 15  2  0  0  0  0
 22  6  1  0  0  0  0
 23 25  1  0  0  0  0
 23 22  1  0  0  0  0
 24 26  2  0  0  0  0
 24 23  1  0  0  0  0
 26 27  1  0  0  0  0
 27 22  2  0  0  0  0
M  END
>  <Pose>
1

>  <Score>
-7.204

$$$$
