/Users/jonathanwahrer/Desktop/Msc/3_Semester/Drug_Design_Praktikum/waehrer_HTS_screening/HTS_experiment/out/docking_results/vina_output/6y4q/2350_docked.pdbqt
 OpenBabel03232219063D

 23 26  0  0  1  0  0  0  0  0999 V2000
    2.7580  -18.8780  -37.8150 N   0  0  0  0  0  0  0  0  0  0  0  0
    2.3080  -19.9930  -38.6010 C   0  0  0  0  0  0  0  0  0  0  0  0
    1.1900  -20.0280  -39.1730 O   0  0  0  0  0  0  0  0  0  0  0  0
    3.3350  -21.0650  -38.6290 C   0  0  1  0  0  3  0  0  0  0  0  0
    3.8970  -21.3240  -39.9890 C   0  0  1  0  0  3  0  0  0  0  0  0
    3.8500  -20.0170  -40.7540 C   0  0  1  0  0  3  0  0  0  0  0  0
    4.8370  -19.1650  -39.9570 C   0  0  1  0  0  3  0  0  0  0  0  0
    5.4460  -20.0860  -38.9260 C   0  0  1  0  0  3  0  0  0  0  0  0
    4.4980  -20.4610  -37.8320 C   0  0  1  0  0  3  0  0  0  0  0  0
    3.9120  -19.3060  -37.1100 C   0  0  0  0  0  0  0  0  0  0  0  0
    4.3860  -18.8170  -36.0550 O   0  0  0  0  0  0  0  0  0  0  0  0
    5.4130  -21.3980  -39.7430 C   0  0  0  0  0  2  0  0  0  0  0  0
    2.2030  -17.5730  -37.7230 C   0  0  0  0  0  0  0  0  0  0  0  0
    2.0630  -16.7770  -38.8660 C   0  0  0  0  0  3  0  0  0  0  0  0
    1.5350  -15.5110  -38.7820 C   0  0  0  0  0  3  0  0  0  0  0  0
    1.1240  -14.9800  -37.5730 C   0  0  0  0  0  0  0  0  0  0  0  0
    0.4540  -13.3530  -37.4940 Cl  0  0  0  0  0  0  0  0  0  0  0  0
    1.2520  -15.7500  -36.4260 C   0  0  0  0  0  3  0  0  0  0  0  0
    1.7840  -17.0120  -36.5390 C   0  0  0  0  0  3  0  0  0  0  0  0
    4.4000  -20.2370  -41.9980 O   0  0  0  0  0  0  0  0  0  0  0  0
    5.1910  -19.6880  -42.2080 H   0  0  0  0  0  0  0  0  0  0  0  0
    5.8900  -18.7370  -40.7630 O   0  0  0  0  0  0  0  0  0  0  0  0
    5.9780  -19.4010  -41.5120 H   0  0  0  0  0  0  0  0  0  0  0  0
  1 13  1  0  0  0  0
  1 10  1  0  0  0  0
  2  1  1  0  0  0  0
  3  2  2  0  0  0  0
  4  2  1  6  0  0  0
  4  9  1  0  0  0  0
  5 12  1  1  0  0  0
  5  4  1  0  0  0  0
  6 20  1  6  0  0  0
  6  5  1  0  0  0  0
  6  7  1  0  0  0  0
  7 22  1  6  0  0  0
  7  8  1  0  0  0  0
  8 12  1  6  0  0  0
  8  9  1  0  0  0  0
  9 10  1  6  0  0  0
 10 11  2  0  0  0  0
 13 19  1  0  0  0  0
 14 15  1  0  0  0  0
 14 13  2  0  0  0  0
 15 16  2  0  0  0  0
 16 17  1  0  0  0  0
 16 18  1  0  0  0  0
 19 18  2  0  0  0  0
 21 20  1  0  0  0  0
 23 22  1  0  0  0  0
M  END
>  <Pose>
1

>  <Score>
-5.817

$$$$
