/Users/jonathanwahrer/Desktop/Msc/3_Semester/Drug_Design_Praktikum/waehrer_HTS_screening/HTS_experiment/out/docking_results/vina_output/6y4q/2361_docked.pdbqt
 OpenBabel03232219073D

 30 33  0  0  1  0  0  0  0  0999 V2000
    0.4930  -15.4830  -37.3790 N   0  0  0  0  0  0  0  0  0  0  0  0
   -0.8650  -15.4090  -37.7750 C   0  0  0  0  0  0  0  0  0  0  0  0
   -1.3100  -14.3650  -38.3140 O   0  0  0  0  0  0  0  0  0  0  0  0
   -1.7170  -16.5450  -37.5510 N   0  0  0  0  0  0  0  0  0  0  0  0
   -1.2150  -17.7270  -36.9420 C   0  0  0  0  0  0  0  0  0  0  0  0
   -2.0200  -18.5590  -36.4530 O   0  0  0  0  0  0  0  0  0  0  0  0
    0.2380  -17.9550  -36.8950 C   0  0  2  0  0  3  0  0  0  0  0  0
    0.9590  -16.6770  -36.7740 C   0  0  0  0  0  0  0  0  0  0  0  0
    2.0470  -16.6250  -36.1030 O   0  0  0  0  0  0  0  0  0  0  0  0
   -2.7220  -16.5340  -37.8270 H   0  0  0  0  0  0  0  0  0  0  0  0
    0.7030  -18.6960  -38.1160 C   0  0  1  0  0  3  0  0  0  0  0  0
    1.0170  -19.9600  -38.2290 C   0  0  0  0  0  2  0  0  0  0  0  0
    1.4200  -20.2370  -39.6160 C   0  0  1  0  0  3  0  0  0  0  0  0
    0.9620  -19.0890  -40.3470 N   0  0  0  0  0  0  0  0  0  0  0  0
    0.8630  -18.0750  -39.3810 N   0  0  0  0  0  0  0  0  0  0  0  0
    0.0680  -19.2520  -40.8190 H   0  0  0  0  0  0  0  0  0  0  0  0
    0.9080  -17.0610  -39.6300 H   0  0  0  0  0  0  0  0  0  0  0  0
    2.9040  -20.2960  -39.6350 C   0  0  0  0  0  0  0  0  0  0  0  0
    3.5980  -19.9290  -40.7630 C   0  0  0  0  0  3  0  0  0  0  0  0
    4.9590  -19.9810  -40.7860 N   0  0  0  0  0  0  0  0  0  0  0  0
    5.6830  -20.3870  -39.7310 C   0  0  0  0  0  3  0  0  0  0  0  0
    5.0200  -20.7630  -38.5850 C   0  0  0  0  0  3  0  0  0  0  0  0
    3.6190  -20.7140  -38.5440 C   0  0  0  0  0  3  0  0  0  0  0  0
    1.3850  -14.3610  -37.5810 C   0  0  0  0  0  0  0  0  0  0  0  0
    1.6480  -13.4480  -36.5820 C   0  0  0  0  0  3  0  0  0  0  0  0
    2.5060  -12.3740  -36.7920 C   0  0  0  0  0  3  0  0  0  0  0  0
    3.1260  -12.1860  -38.0090 C   0  0  0  0  0  0  0  0  0  0  0  0
    4.2110  -10.8330  -38.2780 Cl  0  0  0  0  0  0  0  0  0  0  0  0
    2.8590  -13.1010  -39.0050 C   0  0  0  0  0  3  0  0  0  0  0  0
    2.0050  -14.1680  -38.7950 C   0  0  0  0  0  3  0  0  0  0  0  0
  1  8  1  0  0  0  0
  2  4  1  0  0  0  0
  2  1  1  0  0  0  0
  3  2  2  0  0  0  0
  4  5  1  0  0  0  0
  5  6  2  0  0  0  0
  7  5  1  6  0  0  0
  7  8  1  0  0  0  0
  8  9  2  0  0  0  0
 10  4  1  0  0  0  0
 11 12  1  6  0  0  0
 11  7  1  0  0  0  0
 13 18  1  1  0  0  0
 13 12  1  0  0  0  0
 14 13  1  0  0  0  0
 14 15  1  0  0  0  0
 15 11  1  0  0  0  0
 16 14  1  0  0  0  0
 17 15  1  0  0  0  0
 18 23  1  0  0  0  0
 19 18  2  0  0  0  0
 20 19  1  0  0  0  0
 20 21  2  0  0  0  0
 21 22  1  0  0  0  0
 22 23  2  0  0  0  0
 24  1  1  0  0  0  0
 24 25  1  0  0  0  0
 26 25  2  0  0  0  0
 27 26  1  0  0  0  0
 28 27  1  0  0  0  0
 29 30  1  0  0  0  0
 29 27  2  0  0  0  0
 30 24  2  0  0  0  0
M  END
>  <Pose>
1

>  <Score>
-6.547

$$$$
