/Users/jonathanwahrer/Desktop/Msc/3_Semester/Drug_Design_Praktikum/waehrer_HTS_screening/HTS_experiment/out/docking_results/vina_output/6y4q/2364_docked.pdbqt
 OpenBabel03232219083D

 33 37  0  0  1  0  0  0  0  0999 V2000
    0.5620  -15.4680  -36.8730 N   0  0  0  0  0  0  0  0  0  0  0  0
   -0.7850  -15.3770  -37.3200 C   0  0  0  0  0  0  0  0  0  0  0  0
   -1.4320  -14.2960  -37.1350 O   0  0  0  0  0  0  0  0  0  0  0  0
   -1.4880  -16.4730  -37.9930 C   0  0  1  0  0  3  0  0  0  0  0  0
   -0.8120  -17.7280  -37.9670 N   0  0  1  0  0  0  0  0  0  0  0  0
    0.6140  -17.6830  -37.9920 C   0  0  2  0  0  0  0  0  0  0  0  0
    1.2510  -17.6470  -39.3600 C   0  0  0  0  0  2  0  0  0  0  0  0
    1.7580  -18.9650  -39.1530 N   0  0  0  0  0  0  0  0  0  0  0  0
    1.1680  -19.0930  -37.8790 C   0  0  0  0  0  2  0  0  0  0  0  0
    1.2040  -16.7300  -37.0160 C   0  0  0  0  0  0  0  0  0  0  0  0
    2.2250  -16.9890  -36.3300 O   0  0  0  0  0  0  0  0  0  0  0  0
   -1.2490  -18.4500  -36.8080 C   0  0  0  0  0  2  0  0  0  0  0  0
   -2.2990  -17.6290  -36.1160 C   0  0  1  0  0  3  0  0  0  0  0  0
   -2.7830  -16.7160  -37.2050 C   0  0  0  0  0  2  0  0  0  0  0  0
    1.5610  -19.9510  -40.1520 C   0  0  0  0  0  2  0  0  0  0  0  0
    2.7500  -20.7130  -40.5510 C   0  0  0  0  0  0  0  0  0  0  0  0
    3.8190  -20.8170  -39.6960 C   0  0  0  0  0  3  0  0  0  0  0  0
    4.9640  -21.5370  -40.0500 C   0  0  0  0  0  0  0  0  0  0  0  0
    5.0140  -22.1500  -41.2810 C   0  0  0  0  0  3  0  0  0  0  0  0
    3.9580  -22.0630  -42.1560 C   0  0  0  0  0  3  0  0  0  0  0  0
    2.8320  -21.3380  -41.7710 C   0  0  0  0  0  3  0  0  0  0  0  0
    6.0410  -21.6430  -39.1930 O   0  0  0  0  0  0  0  0  0  0  0  0
    6.4000  -20.5160  -38.4150 C   0  0  0  0  0  1  0  0  0  0  0  0
    1.2640  -14.3370  -36.2940 C   0  0  0  0  0  2  0  0  0  0  0  0
    2.0270  -13.6060  -37.3640 C   0  0  0  0  0  0  0  0  0  0  0  0
    2.7360  -12.4630  -37.0730 C   0  0  0  0  0  3  0  0  0  0  0  0
    3.4430  -11.7740  -38.0370 C   0  0  0  0  0  0  0  0  0  0  0  0
    4.3340  -10.3240  -37.6280 Cl  0  0  0  0  0  0  0  0  0  0  0  0
    3.4520  -12.2250  -39.3350 C   0  0  0  0  0  3  0  0  0  0  0  0
    2.7360  -13.3690  -39.6050 C   0  0  0  0  0  3  0  0  0  0  0  0
    2.0360  -14.0580  -38.6660 C   0  0  0  0  0  3  0  0  0  0  0  0
   -3.3190  -18.3990  -35.5730 O   0  0  0  0  0  0  0  0  0  0  0  0
   -4.1740  -18.0240  -35.8950 H   0  0  0  0  0  0  0  0  0  0  0  0
  1 24  1  0  0  0  0
  2  3  2  0  0  0  0
  2  1  1  0  0  0  0
  4  5  1  0  0  0  0
  4  2  1  0  0  0  0
  4 14  1  1  0  0  0
  5 12  1  1  0  0  0
  6  7  1  6  0  0  0
  6  5  1  0  0  0  0
  6  9  1  0  0  0  0
  6 10  1  0  0  0  0
  7  8  1  0  0  0  0
  8  9  1  0  0  0  0
 10  1  1  0  0  0  0
 10 11  2  0  0  0  0
 12 13  1  0  0  0  0
 13 32  1  6  0  0  0
 14 13  1  0  0  0  0
 15  8  1  0  0  0  0
 16 15  1  0  0  0  0
 16 17  1  0  0  0  0
 18 17  2  0  0  0  0
 18 22  1  0  0  0  0
 19 18  1  0  0  0  0
 20 21  1  0  0  0  0
 20 19  2  0  0  0  0
 21 16  2  0  0  0  0
 22 23  1  0  0  0  0
 25 26  1  0  0  0  0
 25 24  1  0  0  0  0
 27 28  1  0  0  0  0
 27 26  2  0  0  0  0
 29 27  1  0  0  0  0
 30 29  2  0  0  0  0
 30 31  1  0  0  0  0
 31 25  2  0  0  0  0
 33 32  1  0  0  0  0
M  END
>  <Pose>
1

>  <Score>
-7.354

$$$$
