/Users/jonathanwahrer/Desktop/Msc/3_Semester/Drug_Design_Praktikum/waehrer_HTS_screening/HTS_experiment/out/docking_results/vina_output/6y4q/2375_docked.pdbqt
 OpenBabel03232219093D

 37 40  0  0  1  0  0  0  0  0999 V2000
   -1.1260  -13.2020  -36.5360 C   0  0  0  0  0  0  0  0  0  0  0  0
   -2.0530  -12.5240  -35.6790 C   0  0  0  0  0  1  0  0  0  0  0  0
   -1.6600  -14.2900  -37.4580 C   0  0  0  0  0  0  0  0  0  0  0  0
   -0.9230  -15.4830  -37.6490 N   0  0  0  0  0  0  0  0  0  0  0  0
   -1.0880  -16.4250  -38.7070 C   0  0  0  0  0  3  0  0  0  0  0  0
   -0.1090  -15.9820  -36.5220 C   0  0  0  0  0  2  0  0  0  0  0  0
    0.1660  -17.1360  -39.1530 C   0  0  0  0  0  3  0  0  0  0  0  0
    1.3850  -16.9220  -38.3590 C   0  0  1  0  0  0  0  0  0  0  0  0
    1.1900  -16.4730  -36.9320 C   0  0  0  0  0  2  0  0  0  0  0  0
   -2.7370  -14.1100  -38.0210 O   0  0  0  0  0  0  0  0  0  0  0  0
    2.2660  -18.1100  -38.2690 C   0  0  0  0  0  0  0  0  0  0  0  0
    2.3120  -18.9240  -39.3900 C   0  0  0  0  0  3  0  0  0  0  0  0
    3.1310  -20.0630  -39.4440 C   0  0  0  0  0  3  0  0  0  0  0  0
    3.9170  -20.3920  -38.3640 C   0  0  0  0  0  0  0  0  0  0  0  0
    4.9760  -21.8220  -38.4210 Cl  0  0  0  0  0  0  0  0  0  0  0  0
    3.8720  -19.5780  -37.2460 C   0  0  0  0  0  3  0  0  0  0  0  0
    3.0490  -18.4590  -37.2170 C   0  0  0  0  0  3  0  0  0  0  0  0
    2.1400  -15.9080  -39.0210 O   0  0  0  0  0  0  0  0  0  0  0  0
    1.6010  -15.4340  -39.6770 H   0  0  0  0  0  0  0  0  0  0  0  0
   -0.0240  -12.5250  -37.1790 N   0  0  0  0  0  4  0  0  0  0  0  0
    1.3010  -12.5630  -36.7490 C   0  0  0  0  0  0  0  0  0  0  0  0
    1.3820  -13.2910  -35.5780 O   0  0  0  0  0  0  0  0  0  0  0  0
    2.5550  -12.1220  -37.1430 C   0  0  0  0  0  2  0  0  0  0  0  0
   -0.3780  -11.9320  -38.0020 H   0  0  0  0  0  0  0  0  0  0  0  0
    3.3240  -11.5720  -38.0360 C   0  0  1  0  0  3  0  0  0  0  0  0
    4.1520  -10.4200  -37.6550 N   0  0  0  0  0  0  0  0  0  0  0  0
    5.0650   -9.8290  -38.5070 N   0  0  0  0  0  0  0  0  0  0  0  0
    4.0100  -10.0630  -36.6720 H   0  0  0  0  0  0  0  0  0  0  0  0
    5.2690  -10.2840  -39.7990 C   0  0  0  0  0  0  0  0  0  0  0  0
    5.6280   -9.0020  -38.1650 H   0  0  0  0  0  0  0  0  0  0  0  0
    6.0840   -9.7730  -40.6090 O   0  0  0  0  0  0  0  0  0  0  0  0
    4.4780  -11.4440  -40.2750 C   0  0  0  0  0  0  0  0  0  0  0  0
    3.5830  -12.0040  -39.3950 C   0  0  0  0  0  0  0  0  0  0  0  0
    4.7370  -11.9400  -41.5300 C   0  0  0  0  0  3  0  0  0  0  0  0
    2.9340  -13.1560  -39.8530 C   0  0  0  0  0  3  0  0  0  0  0  0
    3.1850  -13.6700  -41.1180 C   0  0  0  0  0  3  0  0  0  0  0  0
    4.0800  -13.0710  -41.9660 C   0  0  0  0  0  3  0  0  0  0  0  0
  1  2  1  0  0  0  0
  3  1  1  0  0  0  0
  4  3  1  0  0  0  0
  4  6  1  0  0  0  0
  5  4  1  0  0  0  0
  7  5  2  0  0  0  0
  7  8  1  0  0  0  0
  8 18  1  6  0  0  0
  8 11  1  0  0  0  0
  8  9  1  0  0  0  0
  9  6  1  0  0  0  0
 10  3  2  0  0  0  0
 11 17  1  0  0  0  0
 12 11  2  0  0  0  0
 13 12  1  0  0  0  0
 13 14  2  0  0  0  0
 14 16  1  0  0  0  0
 15 14  1  0  0  0  0
 16 17  2  0  0  0  0
 19 18  1  0  0  0  0
 20 21  1  0  0  0  0
 20  1  2  3  0  0  0
 21 22  2  0  0  0  0
 23 21  1  0  0  0  0
 24 20  1  0  0  0  0
 25 26  1  0  0  0  0
 25 23  1  1  0  0  0
 26 28  1  0  0  0  0
 27 30  1  0  0  0  0
 27 26  1  0  0  0  0
 29 27  1  0  0  0  0
 31 29  2  0  0  0  0
 32 29  1  0  0  0  0
 32 33  1  0  0  0  0
 33 25  1  0  0  0  0
 34 32  2  0  0  0  0
 35 33  2  0  0  0  0
 36 35  1  0  0  0  0
 37 34  1  0  0  0  0
 37 36  2  0  0  0  0
M  END
>  <Pose>
1

>  <Score>
-7.850

$$$$
