/Users/jonathanwahrer/Desktop/Msc/3_Semester/Drug_Design_Praktikum/waehrer_HTS_screening/HTS_experiment/out/docking_results/vina_output/6y4q/2377_docked.pdbqt
 OpenBabel03232219093D

 33 36  0  0  0  0  0  0  0  0999 V2000
   -1.6010  -16.3520  -37.1430 N   0  0  0  0  0  0  0  0  0  0  0  0
   -2.7480  -16.4320  -38.0430 C   0  0  0  0  0  2  0  0  0  0  0  0
   -2.8940  -17.8070  -38.6540 C   0  0  0  0  0  2  0  0  0  0  0  0
   -2.1310  -18.7330  -37.8520 N   0  0  0  0  0  0  0  0  0  0  0  0
   -2.2700  -18.5860  -36.4150 C   0  0  0  0  0  2  0  0  0  0  0  0
   -1.5300  -17.3060  -36.0280 C   0  0  0  0  0  2  0  0  0  0  0  0
   -1.2890  -19.7340  -38.3800 C   0  0  0  0  0  0  0  0  0  0  0  0
   -0.6720  -20.4850  -37.5940 O   0  0  0  0  0  0  0  0  0  0  0  0
   -0.5850  -15.4060  -37.3760 C   0  0  0  0  0  0  0  0  0  0  0  0
   -0.7110  -14.0620  -37.0980 C   0  0  0  0  0  0  0  0  0  0  0  0
   -2.2400  -13.4910  -36.4800 Cl  0  0  0  0  0  0  0  0  0  0  0  0
    0.3510  -13.1820  -37.3220 C   0  0  0  0  0  0  0  0  0  0  0  0
    1.5320  -13.5810  -37.8110 N   0  0  0  0  0  0  0  0  0  0  0  0
    0.1620  -11.9710  -37.0450 O   0  0  0  0  0  0  0  0  0  0  0  0
    1.6440  -14.8660  -38.0740 N   0  0  0  0  0  0  0  0  0  0  0  0
    0.6690  -15.7730  -37.8850 C   0  0  0  0  0  3  0  0  0  0  0  0
    2.6180  -12.6890  -38.0420 C   0  0  0  0  0  0  0  0  0  0  0  0
    3.2330  -11.9950  -37.0110 C   0  0  0  0  0  3  0  0  0  0  0  0
    4.2860  -11.1270  -37.2170 C   0  0  0  0  0  3  0  0  0  0  0  0
    4.7400  -10.9480  -38.5080 C   0  0  0  0  0  3  0  0  0  0  0  0
    4.1490  -11.6240  -39.5590 C   0  0  0  0  0  3  0  0  0  0  0  0
    3.0820  -12.4980  -39.3180 C   0  0  0  0  0  3  0  0  0  0  0  0
   -1.0920  -19.9500  -39.8340 C   0  0  0  0  0  2  0  0  0  0  0  0
    0.1760  -20.7290  -40.0940 C   0  0  0  0  0  2  0  0  0  0  0  0
    1.3530  -19.8390  -40.3580 C   0  0  0  0  0  2  0  0  0  0  0  0
    2.4980  -20.1140  -39.5180 N   0  0  0  0  0  0  0  0  0  0  0  0
    3.5770  -20.9750  -39.8320 C   0  0  0  0  0  0  0  0  0  0  0  0
    3.7200  -21.6520  -40.9050 O   0  0  0  0  0  0  0  0  0  0  0  0
    4.5270  -21.0100  -38.7900 N   0  0  0  0  0  0  0  0  0  0  0  0
    4.0620  -20.1480  -37.7250 C   0  0  0  0  0  2  0  0  0  0  0  0
    5.7590  -21.7710  -38.7720 C   0  0  0  0  0  1  0  0  0  0  0  0
    2.7850  -19.5870  -38.2180 C   0  0  0  0  0  0  0  0  0  0  0  0
    2.0600  -18.7760  -37.6040 O   0  0  0  0  0  0  0  0  0  0  0  0
  1  6  1  0  0  0  0
  2  1  1  0  0  0  0
  3  2  1  0  0  0  0
  3  4  1  0  0  0  0
  4  5  1  0  0  0  0
  5  6  1  0  0  0  0
  7  4  1  0  0  0  0
  7  8  2  0  0  0  0
  9  1  1  0  0  0  0
  9 10  2  0  0  0  0
 10 11  1  0  0  0  0
 12 10  1  0  0  0  0
 12 14  2  0  0  0  0
 13 12  1  0  0  0  0
 15 16  2  0  0  0  0
 15 13  1  0  0  0  0
 16  9  1  0  0  0  0
 17 13  1  0  0  0  0
 17 18  1  0  0  0  0
 19 18  2  0  0  0  0
 20 19  1  0  0  0  0
 21 22  1  0  0  0  0
 21 20  2  0  0  0  0
 22 17  2  0  0  0  0
 23  7  1  0  0  0  0
 24 23  1  0  0  0  0
 25 24  1  0  0  0  0
 25 26  1  0  0  0  0
 26 32  1  0  0  0  0
 27 26  1  0  0  0  0
 27 29  1  0  0  0  0
 28 27  2  0  0  0  0
 29 31  1  0  0  0  0
 29 30  1  0  0  0  0
 32 30  1  0  0  0  0
 32 33  2  0  0  0  0
M  END
>  <Pose>
1

>  <Score>
-6.750

$$$$
