/Users/jonathanwahrer/Desktop/Msc/3_Semester/Drug_Design_Praktikum/waehrer_HTS_screening/HTS_experiment/out/docking_results/vina_output/6y4q/2380_docked.pdbqt
 OpenBabel03232219093D

 27 30  0  0  1  0  0  0  0  0999 V2000
    2.8450  -18.1470  -39.9780 Cl  0  0  0  0  0  0  0  0  0  0  0  0
    2.4660  -17.6170  -38.3420 C   0  0  0  0  0  0  0  0  0  0  0  0
    3.0450  -18.3000  -37.2990 C   0  0  0  0  0  0  0  0  0  0  0  0
    2.7260  -17.8590  -36.0250 C   0  0  0  0  0  3  0  0  0  0  0  0
    1.8930  -16.8170  -35.8610 N   0  0  0  0  0  0  0  0  0  0  0  0
    1.3300  -16.1510  -36.8560 N   0  0  0  0  0  0  0  0  0  0  0  0
    1.6180  -16.5540  -38.1060 C   0  0  0  0  0  0  0  0  0  0  0  0
    1.1170  -15.9650  -39.1060 O   0  0  0  0  0  0  0  0  0  0  0  0
    3.9090  -19.3850  -37.5620 N   0  0  0  0  0  0  0  0  0  0  0  0
    5.3590  -19.2390  -37.5160 C   0  0  0  0  0  2  0  0  0  0  0  0
    5.8200  -19.4150  -38.9760 C   0  0  0  0  0  2  0  0  0  0  0  0
    5.2990  -20.6300  -39.5190 N   0  0  0  0  0  0  0  0  0  0  0  0
    4.5400  -21.5050  -38.6010 C   0  0  0  0  0  2  0  0  0  0  0  0
    5.4760  -21.0270  -40.8700 C   0  0  0  0  0  0  0  0  0  0  0  0
    3.4510  -20.7220  -37.8960 C   0  0  0  0  0  2  0  0  0  0  0  0
    4.9950  -22.1150  -41.3080 O   0  0  0  0  0  0  0  0  0  0  0  0
    6.2210  -20.2170  -41.8500 C   0  0  1  0  0  3  0  0  0  0  0  0
    6.8960  -21.0070  -42.7290 O   0  0  0  0  0  0  0  0  0  0  0  0
    6.9570  -20.3490  -43.9510 C   0  0  0  0  0  2  0  0  0  0  0  0
    5.5410  -19.8010  -44.0590 C   0  0  0  0  0  2  0  0  0  0  0  0
    5.3160  -19.3040  -42.6460 C   0  0  0  0  0  2  0  0  0  0  0  0
    0.4470  -15.0440  -36.6150 C   0  0  0  0  0  0  0  0  0  0  0  0
    0.9540  -13.8260  -36.2110 C   0  0  0  0  0  3  0  0  0  0  0  0
    0.1060  -12.7400  -35.9740 C   0  0  0  0  0  3  0  0  0  0  0  0
   -1.2490  -12.8710  -36.1400 C   0  0  0  0  0  3  0  0  0  0  0  0
   -1.7670  -14.0760  -36.5400 C   0  0  0  0  0  3  0  0  0  0  0  0
   -0.9200  -15.1330  -36.7700 C   0  0  0  0  0  3  0  0  0  0  0  0
  1  2  1  0  0  0  0
  2  7  1  0  0  0  0
  2  3  2  0  0  0  0
  3  4  1  0  0  0  0
  4  5  2  0  0  0  0
  6 22  1  0  0  0  0
  6  5  1  0  0  0  0
  7  6  1  0  0  0  0
  8  7  2  0  0  0  0
  9 10  1  0  0  0  0
  9  3  1  0  0  0  0
 11 10  1  0  0  0  0
 12 11  1  0  0  0  0
 12 13  1  0  0  0  0
 13 15  1  0  0  0  0
 14 12  1  0  0  0  0
 15  9  1  0  0  0  0
 16 14  2  0  0  0  0
 17 14  1  1  0  0  0
 18 17  1  0  0  0  0
 19 18  1  0  0  0  0
 20 19  1  0  0  0  0
 20 21  1  0  0  0  0
 21 17  1  0  0  0  0
 22 23  1  0  0  0  0
 23 24  2  0  0  0  0
 25 24  1  0  0  0  0
 26 25  2  0  0  0  0
 27 22  2  0  0  0  0
 27 26  1  0  0  0  0
M  END
>  <Pose>
1

>  <Score>
-6.207

$$$$
