/Users/jonathanwahrer/Desktop/Msc/3_Semester/Drug_Design_Praktikum/waehrer_HTS_screening/HTS_experiment/out/docking_results/vina_output/6y4q/2386_docked.pdbqt
 OpenBabel03232219103D

 30 33  0  0  0  0  0  0  0  0999 V2000
    1.5010  -13.1670  -36.6120 Cl  0  0  0  0  0  0  0  0  0  0  0  0
    0.9130  -14.8060  -36.8700 C   0  0  0  0  0  0  0  0  0  0  0  0
    1.7290  -15.6650  -37.6030 C   0  0  0  0  0  3  0  0  0  0  0  0
    1.2840  -16.9510  -37.8140 C   0  0  0  0  0  0  0  0  0  0  0  0
    0.0590  -17.3610  -37.3040 C   0  0  0  0  0  0  0  0  0  0  0  0
   -0.7490  -16.4980  -36.5740 C   0  0  0  0  0  3  0  0  0  0  0  0
   -0.3010  -15.2060  -36.3630 C   0  0  0  0  0  3  0  0  0  0  0  0
   -0.4580  -18.6340  -37.4730 O   0  0  0  0  0  0  0  0  0  0  0  0
   -0.2540  -19.5570  -38.5080 C   0  0  0  0  0  0  0  0  0  0  0  0
    1.1460  -20.0060  -38.7180 C   0  0  0  0  0  2  0  0  0  0  0  0
    2.1770  -19.1340  -38.2550 N   0  0  0  0  0  0  0  0  0  0  0  0
    2.2840  -17.7120  -38.6090 C   0  0  0  0  0  2  0  0  0  0  0  0
    3.1850  -19.6550  -37.3990 C   0  0  0  0  0  0  0  0  0  0  0  0
    3.1060  -20.8700  -37.1060 O   0  0  0  0  0  0  0  0  0  0  0  0
   -1.1290  -20.7910  -38.2210 C   0  0  0  0  0  2  0  0  0  0  0  0
   -2.5150  -20.2740  -37.9430 C   0  0  0  0  0  2  0  0  0  0  0  0
   -2.6290  -18.9120  -38.1590 O   0  0  0  0  0  0  0  0  0  0  0  0
   -2.2680  -18.5420  -39.4420 C   0  0  0  0  0  2  0  0  0  0  0  0
   -0.8660  -18.9850  -39.7960 C   0  0  0  0  0  2  0  0  0  0  0  0
    4.2700  -18.8380  -36.8800 C   0  0  0  0  0  2  0  0  0  0  0  0
    5.6510  -19.1800  -37.2650 C   0  0  0  0  0  2  0  0  0  0  0  0
    6.0350  -19.1890  -38.6860 C   0  0  0  0  0  2  0  0  0  0  0  0
    5.4910  -20.1500  -39.5710 N   0  0  0  0  0  0  0  0  0  0  0  0
    5.6800  -21.5510  -39.4840 C   0  0  0  0  0  0  0  0  0  0  0  0
    6.3430  -22.2070  -38.6260 O   0  0  0  0  0  0  0  0  0  0  0  0
    4.9730  -22.1340  -40.5640 N   0  0  0  0  0  0  0  0  0  0  0  0
    4.0420  -21.1460  -41.1030 C   0  0  0  0  0  2  0  0  0  0  0  0
    5.0690  -23.0980  -40.9420 H   0  0  0  0  0  0  0  0  0  0  0  0
    4.6770  -19.8750  -40.6930 C   0  0  0  0  0  0  0  0  0  0  0  0
    4.5020  -18.7430  -41.2720 O   0  0  0  0  0  0  0  0  0  0  0  0
  2  1  1  0  0  0  0
  2  7  1  0  0  0  0
  3  2  2  0  0  0  0
  4  3  1  0  0  0  0
  4  5  2  0  0  0  0
  5  6  1  0  0  0  0
  6  7  2  0  0  0  0
  8  5  1  0  0  0  0
  9 15  1  0  0  0  0
  9  8  1  0  0  0  0
 10  9  1  0  0  0  0
 10 11  1  0  0  0  0
 11 13  1  0  0  0  0
 12 11  1  0  0  0  0
 12  4  1  0  0  0  0
 13 14  2  0  0  0  0
 13 20  1  0  0  0  0
 15 16  1  0  0  0  0
 17 16  1  0  0  0  0
 18 17  1  0  0  0  0
 19 18  1  0  0  0  0
 19  9  1  0  0  0  0
 21 20  1  0  0  0  0
 22 21  1  0  0  0  0
 23 24  1  0  0  0  0
 23 22  1  0  0  0  0
 24 25  2  0  0  0  0
 26 24  1  0  0  0  0
 27 29  1  0  0  0  0
 27 26  1  0  0  0  0
 28 26  1  0  0  0  0
 29 23  1  0  0  0  0
 30 29  2  0  0  0  0
M  END
>  <Pose>
1

>  <Score>
-6.718

$$$$
