/Users/jonathanwahrer/Desktop/Msc/3_Semester/Drug_Design_Praktikum/waehrer_HTS_screening/HTS_experiment/out/docking_results/vina_output/6y4q/2403_docked.pdbqt
 OpenBabel03232219103D

 26 29  0  0  0  0  0  0  0  0999 V2000
    2.0940  -18.4550  -37.5890 N   0  0  0  0  0  0  0  0  0  0  0  0
    2.4150  -19.3610  -38.5240 C   0  0  0  0  0  0  0  0  0  0  0  0
    3.6630  -19.9180  -38.2660 C   0  0  0  0  0  0  0  0  0  0  0  0
    4.0900  -19.3130  -37.1330 N   0  0  0  0  0  0  0  0  0  0  0  0
    3.1610  -18.4430  -36.7280 C   0  0  0  0  0  3  0  0  0  0  0  0
    4.2370  -20.8550  -39.0480 N   0  0  0  0  0  0  0  0  0  0  0  0
    3.5320  -21.2440  -40.1280 C   0  0  0  0  0  0  0  0  0  0  0  0
    4.0540  -22.1200  -40.8710 O   0  0  0  0  0  0  0  0  0  0  0  0
    2.3250  -20.7370  -40.4230 N   0  0  0  0  0  0  0  0  0  0  0  0
    1.7490  -19.8010  -39.6410 C   0  0  0  0  0  0  0  0  0  0  0  0
    0.6290  -19.3170  -39.9000 O   0  0  0  0  0  0  0  0  0  0  0  0
    1.5690  -21.1590  -41.5880 C   0  0  0  0  0  1  0  0  0  0  0  0
    5.5420  -21.3980  -38.7230 C   0  0  0  0  0  1  0  0  0  0  0  0
    0.8990  -17.6480  -37.4360 C   0  0  0  0  0  2  0  0  0  0  0  0
    1.2010  -16.1780  -37.4380 C   0  0  0  0  0  0  0  0  0  0  0  0
    1.7690  -15.6340  -38.5290 N   0  0  0  0  0  0  0  0  0  0  0  0
    2.0550  -14.3000  -38.5840 C   0  0  0  0  0  0  0  0  0  0  0  0
    1.7780  -13.4940  -37.5480 N   0  0  0  0  0  0  0  0  0  0  0  0
    2.6400  -13.7910  -39.7320 C   0  0  0  0  0  3  0  0  0  0  0  0
    2.0600  -12.1760  -37.6010 C   0  0  0  0  0  3  0  0  0  0  0  0
    1.2010  -13.9860  -36.4130 C   0  0  0  0  0  0  0  0  0  0  0  0
    2.6390  -11.6640  -38.7310 C   0  0  0  0  0  0  0  0  0  0  0  0
    3.0260   -9.7990  -38.7760 Br  0  0  0  0  0  0  0  0  0  0  0  0
    2.9410  -12.4540  -39.8160 C   0  0  0  0  0  3  0  0  0  0  0  0
    0.9250  -15.3350  -36.3900 C   0  0  0  0  0  3  0  0  0  0  0  0
    0.9610  -13.2060  -35.4790 O   0  0  0  0  0  0  0  0  0  0  0  0
  1 14  1  0  0  0  0
  1  5  1  0  0  0  0
  2  3  2  0  0  0  0
  2  1  1  0  0  0  0
  3  4  1  0  0  0  0
  4  5  2  0  0  0  0
  6 13  1  0  0  0  0
  6  3  1  0  0  0  0
  7  6  1  0  0  0  0
  8  7  2  0  0  0  0
  9  7  1  0  0  0  0
  9 10  1  0  0  0  0
 10  2  1  0  0  0  0
 11 10  2  0  0  0  0
 12  9  1  0  0  0  0
 15 14  1  0  0  0  0
 15 25  2  0  0  0  0
 16 15  1  0  0  0  0
 17 16  2  0  0  0  0
 17 18  1  0  0  0  0
 18 21  1  0  0  0  0
 19 17  1  0  0  0  0
 20 18  1  0  0  0  0
 21 25  1  0  0  0  0
 21 26  2  0  0  0  0
 22 20  2  0  0  0  0
 23 22  1  0  0  0  0
 24 19  2  0  0  0  0
 24 22  1  0  0  0  0
M  END
>  <Pose>
1

>  <Score>
-6.740

$$$$
