/Users/jonathanwahrer/Desktop/Msc/3_Semester/Drug_Design_Praktikum/waehrer_HTS_screening/HTS_experiment/out/docking_results/vina_output/6y4q/2417_docked.pdbqt
 OpenBabel03232219113D

 27 30  0  0  1  0  0  0  0  0999 V2000
    5.3740  -21.4010  -40.0260 N   0  0  0  0  0  0  0  0  0  0  0  0
    4.4430  -21.4510  -38.8760 C   0  0  0  0  0  2  0  0  0  0  0  0
    3.8900  -20.1000  -38.8510 C   0  0  2  0  0  3  0  0  0  0  0  0
    5.1660  -19.2730  -38.8770 C   0  0  2  0  0  3  0  0  0  0  0  0
    5.8610  -20.0880  -40.0490 C   0  0  0  0  0  2  0  0  0  0  0  0
    4.6140  -21.8940  -41.1850 C   0  0  0  0  0  2  0  0  0  0  0  0
    5.3390  -22.6700  -42.1600 C   0  0  0  0  0  0  0  0  0  0  0  0
    4.9770  -23.7930  -42.8700 C   0  0  0  0  0  0  0  0  0  0  0  0
    3.7560  -24.4020  -43.0320 C   0  0  0  0  0  0  0  0  0  0  0  0
    6.0360  -24.2960  -43.5900 C   0  0  0  0  0  0  0  0  0  0  0  0
    2.4270  -23.8450  -42.0200 Cl  0  0  0  0  0  0  0  0  0  0  0  0
    3.5770  -25.4590  -43.8830 C   0  0  0  0  0  3  0  0  0  0  0  0
    4.6620  -25.9500  -44.6030 C   0  0  0  0  0  3  0  0  0  0  0  0
    5.9130  -25.3460  -44.4470 C   0  0  0  0  0  3  0  0  0  0  0  0
    7.0720  -23.4770  -43.3020 N   0  0  0  0  0  0  0  0  0  0  0  0
    6.6750  -22.5360  -42.4870 N   0  0  0  0  0  0  0  0  0  0  0  0
    8.4550  -23.7070  -43.7540 C   0  0  0  0  0  1  0  0  0  0  0  0
    3.0630  -19.7490  -37.6400 C   0  0  0  0  0  2  0  0  0  0  0  0
    2.4350  -18.4860  -37.8720 N   0  0  0  0  0  0  0  0  0  0  0  0
    1.0770  -18.6100  -38.3570 C   0  0  0  0  0  2  0  0  0  0  0  0
    0.0550  -17.9320  -37.4740 C   0  0  0  0  0  2  0  0  0  0  0  0
    0.3310  -16.6100  -37.2090 O   0  0  0  0  0  0  0  0  0  0  0  0
    1.6940  -16.3600  -37.0760 C   0  0  0  0  0  2  0  0  0  0  0  0
    2.3990  -17.6300  -36.7090 C   0  0  0  0  0  2  0  0  0  0  0  0
    6.0330  -19.5620  -37.6850 C   0  0  0  0  0  2  0  0  0  0  0  0
    7.2350  -18.8150  -37.7920 O   0  0  0  0  0  0  0  0  0  0  0  0
    7.3020  -18.2820  -36.9090 H   0  0  0  0  0  0  0  0  0  0  0  0
  1  2  1  0  0  0  0
  2  3  1  0  0  0  0
  3 18  1  1  0  0  0
  4  3  1  0  0  0  0
  4 25  1  1  0  0  0
  5  1  1  0  0  0  0
  5  4  1  0  0  0  0
  6  1  1  0  0  0  0
  7  6  1  0  0  0  0
  8  7  1  0  0  0  0
  9  8  1  0  0  0  0
  9 11  1  0  0  0  0
 10 15  1  0  0  0  0
 10  8  2  0  0  0  0
 12  9  2  0  0  0  0
 13 14  2  0  0  0  0
 13 12  1  0  0  0  0
 14 10  1  0  0  0  0
 15 16  1  0  0  0  0
 16  7  2  0  0  0  0
 17 15  1  0  0  0  0
 19 18  1  0  0  0  0
 19 24  1  0  0  0  0
 20 19  1  0  0  0  0
 20 21  1  0  0  0  0
 21 22  1  0  0  0  0
 22 23  1  0  0  0  0
 23 24  1  0  0  0  0
 26 25  1  0  0  0  0
 26 27  1  0  0  0  0
M  END
>  <Pose>
1

>  <Score>
-6.082

$$$$
