/Users/jonathanwahrer/Desktop/Msc/3_Semester/Drug_Design_Praktikum/waehrer_HTS_screening/HTS_experiment/out/docking_results/vina_output/6y4q/2420_docked.pdbqt
 OpenBabel03232219113D

 29 32  0  0  1  0  0  0  0  0999 V2000
    0.2530  -16.3150  -37.6210 N   0  0  0  0  0  0  0  0  0  0  0  0
    0.0690  -16.7780  -38.9950 C   0  0  0  0  0  2  0  0  0  0  0  0
    0.3860  -18.2540  -38.9010 C   0  0  2  0  0  3  0  0  0  0  0  0
   -0.3190  -18.6510  -37.6090 C   0  0  0  0  0  2  0  0  0  0  0  0
   -0.2850  -17.3710  -36.8190 C   0  0  0  0  0  0  0  0  0  0  0  0
   -0.6710  -17.2360  -35.6200 O   0  0  0  0  0  0  0  0  0  0  0  0
    1.8430  -18.5000  -38.7880 C   0  0  0  0  0  0  0  0  0  0  0  0
    2.6120  -17.8690  -39.5550 O   0  0  0  0  0  0  0  0  0  0  0  0
    2.3920  -19.4130  -37.8590 N   0  0  0  0  0  0  0  0  0  0  0  0
    1.7170  -19.9250  -37.2350 H   0  0  0  0  0  0  0  0  0  0  0  0
    3.8060  -19.6570  -37.7440 C   0  0  0  0  0  2  0  0  0  0  0  0
    4.1200  -21.0550  -38.2340 C   0  0  0  0  0  2  0  0  0  0  0  0
    5.1040  -21.0730  -39.2890 N   0  0  0  0  0  0  0  0  0  0  0  0
    4.4970  -21.7300  -40.4410 C   0  0  0  0  0  2  0  0  0  0  0  0
    3.6750  -20.7290  -41.2490 C   0  0  0  0  0  2  0  0  0  0  0  0
    4.4550  -19.7780  -41.8640 O   0  0  0  0  0  0  0  0  0  0  0  0
    5.6570  -19.6720  -41.2050 C   0  0  0  0  0  2  0  0  0  0  0  0
    5.4940  -19.7430  -39.7000 C   0  0  0  0  0  2  0  0  0  0  0  0
    0.8320  -15.0910  -37.1980 C   0  0  0  0  0  0  0  0  0  0  0  0
    0.7330  -14.4410  -36.0310 N   0  0  0  0  0  0  0  0  0  0  0  0
    1.4390  -13.3210  -36.0630 N   0  0  0  0  0  0  0  0  0  0  0  0
    2.0370  -13.1960  -37.2820 C   0  0  0  0  0  0  0  0  0  0  0  0
    1.5810  -12.5820  -35.3310 H   0  0  0  0  0  0  0  0  0  0  0  0
    2.8550  -12.2750  -37.8660 C   0  0  0  0  0  3  0  0  0  0  0  0
    1.6570  -14.3070  -37.9940 C   0  0  0  0  0  0  0  0  0  0  0  0
    3.3110  -12.4310  -39.1560 C   0  0  0  0  0  0  0  0  0  0  0  0
    4.4530  -11.1310  -39.9500 Br  0  0  0  0  0  0  0  0  0  0  0  0
    2.9290  -13.5570  -39.8860 C   0  0  0  0  0  3  0  0  0  0  0  0
    2.1030  -14.4880  -39.2980 C   0  0  0  0  0  3  0  0  0  0  0  0
  1 19  1  0  0  0  0
  1  5  1  0  0  0  0
  2  3  1  0  0  0  0
  2  1  1  0  0  0  0
  3  7  1  1  0  0  0
  3  4  1  0  0  0  0
  4  5  1  0  0  0  0
  5  6  2  0  0  0  0
  7  9  1  0  0  0  0
  8  7  2  0  0  0  0
  9 11  1  0  0  0  0
  9 10  1  0  0  0  0
 12 11  1  0  0  0  0
 13 12  1  0  0  0  0
 14 13  1  0  0  0  0
 15 14  1  0  0  0  0
 16 15  1  0  0  0  0
 16 17  1  0  0  0  0
 17 18  1  0  0  0  0
 18 13  1  0  0  0  0
 19 20  2  0  0  0  0
 21 20  1  0  0  0  0
 21 23  1  0  0  0  0
 22 21  1  0  0  0  0
 24 22  1  0  0  0  0
 25 22  2  0  0  0  0
 25 19  1  0  0  0  0
 26 24  2  0  0  0  0
 27 26  1  0  0  0  0
 28 29  2  0  0  0  0
 28 26  1  0  0  0  0
 29 25  1  0  0  0  0
M  END
>  <Pose>
1

>  <Score>
-6.248

$$$$
