/Users/jonathanwahrer/Desktop/Msc/3_Semester/Drug_Design_Praktikum/waehrer_HTS_screening/HTS_experiment/out/docking_results/vina_output/6y4q/2440_docked.pdbqt
 OpenBabel03232219123D

 33 36  0  0  1  0  0  0  0  0999 V2000
   -2.0640  -12.8440  -35.8260 Cl  0  0  0  0  0  0  0  0  0  0  0  0
   -0.4480  -13.3190  -36.3390 C   0  0  0  0  0  0  0  0  0  0  0  0
   -0.2140  -14.6890  -36.5300 C   0  0  0  0  0  0  0  0  0  0  0  0
    1.0430  -15.0540  -36.9290 C   0  0  0  0  0  0  0  0  0  0  0  0
    2.0560  -14.0950  -37.1380 C   0  0  0  0  0  3  0  0  0  0  0  0
    1.8150  -12.7580  -36.9480 C   0  0  0  0  0  3  0  0  0  0  0  0
    0.5480  -12.3960  -36.5470 C   0  0  0  0  0  3  0  0  0  0  0  0
    1.0610  -16.5160  -37.0780 C   0  0  2  0  0  0  0  0  0  0  0  0
    2.1090  -17.1690  -36.3790 N   0  0  0  0  0  0  0  0  0  0  0  0
    2.4920  -18.3530  -37.0130 C   0  0  1  0  0  3  0  0  0  0  0  0
    1.9440  -18.2410  -38.4180 C   0  0  2  0  0  3  0  0  0  0  0  0
    1.2870  -16.9040  -38.5380 C   0  0  1  0  0  3  0  0  0  0  0  0
    0.0090  -17.0960  -39.2720 C   0  0  0  0  0  0  0  0  0  0  0  0
   -0.7390  -16.1570  -39.6330 O   0  0  0  0  0  0  0  0  0  0  0  0
   -0.1790  -18.4980  -39.4690 N   0  0  0  0  0  0  0  0  0  0  0  0
    0.8140  -19.1620  -38.6730 C   0  0  0  0  0  0  0  0  0  0  0  0
    0.7210  -20.3320  -38.2700 O   0  0  0  0  0  0  0  0  0  0  0  0
   -0.2800  -16.9630  -36.6920 C   0  0  0  0  0  0  0  0  0  0  0  0
   -0.7400  -18.1460  -36.6310 O   0  0  0  0  0  0  0  0  0  0  0  0
   -1.0560  -15.8240  -36.3740 N   0  0  0  0  0  0  0  0  0  0  0  0
    2.0320  -17.1750  -35.3480 H   0  0  0  0  0  0  0  0  0  0  0  0
   -2.0590  -15.7750  -36.0760 H   0  0  0  0  0  0  0  0  0  0  0  0
    3.9100  -18.7720  -36.9690 C   0  0  0  0  0  3  0  0  0  0  0  0
    4.4950  -19.3940  -38.1730 C   0  0  0  0  0  3  0  0  0  0  0  0
    5.9210  -19.7350  -38.1360 C   0  0  0  0  0  0  0  0  0  0  0  0
    6.3140  -20.8560  -38.5070 O   0  0  0  0  0  0  0  0  0  0  0  0
    6.9220  -18.8250  -37.6860 N   0  0  0  0  0  0  0  0  0  0  0  0
    7.1830  -17.9630  -38.1970 H   0  0  0  0  0  0  0  0  0  0  0  0
    7.4170  -19.0320  -36.8020 H   0  0  0  0  0  0  0  0  0  0  0  0
   -1.1480  -19.1510  -40.2930 C   0  0  0  0  0  2  0  0  0  0  0  0
   -2.4580  -19.4440  -39.6540 C   0  0  0  0  0  2  0  0  0  0  0  0
   -3.4990  -18.3860  -39.7550 C   0  0  0  0  0  2  0  0  0  0  0  0
   -3.7440  -17.7020  -38.4140 C   0  0  0  0  0  1  0  0  0  0  0  0
  2  1  1  0  0  0  0
  3 20  1  0  0  0  0
  3  2  1  0  0  0  0
  4  3  2  0  0  0  0
  5  6  2  0  0  0  0
  5  4  1  0  0  0  0
  6  7  1  0  0  0  0
  7  2  2  0  0  0  0
  8  4  1  1  0  0  0
  8 18  1  0  0  0  0
  8  9  1  0  0  0  0
  9 21  1  0  0  0  0
 10 23  1  6  0  0  0
 10  9  1  0  0  0  0
 11 16  1  1  0  0  0
 11 10  1  0  0  0  0
 12 13  1  6  0  0  0
 12 11  1  0  0  0  0
 12  8  1  0  0  0  0
 14 13  2  0  0  0  0
 15 13  1  0  0  0  0
 15 16  1  0  0  0  0
 16 17  2  0  0  0  0
 18 19  2  0  0  0  0
 18 20  1  0  0  0  0
 20 22  1  0  0  0  0
 24 25  1  0  0  0  0
 24 23  2  0  0  0  0
 25 27  1  0  0  0  0
 26 25  2  0  0  0  0
 27 29  1  0  0  0  0
 28 27  1  0  0  0  0
 30 31  1  0  0  0  0
 30 15  1  0  0  0  0
 32 31  1  0  0  0  0
 32 33  1  0  0  0  0
M  END
>  <Pose>
1

>  <Score>
-6.316

$$$$
