/Users/jonathanwahrer/Desktop/Msc/3_Semester/Drug_Design_Praktikum/waehrer_HTS_screening/HTS_experiment/out/docking_results/vina_output/6y4q/2447_docked.pdbqt
 OpenBabel03232219123D

 33 36  0  0  1  0  0  0  0  0999 V2000
    0.0580  -17.4300  -39.7760 C   0  0  1  0  0  3  0  0  0  0  0  0
   -0.5700  -16.9040  -41.0220 C   0  0  0  0  0  0  0  0  0  0  0  0
   -0.6270  -17.5690  -42.0830 O   0  0  0  0  0  0  0  0  0  0  0  0
   -1.0800  -15.6150  -40.8920 O   0  0  0  0  0  0  0  0  0  0  0  0
   -1.5460  -15.0690  -39.7140 C   0  0  0  0  0  3  0  0  0  0  0  0
   -1.5050  -15.8390  -38.6040 C   0  0  0  0  0  0  0  0  0  0  0  0
   -0.9830  -17.1830  -38.7140 C   0  0  0  0  0  0  0  0  0  0  0  0
   -1.3620  -18.1100  -37.9780 O   0  0  0  0  0  0  0  0  0  0  0  0
   -1.9990  -15.3360  -37.3150 C   0  0  0  0  0  2  0  0  0  0  0  0
   -1.0310  -14.7430  -36.4870 N   0  0  0  0  0  0  0  0  0  0  0  0
   -0.9050  -13.3510  -36.4030 C   0  0  0  0  0  2  0  0  0  0  0  0
    0.5030  -12.9670  -35.8940 C   0  0  0  0  0  2  0  0  0  0  0  0
    1.4110  -13.7470  -36.6950 N   0  0  0  0  0  0  0  0  0  0  0  0
    1.3820  -15.1760  -36.4150 C   0  0  0  0  0  2  0  0  0  0  0  0
   -0.0120  -15.5630  -35.9410 C   0  0  0  0  0  2  0  0  0  0  0  0
    2.2460  -13.1770  -37.6760 C   0  0  0  0  0  0  0  0  0  0  0  0
    2.3450  -13.6470  -38.9660 C   0  0  0  0  0  3  0  0  0  0  0  0
    3.1750  -13.0490  -39.8850 C   0  0  0  0  0  0  0  0  0  0  0  0
    3.9480  -11.9560  -39.5730 C   0  0  0  0  0  3  0  0  0  0  0  0
    3.2570  -13.6910  -41.5030 Cl  0  0  0  0  0  0  0  0  0  0  0  0
    3.8720  -11.4640  -38.2950 C   0  0  0  0  0  3  0  0  0  0  0  0
    3.0360  -12.0650  -37.3650 C   0  0  0  0  0  3  0  0  0  0  0  0
    0.4210  -18.8700  -39.8630 C   0  0  0  0  0  2  0  0  0  0  0  0
    1.6980  -19.0640  -39.2710 N   0  0  0  0  0  0  0  0  0  0  0  0
    2.7990  -19.1530  -40.1990 C   0  0  0  0  0  2  0  0  0  0  0  0
    3.2970  -20.5850  -40.1690 C   0  0  0  0  0  2  0  0  0  0  0  0
    3.9290  -20.8220  -38.9140 N   0  0  0  0  0  0  0  0  0  0  0  0
    3.2600  -20.1600  -37.8420 C   0  0  0  0  0  2  0  0  0  0  0  0
    1.7800  -19.9200  -38.1470 C   0  0  0  0  0  2  0  0  0  0  0  0
    5.6190  -20.6470  -38.9250 S   0  0  0  0  0  0  0  0  0  0  0  0
    6.3540  -21.9010  -38.5000 O   0  0  0  0  0  0  0  0  0  0  0  0
    6.0550  -20.3770  -40.3600 O   0  0  0  0  0  0  0  0  0  0  0  0
    6.2010  -19.3130  -37.9480 C   0  0  0  0  0  1  0  0  0  0  0  0
  1 23  1  6  0  0  0
  1  7  1  0  0  0  0
  2  4  1  0  0  0  0
  2  1  1  0  0  0  0
  3  2  2  0  0  0  0
  4  5  1  0  0  0  0
  5  6  2  0  0  0  0
  6  9  1  0  0  0  0
  7  6  1  0  0  0  0
  7  8  2  0  0  0  0
  9 10  1  0  0  0  0
 10 11  1  0  0  0  0
 10 15  1  0  0  0  0
 11 12  1  0  0  0  0
 13 14  1  0  0  0  0
 13 12  1  0  0  0  0
 14 15  1  0  0  0  0
 16 22  1  0  0  0  0
 16 13  1  0  0  0  0
 17 16  2  0  0  0  0
 18 19  2  0  0  0  0
 18 17  1  0  0  0  0
 19 21  1  0  0  0  0
 20 18  1  0  0  0  0
 21 22  2  0  0  0  0
 23 24  1  0  0  0  0
 24 29  1  0  0  0  0
 25 26  1  0  0  0  0
 25 24  1  0  0  0  0
 26 27  1  0  0  0  0
 27 28  1  0  0  0  0
 29 28  1  0  0  0  0
 30 27  1  0  0  0  0
 30 31  2  0  0  0  0
 30 33  1  0  0  0  0
 32 30  2  0  0  0  0
M  END
>  <Pose>
1

>  <Score>
-6.467

$$$$
