3


 38 41  0  0  0  0  0  0  0  0999 V2000
   16.7163  -54.9441   38.0526 C   0  0  0  0  0  0  0  0  0  0  0  0
   17.4345  -54.2134   38.9657 N   0  0  0  0  0  0  0  0  0  0  0  0
   18.3740  -53.5521   38.3485 N   0  0  0  0  0  0  0  0  0  0  0  0
   18.3505  -53.7812   37.0469 N   0  0  0  0  0  0  0  0  0  0  0  0
   17.3377  -54.6389   36.8369 C   0  0  0  0  0  0  0  0  0  0  0  0
   19.2327  -53.1747   36.1191 C   0  0  0  0  0  0  0  0  0  0  0  0
   19.9373  -53.7356   35.1132 N   0  0  0  0  0  0  0  0  0  0  0  0
   20.6230  -52.8163   34.4870 O   0  0  0  0  0  0  0  0  0  0  0  0
   20.4141  -51.6434   35.0282 N   0  0  0  0  0  0  0  0  0  0  0  0
   19.5551  -51.8282   36.0446 C   0  0  0  0  0  0  0  0  0  0  0  0
   19.0795  -50.7947   36.8803 N   0  0  0  0  0  0  0  0  0  0  0  0
   18.4167  -50.1006   36.4897 H   0  0  0  0  0  0  0  0  0  0  0  0
   19.3663  -50.7012   37.8712 H   0  0  0  0  0  0  0  0  0  0  0  0
   15.4601  -57.1750   38.1660 N   0  0  0  0  0  0  0  0  0  0  0  0
   15.5947  -55.8082   38.3687 C   0  0  0  0  0  0  0  0  0  0  0  0
   14.5937  -55.2052   38.9113 O   0  0  0  0  0  0  0  0  0  0  0  0
   16.1606  -57.8259   37.7380 H   0  0  0  0  0  0  0  0  0  0  0  0
   13.8746  -58.9047   38.0663 C   0  0  0  0  0  0  0  0  0  0  0  0
   14.2254  -57.7804   38.5811 N   0  0  0  0  0  0  0  0  0  0  0  0
   10.3964  -62.7308   36.8798 Br  0  0  0  0  0  0  0  0  0  0  0  0
   10.9968  -61.3112   37.9812 C   0  0  0  0  0  0  0  0  0  0  0  0
   10.2799  -60.9538   39.0855 C   0  0  0  0  0  0  0  0  0  0  0  0
   10.7460  -59.9056   39.8748 C   0  0  0  0  0  0  0  0  0  0  0  0
   11.9220  -59.2505   39.5234 C   0  0  0  0  0  0  0  0  0  0  0  0
   12.6472  -59.6028   38.4167 C   0  0  0  0  0  0  0  0  0  0  0  0
   12.1742  -60.6410   37.6455 C   0  0  0  0  0  0  0  0  0  0  0  0
   12.9166  -60.9893   36.5277 O   0  0  0  0  0  0  0  0  0  0  0  0
    9.7738  -59.3848   41.4165 Br  0  0  0  0  0  0  0  0  0  0  0  0
    9.1055  -61.5941   39.4536 O   0  0  0  0  0  0  0  0  0  0  0  0
   12.6108  -61.7458   35.9285 H   0  0  0  0  0  0  0  0  0  0  0  0
    8.5942  -61.3106   40.2733 H   0  0  0  0  0  0  0  0  0  0  0  0
   16.8866  -55.1699   35.5471 C   0  0  0  0  0  0  0  0  0  0  0  0
   17.1800  -56.5910   35.3435 N   0  0  0  0  0  0  0  0  0  0  0  0
   18.2022  -56.7106   34.2853 C   0  0  0  0  0  0  0  0  0  0  0  0
   17.8329  -55.8506   33.1275 C   0  0  0  0  0  0  0  0  0  0  0  0
   16.5603  -56.1568   32.7121 O   0  0  0  0  0  0  0  0  0  0  0  0
   16.0279  -57.2761   33.2961 C   0  0  0  0  0  0  0  0  0  0  0  0
   15.9613  -57.2370   34.8006 C   0  0  0  0  0  0  0  0  0  0  0  0
 20 21  1  0  0  0
 21 22  2  0  0  0
 21 26  1  0  0  0
 22 23  1  0  0  0
 22 29  1  0  0  0
 23 24  2  0  0  0
 23 28  1  0  0  0
 24 25  1  0  0  0
 25 26  2  0  0  0
 25 18  1  0  0  0
 26 27  1  0  0  0
 18 19  2  0  0  0
 19 14  1  0  0  0
 14 15  1  0  0  0
 15 16  2  0  0  0
 15  1  1  0  0  0
  1  2  1  0  0  0
  1  5  2  0  0  0
  2  3  2  0  0  0
  3  4  1  0  0  0
  4  5  1  0  0  0
  4  6  1  0  0  0
  5 32  1  0  0  0
 32 33  1  0  0  0
 33 34  1  0  0  0
 33 38  1  0  0  0
 34 35  1  0  0  0
 35 36  1  0  0  0
 36 37  1  0  0  0
 37 38  1  0  0  0
  6  7  2  0  0  0
  6 10  1  0  0  0
  7  8  1  0  0  0
  8  9  1  0  0  0
  9 10  2  0  0  0
 10 11  1  0  0  0
 27 30  1  0  0  0
 14 17  1  0  0  0
 11 12  1  0  0  0
 11 13  1  0  0  0
 29 31  1  0  0  0
M  END
> <minimizedAffinity>
-9.21740

$$$$
708


 31 34  0  0  0  0  0  0  0  0999 V2000
   15.7251  -57.9863   35.0732 C   0  0  0  0  0  0  0  0  0  0  0  0
   16.9036  -57.5467   35.8918 C   0  0  0  0  0  0  0  0  0  0  0  0
   14.4936  -57.8561   38.0560 Br  0  0  0  0  0  0  0  0  0  0  0  0
   15.6481  -56.3824   37.7087 C   0  0  0  0  0  0  0  0  0  0  0  0
   16.6291  -56.4169   36.7557 N   0  0  0  0  0  0  0  0  0  0  0  0
   17.2112  -55.2029   36.8203 C   0  0  0  0  0  0  0  0  0  0  0  0
   16.6129  -54.4188   37.7933 C   0  0  0  0  0  0  0  0  0  0  0  0
   15.6412  -55.1914   38.3250 N   0  0  0  0  0  0  0  0  0  0  0  0
   16.9797  -53.1576   38.0791 N   0  0  0  0  0  0  0  0  0  0  0  0
   17.9944  -52.6487   37.3575 C   0  0  0  0  0  0  0  0  0  0  0  0
   18.3812  -51.4546   37.5918 O   0  0  0  0  0  0  0  0  0  0  0  0
   18.6032  -53.3749   36.4020 N   0  0  0  0  0  0  0  0  0  0  0  0
   18.2338  -54.6531   36.1099 C   0  0  0  0  0  0  0  0  0  0  0  0
   18.8077  -55.3127   35.2189 O   0  0  0  0  0  0  0  0  0  0  0  0
   16.3498  -52.3460   39.0986 C   0  0  0  0  0  0  0  0  0  0  0  0
   19.3908  -52.9956   35.8344 H   0  0  0  0  0  0  0  0  0  0  0  0
   15.5631  -57.2604   33.7686 C   0  0  0  0  0  0  0  0  0  0  0  0
   16.5409  -57.7442   32.8038 N   0  0  0  0  0  0  0  0  0  0  0  0
   17.4400  -57.0301   32.0888 C   0  0  0  0  0  0  0  0  0  0  0  0
   18.1835  -57.8652   31.2876 C   0  0  0  0  0  0  0  0  0  0  0  0
   17.7187  -59.1054   31.5282 N   0  0  0  0  0  0  0  0  0  0  0  0
   16.7285  -59.0238   32.4428 C   0  0  0  0  0  0  0  0  0  0  0  0
   15.7110  -60.4728   33.1582 Br  0  0  0  0  0  0  0  0  0  0  0  0
   19.1567  -57.4362   30.4625 N   0  0  0  0  0  0  0  0  0  0  0  0
   19.3901  -56.1009   30.4457 C   0  0  0  0  0  0  0  0  0  0  0  0
   20.3077  -55.6927   29.6700 O   0  0  0  0  0  0  0  0  0  0  0  0
   18.6839  -55.2469   31.2158 N   0  0  0  0  0  0  0  0  0  0  0  0
   17.7110  -55.6881   32.0393 C   0  0  0  0  0  0  0  0  0  0  0  0
   17.0365  -54.9204   32.7679 O   0  0  0  0  0  0  0  0  0  0  0  0
   19.9207  -58.3610   29.6287 C   0  0  0  0  0  0  0  0  0  0  0  0
   18.9079  -54.2334   31.1616 H   0  0  0  0  0  0  0  0  0  0  0  0
  3  4  1  0  0  0
  4  5  1  0  0  0
  4  8  2  0  0  0
  5  6  1  0  0  0
  5  2  1  0  0  0
  6  7  2  0  0  0
  6 13  1  0  0  0
  7  8  1  0  0  0
  7  9  1  0  0  0
  9 10  1  0  0  0
  9 15  1  0  0  0
 10 11  2  0  0  0
 10 12  1  0  0  0
 12 13  1  0  0  0
 13 14  2  0  0  0
  2  1  1  0  0  0
  1 17  1  0  0  0
 17 18  1  0  0  0
 18 19  1  0  0  0
 18 22  1  0  0  0
 19 20  2  0  0  0
 19 28  1  0  0  0
 20 21  1  0  0  0
 20 24  1  0  0  0
 21 22  2  0  0  0
 22 23  1  0  0  0
 24 25  1  0  0  0
 24 30  1  0  0  0
 25 26  2  0  0  0
 25 27  1  0  0  0
 27 28  1  0  0  0
 28 29  2  0  0  0
 12 16  1  0  0  0
 27 31  1  0  0  0
M  END
> <minimizedAffinity>
-8.74146

$$$$
1808


 24 28  0  0  0  0  0  0  0  0999 V2000
   15.9968  -57.2385   36.1383 N   0  0  0  0  0  0  0  0  0  0  0  0
   16.7255  -58.2652   35.4835 C   0  0  0  0  0  0  0  0  0  0  0  0
   17.9771  -58.3021   35.4075 O   0  0  0  0  0  0  0  0  0  0  0  0
   15.7700  -59.2577   34.9224 C   0  0  0  0  0  0  0  0  0  0  0  0
   15.4387  -58.9769   33.4892 C   0  0  0  0  0  0  0  0  0  0  0  0
   14.1115  -59.4577   33.4350 O   0  0  0  0  0  0  0  0  0  0  0  0
   13.5769  -58.5934   34.4235 C   0  0  0  0  0  0  0  0  0  0  0  0
   14.4352  -58.9311   35.5936 C   0  0  0  0  0  0  0  0  0  0  0  0
   14.6827  -57.7190   36.4198 C   0  0  0  0  0  0  0  0  0  0  0  0
   13.8721  -57.2287   37.2104 O   0  0  0  0  0  0  0  0  0  0  0  0
   14.0251  -57.2885   33.8713 C   0  0  0  0  0  0  0  0  0  0  0  0
   15.2220  -57.5287   33.3445 C   0  0  0  0  0  0  0  0  0  0  0  0
   18.3857  -51.7663   37.3504 Br  0  0  0  0  0  0  0  0  0  0  0  0
   17.6410  -53.4716   36.9830 C   0  0  0  0  0  0  0  0  0  0  0  0
   17.1185  -54.2180   38.0113 C   0  0  0  0  0  0  0  0  0  0  0  0
   16.5831  -55.4522   37.7155 C   0  0  0  0  0  0  0  0  0  0  0  0
   16.5591  -55.9536   36.4328 C   0  0  0  0  0  0  0  0  0  0  0  0
   17.0860  -55.2002   35.3927 C   0  0  0  0  0  0  0  0  0  0  0  0
   17.6269  -53.9492   35.6964 C   0  0  0  0  0  0  0  0  0  0  0  0
   16.3178  -59.6097   32.4982 C   0  0  0  0  0  0  0  0  0  0  0  0
   15.6556  -60.1503   31.4302 O   0  0  0  0  0  0  0  0  0  0  0  0
   15.7465  -61.5179   31.5004 C   0  0  0  0  0  0  0  0  0  0  0  0
   16.5473  -61.8260   32.7226 C   0  0  0  0  0  0  0  0  0  0  0  0
   17.1037  -60.5981   33.0627 O   0  0  0  0  0  0  0  0  0  0  0  0
 13 14  1  0  0  0
 14 15  2  0  0  0
 14 19  1  0  0  0
 15 16  1  0  0  0
 16 17  2  0  0  0
 17 18  1  0  0  0
 17  1  1  0  0  0
 18 19  2  0  0  0
  1  2  1  0  0  0
  1  9  1  0  0  0
  2  3  2  0  0  0
  2  4  1  0  0  0
  4  5  1  0  0  0
  4  8  1  0  0  0
  5  6  1  0  0  0
  5 12  1  0  0  0
  5 20  1  0  0  0
  6  7  1  0  0  0
  7  8  1  0  0  0
  7 11  1  0  0  0
  8  9  1  0  0  0
  9 10  2  0  0  0
 11 12  2  0  0  0
 20 21  1  0  0  0
 20 24  1  0  0  0
 21 22  1  0  0  0
 22 23  1  0  0  0
 23 24  1  0  0  0
M  END
> <minimizedAffinity>
-8.43716

$$$$
