/Users/jonathanwahrer/Desktop/Msc/3_Semester/Drug_Design_Praktikum/waehrer_HTS_screening/HTS_experiment/out/docking_results/vina_output/4x21/0002_docked.pdbqt
 OpenBabel03212201133D

 38 41  0  0  0  0  0  0  0  0999 V2000
   21.9960   37.9800   66.7580 C   0  0  0  0  0  0  0  0  0  0  0  0
   21.9740   39.3370   66.5170 N   0  0  0  0  0  0  0  0  0  0  0  0
   23.0430   39.6380   65.8530 N   0  0  0  0  0  0  0  0  0  0  0  0
   23.7790   38.5120   65.6470 N   0  0  0  0  0  0  0  0  0  0  0  0
   23.1580   37.4690   66.1940 C   0  0  0  0  0  0  0  0  0  0  0  0
   20.9430   37.3000   67.4730 C   0  0  0  0  0  0  0  0  0  0  0  0
   20.7950   37.0460   68.8410 N   0  0  0  0  0  0  0  0  0  0  0  0
   21.4390   37.3230   69.5630 H   0  0  0  0  0  0  0  0  0  0  0  0
   19.9780   36.8600   66.7120 O   0  0  0  0  0  0  0  0  0  0  0  0
   19.6100   36.3310   69.2340 N   0  0  0  0  0  0  0  0  0  0  0  0
   18.6790   36.9260   69.8790 C   0  0  0  0  0  3  0  0  0  0  0  0
   17.4500   36.2400   70.3020 C   0  0  0  0  0  0  0  0  0  0  0  0
   16.1960   36.6560   69.9060 C   0  0  0  0  0  3  0  0  0  0  0  0
   15.0430   36.0030   70.3080 C   0  0  0  0  0  0  0  0  0  0  0  0
   15.1130   34.8990   71.1300 C   0  0  0  0  0  0  0  0  0  0  0  0
   13.3050   36.5810   69.7580 Br  0  0  0  0  0  0  0  0  0  0  0  0
   16.3670   34.4790   71.5290 C   0  0  0  0  0  0  0  0  0  0  0  0
   13.9710   34.2160   71.5550 O   0  0  0  0  0  1  0  0  0  0  0  0
   16.4960   32.9430   72.6750 Br  0  0  0  0  0  0  0  0  0  0  0  0
   17.5120   35.1340   71.1240 C   0  0  0  0  0  0  0  0  0  0  0  0
   18.7930   34.7120   71.5260 O   0  0  0  0  0  0  0  0  0  0  0  0
   19.5520   34.7370   70.8630 H   0  0  0  0  0  0  0  0  0  0  0  0
   23.5630   36.0640   66.2200 C   0  0  0  0  0  2  0  0  0  0  0  0
   24.6150   35.6520   67.0710 N   0  0  0  0  0  4  0  0  0  0  0  0
   25.4340   34.5900   66.5060 C   0  0  0  0  0  2  0  0  0  0  0  0
   24.6040   33.4620   66.0390 C   0  0  0  0  0  2  0  0  0  0  0  0
   23.4710   33.1450   66.6680 O   0  0  0  0  0  0  0  0  0  0  0  0
   23.0460   33.9010   67.7120 C   0  0  0  0  0  2  0  0  0  0  0  0
   23.9700   34.9330   68.2180 C   0  0  0  0  0  2  0  0  0  0  0  0
   25.1560   36.4190   67.4420 H   0  0  0  0  0  0  0  0  0  0  0  0
   25.0180   38.6000   64.9380 C   0  0  0  0  0  0  0  0  0  0  0  0
   26.1990   38.0310   65.1430 N   0  0  0  0  0  0  0  0  0  0  0  0
   26.9870   38.4120   64.1920 O   0  0  0  0  0  0  0  0  0  0  0  0
   26.3890   39.2070   63.3610 N   0  0  0  0  0  0  0  0  0  0  0  0
   25.1380   39.3700   63.7700 C   0  0  0  0  0  0  0  0  0  0  0  0
   24.0950   40.1440   63.1990 N   0  0  0  0  0  0  0  0  0  0  0  0
   24.3200   41.0610   62.7590 H   0  0  0  0  0  0  0  0  0  0  0  0
   23.0830   39.8270   63.2000 H   0  0  0  0  0  0  0  0  0  0  0  0
  1  6  1  0  0  0  0
  2  1  1  0  0  0  0
  3  2  2  0  0  0  0
  4  3  1  0  0  0  0
  4  5  1  0  0  0  0
  5 23  1  0  0  0  0
  5  1  2  0  0  0  0
  6  7  1  0  0  0  0
  7 10  1  0  0  0  0
  7  8  1  0  0  0  0
  9  6  2  0  0  0  0
 10 11  2  0  0  0  0
 11 12  1  0  0  0  0
 12 20  1  0  0  0  0
 13 12  2  0  0  0  0
 13 14  1  0  0  0  0
 14 15  2  0  0  0  0
 15 17  1  0  0  0  0
 15 18  1  0  0  0  0
 16 14  1  0  0  0  0
 17 19  1  0  0  0  0
 20 21  1  0  0  0  0
 20 17  2  0  0  0  0
 22 21  1  0  0  0  0
 23 24  1  0  0  0  0
 24 30  1  0  0  0  0
 24 29  1  0  0  0  0
 25 24  1  0  0  0  0
 26 25  1  0  0  0  0
 26 27  1  0  0  0  0
 27 28  1  0  0  0  0
 28 29  1  0  0  0  0
 31 32  2  0  0  0  0
 31  4  1  0  0  0  0
 33 32  1  0  0  0  0
 34 35  2  0  0  0  0
 34 33  1  0  0  0  0
 35 31  1  0  0  0  0
 36 38  1  0  0  0  0
 36 35  1  0  0  0  0
 37 36  1  0  0  0  0
M  END
>  <Pose>
1

>  <Score>
-8.525

$$$$
