/Users/jonathanwahrer/Desktop/Msc/3_Semester/Drug_Design_Praktikum/waehrer_HTS_screening/HTS_experiment/out/docking_results/vina_output/4x21/0005_docked.pdbqt
 OpenBabel03212201143D

 38 41  0  0  1  0  0  0  0  0999 V2000
   22.0840   36.6390   67.3880 N   0  0  0  0  0  0  0  0  0  0  0  0
   22.0000   37.8540   66.7840 C   0  0  0  0  0  0  0  0  0  0  0  0
   23.2450   38.2440   66.3670 C   0  0  0  0  0  0  0  0  0  0  0  0
   24.0520   37.2650   66.7200 N   0  0  0  0  0  0  0  0  0  0  0  0
   23.3760   36.2630   67.3450 C   0  0  0  0  0  0  0  0  0  0  0  0
   23.5070   39.4140   65.7080 N   0  0  0  0  0  0  0  0  0  0  0  0
   22.4600   40.2110   65.4640 C   0  0  0  0  0  0  0  0  0  0  0  0
   22.7050   41.2910   64.8560 O   0  0  0  0  0  0  0  0  0  0  0  0
   21.2150   39.8720   65.8500 N   0  0  0  0  0  2  0  0  0  0  0  0
   20.9430   38.7280   66.4980 C   0  0  0  0  0  0  0  0  0  0  0  0
   19.6610   38.4020   66.8760 O   0  0  0  0  0  0  0  0  0  0  0  0
   24.8750   39.7290   65.3190 C   0  0  0  0  0  1  0  0  0  0  0  0
   20.9990   35.9150   67.9480 C   0  0  0  0  0  2  0  0  0  0  0  0
   20.5320   36.1300   69.3080 C   0  0  1  0  0  3  0  0  0  0  0  0
   19.8860   35.1220   70.1600 C   0  0  0  0  0  2  0  0  0  0  0  0
   18.8870   35.7260   70.9790 O   0  0  0  0  0  0  0  0  0  0  0  0
   17.6030   35.3260   71.1060 C   0  0  0  0  0  0  0  0  0  0  0  0
   16.5970   36.0350   70.4320 C   0  0  0  0  0  0  0  0  0  0  0  0
   17.1290   37.5340   69.3680 Br  0  0  0  0  0  0  0  0  0  0  0  0
   15.2770   35.6750   70.5260 C   0  0  0  0  0  3  0  0  0  0  0  0
   14.8990   34.5940   71.2930 C   0  0  0  0  0  0  0  0  0  0  0  0
   15.8670   33.8830   71.9630 C   0  0  0  0  0  3  0  0  0  0  0  0
   13.0430   34.1680   71.3640 Br  0  0  0  0  0  0  0  0  0  0  0  0
   17.2090   34.2660   71.8570 C   0  0  0  0  0  0  0  0  0  0  0  0
   18.4610   33.2460   72.8250 Br  0  0  0  0  0  0  0  0  0  0  0  0
   21.3010   36.9360   70.1660 O   0  0  0  0  0  0  0  0  0  0  0  0
   21.8720   37.5530   69.6750 H   0  0  0  0  0  0  0  0  0  0  0  0
   24.0120   35.0280   67.7220 N   0  0  0  0  0  0  0  0  0  0  0  0
   23.9360   34.3640   68.9660 C   0  0  0  0  0  2  0  0  0  0  0  0
   24.7220   33.0300   68.8360 C   0  0  0  0  0  2  0  0  0  0  0  0
   26.0880   33.4350   68.5660 N   0  0  0  0  0  4  0  0  0  0  0  0
   26.0660   33.7410   67.1230 C   0  0  0  0  0  2  0  0  0  0  0  0
   26.3640   34.3230   69.0350 H   0  0  0  0  0  0  0  0  0  0  0  0
   24.8000   34.3590   66.6790 C   0  0  0  0  0  2  0  0  0  0  0  0
   27.0250   32.3590   68.8200 C   0  0  0  0  0  2  0  0  0  0  0  0
   27.1680   31.5300   67.5630 C   0  0  0  0  0  2  0  0  0  0  0  0
   26.8020   30.2070   67.8430 O   0  0  0  0  0  0  0  0  0  0  0  0
   25.8720   30.1660   68.1990 H   0  0  0  0  0  0  0  0  0  0  0  0
  1 13  1  0  0  0  0
  2  1  1  0  0  0  0
  3  4  1  0  0  0  0
  3  2  2  0  0  0  0
  4  5  2  0  0  0  0
  5  1  1  0  0  0  0
  5 28  1  0  0  0  0
  6  3  1  0  0  0  0
  7  6  1  0  0  0  0
  7  9  1  0  0  0  0
  8  7  2  0  0  0  0
  9 10  1  0  0  0  0
 10  2  1  0  0  0  0
 10 11  2  0  0  0  0
 12  6  1  0  0  0  0
 14 13  1  6  0  0  0
 14 15  1  0  0  0  0
 14 26  1  0  0  0  0
 15 16  1  0  0  0  0
 16 17  1  0  0  0  0
 17 24  1  0  0  0  0
 18 20  1  0  0  0  0
 18 17  2  0  0  0  0
 19 18  1  0  0  0  0
 20 21  2  0  0  0  0
 21 23  1  0  0  0  0
 21 22  1  0  0  0  0
 24 22  2  0  0  0  0
 24 25  1  0  0  0  0
 27 26  1  0  0  0  0
 28 29  1  0  0  0  0
 30 29  1  0  0  0  0
 31 35  1  0  0  0  0
 31 30  1  0  0  0  0
 31 33  1  0  0  0  0
 32 31  1  0  0  0  0
 34 32  1  0  0  0  0
 34 28  1  0  0  0  0
 36 37  1  0  0  0  0
 36 35  1  0  0  0  0
 37 38  1  0  0  0  0
M  END
>  <Pose>
1

>  <Score>
-8.109

$$$$
