/Users/jonathanwahrer/Desktop/Msc/3_Semester/Drug_Design_Praktikum/waehrer_HTS_screening/HTS_experiment/out/docking_results/vina_output/4x21/0006_docked.pdbqt
 OpenBabel03212201153D

 34 37  0  0  0  0  0  0  0  0999 V2000
   16.6040   35.8110   70.6000 N   0  0  0  0  0  0  0  0  0  0  0  0
   15.3340   35.6160   70.1550 C   0  0  0  0  0  0  0  0  0  0  0  0
   15.0110   34.2890   70.2260 C   0  0  0  0  0  0  0  0  0  0  0  0
   16.1020   33.6840   70.7200 N   0  0  0  0  0  0  0  0  0  0  0  0
   17.0810   34.6150   70.9500 C   0  0  0  0  0  0  0  0  0  0  0  0
   13.7560   33.8900   69.8160 C   0  0  0  0  0  3  0  0  0  0  0  0
   12.8190   34.7910   69.3370 C   0  0  0  0  0  3  0  0  0  0  0  0
   13.1750   36.1260   69.2760 C   0  0  0  0  0  3  0  0  0  0  0  0
   14.4300   36.5290   69.6860 C   0  0  0  0  0  3  0  0  0  0  0  0
   17.3160   37.0470   70.6890 C   0  0  0  0  0  2  0  0  0  0  0  0
   18.2970   37.2960   69.6600 C   0  0  0  0  0  0  0  0  0  0  0  0
   19.6880   37.1140   69.8510 N   0  0  0  0  0  0  0  0  0  0  0  0
   20.0050   36.7840   70.7870 H   0  0  0  0  0  0  0  0  0  0  0  0
   17.9300   37.6940   68.5300 O   0  0  0  0  0  0  0  0  0  0  0  0
   20.6520   37.3440   68.8830 N   0  0  0  0  0  0  0  0  0  0  0  0
   21.1160   36.4390   68.1090 C   0  0  0  0  0  3  0  0  0  0  0  0
   22.1250   36.7950   67.1300 C   0  0  0  0  0  0  0  0  0  0  0  0
   23.0090   35.8580   66.6920 C   0  0  0  0  0  0  0  0  0  0  0  0
   23.9650   36.2080   65.7620 C   0  0  0  0  0  0  0  0  0  0  0  0
   22.9590   34.5610   67.1710 O   0  0  0  0  0  1  0  0  0  0  0  0
   25.1880   34.8860   65.1650 Br  0  0  0  0  0  0  0  0  0  0  0  0
   24.0250   37.5020   65.2760 C   0  0  0  0  0  3  0  0  0  0  0  0
   23.1230   38.4320   65.7300 C   0  0  0  0  0  0  0  0  0  0  0  0
   22.1610   38.1120   66.6570 C   0  0  0  0  0  3  0  0  0  0  0  0
   23.2180   40.2170   65.0490 Br  0  0  0  0  0  0  0  0  0  0  0  0
   18.3970   34.2910   71.4890 C   0  0  0  0  0  0  0  0  0  0  0  0
   19.5480   34.3250   70.8060 N   0  0  0  0  0  0  0  0  0  0  0  0
   20.5330   33.9730   71.6130 O   0  0  0  0  0  0  0  0  0  0  0  0
   20.0710   33.7100   72.7950 N   0  0  0  0  0  0  0  0  0  0  0  0
   18.7330   33.8970   72.7640 C   0  0  0  0  0  0  0  0  0  0  0  0
   17.8350   33.7210   73.8440 N   0  0  0  0  0  4  0  0  0  0  0  0
   18.2060   33.1000   74.5750 H   0  0  0  0  0  0  0  0  0  0  0  0
   16.9860   33.2360   73.4420 H   0  0  0  0  0  0  0  0  0  0  0  0
   17.4990   34.6350   74.2470 H   0  0  0  0  0  0  0  0  0  0  0  0
  1 10  1  0  0  0  0
  1  5  1  0  0  0  0
  2  3  1  0  0  0  0
  2  1  1  0  0  0  0
  3  4  1  0  0  0  0
  4  5  2  0  0  0  0
  5 26  1  0  0  0  0
  6  3  2  0  0  0  0
  7  6  1  0  0  0  0
  8  7  2  0  0  0  0
  8  9  1  0  0  0  0
  9  2  2  0  0  0  0
 11 12  1  0  0  0  0
 11 10  1  0  0  0  0
 12 13  1  0  0  0  0
 14 11  2  0  0  0  0
 15 12  1  0  0  0  0
 16 15  2  0  0  0  0
 17 16  1  0  0  0  0
 18 17  1  0  0  0  0
 18 20  1  0  0  0  0
 19 18  2  0  0  0  0
 21 19  1  0  0  0  0
 22 23  2  0  0  0  0
 22 19  1  0  0  0  0
 23 24  1  0  0  0  0
 24 17  2  0  0  0  0
 25 23  1  0  0  0  0
 26 30  1  0  0  0  0
 27 26  2  0  0  0  0
 27 28  1  0  0  0  0
 28 29  1  0  0  0  0
 30 29  2  0  0  0  0
 30 31  1  0  0  0  0
 31 34  1  0  0  0  0
 31 32  1  0  0  0  0
 33 31  1  0  0  0  0
M  END
>  <Pose>
1

>  <Score>
-9.356

$$$$
