/Users/jonathanwahrer/Desktop/Msc/3_Semester/Drug_Design_Praktikum/waehrer_HTS_screening/HTS_experiment/out/docking_results/vina_output/4x21/0011_docked.pdbqt
 OpenBabel03212201153D

 36 39  0  0  0  0  0  0  0  0999 V2000
   20.9430   36.9310   69.6540 N   0  0  0  0  0  0  0  0  0  0  0  0
   19.6560   37.2300   69.2340 C   0  0  0  0  0  0  0  0  0  0  0  0
   19.7340   37.5800   67.9380 C   0  0  0  0  0  0  0  0  0  0  0  0
   21.0080   37.4950   67.5900 N   0  0  0  0  0  0  0  0  0  0  0  0
   21.7830   37.0870   68.6660 C   0  0  0  0  0  0  0  0  0  0  0  0
   18.6230   37.9410   67.1920 C   0  0  0  0  0  3  0  0  0  0  0  0
   17.4150   37.9260   67.8460 C   0  0  0  0  0  3  0  0  0  0  0  0
   17.2780   37.5780   69.1760 C   0  0  0  0  0  3  0  0  0  0  0  0
   18.4280   37.2230   69.8780 C   0  0  0  0  0  3  0  0  0  0  0  0
   21.1650   36.5050   70.9740 C   0  0  0  0  0  2  0  0  0  0  0  0
   21.0670   34.9700   71.1150 C   0  0  0  0  0  0  0  0  0  0  0  0
   19.8800   34.6070   71.6600 N   0  0  0  0  0  0  0  0  0  0  0  0
   20.2850   33.2670   71.5360 H   0  0  0  0  0  0  0  0  0  0  0  0
   22.0730   34.3910   70.7110 O   0  0  0  0  0  0  0  0  0  0  0  0
   18.8010   34.2730   72.1550 N   0  0  0  0  0  2  0  0  0  0  0  0
   17.7310   34.0250   72.5900 C   0  0  0  0  0  2  0  0  0  0  0  0
   16.4160   33.9880   72.0490 C   0  0  0  0  0  0  0  0  0  0  0  0
   15.6160   32.8490   72.2190 C   0  0  0  0  0  3  0  0  0  0  0  0
   14.3390   32.7100   71.7590 C   0  0  0  0  0  0  0  0  0  0  0  0
   13.7750   33.8010   71.0550 C   0  0  0  0  0  0  0  0  0  0  0  0
   14.5270   34.9390   70.8640 C   0  0  0  0  0  0  0  0  0  0  0  0
   12.4960   33.6580   70.6020 O   0  0  0  0  0  1  0  0  0  0  0  0
   13.7900   36.4300   69.9490 Br  0  0  0  0  0  0  0  0  0  0  0  0
   15.8150   35.0150   71.3560 C   0  0  0  0  0  3  0  0  0  0  0  0
   13.5610   31.5810   71.9390 O   0  0  0  0  0  0  0  0  0  0  0  0
   13.8820   30.5770   72.8380 C   0  0  0  0  0  2  0  0  0  0  0  0
   13.1970   30.6390   74.1740 C   0  0  0  0  0  1  0  0  0  0  0  0
   23.2040   36.9360   68.4120 C   0  0  0  0  0  0  0  0  0  0  0  0
   24.1630   37.1310   69.4050 N   0  0  0  0  0  0  0  0  0  0  0  0
   25.3290   36.9170   68.9460 O   0  0  0  0  0  0  0  0  0  0  0  0
   25.2720   36.5910   67.7180 N   0  0  0  0  0  0  0  0  0  0  0  0
   23.9470   36.5900   67.3430 C   0  0  0  0  0  0  0  0  0  0  0  0
   23.5430   36.2440   66.0360 N   0  0  0  0  0  4  0  0  0  0  0  0
   24.3050   36.5950   65.3430 H   0  0  0  0  0  0  0  0  0  0  0  0
   22.7130   36.7860   65.7680 H   0  0  0  0  0  0  0  0  0  0  0  0
   23.5600   35.2380   65.8880 H   0  0  0  0  0  0  0  0  0  0  0  0
  1 10  1  0  0  0  0
  2  1  1  0  0  0  0
  2  9  1  0  0  0  0
  3  2  2  0  0  0  0
  4  3  1  0  0  0  0
  4  5  2  0  0  0  0
  5  1  1  0  0  0  0
  6  7  2  0  0  0  0
  6  3  1  0  0  0  0
  7  8  1  0  0  0  0
  8  9  2  0  0  0  0
 10 11  1  0  0  0  0
 11 12  1  0  0  0  0
 12 15  1  0  0  0  0
 13 12  1  0  0  0  0
 14 11  2  0  0  0  0
 15 16  1  0  0  0  0
 17 18  1  0  0  0  0
 17 16  1  0  0  0  0
 19 25  1  0  0  0  0
 19 18  2  0  0  0  0
 20 19  1  0  0  0  0
 21 20  2  0  0  0  0
 21 24  1  0  0  0  0
 22 20  1  0  0  0  0
 23 21  1  0  0  0  0
 24 17  2  0  0  0  0
 25 26  1  0  0  0  0
 26 27  1  0  0  0  0
 28  5  1  0  0  0  0
 28 29  2  0  0  0  0
 30 29  1  0  0  0  0
 31 30  1  0  0  0  0
 32 31  2  0  0  0  0
 32 28  1  0  0  0  0
 33 32  1  0  0  0  0
 34 33  1  0  0  0  0
 35 33  1  0  0  0  0
 36 33  1  0  0  0  0
M  END
>  <Pose>
1

>  <Score>
-9.044

$$$$
