/Users/jonathanwahrer/Desktop/Msc/3_Semester/Drug_Design_Praktikum/waehrer_HTS_screening/HTS_experiment/out/docking_results/vina_output/4x21/0017_docked.pdbqt
 OpenBabel03212201163D

 38 41  0  0  0  0  0  0  0  0999 V2000
   17.1050   36.8180   70.0060 C   0  0  0  0  0  0  0  0  0  0  0  0
   16.0920   37.6680   70.2170 N   0  0  0  0  0  0  0  0  0  0  0  0
   15.0360   37.0020   70.6150 N   0  0  0  0  0  0  0  0  0  0  0  0
   15.3030   35.6860   70.6850 N   0  0  0  0  0  0  0  0  0  0  0  0
   16.5790   35.5480   70.3120 C   0  0  0  0  0  0  0  0  0  0  0  0
   18.4620   37.1050   69.5590 C   0  0  0  0  0  0  0  0  0  0  0  0
   18.7720   37.2950   68.1930 N   0  0  0  0  0  0  0  0  0  0  0  0
   17.9840   37.2220   67.4860 H   0  0  0  0  0  0  0  0  0  0  0  0
   19.3740   37.1860   70.4040 O   0  0  0  0  0  0  0  0  0  0  0  0
   20.0250   37.5680   67.7050 N   0  0  0  0  0  0  0  0  0  0  0  0
   20.5810   36.9910   66.7040 C   0  0  0  0  0  3  0  0  0  0  0  0
   21.9180   37.3480   66.2580 C   0  0  0  0  0  0  0  0  0  0  0  0
   22.3580   38.6570   66.1410 C   0  0  0  0  0  3  0  0  0  0  0  0
   23.6280   38.9660   65.7160 C   0  0  0  0  0  0  0  0  0  0  0  0
   24.4660   37.9200   65.4040 C   0  0  0  0  0  0  0  0  0  0  0  0
   24.0580   36.5950   65.5080 C   0  0  0  0  0  0  0  0  0  0  0  0
   25.2260   35.1530   65.0740 Br  0  0  0  0  0  0  0  0  0  0  0  0
   22.7900   36.3320   65.9340 C   0  0  0  0  0  3  0  0  0  0  0  0
   24.0980   40.2510   65.5890 O   0  0  0  0  0  0  0  0  0  0  0  0
   23.3660   41.4260   65.7110 C   0  0  0  0  0  2  0  0  0  0  0  0
   22.9770   42.0670   64.4180 C   0  0  0  0  0  1  0  0  0  0  0  0
   25.7630   38.1720   64.9690 O   0  0  0  0  0  0  0  0  0  0  0  0
   25.9560   38.2490   63.9770 H   0  0  0  0  0  0  0  0  0  0  0  0
   17.3750   34.3270   70.1790 C   0  0  0  0  0  2  0  0  0  0  0  0
   18.2940   34.0260   71.2470 N   0  0  0  0  0  0  0  0  0  0  0  0
   17.7200   32.8470   71.9060 C   0  0  0  0  0  2  0  0  0  0  0  0
   17.5930   31.6520   71.0480 C   0  0  0  0  0  2  0  0  0  0  0  0
   18.6090   31.5920   70.1070 O   0  0  0  0  0  0  0  0  0  0  0  0
   19.7450   32.1430   70.6590 C   0  0  0  0  0  2  0  0  0  0  0  0
   19.5920   33.6510   70.6810 C   0  0  0  0  0  2  0  0  0  0  0  0
   14.3300   34.7090   71.0700 C   0  0  0  0  0  0  0  0  0  0  0  0
   14.4500   33.6950   71.9410 N   0  0  0  0  0  0  0  0  0  0  0  0
   13.3130   33.0440   72.0040 O   0  0  0  0  0  0  0  0  0  0  0  0
   12.4300   33.5880   71.2020 N   0  0  0  0  0  0  0  0  0  0  0  0
   13.0390   34.6300   70.6070 C   0  0  0  0  0  0  0  0  0  0  0  0
   12.3980   35.4760   69.6650 N   0  0  0  0  0  0  0  0  0  0  0  0
   11.4880   35.2560   69.2110 H   0  0  0  0  0  0  0  0  0  0  0  0
   12.8330   36.3910   69.3810 H   0  0  0  0  0  0  0  0  0  0  0  0
  1  2  1  0  0  0  0
  1  5  2  0  0  0  0
  2  3  2  0  0  0  0
  3  4  1  0  0  0  0
  4 31  1  0  0  0  0
  5  4  1  0  0  0  0
  6  1  1  0  0  0  0
  6  9  2  0  0  0  0
  7  6  1  0  0  0  0
  8  7  1  0  0  0  0
 10  7  1  0  0  0  0
 11 10  2  0  0  0  0
 12 11  1  0  0  0  0
 13 12  1  0  0  0  0
 14 13  2  0  0  0  0
 15 16  2  0  0  0  0
 15 14  1  0  0  0  0
 16 18  1  0  0  0  0
 17 16  1  0  0  0  0
 18 12  2  0  0  0  0
 19 20  1  0  0  0  0
 19 14  1  0  0  0  0
 21 20  1  0  0  0  0
 22 15  1  0  0  0  0
 23 22  1  0  0  0  0
 24  5  1  0  0  0  0
 24 25  1  0  0  0  0
 25 26  1  0  0  0  0
 27 26  1  0  0  0  0
 28 29  1  0  0  0  0
 28 27  1  0  0  0  0
 29 30  1  0  0  0  0
 30 25  1  0  0  0  0
 31 32  2  0  0  0  0
 32 33  1  0  0  0  0
 34 33  1  0  0  0  0
 35 31  1  0  0  0  0
 35 34  2  0  0  0  0
 36 35  1  0  0  0  0
 37 36  1  0  0  0  0
 38 36  1  0  0  0  0
M  END
>  <Pose>
1

>  <Score>
-8.604

$$$$
