/Users/jonathanwahrer/Desktop/Msc/3_Semester/Drug_Design_Praktikum/waehrer_HTS_screening/HTS_experiment/out/docking_results/vina_output/4x21/0020_docked.pdbqt
 OpenBabel03212201173D

 34 37  0  0  0  0  0  0  0  0999 V2000
   20.8610   37.8510   66.9030 C   0  0  0  0  0  0  0  0  0  0  0  0
   21.3090   38.8860   66.2180 N   0  0  0  0  0  4  0  0  0  0  0  0
   22.6150   38.9590   65.8320 C   0  0  0  0  0  0  0  0  0  0  0  0
   23.3970   37.9140   66.1930 N   0  0  0  0  0  0  0  0  0  0  0  0
   22.9970   36.8350   66.8910 C   0  0  0  0  0  0  0  0  0  0  0  0
   21.6920   36.8290   67.2460 N   0  0  0  0  0  2  0  0  0  0  0  0
   19.4290   37.5870   67.1770 N   0  0  0  0  0  0  0  0  0  0  0  0
   18.8310   37.5860   66.3750 H   0  0  0  0  0  0  0  0  0  0  0  0
   19.2490   37.3890   68.4590 N   0  0  0  0  0  2  0  0  0  0  0  0
   19.0690   37.2110   69.5910 C   0  0  0  0  0  2  0  0  0  0  0  0
   17.9680   36.5080   70.2820 C   0  0  0  0  0  0  0  0  0  0  0  0
   16.6490   36.8510   70.1980 C   0  0  0  0  0  3  0  0  0  0  0  0
   15.6600   36.0150   70.6960 C   0  0  0  0  0  0  0  0  0  0  0  0
   16.0030   34.8070   71.3000 C   0  0  0  0  0  0  0  0  0  0  0  0
   17.3220   34.4570   71.3990 C   0  0  0  0  0  0  0  0  0  0  0  0
   17.7960   32.7840   72.2090 Br  0  0  0  0  0  0  0  0  0  0  0  0
   18.2750   35.3110   70.8890 C   0  0  0  0  0  3  0  0  0  0  0  0
   14.3280   36.2860   70.6460 O   0  0  0  0  0  0  0  0  0  0  0  0
   13.4750   36.3300   69.5590 C   0  0  0  0  0  2  0  0  0  0  0  0
   12.8910   34.9690   69.2090 C   0  0  0  0  0  1  0  0  0  0  0  0
   15.0560   33.9410   71.8050 O   0  0  0  0  0  0  0  0  0  0  0  0
   14.0770   34.0720   71.7140 H   0  0  0  0  0  0  0  0  0  0  0  0
   23.1150   40.0080   65.0240 N   0  0  0  0  0  0  0  0  0  0  0  0
   24.4900   39.9320   64.5060 C   0  0  0  0  0  2  0  0  0  0  0  0
   25.0960   41.3320   64.7830 C   0  0  0  0  0  2  0  0  0  0  0  0
   24.4080   42.1710   63.9550 O   0  0  0  0  0  0  0  0  0  0  0  0
   23.1030   42.3610   64.3140 C   0  0  0  0  0  2  0  0  0  0  0  0
   22.3360   41.1490   64.7290 C   0  0  0  0  0  2  0  0  0  0  0  0
   23.8150   35.7380   67.0940 N   0  0  0  0  0  0  0  0  0  0  0  0
   24.9300   35.2880   66.3540 C   0  0  0  0  0  2  0  0  0  0  0  0
   24.5690   33.8990   65.8200 C   0  0  0  0  0  2  0  0  0  0  0  0
   24.2140   33.1170   66.8980 O   0  0  0  0  0  0  0  0  0  0  0  0
   23.1200   33.5490   67.6120 C   0  0  0  0  0  2  0  0  0  0  0  0
   23.4680   34.9070   68.2850 C   0  0  0  0  0  2  0  0  0  0  0  0
  1  7  1  0  0  0  0
  1  6  1  0  0  0  0
  2  1  2  0  0  0  0
  3  4  1  0  0  0  0
  3  2  2  0  0  0  0
  4  5  2  0  0  0  0
  5 29  1  0  0  0  0
  5  6  1  0  0  0  0
  7  9  1  0  0  0  0
  8  7  1  0  0  0  0
  9 10  1  0  0  0  0
 10 11  1  0  0  0  0
 11 17  1  0  0  0  0
 12 11  2  0  0  0  0
 12 13  1  0  0  0  0
 13 14  2  0  0  0  0
 14 15  1  0  0  0  0
 14 21  1  0  0  0  0
 15 16  1  0  0  0  0
 17 15  2  0  0  0  0
 18 13  1  0  0  0  0
 19 18  1  0  0  0  0
 20 19  1  0  0  0  0
 22 21  1  0  0  0  0
 23  3  1  0  0  0  0
 24 25  1  0  0  0  0
 24 23  1  0  0  0  0
 26 27  1  0  0  0  0
 26 25  1  0  0  0  0
 27 28  1  0  0  0  0
 28 23  1  0  0  0  0
 29 34  1  0  0  0  0
 30 29  1  0  0  0  0
 31 30  1  0  0  0  0
 31 32  1  0  0  0  0
 32 33  1  0  0  0  0
 33 34  1  0  0  0  0
M  END
>  <Pose>
1

>  <Score>
-8.447

$$$$
