/Users/jonathanwahrer/Desktop/Msc/3_Semester/Drug_Design_Praktikum/waehrer_HTS_screening/HTS_experiment/out/docking_results/vina_output/4x21/0023_docked.pdbqt
 OpenBabel03212201173D

 37 40  0  0  1  0  0  0  0  0999 V2000
   21.8680   34.5230   70.4200 C   0  0  1  0  0  3  0  0  0  0  0  0
   22.6260   33.8740   69.3720 N   0  0  0  0  0  0  0  0  0  0  0  0
   22.2090   34.2880   68.1030 C   0  0  0  0  0  0  0  0  0  0  0  0
   22.5830   33.8170   67.0180 O   0  0  0  0  0  0  0  0  0  0  0  0
   21.2500   35.3780   68.2860 C   0  0  0  0  0  0  0  0  0  0  0  0
   20.6910   35.9600   67.3210 O   0  0  0  0  0  0  0  0  0  0  0  0
   21.1040   35.6110   69.7070 C   0  0  1  0  0  3  0  0  0  0  0  0
   20.3950   36.5650   70.2460 C   0  0  1  0  0  3  0  0  0  0  0  0
   21.0190   37.5250   71.0260 O   0  0  0  0  0  1  0  0  0  0  0  0
   18.9690   36.6640   70.0510 C   0  0  0  0  0  0  0  0  0  0  0  0
   18.2080   35.7970   70.8450 C   0  0  0  0  0  3  0  0  0  0  0  0
   16.8360   35.8070   70.7910 C   0  0  0  0  0  0  0  0  0  0  0  0
   16.1840   36.6750   69.9470 C   0  0  0  0  0  0  0  0  0  0  0  0
   15.8470   34.9670   71.5410 C   0  0  0  0  0  2  0  0  0  0  0  0
   16.9570   37.5200   69.1730 C   0  0  0  0  0  3  0  0  0  0  0  0
   14.7960   36.4710   70.0950 O   0  0  0  0  0  0  0  0  0  0  0  0
   18.3350   37.5260   69.2150 C   0  0  0  0  0  3  0  0  0  0  0  0
   14.5920   35.2160   70.7360 C   0  0  1  0  0  3  0  0  0  0  0  0
   14.4550   34.0820   69.7380 C   0  0  0  0  0  1  0  0  0  0  0  0
   20.9420   33.5070   70.9840 C   0  0  0  0  0  0  0  0  0  0  0  0
   21.3040   32.9570   72.2040 C   0  0  0  0  0  3  0  0  0  0  0  0
   20.5460   32.0270   72.8330 C   0  0  0  0  0  0  0  0  0  0  0  0
   19.3650   31.6110   72.2320 C   0  0  0  0  0  0  0  0  0  0  0  0
   19.0000   32.1680   70.9980 C   0  0  0  0  0  0  0  0  0  0  0  0
   17.3870   31.6010   70.1790 Br  0  0  0  0  0  0  0  0  0  0  0  0
   19.7800   33.1160   70.3660 C   0  0  0  0  0  3  0  0  0  0  0  0
   20.9150   31.4740   74.0620 O   0  0  0  0  0  0  0  0  0  0  0  0
   21.9560   30.5480   74.2080 C   0  0  0  0  0  1  0  0  0  0  0  0
   18.5880   30.6690   72.8580 O   0  0  0  0  0  0  0  0  0  0  0  0
   18.1480   29.9520   72.3350 H   0  0  0  0  0  0  0  0  0  0  0  0
   23.6700   32.9170   69.6790 C   0  0  0  0  0  2  0  0  0  0  0  0
   25.0150   33.4620   69.9120 C   0  0  0  0  0  2  0  0  0  0  0  0
   25.8040   33.9030   68.7360 C   0  0  0  0  0  2  0  0  0  0  0  0
   25.7120   33.0240   67.5960 N   0  0  0  0  0  4  0  0  0  0  0  0
   26.7990   32.0370   67.6660 C   0  0  0  0  0  1  0  0  0  0  0  0
   25.9470   33.8310   66.4120 C   0  0  0  0  0  1  0  0  0  0  0  0
   24.8090   32.5570   67.4770 H   0  0  0  0  0  0  0  0  0  0  0  0
  1 20  1  6  0  0  0
  2 31  1  0  0  0  0
  2  1  1  0  0  0  0
  3  5  1  0  0  0  0
  3  2  1  0  0  0  0
  4  3  2  0  0  0  0
  5  7  1  0  0  0  0
  6  5  2  0  0  0  0
  7  8  1  1  0  0  0
  7  1  1  0  0  0  0
  8  9  1  6  0  0  0
 10  8  1  0  0  0  0
 10 11  1  0  0  0  0
 12 11  2  0  0  0  0
 12 14  1  0  0  0  0
 13 16  1  0  0  0  0
 13 12  1  0  0  0  0
 15 17  1  0  0  0  0
 15 13  2  0  0  0  0
 16 18  1  0  0  0  0
 17 10  2  0  0  0  0
 18 19  1  6  0  0  0
 18 14  1  0  0  0  0
 20 21  1  0  0  0  0
 21 22  2  0  0  0  0
 22 27  1  0  0  0  0
 23 22  1  0  0  0  0
 23 29  1  0  0  0  0
 24 23  2  0  0  0  0
 25 24  1  0  0  0  0
 26 20  2  0  0  0  0
 26 24  1  0  0  0  0
 27 28  1  0  0  0  0
 30 29  1  0  0  0  0
 31 32  1  0  0  0  0
 33 32  1  0  0  0  0
 34 35  1  0  0  0  0
 34 33  1  0  0  0  0
 36 34  1  0  0  0  0
 37 34  1  0  0  0  0
M  END
>  <Pose>
1

>  <Score>
-7.888

$$$$
