/Users/jonathanwahrer/Desktop/Msc/3_Semester/Drug_Design_Praktikum/waehrer_HTS_screening/HTS_experiment/out/docking_results/vina_output/4x21/0026_docked.pdbqt
 OpenBabel03212201183D

 29 32  0  0  1  0  0  0  0  0999 V2000
   17.8730   33.3190   73.0240 C   0  0  2  0  0  3  0  0  0  0  0  0
   17.8830   31.9350   73.2570 N   0  0  0  0  0  4  0  0  0  0  0  0
   16.7140   31.1770   73.0180 C   0  0  1  0  0  3  0  0  0  0  0  0
   15.4300   31.9610   72.9880 C   0  0  0  0  0  2  0  0  0  0  0  0
   15.5590   33.2090   72.1980 C   0  0  0  0  0  0  0  0  0  0  0  0
   14.6810   33.8900   71.3990 C   0  0  0  0  0  0  0  0  0  0  0  0
   15.3930   34.9840   70.9380 C   0  0  0  0  0  0  0  0  0  0  0  0
   16.6510   34.9440   71.4520 N   0  0  0  0  0  0  0  0  0  0  0  0
   16.7560   33.8560   72.2270 C   0  0  0  0  0  0  0  0  0  0  0  0
   14.7270   35.8490   70.0960 C   0  0  0  0  0  3  0  0  0  0  0  0
   13.4150   35.6370   69.7300 C   0  0  0  0  0  3  0  0  0  0  0  0
   12.7070   34.5460   70.1900 C   0  0  0  0  0  3  0  0  0  0  0  0
   13.3610   33.6670   71.0370 C   0  0  0  0  0  3  0  0  0  0  0  0
   18.6900   31.4570   72.7600 H   0  0  0  0  0  0  0  0  0  0  0  0
   18.1540   31.7820   74.2810 H   0  0  0  0  0  0  0  0  0  0  0  0
   17.3490   35.6850   71.2250 H   0  0  0  0  0  0  0  0  0  0  0  0
   19.1250   33.7090   72.3160 C   0  0  0  0  0  0  0  0  0  0  0  0
   19.4480   35.0250   72.0630 C   0  0  0  0  0  3  0  0  0  0  0  0
   20.6300   35.2660   71.3960 C   0  0  0  0  0  0  0  0  0  0  0  0
   21.4910   34.2730   70.9780 C   0  0  0  0  0  0  0  0  0  0  0  0
   21.1070   37.0750   71.0310 Br  0  0  0  0  0  0  0  0  0  0  0  0
   21.1620   32.9640   71.2350 C   0  0  0  0  0  0  0  0  0  0  0  0
   22.3220   31.5660   70.6740 Br  0  0  0  0  0  0  0  0  0  0  0  0
   19.9670   32.6980   71.9100 C   0  0  0  0  0  3  0  0  0  0  0  0
   22.6820   34.6030   70.3020 O   0  0  0  0  0  0  0  0  0  0  0  0
   22.8030   35.5610   70.0030 H   0  0  0  0  0  0  0  0  0  0  0  0
   16.7820   30.3960   71.7520 C   0  0  0  0  0  0  0  0  0  0  0  0
   16.1160   29.3100   71.6510 O   0  0  0  0  0  1  0  0  0  0  0  0
   17.5630   30.8530   70.7030 O   0  0  0  0  0  0  0  0  0  0  0  0
  1 17  1  6  0  0  0
  1  2  1  0  0  0  0
  2 15  1  0  0  0  0
  3 27  1  6  0  0  0
  3  2  1  0  0  0  0
  4  3  1  0  0  0  0
  5  9  2  0  0  0  0
  5  4  1  0  0  0  0
  6  5  1  0  0  0  0
  7  6  2  0  0  0  0
  7  8  1  0  0  0  0
  8  9  1  0  0  0  0
  9  1  1  0  0  0  0
 10  7  1  0  0  0  0
 11 10  2  0  0  0  0
 11 12  1  0  0  0  0
 12 13  2  0  0  0  0
 13  6  1  0  0  0  0
 14  2  1  0  0  0  0
 16  8  1  0  0  0  0
 18 17  1  0  0  0  0
 19 18  2  0  0  0  0
 20 22  2  0  0  0  0
 20 19  1  0  0  0  0
 21 19  1  0  0  0  0
 22 24  1  0  0  0  0
 23 22  1  0  0  0  0
 24 17  2  0  0  0  0
 25 20  1  0  0  0  0
 26 25  1  0  0  0  0
 28 27  1  0  0  0  0
 29 27  2  0  0  0  0
M  END
>  <Pose>
1

>  <Score>
-9.142

$$$$
