/Users/jonathanwahrer/Desktop/Msc/3_Semester/Drug_Design_Praktikum/waehrer_HTS_screening/HTS_experiment/out/docking_results/vina_output/4x21/0033_docked.pdbqt
 OpenBabel03212201183D

 33 36  0  0  0  0  0  0  0  0999 V2000
   18.0140   36.5450   69.9620 C   0  0  0  0  0  0  0  0  0  0  0  0
   18.7590   35.6770   70.6290 N   0  0  0  0  0  4  0  0  0  0  0  0
   18.2690   34.6650   71.3640 C   0  0  0  0  0  0  0  0  0  0  0  0
   16.9240   34.5460   71.4100 N   0  0  0  0  0  0  0  0  0  0  0  0
   16.1050   35.4050   70.7460 C   0  0  0  0  0  0  0  0  0  0  0  0
   16.6730   36.4020   70.0240 N   0  0  0  0  0  2  0  0  0  0  0  0
   18.6230   37.6050   69.2360 N   0  0  0  0  0  0  0  0  0  0  0  0
   18.1110   38.4860   69.1070 H   0  0  0  0  0  0  0  0  0  0  0  0
   19.8920   37.4550   68.7030 N   0  0  0  0  0  0  0  0  0  0  0  0
   20.1350   36.9370   67.5480 C   0  0  0  0  0  3  0  0  0  0  0  0
   21.4830   36.7980   67.0350 C   0  0  0  0  0  0  0  0  0  0  0  0
   22.1570   37.9130   66.5370 C   0  0  0  0  0  0  0  0  0  0  0  0
   23.4240   37.8420   66.0190 C   0  0  0  0  0  3  0  0  0  0  0  0
   24.1100   36.6440   65.9670 C   0  0  0  0  0  0  0  0  0  0  0  0
   23.4610   35.5220   66.4580 C   0  0  0  0  0  0  0  0  0  0  0  0
   24.3790   33.8590   66.4080 Br  0  0  0  0  0  0  0  0  0  0  0  0
   22.1820   35.6120   66.9750 C   0  0  0  0  0  3  0  0  0  0  0  0
   21.4690   39.1290   66.5880 O   0  0  0  0  0  0  0  0  0  0  0  0
   22.0110   39.9880   66.6040 H   0  0  0  0  0  0  0  0  0  0  0  0
   25.3980   36.5840   65.4390 O   0  0  0  0  0  0  0  0  0  0  0  0
   25.7910   37.2920   64.8370 H   0  0  0  0  0  0  0  0  0  0  0  0
   19.1190   33.7500   72.0750 N   0  0  0  0  0  0  0  0  0  0  0  0
   18.5750   32.7390   72.9370 C   0  0  0  0  0  2  0  0  0  0  0  0
   19.5100   31.6990   73.4160 C   0  0  0  0  0  2  0  0  0  0  0  0
   20.8530   32.0230   73.2790 O   0  0  0  0  0  0  0  0  0  0  0  0
   21.1500   32.4950   72.0070 C   0  0  0  0  0  2  0  0  0  0  0  0
   20.5370   33.8700   71.9010 C   0  0  0  0  0  2  0  0  0  0  0  0
   14.7030   35.2780   70.8150 N   0  0  0  0  0  0  0  0  0  0  0  0
   13.8400   35.9920   69.9100 C   0  0  0  0  0  2  0  0  0  0  0  0
   12.9290   34.9230   69.2910 C   0  0  0  0  0  2  0  0  0  0  0  0
   12.3330   34.2000   70.3040 O   0  0  0  0  0  0  0  0  0  0  0  0
   13.2740   33.4040   70.9560 C   0  0  0  0  0  2  0  0  0  0  0  0
   14.1040   34.4030   71.7900 C   0  0  0  0  0  2  0  0  0  0  0  0
  1  6  1  0  0  0  0
  1  2  2  0  0  0  0
  2  3  2  0  0  0  0
  3  4  1  0  0  0  0
  3 22  1  0  0  0  0
  5 28  1  0  0  0  0
  5  4  2  0  0  0  0
  6  5  1  0  0  0  0
  7  1  1  0  0  0  0
  8  7  1  0  0  0  0
  9  7  1  0  0  0  0
 10  9  2  0  0  0  0
 11 10  1  0  0  0  0
 12 18  1  0  0  0  0
 12 11  2  0  0  0  0
 13 12  1  0  0  0  0
 14 13  2  0  0  0  0
 14 15  1  0  0  0  0
 15 17  2  0  0  0  0
 16 15  1  0  0  0  0
 17 11  1  0  0  0  0
 18 19  1  0  0  0  0
 20 14  1  0  0  0  0
 21 20  1  0  0  0  0
 22 23  1  0  0  0  0
 23 24  1  0  0  0  0
 25 24  1  0  0  0  0
 26 25  1  0  0  0  0
 27 26  1  0  0  0  0
 27 22  1  0  0  0  0
 28 33  1  0  0  0  0
 29 28  1  0  0  0  0
 30 29  1  0  0  0  0
 30 31  1  0  0  0  0
 31 32  1  0  0  0  0
 32 33  1  0  0  0  0
M  END
>  <Pose>
1

>  <Score>
-8.543

$$$$
