/Users/jonathanwahrer/Desktop/Msc/3_Semester/Drug_Design_Praktikum/waehrer_HTS_screening/HTS_experiment/out/docking_results/vina_output/4x21/0035_docked.pdbqt
 OpenBabel03212201183D

 33 36  0  0  0  0  0  0  0  0999 V2000
   19.3370   36.7970   69.4810 C   0  0  0  0  0  0  0  0  0  0  0  0
   19.8880   35.8000   70.1810 N   0  0  0  0  0  4  0  0  0  0  0  0
   21.0690   35.2300   69.8220 C   0  0  0  0  0  0  0  0  0  0  0  0
   21.7010   35.6840   68.7280 N   0  0  0  0  0  0  0  0  0  0  0  0
   21.1740   36.6830   68.0050 C   0  0  0  0  0  0  0  0  0  0  0  0
   19.9850   37.2310   68.3960 N   0  0  0  0  0  2  0  0  0  0  0  0
   18.1140   37.3500   69.9120 N   0  0  0  0  0  0  0  0  0  0  0  0
   18.1110   38.3410   70.2320 H   0  0  0  0  0  0  0  0  0  0  0  0
   16.9080   36.5960   69.9150 N   0  0  0  0  0  0  0  0  0  0  0  0
   16.6660   35.7480   70.8600 C   0  0  0  0  0  3  0  0  0  0  0  0
   15.4750   34.9400   70.9500 C   0  0  0  0  0  0  0  0  0  0  0  0
   15.4150   33.8020   71.7180 C   0  0  0  0  0  0  0  0  0  0  0  0
   16.9820   33.3160   72.6890 Br  0  0  0  0  0  0  0  0  0  0  0  0
   14.2730   33.0250   71.7960 C   0  0  0  0  0  0  0  0  0  0  0  0
   13.1470   33.4010   71.0800 C   0  0  0  0  0  3  0  0  0  0  0  0
   13.1810   34.5370   70.3020 C   0  0  0  0  0  0  0  0  0  0  0  0
   14.3450   35.2880   70.2510 C   0  0  0  0  0  3  0  0  0  0  0  0
   14.2430   31.8850   72.5770 O   0  0  0  0  0  0  0  0  0  0  0  0
   14.0900   30.9960   72.1210 H   0  0  0  0  0  0  0  0  0  0  0  0
   12.0330   34.8750   69.6020 O   0  0  0  0  0  0  0  0  0  0  0  0
   12.0300   35.3600   68.7150 H   0  0  0  0  0  0  0  0  0  0  0  0
   21.5600   34.1820   70.6270 N   0  0  0  0  0  0  0  0  0  0  0  0
   20.7620   33.7020   71.7230 C   0  0  0  0  0  2  0  0  0  0  0  0
   20.5940   32.1960   71.4700 C   0  0  0  0  0  2  0  0  0  0  0  0
   21.8830   31.6650   71.5170 O   0  0  0  0  0  0  0  0  0  0  0  0
   22.6550   32.0690   70.4330 C   0  0  0  0  0  2  0  0  0  0  0  0
   22.8460   33.5720   70.3930 C   0  0  0  0  0  2  0  0  0  0  0  0
   21.8380   37.1710   66.8390 N   0  0  0  0  0  0  0  0  0  0  0  0
   22.6790   36.3520   66.0000 C   0  0  0  0  0  2  0  0  0  0  0  0
   23.9650   37.0760   65.6590 C   0  0  0  0  0  2  0  0  0  0  0  0
   24.0400   38.3300   66.2450 O   0  0  0  0  0  0  0  0  0  0  0  0
   22.9330   39.0950   65.8300 C   0  0  0  0  0  2  0  0  0  0  0  0
   21.6670   38.5630   66.4740 C   0  0  0  0  0  2  0  0  0  0  0  0
  1  7  1  0  0  0  0
  1  2  2  0  0  0  0
  3  2  2  0  0  0  0
  3 22  1  0  0  0  0
  4  3  1  0  0  0  0
  5  6  1  0  0  0  0
  5  4  2  0  0  0  0
  6  1  1  0  0  0  0
  7  9  1  0  0  0  0
  7  8  1  0  0  0  0
  9 10  2  0  0  0  0
 10 11  1  0  0  0  0
 11 12  1  0  0  0  0
 12 14  2  0  0  0  0
 12 13  1  0  0  0  0
 14 18  1  0  0  0  0
 15 14  1  0  0  0  0
 16 15  2  0  0  0  0
 17 16  1  0  0  0  0
 17 11  2  0  0  0  0
 19 18  1  0  0  0  0
 20 16  1  0  0  0  0
 21 20  1  0  0  0  0
 22 23  1  0  0  0  0
 24 25  1  0  0  0  0
 24 23  1  0  0  0  0
 26 25  1  0  0  0  0
 27 26  1  0  0  0  0
 27 22  1  0  0  0  0
 28  5  1  0  0  0  0
 29 28  1  0  0  0  0
 30 29  1  0  0  0  0
 30 31  1  0  0  0  0
 32 31  1  0  0  0  0
 32 33  1  0  0  0  0
 33 28  1  0  0  0  0
M  END
>  <Pose>
1

>  <Score>
-8.671

$$$$
