/Users/jonathanwahrer/Desktop/Msc/3_Semester/Drug_Design_Praktikum/waehrer_HTS_screening/HTS_experiment/out/docking_results/vina_output/4x21/0037_docked.pdbqt
 OpenBabel03212201193D

 27 30  0  0  1  0  0  0  0  0999 V2000
   14.8760   33.0910   71.7980 N   0  0  0  0  0  0  0  0  0  0  0  0
   15.9740   34.0190   71.6660 C   0  0  0  0  0  2  0  0  0  0  0  0
   15.5350   34.8540   70.4830 C   0  0  1  0  0  3  0  0  0  0  0  0
   14.0820   35.1200   70.8340 C   0  0  0  0  0  2  0  0  0  0  0  0
   13.7150   33.7850   71.3770 C   0  0  0  0  0  0  0  0  0  0  0  0
   12.5450   33.3500   71.4460 O   0  0  0  0  0  0  0  0  0  0  0  0
   16.3120   36.1050   70.3640 C   0  0  0  0  0  0  0  0  0  0  0  0
   15.7460   37.2250   70.3610 O   0  0  0  0  0  0  0  0  0  0  0  0
   17.7160   36.0300   70.2540 N   0  0  0  0  0  0  0  0  0  0  0  0
   18.1910   35.1110   70.2540 H   0  0  0  0  0  0  0  0  0  0  0  0
   18.5140   37.2270   70.1400 C   0  0  0  0  0  2  0  0  0  0  0  0
   19.0610   37.3800   68.7630 C   0  0  0  0  0  0  0  0  0  0  0  0
   20.1610   36.7870   68.2340 N   0  0  0  0  0  0  0  0  0  0  0  0
   20.3130   37.1840   66.9600 C   0  0  0  0  0  0  0  0  0  0  0  0
   21.2090   35.8660   68.6350 C   0  0  0  0  0  2  0  0  0  0  0  0
   19.2800   38.0320   66.7230 N   0  0  0  0  0  0  0  0  0  0  0  0
   21.5230   36.5470   66.3440 C   0  0  0  0  0  2  0  0  0  0  0  0
   18.5300   38.1510   67.8000 N   0  0  0  0  0  0  0  0  0  0  0  0
   22.2600   36.0240   67.5560 C   0  0  0  0  0  2  0  0  0  0  0  0
   15.0140   31.7590   72.2720 C   0  0  0  0  0  0  0  0  0  0  0  0
   14.2860   31.2290   73.3150 C   0  0  0  0  0  3  0  0  0  0  0  0
   14.4050   29.9490   73.7830 C   0  0  0  0  0  0  0  0  0  0  0  0
   15.3300   29.1220   73.1580 C   0  0  0  0  0  0  0  0  0  0  0  0
   13.6000   29.4100   74.9130 C   0  0  0  0  0  1  0  0  0  0  0  0
   15.5230   27.3330   73.7860 Br  0  0  0  0  0  0  0  0  0  0  0  0
   16.0900   29.5940   72.1070 C   0  0  0  0  0  3  0  0  0  0  0  0
   15.9330   30.8950   71.6710 C   0  0  0  0  0  3  0  0  0  0  0  0
  1 20  1  0  0  0  0
  2  1  1  0  0  0  0
  3  7  1  1  0  0  0
  3  4  1  0  0  0  0
  3  2  1  0  0  0  0
  4  5  1  0  0  0  0
  5  6  2  0  0  0  0
  5  1  1  0  0  0  0
  8  7  2  0  0  0  0
  9  7  1  0  0  0  0
 10  9  1  0  0  0  0
 11  9  1  0  0  0  0
 12 11  1  0  0  0  0
 13 15  1  0  0  0  0
 13 12  1  0  0  0  0
 14 13  1  0  0  0  0
 16 14  2  0  0  0  0
 16 18  1  0  0  0  0
 17 14  1  0  0  0  0
 17 19  1  0  0  0  0
 18 12  2  0  0  0  0
 19 15  1  0  0  0  0
 20 21  1  0  0  0  0
 21 22  2  0  0  0  0
 22 24  1  0  0  0  0
 23 22  1  0  0  0  0
 23 25  1  0  0  0  0
 26 23  2  0  0  0  0
 27 26  1  0  0  0  0
 27 20  2  0  0  0  0
M  END
>  <Pose>
1

>  <Score>
-8.791

$$$$
