/Users/jonathanwahrer/Desktop/Msc/3_Semester/Drug_Design_Praktikum/waehrer_HTS_screening/HTS_experiment/out/docking_results/vina_output/4x21/0081_docked.pdbqt
 OpenBabel03212201193D

 22 25  0  0  0  0  0  0  0  0999 V2000
   15.8890   36.3560   70.6420 C   0  0  0  0  0  0  0  0  0  0  0  0
   14.6320   35.9830   70.3420 N   0  0  0  0  0  0  0  0  0  0  0  0
   14.3890   34.7790   70.8640 N   0  0  0  0  0  0  0  0  0  0  0  0
   15.4930   34.3550   71.5130 C   0  0  0  0  0  0  0  0  0  0  0  0
   16.3980   35.3400   71.3610 N   0  0  0  0  0  0  0  0  0  0  0  0
   15.4750   33.1230   72.1370 C   0  0  0  0  0  0  0  0  0  0  0  0
   14.3640   32.3040   72.1220 C   0  0  0  0  0  0  0  0  0  0  0  0
   14.6170   31.1680   72.8030 N   0  0  0  0  0  0  0  0  0  0  0  0
   15.8560   31.2470   73.2470 N   0  0  0  0  0  0  0  0  0  0  0  0
   16.4220   32.4290   72.8620 C   0  0  0  0  0  3  0  0  0  0  0  0
   13.7260   30.0420   73.0320 C   0  0  0  0  0  1  0  0  0  0  0  0
   13.2850   32.7640   71.4640 N   0  0  0  0  0  0  0  0  0  0  0  0
   13.3090   33.9780   70.8520 C   0  0  0  0  0  3  0  0  0  0  0  0
   16.5770   37.6360   70.2550 C   0  0  0  0  0  2  0  0  0  0  0  0
   17.8410   37.3800   69.6050 N   0  0  0  0  0  0  0  0  0  0  0  0
   18.1320   37.7260   68.3430 C   0  0  0  0  0  0  0  0  0  0  0  0
   19.4170   37.3080   68.1120 C   0  0  0  0  0  0  0  0  0  0  0  0
   17.2600   38.4290   67.3480 C   0  0  0  0  0  1  0  0  0  0  0  0
   20.4040   37.5090   66.5020 Br  0  0  0  0  0  0  0  0  0  0  0  0
   19.8930   36.7090   69.2480 C   0  0  0  0  0  0  0  0  0  0  0  0
   18.8820   36.7760   70.1450 N   0  0  0  0  0  0  0  0  0  0  0  0
   21.2510   36.0960   69.4750 C   0  0  0  0  0  1  0  0  0  0  0  0
  1  5  1  0  0  0  0
  2  1  2  0  0  0  0
  2  3  1  0  0  0  0
  3  4  1  0  0  0  0
  4  6  1  0  0  0  0
  5  4  2  0  0  0  0
  6 10  1  0  0  0  0
  7  6  2  0  0  0  0
  7  8  1  0  0  0  0
  8 11  1  0  0  0  0
  8  9  1  0  0  0  0
 10  9  2  0  0  0  0
 12  7  1  0  0  0  0
 13  3  1  0  0  0  0
 13 12  2  0  0  0  0
 14  1  1  0  0  0  0
 15 21  1  0  0  0  0
 15 14  1  0  0  0  0
 16 15  1  0  0  0  0
 17 16  2  0  0  0  0
 17 20  1  0  0  0  0
 18 16  1  0  0  0  0
 19 17  1  0  0  0  0
 20 22  1  0  0  0  0
 20 21  2  0  0  0  0
M  END
>  <Pose>
1

>  <Score>
-8.121

$$$$
