/Users/jonathanwahrer/Desktop/Msc/3_Semester/Drug_Design_Praktikum/waehrer_HTS_screening/HTS_experiment/out/docking_results/vina_output/4x21/0085_docked.pdbqt
 OpenBabel03212201193D

 26 29  0  0  0  0  0  0  0  0999 V2000
   20.1630   36.9150   68.7300 C   0  0  0  0  0  0  0  0  0  0  0  0
   19.0200   37.5930   68.2610 C   0  0  0  0  0  0  0  0  0  0  0  0
   18.8760   38.4960   67.2530 N   0  0  0  0  0  0  0  0  0  0  0  0
   17.6210   38.8280   67.2150 O   0  0  0  0  0  0  0  0  0  0  0  0
   16.9540   38.1980   68.1310 N   0  0  0  0  0  0  0  0  0  0  0  0
   17.7840   37.4050   68.8210 C   0  0  0  0  0  0  0  0  0  0  0  0
   17.5750   36.5430   69.8790 C   0  0  0  0  0  0  0  0  0  0  0  0
   18.6980   35.8810   70.3360 C   0  0  0  0  0  3  0  0  0  0  0  0
   19.9600   36.0640   69.7740 C   0  0  0  0  0  3  0  0  0  0  0  0
   21.3890   37.1890   68.0730 N   0  0  0  0  0  0  0  0  0  0  0  0
   21.7480   36.7280   66.8100 C   0  0  0  0  0  0  0  0  0  0  0  0
   20.9310   35.9930   66.1390 O   0  0  0  0  0  0  0  0  0  0  0  0
   22.1110   37.8050   68.5540 H   0  0  0  0  0  0  0  0  0  0  0  0
   23.0400   37.0310   66.1590 C   0  0  0  0  0  0  0  0  0  0  0  0
   24.0940   36.2090   65.9250 C   0  0  0  0  0  0  0  0  0  0  0  0
   24.2760   34.3460   66.3020 Br  0  0  0  0  0  0  0  0  0  0  0  0
   25.0880   36.9900   65.3030 C   0  0  0  0  0  3  0  0  0  0  0  0
   24.5710   38.2100   65.2080 N   0  0  0  0  0  0  0  0  0  0  0  0
   23.3620   38.2880   65.6990 N   0  0  0  0  0  0  0  0  0  0  0  0
   22.5260   39.4590   65.7520 C   0  0  0  0  0  1  0  0  0  0  0  0
   16.3120   36.3410   70.4650 N   0  0  0  0  0  0  0  0  0  0  0  0
   16.0090   35.0260   71.0240 C   0  0  0  0  0  2  0  0  0  0  0  0
   14.5710   34.9220   71.4510 C   0  0  0  0  0  2  0  0  0  0  0  0
   13.6630   35.5150   70.6370 O   0  0  0  0  0  0  0  0  0  0  0  0
   14.0420   36.6200   69.9330 C   0  0  0  0  0  2  0  0  0  0  0  0
   15.2340   37.2730   70.6020 C   0  0  0  0  0  2  0  0  0  0  0  0
  1  9  2  0  0  0  0
  2  1  1  0  0  0  0
  2  6  1  0  0  0  0
  3  2  2  0  0  0  0
  4  3  1  0  0  0  0
  4  5  1  0  0  0  0
  5  6  2  0  0  0  0
  6  7  1  0  0  0  0
  7  8  2  0  0  0  0
  7 21  1  0  0  0  0
  9  8  1  0  0  0  0
 10 13  1  0  0  0  0
 10  1  1  0  0  0  0
 11 10  1  0  0  0  0
 12 11  2  0  0  0  0
 14 11  1  0  0  0  0
 15 14  2  0  0  0  0
 15 16  1  0  0  0  0
 17 15  1  0  0  0  0
 18 17  2  0  0  0  0
 18 19  1  0  0  0  0
 19 20  1  0  0  0  0
 19 14  1  0  0  0  0
 21 26  1  0  0  0  0
 21 22  1  0  0  0  0
 22 23  1  0  0  0  0
 24 23  1  0  0  0  0
 25 26  1  0  0  0  0
 25 24  1  0  0  0  0
M  END
>  <Pose>
1

>  <Score>
-8.096

$$$$
