/Users/jonathanwahrer/Desktop/Msc/3_Semester/Drug_Design_Praktikum/waehrer_HTS_screening/HTS_experiment/out/docking_results/vina_output/4x21/0095_docked.pdbqt
 OpenBabel03212201193D

 26 29  0  0  0  0  0  0  0  0999 V2000
   17.2950   34.1810   72.2430 C   0  0  0  0  0  0  0  0  0  0  0  0
   17.1740   33.9910   73.4960 O   0  0  0  0  0  0  0  0  0  0  0  0
   18.4700   34.4120   71.5690 N   0  0  0  0  0  0  0  0  0  0  0  0
   19.1690   34.3410   72.7350 H   0  0  0  0  0  0  0  0  0  0  0  0
   16.0060   34.1440   71.4560 C   0  0  0  0  0  0  0  0  0  0  0  0
   15.4450   35.2890   70.9520 C   0  0  0  0  0  3  0  0  0  0  0  0
   14.2430   35.1930   70.2400 C   0  0  0  0  0  0  0  0  0  0  0  0
   13.4470   36.7590   69.5350 Br  0  0  0  0  0  0  0  0  0  0  0  0
   13.6390   33.9740   70.0510 C   0  0  0  0  0  3  0  0  0  0  0  0
   14.2050   32.8220   70.5580 C   0  0  0  0  0  3  0  0  0  0  0  0
   15.4120   32.9240   71.2710 C   0  0  0  0  0  0  0  0  0  0  0  0
   16.0520   31.7830   71.8130 N   0  0  0  0  0  0  0  0  0  0  0  0
   17.0490   31.1530   71.2220 N   0  0  0  0  0  0  0  0  0  0  0  0
   17.4510   30.1300   71.9470 N   0  0  0  0  0  0  0  0  0  0  0  0
   16.7060   30.0820   73.0390 N   0  0  0  0  0  0  0  0  0  0  0  0
   15.8460   31.1020   72.9500 C   0  0  0  0  0  3  0  0  0  0  0  0
   19.6390   34.6420   70.8980 C   0  0  0  0  0  2  0  0  0  0  0  0
   19.5630   35.7840   69.8990 C   0  0  0  0  0  0  0  0  0  0  0  0
   20.3370   35.9030   68.7980 N   0  0  0  0  0  0  0  0  0  0  0  0
   20.0210   37.0190   68.1280 C   0  0  0  0  0  0  0  0  0  0  0  0
   21.3230   35.0920   68.3190 C   0  0  0  0  0  3  0  0  0  0  0  0
   19.0340   37.5970   68.8290 N   0  0  0  0  0  0  0  0  0  0  0  0
   20.6930   37.3560   66.9450 C   0  0  0  0  0  3  0  0  0  0  0  0
   18.7540   36.8490   69.9060 N   0  0  0  0  0  0  0  0  0  0  0  0
   21.6820   36.5460   66.4600 C   0  0  0  0  0  3  0  0  0  0  0  0
   22.0070   35.3950   67.1510 C   0  0  0  0  0  3  0  0  0  0  0  0
  1  2  2  0  0  0  0
  3  1  1  0  0  0  0
  3  4  1  0  0  0  0
  5  1  1  0  0  0  0
  6  5  2  0  0  0  0
  7  6  1  0  0  0  0
  8  7  1  0  0  0  0
  9  7  2  0  0  0  0
  9 10  1  0  0  0  0
 10 11  2  0  0  0  0
 11  5  1  0  0  0  0
 11 12  1  0  0  0  0
 12 16  1  0  0  0  0
 13 12  1  0  0  0  0
 13 14  2  0  0  0  0
 14 15  1  0  0  0  0
 16 15  2  0  0  0  0
 17  3  1  0  0  0  0
 18 24  2  0  0  0  0
 18 17  1  0  0  0  0
 19 18  1  0  0  0  0
 20 19  1  0  0  0  0
 20 22  2  0  0  0  0
 21 19  1  0  0  0  0
 22 24  1  0  0  0  0
 23 20  1  0  0  0  0
 25 23  2  0  0  0  0
 25 26  1  0  0  0  0
 26 21  2  0  0  0  0
M  END
>  <Pose>
1

>  <Score>
-8.523

$$$$
