/Users/jonathanwahrer/Desktop/Msc/3_Semester/Drug_Design_Praktikum/waehrer_HTS_screening/HTS_experiment/out/docking_results/vina_output/4x21/0111_docked.pdbqt
 OpenBabel03212201203D

 29 32  0  0  0  0  0  0  0  0999 V2000
   18.2460   32.6070   70.7460 C   0  0  0  0  0  0  0  0  0  0  0  0
   16.9470   32.7560   70.8900 N   0  0  0  0  0  0  0  0  0  0  0  0
   16.3390   31.5390   71.0590 C   0  0  0  0  0  0  0  0  0  0  0  0
   17.3230   30.6120   71.0070 N   0  0  0  0  0  0  0  0  0  0  0  0
   18.4450   31.2210   70.8230 N   0  0  0  0  0  0  0  0  0  0  0  0
   15.0230   31.7090   71.2030 N   0  0  0  0  0  0  0  0  0  0  0  0
   14.7860   33.0280   71.1210 C   0  0  0  0  0  0  0  0  0  0  0  0
   15.9810   33.7100   70.9200 C   0  0  0  0  0  0  0  0  0  0  0  0
   16.0400   35.0200   70.7790 N   0  0  0  0  0  0  0  0  0  0  0  0
   14.8540   35.7020   70.8490 C   0  0  0  0  0  0  0  0  0  0  0  0
   14.7950   36.9520   70.7310 O   0  0  0  0  0  0  0  0  0  0  0  0
   13.6760   35.0750   71.0470 N   0  0  0  0  0  0  0  0  0  0  0  0
   13.6130   33.7550   71.1840 C   0  0  0  0  0  0  0  0  0  0  0  0
   12.5480   33.1140   71.3710 O   0  0  0  0  0  0  0  0  0  0  0  0
   17.1740   35.8460   70.4910 C   0  0  0  0  0  1  0  0  0  0  0  0
   12.7820   35.6080   71.0990 H   0  0  0  0  0  0  0  0  0  0  0  0
   19.4170   33.4110   70.5460 C   0  0  0  0  0  0  0  0  0  0  0  0
   19.9970   33.8070   69.3790 C   0  0  0  0  0  3  0  0  0  0  0  0
   21.1260   34.5630   69.2510 C   0  0  0  0  0  0  0  0  0  0  0  0
   21.7740   35.0080   67.5130 Br  0  0  0  0  0  0  0  0  0  0  0  0
   21.7740   34.9880   70.3740 C   0  0  0  0  0  3  0  0  0  0  0  0
   21.2530   34.6320   71.6080 C   0  0  0  0  0  3  0  0  0  0  0  0
   20.1130   33.8690   71.6890 C   0  0  0  0  0  0  0  0  0  0  0  0
   19.6270   33.5350   72.9410 O   0  0  0  0  0  0  0  0  0  0  0  0
   18.5560   34.1700   73.5670 C   0  0  0  0  0  1  0  0  0  0  0  0
   14.0290   30.6970   71.4080 C   0  0  0  0  0  2  0  0  0  0  0  0
   14.2390   30.0510   72.7610 C   0  0  0  0  0  2  0  0  0  0  0  0
   13.6620   30.8590   73.7210 O   0  0  0  0  0  0  0  0  0  0  0  0
   12.8670   30.1180   74.6120 C   0  0  0  0  0  1  0  0  0  0  0  0
  1  5  2  0  0  0  0
  1  2  1  0  0  0  0
  2  8  1  0  0  0  0
  2  3  1  0  0  0  0
  3  6  1  0  0  0  0
  4  3  2  0  0  0  0
  5  4  1  0  0  0  0
  6 26  1  0  0  0  0
  7 13  1  0  0  0  0
  7  6  1  0  0  0  0
  8  7  2  0  0  0  0
  9 10  1  0  0  0  0
  9  8  1  0  0  0  0
 10 12  1  0  0  0  0
 11 10  2  0  0  0  0
 12 16  1  0  0  0  0
 12 13  1  0  0  0  0
 13 14  2  0  0  0  0
 15  9  1  0  0  0  0
 17  1  1  0  0  0  0
 17 23  1  0  0  0  0
 18 17  2  0  0  0  0
 19 18  1  0  0  0  0
 19 21  2  0  0  0  0
 20 19  1  0  0  0  0
 21 22  1  0  0  0  0
 22 23  2  0  0  0  0
 23 24  1  0  0  0  0
 24 25  1  0  0  0  0
 26 27  1  0  0  0  0
 27 28  1  0  0  0  0
 28 29  1  0  0  0  0
M  END
>  <Pose>
1

>  <Score>
-7.827

$$$$
