/Users/jonathanwahrer/Desktop/Msc/3_Semester/Drug_Design_Praktikum/waehrer_HTS_screening/HTS_experiment/out/docking_results/vina_output/4x21/0127_docked.pdbqt
 OpenBabel03212201203D

 29 32  0  0  0  0  0  0  0  0999 V2000
   18.3980   33.0550   72.6960 N   0  0  0  0  0  0  0  0  0  0  0  0
   19.2010   34.2210   72.7340 C   0  0  0  0  0  2  0  0  0  0  0  0
   20.4620   34.1680   71.9600 C   0  0  0  0  0  2  0  0  0  0  0  0
   20.2260   33.7570   70.6140 N   0  0  0  0  0  0  0  0  0  0  0  0
   19.0240   33.0290   70.3210 C   0  0  0  0  0  2  0  0  0  0  0  0
   18.4560   32.2820   71.5060 C   0  0  0  0  0  2  0  0  0  0  0  0
   21.1480   34.0180   69.5660 C   0  0  0  0  0  0  0  0  0  0  0  0
   21.0350   35.1700   68.9070 C   0  0  0  0  0  0  0  0  0  0  0  0
   20.1690   36.2880   68.9810 N   0  0  0  0  0  0  0  0  0  0  0  0
   22.0160   35.4040   67.8250 C   0  0  0  0  0  0  0  0  0  0  0  0
   20.6170   37.1710   67.9720 N   0  0  0  0  0  0  0  0  0  0  0  0
   19.0670   36.4800   69.8930 C   0  0  0  0  0  1  0  0  0  0  0  0
   21.7250   36.5890   67.3120 C   0  0  0  0  0  0  0  0  0  0  0  0
   20.1540   38.0870   67.7990 H   0  0  0  0  0  0  0  0  0  0  0  0
   22.5010   37.1780   66.1880 C   0  0  0  0  0  1  0  0  0  0  0  0
   23.0080   34.4230   67.5410 N   0  0  0  0  0  0  0  0  0  0  0  0
   23.0750   33.3250   68.2090 C   0  0  0  0  0  3  0  0  0  0  0  0
   22.1680   33.0480   69.2500 N   0  0  0  0  0  0  0  0  0  0  0  0
   22.1810   32.1810   69.8140 H   0  0  0  0  0  0  0  0  0  0  0  0
   17.1450   33.1270   73.3400 C   0  0  0  0  0  2  0  0  0  0  0  0
   16.0490   32.5140   72.5880 C   0  0  0  0  0  0  0  0  0  0  0  0
   15.8370   31.2800   72.7120 O   0  0  0  0  0  0  0  0  0  0  0  0
   15.2320   33.3520   71.7160 C   0  0  0  0  0  0  0  0  0  0  0  0
   15.5720   34.6590   71.4840 C   0  0  0  0  0  3  0  0  0  0  0  0
   14.8170   35.4840   70.6610 C   0  0  0  0  0  0  0  0  0  0  0  0
   15.2920   37.2980   70.3400 Br  0  0  0  0  0  0  0  0  0  0  0  0
   13.6880   34.9750   70.0570 C   0  0  0  0  0  3  0  0  0  0  0  0
   13.3560   33.6490   70.3000 C   0  0  0  0  0  3  0  0  0  0  0  0
   14.1060   32.8390   71.1150 C   0  0  0  0  0  3  0  0  0  0  0  0
  1  2  1  0  0  0  0
  1 20  1  0  0  0  0
  3  2  1  0  0  0  0
  4  3  1  0  0  0  0
  5  4  1  0  0  0  0
  5  6  1  0  0  0  0
  6  1  1  0  0  0  0
  7  4  1  0  0  0  0
  8  9  1  0  0  0  0
  8  7  2  0  0  0  0
  9 12  1  0  0  0  0
 10  8  1  0  0  0  0
 11  9  1  0  0  0  0
 13 10  2  0  0  0  0
 13 11  1  0  0  0  0
 14 11  1  0  0  0  0
 15 13  1  0  0  0  0
 16 10  1  0  0  0  0
 16 17  2  0  0  0  0
 17 18  1  0  0  0  0
 18  7  1  0  0  0  0
 18 19  1  0  0  0  0
 21 22  2  0  0  0  0
 21 20  1  0  0  0  0
 23 21  1  0  0  0  0
 24 23  1  0  0  0  0
 25 24  2  0  0  0  0
 26 25  1  0  0  0  0
 27 28  2  0  0  0  0
 27 25  1  0  0  0  0
 28 29  1  0  0  0  0
 29 23  2  0  0  0  0
M  END
>  <Pose>
1

>  <Score>
-8.689

$$$$
