/Users/jonathanwahrer/Desktop/Msc/3_Semester/Drug_Design_Praktikum/waehrer_HTS_screening/HTS_experiment/out/docking_results/vina_output/4x21/0129_docked.pdbqt
 OpenBabel03212201203D

 31 34  0  0  1  0  0  0  0  0999 V2000
   20.5890   34.5330   69.7660 C   0  0  0  0  0  0  0  0  0  0  0  0
   20.4790   33.2680   69.8150 O   0  0  0  0  0  0  0  0  0  0  0  0
   21.3810   35.1510   68.7560 N   0  0  0  0  0  0  0  0  0  0  0  0
   21.6730   36.5620   68.7540 C   0  0  0  0  0  2  0  0  0  0  0  0
   23.2030   36.5970   68.9810 C   0  0  0  0  0  2  0  0  0  0  0  0
   23.7920   36.1530   67.6690 C   0  0  2  0  0  0  0  0  0  0  0  0
   25.1890   35.8140   67.9370 N   0  0  0  0  0  0  0  0  0  0  0  0
   25.9250   36.8790   68.5070 C   0  0  0  0  0  2  0  0  0  0  0  0
   26.0490   38.0800   67.5860 C   0  0  0  0  0  2  0  0  0  0  0  0
   24.8480   38.2540   66.7480 C   0  0  0  0  0  0  0  0  0  0  0  0
   24.5590   39.2270   65.8680 N   0  0  0  0  0  0  0  0  0  0  0  0
   23.3470   38.9470   65.3420 C   0  0  0  0  0  3  0  0  0  0  0  0
   22.8970   37.7980   65.9070 N   0  0  0  0  0  0  0  0  0  0  0  0
   23.8090   37.3440   66.7890 C   0  0  0  0  0  0  0  0  0  0  0  0
   23.1410   34.9710   67.0430 C   0  0  0  0  0  3  0  0  0  0  0  0
   21.9370   34.3850   67.6990 C   0  0  0  0  0  3  0  0  0  0  0  0
   25.6620   35.3940   67.0960 H   0  0  0  0  0  0  0  0  0  0  0  0
   21.9720   37.4230   65.6180 H   0  0  0  0  0  0  0  0  0  0  0  0
   19.8870   35.2900   70.7920 C   0  0  2  0  0  3  0  0  0  0  0  0
   20.3720   34.8630   72.1680 C   0  0  0  0  0  1  0  0  0  0  0  0
   18.4790   35.3170   70.6380 N   0  0  0  0  0  0  0  0  0  0  0  0
   17.7410   36.4150   70.2070 C   0  0  0  0  0  0  0  0  0  0  0  0
   18.1030   37.5210   69.8440 O   0  0  0  0  0  0  0  0  0  0  0  0
   17.9790   34.3960   70.8260 H   0  0  0  0  0  0  0  0  0  0  0  0
   16.2490   36.1750   70.2120 C   0  0  0  0  0  0  0  0  0  0  0  0
   15.8170   34.9130   70.5590 C   0  0  0  0  0  3  0  0  0  0  0  0
   14.4710   34.6340   70.5410 C   0  0  0  0  0  0  0  0  0  0  0  0
   13.8570   32.8770   71.0390 Br  0  0  0  0  0  0  0  0  0  0  0  0
   13.5320   35.5790   70.1800 C   0  0  0  0  0  3  0  0  0  0  0  0
   14.0260   36.8380   69.8350 C   0  0  0  0  0  3  0  0  0  0  0  0
   15.3610   37.1370   69.8500 C   0  0  0  0  0  3  0  0  0  0  0  0
  1  2  2  0  0  0  0
  1 19  1  0  0  0  0
  3  1  1  0  0  0  0
  4  3  1  0  0  0  0
  4  5  1  0  0  0  0
  6 15  1  6  0  0  0
  6  7  1  0  0  0  0
  6  5  1  0  0  0  0
  7  8  1  0  0  0  0
  9  8  1  0  0  0  0
 10 14  2  0  0  0  0
 10  9  1  0  0  0  0
 11 10  1  0  0  0  0
 12 11  2  0  0  0  0
 12 13  1  0  0  0  0
 13 14  1  0  0  0  0
 14  6  1  0  0  0  0
 15 16  2  0  0  0  0
 16  3  1  0  0  0  0
 17  7  1  0  0  0  0
 18 13  1  0  0  0  0
 19 20  1  1  0  0  0
 21 19  1  0  0  0  0
 21 24  1  0  0  0  0
 22 25  1  0  0  0  0
 22 21  1  0  0  0  0
 23 22  2  0  0  0  0
 25 26  1  0  0  0  0
 27 26  2  0  0  0  0
 27 28  1  0  0  0  0
 29 27  1  0  0  0  0
 30 31  1  0  0  0  0
 30 29  2  0  0  0  0
 31 25  2  0  0  0  0
M  END
>  <Pose>
1

>  <Score>
-8.996

$$$$
