/Users/jonathanwahrer/Desktop/Msc/3_Semester/Drug_Design_Praktikum/waehrer_HTS_screening/HTS_experiment/out/docking_results/vina_output/4x21/0131_docked.pdbqt
 OpenBabel03212201213D

 30 33  0  0  1  0  0  0  0  0999 V2000
   19.9100   36.7320   70.0080 C   0  0  0  0  0  0  0  0  0  0  0  0
   19.9300   36.2110   71.1500 O   0  0  0  0  0  0  0  0  0  0  0  0
   21.0880   36.7670   69.2470 N   0  0  0  0  0  0  0  0  0  0  0  0
   21.1420   37.3480   67.9280 C   0  0  0  0  0  2  0  0  0  0  0  0
   21.4650   36.2250   66.9670 C   0  0  0  0  0  2  0  0  0  0  0  0
   22.6720   35.4640   67.4600 C   0  0  1  0  0  0  0  0  0  0  0  0
   22.2610   34.1050   67.7400 N   0  0  0  0  0  0  0  0  0  0  0  0
   23.3150   33.2210   68.0970 C   0  0  0  0  0  2  0  0  0  0  0  0
   24.5960   33.3640   67.3610 C   0  0  0  0  0  2  0  0  0  0  0  0
   24.5740   34.3590   66.2680 C   0  0  0  0  0  0  0  0  0  0  0  0
   25.3290   34.5050   65.1360 N   0  0  0  0  0  0  0  0  0  0  0  0
   24.8680   35.5920   64.5060 C   0  0  0  0  0  3  0  0  0  0  0  0
   23.8550   36.1170   65.2150 N   0  0  0  0  0  0  0  0  0  0  0  0
   23.6420   35.3700   66.3270 C   0  0  0  0  0  0  0  0  0  0  0  0
   23.3410   36.0700   68.6510 C   0  0  0  0  0  2  0  0  0  0  0  0
   22.3070   36.2100   69.7740 C   0  0  0  0  0  2  0  0  0  0  0  0
   21.5700   34.1280   68.5360 H   0  0  0  0  0  0  0  0  0  0  0  0
   26.1180   33.8530   64.8560 H   0  0  0  0  0  0  0  0  0  0  0  0
   18.6090   37.2830   69.5410 C   0  0  0  0  0  2  0  0  0  0  0  0
   17.5400   36.3170   69.6800 N   0  0  0  0  0  0  0  0  0  0  0  0
   16.2840   36.6640   70.2280 C   0  0  0  0  0  0  0  0  0  0  0  0
   16.1220   37.8560   70.5960 O   0  0  0  0  0  0  0  0  0  0  0  0
   17.6980   35.3390   69.3690 H   0  0  0  0  0  0  0  0  0  0  0  0
   15.1930   35.7130   70.3780 C   0  0  0  0  0  0  0  0  0  0  0  0
   15.3270   34.5020   71.0320 C   0  0  0  0  0  3  0  0  0  0  0  0
   14.2720   33.6170   71.1600 C   0  0  0  0  0  0  0  0  0  0  0  0
   14.5450   31.9800   72.0730 Br  0  0  0  0  0  0  0  0  0  0  0  0
   13.0240   33.9320   70.6220 C   0  0  0  0  0  3  0  0  0  0  0  0
   12.9080   35.1410   69.9740 C   0  0  0  0  0  3  0  0  0  0  0  0
   13.9520   36.0260   69.8420 C   0  0  0  0  0  3  0  0  0  0  0  0
  1  2  2  0  0  0  0
  3 16  1  0  0  0  0
  3  1  1  0  0  0  0
  4  3  1  0  0  0  0
  5  4  1  0  0  0  0
  6  5  1  6  0  0  0
  6  7  1  0  0  0  0
  6 15  1  0  0  0  0
  7  8  1  0  0  0  0
  7 17  1  0  0  0  0
  9  8  1  0  0  0  0
 10 14  2  0  0  0  0
 10  9  1  0  0  0  0
 11 10  1  0  0  0  0
 12 11  1  0  0  0  0
 12 13  2  0  0  0  0
 13 14  1  0  0  0  0
 14  6  1  0  0  0  0
 15 16  1  0  0  0  0
 18 11  1  0  0  0  0
 19 20  1  0  0  0  0
 19  1  1  0  0  0  0
 20 21  1  0  0  0  0
 21 24  1  0  0  0  0
 21 22  2  0  0  0  0
 23 20  1  0  0  0  0
 24 25  1  0  0  0  0
 25 26  2  0  0  0  0
 26 27  1  0  0  0  0
 28 26  1  0  0  0  0
 29 28  2  0  0  0  0
 30 29  1  0  0  0  0
 30 24  2  0  0  0  0
M  END
>  <Pose>
1

>  <Score>
-9.232

$$$$
