/Users/jonathanwahrer/Desktop/Msc/3_Semester/Drug_Design_Praktikum/waehrer_HTS_screening/HTS_experiment/out/docking_results/vina_output/4x21/0152_docked.pdbqt
 OpenBabel03212201213D

 27 30  0  0  0  0  0  0  0  0999 V2000
   16.8400   37.4990   69.6520 C   0  0  0  0  0  3  0  0  0  0  0  0
   16.1800   36.3950   70.0190 C   0  0  0  0  0  0  0  0  0  0  0  0
   16.7190   35.2070   70.2930 O   0  0  0  0  0  0  0  0  0  0  0  0
   15.7050   34.2930   70.6760 C   0  0  0  0  0  0  0  0  0  0  0  0
   14.4880   34.8860   70.6580 C   0  0  0  0  0  0  0  0  0  0  0  0
   13.3900   34.1410   71.0830 C   0  0  0  0  0  3  0  0  0  0  0  0
   13.5440   32.8500   71.4800 C   0  0  0  0  0  3  0  0  0  0  0  0
   14.7940   32.2650   71.4580 C   0  0  0  0  0  0  0  0  0  0  0  0
   15.9210   32.9400   71.0570 C   0  0  0  0  0  0  0  0  0  0  0  0
   14.8990   30.9320   71.8640 O   0  0  0  0  0  1  0  0  0  0  0  0
   14.7300   36.2810   70.2190 C   0  0  0  0  0  0  0  0  0  0  0  0
   13.8740   37.1690   70.0510 O   0  0  0  0  0  0  0  0  0  0  0  0
   18.3230   37.4730   69.5290 C   0  0  0  0  0  0  0  0  0  0  0  0
   18.8980   37.2720   68.2650 C   0  0  0  0  0  3  0  0  0  0  0  0
   20.2350   36.8780   68.1190 C   0  0  0  0  0  0  0  0  0  0  0  0
   20.8950   36.6110   66.3480 Br  0  0  0  0  0  0  0  0  0  0  0  0
   21.0180   36.6830   69.1970 C   0  0  0  0  0  3  0  0  0  0  0  0
   20.4780   36.8790   70.4950 C   0  0  0  0  0  3  0  0  0  0  0  0
   19.1280   37.2770   70.6140 C   0  0  0  0  0  3  0  0  0  0  0  0
   17.1590   32.3900   70.5420 C   0  0  0  0  0  2  0  0  0  0  0  0
   18.4770   32.3090   70.8120 N   0  0  0  0  0  4  0  0  0  0  0  0
   19.3750   33.3660   70.9770 C   0  0  0  0  0  2  0  0  0  0  0  0
   19.6020   33.7720   72.4500 C   0  0  0  0  0  2  0  0  0  0  0  0
   20.2210   32.7970   73.1950 O   0  0  0  0  0  0  0  0  0  0  0  0
   19.7270   31.5400   72.8250 C   0  0  0  0  0  2  0  0  0  0  0  0
   18.4360   31.5990   72.1950 C   0  0  0  0  0  2  0  0  0  0  0  0
   18.9310   31.5540   70.1730 H   0  0  0  0  0  0  0  0  0  0  0  0
  1  2  2  0  0  0  0
  2 11  1  0  0  0  0
  2  3  1  0  0  0  0
  3  4  1  0  0  0  0
  4  9  1  0  0  0  0
  5  4  2  0  0  0  0
  5  6  1  0  0  0  0
  6  7  2  0  0  0  0
  8  7  1  0  0  0  0
  8 10  1  0  0  0  0
  9  8  2  0  0  0  0
 11  5  1  0  0  0  0
 12 11  2  0  0  0  0
 13  1  1  0  0  0  0
 13 19  1  0  0  0  0
 14 13  2  0  0  0  0
 15 14  1  0  0  0  0
 15 17  2  0  0  0  0
 16 15  1  0  0  0  0
 17 18  1  0  0  0  0
 18 19  2  0  0  0  0
 20 21  1  0  0  0  0
 20  9  1  0  0  0  0
 21 22  1  0  0  0  0
 21 26  1  0  0  0  0
 22 23  1  0  0  0  0
 23 24  1  0  0  0  0
 25 24  1  0  0  0  0
 26 25  1  0  0  0  0
 27 21  1  0  0  0  0
M  END
>  <Pose>
1

>  <Score>
-9.251

$$$$
