/Users/jonathanwahrer/Desktop/Msc/3_Semester/Drug_Design_Praktikum/waehrer_HTS_screening/HTS_experiment/out/docking_results/vina_output/4x21/0167_docked.pdbqt
 OpenBabel03212201223D

 35 38  0  0  1  0  0  0  0  0999 V2000
   17.0250   33.2930   72.2320 C   0  0  1  0  0  3  0  0  0  0  0  0
   16.2840   32.1130   71.9850 N   0  0  0  0  0  0  0  0  0  0  0  0
   17.0370   31.2400   71.1590 C   0  0  0  0  0  0  0  0  0  0  0  0
   16.6130   30.1420   70.6820 O   0  0  0  0  0  0  0  0  0  0  0  0
   18.3520   31.8110   70.9640 C   0  0  0  0  0  0  0  0  0  0  0  0
   19.2270   31.2360   70.2610 O   0  0  0  0  0  0  0  0  0  0  0  0
   18.3910   33.0640   71.6940 C   0  0  0  0  0  0  0  0  0  0  0  0
   19.4460   33.8420   71.7840 C   0  0  0  0  0  0  0  0  0  0  0  0
   19.3380   35.0410   72.4500 O   0  0  0  0  0  1  0  0  0  0  0  0
   16.3780   34.4570   71.6180 C   0  0  0  0  0  0  0  0  0  0  0  0
   17.1470   35.2990   70.8330 C   0  0  0  0  0  3  0  0  0  0  0  0
   16.6970   36.4050   70.1800 C   0  0  0  0  0  0  0  0  0  0  0  0
   17.8040   37.5310   69.1070 Br  0  0  0  0  0  0  0  0  0  0  0  0
   15.3340   36.7090   70.3250 C   0  0  0  0  0  3  0  0  0  0  0  0
   14.5380   35.8880   71.1050 C   0  0  0  0  0  3  0  0  0  0  0  0
   15.0280   34.7700   71.7530 C   0  0  0  0  0  3  0  0  0  0  0  0
   20.7100   33.4580   71.2070 C   0  0  0  0  0  0  0  0  0  0  0  0
   21.2670   34.0610   70.0660 C   0  0  0  0  0  0  0  0  0  0  0  0
   22.4580   33.5040   69.8140 N   0  0  0  0  0  0  0  0  0  0  0  0
   20.6010   35.1490   69.2920 C   0  0  0  0  0  1  0  0  0  0  0  0
   22.6620   32.5880   70.7430 N   0  0  0  0  0  0  0  0  0  0  0  0
   21.6330   32.5300   71.6020 C   0  0  0  0  0  3  0  0  0  0  0  0
   23.3550   33.8300   68.7620 C   0  0  0  0  0  0  0  0  0  0  0  0
   24.4020   34.7040   69.0230 C   0  0  0  0  0  3  0  0  0  0  0  0
   25.3180   35.0570   68.0520 C   0  0  0  0  0  3  0  0  0  0  0  0
   25.2250   34.5440   66.7580 C   0  0  0  0  0  3  0  0  0  0  0  0
   24.1820   33.6730   66.4970 C   0  0  0  0  0  3  0  0  0  0  0  0
   23.2860   33.3390   67.4790 C   0  0  0  0  0  3  0  0  0  0  0  0
   14.9310   31.7800   72.5120 C   0  0  0  0  0  2  0  0  0  0  0  0
   15.0620   30.8560   73.6950 C   0  0  0  0  0  2  0  0  0  0  0  0
   14.5890   29.4630   73.4200 C   0  0  0  0  0  2  0  0  0  0  0  0
   15.5990   28.4650   73.3050 N   0  0  0  0  0  4  0  0  0  0  0  0
   16.8690   28.7780   73.8740 C   0  0  0  0  0  1  0  0  0  0  0  0
   15.1390   27.2060   73.9130 C   0  0  0  0  0  1  0  0  0  0  0  0
   15.7430   28.2200   72.2790 H   0  0  0  0  0  0  0  0  0  0  0  0
  1 10  1  6  0  0  0
  2  1  1  0  0  0  0
  2 29  1  0  0  0  0
  3  2  1  0  0  0  0
  4  3  2  0  0  0  0
  5  3  1  0  0  0  0
  5  7  1  0  0  0  0
  6  5  2  0  0  0  0
  7  8  2  0  0  0  0
  7  1  1  0  0  0  0
  8  9  1  0  0  0  0
 10 16  1  0  0  0  0
 11 10  2  0  0  0  0
 12 14  2  0  0  0  0
 12 11  1  0  0  0  0
 13 12  1  0  0  0  0
 14 15  1  0  0  0  0
 15 16  2  0  0  0  0
 17 22  1  0  0  0  0
 17  8  1  0  0  0  0
 18 17  2  0  0  0  0
 19 18  1  0  0  0  0
 19 21  1  0  0  0  0
 20 18  1  0  0  0  0
 21 22  2  0  0  0  0
 23 24  1  0  0  0  0
 23 19  1  0  0  0  0
 25 24  2  0  0  0  0
 26 25  1  0  0  0  0
 27 26  2  0  0  0  0
 27 28  1  0  0  0  0
 28 23  2  0  0  0  0
 29 30  1  0  0  0  0
 31 30  1  0  0  0  0
 32 31  1  0  0  0  0
 32 33  1  0  0  0  0
 32 34  1  0  0  0  0
 35 32  1  0  0  0  0
M  END
>  <Pose>
1

>  <Score>
-8.594

$$$$
