/Users/jonathanwahrer/Desktop/Msc/3_Semester/Drug_Design_Praktikum/waehrer_HTS_screening/HTS_experiment/out/docking_results/vina_output/4x21/0170_docked.pdbqt
 OpenBabel03212201233D

 35 38  0  0  1  0  0  0  0  0999 V2000
   19.8210   35.8670   70.8490 C   0  0  1  0  0  3  0  0  0  0  0  0
   19.8360   34.5160   71.3740 N   0  0  0  0  0  0  0  0  0  0  0  0
   20.1430   33.5870   70.3570 C   0  0  0  0  0  0  0  0  0  0  0  0
   19.9670   32.3440   70.2930 O   0  0  0  0  0  0  0  0  0  0  0  0
   20.7650   34.3790   69.2660 C   0  0  0  0  0  0  0  0  0  0  0  0
   21.1700   33.8800   68.1970 O   0  0  0  0  0  0  0  0  0  0  0  0
   20.7900   35.7630   69.7040 C   0  0  0  0  0  0  0  0  0  0  0  0
   21.5550   36.7070   69.2180 C   0  0  0  0  0  0  0  0  0  0  0  0
   21.5150   37.9870   69.7970 O   0  0  0  0  0  1  0  0  0  0  0  0
   18.4870   36.3000   70.3990 C   0  0  0  0  0  0  0  0  0  0  0  0
   17.3360   35.6690   70.8120 C   0  0  0  0  0  3  0  0  0  0  0  0
   16.0860   36.0930   70.3750 C   0  0  0  0  0  0  0  0  0  0  0  0
   14.5060   35.2030   70.9580 Br  0  0  0  0  0  0  0  0  0  0  0  0
   15.9870   37.1700   69.5080 C   0  0  0  0  0  3  0  0  0  0  0  0
   17.1460   37.7960   69.1010 C   0  0  0  0  0  3  0  0  0  0  0  0
   18.3840   37.3700   69.5380 C   0  0  0  0  0  3  0  0  0  0  0  0
   22.4360   36.4880   68.1030 C   0  0  0  0  0  0  0  0  0  0  0  0
   23.7490   36.0990   68.4030 C   0  0  0  0  0  3  0  0  0  0  0  0
   24.6660   35.9080   67.4070 C   0  0  0  0  0  0  0  0  0  0  0  0
   24.3450   36.0880   66.0670 C   0  0  0  0  0  0  0  0  0  0  0  0
   26.0660   35.4930   67.7450 C   0  0  0  0  0  1  0  0  0  0  0  0
   23.0660   36.4660   65.8000 C   0  0  0  0  0  3  0  0  0  0  0  0
   22.1280   36.6640   66.7920 C   0  0  0  0  0  3  0  0  0  0  0  0
   25.3270   35.8750   65.1220 O   0  0  0  0  0  0  0  0  0  0  0  0
   25.6940   36.8980   64.2090 C   0  0  0  0  0  1  0  0  0  0  0  0
   19.5800   34.1310   72.7710 C   0  0  0  0  0  2  0  0  0  0  0  0
   18.7950   32.8490   72.8120 C   0  0  0  0  0  2  0  0  0  0  0  0
   17.3950   32.9800   73.3070 C   0  0  0  0  0  2  0  0  0  0  0  0
   16.6550   31.7380   73.2930 N   0  0  0  0  0  4  0  0  0  0  0  0
   15.3590   31.8900   72.6610 C   0  0  0  0  0  2  0  0  0  0  0  0
   15.2780   31.0680   71.4030 C   0  0  0  0  0  2  0  0  0  0  0  0
   15.4430   29.7150   71.7640 O   0  0  0  0  0  0  0  0  0  0  0  0
   16.7180   29.5010   72.2840 C   0  0  0  0  0  2  0  0  0  0  0  0
   17.4740   30.7590   72.5710 C   0  0  0  0  0  2  0  0  0  0  0  0
   16.5160   31.3270   74.2400 H   0  0  0  0  0  0  0  0  0  0  0  0
  1 10  1  6  0  0  0
  1  2  1  0  0  0  0
  2 26  1  0  0  0  0
  3  2  1  0  0  0  0
  4  3  2  0  0  0  0
  5  7  1  0  0  0  0
  5  3  1  0  0  0  0
  6  5  2  0  0  0  0
  7  1  1  0  0  0  0
  8  7  2  0  0  0  0
  8  9  1  0  0  0  0
 10 11  1  0  0  0  0
 12 11  2  0  0  0  0
 12 13  1  0  0  0  0
 14 12  1  0  0  0  0
 15 14  2  0  0  0  0
 15 16  1  0  0  0  0
 16 10  2  0  0  0  0
 17 18  1  0  0  0  0
 17  8  1  0  0  0  0
 19 21  1  0  0  0  0
 19 18  2  0  0  0  0
 20 19  1  0  0  0  0
 22 20  2  0  0  0  0
 22 23  1  0  0  0  0
 23 17  2  0  0  0  0
 24 20  1  0  0  0  0
 25 24  1  0  0  0  0
 26 27  1  0  0  0  0
 27 28  1  0  0  0  0
 29 28  1  0  0  0  0
 29 35  1  0  0  0  0
 30 29  1  0  0  0  0
 31 32  1  0  0  0  0
 31 30  1  0  0  0  0
 32 33  1  0  0  0  0
 33 34  1  0  0  0  0
 34 29  1  0  0  0  0
M  END
>  <Pose>
1

>  <Score>
-8.982

$$$$
