/Users/jonathanwahrer/Desktop/Msc/3_Semester/Drug_Design_Praktikum/waehrer_HTS_screening/HTS_experiment/out/docking_results/vina_output/4x21/0175_docked.pdbqt
 OpenBabel03212201243D

 32 35  0  0  1  0  0  0  0  0999 V2000
   18.6290   34.9860   71.5300 C   0  0  2  0  0  3  0  0  0  0  0  0
   19.8220   35.0870   70.7430 N   0  0  0  0  0  0  0  0  0  0  0  0
   19.8700   33.9160   69.9410 C   0  0  0  0  0  0  0  0  0  0  0  0
   20.5520   33.7690   68.8960 O   0  0  0  0  0  0  0  0  0  0  0  0
   18.9870   32.8840   70.5320 C   0  0  0  0  0  0  0  0  0  0  0  0
   18.7740   31.7330   70.1130 O   0  0  0  0  0  0  0  0  0  0  0  0
   18.4180   33.5060   71.7130 C   0  0  0  0  0  0  0  0  0  0  0  0
   17.8770   32.9170   72.7570 C   0  0  0  0  0  0  0  0  0  0  0  0
   17.4470   33.6750   73.8250 O   0  0  0  0  0  1  0  0  0  0  0  0
   20.8220   36.1730   70.7330 C   0  0  0  0  0  2  0  0  0  0  0  0
   20.7110   36.8710   69.4070 C   0  0  0  0  0  2  0  0  0  0  0  0
   21.9340   37.3400   68.8650 N   0  0  0  0  0  4  0  0  0  0  0  0
   23.0880   36.5260   69.1140 C   0  0  0  0  0  2  0  0  0  0  0  0
   23.3610   35.4960   68.0520 C   0  0  0  0  0  2  0  0  0  0  0  0
   23.1810   35.9600   66.7690 O   0  0  0  0  0  0  0  0  0  0  0  0
   21.9180   36.4680   66.5680 C   0  0  0  0  0  2  0  0  0  0  0  0
   21.7520   37.6600   67.4710 C   0  0  0  0  0  2  0  0  0  0  0  0
   22.1280   38.2790   69.3270 H   0  0  0  0  0  0  0  0  0  0  0  0
   17.4430   35.5940   70.8640 C   0  0  0  0  0  0  0  0  0  0  0  0
   16.2470   34.9220   70.7270 C   0  0  0  0  0  3  0  0  0  0  0  0
   15.1380   35.4880   70.1050 C   0  0  0  0  0  0  0  0  0  0  0  0
   13.5000   34.5200   69.9370 Br  0  0  0  0  0  0  0  0  0  0  0  0
   15.2350   36.7520   69.6140 C   0  0  0  0  0  3  0  0  0  0  0  0
   16.4040   37.4600   69.7270 C   0  0  0  0  0  3  0  0  0  0  0  0
   17.4910   36.8810   70.3460 C   0  0  0  0  0  3  0  0  0  0  0  0
   17.7110   31.4880   72.8180 C   0  0  0  0  0  0  0  0  0  0  0  0
   18.6100   30.5840   73.3050 C   0  0  0  0  0  3  0  0  0  0  0  0
   18.3000   29.2370   73.3410 C   0  0  0  0  0  3  0  0  0  0  0  0
   17.1020   28.7210   72.9020 C   0  0  0  0  0  0  0  0  0  0  0  0
   16.1940   29.6350   72.4100 C   0  0  0  0  0  3  0  0  0  0  0  0
   16.7930   27.2650   72.9520 C   0  0  0  0  0  1  0  0  0  0  0  0
   16.4830   30.9770   72.3650 C   0  0  0  0  0  3  0  0  0  0  0  0
  1 19  1  6  0  0  0
  1  7  1  0  0  0  0
  2  1  1  0  0  0  0
  3  5  1  0  0  0  0
  3  2  1  0  0  0  0
  4  3  2  0  0  0  0
  5  7  1  0  0  0  0
  6  5  2  0  0  0  0
  7  8  2  0  0  0  0
  8 26  1  0  0  0  0
  8  9  1  0  0  0  0
 10  2  1  0  0  0  0
 11 10  1  0  0  0  0
 12 13  1  0  0  0  0
 12 18  1  0  0  0  0
 12 11  1  0  0  0  0
 14 13  1  0  0  0  0
 15 14  1  0  0  0  0
 16 15  1  0  0  0  0
 16 17  1  0  0  0  0
 17 12  1  0  0  0  0
 20 19  1  0  0  0  0
 21 20  2  0  0  0  0
 22 21  1  0  0  0  0
 23 24  2  0  0  0  0
 23 21  1  0  0  0  0
 24 25  1  0  0  0  0
 25 19  2  0  0  0  0
 26 27  1  0  0  0  0
 27 28  2  0  0  0  0
 29 31  1  0  0  0  0
 29 28  1  0  0  0  0
 30 29  2  0  0  0  0
 32 30  1  0  0  0  0
 32 26  2  0  0  0  0
M  END
>  <Pose>
1

>  <Score>
-8.541

$$$$
