/Users/jonathanwahrer/Desktop/Msc/3_Semester/Drug_Design_Praktikum/waehrer_HTS_screening/HTS_experiment/out/docking_results/vina_output/4x21/0184_docked.pdbqt
 OpenBabel03212201253D

 33 36  0  0  1  0  0  0  0  0999 V2000
   22.0950   35.6900   67.0450 C   0  0  2  0  0  3  0  0  0  0  0  0
   22.9360   34.5390   67.3100 N   0  0  0  0  0  0  0  0  0  0  0  0
   23.8740   34.5050   66.2260 C   0  0  0  0  0  0  0  0  0  0  0  0
   24.4890   33.5170   65.7850 O   0  0  0  0  0  0  0  0  0  0  0  0
   23.9860   35.8670   65.7180 C   0  0  0  0  0  0  0  0  0  0  0  0
   24.6830   36.3370   64.7710 O   0  0  0  0  0  0  0  0  0  0  0  0
   23.0950   36.6780   66.5340 C   0  0  0  0  0  0  0  0  0  0  0  0
   23.1760   37.9830   66.7050 C   0  0  0  0  0  0  0  0  0  0  0  0
   22.1660   38.5640   67.4860 O   0  0  0  0  0  1  0  0  0  0  0  0
   21.3750   36.2090   68.2140 C   0  0  0  0  0  0  0  0  0  0  0  0
   20.0560   36.5160   68.2240 C   0  0  0  0  0  3  0  0  0  0  0  0
   19.4490   37.0120   69.3780 C   0  0  0  0  0  0  0  0  0  0  0  0
   17.5970   37.4310   69.3500 Br  0  0  0  0  0  0  0  0  0  0  0  0
   20.1680   37.2080   70.5480 C   0  0  0  0  0  3  0  0  0  0  0  0
   21.5080   36.8890   70.5170 C   0  0  0  0  0  3  0  0  0  0  0  0
   22.1050   36.4040   69.3920 C   0  0  0  0  0  3  0  0  0  0  0  0
   24.2190   38.8380   66.1590 C   0  0  0  0  0  0  0  0  0  0  0  0
   24.1030   39.7450   65.1770 N   0  0  0  0  0  0  0  0  0  0  0  0
   25.2820   40.3840   64.9680 C   0  0  0  0  0  0  0  0  0  0  0  0
   23.0530   40.1040   64.3800 C   0  0  0  0  0  3  0  0  0  0  0  0
   26.1450   39.8320   65.8660 N   0  0  0  0  0  0  0  0  0  0  0  0
   25.4470   41.3620   64.0000 C   0  0  0  0  0  3  0  0  0  0  0  0
   25.5500   38.9050   66.5960 C   0  0  0  0  0  0  0  0  0  0  0  0
   26.0610   38.0400   67.6830 C   0  0  0  0  0  1  0  0  0  0  0  0
   24.3820   41.7200   63.2000 C   0  0  0  0  0  3  0  0  0  0  0  0
   23.1790   41.0600   63.4200 C   0  0  0  0  0  3  0  0  0  0  0  0
   22.8590   33.5920   68.4250 C   0  0  0  0  0  2  0  0  0  0  0  0
   24.0770   33.5720   69.2740 C   0  0  0  0  0  2  0  0  0  0  0  0
   24.9470   32.3840   69.2290 C   0  0  0  0  0  2  0  0  0  0  0  0
   25.9790   32.3850   68.2520 N   0  0  0  0  0  4  0  0  0  0  0  0
   26.8530   31.2540   68.4520 C   0  0  0  0  0  1  0  0  0  0  0  0
   26.8230   33.5810   68.4370 C   0  0  0  0  0  1  0  0  0  0  0  0
   25.6430   32.4680   67.2680 H   0  0  0  0  0  0  0  0  0  0  0  0
  1  2  1  0  0  0  0
  1 10  1  1  0  0  0
  2 27  1  0  0  0  0
  3  2  1  0  0  0  0
  4  3  2  0  0  0  0
  5  3  1  0  0  0  0
  5  7  1  0  0  0  0
  6  5  2  0  0  0  0
  7  8  2  0  0  0  0
  7  1  1  0  0  0  0
  8  9  1  0  0  0  0
 10 11  2  0  0  0  0
 10 16  1  0  0  0  0
 11 12  1  0  0  0  0
 12 14  2  0  0  0  0
 13 12  1  0  0  0  0
 15 14  1  0  0  0  0
 16 15  2  0  0  0  0
 17 23  2  0  0  0  0
 17  8  1  0  0  0  0
 18 17  1  0  0  0  0
 19 18  1  0  0  0  0
 19 21  2  0  0  0  0
 20 18  1  0  0  0  0
 21 23  1  0  0  0  0
 22 19  1  0  0  0  0
 23 24  1  0  0  0  0
 25 26  1  0  0  0  0
 25 22  2  0  0  0  0
 26 20  2  0  0  0  0
 27 28  1  0  0  0  0
 29 28  1  0  0  0  0
 30 32  1  0  0  0  0
 30 31  1  0  0  0  0
 30 29  1  0  0  0  0
 33 30  1  0  0  0  0
M  END
>  <Pose>
1

>  <Score>
-7.353

$$$$
