/Users/jonathanwahrer/Desktop/Msc/3_Semester/Drug_Design_Praktikum/waehrer_HTS_screening/HTS_experiment/out/docking_results/vina_output/4x21/0213_docked.pdbqt
 OpenBabel03212201263D

 25 28  0  0  1  0  0  0  0  0999 V2000
   18.9510   36.3700   69.8960 N   0  0  0  0  0  0  0  0  0  0  0  0
   18.0520   37.3890   69.4080 C   0  0  0  0  0  0  0  0  0  0  0  0
   18.1980   38.1310   68.4300 O   0  0  0  0  0  0  0  0  0  0  0  0
   16.8640   37.4070   70.3100 C   0  0  1  0  0  3  0  0  0  0  0  0
   15.6670   37.6710   69.6690 O   0  0  0  0  0  0  0  0  0  0  0  0
   14.7780   36.9630   70.4430 N   0  0  0  0  0  0  0  0  0  0  0  0
   15.4250   35.6980   70.6640 C   0  0  0  0  0  0  0  0  0  0  0  0
   16.7150   35.9250   70.5890 C   0  0  0  0  0  0  0  0  0  0  0  0
   18.1060   35.4590   70.6340 C   0  0  0  0  0  0  0  0  0  0  0  0
   18.4450   34.4310   71.2290 O   0  0  0  0  0  0  0  0  0  0  0  0
   13.8570   37.2460   70.7970 H   0  0  0  0  0  0  0  0  0  0  0  0
   20.3470   36.3170   69.6750 C   0  0  0  0  0  0  0  0  0  0  0  0
   20.8910   35.3010   68.9220 C   0  0  0  0  0  3  0  0  0  0  0  0
   22.2680   35.2230   68.6930 C   0  0  0  0  0  0  0  0  0  0  0  0
   22.9920   33.8060   67.6490 Br  0  0  0  0  0  0  0  0  0  0  0  0
   23.1300   36.1600   69.2120 C   0  0  0  0  0  3  0  0  0  0  0  0
   22.5880   37.1780   69.9660 C   0  0  0  0  0  3  0  0  0  0  0  0
   21.2060   37.2530   70.1940 C   0  0  0  0  0  3  0  0  0  0  0  0
   14.8260   34.4140   70.9100 C   0  0  0  0  0  0  0  0  0  0  0  0
   15.2540   33.5720   71.9340 C   0  0  0  0  0  3  0  0  0  0  0  0
   14.5070   32.4530   71.9370 N   0  0  0  0  0  0  0  0  0  0  0  0
   13.6430   32.5950   70.9460 N   0  0  0  0  0  0  0  0  0  0  0  0
   14.6380   31.3120   72.8580 C   0  0  0  0  0  1  0  0  0  0  0  0
   13.7880   33.7490   70.2980 C   0  0  0  0  0  0  0  0  0  0  0  0
   12.9940   34.2660   69.1330 C   0  0  0  0  0  1  0  0  0  0  0  0
  1  9  1  0  0  0  0
  2  1  1  0  0  0  0
  3  2  2  0  0  0  0
  4  2  1  6  0  0  0
  4  8  1  0  0  0  0
  5  4  1  0  0  0  0
  5  6  1  0  0  0  0
  6  7  1  0  0  0  0
  6 11  1  0  0  0  0
  7 19  1  0  0  0  0
  8  9  1  0  0  0  0
  8  7  2  0  0  0  0
  9 10  2  0  0  0  0
 12  1  1  0  0  0  0
 12 18  1  0  0  0  0
 13 12  2  0  0  0  0
 14 13  1  0  0  0  0
 14 16  2  0  0  0  0
 15 14  1  0  0  0  0
 16 17  1  0  0  0  0
 17 18  2  0  0  0  0
 19 20  2  0  0  0  0
 20 21  1  0  0  0  0
 21 23  1  0  0  0  0
 22 21  1  0  0  0  0
 24 19  1  0  0  0  0
 24 22  2  0  0  0  0
 25 24  1  0  0  0  0
M  END
>  <Pose>
1

>  <Score>
-8.816

$$$$
