/Users/jonathanwahrer/Desktop/Msc/3_Semester/Drug_Design_Praktikum/waehrer_HTS_screening/HTS_experiment/out/docking_results/vina_output/4x21/0226_docked.pdbqt
 OpenBabel03212201273D

 30 33  0  0  0  0  0  0  0  0999 V2000
   16.0650   30.0620   73.1430 N   0  0  0  0  0  0  0  0  0  0  0  0
   15.8130   28.7860   73.4810 C   0  0  0  0  0  0  0  0  0  0  0  0
   16.9250   28.0070   73.2240 C   0  0  0  0  0  0  0  0  0  0  0  0
   17.8340   28.8550   72.7290 N   0  0  0  0  0  0  0  0  0  0  0  0
   17.3420   30.1050   72.6680 C   0  0  0  0  0  0  0  0  0  0  0  0
   16.9020   26.6890   73.4890 N   0  0  0  0  0  0  0  0  0  0  0  0
   15.8030   26.1110   74.0040 C   0  0  0  0  0  0  0  0  0  0  0  0
   15.7390   24.8840   74.2660 O   0  0  0  0  0  0  0  0  0  0  0  0
   14.7000   26.8670   74.2630 N   0  0  0  0  0  0  0  0  0  0  0  0
   14.6740   28.1890   74.0160 C   0  0  0  0  0  0  0  0  0  0  0  0
   13.6220   28.8610   74.2700 O   0  0  0  0  0  0  0  0  0  0  0  0
   18.0510   25.8450   73.2290 C   0  0  0  0  0  1  0  0  0  0  0  0
   13.8660   26.3790   74.6650 H   0  0  0  0  0  0  0  0  0  0  0  0
   15.1780   31.1850   73.2600 C   0  0  0  0  0  2  0  0  0  0  0  0
   14.3520   31.4110   72.0330 C   0  0  0  0  0  0  0  0  0  0  0  0
   13.7480   30.4710   71.4920 O   0  0  0  0  0  0  0  0  0  0  0  0
   14.2370   32.7440   71.4450 C   0  0  0  0  0  0  0  0  0  0  0  0
   15.0090   33.7930   71.8810 C   0  0  0  0  0  3  0  0  0  0  0  0
   14.8960   35.0560   71.3240 C   0  0  0  0  0  3  0  0  0  0  0  0
   13.9970   35.3200   70.3010 C   0  0  0  0  0  0  0  0  0  0  0  0
   13.8740   37.0690   69.5620 Br  0  0  0  0  0  0  0  0  0  0  0  0
   13.2210   34.2710   69.8620 C   0  0  0  0  0  3  0  0  0  0  0  0
   13.3450   33.0210   70.4250 C   0  0  0  0  0  3  0  0  0  0  0  0
   17.9740   31.2890   72.2170 N   0  0  0  0  0  0  0  0  0  0  0  0
   17.8960   31.6310   70.8330 C   0  0  0  0  0  2  0  0  0  0  0  0
   18.2500   33.0220   70.4590 C   0  0  0  0  0  2  0  0  0  0  0  0
   19.1310   33.7060   71.3580 N   0  0  0  0  0  0  0  0  0  0  0  0
   18.5860   33.5870   72.6970 C   0  0  0  0  0  2  0  0  0  0  0  0
   20.4960   33.2710   71.2700 C   0  0  0  0  0  1  0  0  0  0  0  0
   18.6730   32.1260   73.1420 C   0  0  0  0  0  2  0  0  0  0  0  0
  1 14  1  0  0  0  0
  1  2  1  0  0  0  0
  2 10  1  0  0  0  0
  3  2  2  0  0  0  0
  3  6  1  0  0  0  0
  4  3  1  0  0  0  0
  5  4  2  0  0  0  0
  5  1  1  0  0  0  0
  6  7  1  0  0  0  0
  7  9  1  0  0  0  0
  7  8  2  0  0  0  0
  9 13  1  0  0  0  0
 10  9  1  0  0  0  0
 10 11  2  0  0  0  0
 12  6  1  0  0  0  0
 15 14  1  0  0  0  0
 16 15  2  0  0  0  0
 17 18  1  0  0  0  0
 17 15  1  0  0  0  0
 19 18  2  0  0  0  0
 20 19  1  0  0  0  0
 21 20  1  0  0  0  0
 22 20  2  0  0  0  0
 22 23  1  0  0  0  0
 23 17  2  0  0  0  0
 24  5  1  0  0  0  0
 24 30  1  0  0  0  0
 25 24  1  0  0  0  0
 26 25  1  0  0  0  0
 26 27  1  0  0  0  0
 27 28  1  0  0  0  0
 28 30  1  0  0  0  0
 29 27  1  0  0  0  0
M  END
>  <Pose>
1

>  <Score>
-8.145

$$$$
