/Users/jonathanwahrer/Desktop/Msc/3_Semester/Drug_Design_Praktikum/waehrer_HTS_screening/HTS_experiment/out/docking_results/vina_output/4x21/0231_docked.pdbqt
 OpenBabel03212201273D

 34 37  0  0  1  0  0  0  0  0999 V2000
   19.7080   35.2650   70.4920 C   0  0  2  0  0  3  0  0  0  0  0  0
   20.4170   34.2700   69.6060 C   0  0  1  0  0  3  0  0  0  0  0  0
   21.1890   35.1300   68.7390 N   0  0  0  0  0  0  0  0  0  0  0  0
   21.5720   36.2520   69.5260 C   0  0  0  0  0  0  0  0  0  0  0  0
   22.3780   37.1670   69.1730 O   0  0  0  0  0  0  0  0  0  0  0  0
   20.8720   36.1660   70.8230 C   0  0  0  0  0  0  0  0  0  0  0  0
   21.1920   36.7110   71.8910 O   0  0  0  0  0  0  0  0  0  0  0  0
   19.0910   34.7050   71.6800 C   0  0  0  0  0  0  0  0  0  0  0  0
   19.7240   34.6040   72.7510 O   0  0  0  0  0  0  0  0  0  0  0  0
   17.7130   34.2510   71.6380 C   0  0  0  0  0  0  0  0  0  0  0  0
   16.7960   34.8290   70.7530 C   0  0  0  0  0  3  0  0  0  0  0  0
   15.4880   34.4220   70.6990 C   0  0  0  0  0  3  0  0  0  0  0  0
   15.0570   33.4190   71.5340 C   0  0  0  0  0  0  0  0  0  0  0  0
   13.2430   32.8690   71.4460 Br  0  0  0  0  0  0  0  0  0  0  0  0
   15.9050   32.8130   72.4230 C   0  0  0  0  0  3  0  0  0  0  0  0
   17.2170   33.2500   72.4490 C   0  0  0  0  0  3  0  0  0  0  0  0
   21.2040   33.2780   70.3230 C   0  0  0  0  0  0  0  0  0  0  0  0
   20.6170   32.1590   70.9300 C   0  0  0  0  0  3  0  0  0  0  0  0
   21.3700   31.2210   71.6050 C   0  0  0  0  0  0  0  0  0  0  0  0
   22.7430   31.3490   71.7080 C   0  0  0  0  0  0  0  0  0  0  0  0
   23.3410   32.4410   71.1180 C   0  0  0  0  0  3  0  0  0  0  0  0
   23.5250   30.4190   72.3820 O   0  0  0  0  0  1  0  0  0  0  0  0
   22.5710   33.3760   70.4440 C   0  0  0  0  0  3  0  0  0  0  0  0
   20.7960   30.1140   72.2060 O   0  0  0  0  0  0  0  0  0  0  0  0
   20.1110   30.1620   73.4320 C   0  0  0  0  0  1  0  0  0  0  0  0
   21.5440   34.9660   67.3510 C   0  0  0  0  0  2  0  0  0  0  0  0
   22.8740   34.3070   67.1470 C   0  0  0  0  0  2  0  0  0  0  0  0
   24.0020   35.1310   67.3550 N   0  0  0  0  0  4  0  0  0  0  0  0
   24.0230   36.1480   66.2980 C   0  0  0  0  0  2  0  0  0  0  0  0
   24.3640   35.5780   64.9610 C   0  0  0  0  0  2  0  0  0  0  0  0
   24.8920   34.3110   64.9920 O   0  0  0  0  0  0  0  0  0  0  0  0
   25.8210   34.1810   65.9950 C   0  0  0  0  0  2  0  0  0  0  0  0
   25.2700   34.4920   67.3610 C   0  0  0  0  0  2  0  0  0  0  0  0
   23.9100   35.6830   68.2530 H   0  0  0  0  0  0  0  0  0  0  0  0
  1  6  1  0  0  0  0
  1  8  1  1  0  0  0
  2 17  1  1  0  0  0
  2  1  1  0  0  0  0
  3  4  1  0  0  0  0
  3  2  1  0  0  0  0
  4  6  1  0  0  0  0
  5  4  2  0  0  0  0
  6  7  2  0  0  0  0
  8  9  2  0  0  0  0
 10  8  1  0  0  0  0
 10 16  1  0  0  0  0
 11 10  2  0  0  0  0
 12 11  1  0  0  0  0
 12 13  2  0  0  0  0
 13 15  1  0  0  0  0
 14 13  1  0  0  0  0
 15 16  2  0  0  0  0
 17 23  2  0  0  0  0
 17 18  1  0  0  0  0
 18 19  2  0  0  0  0
 19 20  1  0  0  0  0
 19 24  1  0  0  0  0
 20 22  1  0  0  0  0
 21 20  2  0  0  0  0
 23 21  1  0  0  0  0
 24 25  1  0  0  0  0
 26  3  1  0  0  0  0
 27 26  1  0  0  0  0
 27 28  1  0  0  0  0
 28 33  1  0  0  0  0
 28 34  1  0  0  0  0
 29 28  1  0  0  0  0
 30 31  1  0  0  0  0
 30 29  1  0  0  0  0
 31 32  1  0  0  0  0
 32 33  1  0  0  0  0
M  END
>  <Pose>
1

>  <Score>
-8.152

$$$$
