/Users/jonathanwahrer/Desktop/Msc/3_Semester/Drug_Design_Praktikum/waehrer_HTS_screening/HTS_experiment/out/docking_results/vina_output/4x21/0235_docked.pdbqt
 OpenBabel03212201273D

 25 28  0  0  1  0  0  0  0  0999 V2000
   21.3320   35.7280   68.2500 C   0  0  1  0  0  3  0  0  0  0  0  0
   22.7290   36.1100   68.1180 N   0  0  0  0  0  0  0  0  0  0  0  0
   23.5920   37.0080   68.7120 N   0  0  0  0  0  2  0  0  0  0  0  0
   24.8530   37.0550   68.4640 C   0  0  0  0  0  3  0  0  0  0  0  0
   25.4280   36.1380   67.5070 C   0  0  0  0  0  3  0  0  0  0  0  0
   24.6670   35.2720   66.8790 C   0  0  0  0  0  3  0  0  0  0  0  0
   23.2340   35.1960   67.0970 C   0  0  0  0  0  0  0  0  0  0  0  0
   22.7100   33.8940   67.5890 C   0  0  2  0  0  3  0  0  0  0  0  0
   21.4720   34.2320   68.4290 C   0  0  1  0  0  3  0  0  0  0  0  0
   21.8520   33.8510   69.7870 C   0  0  0  0  0  0  0  0  0  0  0  0
   21.2470   34.1920   70.8410 O   0  0  0  0  0  0  0  0  0  0  0  0
   23.0090   33.0400   69.7290 N   0  0  0  0  0  0  0  0  0  0  0  0
   23.6410   33.1690   68.4620 C   0  0  0  0  0  0  0  0  0  0  0  0
   24.7780   32.7460   68.1410 O   0  0  0  0  0  0  0  0  0  0  0  0
   20.7020   36.3850   69.4030 C   0  0  0  0  0  0  0  0  0  0  0  0
   21.4900   36.8860   70.2700 O   0  0  0  0  0  0  0  0  0  0  0  0
   19.2790   36.5070   69.6250 C   0  0  0  0  0  0  0  0  0  0  0  0
   18.5970   35.6990   70.4970 C   0  0  0  0  0  3  0  0  0  0  0  0
   17.2420   35.8620   70.6730 C   0  0  0  0  0  3  0  0  0  0  0  0
   16.5020   36.8160   70.0080 C   0  0  0  0  0  0  0  0  0  0  0  0
   14.6230   36.9900   70.2970 Br  0  0  0  0  0  0  0  0  0  0  0  0
   17.1910   37.6260   69.1320 C   0  0  0  0  0  3  0  0  0  0  0  0
   18.5460   37.4700   68.9500 C   0  0  0  0  0  3  0  0  0  0  0  0
   23.5000   32.1920   70.7900 C   0  0  0  0  0  2  0  0  0  0  0  0
   22.6490   30.9830   71.0330 C   0  0  0  0  0  1  0  0  0  0  0  0
  1  9  1  0  0  0  0
  1 15  1  1  0  0  0
  2  1  1  0  0  0  0
  2  3  1  0  0  0  0
  4  3  1  0  0  0  0
  5  4  2  0  0  0  0
  6  7  2  0  0  0  0
  6  5  1  0  0  0  0
  7  2  1  0  0  0  0
  8  7  1  1  0  0  0
  8  9  1  0  0  0  0
  8 13  1  0  0  0  0
  9 10  1  1  0  0  0
 10 11  2  0  0  0  0
 12 10  1  0  0  0  0
 12 24  1  0  0  0  0
 13 12  1  0  0  0  0
 14 13  2  0  0  0  0
 15 17  1  0  0  0  0
 15 16  2  0  0  0  0
 17 18  1  0  0  0  0
 18 19  2  0  0  0  0
 20 21  1  0  0  0  0
 20 19  1  0  0  0  0
 22 20  2  0  0  0  0
 23 22  1  0  0  0  0
 23 17  2  0  0  0  0
 24 25  1  0  0  0  0
M  END
>  <Pose>
1

>  <Score>
-7.912

$$$$
