/Users/jonathanwahrer/Desktop/Msc/3_Semester/Drug_Design_Praktikum/waehrer_HTS_screening/HTS_experiment/out/docking_results/vina_output/4x21/0244_docked.pdbqt
 OpenBabel03212201283D

 25 28  0  0  1  0  0  0  0  0999 V2000
   18.9510   37.1670   69.9420 C   0  0  2  0  0  3  0  0  0  0  0  0
   19.2630   37.2290   68.4640 C   0  0  0  0  0  2  0  0  0  0  0  0
   20.5120   36.4940   68.3640 N   0  0  0  0  0  0  0  0  0  0  0  0
   21.2090   36.5700   69.6330 C   0  0  1  0  0  3  0  0  0  0  0  0
   20.2940   37.2000   70.6290 C   0  0  0  0  0  2  0  0  0  0  0  0
   21.5910   35.1800   69.9890 C   0  0  0  0  0  0  0  0  0  0  0  0
   21.4300   34.6880   71.1300 O   0  0  0  0  0  0  0  0  0  0  0  0
   22.1720   34.3420   69.0080 N   0  0  0  0  0  0  0  0  0  0  0  0
   21.9220   34.5150   67.5920 C   0  0  2  0  0  3  0  0  0  0  0  0
   23.3190   34.5200   67.0580 C   0  0  0  0  0  2  0  0  0  0  0  0
   23.9670   33.4050   67.8870 C   0  0  0  0  0  2  0  0  0  0  0  0
   23.0660   33.2220   69.1120 C   0  0  0  0  0  2  0  0  0  0  0  0
   21.1560   35.7590   67.3310 C   0  0  0  0  0  0  0  0  0  0  0  0
   21.0570   36.2050   66.1370 O   0  0  0  0  0  0  0  0  0  0  0  0
   18.2830   35.9680   70.3280 N   0  0  0  0  0  0  0  0  0  0  0  0
   16.9020   36.0060   70.6510 C   0  0  0  0  0  0  0  0  0  0  0  0
   16.2830   37.0880   70.5930 O   0  0  0  0  0  0  0  0  0  0  0  0
   18.8420   35.0790   70.3650 H   0  0  0  0  0  0  0  0  0  0  0  0
   16.1760   34.7860   71.0560 C   0  0  0  0  0  0  0  0  0  0  0  0
   16.6570   34.0370   72.1070 C   0  0  0  0  0  3  0  0  0  0  0  0
   16.0020   32.8940   72.5100 C   0  0  0  0  0  3  0  0  0  0  0  0
   14.8470   32.4510   71.8890 C   0  0  0  0  0  0  0  0  0  0  0  0
   13.9990   30.8660   72.4990 Br  0  0  0  0  0  0  0  0  0  0  0  0
   14.3640   33.2030   70.8350 C   0  0  0  0  0  3  0  0  0  0  0  0
   15.0400   34.3560   70.4410 C   0  0  0  0  0  3  0  0  0  0  0  0
  1 15  1  6  0  0  0
  1  5  1  0  0  0  0
  2  1  1  0  0  0  0
  3  2  1  0  0  0  0
  3  4  1  0  0  0  0
  4  6  1  0  0  0  0
  4  5  1  1  0  0  0
  6  7  2  0  0  0  0
  8 12  1  0  0  0  0
  8  6  1  0  0  0  0
  9 10  1  6  0  0  0
  9  8  1  0  0  0  0
 10 11  1  0  0  0  0
 11 12  1  0  0  0  0
 13  9  1  0  0  0  0
 13  3  1  0  0  0  0
 14 13  2  0  0  0  0
 15 18  1  0  0  0  0
 15 16  1  0  0  0  0
 16 19  1  0  0  0  0
 17 16  2  0  0  0  0
 19 20  1  0  0  0  0
 20 21  2  0  0  0  0
 22 23  1  0  0  0  0
 22 21  1  0  0  0  0
 24 22  2  0  0  0  0
 25 24  1  0  0  0  0
 25 19  2  0  0  0  0
M  END
>  <Pose>
1

>  <Score>
-8.680

$$$$
