/Users/jonathanwahrer/Desktop/Msc/3_Semester/Drug_Design_Praktikum/waehrer_HTS_screening/HTS_experiment/out/docking_results/vina_output/4x21/0257_docked.pdbqt
 OpenBabel03212201283D

 31 34  0  0  1  0  0  0  0  0999 V2000
   20.9990   34.5790   70.3570 C   0  0  2  0  0  3  0  0  0  0  0  0
   21.4420   34.3300   68.9480 C   0  0  2  0  0  3  0  0  0  0  0  0
   22.7060   33.6420   69.1770 N   0  0  0  0  0  0  0  0  0  0  0  0
   22.4410   32.7720   70.2960 C   0  0  0  0  0  0  0  0  0  0  0  0
   23.0590   31.7200   70.5290 O   0  0  0  0  0  0  0  0  0  0  0  0
   21.3390   33.3590   71.0730 C   0  0  0  0  0  0  0  0  0  0  0  0
   20.8030   32.9080   72.1200 O   0  0  0  0  0  0  0  0  0  0  0  0
   20.4030   35.6350   70.8500 C   0  0  2  0  0  3  0  0  0  0  0  0
   21.1680   36.5570   71.5900 O   0  0  0  0  0  1  0  0  0  0  0  0
   18.9820   35.8380   70.6310 C   0  0  0  0  0  0  0  0  0  0  0  0
   18.5440   36.9840   69.9560 C   0  0  0  0  0  3  0  0  0  0  0  0
   17.2000   37.2180   69.7600 C   0  0  0  0  0  3  0  0  0  0  0  0
   16.2270   36.3520   70.2090 C   0  0  0  0  0  0  0  0  0  0  0  0
   14.3630   36.6530   69.9490 Br  0  0  0  0  0  0  0  0  0  0  0  0
   16.6370   35.2160   70.8750 C   0  0  0  0  0  3  0  0  0  0  0  0
   17.9960   34.9810   71.0730 C   0  0  0  0  0  3  0  0  0  0  0  0
   21.6020   35.6090   68.2130 C   0  0  0  0  0  0  0  0  0  0  0  0
   22.5980   36.4280   68.5870 N   0  0  0  0  0  0  0  0  0  0  0  0
   22.8460   37.5980   67.9930 C   0  0  0  0  0  3  0  0  0  0  0  0
   22.0380   37.9770   66.9480 C   0  0  0  0  0  3  0  0  0  0  0  0
   21.0060   37.1690   66.5310 C   0  0  0  0  0  3  0  0  0  0  0  0
   20.7940   35.9770   67.1740 C   0  0  0  0  0  3  0  0  0  0  0  0
   23.9250   33.7970   68.4370 C   0  0  0  0  0  2  0  0  0  0  0  0
   23.7830   33.3320   66.9960 C   0  0  0  0  0  2  0  0  0  0  0  0
   25.1410   33.5070   66.3170 C   0  0  0  0  0  2  0  0  0  0  0  0
   25.2020   34.7380   65.5530 N   0  0  0  0  0  0  0  0  0  0  0  0
   24.1670   35.5270   65.1810 C   0  0  0  0  0  2  0  0  0  0  0  0
   24.6450   36.5730   64.4860 N   0  0  0  0  0  0  0  0  0  0  0  0
   25.9800   36.4810   64.3980 C   0  0  0  0  0  3  0  0  0  0  0  0
   24.0750   37.3590   64.0650 H   0  0  0  0  0  0  0  0  0  0  0  0
   26.3090   35.3230   65.0730 C   0  0  0  0  0  3  0  0  0  0  0  0
  1  8  1  6  0  0  0
  1  6  1  0  0  0  0
  2 17  1  6  0  0  0
  2  3  1  0  0  0  0
  2  1  1  0  0  0  0
  3  4  1  0  0  0  0
  4  5  2  0  0  0  0
  4  6  1  0  0  0  0
  6  7  2  0  0  0  0
  8  9  1  1  0  0  0
 10  8  1  0  0  0  0
 10 16  1  0  0  0  0
 11 10  2  0  0  0  0
 12 11  1  0  0  0  0
 12 13  2  0  0  0  0
 13 15  1  0  0  0  0
 14 13  1  0  0  0  0
 15 16  2  0  0  0  0
 17 18  1  0  0  0  0
 19 18  2  0  0  0  0
 20 19  1  0  0  0  0
 21 20  2  0  0  0  0
 21 22  1  0  0  0  0
 22 17  2  0  0  0  0
 23  3  1  0  0  0  0
 24 23  1  0  0  0  0
 25 24  1  0  0  0  0
 26 25  1  0  0  0  0
 27 26  1  0  0  0  0
 28 27  1  0  0  0  0
 29 28  1  0  0  0  0
 29 31  2  0  0  0  0
 30 28  1  0  0  0  0
 31 26  1  0  0  0  0
M  END
>  <Pose>
1

>  <Score>
-8.108

$$$$
