/Users/jonathanwahrer/Desktop/Msc/3_Semester/Drug_Design_Praktikum/waehrer_HTS_screening/HTS_experiment/out/docking_results/vina_output/4x21/0263_docked.pdbqt
 OpenBabel03212201293D

 34 37  0  0  1  0  0  0  0  0999 V2000
   20.5210   34.4650   70.4610 C   0  0  0  0  0  0  0  0  0  0  0  0
   20.4070   35.5760   69.7820 C   0  0  0  0  0  0  0  0  0  0  0  0
   21.4900   36.2900   69.0150 C   0  0  2  0  0  3  0  0  0  0  0  0
   20.7850   36.8900   67.9350 N   0  0  0  0  0  0  0  0  0  0  0  0
   19.4430   37.1650   68.4030 C   0  0  0  0  0  0  0  0  0  0  0  0
   18.6150   37.9700   67.9140 O   0  0  0  0  0  0  0  0  0  0  0  0
   19.1930   36.3340   69.5760 C   0  0  0  0  0  0  0  0  0  0  0  0
   18.1070   36.3120   70.2480 O   0  0  0  0  0  0  0  0  0  0  0  0
   21.7830   33.8330   70.4950 O   0  0  0  0  0  1  0  0  0  0  0  0
   19.3840   33.8920   71.1630 C   0  0  0  0  0  0  0  0  0  0  0  0
   18.6470   32.9480   70.4490 C   0  0  0  0  0  3  0  0  0  0  0  0
   17.5850   32.3090   71.0240 C   0  0  0  0  0  3  0  0  0  0  0  0
   17.2520   32.6140   72.3240 C   0  0  0  0  0  0  0  0  0  0  0  0
   15.7510   31.6970   73.1010 Br  0  0  0  0  0  0  0  0  0  0  0  0
   17.9770   33.5460   73.0360 C   0  0  0  0  0  3  0  0  0  0  0  0
   19.0470   34.1830   72.4440 C   0  0  0  0  0  3  0  0  0  0  0  0
   22.5960   35.3960   68.6990 C   0  0  0  0  0  0  0  0  0  0  0  0
   23.8450   35.4340   69.2600 C   0  0  0  0  0  3  0  0  0  0  0  0
   24.8320   34.5480   68.9140 C   0  0  0  0  0  0  0  0  0  0  0  0
   24.5750   33.5870   67.9740 C   0  0  0  0  0  3  0  0  0  0  0  0
   23.3260   33.4980   67.3690 C   0  0  0  0  0  3  0  0  0  0  0  0
   22.3610   34.3990   67.7390 C   0  0  0  0  0  3  0  0  0  0  0  0
   26.0950   34.6450   69.5320 N   0  0  0  0  0  0  0  0  0  0  0  0
   26.8300   35.6570   69.4020 O   0  0  0  0  0  0  0  0  0  0  0  0
   26.5310   33.5910   70.3020 O   0  0  0  0  0  0  0  0  0  0  0  0
   21.1630   37.2820   66.5900 C   0  0  0  0  0  2  0  0  0  0  0  0
   22.0530   38.4790   66.4940 C   0  0  0  0  0  2  0  0  0  0  0  0
   23.1340   38.3030   65.5370 N   0  0  0  0  0  4  0  0  0  0  0  0
   24.1230   37.3450   66.0420 C   0  0  0  0  0  2  0  0  0  0  0  0
   25.1030   37.1410   64.8780 C   0  0  0  0  0  2  0  0  0  0  0  0
   25.7210   38.3100   64.5050 O   0  0  0  0  0  0  0  0  0  0  0  0
   24.8480   39.3540   64.2400 C   0  0  0  0  0  2  0  0  0  0  0  0
   23.8390   39.5450   65.3460 C   0  0  0  0  0  2  0  0  0  0  0  0
   22.8380   37.9430   64.6270 H   0  0  0  0  0  0  0  0  0  0  0  0
  1  9  1  0  0  0  0
  1 10  1  0  0  0  0
  2  1  2  0  0  0  0
  3 17  1  6  0  0  0
  3  2  1  0  0  0  0
  4  5  1  0  0  0  0
  4  3  1  0  0  0  0
  5  7  1  0  0  0  0
  6  5  2  0  0  0  0
  7  2  1  0  0  0  0
  7  8  2  0  0  0  0
 10 16  1  0  0  0  0
 11 12  1  0  0  0  0
 11 10  2  0  0  0  0
 12 13  2  0  0  0  0
 13 15  1  0  0  0  0
 13 14  1  0  0  0  0
 16 15  2  0  0  0  0
 17 18  1  0  0  0  0
 19 18  2  0  0  0  0
 19 23  1  0  0  0  0
 20 19  1  0  0  0  0
 21 22  1  0  0  0  0
 21 20  2  0  0  0  0
 22 17  2  0  0  0  0
 23 25  2  0  0  0  0
 24 23  2  0  0  0  0
 26  4  1  0  0  0  0
 27 26  1  0  0  0  0
 28 29  1  0  0  0  0
 28 27  1  0  0  0  0
 30 29  1  0  0  0  0
 31 30  1  0  0  0  0
 32 31  1  0  0  0  0
 32 33  1  0  0  0  0
 33 28  1  0  0  0  0
 34 28  1  0  0  0  0
M  END
>  <Pose>
1

>  <Score>
-8.229

$$$$
