/Users/jonathanwahrer/Desktop/Msc/3_Semester/Drug_Design_Praktikum/waehrer_HTS_screening/HTS_experiment/out/docking_results/vina_output/4x21/0274_docked.pdbqt
 OpenBabel03212201293D

 31 34  0  0  1  0  0  0  0  0999 V2000
   18.0830   32.9680   72.6410 C   0  0  0  0  0  0  0  0  0  0  0  0
   18.7090   33.5250   71.6220 C   0  0  0  0  0  0  0  0  0  0  0  0
   19.1190   34.9420   71.4090 C   0  0  1  0  0  3  0  0  0  0  0  0
   20.3740   34.8100   70.6500 N   0  0  0  0  0  0  0  0  0  0  0  0
   20.1770   33.6820   69.8200 C   0  0  0  0  0  0  0  0  0  0  0  0
   20.8000   33.4570   68.7740 O   0  0  0  0  0  0  0  0  0  0  0  0
   19.1320   32.8470   70.3990 C   0  0  0  0  0  0  0  0  0  0  0  0
   18.6370   31.7630   70.0000 O   0  0  0  0  0  0  0  0  0  0  0  0
   17.7220   33.8050   73.7150 O   0  0  0  0  0  1  0  0  0  0  0  0
   17.7400   31.5590   72.7360 C   0  0  0  0  0  0  0  0  0  0  0  0
   16.5080   31.0900   72.3390 C   0  0  0  0  0  3  0  0  0  0  0  0
   16.1650   29.7520   72.4540 C   0  0  0  0  0  3  0  0  0  0  0  0
   17.0530   28.8380   72.9740 C   0  0  0  0  0  0  0  0  0  0  0  0
   16.5890   26.9840   73.1380 Br  0  0  0  0  0  0  0  0  0  0  0  0
   18.2860   29.2920   73.3760 C   0  0  0  0  0  3  0  0  0  0  0  0
   18.6250   30.6440   73.2570 C   0  0  0  0  0  3  0  0  0  0  0  0
   18.1180   35.7600   70.7210 C   0  0  0  0  0  0  0  0  0  0  0  0
   16.7520   35.4750   70.8390 C   0  0  0  0  0  3  0  0  0  0  0  0
   15.7740   36.1950   70.2270 C   0  0  0  0  0  3  0  0  0  0  0  0
   16.1100   37.2780   69.4350 C   0  0  0  0  0  3  0  0  0  0  0  0
   17.4340   37.5810   69.3000 C   0  0  0  0  0  3  0  0  0  0  0  0
   18.4390   36.8400   69.9290 C   0  0  0  0  0  3  0  0  0  0  0  0
   21.4640   35.7010   70.8140 C   0  0  0  0  0  2  0  0  0  0  0  0
   22.0090   36.3820   69.6260 C   0  0  0  0  0  2  0  0  0  0  0  0
   22.8080   35.5870   68.7460 N   0  0  0  0  0  4  0  0  0  0  0  0
   23.8990   34.9010   69.3450 C   0  0  0  0  0  2  0  0  0  0  0  0
   25.1870   35.5940   68.9550 C   0  0  0  0  0  2  0  0  0  0  0  0
   25.0630   36.9810   68.9570 O   0  0  0  0  0  0  0  0  0  0  0  0
   24.2190   37.4380   67.9620 C   0  0  0  0  0  2  0  0  0  0  0  0
   23.2760   36.3170   67.5880 C   0  0  0  0  0  2  0  0  0  0  0  0
   22.1420   34.8470   68.3650 H   0  0  0  0  0  0  0  0  0  0  0  0
  1 10  1  0  0  0  0
  1  9  1  0  0  0  0
  2  1  2  0  0  0  0
  3 17  1  6  0  0  0
  3  2  1  0  0  0  0
  4 23  1  0  0  0  0
  4  3  1  0  0  0  0
  5  7  1  0  0  0  0
  5  4  1  0  0  0  0
  6  5  2  0  0  0  0
  7  2  1  0  0  0  0
  8  7  2  0  0  0  0
 10 16  1  0  0  0  0
 11 12  1  0  0  0  0
 11 10  2  0  0  0  0
 12 13  2  0  0  0  0
 13 14  1  0  0  0  0
 13 15  1  0  0  0  0
 16 15  2  0  0  0  0
 17 18  1  0  0  0  0
 19 18  2  0  0  0  0
 20 19  1  0  0  0  0
 21 20  2  0  0  0  0
 21 22  1  0  0  0  0
 22 17  2  0  0  0  0
 24 23  1  0  0  0  0
 25 26  1  0  0  0  0
 25 24  1  0  0  0  0
 27 28  1  0  0  0  0
 27 26  1  0  0  0  0
 29 28  1  0  0  0  0
 30 29  1  0  0  0  0
 30 25  1  0  0  0  0
 31 25  1  0  0  0  0
M  END
>  <Pose>
1

>  <Score>
-8.077

$$$$
