/Users/jonathanwahrer/Desktop/Msc/3_Semester/Drug_Design_Praktikum/waehrer_HTS_screening/HTS_experiment/out/docking_results/vina_output/4x21/0289_docked.pdbqt
 OpenBabel03212201303D

 31 34  0  0  0  0  0  0  0  0999 V2000
   17.3560   33.2340   71.7850 C   0  0  0  0  0  0  0  0  0  0  0  0
   16.4850   32.3050   72.2150 N   0  0  0  0  0  0  0  0  0  0  0  0
   15.2250   32.7140   71.9380 C   0  0  0  0  0  0  0  0  0  0  0  0
   15.2880   33.9410   71.3140 C   0  0  0  0  0  0  0  0  0  0  0  0
   16.5860   34.2320   71.2350 N   0  0  0  0  0  0  0  0  0  0  0  0
   14.1490   34.5530   70.9380 N   0  0  0  0  0  0  0  0  0  0  0  0
   12.9470   34.0030   71.1520 C   0  0  0  0  0  0  0  0  0  0  0  0
   11.8920   34.6110   70.7800 O   0  0  0  0  0  0  0  0  0  0  0  0
   12.8630   32.8070   71.7590 N   0  0  0  0  0  0  0  0  0  0  0  0
   13.9770   32.1700   72.1470 C   0  0  0  0  0  0  0  0  0  0  0  0
   13.8960   31.0530   72.7140 O   0  0  0  0  0  0  0  0  0  0  0  0
   14.2560   35.8550   70.2710 C   0  0  0  0  0  1  0  0  0  0  0  0
   11.9140   32.3660   71.9330 H   0  0  0  0  0  0  0  0  0  0  0  0
   18.7600   33.1960   71.8310 N   0  0  0  0  0  0  0  0  0  0  0  0
   19.5340   33.8550   72.8250 C   0  0  0  0  0  2  0  0  0  0  0  0
   20.4080   34.8790   72.1080 C   0  0  0  0  0  2  0  0  0  0  0  0
   20.2970   34.7990   70.7130 N   0  0  0  0  0  0  0  0  0  0  0  0
   20.2640   33.5580   70.0540 C   0  0  0  0  0  2  0  0  0  0  0  0
   19.4940   32.4750   70.8200 C   0  0  0  0  0  2  0  0  0  0  0  0
   19.6970   35.9160   70.0630 C   0  0  0  0  0  2  0  0  0  0  0  0
   20.5230   36.5290   69.0060 C   0  0  0  0  0  0  0  0  0  0  0  0
   21.8670   36.6800   69.2400 C   0  0  0  0  0  3  0  0  0  0  0  0
   22.6850   37.2390   68.2700 C   0  0  0  0  0  3  0  0  0  0  0  0
   22.1650   37.6520   67.0600 C   0  0  0  0  0  0  0  0  0  0  0  0
   23.3030   38.4230   65.7170 Br  0  0  0  0  0  0  0  0  0  0  0  0
   20.8150   37.4920   66.8470 C   0  0  0  0  0  3  0  0  0  0  0  0
   19.9880   36.9370   67.8020 C   0  0  0  0  0  3  0  0  0  0  0  0
   16.7580   31.0760   72.9100 C   0  0  0  0  0  2  0  0  0  0  0  0
   17.0450   29.9350   71.9590 C   0  0  0  0  0  2  0  0  0  0  0  0
   16.2460   28.8270   72.1560 O   0  0  0  0  0  0  0  0  0  0  0  0
   17.0110   27.9380   72.9460 C   0  0  0  0  0  1  0  0  0  0  0  0
  1 14  1  0  0  0  0
  1  2  1  0  0  0  0
  2 28  1  0  0  0  0
  3 10  1  0  0  0  0
  3  2  1  0  0  0  0
  4  3  2  0  0  0  0
  5  4  1  0  0  0  0
  5  1  2  0  0  0  0
  6  7  1  0  0  0  0
  6  4  1  0  0  0  0
  7  9  1  0  0  0  0
  8  7  2  0  0  0  0
  9 13  1  0  0  0  0
  9 10  1  0  0  0  0
 10 11  2  0  0  0  0
 12  6  1  0  0  0  0
 14 15  1  0  0  0  0
 16 15  1  0  0  0  0
 17 16  1  0  0  0  0
 18 17  1  0  0  0  0
 18 19  1  0  0  0  0
 19 14  1  0  0  0  0
 20 17  1  0  0  0  0
 21 22  1  0  0  0  0
 21 20  1  0  0  0  0
 23 22  2  0  0  0  0
 24 23  1  0  0  0  0
 25 24  1  0  0  0  0
 26 24  2  0  0  0  0
 26 27  1  0  0  0  0
 27 21  2  0  0  0  0
 29 30  1  0  0  0  0
 29 28  1  0  0  0  0
 30 31  1  0  0  0  0
M  END
>  <Pose>
1

>  <Score>
-8.393

$$$$
