/Users/jonathanwahrer/Desktop/Msc/3_Semester/Drug_Design_Praktikum/waehrer_HTS_screening/HTS_experiment/out/docking_results/vina_output/4x21/0293_docked.pdbqt
 OpenBabel03212201303D

 27 30  0  0  0  0  0  0  0  0999 V2000
   16.6300   37.4950   69.4550 C   0  0  0  0  0  3  0  0  0  0  0  0
   15.9040   36.4730   69.9240 C   0  0  0  0  0  0  0  0  0  0  0  0
   16.4490   35.2530   70.2900 O   0  0  0  0  0  0  0  0  0  0  0  0
   15.4740   34.3710   70.7430 C   0  0  0  0  0  0  0  0  0  0  0  0
   14.2700   35.0040   70.6780 C   0  0  0  0  0  0  0  0  0  0  0  0
   13.1230   34.3470   71.0730 C   0  0  0  0  0  3  0  0  0  0  0  0
   13.2520   33.0590   71.5220 C   0  0  0  0  0  3  0  0  0  0  0  0
   14.4900   32.4060   71.5900 C   0  0  0  0  0  0  0  0  0  0  0  0
   15.6420   33.0410   71.2000 C   0  0  0  0  0  0  0  0  0  0  0  0
   14.5350   31.0920   72.0590 O   0  0  0  0  0  1  0  0  0  0  0  0
   14.4900   36.3600   70.1570 C   0  0  0  0  0  0  0  0  0  0  0  0
   13.6430   37.2650   69.9450 O   0  0  0  0  0  0  0  0  0  0  0  0
   18.0750   37.3460   69.3110 C   0  0  0  0  0  0  0  0  0  0  0  0
   18.6640   37.4060   68.0590 C   0  0  0  0  0  3  0  0  0  0  0  0
   20.0280   37.2650   67.8880 C   0  0  0  0  0  3  0  0  0  0  0  0
   20.8620   37.0580   68.9620 C   0  0  0  0  0  0  0  0  0  0  0  0
   22.7600   36.8660   68.7230 Br  0  0  0  0  0  0  0  0  0  0  0  0
   20.2930   36.9950   70.2170 C   0  0  0  0  0  3  0  0  0  0  0  0
   18.9130   37.1380   70.3840 C   0  0  0  0  0  3  0  0  0  0  0  0
   17.0020   32.4900   71.2120 C   0  0  0  0  0  2  0  0  0  0  0  0
   18.0710   33.3420   71.5640 N   0  0  0  0  0  4  0  0  0  0  0  0
   18.2990   33.3830   72.9940 C   0  0  0  0  0  2  0  0  0  0  0  0
   19.2230   32.2460   73.3910 C   0  0  0  0  0  2  0  0  0  0  0  0
   20.5180   32.6130   73.0610 O   0  0  0  0  0  0  0  0  0  0  0  0
   20.4640   33.3640   71.8820 C   0  0  0  0  0  2  0  0  0  0  0  0
   19.3390   32.8570   70.9930 C   0  0  0  0  0  2  0  0  0  0  0  0
   17.9600   34.2970   71.1670 H   0  0  0  0  0  0  0  0  0  0  0  0
  1  2  2  0  0  0  0
  2 11  1  0  0  0  0
  2  3  1  0  0  0  0
  3  4  1  0  0  0  0
  4  9  1  0  0  0  0
  5  4  2  0  0  0  0
  5  6  1  0  0  0  0
  6  7  2  0  0  0  0
  7  8  1  0  0  0  0
  8 10  1  0  0  0  0
  9 20  1  0  0  0  0
  9  8  2  0  0  0  0
 11  5  1  0  0  0  0
 12 11  2  0  0  0  0
 13  1  1  0  0  0  0
 13 19  1  0  0  0  0
 14 13  2  0  0  0  0
 15 14  1  0  0  0  0
 15 16  2  0  0  0  0
 16 18  1  0  0  0  0
 17 16  1  0  0  0  0
 18 19  2  0  0  0  0
 20 21  1  0  0  0  0
 21 22  1  0  0  0  0
 22 23  1  0  0  0  0
 24 23  1  0  0  0  0
 25 24  1  0  0  0  0
 26 21  1  0  0  0  0
 26 25  1  0  0  0  0
 27 21  1  0  0  0  0
M  END
>  <Pose>
1

>  <Score>
-9.295

$$$$
