/Users/jonathanwahrer/Desktop/Msc/3_Semester/Drug_Design_Praktikum/waehrer_HTS_screening/HTS_experiment/out/docking_results/vina_output/4x21/0302_docked.pdbqt
 OpenBabel03212201313D

 29 33  0  0  1  0  0  0  0  0999 V2000
   16.3310   32.0990   72.1710 C   0  0  0  0  0  0  0  0  0  0  0  0
   17.5520   32.5210   71.7840 N   0  0  0  0  0  0  0  0  0  0  0  0
   17.4750   33.7830   71.2930 C   0  0  1  0  0  3  0  0  0  0  0  0
   16.1940   34.1840   71.3630 N   0  0  0  0  0  0  0  0  0  0  0  0
   15.4910   33.1590   71.8970 C   0  0  0  0  0  3  0  0  0  0  0  0
   16.1700   35.4370   70.8680 C   0  0  0  0  0  0  0  0  0  0  0  0
   17.4380   35.8220   70.4870 C   0  0  0  0  0  0  0  0  0  0  0  0
   17.6980   37.0730   69.9400 C   0  0  0  0  0  3  0  0  0  0  0  0
   16.6670   37.9670   69.7680 C   0  0  0  0  0  3  0  0  0  0  0  0
   15.4030   37.5740   70.1520 C   0  0  0  0  0  3  0  0  0  0  0  0
   15.1160   36.3400   70.6960 C   0  0  0  0  0  3  0  0  0  0  0  0
   18.2350   34.7570   70.7680 N   0  0  0  0  0  0  0  0  0  0  0  0
   18.4370   31.9770   71.8410 H   0  0  0  0  0  0  0  0  0  0  0  0
   19.6600   34.7650   70.5100 C   0  0  0  0  0  2  0  0  0  0  0  0
   20.4590   34.5400   71.7750 C   0  0  0  0  0  2  0  0  0  0  0  0
   21.5720   33.6720   71.5150 N   0  0  0  0  0  4  0  0  0  0  0  0
   22.3570   34.1770   70.4070 C   0  0  0  0  0  2  0  0  0  0  0  0
   22.7380   33.0970   69.4240 C   0  0  0  0  0  2  0  0  0  0  0  0
   23.3190   32.0360   70.1220 O   0  0  0  0  0  0  0  0  0  0  0  0
   22.4700   31.5080   71.0710 C   0  0  0  0  0  2  0  0  0  0  0  0
   21.2090   32.3190   71.2180 C   0  0  0  0  0  2  0  0  0  0  0  0
   22.2180   33.6450   72.3440 H   0  0  0  0  0  0  0  0  0  0  0  0
   15.9980   30.8010   72.7480 C   0  0  0  0  0  0  0  0  0  0  0  0
   14.9910   30.6560   73.6750 C   0  0  0  0  0  3  0  0  0  0  0  0
   14.6740   29.4160   74.2250 C   0  0  0  0  0  3  0  0  0  0  0  0
   15.3740   28.2870   73.8460 C   0  0  0  0  0  0  0  0  0  0  0  0
   14.9450   26.5970   74.5940 Br  0  0  0  0  0  0  0  0  0  0  0  0
   16.3860   28.4190   72.9180 C   0  0  0  0  0  3  0  0  0  0  0  0
   16.6910   29.6710   72.3770 C   0  0  0  0  0  3  0  0  0  0  0  0
  1 23  1  0  0  0  0
  2 13  1  0  0  0  0
  2  1  1  0  0  0  0
  3 12  1  1  0  0  0
  3  4  1  0  0  0  0
  3  2  1  0  0  0  0
  4  5  1  0  0  0  0
  5  1  2  0  0  0  0
  6  4  1  0  0  0  0
  7 12  1  0  0  0  0
  7  6  2  0  0  0  0
  8  7  1  0  0  0  0
  9  8  2  0  0  0  0
  9 10  1  0  0  0  0
 10 11  2  0  0  0  0
 11  6  1  0  0  0  0
 14 12  1  0  0  0  0
 14 15  1  0  0  0  0
 16 15  1  0  0  0  0
 16 22  1  0  0  0  0
 17 16  1  0  0  0  0
 18 19  1  0  0  0  0
 18 17  1  0  0  0  0
 19 20  1  0  0  0  0
 20 21  1  0  0  0  0
 21 16  1  0  0  0  0
 23 24  1  0  0  0  0
 24 25  2  0  0  0  0
 26 25  1  0  0  0  0
 26 27  1  0  0  0  0
 28 26  2  0  0  0  0
 29 23  2  0  0  0  0
 29 28  1  0  0  0  0
M  END
>  <Pose>
1

>  <Score>
-8.233

$$$$
