/Users/jonathanwahrer/Desktop/Msc/3_Semester/Drug_Design_Praktikum/waehrer_HTS_screening/HTS_experiment/out/docking_results/vina_output/4x21/0305_docked.pdbqt
 OpenBabel03212201313D

 27 30  0  0  0  0  0  0  0  0999 V2000
   18.9150   37.2370   68.7420 C   0  0  0  0  0  0  0  0  0  0  0  0
   18.0470   36.6400   69.5480 N   0  0  0  0  0  0  0  0  0  0  0  0
   16.8600   37.2960   69.5440 C   0  0  0  0  0  0  0  0  0  0  0  0
   17.0050   38.3300   68.6940 N   0  0  0  0  0  0  0  0  0  0  0  0
   18.2030   38.3140   68.2080 N   0  0  0  0  0  0  0  0  0  0  0  0
   15.9620   36.7130   70.3470 N   0  0  0  0  0  0  0  0  0  0  0  0
   16.5920   35.6550   70.8690 C   0  0  0  0  0  0  0  0  0  0  0  0
   17.9050   35.5740   70.3840 C   0  0  0  0  0  0  0  0  0  0  0  0
   18.7050   34.5810   70.7370 N   0  0  0  0  0  0  0  0  0  0  0  0
   18.2050   33.6450   71.6020 C   0  0  0  0  0  0  0  0  0  0  0  0
   18.9320   32.6900   71.9650 O   0  0  0  0  0  0  0  0  0  0  0  0
   16.9590   33.6980   72.0880 N   0  0  0  0  0  0  0  0  0  0  0  0
   16.1290   34.6940   71.7360 C   0  0  0  0  0  0  0  0  0  0  0  0
   14.9510   34.7770   72.1720 O   0  0  0  0  0  0  0  0  0  0  0  0
   20.0220   34.3050   70.2250 C   0  0  0  0  0  1  0  0  0  0  0  0
   16.5800   32.9880   72.7470 H   0  0  0  0  0  0  0  0  0  0  0  0
   20.2920   37.0330   68.3350 C   0  0  0  0  0  0  0  0  0  0  0  0
   20.5330   36.7380   66.9920 C   0  0  0  0  0  3  0  0  0  0  0  0
   21.7890   36.6730   66.4740 C   0  0  0  0  0  3  0  0  0  0  0  0
   22.8790   36.9050   67.2870 C   0  0  0  0  0  0  0  0  0  0  0  0
   24.6270   36.8140   66.5630 Br  0  0  0  0  0  0  0  0  0  0  0  0
   22.7070   37.2030   68.6210 C   0  0  0  0  0  3  0  0  0  0  0  0
   21.4170   37.2540   69.0870 C   0  0  0  0  0  3  0  0  0  0  0  0
   14.6040   37.1360   70.6010 C   0  0  0  0  0  2  0  0  0  0  0  0
   13.6520   36.7390   69.4940 C   0  0  0  0  0  2  0  0  0  0  0  0
   12.7930   35.7200   69.8880 O   0  0  0  0  0  0  0  0  0  0  0  0
   13.1660   34.5690   69.1930 C   0  0  0  0  0  1  0  0  0  0  0  0
  1  2  1  0  0  0  0
  2  8  1  0  0  0  0
  3  2  1  0  0  0  0
  3  6  1  0  0  0  0
  4  3  2  0  0  0  0
  5  4  1  0  0  0  0
  5  1  2  0  0  0  0
  6 24  1  0  0  0  0
  6  7  1  0  0  0  0
  7 13  1  0  0  0  0
  8  9  1  0  0  0  0
  8  7  2  0  0  0  0
  9 10  1  0  0  0  0
 10 11  2  0  0  0  0
 10 12  1  0  0  0  0
 12 16  1  0  0  0  0
 13 12  1  0  0  0  0
 13 14  2  0  0  0  0
 15  9  1  0  0  0  0
 17  1  1  0  0  0  0
 17 23  1  0  0  0  0
 18 17  2  0  0  0  0
 19 18  1  0  0  0  0
 19 20  2  0  0  0  0
 20 22  1  0  0  0  0
 21 20  1  0  0  0  0
 22 23  2  0  0  0  0
 25 26  1  0  0  0  0
 25 24  1  0  0  0  0
 27 26  1  0  0  0  0
M  END
>  <Pose>
1

>  <Score>
-7.930

$$$$
