/Users/jonathanwahrer/Desktop/Msc/3_Semester/Drug_Design_Praktikum/waehrer_HTS_screening/HTS_experiment/out/docking_results/vina_output/4x21/0309_docked.pdbqt
 OpenBabel03212201313D

 33 36  0  0  0  0  0  0  0  0999 V2000
   19.6060   36.1960   69.5300 C   0  0  0  0  0  0  0  0  0  0  0  0
   19.4660   35.0780   70.3160 C   0  0  0  0  0  0  0  0  0  0  0  0
   18.3190   34.7290   70.8670 O   0  0  0  0  0  0  0  0  0  0  0  0
   17.2310   35.4340   70.6920 C   0  0  0  0  0  0  0  0  0  0  0  0
   17.3040   36.5460   69.9300 C   0  0  0  0  0  0  0  0  0  0  0  0
   16.1750   37.3080   69.7250 C   0  0  0  0  0  3  0  0  0  0  0  0
   15.0010   36.9070   70.3090 C   0  0  0  0  0  3  0  0  0  0  0  0
   14.9360   35.7460   71.1030 C   0  0  0  0  0  0  0  0  0  0  0  0
   16.0400   34.9770   71.3200 C   0  0  0  0  0  0  0  0  0  0  0  0
   13.6710   35.4990   71.6080 O   0  0  0  0  0  1  0  0  0  0  0  0
   18.4670   36.9770   69.3220 C   0  0  0  0  0  0  0  0  0  0  0  0
   18.5310   37.9940   68.6240 O   0  0  0  0  0  0  0  0  0  0  0  0
   16.1360   33.7800   72.1210 C   0  0  0  0  0  2  0  0  0  0  0  0
   16.0010   32.4830   71.5950 N   0  0  0  0  0  4  0  0  0  0  0  0
   14.6450   32.0720   71.5030 C   0  0  0  0  0  2  0  0  0  0  0  0
   14.3220   30.6320   71.5760 C   0  0  0  0  0  2  0  0  0  0  0  0
   15.3370   29.8530   72.1420 N   0  0  0  0  0  0  0  0  0  0  0  0
   16.6580   30.0840   71.7500 C   0  0  0  0  0  2  0  0  0  0  0  0
   15.0330   28.8670   73.0910 C   0  0  0  0  0  1  0  0  0  0  0  0
   17.0140   31.5320   71.8780 C   0  0  0  0  0  2  0  0  0  0  0  0
   16.2230   32.6850   70.4980 H   0  0  0  0  0  0  0  0  0  0  0  0
   20.6540   34.2430   70.5500 C   0  0  0  0  0  0  0  0  0  0  0  0
   21.1680   34.2590   71.6970 O   0  0  0  0  0  0  0  0  0  0  0  0
   21.2250   33.4570   69.5970 O   0  0  0  0  0  0  0  0  0  0  0  0
   22.6080   33.2000   69.6140 C   0  0  0  0  0  2  0  0  0  0  0  0
   23.1580   33.3790   68.2260 C   0  0  0  0  0  1  0  0  0  0  0  0
   20.8720   36.5180   68.9280 C   0  0  0  0  0  0  0  0  0  0  0  0
   21.9790   36.9400   69.6600 C   0  0  0  0  0  3  0  0  0  0  0  0
   23.1970   37.2360   69.0880 C   0  0  0  0  0  3  0  0  0  0  0  0
   23.3440   37.1160   67.7370 C   0  0  0  0  0  0  0  0  0  0  0  0
   25.0420   37.5260   66.9600 Br  0  0  0  0  0  0  0  0  0  0  0  0
   22.2770   36.7020   66.9670 C   0  0  0  0  0  3  0  0  0  0  0  0
   21.0460   36.4070   67.5740 C   0  0  0  0  0  3  0  0  0  0  0  0
  1  2  2  0  0  0  0
  2 22  1  0  0  0  0
  2  3  1  0  0  0  0
  4  3  1  0  0  0  0
  4  9  1  0  0  0  0
  5  4  2  0  0  0  0
  6  5  1  0  0  0  0
  6  7  2  0  0  0  0
  7  8  1  0  0  0  0
  8  9  2  0  0  0  0
  8 10  1  0  0  0  0
  9 13  1  0  0  0  0
 11  1  1  0  0  0  0
 11  5  1  0  0  0  0
 12 11  2  0  0  0  0
 14 20  1  0  0  0  0
 14 13  1  0  0  0  0
 15 16  1  0  0  0  0
 15 14  1  0  0  0  0
 16 17  1  0  0  0  0
 17 19  1  0  0  0  0
 18 20  1  0  0  0  0
 18 17  1  0  0  0  0
 21 14  1  0  0  0  0
 22 23  2  0  0  0  0
 24 25  1  0  0  0  0
 24 22  1  0  0  0  0
 26 25  1  0  0  0  0
 27  1  1  0  0  0  0
 27 28  1  0  0  0  0
 29 28  2  0  0  0  0
 30 29  1  0  0  0  0
 31 30  1  0  0  0  0
 32 33  1  0  0  0  0
 32 30  2  0  0  0  0
 33 27  2  0  0  0  0
M  END
>  <Pose>
1

>  <Score>
-8.858

$$$$
