/Users/jonathanwahrer/Desktop/Msc/3_Semester/Drug_Design_Praktikum/waehrer_HTS_screening/HTS_experiment/out/docking_results/vina_output/4x21/0346_docked.pdbqt
 OpenBabel03212201323D

 35 38  0  0  1  0  0  0  0  0999 V2000
   15.0150   35.0820   71.6520 C   0  0  2  0  0  3  0  0  0  0  0  0
   13.8990   34.2570   71.2760 N   0  0  0  0  0  0  0  0  0  0  0  0
   13.1860   34.8250   70.1940 C   0  0  0  0  0  0  0  0  0  0  0  0
   12.1410   34.3840   69.6230 O   0  0  0  0  0  0  0  0  0  0  0  0
   13.8550   36.0800   69.7840 C   0  0  0  0  0  0  0  0  0  0  0  0
   13.4760   36.8300   68.8560 O   0  0  0  0  0  0  0  0  0  0  0  0
   14.9890   36.2180   70.6720 C   0  0  1  0  0  3  0  0  0  0  0  0
   15.8170   37.2380   70.6190 C   0  0  1  0  0  3  0  0  0  0  0  0
   15.4840   38.3910   71.3600 O   0  0  0  0  0  1  0  0  0  0  0  0
   17.0520   37.2940   69.8780 C   0  0  0  0  0  0  0  0  0  0  0  0
   18.2570   36.8300   70.2750 C   0  0  0  0  0  3  0  0  0  0  0  0
   19.3570   36.9170   69.4480 C   0  0  0  0  0  0  0  0  0  0  0  0
   19.3100   37.4690   68.1860 C   0  0  0  0  0  0  0  0  0  0  0  0
   20.6730   36.3860   69.9350 C   0  0  0  0  0  1  0  0  0  0  0  0
   18.0680   37.9370   67.8040 C   0  0  0  0  0  3  0  0  0  0  0  0
   16.9580   37.8660   68.6000 C   0  0  0  0  0  3  0  0  0  0  0  0
   20.4220   37.5540   67.3580 O   0  0  0  0  0  0  0  0  0  0  0  0
   20.6190   36.5930   66.3310 C   0  0  0  0  0  1  0  0  0  0  0  0
   16.2940   34.3680   71.6380 C   0  0  0  0  0  0  0  0  0  0  0  0
   17.0560   34.2590   72.7820 C   0  0  0  0  0  3  0  0  0  0  0  0
   18.2780   33.5800   72.7710 C   0  0  0  0  0  3  0  0  0  0  0  0
   18.7530   33.0030   71.6140 C   0  0  0  0  0  0  0  0  0  0  0  0
   20.4380   32.0810   71.6370 Br  0  0  0  0  0  0  0  0  0  0  0  0
   18.0030   33.1080   70.4750 C   0  0  0  0  0  3  0  0  0  0  0  0
   16.8040   33.7790   70.5030 C   0  0  0  0  0  3  0  0  0  0  0  0
   13.5640   33.0110   71.9410 C   0  0  0  0  0  2  0  0  0  0  0  0
   13.9320   31.7900   71.1440 C   0  0  0  0  0  2  0  0  0  0  0  0
   13.6590   30.5280   71.9030 C   0  0  0  0  0  2  0  0  0  0  0  0
   14.8340   29.7360   72.1270 N   0  0  0  0  0  4  0  0  0  0  0  0
   14.7990   28.9950   73.3710 C   0  0  0  0  0  2  0  0  0  0  0  0
   15.9860   28.0270   73.3410 C   0  0  0  0  0  2  0  0  0  0  0  0
   16.8400   28.3300   72.2900 O   0  0  0  0  0  0  0  0  0  0  0  0
   17.2120   29.6910   72.3400 C   0  0  0  0  0  2  0  0  0  0  0  0
   16.0020   30.5630   72.0200 C   0  0  0  0  0  2  0  0  0  0  0  0
   14.8980   29.0070   71.3550 H   0  0  0  0  0  0  0  0  0  0  0  0
  1 19  1  6  0  0  0
  2  1  1  0  0  0  0
  2 26  1  0  0  0  0
  3  2  1  0  0  0  0
  4  3  2  0  0  0  0
  5  3  1  0  0  0  0
  5  7  1  0  0  0  0
  6  5  2  0  0  0  0
  7  8  1  1  0  0  0
  7  1  1  0  0  0  0
  8  9  1  1  0  0  0
 10 11  1  0  0  0  0
 10  8  1  0  0  0  0
 12 14  1  0  0  0  0
 12 11  2  0  0  0  0
 13 12  1  0  0  0  0
 15 13  2  0  0  0  0
 15 16  1  0  0  0  0
 16 10  2  0  0  0  0
 17 13  1  0  0  0  0
 18 17  1  0  0  0  0
 19 20  1  0  0  0  0
 21 20  2  0  0  0  0
 22 23  1  0  0  0  0
 22 21  1  0  0  0  0
 24 25  1  0  0  0  0
 24 22  2  0  0  0  0
 25 19  2  0  0  0  0
 27 28  1  0  0  0  0
 27 26  1  0  0  0  0
 28 29  1  0  0  0  0
 29 30  1  0  0  0  0
 31 30  1  0  0  0  0
 32 33  1  0  0  0  0
 32 31  1  0  0  0  0
 34 29  1  0  0  0  0
 34 33  1  0  0  0  0
 35 29  1  0  0  0  0
M  END
>  <Pose>
1

>  <Score>
-9.483

$$$$
