/Users/jonathanwahrer/Desktop/Msc/3_Semester/Drug_Design_Praktikum/waehrer_HTS_screening/HTS_experiment/out/docking_results/vina_output/4x21/0347_docked.pdbqt
 OpenBabel03212201333D

 34 37  0  0  1  0  0  0  0  0999 V2000
   19.8440   32.3610   71.4590 C   0  0  2  0  0  3  0  0  0  0  0  0
   20.4720   33.6560   71.6270 N   0  0  0  0  0  0  0  0  0  0  0  0
   19.6790   34.3670   72.5800 C   0  0  0  0  0  0  0  0  0  0  0  0
   20.0610   35.2950   73.3340 O   0  0  0  0  0  0  0  0  0  0  0  0
   18.3410   33.7920   72.4920 C   0  0  0  0  0  0  0  0  0  0  0  0
   17.3020   34.0880   73.1340 O   0  0  0  0  0  0  0  0  0  0  0  0
   18.3840   32.7440   71.4770 C   0  0  0  0  0  0  0  0  0  0  0  0
   17.3730   32.2570   70.8000 C   0  0  0  0  0  0  0  0  0  0  0  0
   17.6720   31.2070   69.9130 O   0  0  0  0  0  1  0  0  0  0  0  0
   21.6840   34.1610   70.9600 C   0  0  0  0  0  2  0  0  0  0  0  0
   21.5440   34.0360   69.4350 C   0  0  0  0  0  2  0  0  0  0  0  0
   20.4220   34.9190   68.9690 C   0  0  0  0  0  2  0  0  0  0  0  0
   20.6990   36.2790   69.3620 N   0  0  0  0  0  4  0  0  0  0  0  0
   19.5930   36.9490   69.9710 C   0  0  0  0  0  2  0  0  0  0  0  0
   18.5150   37.3030   69.0040 C   0  0  0  0  0  2  0  0  0  0  0  0
   19.0150   38.0650   67.9630 O   0  0  0  0  0  0  0  0  0  0  0  0
   19.9700   37.2970   67.2960 C   0  0  0  0  0  2  0  0  0  0  0  0
   21.1380   37.0920   68.2410 C   0  0  0  0  0  2  0  0  0  0  0  0
   21.4950   36.2670   70.0410 H   0  0  0  0  0  0  0  0  0  0  0  0
   20.1770   31.4640   72.5570 C   0  0  0  0  0  0  0  0  0  0  0  0
   21.4530   31.4210   73.0620 C   0  0  0  0  0  3  0  0  0  0  0  0
   21.7900   30.5560   74.1070 C   0  0  0  0  0  3  0  0  0  0  0  0
   20.8400   29.7250   74.6510 C   0  0  0  0  0  0  0  0  0  0  0  0
   21.3050   28.5440   76.0760 Br  0  0  0  0  0  0  0  0  0  0  0  0
   19.5630   29.7580   74.1560 C   0  0  0  0  0  3  0  0  0  0  0  0
   19.2470   30.6210   73.1220 C   0  0  0  0  0  3  0  0  0  0  0  0
   16.0060   32.7530   70.9260 C   0  0  0  0  0  0  0  0  0  0  0  0
   15.5530   33.9220   70.3580 C   0  0  0  0  0  3  0  0  0  0  0  0
   14.2650   34.4090   70.4910 C   0  0  0  0  0  0  0  0  0  0  0  0
   13.3720   33.6900   71.2320 C   0  0  0  0  0  3  0  0  0  0  0  0
   13.7860   32.5000   71.8240 C   0  0  0  0  0  3  0  0  0  0  0  0
   15.0790   32.0460   71.6710 C   0  0  0  0  0  3  0  0  0  0  0  0
   13.9850   35.5960   69.8530 O   0  0  0  0  0  0  0  0  0  0  0  0
   14.5700   36.8350   70.0670 C   0  0  0  0  0  1  0  0  0  0  0  0
  1  7  1  0  0  0  0
  1  2  1  0  0  0  0
  1 20  1  1  0  0  0
  2  3  1  0  0  0  0
  3  4  2  0  0  0  0
  5  3  1  0  0  0  0
  5  6  2  0  0  0  0
  7  5  1  0  0  0  0
  8 27  1  0  0  0  0
  8  7  2  0  0  0  0
  9  8  1  0  0  0  0
 10  2  1  0  0  0  0
 11 10  1  0  0  0  0
 12 13  1  0  0  0  0
 12 11  1  0  0  0  0
 13 14  1  0  0  0  0
 13 19  1  0  0  0  0
 15 14  1  0  0  0  0
 16 15  1  0  0  0  0
 17 16  1  0  0  0  0
 17 18  1  0  0  0  0
 18 13  1  0  0  0  0
 20 21  2  0  0  0  0
 20 26  1  0  0  0  0
 21 22  1  0  0  0  0
 22 23  2  0  0  0  0
 23 24  1  0  0  0  0
 25 23  1  0  0  0  0
 26 25  2  0  0  0  0
 27 32  1  0  0  0  0
 28 29  1  0  0  0  0
 28 27  2  0  0  0  0
 29 30  2  0  0  0  0
 30 31  1  0  0  0  0
 32 31  2  0  0  0  0
 33 34  1  0  0  0  0
 33 29  1  0  0  0  0
M  END
>  <Pose>
1

>  <Score>
-7.803

$$$$
