/Users/jonathanwahrer/Desktop/Msc/3_Semester/Drug_Design_Praktikum/waehrer_HTS_screening/HTS_experiment/out/docking_results/vina_output/4x21/0349_docked.pdbqt
 OpenBabel03212201333D

 32 35  0  0  1  0  0  0  0  0999 V2000
   15.8090   31.8040   72.9730 C   0  0  1  0  0  3  0  0  0  0  0  0
   14.4900   31.6830   72.5230 N   0  0  0  0  0  0  0  0  0  0  0  0
   13.8430   30.8680   73.5730 C   0  0  0  0  0  0  0  0  0  0  0  0
   12.6330   30.9080   73.9300 O   0  0  0  0  0  0  0  0  0  0  0  0
   14.9200   30.0180   74.0890 C   0  0  0  0  0  0  0  0  0  0  0  0
   14.8560   29.1350   74.9990 O   0  0  0  0  0  0  0  0  0  0  0  0
   16.1240   30.3910   73.3230 C   0  0  0  0  0  0  0  0  0  0  0  0
   17.1480   29.6280   73.0130 C   0  0  0  0  0  0  0  0  0  0  0  0
   18.1770   30.1190   72.2180 O   0  0  0  0  0  1  0  0  0  0  0  0
   13.6700   32.1440   71.4130 C   0  0  0  0  0  2  0  0  0  0  0  0
   13.1730   33.5590   71.5640 C   0  0  0  0  0  2  0  0  0  0  0  0
   13.8400   34.4980   70.7230 N   0  0  0  0  0  4  0  0  0  0  0  0
   14.6460   35.4020   71.5210 C   0  0  0  0  0  2  0  0  0  0  0  0
   15.3660   36.3490   70.5970 C   0  0  0  0  0  2  0  0  0  0  0  0
   14.3830   37.1890   70.0490 O   0  0  0  0  0  0  0  0  0  0  0  0
   13.5470   36.4110   69.2830 C   0  0  0  0  0  2  0  0  0  0  0  0
   12.8250   35.3590   70.0840 C   0  0  0  0  0  2  0  0  0  0  0  0
   14.4020   34.0550   69.9810 H   0  0  0  0  0  0  0  0  0  0  0  0
   16.8340   32.6350   72.4680 C   0  0  0  0  0  0  0  0  0  0  0  0
   17.6330   33.3120   73.4020 C   0  0  0  0  0  3  0  0  0  0  0  0
   18.6450   34.1490   73.0270 C   0  0  0  0  0  3  0  0  0  0  0  0
   18.9230   34.3640   71.6940 C   0  0  0  0  0  0  0  0  0  0  0  0
   20.3350   35.5310   71.1360 Br  0  0  0  0  0  0  0  0  0  0  0  0
   18.1430   33.7040   70.7760 C   0  0  0  0  0  3  0  0  0  0  0  0
   17.1100   32.8500   71.1650 C   0  0  0  0  0  3  0  0  0  0  0  0
   17.2830   28.2550   73.4740 C   0  0  0  0  0  0  0  0  0  0  0  0
   17.8820   27.8510   74.6260 C   0  0  0  0  0  3  0  0  0  0  0  0
   17.9040   26.5070   74.9730 C   0  0  0  0  0  3  0  0  0  0  0  0
   17.3190   25.5660   74.1560 C   0  0  0  0  0  0  0  0  0  0  0  0
   16.7030   25.9340   72.9830 C   0  0  0  0  0  3  0  0  0  0  0  0
   17.3230   24.1120   74.4960 C   0  0  0  0  0  1  0  0  0  0  0  0
   16.6940   27.2830   72.6570 C   0  0  0  0  0  3  0  0  0  0  0  0
  1 19  1  6  0  0  0
  1  7  1  0  0  0  0
  2  1  1  0  0  0  0
  2  3  1  0  0  0  0
  3  4  2  0  0  0  0
  3  5  1  0  0  0  0
  5  6  2  0  0  0  0
  7  5  1  0  0  0  0
  8  7  2  0  0  0  0
  8 26  1  0  0  0  0
  9  8  1  0  0  0  0
 10 11  1  0  0  0  0
 10  2  1  0  0  0  0
 12 13  1  0  0  0  0
 12 11  1  0  0  0  0
 14 13  1  0  0  0  0
 15 14  1  0  0  0  0
 16 15  1  0  0  0  0
 16 17  1  0  0  0  0
 17 12  1  0  0  0  0
 18 12  1  0  0  0  0
 19 20  1  0  0  0  0
 21 20  2  0  0  0  0
 22 21  1  0  0  0  0
 23 22  1  0  0  0  0
 24 25  1  0  0  0  0
 24 22  2  0  0  0  0
 25 19  2  0  0  0  0
 26 27  1  0  0  0  0
 27 28  2  0  0  0  0
 29 31  1  0  0  0  0
 29 28  1  0  0  0  0
 30 29  2  0  0  0  0
 32 30  1  0  0  0  0
 32 26  2  0  0  0  0
M  END
>  <Pose>
1

>  <Score>
-8.347

$$$$
