/Users/jonathanwahrer/Desktop/Msc/3_Semester/Drug_Design_Praktikum/waehrer_HTS_screening/HTS_experiment/out/docking_results/vina_output/4x21/0361_docked.pdbqt
 OpenBabel03212201343D

 33 36  0  0  1  0  0  0  0  0999 V2000
   16.6520   32.8550   72.7640 C   0  0  1  0  0  3  0  0  0  0  0  0
   16.1290   31.4770   72.7050 N   0  0  0  0  0  0  0  0  0  0  0  0
   16.5270   31.0000   71.4250 C   0  0  0  0  0  0  0  0  0  0  0  0
   15.9350   30.0780   70.7930 O   0  0  0  0  0  0  0  0  0  0  0  0
   17.7050   31.7440   70.9910 C   0  0  0  0  0  0  0  0  0  0  0  0
   18.3350   31.5970   69.9240 O   0  0  0  0  0  0  0  0  0  0  0  0
   17.9790   32.6790   72.0670 C   0  0  0  0  0  0  0  0  0  0  0  0
   19.1220   33.2240   72.3950 C   0  0  0  0  0  0  0  0  0  0  0  0
   19.2240   34.0660   73.4930 O   0  0  0  0  0  1  0  0  0  0  0  0
   15.8410   33.7600   71.9200 C   0  0  0  0  0  0  0  0  0  0  0  0
   14.5190   33.4940   71.6500 C   0  0  0  0  0  3  0  0  0  0  0  0
   13.7350   34.3410   70.8680 C   0  0  0  0  0  3  0  0  0  0  0  0
   14.2820   35.4930   70.3340 C   0  0  0  0  0  0  0  0  0  0  0  0
   13.2190   36.6740   69.2530 Br  0  0  0  0  0  0  0  0  0  0  0  0
   15.6010   35.7560   70.6050 C   0  0  0  0  0  3  0  0  0  0  0  0
   16.3650   34.9130   71.3780 C   0  0  0  0  0  3  0  0  0  0  0  0
   20.3310   32.9810   71.6320 C   0  0  0  0  0  0  0  0  0  0  0  0
   20.8260   33.5740   70.5260 N   0  0  0  0  0  0  0  0  0  0  0  0
   21.9710   32.9900   70.1440 C   0  0  0  0  0  0  0  0  0  0  0  0
   20.3890   34.6260   69.7880 C   0  0  0  0  0  3  0  0  0  0  0  0
   22.2020   32.0020   71.0350 N   0  0  0  0  0  0  0  0  0  0  0  0
   22.7100   33.4140   69.0380 C   0  0  0  0  0  3  0  0  0  0  0  0
   21.2500   31.9560   71.9460 C   0  0  0  0  0  0  0  0  0  0  0  0
   21.0920   31.0350   73.1170 C   0  0  0  0  0  1  0  0  0  0  0  0
   22.2710   34.4790   68.2850 C   0  0  0  0  0  3  0  0  0  0  0  0
   21.0960   35.0670   68.6940 C   0  0  0  0  0  3  0  0  0  0  0  0
   15.3730   30.8060   73.7300 C   0  0  0  0  0  2  0  0  0  0  0  0
   13.9740   30.4130   73.4610 C   0  0  0  0  0  2  0  0  0  0  0  0
   12.9010   30.7360   74.4230 C   0  0  0  0  0  2  0  0  0  0  0  0
   11.9650   29.7060   74.7600 N   0  0  0  0  0  4  0  0  0  0  0  0
   12.6270   28.8500   75.7850 C   0  0  0  0  0  1  0  0  0  0  0  0
   10.8320   30.2790   75.4570 C   0  0  0  0  0  1  0  0  0  0  0  0
   11.6440   29.1070   74.0000 H   0  0  0  0  0  0  0  0  0  0  0  0
  1 10  1  6  0  0  0
  2  1  1  0  0  0  0
  2 27  1  0  0  0  0
  3  2  1  0  0  0  0
  4  3  2  0  0  0  0
  5  3  1  0  0  0  0
  5  7  1  0  0  0  0
  6  5  2  0  0  0  0
  7  8  2  0  0  0  0
  7  1  1  0  0  0  0
  8  9  1  0  0  0  0
 11 10  1  0  0  0  0
 12 11  2  0  0  0  0
 13 15  2  0  0  0  0
 13 12  1  0  0  0  0
 14 13  1  0  0  0  0
 15 16  1  0  0  0  0
 16 10  2  0  0  0  0
 17 23  2  0  0  0  0
 17  8  1  0  0  0  0
 18 17  1  0  0  0  0
 19 18  1  0  0  0  0
 19 21  2  0  0  0  0
 20 18  1  0  0  0  0
 21 23  1  0  0  0  0
 22 19  1  0  0  0  0
 23 24  1  0  0  0  0
 25 26  1  0  0  0  0
 25 22  2  0  0  0  0
 26 20  2  0  0  0  0
 28 27  1  0  0  0  0
 28 29  1  0  0  0  0
 29 30  1  0  0  0  0
 30 32  1  0  0  0  0
 30 31  1  0  0  0  0
 33 30  1  0  0  0  0
M  END
>  <Pose>
1

>  <Score>
-9.088

$$$$
