/Users/jonathanwahrer/Desktop/Msc/3_Semester/Drug_Design_Praktikum/waehrer_HTS_screening/HTS_experiment/out/docking_results/vina_output/4x21/0362_docked.pdbqt
 OpenBabel03212201343D

 36 40  0  0  1  0  0  0  0  0999 V2000
   20.3840   34.8590   70.9580 C   0  0  2  0  0  3  0  0  0  0  0  0
   20.7100   33.5400   71.3040 N   0  0  0  0  0  0  0  0  0  0  0  0
   19.8690   33.2960   72.4640 C   0  0  0  0  0  0  0  0  0  0  0  0
   20.0700   32.4780   73.4240 O   0  0  0  0  0  0  0  0  0  0  0  0
   18.7060   34.1710   72.3560 C   0  0  0  0  0  0  0  0  0  0  0  0
   17.7030   34.3200   73.1240 O   0  0  0  0  0  0  0  0  0  0  0  0
   18.9070   34.9110   71.1120 C   0  0  0  0  0  0  0  0  0  0  0  0
   18.0040   35.5050   70.3550 C   0  0  0  0  0  0  0  0  0  0  0  0
   18.3990   36.2130   69.2280 O   0  0  0  0  0  1  0  0  0  0  0  0
   20.9080   35.5210   69.8030 C   0  0  0  0  0  0  0  0  0  0  0  0
   20.9210   34.9450   68.5650 C   0  0  0  0  0  3  0  0  0  0  0  0
   21.4550   35.6230   67.4900 C   0  0  0  0  0  3  0  0  0  0  0  0
   21.9900   36.8920   67.6130 C   0  0  0  0  0  0  0  0  0  0  0  0
   22.7290   37.8290   66.1240 Br  0  0  0  0  0  0  0  0  0  0  0  0
   21.9730   37.4670   68.8690 C   0  0  0  0  0  3  0  0  0  0  0  0
   21.4360   36.7740   69.9300 C   0  0  0  0  0  3  0  0  0  0  0  0
   16.5790   35.4550   70.6450 C   0  0  0  0  0  0  0  0  0  0  0  0
   15.8140   34.3670   70.8390 N   0  0  0  0  0  0  0  0  0  0  0  0
   14.5440   34.7380   71.1220 C   0  0  0  0  0  0  0  0  0  0  0  0
   16.0330   33.0210   70.7990 C   0  0  0  0  0  3  0  0  0  0  0  0
   14.5290   36.0810   71.1010 N   0  0  0  0  0  0  0  0  0  0  0  0
   13.5400   33.8230   71.3570 C   0  0  0  0  0  3  0  0  0  0  0  0
   15.7390   36.5560   70.8160 C   0  0  0  0  0  0  0  0  0  0  0  0
   16.2020   37.9630   70.6850 C   0  0  0  0  0  1  0  0  0  0  0  0
   13.7910   32.4720   71.3100 C   0  0  0  0  0  3  0  0  0  0  0  0
   15.0780   32.0770   71.0210 C   0  0  0  0  0  3  0  0  0  0  0  0
   21.5810   32.4880   70.8890 C   0  0  0  0  0  2  0  0  0  0  0  0
   23.0070   32.6550   70.7190 C   0  0  0  0  0  2  0  0  0  0  0  0
   23.5450   32.7480   69.3100 C   0  0  0  0  0  2  0  0  0  0  0  0
   24.6250   33.7260   69.2170 N   0  0  0  0  0  4  0  0  0  0  0  0
   24.8390   34.2350   67.8950 C   0  0  0  0  0  2  0  0  0  0  0  0
   25.7800   33.4240   67.0540 C   0  0  0  0  0  2  0  0  0  0  0  0
   26.0410   32.1790   67.5620 O   0  0  0  0  0  0  0  0  0  0  0  0
   26.4590   32.1520   68.8670 C   0  0  0  0  0  2  0  0  0  0  0  0
   25.8620   33.2170   69.7270 C   0  0  0  0  0  2  0  0  0  0  0  0
   24.3320   34.5400   69.8130 H   0  0  0  0  0  0  0  0  0  0  0  0
  1 10  1  6  0  0  0
  1  7  1  0  0  0  0
  1  2  1  0  0  0  0
  2  3  1  0  0  0  0
  3  4  2  0  0  0  0
  5  3  1  0  0  0  0
  5  6  2  0  0  0  0
  7  5  1  0  0  0  0
  8 17  1  0  0  0  0
  8  7  2  0  0  0  0
  9  8  1  0  0  0  0
 10 16  1  0  0  0  0
 11 10  2  0  0  0  0
 12 13  2  0  0  0  0
 12 11  1  0  0  0  0
 13 15  1  0  0  0  0
 14 13  1  0  0  0  0
 15 16  2  0  0  0  0
 17 23  2  0  0  0  0
 17 18  1  0  0  0  0
 18 19  1  0  0  0  0
 19 22  1  0  0  0  0
 20 18  1  0  0  0  0
 20 26  2  0  0  0  0
 21 19  2  0  0  0  0
 23 21  1  0  0  0  0
 24 23  1  0  0  0  0
 25 22  2  0  0  0  0
 26 25  1  0  0  0  0
 27  2  1  0  0  0  0
 28 27  1  0  0  0  0
 29 28  1  0  0  0  0
 30 29  1  0  0  0  0
 30 35  1  0  0  0  0
 30 36  1  0  0  0  0
 31 30  1  0  0  0  0
 32 33  1  0  0  0  0
 32 31  1  0  0  0  0
 33 34  1  0  0  0  0
 34 35  1  0  0  0  0
M  END
>  <Pose>
1

>  <Score>
-8.715

$$$$
