/Users/jonathanwahrer/Desktop/Msc/3_Semester/Drug_Design_Praktikum/waehrer_HTS_screening/HTS_experiment/out/docking_results/vina_output/4x21/0385_docked.pdbqt
 OpenBabel03212201353D

 32 35  0  0  1  0  0  0  0  0999 V2000
   18.7350   37.2600   70.1180 C   0  0  2  0  0  3  0  0  0  0  0  0
   20.0970   37.3030   70.7450 C   0  0  0  0  0  2  0  0  0  0  0  0
   20.6630   35.9870   71.0660 C   0  0  0  0  0  0  0  0  0  0  0  0
   21.9170   35.8580   71.0260 O   0  0  0  0  0  0  0  0  0  0  0  0
   19.8120   34.9070   71.4040 N   0  0  0  0  0  0  0  0  0  0  0  0
   18.4310   34.9800   71.1210 C   0  0  0  0  0  0  0  0  0  0  0  0
   17.6240   33.9300   71.4700 N   0  0  0  0  0  0  0  0  0  0  0  0
   16.3090   33.9380   71.2440 C   0  0  0  0  0  0  0  0  0  0  0  0
   15.7860   35.0220   70.6560 N   0  0  0  0  0  0  0  0  0  0  0  0
   16.5450   36.0950   70.2860 C   0  0  0  0  0  0  0  0  0  0  0  0
   17.9070   36.1110   70.5090 C   0  0  0  0  0  0  0  0  0  0  0  0
   20.1830   34.0290   71.8720 H   0  0  0  0  0  0  0  0  0  0  0  0
   18.9900   37.2910   68.5950 C   0  0  0  0  0  0  0  0  0  0  0  0
   20.0270   36.6440   68.0900 N   0  0  0  0  0  0  0  0  0  0  0  0
   19.7870   37.2020   66.8710 H   0  0  0  0  0  0  0  0  0  0  0  0
   18.0760   38.0030   68.0180 O   0  0  0  0  0  0  0  0  0  0  0  0
   21.1030   35.9730   67.5640 C   0  0  0  0  0  0  0  0  0  0  0  0
   21.9340   36.7130   66.6640 C   0  0  0  0  0  3  0  0  0  0  0  0
   23.0580   36.1820   66.1430 C   0  0  0  0  0  3  0  0  0  0  0  0
   23.4590   34.9050   66.4490 C   0  0  0  0  0  0  0  0  0  0  0  0
   25.0660   34.1680   65.7020 Br  0  0  0  0  0  0  0  0  0  0  0  0
   22.6860   34.1590   67.3100 C   0  0  0  0  0  3  0  0  0  0  0  0
   21.5410   34.6980   67.8440 C   0  0  0  0  0  3  0  0  0  0  0  0
   15.9430   37.2180   69.6520 N   0  0  0  0  0  0  0  0  0  0  0  0
   15.5380   38.0050   70.1680 H   0  0  0  0  0  0  0  0  0  0  0  0
   15.9080   37.2390   68.6010 H   0  0  0  0  0  0  0  0  0  0  0  0
   15.4780   32.8160   71.6190 N   0  0  0  0  0  0  0  0  0  0  0  0
   14.2880   32.6120   70.8690 C   0  0  0  0  0  2  0  0  0  0  0  0
   13.7130   31.2300   70.9850 C   0  0  0  0  0  2  0  0  0  0  0  0
   14.5150   30.3810   71.7400 O   0  0  0  0  0  0  0  0  0  0  0  0
   14.8510   30.9420   72.9650 C   0  0  0  0  0  2  0  0  0  0  0  0
   15.9140   31.9810   72.7190 C   0  0  0  0  0  2  0  0  0  0  0  0
  1 13  1  6  0  0  0
  1 11  1  0  0  0  0
  1  2  1  0  0  0  0
  2  3  1  0  0  0  0
  3  5  1  0  0  0  0
  4  3  2  0  0  0  0
  5 12  1  0  0  0  0
  6  5  1  0  0  0  0
  6  7  1  0  0  0  0
  8  7  2  0  0  0  0
  8 27  1  0  0  0  0
  9  8  1  0  0  0  0
 10 11  1  0  0  0  0
 10  9  2  0  0  0  0
 11  6  2  0  0  0  0
 14 13  1  0  0  0  0
 15 14  1  0  0  0  0
 16 13  2  0  0  0  0
 17 23  1  0  0  0  0
 17 14  1  0  0  0  0
 18 17  2  0  0  0  0
 19 20  2  0  0  0  0
 19 18  1  0  0  0  0
 20 22  1  0  0  0  0
 21 20  1  0  0  0  0
 22 23  2  0  0  0  0
 24 25  1  0  0  0  0
 24 10  1  0  0  0  0
 26 24  1  0  0  0  0
 27 32  1  0  0  0  0
 28 29  1  0  0  0  0
 28 27  1  0  0  0  0
 29 30  1  0  0  0  0
 30 31  1  0  0  0  0
 32 31  1  0  0  0  0
M  END
>  <Pose>
1

>  <Score>
-8.548

$$$$
