/Users/jonathanwahrer/Desktop/Msc/3_Semester/Drug_Design_Praktikum/waehrer_HTS_screening/HTS_experiment/out/docking_results/vina_output/4x21/0386_docked.pdbqt
 OpenBabel03212201363D

 36 39  0  0  1  0  0  0  0  0999 V2000
   20.4770   33.6950   70.9980 C   0  0  2  0  0  3  0  0  0  0  0  0
   21.1700   32.5390   71.6940 C   0  0  0  0  0  2  0  0  0  0  0  0
   21.8010   31.6850   70.6430 C   0  0  0  0  0  0  0  0  0  0  0  0
   21.6400   30.4780   70.6410 O   0  0  0  0  0  0  0  0  0  0  0  0
   22.5770   32.3480   69.6820 N   0  0  0  0  0  0  0  0  0  0  0  0
   22.3950   33.7270   69.4290 C   0  0  0  0  0  0  0  0  0  0  0  0
   23.1990   34.3980   68.5800 N   0  0  0  0  0  0  0  0  0  0  0  0
   23.1580   35.7110   68.3520 C   0  0  0  0  0  0  0  0  0  0  0  0
   22.2130   36.3870   69.0570 N   0  0  0  0  0  0  0  0  0  0  0  0
   21.3680   35.7770   69.9270 C   0  0  0  0  0  0  0  0  0  0  0  0
   21.4080   34.4360   70.1550 C   0  0  0  0  0  0  0  0  0  0  0  0
   23.3240   31.8630   69.1150 H   0  0  0  0  0  0  0  0  0  0  0  0
   19.5140   34.4340   71.8580 C   0  0  0  0  0  0  0  0  0  0  0  0
   18.2370   34.6540   71.4870 N   0  0  0  0  0  0  0  0  0  0  0  0
   17.9670   35.1780   72.6990 H   0  0  0  0  0  0  0  0  0  0  0  0
   20.1030   34.7940   72.9650 O   0  0  0  0  0  0  0  0  0  0  0  0
   16.9360   34.8790   71.1110 C   0  0  0  0  0  0  0  0  0  0  0  0
   16.1500   33.6900   70.9780 C   0  0  0  0  0  3  0  0  0  0  0  0
   14.8740   33.8260   70.5430 C   0  0  0  0  0  3  0  0  0  0  0  0
   14.3040   35.0460   70.2260 C   0  0  0  0  0  0  0  0  0  0  0  0
   12.5100   35.1190   69.6270 Br  0  0  0  0  0  0  0  0  0  0  0  0
   15.0410   36.1890   70.3470 C   0  0  0  0  0  3  0  0  0  0  0  0
   16.3410   36.0750   70.7880 C   0  0  0  0  0  3  0  0  0  0  0  0
   20.4300   36.5470   70.6110 O   0  0  0  0  0  0  0  0  0  0  0  0
   19.7590   37.1420   70.1310 H   0  0  0  0  0  0  0  0  0  0  0  0
   23.9800   36.3820   67.4180 N   0  0  0  0  0  0  0  0  0  0  0  0
   25.3820   36.6750   67.5610 C   0  0  0  0  0  2  0  0  0  0  0  0
   26.0520   36.4860   66.2040 C   0  0  0  0  0  2  0  0  0  0  0  0
   25.3560   35.4540   65.3660 C   0  0  2  0  0  3  0  0  0  0  0  0
   23.9380   35.8260   65.1060 C   0  0  0  0  0  2  0  0  0  0  0  0
   23.3920   36.8280   66.1490 C   0  0  0  0  0  2  0  0  0  0  0  0
   25.5030   34.0910   65.9290 C   0  0  0  0  0  0  0  0  0  0  0  0
   26.6520   33.7100   66.2330 O   0  0  0  0  0  0  0  0  0  0  0  0
   24.4230   33.2030   66.1330 N   0  0  0  0  0  0  0  0  0  0  0  0
   23.4840   33.5230   66.4300 H   0  0  0  0  0  0  0  0  0  0  0  0
   24.5790   32.1850   65.9780 H   0  0  0  0  0  0  0  0  0  0  0  0
  1  2  1  0  0  0  0
  1 13  1  1  0  0  0
  3  2  1  0  0  0  0
  4  3  2  0  0  0  0
  5  3  1  0  0  0  0
  6  5  1  0  0  0  0
  6 11  2  0  0  0  0
  7  6  1  0  0  0  0
  8  7  2  0  0  0  0
  8  9  1  0  0  0  0
  9 10  2  0  0  0  0
 10 11  1  0  0  0  0
 10 24  1  0  0  0  0
 11  1  1  0  0  0  0
 12  5  1  0  0  0  0
 13 16  2  0  0  0  0
 14 13  1  0  0  0  0
 14 15  1  0  0  0  0
 17 14  1  0  0  0  0
 18 17  1  0  0  0  0
 19 18  2  0  0  0  0
 20 22  2  0  0  0  0
 20 19  1  0  0  0  0
 21 20  1  0  0  0  0
 22 23  1  0  0  0  0
 23 17  2  0  0  0  0
 25 24  1  0  0  0  0
 26 27  1  0  0  0  0
 26  8  1  0  0  0  0
 28 27  1  0  0  0  0
 29 32  1  1  0  0  0
 29 28  1  0  0  0  0
 30 29  1  0  0  0  0
 30 31  1  0  0  0  0
 31 26  1  0  0  0  0
 32 34  1  0  0  0  0
 32 33  2  0  0  0  0
 34 35  1  0  0  0  0
 36 34  1  0  0  0  0
M  END
>  <Pose>
1

>  <Score>
-9.088

$$$$
