/Users/jonathanwahrer/Desktop/Msc/3_Semester/Drug_Design_Praktikum/waehrer_HTS_screening/HTS_experiment/out/docking_results/vina_output/4x21/0393_docked.pdbqt
 OpenBabel03212201363D

 27 30  0  0  0  0  0  0  0  0999 V2000
   18.9340   36.1830   70.0610 N   0  0  0  0  0  0  0  0  0  0  0  0
   17.9120   36.9900   69.9140 N   0  0  0  0  0  0  0  0  0  0  0  0
   16.7860   36.5020   70.4700 C   0  0  0  0  0  3  0  0  0  0  0  0
   17.1280   35.2920   71.0080 C   0  0  0  0  0  0  0  0  0  0  0  0
   18.4690   35.1150   70.7410 C   0  0  0  0  0  0  0  0  0  0  0  0
   16.2200   34.3990   71.7160 C   0  0  0  0  0  0  0  0  0  0  0  0
   16.4290   34.2460   72.9430 O   0  0  0  0  0  0  0  0  0  0  0  0
   15.1490   33.7220   71.0930 N   0  0  0  0  0  0  0  0  0  0  0  0
   14.3080   32.8590   71.8870 C   0  0  0  0  0  2  0  0  0  0  0  0
   14.8090   33.8160   69.6910 C   0  0  0  0  0  2  0  0  0  0  0  0
   12.9420   33.4740   71.9500 C   0  0  0  0  0  2  0  0  0  0  0  0
   12.7100   34.4140   70.8590 N   0  0  0  0  0  0  0  0  0  0  0  0
   13.4310   34.3570   69.6330 C   0  0  0  0  0  0  0  0  0  0  0  0
   11.9680   35.1620   71.0070 H   0  0  0  0  0  0  0  0  0  0  0  0
   12.8910   34.7580   68.5720 O   0  0  0  0  0  0  0  0  0  0  0  0
   19.2700   33.9720   71.1210 N   0  0  0  0  0  0  0  0  0  0  0  0
   19.4690   32.8480   70.4500 C   0  0  0  0  0  3  0  0  0  0  0  0
   20.2980   32.0060   71.1540 C   0  0  0  0  0  3  0  0  0  0  0  0
   20.6030   32.6800   72.3120 C   0  0  0  0  0  3  0  0  0  0  0  0
   19.9570   33.8960   72.2720 C   0  0  0  0  0  3  0  0  0  0  0  0
   20.2600   36.4210   69.5820 C   0  0  0  0  0  0  0  0  0  0  0  0
   20.6560   36.0540   68.3100 C   0  0  0  0  0  3  0  0  0  0  0  0
   21.9300   36.2730   67.8250 C   0  0  0  0  0  3  0  0  0  0  0  0
   22.8710   36.8840   68.6270 C   0  0  0  0  0  0  0  0  0  0  0  0
   24.6420   37.1980   67.9780 Br  0  0  0  0  0  0  0  0  0  0  0  0
   22.4920   37.2570   69.9030 C   0  0  0  0  0  3  0  0  0  0  0  0
   21.2140   37.0320   70.3740 C   0  0  0  0  0  3  0  0  0  0  0  0
  1  5  1  0  0  0  0
  2  1  1  0  0  0  0
  2  3  2  0  0  0  0
  3  4  1  0  0  0  0
  4  6  1  0  0  0  0
  5  4  2  0  0  0  0
  5 16  1  0  0  0  0
  6  7  2  0  0  0  0
  8  6  1  0  0  0  0
  8  9  1  0  0  0  0
  9 11  1  0  0  0  0
 10  8  1  0  0  0  0
 12 14  1  0  0  0  0
 12 11  1  0  0  0  0
 13 10  1  0  0  0  0
 13 12  1  0  0  0  0
 15 13  2  0  0  0  0
 16 20  1  0  0  0  0
 17 16  1  0  0  0  0
 17 18  2  0  0  0  0
 18 19  1  0  0  0  0
 20 19  2  0  0  0  0
 21  1  1  0  0  0  0
 21 27  1  0  0  0  0
 22 21  2  0  0  0  0
 23 22  1  0  0  0  0
 23 24  2  0  0  0  0
 24 26  1  0  0  0  0
 25 24  1  0  0  0  0
 26 27  2  0  0  0  0
M  END
>  <Pose>
1

>  <Score>
-7.916

$$$$
