/Users/jonathanwahrer/Desktop/Msc/3_Semester/Drug_Design_Praktikum/waehrer_HTS_screening/HTS_experiment/out/docking_results/vina_output/4x21/0399_docked.pdbqt
 OpenBabel03212201363D

 28 31  0  0  1  0  0  0  0  0999 V2000
   21.2310   33.8790   70.5920 N   0  0  0  0  0  0  0  0  0  0  0  0
   20.2710   34.0260   71.6320 C   0  0  0  0  0  0  0  0  0  0  0  0
   19.6330   35.0730   71.8760 O   0  0  0  0  0  0  0  0  0  0  0  0
   20.1190   32.7800   72.3990 C   0  0  2  0  0  3  0  0  0  0  0  0
   21.4510   32.0850   72.1420 C   0  0  0  0  0  2  0  0  0  0  0  0
   21.8110   32.5720   70.7730 C   0  0  0  0  0  0  0  0  0  0  0  0
   22.5010   31.8780   70.0040 O   0  0  0  0  0  0  0  0  0  0  0  0
   19.0230   31.9330   71.9860 N   0  0  1  0  0  4  0  0  0  0  0  0
   18.0070   31.8120   73.0040 C   0  0  0  0  0  2  0  0  0  0  0  0
   16.8220   32.7340   72.8150 C   0  0  0  0  0  2  0  0  0  0  0  0
   16.4330   32.8110   71.4300 N   0  0  0  0  0  0  0  0  0  0  0  0
   17.0700   31.8380   70.5750 C   0  0  0  0  0  2  0  0  0  0  0  0
   18.5680   32.1850   70.6670 C   0  0  0  0  0  2  0  0  0  0  0  0
   19.4650   30.9520   71.9580 H   0  0  0  0  0  0  0  0  0  0  0  0
   15.5300   33.7520   70.9240 C   0  0  0  0  0  0  0  0  0  0  0  0
   14.3140   33.4610   70.3390 C   0  0  0  0  0  3  0  0  0  0  0  0
   13.4670   34.4330   69.8310 C   0  0  0  0  0  3  0  0  0  0  0  0
   13.8220   35.7540   69.8960 C   0  0  0  0  0  0  0  0  0  0  0  0
   15.0270   36.1020   70.4710 C   0  0  0  0  0  3  0  0  0  0  0  0
   13.0150   36.7810   69.4040 O   0  0  0  0  0  1  0  0  0  0  0  0
   15.8560   35.1130   70.9710 C   0  0  0  0  0  3  0  0  0  0  0  0
   21.5840   34.7970   69.5550 C   0  0  0  0  0  0  0  0  0  0  0  0
   22.3340   35.9090   69.8090 C   0  0  0  0  0  3  0  0  0  0  0  0
   22.6760   36.8060   68.7910 C   0  0  0  0  0  3  0  0  0  0  0  0
   22.2730   36.6050   67.4990 C   0  0  0  0  0  0  0  0  0  0  0  0
   22.7370   37.8270   66.1000 Br  0  0  0  0  0  0  0  0  0  0  0  0
   21.5180   35.4850   67.2390 C   0  0  0  0  0  3  0  0  0  0  0  0
   21.1800   34.5920   68.2680 C   0  0  0  0  0  3  0  0  0  0  0  0
  1  6  1  0  0  0  0
  1  2  1  0  0  0  0
  2  3  2  0  0  0  0
  2  4  1  0  0  0  0
  4  5  1  6  0  0  0
  6  5  1  0  0  0  0
  7  6  2  0  0  0  0
  8 14  1  6  0  0  0
  8  4  1  0  0  0  0
  8  9  1  0  0  0  0
 10  9  1  0  0  0  0
 11 10  1  0  0  0  0
 12 13  1  0  0  0  0
 12 11  1  0  0  0  0
 13  8  1  0  0  0  0
 15 21  1  0  0  0  0
 15 11  1  0  0  0  0
 16 15  2  0  0  0  0
 17 18  2  0  0  0  0
 17 16  1  0  0  0  0
 18 19  1  0  0  0  0
 19 21  2  0  0  0  0
 20 18  1  0  0  0  0
 22 23  1  0  0  0  0
 22  1  1  0  0  0  0
 24 23  2  0  0  0  0
 25 24  1  0  0  0  0
 26 25  1  0  0  0  0
 27 25  2  0  0  0  0
 27 28  1  0  0  0  0
 28 22  2  0  0  0  0
M  END
>  <Pose>
1

>  <Score>
-8.360

$$$$
