/Users/jonathanwahrer/Desktop/Msc/3_Semester/Drug_Design_Praktikum/waehrer_HTS_screening/HTS_experiment/out/docking_results/vina_output/4x21/0408_docked.pdbqt
 OpenBabel03212201373D

 31 34  0  0  0  0  0  0  0  0999 V2000
   22.8520   36.8820   66.9680 N   0  0  0  0  0  0  0  0  0  0  0  0
   22.3580   36.5680   68.1780 C   0  0  0  0  0  0  0  0  0  0  0  0
   21.9030   37.4240   68.9970 O   0  0  0  0  0  0  0  0  0  0  0  0
   22.4160   35.1920   68.4010 C   0  0  0  0  0  0  0  0  0  0  0  0
   22.9550   34.6780   67.2990 C   0  0  0  0  0  0  0  0  0  0  0  0
   23.0010   33.3550   67.5350 N   0  0  0  0  0  0  0  0  0  0  0  0
   22.5080   33.0840   68.7320 N   0  0  0  0  0  0  0  0  0  0  0  0
   22.1420   34.2180   69.2770 N   0  0  0  0  0  0  0  0  0  0  0  0
   23.2250   35.7050   66.4170 C   0  0  0  0  0  0  0  0  0  0  0  0
   23.7340   35.6090   65.2780 O   0  0  0  0  0  0  0  0  0  0  0  0
   23.3880   32.6860   66.8210 H   0  0  0  0  0  0  0  0  0  0  0  0
   22.4490   32.1130   69.1180 H   0  0  0  0  0  0  0  0  0  0  0  0
   21.5510   34.4120   70.5770 C   0  0  0  0  0  2  0  0  0  0  0  0
   20.0560   34.2870   70.5370 C   0  0  0  0  0  0  0  0  0  0  0  0
   19.6380   33.2520   69.9660 O   0  0  0  0  0  0  0  0  0  0  0  0
   19.2060   35.2470   71.0910 N   0  0  0  0  0  0  0  0  0  0  0  0
   19.7130   36.0790   71.5460 H   0  0  0  0  0  0  0  0  0  0  0  0
   17.8060   35.2320   71.1090 C   0  0  0  0  0  0  0  0  0  0  0  0
   17.1440   36.2060   70.3440 C   0  0  0  0  0  0  0  0  0  0  0  0
   15.7720   36.2270   70.3320 C   0  0  0  0  0  3  0  0  0  0  0  0
   17.8920   37.2040   69.5550 C   0  0  0  0  0  1  0  0  0  0  0  0
   15.0030   35.3290   71.0410 C   0  0  0  0  0  3  0  0  0  0  0  0
   15.6390   34.3810   71.7870 C   0  0  0  0  0  3  0  0  0  0  0  0
   17.0180   34.3500   71.8060 C   0  0  0  0  0  3  0  0  0  0  0  0
   22.9600   38.1780   66.3870 C   0  0  0  0  0  0  0  0  0  0  0  0
   21.8380   38.9730   66.2270 C   0  0  0  0  0  3  0  0  0  0  0  0
   21.9190   40.2330   65.6650 C   0  0  0  0  0  3  0  0  0  0  0  0
   23.1250   40.7490   65.2410 C   0  0  0  0  0  0  0  0  0  0  0  0
   23.2350   42.5000   64.4610 Br  0  0  0  0  0  0  0  0  0  0  0  0
   24.2480   39.9670   65.3950 C   0  0  0  0  0  3  0  0  0  0  0  0
   24.1570   38.7140   65.9560 C   0  0  0  0  0  3  0  0  0  0  0  0
  1  2  1  0  0  0  0
  2  4  1  0  0  0  0
  2  3  2  0  0  0  0
  4  8  1  0  0  0  0
  5  6  1  0  0  0  0
  5  4  2  0  0  0  0
  6  7  1  0  0  0  0
  7 12  1  0  0  0  0
  7  8  1  0  0  0  0
  8 13  1  0  0  0  0
  9  1  1  0  0  0  0
  9  5  1  0  0  0  0
 10  9  2  0  0  0  0
 11  6  1  0  0  0  0
 14 13  1  0  0  0  0
 14 16  1  0  0  0  0
 15 14  2  0  0  0  0
 16 18  1  0  0  0  0
 16 17  1  0  0  0  0
 18 24  1  0  0  0  0
 19 18  2  0  0  0  0
 20 19  1  0  0  0  0
 20 22  2  0  0  0  0
 21 19  1  0  0  0  0
 22 23  1  0  0  0  0
 23 24  2  0  0  0  0
 25  1  1  0  0  0  0
 26 25  1  0  0  0  0
 27 26  2  0  0  0  0
 28 30  2  0  0  0  0
 28 27  1  0  0  0  0
 29 28  1  0  0  0  0
 30 31  1  0  0  0  0
 31 25  2  0  0  0  0
M  END
>  <Pose>
1

>  <Score>
-9.481

$$$$
