/Users/jonathanwahrer/Desktop/Msc/3_Semester/Drug_Design_Praktikum/waehrer_HTS_screening/HTS_experiment/out/docking_results/vina_output/4x21/0414_docked.pdbqt
 OpenBabel03212201383D

 35 38  0  0  0  0  0  0  0  0999 V2000
   23.3840   36.6500   66.6570 N   0  0  0  0  0  0  0  0  0  0  0  0
   22.9750   36.2870   67.8990 C   0  0  0  0  0  0  0  0  0  0  0  0
   22.5430   37.0680   68.8040 O   0  0  0  0  0  0  0  0  0  0  0  0
   23.0970   34.9160   68.0460 C   0  0  0  0  0  0  0  0  0  0  0  0
   23.5790   34.4740   66.8870 C   0  0  0  0  0  0  0  0  0  0  0  0
   23.7090   33.1310   67.0040 N   0  0  0  0  0  0  0  0  0  0  0  0
   23.3030   32.7970   68.2260 N   0  0  0  0  0  0  0  0  0  0  0  0
   22.9210   33.8680   68.8950 N   0  0  0  0  0  0  0  0  0  0  0  0
   23.7600   35.5290   66.0250 C   0  0  0  0  0  0  0  0  0  0  0  0
   24.1960   35.4810   64.8530 O   0  0  0  0  0  0  0  0  0  0  0  0
   24.0620   32.4900   66.2650 H   0  0  0  0  0  0  0  0  0  0  0  0
   23.2930   31.8300   68.5940 H   0  0  0  0  0  0  0  0  0  0  0  0
   22.4070   33.9730   70.2550 C   0  0  0  0  0  2  0  0  0  0  0  0
   20.9090   34.1480   70.2040 C   0  0  0  0  0  0  0  0  0  0  0  0
   20.3080   33.0780   69.9340 O   0  0  0  0  0  0  0  0  0  0  0  0
   20.3470   35.4000   70.4440 N   0  0  0  0  0  0  0  0  0  0  0  0
   21.0410   36.1840   70.6570 H   0  0  0  0  0  0  0  0  0  0  0  0
   18.9710   35.7380   70.4350 C   0  0  0  0  0  0  0  0  0  0  0  0
   17.9630   34.9730   70.9730 C   0  0  0  0  0  3  0  0  0  0  0  0
   16.6220   35.3780   70.9240 C   0  0  0  0  0  3  0  0  0  0  0  0
   16.2540   36.5630   70.3330 C   0  0  0  0  0  0  0  0  0  0  0  0
   17.2530   37.3360   69.7930 C   0  0  0  0  0  3  0  0  0  0  0  0
   18.5740   36.9350   69.8420 C   0  0  0  0  0  3  0  0  0  0  0  0
   14.8460   36.9440   70.3060 C   0  0  0  0  0  0  0  0  0  0  0  0
   14.4690   37.8760   71.0600 O   0  0  0  0  0  0  0  0  0  0  0  0
   13.9020   36.3540   69.5130 O   0  0  0  0  0  0  0  0  0  0  0  0
   12.9590   35.4020   69.9150 C   0  0  0  0  0  2  0  0  0  0  0  0
   13.4980   34.0370   69.4640 C   0  0  0  0  0  1  0  0  0  0  0  0
   23.3840   37.9950   66.1870 C   0  0  0  0  0  0  0  0  0  0  0  0
   22.2010   38.7180   66.1790 C   0  0  0  0  0  3  0  0  0  0  0  0
   22.1640   40.0030   65.7370 C   0  0  0  0  0  3  0  0  0  0  0  0
   23.2950   40.6460   65.2790 C   0  0  0  0  0  0  0  0  0  0  0  0
   23.2890   42.4410   64.6530 Br  0  0  0  0  0  0  0  0  0  0  0  0
   24.4630   39.9170   65.2920 C   0  0  0  0  0  3  0  0  0  0  0  0
   24.5160   38.6220   65.7330 C   0  0  0  0  0  3  0  0  0  0  0  0
  1  2  1  0  0  0  0
  2  4  1  0  0  0  0
  2  3  2  0  0  0  0
  4  8  1  0  0  0  0
  5  6  1  0  0  0  0
  5  4  2  0  0  0  0
  6  7  1  0  0  0  0
  7 12  1  0  0  0  0
  7  8  1  0  0  0  0
  8 13  1  0  0  0  0
  9  1  1  0  0  0  0
  9  5  1  0  0  0  0
 10  9  2  0  0  0  0
 11  6  1  0  0  0  0
 14 13  1  0  0  0  0
 14 16  1  0  0  0  0
 15 14  2  0  0  0  0
 16 17  1  0  0  0  0
 18 16  1  0  0  0  0
 18 19  1  0  0  0  0
 20 19  2  0  0  0  0
 21 20  1  0  0  0  0
 22 23  1  0  0  0  0
 22 21  2  0  0  0  0
 23 18  2  0  0  0  0
 24 21  1  0  0  0  0
 24 25  2  0  0  0  0
 26 27  1  0  0  0  0
 26 24  1  0  0  0  0
 28 27  1  0  0  0  0
 29  1  1  0  0  0  0
 30 29  1  0  0  0  0
 31 30  2  0  0  0  0
 32 34  2  0  0  0  0
 32 31  1  0  0  0  0
 33 32  1  0  0  0  0
 34 35  1  0  0  0  0
 35 29  2  0  0  0  0
M  END
>  <Pose>
1

>  <Score>
-9.514

$$$$
