/Users/jonathanwahrer/Desktop/Msc/3_Semester/Drug_Design_Praktikum/waehrer_HTS_screening/HTS_experiment/out/docking_results/vina_output/4x21/0421_docked.pdbqt
 OpenBabel03212201383D

 28 31  0  0  0  0  0  0  0  0999 V2000
   16.0920   34.1250   71.2970 N   0  0  0  0  0  0  0  0  0  0  0  0
   17.2690   34.5970   70.8290 C   0  0  0  0  0  0  0  0  0  0  0  0
   18.3670   33.9640   70.7150 O   0  0  0  0  0  0  0  0  0  0  0  0
   17.1550   35.9250   70.4620 C   0  0  0  0  0  0  0  0  0  0  0  0
   15.8850   36.2480   70.7170 C   0  0  0  0  0  0  0  0  0  0  0  0
   15.7710   37.5490   70.3570 N   0  0  0  0  0  0  0  0  0  0  0  0
   16.9430   37.9660   69.9070 N   0  0  0  0  0  0  0  0  0  0  0  0
   17.8220   36.9790   69.9600 N   0  0  0  0  0  0  0  0  0  0  0  0
   15.2260   35.1510   71.2290 C   0  0  0  0  0  0  0  0  0  0  0  0
   14.0250   35.0650   71.5870 O   0  0  0  0  0  0  0  0  0  0  0  0
   14.8830   38.1110   70.4340 H   0  0  0  0  0  0  0  0  0  0  0  0
   17.1860   38.9270   69.5510 H   0  0  0  0  0  0  0  0  0  0  0  0
   19.1980   37.0330   69.5620 C   0  0  0  0  0  0  0  0  0  0  0  0
   20.2120   36.9560   70.4940 C   0  0  0  0  0  3  0  0  0  0  0  0
   21.5540   37.0050   70.1390 C   0  0  0  0  0  3  0  0  0  0  0  0
   21.9130   37.1350   68.8150 C   0  0  0  0  0  0  0  0  0  0  0  0
   20.9020   37.2120   67.8810 C   0  0  0  0  0  3  0  0  0  0  0  0
   19.5630   37.1630   68.2390 C   0  0  0  0  0  3  0  0  0  0  0  0
   23.2810   37.1880   68.4200 N   0  0  0  0  0  0  0  0  0  0  0  0
   23.6250   37.2230   67.2230 O   0  0  0  0  0  0  0  0  0  0  0  0
   24.2480   37.2000   69.3740 O   0  0  0  0  0  0  0  0  0  0  0  0
   15.8440   32.7940   71.7660 C   0  0  0  0  0  0  0  0  0  0  0  0
   15.0770   31.8900   71.0600 C   0  0  0  0  0  3  0  0  0  0  0  0
   14.8540   30.6040   71.5430 C   0  0  0  0  0  3  0  0  0  0  0  0
   15.3930   30.1910   72.7440 C   0  0  0  0  0  0  0  0  0  0  0  0
   15.0990   28.4260   73.4240 Br  0  0  0  0  0  0  0  0  0  0  0  0
   16.1610   31.0920   73.4520 C   0  0  0  0  0  3  0  0  0  0  0  0
   16.3770   32.3670   72.9650 C   0  0  0  0  0  3  0  0  0  0  0  0
  1 22  1  0  0  0  0
  2  1  1  0  0  0  0
  3  2  2  0  0  0  0
  4  5  2  0  0  0  0
  4  2  1  0  0  0  0
  5  9  1  0  0  0  0
  6 11  1  0  0  0  0
  6  5  1  0  0  0  0
  7  8  1  0  0  0  0
  7  6  1  0  0  0  0
  8  4  1  0  0  0  0
  9  1  1  0  0  0  0
  9 10  2  0  0  0  0
 12  7  1  0  0  0  0
 13  8  1  0  0  0  0
 13 14  1  0  0  0  0
 15 14  2  0  0  0  0
 16 15  1  0  0  0  0
 17 18  1  0  0  0  0
 17 16  2  0  0  0  0
 18 13  2  0  0  0  0
 19 16  1  0  0  0  0
 19 21  2  0  0  0  0
 20 19  2  0  0  0  0
 22 28  1  0  0  0  0
 23 24  1  0  0  0  0
 23 22  2  0  0  0  0
 24 25  2  0  0  0  0
 25 26  1  0  0  0  0
 25 27  1  0  0  0  0
 28 27  2  0  0  0  0
M  END
>  <Pose>
1

>  <Score>
-8.441

$$$$
