/Users/jonathanwahrer/Desktop/Msc/3_Semester/Drug_Design_Praktikum/waehrer_HTS_screening/HTS_experiment/out/docking_results/vina_output/4x21/0426_docked.pdbqt
 OpenBabel03212201383D

 29 32  0  0  1  0  0  0  0  0999 V2000
   19.0620   33.2320   71.1340 N   0  0  0  0  0  0  0  0  0  0  0  0
   19.5660   32.5890   72.3210 C   0  0  0  0  0  0  0  0  0  0  0  0
   20.3880   33.0810   73.1440 O   0  0  0  0  0  0  0  0  0  0  0  0
   18.9350   31.2500   72.3840 C   0  0  1  0  0  3  0  0  0  0  0  0
   18.6630   30.7790   73.7280 N   0  0  0  0  0  0  0  0  0  0  0  0
   17.4310   30.1000   73.4730 N   0  0  0  0  0  0  0  0  0  0  0  0
   16.6540   30.8920   72.5750 C   0  0  0  0  0  0  0  0  0  0  0  0
   17.5480   31.6050   71.8980 C   0  0  0  0  0  0  0  0  0  0  0  0
   17.7970   32.6110   70.8740 C   0  0  0  0  0  0  0  0  0  0  0  0
   16.9690   32.8280   69.9460 O   0  0  0  0  0  0  0  0  0  0  0  0
   18.3820   31.6430   74.2700 H   0  0  0  0  0  0  0  0  0  0  0  0
   17.1400   29.1850   73.8700 H   0  0  0  0  0  0  0  0  0  0  0  0
   15.2040   30.9190   72.4170 C   0  0  0  0  0  0  0  0  0  0  0  0
   14.5260   29.8670   72.3660 O   0  0  0  0  0  0  0  0  0  0  0  0
   14.4950   32.1070   72.3140 O   0  0  0  0  0  0  0  0  0  0  0  0
   13.6010   32.3520   71.2370 C   0  0  0  0  0  2  0  0  0  0  0  0
   13.7430   33.7790   70.7910 C   0  0  0  0  0  0  0  0  0  0  0  0
   14.6140   34.6410   71.4550 C   0  0  0  0  0  3  0  0  0  0  0  0
   14.7760   35.9460   71.0780 C   0  0  0  0  0  3  0  0  0  0  0  0
   14.0460   36.4320   69.9970 C   0  0  0  0  0  3  0  0  0  0  0  0
   13.1860   35.5770   69.3440 C   0  0  0  0  0  3  0  0  0  0  0  0
   13.0290   34.2450   69.7360 C   0  0  0  0  0  3  0  0  0  0  0  0
   19.6580   34.2590   70.3700 C   0  0  0  0  0  0  0  0  0  0  0  0
   20.7480   33.9770   69.5380 C   0  0  0  0  0  3  0  0  0  0  0  0
   21.3790   34.9040   68.7720 C   0  0  0  0  0  3  0  0  0  0  0  0
   20.9330   36.2010   68.8050 C   0  0  0  0  0  0  0  0  0  0  0  0
   21.8100   37.5360   67.7260 Br  0  0  0  0  0  0  0  0  0  0  0  0
   19.8590   36.5200   69.6140 C   0  0  0  0  0  3  0  0  0  0  0  0
   19.2320   35.5600   70.3850 C   0  0  0  0  0  3  0  0  0  0  0  0
  1  2  1  0  0  0  0
  2  4  1  0  0  0  0
  2  3  2  0  0  0  0
  4  8  1  6  0  0  0
  4  5  1  0  0  0  0
  5 11  1  0  0  0  0
  6  5  1  0  0  0  0
  6 12  1  0  0  0  0
  7  6  1  0  0  0  0
  8  7  2  0  0  0  0
  9  1  1  0  0  0  0
  9  8  1  0  0  0  0
 10  9  2  0  0  0  0
 13  7  1  0  0  0  0
 14 13  2  0  0  0  0
 15 13  1  0  0  0  0
 16 15  1  0  0  0  0
 17 16  1  0  0  0  0
 17 18  1  0  0  0  0
 19 18  2  0  0  0  0
 20 19  1  0  0  0  0
 21 22  1  0  0  0  0
 21 20  2  0  0  0  0
 22 17  2  0  0  0  0
 23 29  1  0  0  0  0
 23  1  1  0  0  0  0
 24 23  2  0  0  0  0
 25 26  2  0  0  0  0
 25 24  1  0  0  0  0
 26 28  1  0  0  0  0
 27 26  1  0  0  0  0
 28 29  2  0  0  0  0
M  END
>  <Pose>
1

>  <Score>
-8.607

$$$$
