/Users/jonathanwahrer/Desktop/Msc/3_Semester/Drug_Design_Praktikum/waehrer_HTS_screening/HTS_experiment/out/docking_results/vina_output/4x21/0428_docked.pdbqt
 OpenBabel03212201393D

 28 31  0  0  1  0  0  0  0  0999 V2000
   20.1590   34.1140   70.5350 N   0  0  0  0  0  0  0  0  0  0  0  0
   21.0640   33.5130   71.4800 C   0  0  0  0  0  0  0  0  0  0  0  0
   22.3000   33.7470   71.3910 O   0  0  0  0  0  0  0  0  0  0  0  0
   20.5010   32.6830   72.4700 N   0  0  0  0  0  2  0  0  0  0  0  0
   19.2620   32.4340   72.5790 C   0  0  0  0  0  0  0  0  0  0  0  0
   18.1860   32.9600   71.7030 C   0  0  1  0  0  0  0  0  0  0  0  0
   17.4190   31.8020   71.1630 C   0  0  0  0  0  2  0  0  0  0  0  0
   16.0570   32.0250   70.8390 N   0  0  0  0  0  4  0  0  0  0  0  0
   15.6370   33.3710   70.8270 C   0  0  0  0  0  0  0  0  0  0  0  0
   16.2040   34.2980   71.7090 C   0  0  0  0  0  0  0  0  0  0  0  0
   15.7840   35.5990   71.6830 C   0  0  0  0  0  3  0  0  0  0  0  0
   14.8170   36.0710   70.8250 C   0  0  0  0  0  0  0  0  0  0  0  0
   14.2620   35.1540   69.9570 C   0  0  0  0  0  3  0  0  0  0  0  0
   14.6670   33.8260   69.9610 C   0  0  0  0  0  3  0  0  0  0  0  0
   14.3890   37.4900   70.8250 C   0  0  0  0  0  1  0  0  0  0  0  0
   17.2440   33.7470   72.6170 C   0  0  0  0  0  2  0  0  0  0  0  0
   15.1460   31.2110   71.6610 C   0  0  0  0  0  1  0  0  0  0  0  0
   18.7690   33.8320   70.6600 C   0  0  0  0  0  0  0  0  0  0  0  0
   18.0230   34.3930   69.7910 O   0  0  0  0  0  0  0  0  0  0  0  0
   18.8350   31.5830   73.6210 O   0  0  0  0  0  0  0  0  0  0  0  0
   15.9010   31.6590   69.8520 H   0  0  0  0  0  0  0  0  0  0  0  0
   20.6510   34.9640   69.5100 C   0  0  0  0  0  0  0  0  0  0  0  0
   20.6570   36.3200   69.7450 C   0  0  0  0  0  3  0  0  0  0  0  0
   21.1180   37.2260   68.7980 C   0  0  0  0  0  3  0  0  0  0  0  0
   21.5810   36.7640   67.5950 C   0  0  0  0  0  0  0  0  0  0  0  0
   22.2130   38.0150   66.3010 Br  0  0  0  0  0  0  0  0  0  0  0  0
   21.5860   35.4040   67.3320 C   0  0  0  0  0  3  0  0  0  0  0  0
   21.1210   34.5210   68.2930 C   0  0  0  0  0  3  0  0  0  0  0  0
  1 18  1  0  0  0  0
  1  2  1  0  0  0  0
  2  4  1  0  0  0  0
  3  2  2  0  0  0  0
  4  5  1  0  0  0  0
  5 20  2  0  0  0  0
  6  7  1  6  0  0  0
  6  5  1  0  0  0  0
  6 16  1  0  0  0  0
  8  7  1  0  0  0  0
  8 17  1  0  0  0  0
  9  8  1  0  0  0  0
  9 10  1  0  0  0  0
 10 16  1  0  0  0  0
 11 10  2  0  0  0  0
 12 11  1  0  0  0  0
 13 14  1  0  0  0  0
 13 12  2  0  0  0  0
 14  9  2  0  0  0  0
 15 12  1  0  0  0  0
 18  6  1  0  0  0  0
 19 18  2  0  0  0  0
 21  8  1  0  0  0  0
 22 23  1  0  0  0  0
 22  1  1  0  0  0  0
 24 23  2  0  0  0  0
 25 24  1  0  0  0  0
 26 25  1  0  0  0  0
 27 25  2  0  0  0  0
 27 28  1  0  0  0  0
 28 22  2  0  0  0  0
M  END
>  <Pose>
1

>  <Score>
-8.066

$$$$
