/Users/jonathanwahrer/Desktop/Msc/3_Semester/Drug_Design_Praktikum/waehrer_HTS_screening/HTS_experiment/out/docking_results/vina_output/4x21/0429_docked.pdbqt
 OpenBabel03212201393D

 36 39  0  0  0  0  0  0  0  0999 V2000
   15.0250   33.7890   70.9260 N   0  0  0  0  0  0  0  0  0  0  0  0
   13.6370   33.7830   70.5850 C   0  0  0  0  0  0  0  0  0  0  0  0
   12.9880   32.7090   70.7940 O   0  0  0  0  0  0  0  0  0  0  0  0
   13.0420   34.9460   70.0380 N   0  0  0  0  0  0  0  0  0  0  0  0
   13.7500   36.1580   69.7950 C   0  0  0  0  0  0  0  0  0  0  0  0
   13.1910   37.1790   69.3060 O   0  0  0  0  0  0  0  0  0  0  0  0
   15.1830   36.2000   70.1350 C   0  0  0  0  0  0  0  0  0  0  0  0
   15.8960   37.2980   69.9310 C   0  0  0  0  0  3  0  0  0  0  0  0
   15.7660   34.9870   70.6970 C   0  0  0  0  0  0  0  0  0  0  0  0
   16.9860   34.9760   71.0020 O   0  0  0  0  0  0  0  0  0  0  0  0
   12.0240   34.8990   69.8030 H   0  0  0  0  0  0  0  0  0  0  0  0
   17.2760   37.3080   70.2690 N   0  0  0  0  0  0  0  0  0  0  0  0
   17.4970   37.0730   71.2740 H   0  0  0  0  0  0  0  0  0  0  0  0
   18.3120   37.5970   69.3960 N   0  0  0  0  0  0  0  0  0  0  0  0
   18.2380   38.5390   68.9130 H   0  0  0  0  0  0  0  0  0  0  0  0
   19.4090   36.7320   69.1290 C   0  0  0  0  0  0  0  0  0  0  0  0
   20.1420   36.7400   68.0110 N   0  0  0  0  0  0  0  0  0  0  0  0
   21.0960   35.7980   68.0930 C   0  0  0  0  0  0  0  0  0  0  0  0
   20.0150   37.5960   66.8260 C   0  0  0  0  0  1  0  0  0  0  0  0
   20.9500   35.1710   69.3230 C   0  0  0  0  0  0  0  0  0  0  0  0
   22.1080   35.3520   67.2860 C   0  0  0  0  0  0  0  0  0  0  0  0
   19.9170   35.7750   69.9070 N   0  0  0  0  0  0  0  0  0  0  0  0
   21.7640   34.1710   69.7070 N   0  0  0  0  0  0  0  0  0  0  0  0
   22.7330   33.7760   68.8810 C   0  0  0  0  0  0  0  0  0  0  0  0
   21.5510   33.5720   70.9910 C   0  0  0  0  0  1  0  0  0  0  0  0
   23.5230   32.8370   69.2060 O   0  0  0  0  0  0  0  0  0  0  0  0
   22.9330   34.3470   67.6630 N   0  0  0  0  0  0  0  0  0  0  0  0
   23.9960   33.8850   66.8070 C   0  0  0  0  0  1  0  0  0  0  0  0
   22.2870   35.8770   66.1680 O   0  0  0  0  0  0  0  0  0  0  0  0
   15.6120   32.6390   71.4650 C   0  0  0  0  0  0  0  0  0  0  0  0
   15.3610   32.2870   72.7760 C   0  0  0  0  0  3  0  0  0  0  0  0
   15.9160   31.1600   73.3500 C   0  0  0  0  0  3  0  0  0  0  0  0
   16.7540   30.3400   72.6140 C   0  0  0  0  0  0  0  0  0  0  0  0
   17.5310   28.7760   73.3990 Br  0  0  0  0  0  0  0  0  0  0  0  0
   16.9910   30.7110   71.3080 C   0  0  0  0  0  3  0  0  0  0  0  0
   16.4450   31.8320   70.7180 C   0  0  0  0  0  3  0  0  0  0  0  0
  1 30  1  0  0  0  0
  2  3  2  0  0  0  0
  2  1  1  0  0  0  0
  4  2  1  0  0  0  0
  5  4  1  0  0  0  0
  5  7  1  0  0  0  0
  6  5  2  0  0  0  0
  7  9  1  0  0  0  0
  8  7  2  0  0  0  0
  8 12  1  0  0  0  0
  9  1  1  0  0  0  0
  9 10  2  0  0  0  0
 11  4  1  0  0  0  0
 12 13  1  0  0  0  0
 14 12  1  0  0  0  0
 15 14  1  0  0  0  0
 16 14  1  0  0  0  0
 16 22  2  0  0  0  0
 17 18  1  0  0  0  0
 17 16  1  0  0  0  0
 18 20  2  0  0  0  0
 19 17  1  0  0  0  0
 20 23  1  0  0  0  0
 20 22  1  0  0  0  0
 21 27  1  0  0  0  0
 21 18  1  0  0  0  0
 23 25  1  0  0  0  0
 24 26  2  0  0  0  0
 24 23  1  0  0  0  0
 27 24  1  0  0  0  0
 28 27  1  0  0  0  0
 29 21  2  0  0  0  0
 30 31  1  0  0  0  0
 31 32  2  0  0  0  0
 33 32  1  0  0  0  0
 33 34  1  0  0  0  0
 35 33  2  0  0  0  0
 36 35  1  0  0  0  0
 36 30  2  0  0  0  0
M  END
>  <Pose>
1

>  <Score>
-9.598

$$$$
