/Users/jonathanwahrer/Desktop/Msc/3_Semester/Drug_Design_Praktikum/waehrer_HTS_screening/HTS_experiment/out/docking_results/vina_output/4x21/0436_docked.pdbqt
 OpenBabel03212201393D

 29 32  0  0  0  0  0  0  0  0999 V2000
   20.8320   34.7150   70.3800 N   0  0  0  0  0  0  0  0  0  0  0  0
   21.3410   33.8740   71.4460 C   0  0  0  0  0  2  0  0  0  0  0  0
   20.2790   33.4850   72.4480 C   0  0  0  0  0  2  0  0  0  0  0  0
   19.0360   33.0780   71.6420 C   0  0  0  0  0  2  0  0  0  0  0  0
   18.5400   34.3060   71.0770 N   0  0  0  0  0  0  0  0  0  0  0  0
   19.4650   35.0990   70.4550 C   0  0  0  0  0  0  0  0  0  0  0  0
   18.8410   36.1940   69.9910 N   0  0  0  0  0  0  0  0  0  0  0  0
   17.5340   36.0670   70.3300 C   0  0  0  0  0  0  0  0  0  0  0  0
   17.3350   34.8790   71.0160 C   0  0  0  0  0  0  0  0  0  0  0  0
   16.0780   34.5270   71.4670 C   0  0  0  0  0  0  0  0  0  0  0  0
   15.9370   33.4240   72.0940 O   0  0  0  0  0  0  0  0  0  0  0  0
   15.0400   35.3510   71.2360 N   0  0  0  0  0  0  0  0  0  0  0  0
   15.2610   36.4970   70.5690 C   0  0  0  0  0  0  0  0  0  0  0  0
   14.2610   37.2390   70.3730 O   0  0  0  0  0  0  0  0  0  0  0  0
   16.4650   36.8570   70.1240 N   0  0  0  0  0  0  0  0  0  0  0  0
   16.6680   38.1060   69.4050 C   0  0  0  0  0  1  0  0  0  0  0  0
   21.7010   35.1070   69.3370 C   0  0  0  0  0  0  0  0  0  0  0  0
   22.3360   36.3270   69.2810 C   0  0  0  0  0  3  0  0  0  0  0  0
   23.1790   36.6230   68.2080 C   0  0  0  0  0  3  0  0  0  0  0  0
   23.3930   35.7120   67.1950 C   0  0  0  0  0  0  0  0  0  0  0  0
   24.5250   36.0800   65.7320 Br  0  0  0  0  0  0  0  0  0  0  0  0
   22.7590   34.4870   67.2460 C   0  0  0  0  0  3  0  0  0  0  0  0
   21.9380   34.2240   68.3090 C   0  0  0  0  0  3  0  0  0  0  0  0
   13.7140   34.9900   71.7060 C   0  0  0  0  0  2  0  0  0  0  0  0
   12.9950   34.2740   70.6010 C   0  0  0  0  0  0  0  0  0  0  0  0
   12.9370   33.0220   70.5850 O   0  0  0  0  0  0  0  0  0  0  0  0
   12.3650   34.9820   69.5520 N   0  0  0  0  0  0  0  0  0  0  0  0
   11.4670   34.6700   69.1190 H   0  0  0  0  0  0  0  0  0  0  0  0
   12.7820   35.8640   69.1620 H   0  0  0  0  0  0  0  0  0  0  0  0
  1  6  1  0  0  0  0
  1  2  1  0  0  0  0
  2  3  1  0  0  0  0
  4  3  1  0  0  0  0
  5  4  1  0  0  0  0
  6  5  1  0  0  0  0
  7  8  1  0  0  0  0
  7  6  2  0  0  0  0
  8  9  2  0  0  0  0
  9  5  1  0  0  0  0
  9 10  1  0  0  0  0
 10 11  2  0  0  0  0
 12 10  1  0  0  0  0
 12 24  1  0  0  0  0
 13 12  1  0  0  0  0
 14 13  2  0  0  0  0
 15  8  1  0  0  0  0
 15 13  1  0  0  0  0
 16 15  1  0  0  0  0
 17  1  1  0  0  0  0
 18 17  1  0  0  0  0
 19 18  2  0  0  0  0
 20 22  2  0  0  0  0
 20 19  1  0  0  0  0
 21 20  1  0  0  0  0
 22 23  1  0  0  0  0
 23 17  2  0  0  0  0
 25 24  1  0  0  0  0
 26 25  2  0  0  0  0
 27 25  1  0  0  0  0
 28 27  1  0  0  0  0
 29 27  1  0  0  0  0
M  END
>  <Pose>
1

>  <Score>
-8.389

$$$$
