/Users/jonathanwahrer/Desktop/Msc/3_Semester/Drug_Design_Praktikum/waehrer_HTS_screening/HTS_experiment/out/docking_results/vina_output/4x21/0439_docked.pdbqt
 OpenBabel03212201393D

 28 32  0  0  1  0  0  0  0  0999 V2000
   17.2720   34.5780   70.9210 N   0  0  0  0  0  0  0  0  0  0  0  0
   16.4240   35.5690   70.6660 N   0  0  0  0  0  0  0  0  0  0  0  0
   17.0890   36.6580   70.2360 C   0  0  0  0  0  0  0  0  0  0  0  0
   16.5520   37.8220   69.8930 C   0  0  0  0  0  2  0  0  0  0  0  0
   18.4370   36.3650   70.2070 C   0  0  2  0  0  3  0  0  0  0  0  0
   18.5050   35.0510   70.6440 C   0  0  0  0  0  0  0  0  0  0  0  0
   19.5740   34.4090   70.7610 O   0  0  0  0  0  0  0  0  0  0  0  0
   15.3930   35.5120   70.7840 H   0  0  0  0  0  0  0  0  0  0  0  0
   19.4540   37.1530   69.8450 C   0  0  0  0  0  2  0  0  0  0  0  0
   19.9720   37.0070   68.5280 N   0  0  0  0  0  0  0  0  0  0  0  0
   19.3390   37.1960   67.7370 H   0  0  0  0  0  0  0  0  0  0  0  0
   21.3290   36.6130   68.2800 C   0  0  1  0  0  0  0  0  0  0  0  0
   22.1350   36.6560   69.5390 C   0  0  0  0  0  2  0  0  0  0  0  0
   23.4750   36.1560   69.2650 N   0  0  1  0  0  0  0  0  0  0  0  0
   23.3470   34.7840   68.7900 C   0  0  0  0  0  2  0  0  0  0  0  0
   24.0950   36.9910   68.2680 C   0  0  0  0  0  2  0  0  0  0  0  0
   22.6320   34.7160   67.5380 N   0  0  2  0  0  0  0  0  0  0  0  0
   23.2720   35.5940   66.5630 C   0  0  0  0  0  2  0  0  0  0  0  0
   21.2850   35.1840   67.7300 C   0  0  0  0  0  2  0  0  0  0  0  0
   23.3410   36.9580   67.0360 N   0  0  1  0  0  0  0  0  0  0  0  0
   22.0140   37.4830   67.2530 C   0  0  0  0  0  2  0  0  0  0  0  0
   16.9680   33.2700   71.3930 C   0  0  0  0  0  0  0  0  0  0  0  0
   16.4680   33.0920   72.6660 C   0  0  0  0  0  3  0  0  0  0  0  0
   16.1600   31.8260   73.1590 C   0  0  0  0  0  3  0  0  0  0  0  0
   16.3510   30.7240   72.3800 C   0  0  0  0  0  0  0  0  0  0  0  0
   15.9430   28.9540   73.0120 Br  0  0  0  0  0  0  0  0  0  0  0  0
   16.8520   30.8720   71.0970 C   0  0  0  0  0  3  0  0  0  0  0  0
   17.1470   32.1340   70.6340 C   0  0  0  0  0  3  0  0  0  0  0  0
  1 22  1  0  0  0  0
  2  8  1  0  0  0  0
  2  1  1  0  0  0  0
  3  2  1  0  0  0  0
  4  3  2  0  0  0  0
  5  9  1  1  0  0  0
  5  3  1  0  0  0  0
  5  6  1  0  0  0  0
  6  7  2  0  0  0  0
  6  1  1  0  0  0  0
 10  9  1  0  0  0  0
 11 10  1  0  0  0  0
 12 10  1  1  0  0  0
 12 13  1  0  0  0  0
 14 16  1  6  0  0  0
 14 13  1  0  0  0  0
 15 14  1  0  0  0  0
 17 18  1  6  0  0  0
 17 19  1  0  0  0  0
 17 15  1  0  0  0  0
 19 12  1  0  0  0  0
 20 18  1  1  0  0  0
 20 21  1  0  0  0  0
 20 16  1  0  0  0  0
 21 12  1  0  0  0  0
 22 23  1  0  0  0  0
 23 24  2  0  0  0  0
 25 26  1  0  0  0  0
 25 24  1  0  0  0  0
 27 25  2  0  0  0  0
 28 27  1  0  0  0  0
 28 22  2  0  0  0  0
M  END
>  <Pose>
1

>  <Score>
-7.702

$$$$
