/Users/jonathanwahrer/Desktop/Msc/3_Semester/Drug_Design_Praktikum/waehrer_HTS_screening/HTS_experiment/out/docking_results/vina_output/4x21/0441_docked.pdbqt
 OpenBabel03212201403D

 36 39  0  0  1  0  0  0  0  0999 V2000
   20.1690   38.2300   66.5100 C   0  0  0  0  0  0  0  0  0  0  0  0
   20.8540   37.0740   66.5720 N   0  0  0  0  0  0  0  0  0  0  0  0
   22.1610   37.0760   66.3630 C   0  0  0  0  0  0  0  0  0  0  0  0
   23.0460   36.0700   66.3700 N   0  0  0  0  0  0  0  0  0  0  0  0
   24.2430   36.6360   66.0940 C   0  0  0  0  0  3  0  0  0  0  0  0
   24.1010   37.9540   65.9210 N   0  0  0  0  0  0  0  0  0  0  0  0
   22.8160   38.2800   66.0800 C   0  0  0  0  0  0  0  0  0  0  0  0
   22.1190   39.4710   66.0130 C   0  0  0  0  0  0  0  0  0  0  0  0
   20.8030   39.4080   66.2340 N   0  0  0  0  0  0  0  0  0  0  0  0
   18.7600   38.2680   66.7250 N   0  0  0  0  0  0  0  0  0  0  0  0
   18.1710   37.9650   67.9690 C   0  0  0  0  0  0  0  0  0  0  0  0
   18.8810   37.6450   68.9380 O   0  0  0  0  0  0  0  0  0  0  0  0
   18.1540   38.5400   65.8980 H   0  0  0  0  0  0  0  0  0  0  0  0
   16.7050   38.0260   68.1180 C   0  0  0  0  0  2  0  0  0  0  0  0
   16.2840   37.9860   69.4510 O   0  0  0  0  0  0  0  0  0  0  0  0
   15.5990   36.8850   69.9160 C   0  0  0  0  0  0  0  0  0  0  0  0
   14.2530   36.7480   69.6780 C   0  0  0  0  0  3  0  0  0  0  0  0
   13.5480   35.6350   70.1460 C   0  0  0  0  0  3  0  0  0  0  0  0
   14.2110   34.6590   70.8570 C   0  0  0  0  0  0  0  0  0  0  0  0
   13.2450   33.1290   71.5000 Br  0  0  0  0  0  0  0  0  0  0  0  0
   15.5630   34.8000   71.0940 C   0  0  0  0  0  3  0  0  0  0  0  0
   16.2420   35.9020   70.6270 C   0  0  0  0  0  3  0  0  0  0  0  0
   22.8190   40.6350   65.7280 O   0  0  0  0  0  0  0  0  0  0  0  0
   22.6820   41.0150   64.7850 H   0  0  0  0  0  0  0  0  0  0  0  0
   22.8840   34.6870   66.6030 C   0  0  2  0  0  3  0  0  0  0  0  0
   21.8780   34.4290   67.5440 O   0  0  0  0  0  0  0  0  0  0  0  0
   22.6010   34.2360   68.7180 C   0  0  2  0  0  3  0  0  0  0  0  0
   23.6200   33.2110   68.2440 C   0  0  1  0  0  3  0  0  0  0  0  0
   24.0770   33.9080   66.9640 C   0  0  1  0  0  3  0  0  0  0  0  0
   21.7500   33.7130   69.8380 C   0  0  0  0  0  2  0  0  0  0  0  0
   21.7150   32.3480   69.9180 O   0  0  0  0  0  0  0  0  0  0  0  0
   22.6470   32.0110   69.9690 H   0  0  0  0  0  0  0  0  0  0  0  0
   24.6320   32.9910   69.1350 O   0  0  0  0  0  0  0  0  0  0  0  0
   24.3710   32.3710   69.8890 H   0  0  0  0  0  0  0  0  0  0  0  0
   24.4010   32.9440   65.9830 O   0  0  0  0  0  0  0  0  0  0  0  0
   23.6260   32.3290   65.9540 H   0  0  0  0  0  0  0  0  0  0  0  0
  1  2  2  0  0  0  0
  1 10  1  0  0  0  0
  3  4  1  0  0  0  0
  3  2  1  0  0  0  0
  5  4  1  0  0  0  0
  6  7  1  0  0  0  0
  6  5  2  0  0  0  0
  7  3  2  0  0  0  0
  8  7  1  0  0  0  0
  8  9  2  0  0  0  0
  9  1  1  0  0  0  0
 10 11  1  0  0  0  0
 11 14  1  0  0  0  0
 11 12  2  0  0  0  0
 13 10  1  0  0  0  0
 14 15  1  0  0  0  0
 15 16  1  0  0  0  0
 16 22  1  0  0  0  0
 17 16  2  0  0  0  0
 17 18  1  0  0  0  0
 18 19  2  0  0  0  0
 19 21  1  0  0  0  0
 19 20  1  0  0  0  0
 22 21  2  0  0  0  0
 23  8  1  0  0  0  0
 24 23  1  0  0  0  0
 25  4  1  1  0  0  0
 25 29  1  0  0  0  0
 25 26  1  0  0  0  0
 26 27  1  0  0  0  0
 27 30  1  1  0  0  0
 28 27  1  0  0  0  0
 28 33  1  1  0  0  0
 29 35  1  6  0  0  0
 29 28  1  0  0  0  0
 30 31  1  0  0  0  0
 31 32  1  0  0  0  0
 33 34  1  0  0  0  0
 36 35  1  0  0  0  0
M  END
>  <Pose>
1

>  <Score>
-8.270

$$$$
