/Users/jonathanwahrer/Desktop/Msc/3_Semester/Drug_Design_Praktikum/waehrer_HTS_screening/HTS_experiment/out/docking_results/vina_output/4x21/0454_docked.pdbqt
 OpenBabel03212201403D

 21 25  0  0  1  0  0  0  0  0999 V2000
   15.7580   34.5520   71.5910 C   0  0  0  0  0  2  0  0  0  0  0  0
   16.7120   35.4600   70.9520 C   0  0  0  0  0  0  0  0  0  0  0  0
   16.1900   36.4940   70.1560 C   0  0  0  0  0  0  0  0  0  0  0  0
   14.3190   36.8630   70.0090 Br  0  0  0  0  0  0  0  0  0  0  0  0
   17.1080   37.2490   69.4490 C   0  0  0  0  0  3  0  0  0  0  0  0
   18.4610   36.9920   69.5400 C   0  0  0  0  0  0  0  0  0  0  0  0
   19.0040   35.9890   70.3080 C   0  0  0  0  0  0  0  0  0  0  0  0
   19.5390   37.6620   68.8860 O   0  0  0  0  0  0  0  0  0  0  0  0
   18.0910   35.2440   71.0030 C   0  0  0  0  0  3  0  0  0  0  0  0
   20.3710   36.0740   70.1000 O   0  0  0  0  0  0  0  0  0  0  0  0
   20.5820   36.6460   68.7790 C   0  0  0  0  0  2  0  0  0  0  0  0
   16.0590   33.1880   71.7250 N   0  0  2  0  0  4  0  0  0  0  0  0
   14.6750   32.5920   71.6900 C   0  0  0  0  0  2  0  0  0  0  0  0
   14.6030   31.2530   72.1000 N   0  0  2  0  0  0  0  0  0  0  0  0
   15.1600   31.1800   73.4390 C   0  0  0  0  0  2  0  0  0  0  0  0
   15.3730   30.4840   71.1160 C   0  0  0  0  0  2  0  0  0  0  0  0
   16.5560   31.5280   73.3410 N   0  0  2  0  0  0  0  0  0  0  0  0
   16.7270   32.9020   72.9940 C   0  0  0  0  0  2  0  0  0  0  0  0
   17.2990   30.7130   72.3730 C   0  0  0  0  0  2  0  0  0  0  0  0
   16.7270   30.9830   71.0640 N   0  0  2  0  0  0  0  0  0  0  0  0
   16.7660   32.4260   70.7450 C   0  0  0  0  0  2  0  0  0  0  0  0
  2  9  1  0  0  0  0
  2  1  1  0  0  0  0
  3  2  2  0  0  0  0
  4  3  1  0  0  0  0
  5  6  2  0  0  0  0
  5  3  1  0  0  0  0
  6  7  1  0  0  0  0
  7  9  2  0  0  0  0
  8  6  1  0  0  0  0
 10  7  1  0  0  0  0
 11  8  1  0  0  0  0
 11 10  1  0  0  0  0
 12  1  1  6  0  0  0
 12 18  1  0  0  0  0
 13 12  1  0  0  0  0
 13 14  1  0  0  0  0
 14 16  1  6  0  0  0
 14 15  1  0  0  0  0
 17 19  1  6  0  0  0
 17 15  1  0  0  0  0
 18 17  1  0  0  0  0
 20 21  1  1  0  0  0
 20 16  1  0  0  0  0
 20 19  1  0  0  0  0
 21 12  1  0  0  0  0
M  END
>  <Pose>
1

>  <Score>
-7.620

$$$$
