/Users/jonathanwahrer/Desktop/Msc/3_Semester/Drug_Design_Praktikum/waehrer_HTS_screening/HTS_experiment/out/docking_results/vina_output/4x21/0455_docked.pdbqt
 OpenBabel03212201403D

 26 29  0  0  0  0  0  0  0  0999 V2000
   18.0540   32.5480   72.4280 N   0  0  0  0  0  0  0  0  0  0  0  0
   19.0080   31.8000   73.2880 C   0  0  0  0  0  2  0  0  0  0  0  0
   20.3590   32.3990   72.9110 C   0  0  0  0  0  2  0  0  0  0  0  0
   20.3230   33.2140   71.7530 N   0  0  0  0  0  0  0  0  0  0  0  0
   19.6430   32.5930   70.6460 C   0  0  0  0  0  2  0  0  0  0  0  0
   18.3410   32.0000   71.1010 C   0  0  0  0  0  2  0  0  0  0  0  0
   16.6970   32.2320   72.8280 C   0  0  0  0  0  2  0  0  0  0  0  0
   15.7230   32.9830   71.9970 C   0  0  0  0  0  0  0  0  0  0  0  0
   14.6290   32.3450   71.4160 C   0  0  0  0  0  0  0  0  0  0  0  0
   14.4570   30.4660   71.7120 Br  0  0  0  0  0  0  0  0  0  0  0  0
   13.6990   33.0190   70.6590 C   0  0  0  0  0  3  0  0  0  0  0  0
   13.8080   34.3700   70.4380 C   0  0  0  0  0  0  0  0  0  0  0  0
   14.8700   35.0250   70.9930 C   0  0  0  0  0  0  0  0  0  0  0  0
   12.8910   35.0870   69.6810 O   0  0  0  0  0  0  0  0  0  0  0  0
   15.8110   34.3390   71.7600 C   0  0  0  0  0  3  0  0  0  0  0  0
   14.9990   36.3890   70.7820 O   0  0  0  0  0  0  0  0  0  0  0  0
   14.2610   37.1000   69.8230 C   0  0  0  0  0  2  0  0  0  0  0  0
   12.9130   36.4890   69.6060 C   0  0  0  0  0  2  0  0  0  0  0  0
   20.0950   34.5990   71.9200 C   0  0  0  0  0  2  0  0  0  0  0  0
   19.7970   35.3550   70.7180 C   0  0  0  0  0  0  0  0  0  0  0  0
   18.6350   35.7410   70.4700 O   0  0  0  0  0  0  0  0  0  0  0  0
   20.8140   35.6790   69.7910 N   0  0  0  0  0  0  0  0  0  0  0  0
   21.8250   35.3890   69.9310 H   0  0  0  0  0  0  0  0  0  0  0  0
   20.5520   36.4360   68.5730 C   0  0  0  0  0  3  0  0  0  0  0  0
   21.1440   36.0190   67.2910 C   0  0  0  0  0  2  0  0  0  0  0  0
   21.7610   37.1790   68.0110 C   0  0  0  0  0  2  0  0  0  0  0  0
  1  7  1  0  0  0  0
  1  2  1  0  0  0  0
  3  2  1  0  0  0  0
  4 19  1  0  0  0  0
  4  3  1  0  0  0  0
  5  6  1  0  0  0  0
  5  4  1  0  0  0  0
  6  1  1  0  0  0  0
  8  7  1  0  0  0  0
  9 10  1  0  0  0  0
  9  8  2  0  0  0  0
 11  9  1  0  0  0  0
 12 11  2  0  0  0  0
 12 13  1  0  0  0  0
 13 15  2  0  0  0  0
 14 12  1  0  0  0  0
 15  8  1  0  0  0  0
 16 13  1  0  0  0  0
 17 16  1  0  0  0  0
 18 14  1  0  0  0  0
 18 17  1  0  0  0  0
 20 19  1  0  0  0  0
 21 20  2  0  0  0  0
 22 23  1  0  0  0  0
 22 20  1  0  0  0  0
 24 22  1  0  0  0  0
 25 26  1  0  0  0  0
 25 24  1  0  0  0  0
 26 24  1  0  0  0  0
M  END
>  <Pose>
1

>  <Score>
-7.509

$$$$
