/Users/jonathanwahrer/Desktop/Msc/3_Semester/Drug_Design_Praktikum/waehrer_HTS_screening/HTS_experiment/out/docking_results/vina_output/4x21/0459_docked.pdbqt
 OpenBabel03212201413D

 29 32  0  0  0  0  0  0  0  0999 V2000
   17.8220   37.2080   69.6910 C   0  0  0  0  0  0  0  0  0  0  0  0
   19.0340   36.7820   70.2510 C   0  0  0  0  0  3  0  0  0  0  0  0
   20.2140   36.7480   69.5440 C   0  0  0  0  0  3  0  0  0  0  0  0
   20.2490   37.1420   68.2240 C   0  0  0  0  0  0  0  0  0  0  0  0
   19.0650   37.5630   67.6560 C   0  0  0  0  0  3  0  0  0  0  0  0
   17.8680   37.5990   68.3720 C   0  0  0  0  0  3  0  0  0  0  0  0
   16.6640   37.2180   70.4480 O   0  0  0  0  0  0  0  0  0  0  0  0
   15.4870   36.5610   70.0830 C   0  0  0  0  0  2  0  0  0  0  0  0
   15.2950   35.2570   70.7400 C   0  0  0  0  0  0  0  0  0  0  0  0
   14.1770   34.4690   70.4350 C   0  0  0  0  0  0  0  0  0  0  0  0
   12.9150   35.1880   69.1870 Br  0  0  0  0  0  0  0  0  0  0  0  0
   13.9980   33.2350   71.0090 C   0  0  0  0  0  3  0  0  0  0  0  0
   14.9180   32.7320   71.9070 C   0  0  0  0  0  0  0  0  0  0  0  0
   16.0270   33.4870   72.2240 C   0  0  0  0  0  0  0  0  0  0  0  0
   15.0100   31.5440   72.6360 O   0  0  0  0  0  0  0  0  0  0  0  0
   16.2010   34.7380   71.6360 C   0  0  0  0  0  3  0  0  0  0  0  0
   16.7660   32.7540   73.1310 O   0  0  0  0  0  0  0  0  0  0  0  0
   16.3080   31.4140   73.1750 C   0  0  0  0  0  2  0  0  0  0  0  0
   21.4970   37.1120   67.4570 C   0  0  0  0  0  0  0  0  0  0  0  0
   22.5350   36.2680   67.5730 N   0  0  0  0  0  0  0  0  0  0  0  0
   23.4630   36.6040   66.6710 N   0  0  0  0  0  0  0  0  0  0  0  0
   23.0230   37.6520   65.9900 N   0  0  0  0  0  0  0  0  0  0  0  0
   21.8300   37.9580   66.4690 N   0  0  0  0  0  0  0  0  0  0  0  0
   24.7470   35.9780   66.4300 C   0  0  0  0  0  2  0  0  0  0  0  0
   24.7470   35.3030   65.1140 C   0  0  0  0  0  0  0  0  0  0  0  0
   24.6080   34.0700   65.0570 O   0  0  0  0  0  0  0  0  0  0  0  0
   24.9050   36.0730   63.9430 N   0  0  0  0  0  0  0  0  0  0  0  0
   25.4620   36.9730   63.9210 H   0  0  0  0  0  0  0  0  0  0  0  0
   24.4650   35.7610   63.0510 H   0  0  0  0  0  0  0  0  0  0  0  0
  1  2  1  0  0  0  0
  1  7  1  0  0  0  0
  3  2  2  0  0  0  0
  4  3  1  0  0  0  0
  5  4  2  0  0  0  0
  5  6  1  0  0  0  0
  6  1  2  0  0  0  0
  8  7  1  0  0  0  0
  8  9  1  0  0  0  0
  9 16  1  0  0  0  0
 10  9  2  0  0  0  0
 10 12  1  0  0  0  0
 11 10  1  0  0  0  0
 12 13  2  0  0  0  0
 13 14  1  0  0  0  0
 13 15  1  0  0  0  0
 14 17  1  0  0  0  0
 15 18  1  0  0  0  0
 16 14  2  0  0  0  0
 17 18  1  0  0  0  0
 19 20  2  0  0  0  0
 19  4  1  0  0  0  0
 21 20  1  0  0  0  0
 22 23  2  0  0  0  0
 22 21  1  0  0  0  0
 23 19  1  0  0  0  0
 24 21  1  0  0  0  0
 25 24  1  0  0  0  0
 26 25  2  0  0  0  0
 27 25  1  0  0  0  0
 28 27  1  0  0  0  0
 29 27  1  0  0  0  0
M  END
>  <Pose>
1

>  <Score>
-8.570

$$$$
