/Users/jonathanwahrer/Desktop/Msc/3_Semester/Drug_Design_Praktikum/waehrer_HTS_screening/HTS_experiment/out/docking_results/vina_output/4x21/0467_docked.pdbqt
 OpenBabel03212201413D

 28 31  0  0  1  0  0  0  0  0999 V2000
   18.8490   36.8520   69.6300 C   0  0  1  0  0  3  0  0  0  0  0  0
   19.6810   35.8930   70.0670 N   0  0  0  0  0  0  0  0  0  0  0  0
   20.8850   35.6420   69.4850 C   0  0  0  0  0  0  0  0  0  0  0  0
   21.1980   36.4100   68.4430 N   0  0  0  0  0  0  0  0  0  0  0  0
   20.4190   37.3760   67.9610 C   0  0  0  0  0  0  0  0  0  0  0  0
   19.2200   37.5870   68.5830 N   0  0  0  0  0  0  0  0  0  0  0  0
   17.6190   36.9750   70.3120 N   0  0  0  0  0  0  0  0  0  0  0  0
   17.2280   37.9290   70.4700 H   0  0  0  0  0  0  0  0  0  0  0  0
   16.9110   35.8850   70.7790 N   0  0  0  0  0  0  0  0  0  0  0  0
   15.8560   35.3730   70.3060 C   0  0  0  0  0  3  0  0  0  0  0  0
   15.2260   34.2210   70.9180 C   0  0  0  0  0  0  0  0  0  0  0  0
   13.9390   33.8420   70.6070 C   0  0  0  0  0  0  0  0  0  0  0  0
   12.9580   34.8500   69.3380 Br  0  0  0  0  0  0  0  0  0  0  0  0
   13.3650   32.7400   71.2120 C   0  0  0  0  0  3  0  0  0  0  0  0
   14.0480   31.9680   72.1540 C   0  0  0  0  0  0  0  0  0  0  0  0
   15.3510   32.3430   72.4750 C   0  0  0  0  0  0  0  0  0  0  0  0
   13.7360   30.8450   72.9030 O   0  0  0  0  0  0  0  0  0  0  0  0
   15.9030   33.4470   71.8580 C   0  0  0  0  0  3  0  0  0  0  0  0
   15.7970   31.4380   73.4120 O   0  0  0  0  0  0  0  0  0  0  0  0
   14.7490   30.5920   73.8410 C   0  0  0  0  0  2  0  0  0  0  0  0
   21.6950   34.6320   70.0090 N   0  0  0  0  0  0  0  0  0  0  0  0
   21.1960   33.7060   70.9980 C   0  0  0  0  0  2  0  0  0  0  0  0
   22.0920   32.4900   71.1080 C   0  0  0  0  0  2  0  0  0  0  0  0
   22.6840   32.0880   69.9570 O   0  0  0  0  0  0  0  0  0  0  0  0
   23.1270   33.0220   69.0730 C   0  0  0  0  0  2  0  0  0  0  0  0
   23.0570   34.4630   69.5710 C   0  0  0  0  0  2  0  0  0  0  0  0
   20.7730   38.1580   66.8750 O   0  0  0  0  0  0  0  0  0  0  0  0
   22.1080   38.2310   66.4500 C   0  0  0  0  0  1  0  0  0  0  0  0
  1  2  1  0  0  0  0
  1  7  1  6  0  0  0
  3 21  1  0  0  0  0
  3  2  2  0  0  0  0
  4  3  1  0  0  0  0
  5  4  2  0  0  0  0
  5  6  2  0  0  0  0
  6  1  1  0  0  0  0
  7  8  1  0  0  0  0
  7  9  1  0  0  0  0
 10  9  2  0  0  0  0
 10 11  1  0  0  0  0
 11 18  1  0  0  0  0
 12 11  2  0  0  0  0
 12 14  1  0  0  0  0
 13 12  1  0  0  0  0
 14 15  2  0  0  0  0
 15 16  1  0  0  0  0
 15 17  1  0  0  0  0
 16 19  1  0  0  0  0
 17 20  1  0  0  0  0
 18 16  2  0  0  0  0
 19 20  1  0  0  0  0
 21 22  1  0  0  0  0
 22 23  1  0  0  0  0
 24 23  1  0  0  0  0
 25 26  1  0  0  0  0
 25 24  1  0  0  0  0
 26 21  1  0  0  0  0
 27  5  1  0  0  0  0
 28 27  1  0  0  0  0
M  END
>  <Pose>
1

>  <Score>
-8.173

$$$$
