/Users/jonathanwahrer/Desktop/Msc/3_Semester/Drug_Design_Praktikum/waehrer_HTS_screening/HTS_experiment/out/docking_results/vina_output/4x21/0469_docked.pdbqt
 OpenBabel03212201413D

 32 36  0  0  0  0  0  0  0  0999 V2000
   19.3240   33.6720   71.6970 N   0  0  0  0  0  0  0  0  0  0  0  0
   18.7490   33.9850   72.9170 C   0  0  0  0  0  2  0  0  0  0  0  0
   17.4470   33.4020   73.3110 C   0  0  0  0  0  2  0  0  0  0  0  0
   16.7810   32.9140   72.1380 N   0  0  0  0  0  0  0  0  0  0  0  0
   17.5620   31.9830   71.3630 C   0  0  0  0  0  2  0  0  0  0  0  0
   18.7240   32.7600   70.8020 C   0  0  0  0  0  2  0  0  0  0  0  0
   20.7670   33.6930   71.6500 C   0  0  0  0  0  2  0  0  0  0  0  0
   21.2770   34.7980   70.7520 C   0  0  0  0  0  0  0  0  0  0  0  0
   21.4920   34.4850   69.3940 N   0  0  0  0  0  0  0  0  0  0  0  0
   21.2790   33.4860   69.0820 H   0  0  0  0  0  0  0  0  0  0  0  0
   21.4700   35.9050   71.2810 O   0  0  0  0  0  0  0  0  0  0  0  0
   21.9650   35.3870   68.4100 C   0  0  0  0  0  0  0  0  0  0  0  0
   23.1820   35.0910   67.7790 C   0  0  0  0  0  0  0  0  0  0  0  0
   24.1040   33.5110   68.2840 Br  0  0  0  0  0  0  0  0  0  0  0  0
   23.6770   35.9420   66.8200 C   0  0  0  0  0  3  0  0  0  0  0  0
   23.0240   37.0760   66.4510 C   0  0  0  0  0  0  0  0  0  0  0  0
   21.8260   37.3940   67.0520 C   0  0  0  0  0  0  0  0  0  0  0  0
   23.4870   37.9640   65.4890 O   0  0  0  0  0  0  0  0  0  0  0  0
   21.3030   36.5420   68.0310 C   0  0  0  0  0  3  0  0  0  0  0  0
   21.1850   38.5430   66.6630 O   0  0  0  0  0  0  0  0  0  0  0  0
   21.8300   39.6520   66.0860 C   0  0  0  0  0  2  0  0  0  0  0  0
   23.2350   39.3650   65.6620 C   0  0  0  0  0  2  0  0  0  0  0  0
   15.4900   33.2580   71.7040 C   0  0  0  0  0  0  0  0  0  0  0  0
   14.3970   32.4760   71.8910 N   0  0  0  0  0  0  0  0  0  0  0  0
   13.1720   32.8340   71.4650 C   0  0  0  0  0  3  0  0  0  0  0  0
   12.9720   33.9990   70.8250 N   0  0  0  0  0  0  0  0  0  0  0  0
   14.0010   34.8390   70.5940 C   0  0  0  0  0  0  0  0  0  0  0  0
   14.0940   36.0500   69.9870 N   0  0  0  0  0  0  0  0  0  0  0  0
   15.2440   34.4610   71.0350 C   0  0  0  0  0  0  0  0  0  0  0  0
   15.3650   36.4010   70.0570 N   0  0  0  0  0  0  0  0  0  0  0  0
   12.9850   36.7930   69.3850 C   0  0  0  0  0  1  0  0  0  0  0  0
   16.1020   35.4780   70.6780 C   0  0  0  0  0  3  0  0  0  0  0  0
  1  2  1  0  0  0  0
  2  3  1  0  0  0  0
  4  3  1  0  0  0  0
  5  4  1  0  0  0  0
  6  5  1  0  0  0  0
  6  1  1  0  0  0  0
  7  1  1  0  0  0  0
  8 11  2  0  0  0  0
  8  7  1  0  0  0  0
  9  8  1  0  0  0  0
 10  9  1  0  0  0  0
 12  9  1  0  0  0  0
 13 14  1  0  0  0  0
 13 12  2  0  0  0  0
 15 13  1  0  0  0  0
 16 15  2  0  0  0  0
 16 17  1  0  0  0  0
 17 19  2  0  0  0  0
 18 22  1  0  0  0  0
 18 16  1  0  0  0  0
 19 12  1  0  0  0  0
 20 17  1  0  0  0  0
 21 20  1  0  0  0  0
 22 21  1  0  0  0  0
 23 24  1  0  0  0  0
 23  4  1  0  0  0  0
 25 24  2  0  0  0  0
 26 25  1  0  0  0  0
 27 26  2  0  0  0  0
 27 29  1  0  0  0  0
 28 30  1  0  0  0  0
 28 27  1  0  0  0  0
 29 23  2  0  0  0  0
 30 32  2  0  0  0  0
 31 28  1  0  0  0  0
 32 29  1  0  0  0  0
M  END
>  <Pose>
1

>  <Score>
-9.219

$$$$
