/Users/jonathanwahrer/Desktop/Msc/3_Semester/Drug_Design_Praktikum/waehrer_HTS_screening/HTS_experiment/out/docking_results/vina_output/4x21/0504_docked.pdbqt
 OpenBabel03212201433D

 29 32  0  0  1  0  0  0  0  0999 V2000
   12.4480   23.7200   73.8250 Br  0  0  0  0  0  0  0  0  0  0  0  0
   14.1960   24.3240   74.2580 C   0  0  0  0  0  0  0  0  0  0  0  0
   14.4830   25.6320   74.5650 C   0  0  0  0  0  3  0  0  0  0  0  0
   15.7940   25.9950   74.8720 C   0  0  0  0  0  0  0  0  0  0  0  0
   16.8240   25.1160   74.8850 C   0  0  0  0  0  0  0  0  0  0  0  0
   16.5320   23.7850   74.5730 C   0  0  0  0  0  3  0  0  0  0  0  0
   15.2430   23.4080   74.2680 C   0  0  0  0  0  3  0  0  0  0  0  0
   18.0500   25.7330   75.2270 N   0  0  0  0  0  0  0  0  0  0  0  0
   17.7890   27.0990   75.4470 C   0  0  0  0  0  0  0  0  0  0  0  0
   18.6380   27.9760   75.7710 O   0  0  0  0  0  0  0  0  0  0  0  0
   16.3360   27.3450   75.2340 C   0  0  1  0  0  0  0  0  0  0  0  0
   16.1300   28.2850   74.1030 C   0  0  0  0  0  0  0  0  0  0  0  0
   15.4180   29.3480   74.2080 C   0  0  0  0  0  0  0  0  0  0  0  0
   14.7500   29.7280   75.4430 N   0  0  0  0  0  0  0  0  0  0  0  0
   14.9370   28.8420   76.5270 C   0  0  0  0  0  0  0  0  0  0  0  0
   15.6560   27.7570   76.4420 C   0  0  0  0  0  0  0  0  0  0  0  0
   15.7600   26.9390   77.6450 C   0  0  0  0  0  0  0  0  0  0  0  0
   15.8550   26.2760   78.5900 N   0  0  0  0  0  0  0  0  0  0  0  0
   15.4210   30.0600   72.8930 C   0  0  0  0  0  0  0  0  0  0  0  0
   16.2010   29.2860   72.0590 O   0  0  0  0  0  0  0  0  0  0  0  0
   16.6730   28.1870   72.7100 C   0  0  0  0  0  0  0  0  0  0  0  0
   17.4150   27.2470   72.2930 O   0  0  0  0  0  0  0  0  0  0  0  0
   15.9420   31.4730   73.0700 C   0  0  0  0  0  1  0  0  0  0  0  0
   14.0210   30.1150   72.3100 C   0  0  0  0  0  1  0  0  0  0  0  0
   19.3740   25.1020   75.3410 C   0  0  0  0  0  1  0  0  0  0  0  0
   14.1880   30.5970   75.4720 H   0  0  0  0  0  0  0  0  0  0  0  0
   14.2920   29.1720   77.7880 N   0  0  0  0  0  0  0  0  0  0  0  0
   13.2860   29.4310   77.7470 H   0  0  0  0  0  0  0  0  0  0  0  0
   14.8080   29.1510   78.6780 H   0  0  0  0  0  0  0  0  0  0  0  0
  1  2  1  0  0  0  0
  2  7  2  0  0  0  0
  2  3  1  0  0  0  0
  3  4  2  0  0  0  0
  4  5  1  0  0  0  0
  4 11  1  0  0  0  0
  5  8  1  0  0  0  0
  6  5  2  0  0  0  0
  7  6  1  0  0  0  0
  8 25  1  0  0  0  0
  8  9  1  0  0  0  0
  9 10  2  0  0  0  0
 11 12  1  6  0  0  0
 11  9  1  0  0  0  0
 11 16  1  0  0  0  0
 12 13  2  0  0  0  0
 13 14  1  0  0  0  0
 14 26  1  0  0  0  0
 14 15  1  0  0  0  0
 15 27  1  0  0  0  0
 16 15  2  0  0  0  0
 16 17  1  0  0  0  0
 17 18  3  0  0  0  0
 19 23  1  0  0  0  0
 19 13  1  0  0  0  0
 20 21  1  0  0  0  0
 20 19  1  0  0  0  0
 21 12  1  0  0  0  0
 22 21  2  0  0  0  0
 24 19  1  0  0  0  0
 27 29  1  0  0  0  0
 28 27  1  0  0  0  0
M  END
>  <Pose>
1

>  <Score>
-5.896

$$$$
