/Users/jonathanwahrer/Desktop/Msc/3_Semester/Drug_Design_Praktikum/waehrer_HTS_screening/HTS_experiment/out/docking_results/vina_output/4x21/0505_docked.pdbqt
 OpenBabel03212201433D

 30 33  0  0  1  0  0  0  0  0999 V2000
   15.7190   28.9650   79.0850 Br  0  0  0  0  0  0  0  0  0  0  0  0
   15.5630   27.8690   77.5370 C   0  0  0  0  0  0  0  0  0  0  0  0
   16.3380   28.1330   76.4290 C   0  0  0  0  0  3  0  0  0  0  0  0
   16.2420   27.3430   75.2800 C   0  0  0  0  0  0  0  0  0  0  0  0
   15.3610   26.3100   75.2960 C   0  0  0  0  0  0  0  0  0  0  0  0
   14.5670   26.0410   76.4310 C   0  0  0  0  0  3  0  0  0  0  0  0
   14.6680   26.8230   77.5580 C   0  0  0  0  0  3  0  0  0  0  0  0
   15.4150   25.6380   74.0440 N   0  0  0  0  0  0  0  0  0  0  0  0
   16.3590   26.2630   73.2100 C   0  0  0  0  0  0  0  0  0  0  0  0
   16.6760   25.9460   72.0360 O   0  0  0  0  0  0  0  0  0  0  0  0
   16.9500   27.4070   73.9670 C   0  0  1  0  0  0  0  0  0  0  0  0
   16.6880   28.6790   73.2850 C   0  0  0  0  0  0  0  0  0  0  0  0
   17.6910   29.5270   72.9470 C   0  0  0  0  0  0  0  0  0  0  0  0
   19.0180   29.2020   73.2450 O   0  0  0  0  0  0  0  0  0  0  0  0
   19.3190   28.0160   73.8860 C   0  0  0  0  0  0  0  0  0  0  0  0
   18.3770   27.1870   74.2190 C   0  0  0  0  0  0  0  0  0  0  0  0
   18.7890   25.9490   74.8970 C   0  0  0  0  0  0  0  0  0  0  0  0
   19.1060   24.9930   75.4300 N   0  0  0  0  0  0  0  0  0  0  0  0
   17.3930   30.7290   72.2990 C   0  0  0  0  0  0  0  0  0  0  0  0
   18.3260   31.5000   71.9930 O   0  0  0  0  0  0  0  0  0  0  0  0
   16.0840   31.0350   72.0120 C   0  0  0  0  0  3  0  0  0  0  0  0
   15.1050   30.1350   72.3790 C   0  0  0  0  0  0  0  0  0  0  0  0
   15.4400   29.0410   72.9750 O   0  0  0  0  0  0  0  0  0  0  0  0
   14.5800   24.4640   73.7250 C   0  0  0  0  0  1  0  0  0  0  0  0
   20.7050   27.7500   74.1590 N   0  0  0  0  0  0  0  0  0  0  0  0
   20.9600   26.8460   74.5530 H   0  0  0  0  0  0  0  0  0  0  0  0
   21.3880   28.4770   73.9510 H   0  0  0  0  0  0  0  0  0  0  0  0
   13.6560   30.4490   72.0730 C   0  0  0  0  0  2  0  0  0  0  0  0
   13.4670   30.4290   70.6920 O   0  0  0  0  0  0  0  0  0  0  0  0
   12.6870   29.8340   70.4770 H   0  0  0  0  0  0  0  0  0  0  0  0
  2  7  1  0  0  0  0
  2  1  1  0  0  0  0
  3  2  2  0  0  0  0
  4  5  2  0  0  0  0
  4  3  1  0  0  0  0
  5  6  1  0  0  0  0
  6  7  2  0  0  0  0
  8  5  1  0  0  0  0
  9  8  1  0  0  0  0
 10  9  2  0  0  0  0
 11  9  1  6  0  0  0
 11 16  1  0  0  0  0
 11  4  1  0  0  0  0
 12 11  1  0  0  0  0
 13 14  1  0  0  0  0
 13 12  2  0  0  0  0
 14 15  1  0  0  0  0
 15 25  1  0  0  0  0
 15 16  2  0  0  0  0
 16 17  1  0  0  0  0
 17 18  3  0  0  0  0
 19 13  1  0  0  0  0
 20 19  2  0  0  0  0
 21 19  1  0  0  0  0
 21 22  2  0  0  0  0
 22 23  1  0  0  0  0
 23 12  1  0  0  0  0
 24  8  1  0  0  0  0
 25 26  1  0  0  0  0
 27 25  1  0  0  0  0
 28 22  1  0  0  0  0
 29 28  1  0  0  0  0
 30 29  1  0  0  0  0
M  END
>  <Pose>
1

>  <Score>
-5.953

$$$$
