/Users/jonathanwahrer/Desktop/Msc/3_Semester/Drug_Design_Praktikum/waehrer_HTS_screening/HTS_experiment/out/docking_results/vina_output/4x21/0558_docked.pdbqt
 OpenBabel03212201443D

 29 32  0  0  1  0  0  0  0  0999 V2000
   18.0660   31.5920   70.0170 Br  0  0  0  0  0  0  0  0  0  0  0  0
   18.9990   33.1380   70.6050 C   0  0  0  0  0  0  0  0  0  0  0  0
   19.7260   33.9460   69.7260 C   0  0  0  0  0  3  0  0  0  0  0  0
   20.3960   35.0600   70.1580 C   0  0  0  0  0  0  0  0  0  0  0  0
   20.3570   35.3920   71.4800 C   0  0  0  0  0  0  0  0  0  0  0  0
   19.6430   34.6130   72.4020 C   0  0  0  0  0  3  0  0  0  0  0  0
   18.9800   33.5020   71.9380 C   0  0  0  0  0  3  0  0  0  0  0  0
   21.1070   36.5680   71.7280 N   0  0  0  0  0  0  0  0  0  0  0  0
   21.6420   36.9930   70.4990 C   0  0  0  0  0  0  0  0  0  0  0  0
   22.3700   37.9960   70.2760 O   0  0  0  0  0  0  0  0  0  0  0  0
   21.2150   36.0530   69.4400 C   0  0  1  0  0  0  0  0  0  0  0  0
   22.4220   35.4060   68.8300 C   0  0  0  0  0  0  0  0  0  0  0  0
   22.7270   35.4160   67.5590 C   0  0  0  0  0  0  0  0  0  0  0  0
   21.8570   36.0880   66.6680 N   0  0  0  0  0  0  0  0  0  0  0  0
   20.6890   36.7300   67.1530 C   0  0  0  0  0  0  0  0  0  0  0  0
   20.3810   36.7220   68.4270 C   0  0  0  0  0  0  0  0  0  0  0  0
   19.1550   37.4100   68.8470 C   0  0  0  0  0  0  0  0  0  0  0  0
   18.1960   37.9530   69.1960 N   0  0  0  0  0  0  0  0  0  0  0  0
   23.9930   34.6670   67.3720 C   0  0  0  0  0  0  0  0  0  0  0  0
   24.3990   34.2210   68.6410 O   0  0  0  0  0  0  0  0  0  0  0  0
   23.4610   34.6560   69.5570 C   0  0  0  0  0  0  0  0  0  0  0  0
   23.5050   34.4340   70.8150 O   0  0  0  0  0  0  0  0  0  0  0  0
   25.1020   35.5930   66.8680 C   0  0  0  0  0  1  0  0  0  0  0  0
   23.8060   33.5070   66.4050 C   0  0  0  0  0  1  0  0  0  0  0  0
   21.2310   37.0320   72.6830 H   0  0  0  0  0  0  0  0  0  0  0  0
   22.0510   36.1280   65.6340 H   0  0  0  0  0  0  0  0  0  0  0  0
   19.8100   37.4140   66.2190 N   0  0  0  0  0  0  0  0  0  0  0  0
   19.1590   36.9210   65.5870 H   0  0  0  0  0  0  0  0  0  0  0  0
   19.8470   38.4460   66.1940 H   0  0  0  0  0  0  0  0  0  0  0  0
  1  2  1  0  0  0  0
  2  7  1  0  0  0  0
  3  4  1  0  0  0  0
  3  2  2  0  0  0  0
  4  5  2  0  0  0  0
  5  8  1  0  0  0  0
  5  6  1  0  0  0  0
  7  6  2  0  0  0  0
  8 25  1  0  0  0  0
  9  8  1  0  0  0  0
 10  9  2  0  0  0  0
 11 16  1  6  0  0  0
 11  4  1  0  0  0  0
 11  9  1  0  0  0  0
 12 11  1  0  0  0  0
 12 21  1  0  0  0  0
 13 12  2  0  0  0  0
 14 15  1  0  0  0  0
 14 13  1  0  0  0  0
 15 16  2  0  0  0  0
 16 17  1  0  0  0  0
 17 18  3  0  0  0  0
 19 13  1  0  0  0  0
 19 20  1  0  0  0  0
 20 21  1  0  0  0  0
 21 22  2  0  0  0  0
 23 19  1  0  0  0  0
 24 19  1  0  0  0  0
 26 14  1  0  0  0  0
 27 15  1  0  0  0  0
 28 27  1  0  0  0  0
 29 27  1  0  0  0  0
M  END
>  <Pose>
1

>  <Score>
-6.357

$$$$
