/Users/jonathanwahrer/Desktop/Msc/3_Semester/Drug_Design_Praktikum/waehrer_HTS_screening/HTS_experiment/out/docking_results/vina_output/4x21/0566_docked.pdbqt
 OpenBabel03212201443D

 30 33  0  0  1  0  0  0  0  0999 V2000
   24.1750   33.8660   66.2030 Br  0  0  0  0  0  0  0  0  0  0  0  0
   23.3100   34.7520   67.6540 C   0  0  0  0  0  0  0  0  0  0  0  0
   22.5960   34.0410   68.5850 C   0  0  0  0  0  3  0  0  0  0  0  0
   21.9530   34.6840   69.6580 C   0  0  0  0  0  0  0  0  0  0  0  0
   22.0180   36.0410   69.8120 C   0  0  0  0  0  0  0  0  0  0  0  0
   22.7490   36.7670   68.8610 C   0  0  0  0  0  3  0  0  0  0  0  0
   23.3690   36.1190   67.8180 C   0  0  0  0  0  3  0  0  0  0  0  0
   21.2970   36.4570   70.9630 N   0  0  0  0  0  0  0  0  0  0  0  0
   20.7520   35.2980   71.5600 C   0  0  0  0  0  0  0  0  0  0  0  0
   20.0450   35.3500   72.6210 O   0  0  0  0  0  0  0  0  0  0  0  0
   21.1390   34.1430   70.7680 C   0  0  2  0  0  0  0  0  0  0  0  0
   21.8550   33.1340   71.5260 N   0  0  0  0  0  0  0  0  0  0  0  0
   20.8370   32.2460   72.0580 C   0  0  1  0  0  3  0  0  0  0  0  0
   19.8990   32.1120   70.8930 C   0  0  2  0  0  3  0  0  0  0  0  0
   19.8970   33.4540   70.2430 C   0  0  1  0  0  3  0  0  0  0  0  0
   18.6510   34.1060   70.6760 C   0  0  0  0  0  0  0  0  0  0  0  0
   18.3340   35.3390   70.6170 O   0  0  0  0  0  0  0  0  0  0  0  0
   17.7660   33.1310   71.2130 N   0  0  0  0  0  0  0  0  0  0  0  0
   18.4940   31.9240   71.3130 C   0  0  0  0  0  0  0  0  0  0  0  0
   18.0420   30.8050   71.7040 O   0  0  0  0  0  0  0  0  0  0  0  0
   21.2170   37.4610   71.2670 H   0  0  0  0  0  0  0  0  0  0  0  0
   22.4630   33.5390   72.2600 H   0  0  0  0  0  0  0  0  0  0  0  0
   21.4730   30.9530   72.4610 C   0  0  1  0  0  3  0  0  0  0  0  0
   22.3440   30.4320   71.3450 C   0  0  0  0  0  1  0  0  0  0  0  0
   22.3100   31.2110   73.5530 O   0  0  0  0  0  0  0  0  0  0  0  0
   23.2520   31.3140   73.2600 H   0  0  0  0  0  0  0  0  0  0  0  0
   16.3800   33.3290   71.5880 C   0  0  0  0  0  2  0  0  0  0  0  0
   15.4470   33.1730   70.4310 C   0  0  0  0  0  2  0  0  0  0  0  0
   14.6720   34.4900   70.3060 C   0  0  0  0  0  2  0  0  0  0  0  0
   13.4050   34.2820   69.5230 C   0  0  0  0  0  1  0  0  0  0  0  0
  1  2  1  0  0  0  0
  2  7  2  0  0  0  0
  2  3  1  0  0  0  0
  3  4  2  0  0  0  0
  4  5  1  0  0  0  0
  5  8  1  0  0  0  0
  6  5  2  0  0  0  0
  7  6  1  0  0  0  0
  8 21  1  0  0  0  0
  8  9  1  0  0  0  0
  9 10  2  0  0  0  0
 11  4  1  6  0  0  0
 11 12  1  0  0  0  0
 11  9  1  0  0  0  0
 12 13  1  0  0  0  0
 12 22  1  0  0  0  0
 13 23  1  6  0  0  0
 14 19  1  1  0  0  0
 14 13  1  0  0  0  0
 15 16  1  1  0  0  0
 15 11  1  0  0  0  0
 15 14  1  0  0  0  0
 16 18  1  0  0  0  0
 17 16  2  0  0  0  0
 18 19  1  0  0  0  0
 18 27  1  0  0  0  0
 19 20  2  0  0  0  0
 23 24  1  6  0  0  0
 23 25  1  0  0  0  0
 26 25  1  0  0  0  0
 28 27  1  0  0  0  0
 29 28  1  0  0  0  0
 30 29  1  0  0  0  0
M  END
>  <Pose>
1

>  <Score>
-7.569

$$$$
