/Users/jonathanwahrer/Desktop/Msc/3_Semester/Drug_Design_Praktikum/waehrer_HTS_screening/HTS_experiment/out/docking_results/vina_output/4x21/0571_docked.pdbqt
 OpenBabel03212201453D

 34 38  0  0  1  0  0  0  0  0999 V2000
   19.9240   29.3260   77.5710 Br  0  0  0  0  0  0  0  0  0  0  0  0
   19.6830   28.2880   75.9870 C   0  0  0  0  0  0  0  0  0  0  0  0
   18.4400   27.9310   75.5150 C   0  0  0  0  0  3  0  0  0  0  0  0
   18.2680   27.1620   74.3540 C   0  0  0  0  0  0  0  0  0  0  0  0
   19.4020   26.7700   73.6860 C   0  0  0  0  0  0  0  0  0  0  0  0
   20.6590   27.1260   74.1540 C   0  0  0  0  0  3  0  0  0  0  0  0
   20.8150   27.8800   75.2960 C   0  0  0  0  0  3  0  0  0  0  0  0
   19.0780   25.9930   72.5490 N   0  0  0  0  0  0  0  0  0  0  0  0
   17.6720   25.8890   72.4950 C   0  0  0  0  0  0  0  0  0  0  0  0
   17.0720   25.2500   71.5860 O   0  0  0  0  0  0  0  0  0  0  0  0
   17.1060   26.6300   73.6420 C   0  0  1  0  0  0  0  0  0  0  0  0
   16.3330   25.7290   74.5020 N   0  0  0  0  0  0  0  0  0  0  0  0
   15.2620   26.5350   75.0450 C   0  0  1  0  0  3  0  0  0  0  0  0
   15.0010   27.6470   74.1070 C   0  0  2  0  0  3  0  0  0  0  0  0
   16.1420   27.6200   73.1060 C   0  0  1  0  0  3  0  0  0  0  0  0
   16.5830   29.0040   72.9770 C   0  0  0  0  0  0  0  0  0  0  0  0
   17.5870   29.4120   72.3430 O   0  0  0  0  0  0  0  0  0  0  0  0
   15.6880   29.8800   73.6970 N   0  0  0  0  0  0  0  0  0  0  0  0
   15.0730   29.0100   74.6700 C   0  0  0  0  0  0  0  0  0  0  0  0
   14.6770   29.3700   75.7890 O   0  0  0  0  0  0  0  0  0  0  0  0
   19.7660   25.5710   71.8670 H   0  0  0  0  0  0  0  0  0  0  0  0
   16.9260   25.3210   75.2600 H   0  0  0  0  0  0  0  0  0  0  0  0
   14.0520   25.6770   75.3270 C   0  0  2  0  0  3  0  0  0  0  0  0
   13.9120   24.5400   74.3430 C   0  0  0  0  0  1  0  0  0  0  0  0
   12.9190   26.4640   75.3900 O   0  0  0  0  0  0  0  0  0  0  0  0
   12.9660   27.2360   74.7940 H   0  0  0  0  0  0  0  0  0  0  0  0
   15.4260   31.2690   73.4970 C   0  0  0  0  0  2  0  0  0  0  0  0
   14.1920   31.6010   72.7090 C   0  0  0  0  0  2  0  0  0  0  0  0
   14.3440   32.7110   71.7530 C   0  0  0  0  0  0  0  0  0  0  0  0
   13.3730   32.9110   70.7790 C   0  0  0  0  0  3  0  0  0  0  0  0
   13.4880   33.9440   69.9110 C   0  0  0  0  0  3  0  0  0  0  0  0
   14.5340   34.8210   69.9450 C   0  0  0  0  0  3  0  0  0  0  0  0
   15.4970   34.6130   70.9210 C   0  0  0  0  0  3  0  0  0  0  0  0
   15.4040   33.5790   71.8070 C   0  0  0  0  0  3  0  0  0  0  0  0
  2  1  1  0  0  0  0
  3  2  1  0  0  0  0
  4  3  2  0  0  0  0
  5  6  2  0  0  0  0
  5  4  1  0  0  0  0
  6  7  1  0  0  0  0
  7  2  2  0  0  0  0
  8  5  1  0  0  0  0
  9  8  1  0  0  0  0
 10  9  2  0  0  0  0
 11  9  1  6  0  0  0
 11  4  1  0  0  0  0
 11 12  1  0  0  0  0
 12 13  1  0  0  0  0
 12 22  1  0  0  0  0
 13 23  1  6  0  0  0
 14 19  1  1  0  0  0
 14 13  1  0  0  0  0
 15 16  1  1  0  0  0
 15 11  1  0  0  0  0
 15 14  1  0  0  0  0
 16 18  1  0  0  0  0
 17 16  2  0  0  0  0
 18 19  1  0  0  0  0
 19 20  2  0  0  0  0
 21  8  1  0  0  0  0
 23 24  1  6  0  0  0
 23 25  1  0  0  0  0
 26 25  1  0  0  0  0
 27 18  1  0  0  0  0
 28 27  1  0  0  0  0
 29 34  1  0  0  0  0
 29 28  1  0  0  0  0
 30 29  2  0  0  0  0
 31 32  2  0  0  0  0
 31 30  1  0  0  0  0
 32 33  1  0  0  0  0
 33 34  2  0  0  0  0
M  END
>  <Pose>
1

>  <Score>
-7.438

$$$$
