/Users/jonathanwahrer/Desktop/Msc/3_Semester/Drug_Design_Praktikum/waehrer_HTS_screening/HTS_experiment/out/docking_results/vina_output/4x21/0578_docked.pdbqt
 OpenBabel03212201453D

 27 30  0  0  1  0  0  0  0  0999 V2000
   13.4430   34.7770   70.1380 Br  0  0  0  0  0  0  0  0  0  0  0  0
   15.2800   35.2810   70.2630 C   0  0  0  0  0  0  0  0  0  0  0  0
   16.2620   34.3910   70.6190 C   0  0  0  0  0  3  0  0  0  0  0  0
   17.6230   34.7260   70.7220 C   0  0  0  0  0  0  0  0  0  0  0  0
   17.9580   36.0180   70.4450 C   0  0  0  0  0  0  0  0  0  0  0  0
   16.9650   36.9450   70.0790 C   0  0  0  0  0  3  0  0  0  0  0  0
   15.6410   36.5860   69.9880 C   0  0  0  0  0  3  0  0  0  0  0  0
   19.3590   36.2150   70.5770 N   0  0  0  0  0  0  0  0  0  0  0  0
   19.9210   34.9790   70.9550 C   0  0  0  0  0  0  0  0  0  0  0  0
   21.1710   34.7570   71.1570 O   0  0  0  0  0  0  0  0  0  0  0  0
   18.8260   34.0000   71.0730 C   0  0  2  0  0  0  0  0  0  0  0  0
   19.1420   33.0030   70.0350 N   0  0  0  0  0  0  0  0  0  0  0  0
   19.7380   31.8660   70.6630 C   0  0  2  0  0  3  0  0  0  0  0  0
   19.1670   31.8580   72.0330 C   0  0  1  0  0  3  0  0  0  0  0  0
   18.8200   33.2830   72.3720 C   0  0  2  0  0  3  0  0  0  0  0  0
   17.5710   33.1690   73.0900 C   0  0  0  0  0  0  0  0  0  0  0  0
   17.0490   34.0860   73.7900 O   0  0  0  0  0  0  0  0  0  0  0  0
   17.0320   31.8720   72.8840 N   0  0  0  0  0  0  0  0  0  0  0  0
   17.8530   31.1430   71.9830 C   0  0  0  0  0  0  0  0  0  0  0  0
   17.4930   30.1410   71.3330 O   0  0  0  0  0  0  0  0  0  0  0  0
   21.2490   31.8530   70.6470 C   0  0  0  0  0  1  0  0  0  0  0  0
   19.9010   37.1150   70.4240 H   0  0  0  0  0  0  0  0  0  0  0  0
   18.2870   32.7480   69.4920 H   0  0  0  0  0  0  0  0  0  0  0  0
   15.8090   31.4140   73.5290 C   0  0  0  0  0  2  0  0  0  0  0  0
   14.5960   31.6810   72.6900 C   0  0  0  0  0  2  0  0  0  0  0  0
   14.0280   30.4400   72.0560 C   0  0  0  0  0  2  0  0  0  0  0  0
   13.6700   30.8150   70.6130 C   0  0  0  0  0  1  0  0  0  0  0  0
  1  2  1  0  0  0  0
  2  3  1  0  0  0  0
  3  4  2  0  0  0  0
  5  8  1  0  0  0  0
  5  4  1  0  0  0  0
  6  5  2  0  0  0  0
  7  6  1  0  0  0  0
  7  2  2  0  0  0  0
  8  9  1  0  0  0  0
  9 11  1  0  0  0  0
  9 10  2  0  0  0  0
 11  4  1  6  0  0  0
 11 15  1  0  0  0  0
 12 13  1  0  0  0  0
 12 11  1  0  0  0  0
 13 21  1  1  0  0  0
 13 14  1  0  0  0  0
 14 19  1  6  0  0  0
 14 15  1  0  0  0  0
 15 16  1  6  0  0  0
 16 17  2  0  0  0  0
 18 16  1  0  0  0  0
 18 24  1  0  0  0  0
 19 18  1  0  0  0  0
 20 19  2  0  0  0  0
 22  8  1  0  0  0  0
 23 12  1  0  0  0  0
 25 24  1  0  0  0  0
 26 25  1  0  0  0  0
 27 26  1  0  0  0  0
M  END
>  <Pose>
1

>  <Score>
-7.958

$$$$
