/Users/jonathanwahrer/Desktop/Msc/3_Semester/Drug_Design_Praktikum/waehrer_HTS_screening/HTS_experiment/out/docking_results/vina_output/4x21/0588_docked.pdbqt
 OpenBabel03212201453D

 24 27  0  0  1  0  0  0  0  0999 V2000
   13.0830   34.6030   69.3750 Br  0  0  0  0  0  0  0  0  0  0  0  0
   14.8480   34.5960   70.0910 C   0  0  0  0  0  0  0  0  0  0  0  0
   15.6190   35.7090   69.9250 C   0  0  0  0  0  3  0  0  0  0  0  0
   16.9070   35.7320   70.4350 C   0  0  0  0  0  0  0  0  0  0  0  0
   17.4120   34.6280   71.1120 C   0  0  0  0  0  0  0  0  0  0  0  0
   16.6440   33.4950   71.2880 C   0  0  0  0  0  3  0  0  0  0  0  0
   15.3720   33.5180   70.7640 C   0  0  0  0  0  3  0  0  0  0  0  0
   18.7050   34.5370   71.6740 N   0  0  0  0  0  0  0  0  0  0  0  0
   18.9690   33.6740   72.6620 N   0  0  0  0  0  0  0  0  0  0  0  0
   20.2320   33.8360   72.9510 N   0  0  0  0  0  0  0  0  0  0  0  0
   20.7680   34.7680   72.1800 N   0  0  0  0  0  0  0  0  0  0  0  0
   19.7860   35.2260   71.3500 C   0  0  0  0  0  0  0  0  0  0  0  0
   20.0510   36.3010   70.3320 C   0  0  2  0  0  0  0  0  0  0  0  0
   18.9510   37.2620   70.2980 N   0  0  0  0  0  0  0  0  0  0  0  0
   17.5580   37.0160   70.1480 C   0  0  0  0  0  0  0  0  0  0  0  0
   16.8280   37.9620   69.7420 O   0  0  0  0  0  0  0  0  0  0  0  0
   20.0500   35.6150   68.9930 C   0  0  0  0  0  2  0  0  0  0  0  0
   20.7750   36.4560   67.9940 C   0  0  0  0  0  0  0  0  0  0  0  0
   22.0750   36.5540   68.4120 O   0  0  0  0  0  0  0  0  0  0  0  0
   22.2710   37.2420   69.5800 C   0  0  0  0  0  3  0  0  0  0  0  0
   21.3180   36.9970   70.6690 C   0  0  0  0  0  3  0  0  0  0  0  0
   20.7970   35.7310   66.6430 C   0  0  0  0  0  1  0  0  0  0  0  0
   20.1210   37.7890   67.7450 C   0  0  0  0  0  1  0  0  0  0  0  0
   19.2070   38.2910   70.3960 H   0  0  0  0  0  0  0  0  0  0  0  0
  1  2  1  0  0  0  0
  2  7  1  0  0  0  0
  3  2  2  0  0  0  0
  3  4  1  0  0  0  0
  4  5  2  0  0  0  0
  5  6  1  0  0  0  0
  5  8  1  0  0  0  0
  7  6  2  0  0  0  0
  8  9  1  0  0  0  0
  9 10  2  0  0  0  0
 11 10  1  0  0  0  0
 12  8  1  0  0  0  0
 12 11  2  0  0  0  0
 13 17  1  6  0  0  0
 13 21  1  0  0  0  0
 13 12  1  0  0  0  0
 14 13  1  0  0  0  0
 14 24  1  0  0  0  0
 15 14  1  0  0  0  0
 15  4  1  0  0  0  0
 16 15  2  0  0  0  0
 18 19  1  0  0  0  0
 18 17  1  0  0  0  0
 19 20  1  0  0  0  0
 20 21  2  0  0  0  0
 22 18  1  0  0  0  0
 23 18  1  0  0  0  0
M  END
>  <Pose>
1

>  <Score>
-8.624

$$$$
