/Users/jonathanwahrer/Desktop/Msc/3_Semester/Drug_Design_Praktikum/waehrer_HTS_screening/HTS_experiment/out/docking_results/vina_output/4x21/0591_docked.pdbqt
 OpenBabel03212201453D

 23 26  0  0  0  0  0  0  0  0999 V2000
   14.0490   31.5990   72.5520 Br  0  0  0  0  0  0  0  0  0  0  0  0
   15.1560   33.0020   71.8490 C   0  0  0  0  0  0  0  0  0  0  0  0
   16.4610   33.1390   72.2700 C   0  0  0  0  0  3  0  0  0  0  0  0
   17.2510   34.1480   71.7610 C   0  0  0  0  0  0  0  0  0  0  0  0
   16.7950   35.0570   70.8260 C   0  0  0  0  0  0  0  0  0  0  0  0
   15.4740   34.9040   70.4120 C   0  0  0  0  0  3  0  0  0  0  0  0
   14.6780   33.8970   70.9150 C   0  0  0  0  0  3  0  0  0  0  0  0
   17.4620   36.1350   70.2110 N   0  0  0  0  0  0  0  0  0  0  0  0
   16.8420   37.0850   69.5300 N   0  0  0  0  0  0  0  0  0  0  0  0
   17.7610   37.9310   69.0910 N   0  0  0  0  0  0  0  0  0  0  0  0
   18.9390   37.5160   69.4920 N   0  0  0  0  0  0  0  0  0  0  0  0
   18.7900   36.3740   70.2090 C   0  0  0  0  0  0  0  0  0  0  0  0
   19.9540   35.6930   70.7780 C   0  0  0  0  0  0  0  0  0  0  0  0
   19.7360   34.9310   71.9580 N   0  0  0  0  0  0  0  0  0  0  0  0
   18.6070   34.1500   72.3160 C   0  0  0  0  0  0  0  0  0  0  0  0
   18.7260   33.3100   73.2470 O   0  0  0  0  0  0  0  0  0  0  0  0
   20.6010   34.7400   69.7610 C   0  0  0  0  0  2  0  0  0  0  0  0
   22.0900   34.7190   69.9960 C   0  0  0  0  0  2  0  0  0  0  0  0
   22.6370   35.9290   69.4260 N   0  0  0  0  0  0  0  0  0  0  0  0
   21.8530   37.0520   69.8670 C   0  0  0  0  0  2  0  0  0  0  0  0
   21.0120   36.7490   71.0820 C   0  0  0  0  0  2  0  0  0  0  0  0
   22.6050   35.7850   67.9710 C   0  0  0  0  0  1  0  0  0  0  0  0
   20.5120   34.9510   72.6510 H   0  0  0  0  0  0  0  0  0  0  0  0
  2  3  1  0  0  0  0
  2  1  1  0  0  0  0
  4  3  2  0  0  0  0
  4 15  1  0  0  0  0
  5  4  1  0  0  0  0
  6  5  2  0  0  0  0
  6  7  1  0  0  0  0
  7  2  2  0  0  0  0
  8  5  1  0  0  0  0
  9  8  1  0  0  0  0
 10 11  1  0  0  0  0
 10  9  2  0  0  0  0
 11 12  2  0  0  0  0
 12  8  1  0  0  0  0
 12 13  1  0  0  0  0
 13 21  1  0  0  0  0
 13 14  1  0  0  0  0
 14 15  1  0  0  0  0
 14 23  1  0  0  0  0
 15 16  2  0  0  0  0
 17 18  1  0  0  0  0
 17 13  1  0  0  0  0
 19 20  1  0  0  0  0
 19 18  1  0  0  0  0
 20 21  1  0  0  0  0
 22 19  1  0  0  0  0
M  END
>  <Pose>
1

>  <Score>
-8.685

$$$$
