/Users/jonathanwahrer/Desktop/Msc/3_Semester/Drug_Design_Praktikum/waehrer_HTS_screening/HTS_experiment/out/docking_results/vina_output/4x21/0592_docked.pdbqt
 OpenBabel03212201453D

 27 30  0  0  1  0  0  0  0  0999 V2000
   25.1340   33.3250   69.8130 Br  0  0  0  0  0  0  0  0  0  0  0  0
   23.7280   34.2960   68.9830 C   0  0  0  0  0  0  0  0  0  0  0  0
   22.7050   34.7700   69.7560 C   0  0  0  0  0  3  0  0  0  0  0  0
   21.6700   35.4840   69.1440 C   0  0  0  0  0  0  0  0  0  0  0  0
   21.7150   35.6840   67.8040 C   0  0  0  0  0  0  0  0  0  0  0  0
   22.7720   35.1930   67.0100 C   0  0  0  0  0  3  0  0  0  0  0  0
   23.7860   34.4910   67.6150 C   0  0  0  0  0  3  0  0  0  0  0  0
   20.7160   36.3840   67.1510 O   0  0  0  0  0  0  0  0  0  0  0  0
   19.6660   36.8790   67.8930 C   0  0  0  0  0  0  0  0  0  0  0  0
   19.5550   36.7270   69.1910 C   0  0  0  0  0  0  0  0  0  0  0  0
   20.5560   36.0050   69.9640 C   0  0  1  0  0  0  0  0  0  0  0  0
   19.9690   34.9430   70.8170 C   0  0  0  0  0  0  0  0  0  0  0  0
   20.2050   35.2580   72.1260 C   0  0  0  0  0  0  0  0  0  0  0  0
   19.6630   34.2790   72.9090 N   0  0  0  0  0  0  0  0  0  0  0  0
   19.1170   33.4010   72.0850 N   0  0  0  0  0  0  0  0  0  0  0  0
   19.2790   33.7640   70.8060 C   0  0  0  0  0  0  0  0  0  0  0  0
   18.7750   32.9790   69.6390 C   0  0  0  0  0  1  0  0  0  0  0  0
   20.9170   36.4710   72.2390 N   0  0  0  0  0  0  0  0  0  0  0  0
   21.1460   36.9490   70.9380 C   0  0  0  0  0  0  0  0  0  0  0  0
   21.7500   38.0050   70.6110 O   0  0  0  0  0  0  0  0  0  0  0  0
   18.4230   37.2760   69.8990 C   0  0  0  0  0  0  0  0  0  0  0  0
   17.5270   37.7310   70.4740 N   0  0  0  0  0  0  0  0  0  0  0  0
   18.6280   32.5390   72.4450 H   0  0  0  0  0  0  0  0  0  0  0  0
   21.2190   36.9250   73.1640 H   0  0  0  0  0  0  0  0  0  0  0  0
   18.6360   37.6040   67.2000 N   0  0  0  0  0  0  0  0  0  0  0  0
   18.1070   37.1380   66.4320 H   0  0  0  0  0  0  0  0  0  0  0  0
   18.3910   38.5910   67.4370 H   0  0  0  0  0  0  0  0  0  0  0  0
  2  3  1  0  0  0  0
  2  1  1  0  0  0  0
  4  3  2  0  0  0  0
  5  4  1  0  0  0  0
  6  7  1  0  0  0  0
  6  5  2  0  0  0  0
  7  2  2  0  0  0  0
  8  5  1  0  0  0  0
  8  9  1  0  0  0  0
  9 10  2  0  0  0  0
 10 21  1  0  0  0  0
 10 11  1  0  0  0  0
 11  4  1  6  0  0  0
 11 12  1  0  0  0  0
 11 19  1  0  0  0  0
 12 13  1  0  0  0  0
 13 18  1  0  0  0  0
 13 14  2  0  0  0  0
 15 23  1  0  0  0  0
 15 14  1  0  0  0  0
 16 12  2  0  0  0  0
 16 15  1  0  0  0  0
 17 16  1  0  0  0  0
 18 24  1  0  0  0  0
 19 18  1  0  0  0  0
 20 19  2  0  0  0  0
 21 22  3  0  0  0  0
 25 27  1  0  0  0  0
 25  9  1  0  0  0  0
 26 25  1  0  0  0  0
M  END
>  <Pose>
1

>  <Score>
-6.116

$$$$
