/Users/jonathanwahrer/Desktop/Msc/3_Semester/Drug_Design_Praktikum/waehrer_HTS_screening/HTS_experiment/out/docking_results/vina_output/4x21/0616_docked.pdbqt
 OpenBabel03212201463D

 28 31  0  0  0  0  0  0  0  0999 V2000
   21.1560   36.7620   70.1050 C   0  0  0  0  0  0  0  0  0  0  0  0
   21.6590   37.6340   70.9110 O   0  0  0  0  0  0  0  0  0  0  0  0
   22.0470   36.2030   69.1880 N   0  0  0  0  0  0  0  0  0  0  0  0
   21.7340   35.2270   68.1790 C   0  0  0  0  0  2  0  0  0  0  0  0
   22.9500   34.8840   67.3090 C   0  0  0  0  0  2  0  0  0  0  0  0
   23.5780   36.1250   66.8820 N   0  0  0  0  0  0  0  0  0  0  0  0
   23.7610   37.2150   67.8410 C   0  0  0  0  0  2  0  0  0  0  0  0
   23.4760   36.6150   69.2200 C   0  0  0  0  0  2  0  0  0  0  0  0
   24.0150   36.3040   65.5510 C   0  0  0  0  0  0  0  0  0  0  0  0
   23.8350   35.3500   64.7560 O   0  0  0  0  0  0  0  0  0  0  0  0
   19.7460   36.4480   70.2210 C   0  0  0  0  0  0  0  0  0  0  0  0
   19.0970   35.4580   70.8390 N   0  0  0  0  0  0  0  0  0  0  0  0
   17.7430   35.5680   70.6620 C   0  0  0  0  0  0  0  0  0  0  0  0
   19.4960   34.6880   71.3950 H   0  0  0  0  0  0  0  0  0  0  0  0
   17.4970   36.6740   69.8970 C   0  0  0  0  0  0  0  0  0  0  0  0
   16.6780   34.8020   71.0960 C   0  0  0  0  0  3  0  0  0  0  0  0
   16.1820   37.0120   69.5680 C   0  0  0  0  0  3  0  0  0  0  0  0
   18.7190   37.2210   69.6220 C   0  0  0  0  0  3  0  0  0  0  0  0
   15.1200   36.2570   69.9940 C   0  0  0  0  0  0  0  0  0  0  0  0
   13.3100   36.7100   69.5470 Br  0  0  0  0  0  0  0  0  0  0  0  0
   15.3750   35.1440   70.7640 C   0  0  0  0  0  3  0  0  0  0  0  0
   24.6380   37.5600   65.1660 C   0  0  0  0  0  2  0  0  0  0  0  0
   26.0080   37.4500   64.7140 N   0  0  0  0  0  0  0  0  0  0  0  0
   26.8680   38.2180   65.6170 C   0  0  0  0  0  2  0  0  0  0  0  0
   27.1470   39.5740   65.0690 C   0  0  0  0  0  2  0  0  0  0  0  0
   26.0370   40.0690   64.3880 O   0  0  0  0  0  0  0  0  0  0  0  0
   25.8180   39.3670   63.2000 C   0  0  0  0  0  2  0  0  0  0  0  0
   26.1910   37.9100   63.3490 C   0  0  0  0  0  2  0  0  0  0  0  0
  1 11  1  0  0  0  0
  1  2  2  0  0  0  0
  3  8  1  0  0  0  0
  3  1  1  0  0  0  0
  4  3  1  0  0  0  0
  5  4  1  0  0  0  0
  6  5  1  0  0  0  0
  6  7  1  0  0  0  0
  7  8  1  0  0  0  0
  9  6  1  0  0  0  0
 10  9  2  0  0  0  0
 11 12  1  0  0  0  0
 12 14  1  0  0  0  0
 13 12  1  0  0  0  0
 13 16  1  0  0  0  0
 15 13  2  0  0  0  0
 17 15  1  0  0  0  0
 17 19  2  0  0  0  0
 18 15  1  0  0  0  0
 18 11  2  0  0  0  0
 19 21  1  0  0  0  0
 20 19  1  0  0  0  0
 21 16  2  0  0  0  0
 22  9  1  0  0  0  0
 23 22  1  0  0  0  0
 23 24  1  0  0  0  0
 25 24  1  0  0  0  0
 26 25  1  0  0  0  0
 27 28  1  0  0  0  0
 27 26  1  0  0  0  0
 28 23  1  0  0  0  0
M  END
>  <Pose>
1

>  <Score>
-8.455

$$$$
