/Users/jonathanwahrer/Desktop/Msc/3_Semester/Drug_Design_Praktikum/waehrer_HTS_screening/HTS_experiment/out/docking_results/vina_output/4x21/0617_docked.pdbqt
 OpenBabel03212201463D

 25 28  0  0  0  0  0  0  0  0999 V2000
   13.2480   34.0990   71.5100 Br  0  0  0  0  0  0  0  0  0  0  0  0
   14.6940   35.2100   70.9690 C   0  0  0  0  0  0  0  0  0  0  0  0
   15.9810   34.7220   70.8800 C   0  0  0  0  0  3  0  0  0  0  0  0
   17.0410   35.5150   70.4900 C   0  0  0  0  0  0  0  0  0  0  0  0
   16.7850   36.8370   70.1820 C   0  0  0  0  0  0  0  0  0  0  0  0
   17.9750   37.3640   69.8410 N   0  0  0  0  0  0  0  0  0  0  0  0
   18.9600   36.4350   69.9190 C   0  0  0  0  0  0  0  0  0  0  0  0
   18.3850   35.2510   70.3310 C   0  0  0  0  0  0  0  0  0  0  0  0
   19.1770   34.1720   70.4830 N   0  0  0  0  0  0  0  0  0  0  0  0
   20.5010   34.2180   70.2450 C   0  0  0  0  0  3  0  0  0  0  0  0
   21.0870   35.3540   69.8440 N   0  0  0  0  0  0  0  0  0  0  0  0
   20.3170   36.4410   69.6870 C   0  0  0  0  0  0  0  0  0  0  0  0
   20.8490   37.5150   69.3120 O   0  0  0  0  0  0  0  0  0  0  0  0
   15.4910   37.3140   70.2750 C   0  0  0  0  0  3  0  0  0  0  0  0
   14.4250   36.5290   70.6660 C   0  0  0  0  0  3  0  0  0  0  0  0
   18.1440   38.3450   69.5520 H   0  0  0  0  0  0  0  0  0  0  0  0
   22.5360   35.4130   69.5850 C   0  0  0  0  0  2  0  0  0  0  0  0
   22.8840   34.5910   68.4040 C   0  0  0  0  0  2  0  0  0  0  0  0
   23.9620   35.0450   67.6030 N   0  0  0  0  0  0  0  0  0  0  0  0
   24.0870   36.4570   67.4890 C   0  0  0  0  0  2  0  0  0  0  0  0
   23.4530   37.0170   66.2480 C   0  0  0  0  0  2  0  0  0  0  0  0
   23.6130   36.1480   65.1020 N   0  0  0  0  0  0  0  0  0  0  0  0
   24.6670   35.1720   65.3240 C   0  0  0  0  0  2  0  0  0  0  0  0
   22.7190   35.6770   64.8330 H   0  0  0  0  0  0  0  0  0  0  0  0
   24.1860   34.2710   66.4350 C   0  0  0  0  0  2  0  0  0  0  0  0
  2  1  1  0  0  0  0
  3  2  1  0  0  0  0
  4  3  2  0  0  0  0
  5 14  2  0  0  0  0
  5  4  1  0  0  0  0
  6  7  1  0  0  0  0
  6  5  1  0  0  0  0
  7  8  2  0  0  0  0
  8  9  1  0  0  0  0
  8  4  1  0  0  0  0
 10  9  2  0  0  0  0
 11 10  1  0  0  0  0
 12 11  1  0  0  0  0
 12  7  1  0  0  0  0
 13 12  2  0  0  0  0
 14 15  1  0  0  0  0
 15  2  2  0  0  0  0
 16  6  1  0  0  0  0
 17 11  1  0  0  0  0
 18 17  1  0  0  0  0
 19 18  1  0  0  0  0
 20 19  1  0  0  0  0
 21 20  1  0  0  0  0
 22 23  1  0  0  0  0
 22 21  1  0  0  0  0
 23 25  1  0  0  0  0
 24 22  1  0  0  0  0
 25 19  1  0  0  0  0
M  END
>  <Pose>
1

>  <Score>
-7.781

$$$$
