/Users/jonathanwahrer/Desktop/Msc/3_Semester/Drug_Design_Praktikum/waehrer_HTS_screening/HTS_experiment/out/docking_results/vina_output/4x21/0624_docked.pdbqt
 OpenBabel03212201463D

 22 25  0  0  0  0  0  0  0  0999 V2000
   13.5370   36.5840   69.6890 Br  0  0  0  0  0  0  0  0  0  0  0  0
   15.2550   36.0330   70.2970 C   0  0  0  0  0  0  0  0  0  0  0  0
   15.3400   35.0110   71.2190 C   0  0  0  0  0  3  0  0  0  0  0  0
   16.5890   34.5830   71.6860 C   0  0  0  0  0  0  0  0  0  0  0  0
   17.6990   35.2000   71.2050 C   0  0  0  0  0  0  0  0  0  0  0  0
   17.6650   36.2240   70.2840 C   0  0  0  0  0  0  0  0  0  0  0  0
   16.4310   36.6260   69.8430 C   0  0  0  0  0  3  0  0  0  0  0  0
   18.8620   36.7570   69.8860 C   0  0  0  0  0  0  0  0  0  0  0  0
   18.8450   37.6810   69.0550 O   0  0  0  0  0  0  0  0  0  0  0  0
   20.0810   36.3070   70.3700 C   0  0  0  0  0  0  0  0  0  0  0  0
   20.0450   35.2800   71.2890 C   0  0  0  0  0  3  0  0  0  0  0  0
   18.8520   34.7400   71.6950 N   0  0  0  0  0  0  0  0  0  0  0  0
   18.5310   33.6800   72.6240 C   0  0  0  0  0  3  0  0  0  0  0  0
   17.0320   33.5530   72.6400 C   0  0  0  0  0  3  0  0  0  0  0  0
   21.3470   36.8850   69.9340 C   0  0  0  0  0  0  0  0  0  0  0  0
   21.9090   37.7390   70.6570 O   0  0  0  0  0  0  0  0  0  0  0  0
   21.9480   36.4870   68.6940 N   0  0  0  0  0  0  0  0  0  0  0  0
   23.2030   37.0450   68.2380 C   0  0  0  0  0  2  0  0  0  0  0  0
   21.3160   35.5010   67.8400 C   0  0  0  0  0  2  0  0  0  0  0  0
   22.9400   37.5820   66.8250 C   0  0  0  0  0  2  0  0  0  0  0  0
   22.3880   36.5860   66.0560 O   0  0  0  0  0  0  0  0  0  0  0  0
   21.1410   36.1720   66.4760 C   0  0  0  0  0  2  0  0  0  0  0  0
  1  2  1  0  0  0  0
  2  3  1  0  0  0  0
  3  4  2  0  0  0  0
  4 14  1  0  0  0  0
  5  4  1  0  0  0  0
  5 12  1  0  0  0  0
  6  5  2  0  0  0  0
  7  6  1  0  0  0  0
  7  2  2  0  0  0  0
  8  6  1  0  0  0  0
  8 10  1  0  0  0  0
  9  8  2  0  0  0  0
 10 11  2  0  0  0  0
 11 12  1  0  0  0  0
 12 13  1  0  0  0  0
 13 14  2  0  0  0  0
 15 10  1  0  0  0  0
 15 16  2  0  0  0  0
 17 15  1  0  0  0  0
 18 17  1  0  0  0  0
 19 17  1  0  0  0  0
 20 18  1  0  0  0  0
 21 22  1  0  0  0  0
 21 20  1  0  0  0  0
 22 19  1  0  0  0  0
M  END
>  <Pose>
1

>  <Score>
-8.722

$$$$
