/Users/jonathanwahrer/Desktop/Msc/3_Semester/Drug_Design_Praktikum/waehrer_HTS_screening/HTS_experiment/out/docking_results/vina_output/4x21/0625_docked.pdbqt
 OpenBabel03212201473D

 31 34  0  0  0  0  0  0  0  0999 V2000
   23.7090   32.8350   69.9950 Br  0  0  0  0  0  0  0  0  0  0  0  0
   21.8690   32.8790   70.4000 C   0  0  0  0  0  0  0  0  0  0  0  0
   21.1620   34.0710   70.4080 C   0  0  0  0  0  3  0  0  0  0  0  0
   19.8330   34.1320   70.7140 C   0  0  0  0  0  0  0  0  0  0  0  0
   18.9720   35.1930   70.7160 N   0  0  0  0  0  0  0  0  0  0  0  0
   17.7510   34.7140   71.0130 C   0  0  0  0  0  0  0  0  0  0  0  0
   17.8440   33.3140   71.2370 C   0  0  0  0  0  0  0  0  0  0  0  0
   19.1630   33.0020   71.0270 C   0  0  0  0  0  0  0  0  0  0  0  0
   19.8530   31.7870   71.0240 C   0  0  0  0  0  3  0  0  0  0  0  0
   21.2020   31.7090   70.7120 C   0  0  0  0  0  0  0  0  0  0  0  0
   19.4720   36.5820   70.7170 C   0  0  0  0  0  2  0  0  0  0  0  0
   19.3390   37.0610   69.2530 C   0  0  0  0  0  0  0  0  0  0  0  0
   20.4460   36.8820   68.4760 C   0  0  0  0  0  3  0  0  0  0  0  0
   20.3960   37.2830   67.1310 C   0  0  0  0  0  3  0  0  0  0  0  0
   19.2850   37.8350   66.5670 C   0  0  0  0  0  3  0  0  0  0  0  0
   18.1770   37.9930   67.4000 C   0  0  0  0  0  3  0  0  0  0  0  0
   18.2160   37.6030   68.7450 C   0  0  0  0  0  3  0  0  0  0  0  0
   16.4630   35.4040   71.0520 C   0  0  0  0  0  2  0  0  0  0  0  0
   15.2730   34.6670   70.7590 N   0  0  0  0  0  4  0  0  0  0  0  0
   14.7420   34.2780   69.5740 C   0  0  0  0  0  2  0  0  0  0  0  0
   13.2010   34.3000   69.7190 C   0  0  0  0  0  2  0  0  0  0  0  0
   13.0730   34.0910   71.2260 C   0  0  0  0  0  2  0  0  0  0  0  0
   14.1820   35.0290   71.6810 C   0  0  0  0  0  2  0  0  0  0  0  0
   15.5620   33.6610   71.3040 H   0  0  0  0  0  0  0  0  0  0  0  0
   16.8130   32.4120   71.7670 C   0  0  0  0  0  0  0  0  0  0  0  0
   16.4360   32.6020   72.9550 O   0  0  0  0  0  0  0  0  0  0  0  0
   16.2210   31.4000   71.0870 O   0  0  0  0  0  0  0  0  0  0  0  0
   15.4830   30.3110   71.5090 C   0  0  0  0  0  2  0  0  0  0  0  0
   13.9920   30.5790   71.6700 C   0  0  0  0  0  1  0  0  0  0  0  0
   21.9220   30.5010   70.6910 O   0  0  0  0  0  0  0  0  0  0  0  0
   22.6220   30.3240   71.4260 H   0  0  0  0  0  0  0  0  0  0  0  0
  1  2  1  0  0  0  0
  2  3  2  0  0  0  0
  2 10  1  0  0  0  0
  3  4  1  0  0  0  0
  4  5  1  0  0  0  0
  4  8  2  0  0  0  0
  5 11  1  0  0  0  0
  5  6  1  0  0  0  0
  6 18  1  0  0  0  0
  6  7  2  0  0  0  0
  7 25  1  0  0  0  0
  8  7  1  0  0  0  0
  9  8  1  0  0  0  0
 10  9  2  0  0  0  0
 12 11  1  0  0  0  0
 13 12  2  0  0  0  0
 14 13  1  0  0  0  0
 15 14  2  0  0  0  0
 15 16  1  0  0  0  0
 16 17  2  0  0  0  0
 17 12  1  0  0  0  0
 19 18  1  0  0  0  0
 19 24  1  0  0  0  0
 19 23  1  0  0  0  0
 20 21  1  0  0  0  0
 20 19  1  0  0  0  0
 21 22  1  0  0  0  0
 22 23  1  0  0  0  0
 25 26  2  0  0  0  0
 27 28  1  0  0  0  0
 27 25  1  0  0  0  0
 28 29  1  0  0  0  0
 30 10  1  0  0  0  0
 30 31  1  0  0  0  0
M  END
>  <Pose>
1

>  <Score>
-8.119

$$$$
