/Users/jonathanwahrer/Desktop/Msc/3_Semester/Drug_Design_Praktikum/waehrer_HTS_screening/HTS_experiment/out/docking_results/vina_output/4x21/0626_docked.pdbqt
 OpenBabel03212201473D

 32 35  0  0  0  0  0  0  0  0999 V2000
   20.0520   34.6060   70.0990 N   0  0  0  0  0  0  0  0  0  0  0  0
   20.3030   34.7690   71.4670 C   0  0  0  0  0  0  0  0  0  0  0  0
   21.1800   35.5800   71.8570 O   0  0  0  0  0  0  0  0  0  0  0  0
   19.2780   33.9110   69.8670 H   0  0  0  0  0  0  0  0  0  0  0  0
   19.5920   34.0380   72.5220 C   0  0  0  0  0  2  0  0  0  0  0  0
   18.3720   33.4150   72.1950 N   0  0  0  0  0  0  0  0  0  0  0  0
   18.4130   32.1400   71.5750 C   0  0  0  0  0  2  0  0  0  0  0  0
   17.1010   31.8000   70.8680 C   0  0  0  0  0  2  0  0  0  0  0  0
   16.0610   31.9390   71.7940 N   0  0  0  0  0  0  0  0  0  0  0  0
   16.3510   32.4720   73.0680 C   0  0  0  0  0  2  0  0  0  0  0  0
   17.3020   33.6290   73.1100 C   0  0  0  0  0  2  0  0  0  0  0  0
   14.7680   32.0020   71.2810 C   0  0  0  0  0  2  0  0  0  0  0  0
   14.1300   33.3110   71.1420 C   0  0  0  0  0  0  0  0  0  0  0  0
   12.8740   33.3440   71.4450 O   0  0  0  0  0  0  0  0  0  0  0  0
   14.7050   34.5080   70.7310 N   0  0  0  0  0  0  0  0  0  0  0  0
   15.7150   34.5490   70.4830 H   0  0  0  0  0  0  0  0  0  0  0  0
   13.9630   35.7610   70.6300 C   0  0  0  0  0  3  0  0  0  0  0  0
   14.4810   36.8840   69.8320 C   0  0  0  0  0  2  0  0  0  0  0  0
   13.3050   36.0820   69.3060 C   0  0  0  0  0  2  0  0  0  0  0  0
   20.6870   35.2630   69.0230 C   0  0  0  0  0  0  0  0  0  0  0  0
   20.2060   36.4950   68.6080 C   0  0  0  0  0  0  0  0  0  0  0  0
   18.6770   37.2040   69.5250 Br  0  0  0  0  0  0  0  0  0  0  0  0
   20.7600   37.2220   67.5790 C   0  0  0  0  0  3  0  0  0  0  0  0
   21.8490   36.7430   66.8940 C   0  0  0  0  0  0  0  0  0  0  0  0
   22.6170   37.1730   65.8750 N   0  0  0  0  0  0  0  0  0  0  0  0
   22.3390   35.5300   67.2860 C   0  0  0  0  0  0  0  0  0  0  0  0
   23.5820   36.2750   65.6020 C   0  0  0  0  0  0  0  0  0  0  0  0
   23.3910   35.2750   66.4810 N   0  0  0  0  0  0  0  0  0  0  0  0
   23.9810   34.4000   66.5420 H   0  0  0  0  0  0  0  0  0  0  0  0
   21.7790   34.7850   68.3340 C   0  0  0  0  0  3  0  0  0  0  0  0
   24.5720   36.3780   64.6050 O   0  0  0  0  0  0  0  0  0  0  0  0
   24.8150   35.4930   64.1400 H   0  0  0  0  0  0  0  0  0  0  0  0
  1  2  1  0  0  0  0
  2  3  2  0  0  0  0
  2  5  1  0  0  0  0
  4  1  1  0  0  0  0
  6  5  1  0  0  0  0
  6 11  1  0  0  0  0
  7  6  1  0  0  0  0
  8  7  1  0  0  0  0
  8  9  1  0  0  0  0
  9 10  1  0  0  0  0
 10 11  1  0  0  0  0
 12  9  1  0  0  0  0
 13 12  1  0  0  0  0
 13 14  2  0  0  0  0
 15 13  1  0  0  0  0
 16 15  1  0  0  0  0
 17 15  1  0  0  0  0
 18 17  1  0  0  0  0
 19 18  1  0  0  0  0
 19 17  1  0  0  0  0
 20  1  1  0  0  0  0
 21 20  1  0  0  0  0
 21 22  1  0  0  0  0
 23 21  2  0  0  0  0
 24 26  2  0  0  0  0
 24 23  1  0  0  0  0
 25 24  1  0  0  0  0
 26 30  1  0  0  0  0
 27 25  2  0  0  0  0
 27 28  1  0  0  0  0
 28 29  1  0  0  0  0
 28 26  1  0  0  0  0
 30 20  2  0  0  0  0
 31 27  1  0  0  0  0
 32 31  1  0  0  0  0
M  END
>  <Pose>
1

>  <Score>
-7.985

$$$$
