/Users/jonathanwahrer/Desktop/Msc/3_Semester/Drug_Design_Praktikum/waehrer_HTS_screening/HTS_experiment/out/docking_results/vina_output/4x21/0648_docked.pdbqt
 OpenBabel03212201473D

 32 35  0  0  0  0  0  0  0  0999 V2000
   22.6420   36.5250   66.2790 C   0  0  0  0  0  0  0  0  0  0  0  0
   21.7860   36.0680   65.4380 O   0  0  0  0  0  0  0  0  0  0  0  0
   22.8980   35.7730   67.3950 N   0  0  0  0  0  0  0  0  0  0  0  0
   23.8010   36.1190   68.4480 C   0  0  0  0  0  2  0  0  0  0  0  0
   23.0080   36.4820   69.6610 C   0  0  0  0  0  2  0  0  0  0  0  0
   21.7150   35.8140   69.6730 N   0  0  0  0  0  0  0  0  0  0  0  0
   21.4390   34.6240   68.9390 C   0  0  0  0  0  2  0  0  0  0  0  0
   22.2170   34.4840   67.6340 C   0  0  0  0  0  2  0  0  0  0  0  0
   20.7220   36.5030   70.4490 C   0  0  0  0  0  0  0  0  0  0  0  0
   21.0670   37.6520   70.9520 O   0  0  0  0  0  0  0  0  0  0  0  0
   19.4070   36.0240   70.6980 C   0  0  0  0  0  0  0  0  0  0  0  0
   19.1300   34.9970   71.5910 N   0  0  0  0  0  0  0  0  0  0  0  0
   17.8650   34.7290   71.5720 N   0  0  0  0  0  0  0  0  0  0  0  0
   20.1000   34.3250   72.4230 C   0  0  0  0  0  1  0  0  0  0  0  0
   17.2180   35.5090   70.7120 C   0  0  0  0  0  0  0  0  0  0  0  0
   18.2110   36.3380   70.1530 C   0  0  0  0  0  3  0  0  0  0  0  0
   15.8020   35.5610   70.3930 C   0  0  0  0  0  0  0  0  0  0  0  0
   15.3290   36.7160   70.0940 O   0  0  0  0  0  0  0  0  0  0  0  0
   14.9360   34.4790   70.3890 N   0  0  0  0  0  0  0  0  0  0  0  0
   13.5380   34.7170   70.0170 C   0  0  0  0  0  2  0  0  0  0  0  0
   15.2980   33.1420   70.7410 C   0  0  0  0  0  2  0  0  0  0  0  0
   12.7080   34.1390   71.1440 C   0  0  0  0  0  2  0  0  0  0  0  0
   12.9240   32.7500   71.0900 O   0  0  0  0  0  0  0  0  0  0  0  0
   14.1860   32.4570   71.5240 C   0  0  0  0  0  2  0  0  0  0  0  0
   23.2350   37.7930   65.9370 C   0  0  0  0  0  0  0  0  0  0  0  0
   24.5090   38.0250   65.4110 C   0  0  0  0  0  0  0  0  0  0  0  0
   25.7850   36.6400   65.0200 Br  0  0  0  0  0  0  0  0  0  0  0  0
   24.6730   39.3720   65.2320 C   0  0  0  0  0  3  0  0  0  0  0  0
   23.5420   39.9620   65.6320 N   0  0  0  0  0  0  0  0  0  0  0  0
   22.7050   39.0470   66.0420 N   0  0  0  0  0  0  0  0  0  0  0  0
   23.3720   41.4090   65.5850 C   0  0  0  0  0  2  0  0  0  0  0  0
   22.6700   41.8770   64.3390 C   0  0  0  0  0  1  0  0  0  0  0  0
  1  3  1  0  0  0  0
  2  1  2  0  0  0  0
  3  8  1  0  0  0  0
  3  4  1  0  0  0  0
  4  5  1  0  0  0  0
  5  6  1  0  0  0  0
  6  9  1  0  0  0  0
  7  6  1  0  0  0  0
  8  7  1  0  0  0  0
  9 11  1  0  0  0  0
  9 10  2  0  0  0  0
 11 12  1  0  0  0  0
 12 14  1  0  0  0  0
 13 12  1  0  0  0  0
 15 13  2  0  0  0  0
 16 11  2  0  0  0  0
 16 15  1  0  0  0  0
 17 15  1  0  0  0  0
 18 17  2  0  0  0  0
 19 17  1  0  0  0  0
 19 21  1  0  0  0  0
 20 19  1  0  0  0  0
 20 22  1  0  0  0  0
 21 24  1  0  0  0  0
 23 22  1  0  0  0  0
 23 24  1  0  0  0  0
 25 30  2  0  0  0  0
 25  1  1  0  0  0  0
 26 25  1  0  0  0  0
 27 26  1  0  0  0  0
 28 26  2  0  0  0  0
 28 29  1  0  0  0  0
 29 30  1  0  0  0  0
 31 29  1  0  0  0  0
 32 31  1  0  0  0  0
M  END
>  <Pose>
1

>  <Score>
-8.818

$$$$
