/Users/jonathanwahrer/Desktop/Msc/3_Semester/Drug_Design_Praktikum/waehrer_HTS_screening/HTS_experiment/out/docking_results/vina_output/4x21/0653_docked.pdbqt
 OpenBabel03212201483D

 29 32  0  0  0  0  0  0  0  0999 V2000
   19.2900   34.9400   71.4870 C   0  0  0  0  0  0  0  0  0  0  0  0
   20.0320   35.8750   70.8120 C   0  0  0  0  0  0  0  0  0  0  0  0
   19.4290   36.8290   70.0120 C   0  0  0  0  0  0  0  0  0  0  0  0
   18.0600   36.8680   69.8660 C   0  0  0  0  0  0  0  0  0  0  0  0
   17.2860   35.9130   70.5530 C   0  0  0  0  0  0  0  0  0  0  0  0
   17.8840   34.9690   71.3460 C   0  0  0  0  0  0  0  0  0  0  0  0
   17.0660   33.9870   72.0620 C   0  0  0  0  0  2  0  0  0  0  0  0
   15.7030   33.7320   71.5560 C   0  0  0  0  0  2  0  0  0  0  0  0
   15.0550   34.9060   70.9850 N   0  0  0  0  0  0  0  0  0  0  0  0
   15.8410   35.9060   70.3520 C   0  0  0  0  0  0  0  0  0  0  0  0
   15.2670   36.7720   69.6250 O   0  0  0  0  0  0  0  0  0  0  0  0
   13.6150   34.9690   71.0860 C   0  0  0  0  0  1  0  0  0  0  0  0
   20.4460   37.6040   69.4910 O   0  0  0  0  0  0  0  0  0  0  0  0
   21.6740   37.2740   70.0890 C   0  0  0  0  0  2  0  0  0  0  0  0
   21.4340   36.0550   70.7880 O   0  0  0  0  0  0  0  0  0  0  0  0
   19.9070   33.8820   72.3150 C   0  0  0  0  0  2  0  0  0  0  0  0
   21.2000   33.4450   71.8220 N   0  0  0  0  0  0  0  0  0  0  0  0
   21.5580   32.2410   71.2540 C   0  0  0  0  0  0  0  0  0  0  0  0
   20.7140   31.3020   71.0920 O   0  0  0  0  0  0  0  0  0  0  0  0
   21.9580   34.1920   71.9240 H   0  0  0  0  0  0  0  0  0  0  0  0
   22.9540   31.9880   70.8060 C   0  0  0  0  0  2  0  0  0  0  0  0
   23.1340   32.7260   69.5410 N   0  0  0  0  0  0  0  0  0  0  0  0
   24.2320   32.7940   68.7960 C   0  0  0  0  0  3  0  0  0  0  0  0
   23.9600   33.5860   67.7040 C   0  0  0  0  0  0  0  0  0  0  0  0
   25.1420   34.0590   66.2820 Br  0  0  0  0  0  0  0  0  0  0  0  0
   22.6530   34.0030   67.8040 C   0  0  0  0  0  3  0  0  0  0  0  0
   22.1960   33.4520   68.9380 N   0  0  0  0  0  0  0  0  0  0  0  0
   17.4220   37.8070   69.0770 O   0  0  0  0  0  0  0  0  0  0  0  0
   17.7690   37.9790   67.7180 C   0  0  0  0  0  1  0  0  0  0  0  0
  1 16  1  0  0  0  0
  2  1  2  0  0  0  0
  3  2  1  0  0  0  0
  4  3  2  0  0  0  0
  4  5  1  0  0  0  0
  5  6  2  0  0  0  0
  6  1  1  0  0  0  0
  6  7  1  0  0  0  0
  8  7  1  0  0  0  0
  9 12  1  0  0  0  0
  9  8  1  0  0  0  0
 10  5  1  0  0  0  0
 10  9  1  0  0  0  0
 11 10  2  0  0  0  0
 13  3  1  0  0  0  0
 13 14  1  0  0  0  0
 14 15  1  0  0  0  0
 15  2  1  0  0  0  0
 17 20  1  0  0  0  0
 17 16  1  0  0  0  0
 18 17  1  0  0  0  0
 19 18  2  0  0  0  0
 21 18  1  0  0  0  0
 22 21  1  0  0  0  0
 23 22  1  0  0  0  0
 24 26  1  0  0  0  0
 24 23  2  0  0  0  0
 25 24  1  0  0  0  0
 26 27  2  0  0  0  0
 27 22  1  0  0  0  0
 28  4  1  0  0  0  0
 29 28  1  0  0  0  0
M  END
>  <Pose>
1

>  <Score>
-8.202

$$$$
