/Users/jonathanwahrer/Desktop/Msc/3_Semester/Drug_Design_Praktikum/waehrer_HTS_screening/HTS_experiment/out/docking_results/vina_output/4x21/0662_docked.pdbqt
 OpenBabel03212201483D

 25 29  0  0  0  0  0  0  0  0999 V2000
   20.4050   37.0020   67.4850 C   0  0  0  0  0  0  0  0  0  0  0  0
   21.2760   37.7370   66.7750 N   0  0  0  0  0  0  0  0  0  0  0  0
   22.3720   37.0260   66.5130 N   0  0  0  0  0  0  0  0  0  0  0  0
   22.2010   35.7930   67.0720 C   0  0  0  0  0  0  0  0  0  0  0  0
   20.9900   35.8060   67.6600 N   0  0  0  0  0  0  0  0  0  0  0  0
   23.2130   34.8660   66.9340 C   0  0  0  0  0  0  0  0  0  0  0  0
   24.3860   35.1380   66.2540 C   0  0  0  0  0  0  0  0  0  0  0  0
   25.1760   34.0510   66.2860 N   0  0  0  0  0  0  0  0  0  0  0  0
   24.5280   33.1180   66.9640 N   0  0  0  0  0  0  0  0  0  0  0  0
   23.3270   33.5750   67.3760 C   0  0  0  0  0  3  0  0  0  0  0  0
   24.5090   36.3640   65.7210 N   0  0  0  0  0  0  0  0  0  0  0  0
   23.5220   37.2640   65.8570 C   0  0  0  0  0  3  0  0  0  0  0  0
   26.1230   33.9350   65.8660 H   0  0  0  0  0  0  0  0  0  0  0  0
   19.0920   37.4350   67.9610 C   0  0  0  0  0  0  0  0  0  0  0  0
   18.5470   37.2520   69.1760 N   0  0  0  0  0  0  0  0  0  0  0  0
   17.3380   37.7830   69.2390 N   0  0  0  0  0  0  0  0  0  0  0  0
   17.0420   38.3410   68.0530 C   0  0  0  0  0  3  0  0  0  0  0  0
   18.1460   38.1260   67.2340 C   0  0  0  0  0  3  0  0  0  0  0  0
   16.4660   37.7630   70.4160 C   0  0  0  0  0  2  0  0  0  0  0  0
   15.3860   36.8110   70.2600 N   0  0  0  0  0  0  0  0  0  0  0  0
   15.4010   35.5240   70.6420 C   0  0  0  0  0  3  0  0  0  0  0  0
   14.1840   34.9620   70.3160 C   0  0  0  0  0  0  0  0  0  0  0  0
   13.6460   33.1740   70.6210 Br  0  0  0  0  0  0  0  0  0  0  0  0
   13.4410   35.9590   69.7240 C   0  0  0  0  0  3  0  0  0  0  0  0
   14.2120   37.0700   69.7120 N   0  0  0  0  0  0  0  0  0  0  0  0
  1  5  1  0  0  0  0
  1 14  1  0  0  0  0
  2  1  2  0  0  0  0
  3  2  1  0  0  0  0
  3  4  1  0  0  0  0
  4  5  2  0  0  0  0
  6  4  1  0  0  0  0
  6 10  1  0  0  0  0
  7  8  1  0  0  0  0
  7  6  2  0  0  0  0
  8  9  1  0  0  0  0
  9 10  2  0  0  0  0
 11 12  2  0  0  0  0
 11  7  1  0  0  0  0
 12  3  1  0  0  0  0
 13  8  1  0  0  0  0
 14 15  2  0  0  0  0
 15 16  1  0  0  0  0
 16 19  1  0  0  0  0
 17 16  1  0  0  0  0
 18 14  1  0  0  0  0
 18 17  2  0  0  0  0
 20 19  1  0  0  0  0
 20 21  1  0  0  0  0
 22 23  1  0  0  0  0
 22 21  2  0  0  0  0
 24 22  1  0  0  0  0
 25 24  2  0  0  0  0
 25 20  1  0  0  0  0
M  END
>  <Pose>
1

>  <Score>
-8.117

$$$$
