/Users/jonathanwahrer/Desktop/Msc/3_Semester/Drug_Design_Praktikum/waehrer_HTS_screening/HTS_experiment/out/docking_results/vina_output/4x21/0663_docked.pdbqt
 OpenBabel03212201483D

 28 31  0  0  1  0  0  0  0  0999 V2000
   19.2950   36.7430   69.8070 C   0  0  0  0  0  0  0  0  0  0  0  0
   18.9910   37.6220   68.9060 O   0  0  0  0  0  0  0  0  0  0  0  0
   20.6170   36.7400   70.2190 N   0  0  0  0  0  0  0  0  0  0  0  0
   21.3010   35.9640   71.2180 C   0  0  0  0  0  2  0  0  0  0  0  0
   22.0400   34.8570   70.4930 C   0  0  0  0  0  2  0  0  0  0  0  0
   22.6020   35.3670   69.1820 C   0  0  1  0  0  0  0  0  0  0  0  0
   23.9030   34.7600   69.0090 N   0  0  0  0  0  0  0  0  0  0  0  0
   23.7130   33.4860   68.4110 C   0  0  0  0  0  0  0  0  0  0  0  0
   24.5150   32.4950   68.4030 O   0  0  0  0  0  0  0  0  0  0  0  0
   22.4160   33.5100   67.7960 N   0  0  0  0  0  0  0  0  0  0  0  0
   21.8480   34.8140   68.0410 C   0  0  0  0  0  0  0  0  0  0  0  0
   20.9100   35.3090   67.3800 O   0  0  0  0  0  0  0  0  0  0  0  0
   22.7630   36.8530   69.1400 C   0  0  0  0  0  2  0  0  0  0  0  0
   21.5570   37.6530   69.4970 C   0  0  0  0  0  2  0  0  0  0  0  0
   24.8330   35.1470   69.2610 H   0  0  0  0  0  0  0  0  0  0  0  0
   21.9270   32.7580   67.2620 H   0  0  0  0  0  0  0  0  0  0  0  0
   18.1890   35.9140   70.2270 C   0  0  0  0  0  0  0  0  0  0  0  0
   18.4380   34.5880   70.6370 C   0  0  0  0  0  3  0  0  0  0  0  0
   17.4490   33.7530   71.0840 C   0  0  0  0  0  3  0  0  0  0  0  0
   16.1380   34.1560   71.1640 C   0  0  0  0  0  0  0  0  0  0  0  0
   15.8690   35.4400   70.7730 C   0  0  0  0  0  3  0  0  0  0  0  0
   16.8730   36.3060   70.3130 C   0  0  0  0  0  3  0  0  0  0  0  0
   15.1330   33.2690   71.6320 N   0  0  0  0  0  0  0  0  0  0  0  0
   15.2680   32.1950   72.4310 C   0  0  0  0  0  3  0  0  0  0  0  0
   14.0330   31.6190   72.6340 C   0  0  0  0  0  0  0  0  0  0  0  0
   13.6300   30.0600   73.6900 Br  0  0  0  0  0  0  0  0  0  0  0  0
   13.1460   32.3950   71.9210 C   0  0  0  0  0  3  0  0  0  0  0  0
   13.8530   33.3630   71.3430 N   0  0  0  0  0  0  0  0  0  0  0  0
  1  3  1  0  0  0  0
  1 17  1  0  0  0  0
  2  1  2  0  0  0  0
  3  4  1  0  0  0  0
  5  4  1  0  0  0  0
  6 13  1  6  0  0  0
  6  5  1  0  0  0  0
  7  6  1  0  0  0  0
  7 15  1  0  0  0  0
  8  7  1  0  0  0  0
  9  8  2  0  0  0  0
 10 11  1  0  0  0  0
 10  8  1  0  0  0  0
 11  6  1  0  0  0  0
 12 11  2  0  0  0  0
 13 14  1  0  0  0  0
 14  3  1  0  0  0  0
 16 10  1  0  0  0  0
 17 22  2  0  0  0  0
 17 18  1  0  0  0  0
 18 19  2  0  0  0  0
 19 20  1  0  0  0  0
 20 23  1  0  0  0  0
 21 20  2  0  0  0  0
 22 21  1  0  0  0  0
 23 24  1  0  0  0  0
 24 25  2  0  0  0  0
 25 26  1  0  0  0  0
 27 25  1  0  0  0  0
 28 23  1  0  0  0  0
 28 27  2  0  0  0  0
M  END
>  <Pose>
1

>  <Score>
-8.667

$$$$
