/Users/jonathanwahrer/Desktop/Msc/3_Semester/Drug_Design_Praktikum/waehrer_HTS_screening/HTS_experiment/out/docking_results/vina_output/4x21/0666_docked.pdbqt
 OpenBabel03212201483D

 28 31  0  0  0  0  0  0  0  0999 V2000
   22.9400   38.1440   65.9670 C   0  0  0  0  0  0  0  0  0  0  0  0
   23.1880   36.9470   66.4090 C   0  0  0  0  0  0  0  0  0  0  0  0
   22.0200   36.5390   67.1910 C   0  0  0  0  0  0  0  0  0  0  0  0
   21.9170   35.4170   67.7770 O   0  0  0  0  0  0  0  0  0  0  0  0
   21.0230   37.5710   67.2030 N   0  0  0  0  0  0  0  0  0  0  0  0
   21.6050   38.6090   66.4160 C   0  0  0  0  0  0  0  0  0  0  0  0
   21.0780   39.7210   66.1520 O   0  0  0  0  0  0  0  0  0  0  0  0
   23.7490   38.9810   65.1620 N   0  0  0  0  0  0  0  0  0  0  0  0
   23.7610   38.8770   64.1480 H   0  0  0  0  0  0  0  0  0  0  0  0
   24.5400   39.9610   65.8050 C   0  0  0  0  0  0  0  0  0  0  0  0
   24.1500   41.2630   65.8600 N   0  0  0  0  0  0  0  0  0  0  0  0
   24.8690   42.2290   66.4420 C   0  0  0  0  0  3  0  0  0  0  0  0
   26.0740   41.9530   67.0320 C   0  0  0  0  0  0  0  0  0  0  0  0
   27.1320   43.3120   67.8620 Br  0  0  0  0  0  0  0  0  0  0  0  0
   26.5300   40.6550   67.0150 C   0  0  0  0  0  3  0  0  0  0  0  0
   25.7710   39.6890   66.4130 C   0  0  0  0  0  3  0  0  0  0  0  0
   24.3480   36.1390   66.1950 N   0  0  0  0  0  0  0  0  0  0  0  0
   24.4560   35.4030   65.0750 C   0  0  0  0  0  2  0  0  0  0  0  0
   25.5790   34.5920   64.8380 C   0  0  0  0  0  3  0  0  0  0  0  0
   26.6000   34.5410   65.7690 C   0  0  0  0  0  3  0  0  0  0  0  0
   26.4660   35.3050   66.9080 C   0  0  0  0  0  3  0  0  0  0  0  0
   25.3550   36.0830   67.1010 C   0  0  0  0  0  3  0  0  0  0  0  0
   19.7640   37.5520   67.8580 C   0  0  0  0  0  0  0  0  0  0  0  0
   19.5940   37.1420   69.1550 C   0  0  0  0  0  3  0  0  0  0  0  0
   18.3290   37.1520   69.7790 C   0  0  0  0  0  3  0  0  0  0  0  0
   17.2160   37.5810   69.0920 C   0  0  0  0  0  3  0  0  0  0  0  0
   17.3810   37.9920   67.7940 C   0  0  0  0  0  3  0  0  0  0  0  0
   18.6400   37.9750   67.1930 C   0  0  0  0  0  3  0  0  0  0  0  0
  1  2  2  0  0  0  0
  1  6  1  0  0  0  0
  2  3  1  0  0  0  0
  3  5  1  0  0  0  0
  3  4  2  0  0  0  0
  5 23  1  0  0  0  0
  6  5  1  0  0  0  0
  7  6  2  0  0  0  0
  8 10  1  0  0  0  0
  8  1  1  0  0  0  0
  9  8  1  0  0  0  0
 10 11  2  0  0  0  0
 10 16  1  0  0  0  0
 11 12  1  0  0  0  0
 12 13  2  0  0  0  0
 13 14  1  0  0  0  0
 15 13  1  0  0  0  0
 16 15  2  0  0  0  0
 17  2  1  0  0  0  0
 17 22  1  0  0  0  0
 18 17  1  0  0  0  0
 19 18  1  0  0  0  0
 19 20  2  0  0  0  0
 20 21  1  0  0  0  0
 21 22  2  0  0  0  0
 23 24  1  0  0  0  0
 24 25  2  0  0  0  0
 26 25  1  0  0  0  0
 27 26  2  0  0  0  0
 28 27  1  0  0  0  0
 28 23  2  0  0  0  0
M  END
>  <Pose>
1

>  <Score>
-8.104

$$$$
