/Users/jonathanwahrer/Desktop/Msc/3_Semester/Drug_Design_Praktikum/waehrer_HTS_screening/HTS_experiment/out/docking_results/vina_output/4x21/0680_docked.pdbqt
 OpenBabel03212201493D

 24 27  0  0  1  0  0  0  0  0999 V2000
   20.1830   35.6200   70.3950 C   0  0  0  0  0  0  0  0  0  0  0  0
   20.6250   35.3680   71.5750 O   0  0  0  0  0  0  0  0  0  0  0  0
   21.0870   35.4910   69.3250 N   0  0  0  0  0  0  0  0  0  0  0  0
   21.1270   35.6580   67.9050 C   0  0  0  0  0  2  0  0  0  0  0  0
   22.6340   35.9360   68.0500 C   0  0  1  0  0  3  0  0  0  0  0  0
   22.4970   35.0570   69.2360 C   0  0  0  0  0  2  0  0  0  0  0  0
   23.3810   35.4300   66.9310 N   0  0  0  0  0  0  0  0  0  0  0  0
   23.8750   34.0950   66.7170 C   0  0  0  0  0  0  0  0  0  0  0  0
   23.3900   33.0680   67.2230 O   0  0  0  0  0  0  0  0  0  0  0  0
   25.0470   34.2450   65.7870 C   0  0  1  0  0  3  0  0  0  0  0  0
   24.5200   35.3220   64.8690 C   0  0  2  0  0  3  0  0  0  0  0  0
   26.2120   34.6660   66.6160 C   0  0  0  0  0  2  0  0  0  0  0  0
   25.6390   36.0280   64.1550 C   0  0  0  0  0  2  0  0  0  0  0  0
   23.7750   36.1940   65.7970 C   0  0  0  0  0  0  0  0  0  0  0  0
   26.5600   36.6370   65.1510 C   0  0  0  0  0  3  0  0  0  0  0  0
   26.7890   35.9710   66.2640 C   0  0  0  0  0  3  0  0  0  0  0  0
   23.5530   37.4100   65.5720 O   0  0  0  0  0  0  0  0  0  0  0  0
   18.7930   36.0080   70.3290 C   0  0  0  0  0  0  0  0  0  0  0  0
   18.4240   37.2260   69.7440 C   0  0  0  0  0  3  0  0  0  0  0  0
   17.1540   37.6380   69.6700 N   0  0  0  0  0  0  0  0  0  0  0  0
   16.1410   36.8820   70.1650 C   0  0  0  0  0  3  0  0  0  0  0  0
   16.4140   35.6720   70.7570 C   0  0  0  0  0  0  0  0  0  0  0  0
   14.9780   34.6290   71.4460 Br  0  0  0  0  0  0  0  0  0  0  0  0
   17.7400   35.2710   70.8200 C   0  0  0  0  0  3  0  0  0  0  0  0
  1  2  2  0  0  0  0
  3  1  1  0  0  0  0
  4  5  1  0  0  0  0
  4  3  1  0  0  0  0
  5  7  1  6  0  0  0
  5  6  1  0  0  0  0
  6  3  1  0  0  0  0
  8  7  1  0  0  0  0
  8  9  2  0  0  0  0
 10 12  1  1  0  0  0
 10  8  1  0  0  0  0
 11 13  1  1  0  0  0
 11 10  1  0  0  0  0
 11 14  1  0  0  0  0
 13 15  1  0  0  0  0
 14  7  1  0  0  0  0
 15 16  2  0  0  0  0
 16 12  1  0  0  0  0
 17 14  2  0  0  0  0
 18  1  1  0  0  0  0
 18 24  1  0  0  0  0
 19 18  2  0  0  0  0
 20 19  1  0  0  0  0
 20 21  2  0  0  0  0
 21 22  1  0  0  0  0
 22 24  2  0  0  0  0
 22 23  1  0  0  0  0
M  END
>  <Pose>
1

>  <Score>
-8.093

$$$$
