/Users/jonathanwahrer/Desktop/Msc/3_Semester/Drug_Design_Praktikum/waehrer_HTS_screening/HTS_experiment/out/docking_results/vina_output/4x21/0681_docked.pdbqt
 OpenBabel03212201493D

 25 28  0  0  1  0  0  0  0  0999 V2000
   18.5200   35.9560   70.3640 C   0  0  0  0  0  0  0  0  0  0  0  0
   19.0700   35.2940   71.2980 O   0  0  0  0  0  0  0  0  0  0  0  0
   19.3280   36.4770   69.3460 N   0  0  0  0  0  0  0  0  0  0  0  0
   19.2360   37.2370   68.1280 C   0  0  0  0  0  2  0  0  0  0  0  0
   20.6980   36.9890   67.7880 C   0  0  2  0  0  3  0  0  0  0  0  0
   20.7930   36.4230   69.1720 C   0  0  0  0  0  2  0  0  0  0  0  0
   21.4830   38.1090   67.5240 O   0  0  0  0  0  0  0  0  0  0  0  0
   22.4900   38.1930   66.5840 C   0  0  2  0  0  3  0  0  0  0  0  0
   23.2650   37.1380   66.3500 C   0  0  0  0  0  3  0  0  0  0  0  0
   24.3440   37.1640   65.3700 C   0  0  0  0  0  0  0  0  0  0  0  0
   25.0940   36.0960   65.1620 C   0  0  0  0  0  1  0  0  0  0  0  0
   24.5530   38.3740   64.6560 N   0  0  0  0  0  0  0  0  0  0  0  0
   23.7010   39.4980   64.9310 C   0  0  0  0  0  0  0  0  0  0  0  0
   25.3150   38.4050   63.9580 H   0  0  0  0  0  0  0  0  0  0  0  0
   22.7250   39.4090   65.8450 N   0  0  0  0  0  0  0  0  0  0  0  0
   23.6700   40.7350   64.4270 N   0  0  0  0  0  0  0  0  0  0  0  0
   22.0890   40.5830   65.9110 N   0  0  0  0  0  0  0  0  0  0  0  0
   22.6800   41.3990   65.0300 C   0  0  0  0  0  3  0  0  0  0  0  0
   17.0900   36.1330   70.4110 C   0  0  0  0  0  0  0  0  0  0  0  0
   16.4090   37.3210   70.3190 C   0  0  0  0  0  3  0  0  0  0  0  0
   15.0470   37.4020   70.3630 N   0  0  0  0  0  0  0  0  0  0  0  0
   14.2700   36.3220   70.5000 C   0  0  0  0  0  3  0  0  0  0  0  0
   14.8950   35.1000   70.5960 C   0  0  0  0  0  0  0  0  0  0  0  0
   13.8090   33.5270   70.7940 Br  0  0  0  0  0  0  0  0  0  0  0  0
   16.2630   35.0030   70.5550 C   0  0  0  0  0  3  0  0  0  0  0  0
  1 19  1  0  0  0  0
  1  2  2  0  0  0  0
  3  1  1  0  0  0  0
  4  3  1  0  0  0  0
  5  7  1  1  0  0  0
  5  4  1  0  0  0  0
  5  6  1  0  0  0  0
  6  3  1  0  0  0  0
  8  7  1  1  0  0  0
  9  8  1  0  0  0  0
 10  9  2  0  0  0  0
 11 10  1  0  0  0  0
 12 13  1  0  0  0  0
 12 10  1  0  0  0  0
 13 15  1  0  0  0  0
 14 12  1  0  0  0  0
 15 17  1  0  0  0  0
 15  8  1  0  0  0  0
 16 13  2  0  0  0  0
 16 18  1  0  0  0  0
 18 17  2  0  0  0  0
 19 25  1  0  0  0  0
 20 21  1  0  0  0  0
 20 19  2  0  0  0  0
 21 22  2  0  0  0  0
 22 23  1  0  0  0  0
 23 24  1  0  0  0  0
 25 23  2  0  0  0  0
M  END
>  <Pose>
1

>  <Score>
-8.182

$$$$
