/Users/jonathanwahrer/Desktop/Msc/3_Semester/Drug_Design_Praktikum/waehrer_HTS_screening/HTS_experiment/out/docking_results/vina_output/4x21/0683_docked.pdbqt
 OpenBabel03212201493D

 10 10  0  0  0  0  0  0  0  0999 V2000
   16.7660   37.6140   69.9460 Br  0  0  0  0  0  0  0  0  0  0  0  0
   16.2430   35.9060   70.5610 C   0  0  0  0  0  0  0  0  0  0  0  0
   17.1970   35.0290   71.0510 C   0  0  0  0  0  3  0  0  0  0  0  0
   16.7760   33.8290   71.4770 N   0  0  0  0  0  0  0  0  0  0  0  0
   15.4940   33.4330   71.4560 C   0  0  0  0  0  3  0  0  0  0  0  0
   14.5550   34.3080   70.9680 C   0  0  0  0  0  0  0  0  0  0  0  0
   14.9080   35.5660   70.5090 C   0  0  0  0  0  3  0  0  0  0  0  0
   13.1560   33.9150   70.9290 C   0  0  0  0  0  0  0  0  0  0  0  0
   12.7020   33.0720   71.7520 O   0  0  0  0  0  1  0  0  0  0  0  0
   12.2840   34.4460   69.9950 O   0  0  0  0  0  0  0  0  0  0  0  0
  1  2  1  0  0  0  0
  2  3  1  0  0  0  0
  3  4  2  0  0  0  0
  5  4  1  0  0  0  0
  6  5  2  0  0  0  0
  7  2  2  0  0  0  0
  7  6  1  0  0  0  0
  8  6  1  0  0  0  0
  8  9  1  0  0  0  0
 10  8  2  0  0  0  0
M  END
>  <Pose>
1

>  <Score>
-4.981

$$$$
