/Users/jonathanwahrer/Desktop/Msc/3_Semester/Drug_Design_Praktikum/waehrer_HTS_screening/HTS_experiment/out/docking_results/vina_output/4x21/0684_docked.pdbqt
 OpenBabel03212201493D

 10 10  0  0  0  0  0  0  0  0999 V2000
   16.7200   37.6180   69.9070 Br  0  0  0  0  0  0  0  0  0  0  0  0
   16.2120   35.9120   70.5870 C   0  0  0  0  0  0  0  0  0  0  0  0
   17.1320   35.0270   71.1060 C   0  0  0  0  0  3  0  0  0  0  0  0
   16.7810   33.8210   71.5870 N   0  0  0  0  0  0  0  0  0  0  0  0
   15.4870   33.4690   71.5600 C   0  0  0  0  0  3  0  0  0  0  0  0
   14.5070   34.2950   71.0590 C   0  0  0  0  0  0  0  0  0  0  0  0
   14.8920   35.5180   70.5750 C   0  0  0  0  0  3  0  0  0  0  0  0
   13.1050   33.8980   71.0370 C   0  0  0  0  0  0  0  0  0  0  0  0
   12.6930   33.0340   71.8490 O   0  0  0  0  0  1  0  0  0  0  0  0
   12.2650   34.4970   70.1100 O   0  0  0  0  0  0  0  0  0  0  0  0
  1  2  1  0  0  0  0
  2  3  1  0  0  0  0
  3  4  2  0  0  0  0
  5  4  1  0  0  0  0
  6  5  2  0  0  0  0
  7  2  2  0  0  0  0
  7  6  1  0  0  0  0
  8  6  1  0  0  0  0
  8  9  1  0  0  0  0
 10  8  2  0  0  0  0
M  END
>  <Pose>
1

>  <Score>
-4.964

$$$$
