/Users/jonathanwahrer/Desktop/Msc/3_Semester/Drug_Design_Praktikum/waehrer_HTS_screening/HTS_experiment/out/docking_results/vina_output/4x21/0692_docked.pdbqt
 OpenBabel03212201493D

 29 32  0  0  0  0  0  0  0  0999 V2000
   13.8270   29.0830   75.6960 Br  0  0  0  0  0  0  0  0  0  0  0  0
   15.0980   28.8580   74.3020 C   0  0  0  0  0  0  0  0  0  0  0  0
   15.4440   29.9400   73.5160 C   0  0  0  0  0  0  0  0  0  0  0  0
   16.3750   29.8410   72.4700 C   0  0  0  0  0  0  0  0  0  0  0  0
   16.9650   28.6290   72.2150 C   0  0  0  0  0  3  0  0  0  0  0  0
   16.6240   27.5430   72.9970 C   0  0  0  0  0  0  0  0  0  0  0  0
   15.7110   27.6390   74.0240 C   0  0  0  0  0  3  0  0  0  0  0  0
   17.4240   25.8470   72.6710 Br  0  0  0  0  0  0  0  0  0  0  0  0
   16.6970   31.0090   71.6590 C   0  0  0  0  0  0  0  0  0  0  0  0
   17.1630   30.7700   70.5120 O   0  0  0  0  0  0  0  0  0  0  0  0
   16.4960   32.3730   72.1350 C   0  0  0  0  0  0  0  0  0  0  0  0
   15.7580   32.3180   73.4990 C   0  0  0  0  0  2  0  0  0  0  0  0
   14.9350   31.2200   73.6540 O   0  0  0  0  0  0  0  0  0  0  0  0
   17.6800   33.1810   72.4080 C   0  0  0  0  0  2  0  0  0  0  0  0
   18.6820   33.5210   71.5090 N   0  0  0  0  0  4  0  0  0  0  0  0
   20.0240   33.0660   71.6990 C   0  0  0  0  0  2  0  0  0  0  0  0
   20.6810   33.0710   70.2940 C   0  0  0  0  0  2  0  0  0  0  0  0
   20.9080   34.5330   69.9710 C   0  0  0  0  0  2  0  0  0  0  0  0
   20.0720   35.4390   70.8480 C   0  0  0  0  0  2  0  0  0  0  0  0
   18.6710   34.8990   71.0410 C   0  0  0  0  0  2  0  0  0  0  0  0
   18.4000   32.9860   70.6070 H   0  0  0  0  0  0  0  0  0  0  0  0
   15.6040   33.0890   71.1330 C   0  0  0  0  0  2  0  0  0  0  0  0
   14.5730   33.8780   71.7610 N   0  0  0  0  0  4  0  0  0  0  0  0
   13.2870   33.4110   71.2620 C   0  0  0  0  0  2  0  0  0  0  0  0
   13.3020   33.4450   69.7700 C   0  0  0  0  0  2  0  0  0  0  0  0
   13.6830   34.7480   69.1700 C   0  0  0  0  0  2  0  0  0  0  0  0
   14.7080   35.5250   69.9210 C   0  0  0  0  0  2  0  0  0  0  0  0
   14.6030   35.2870   71.4110 C   0  0  0  0  0  2  0  0  0  0  0  0
   14.6310   33.8320   72.7940 H   0  0  0  0  0  0  0  0  0  0  0  0
  2  1  1  0  0  0  0
  3 13  1  0  0  0  0
  3  2  2  0  0  0  0
  4  3  1  0  0  0  0
  5  4  2  0  0  0  0
  5  6  1  0  0  0  0
  6  7  2  0  0  0  0
  7  2  1  0  0  0  0
  8  6  1  0  0  0  0
  9 11  1  0  0  0  0
  9  4  1  0  0  0  0
 10  9  2  0  0  0  0
 11 14  1  0  0  0  0
 11 12  1  0  0  0  0
 12 13  1  0  0  0  0
 15 16  1  0  0  0  0
 15 14  1  0  0  0  0
 17 16  1  0  0  0  0
 18 17  1  0  0  0  0
 18 19  1  0  0  0  0
 19 20  1  0  0  0  0
 20 15  1  0  0  0  0
 21 15  1  0  0  0  0
 22 23  1  0  0  0  0
 22 11  1  0  0  0  0
 23 29  1  0  0  0  0
 24 23  1  0  0  0  0
 25 24  1  0  0  0  0
 26 25  1  0  0  0  0
 26 27  1  0  0  0  0
 27 28  1  0  0  0  0
 28 23  1  0  0  0  0
M  END
>  <Pose>
1

>  <Score>
-6.720

$$$$
