/Users/jonathanwahrer/Desktop/Msc/3_Semester/Drug_Design_Praktikum/waehrer_HTS_screening/HTS_experiment/out/docking_results/vina_output/4x21/0696_docked.pdbqt
 OpenBabel03212201493D

 28 31  0  0  1  0  0  0  0  0999 V2000
   16.6560   37.3000   69.5470 Br  0  0  0  0  0  0  0  0  0  0  0  0
   18.2910   36.4640   70.0270 C   0  0  0  0  0  0  0  0  0  0  0  0
   19.4540   36.7710   69.3070 C   0  0  0  0  0  0  0  0  0  0  0  0
   20.6560   36.2100   69.6100 C   0  0  0  0  0  0  0  0  0  0  0  0
   20.7210   35.3110   70.6610 C   0  0  0  0  0  3  0  0  0  0  0  0
   19.5720   35.0000   71.3810 C   0  0  0  0  0  0  0  0  0  0  0  0
   18.3590   35.5700   71.0720 C   0  0  0  0  0  3  0  0  0  0  0  0
   19.6000   34.0370   72.5180 C   0  0  0  0  0  1  0  0  0  0  0  0
   21.8850   36.5830   68.8580 C   0  0  1  0  0  3  0  0  0  0  0  0
   21.7040   36.9670   67.4330 C   0  0  0  0  0  0  0  0  0  0  0  0
   20.2110   37.2060   67.1060 C   0  0  0  0  0  2  0  0  0  0  0  0
   19.4840   37.6550   68.2380 O   0  0  0  0  0  0  0  0  0  0  0  0
   22.0810   35.8570   66.4690 C   0  0  0  0  0  2  0  0  0  0  0  0
   23.4270   35.3500   66.6290 N   0  0  0  0  0  4  0  0  0  0  0  0
   24.1160   35.3780   65.3390 C   0  0  0  0  0  2  0  0  0  0  0  0
   25.2020   34.3680   65.3850 C   0  0  0  0  0  2  0  0  0  0  0  0
   24.9500   33.6200   66.6500 C   0  0  0  0  0  2  0  0  0  0  0  0
   23.4660   33.9220   66.8930 C   0  0  0  0  0  2  0  0  0  0  0  0
   23.9860   35.8020   67.3670 H   0  0  0  0  0  0  0  0  0  0  0  0
   22.3430   38.2630   67.1070 C   0  0  0  0  0  2  0  0  0  0  0  0
   22.5570   38.8580   65.8910 N   0  0  0  0  0  4  0  0  0  0  0  0
   21.8550   40.1590   65.8280 C   0  0  0  0  0  2  0  0  0  0  0  0
   22.6980   41.0550   65.0070 C   0  0  0  0  0  2  0  0  0  0  0  0
   24.0800   40.5300   65.0870 C   0  0  0  0  0  2  0  0  0  0  0  0
   23.8720   39.0590   65.4410 C   0  0  0  0  0  2  0  0  0  0  0  0
   21.9940   38.3370   65.0840 H   0  0  0  0  0  0  0  0  0  0  0  0
   22.4280   37.6250   69.6620 O   0  0  0  0  0  0  0  0  0  0  0  0
   22.3150   38.4930   69.2380 H   0  0  0  0  0  0  0  0  0  0  0  0
  1  2  1  0  0  0  0
  2  7  1  0  0  0  0
  3  4  1  0  0  0  0
  3  2  2  0  0  0  0
  4  5  2  0  0  0  0
  5  6  1  0  0  0  0
  6  8  1  0  0  0  0
  7  6  2  0  0  0  0
  9  4  1  0  0  0  0
  9 27  1  1  0  0  0
 10  9  1  0  0  0  0
 11 10  1  0  0  0  0
 11 12  1  0  0  0  0
 12  3  1  0  0  0  0
 13 14  1  0  0  0  0
 13 10  1  0  0  0  0
 14 18  1  0  0  0  0
 14 19  1  0  0  0  0
 15 16  1  0  0  0  0
 15 14  1  0  0  0  0
 16 17  1  0  0  0  0
 17 18  1  0  0  0  0
 20 10  1  0  0  0  0
 21 20  1  0  0  0  0
 22 21  1  0  0  0  0
 23 24  1  0  0  0  0
 23 22  1  0  0  0  0
 24 25  1  0  0  0  0
 25 21  1  0  0  0  0
 26 21  1  0  0  0  0
 28 27  1  0  0  0  0
M  END
>  <Pose>
1

>  <Score>
-7.262

$$$$
