/Users/jonathanwahrer/Desktop/Msc/3_Semester/Drug_Design_Praktikum/waehrer_HTS_screening/HTS_experiment/out/docking_results/vina_output/4x21/0706_docked.pdbqt
 OpenBabel03212201503D

 30 33  0  0  0  0  0  0  0  0999 V2000
   21.8700   36.0230   68.9390 C   0  0  0  0  0  3  0  0  0  0  0  0
   20.8840   35.3560   69.7210 N   0  0  0  0  0  0  0  0  0  0  0  0
   21.1230   34.2050   70.3770 C   0  0  0  0  0  0  0  0  0  0  0  0
   22.7810   33.2210   70.4340 Br  0  0  0  0  0  0  0  0  0  0  0  0
   19.9760   33.8670   70.9920 N   0  0  0  0  0  0  0  0  0  0  0  0
   19.0280   34.7780   70.7350 C   0  0  0  0  0  0  0  0  0  0  0  0
   19.6110   35.7300   69.9210 C   0  0  0  0  0  0  0  0  0  0  0  0
   17.7330   34.9270   71.0830 N   0  0  0  0  0  0  0  0  0  0  0  0
   18.8060   36.7750   69.5210 C   0  0  0  0  0  0  0  0  0  0  0  0
   17.5160   36.9150   69.8740 N   0  0  0  0  0  0  0  0  0  0  0  0
   19.3120   37.6450   68.7830 O   0  0  0  0  0  0  0  0  0  0  0  0
   16.9800   35.9700   70.6680 C   0  0  0  0  0  0  0  0  0  0  0  0
   16.6880   38.0240   69.4410 C   0  0  0  0  0  1  0  0  0  0  0  0
   15.7670   36.0730   71.0180 O   0  0  0  0  0  0  0  0  0  0  0  0
   17.1310   33.9240   71.9370 C   0  0  0  0  0  1  0  0  0  0  0  0
   21.7540   35.9190   67.4620 C   0  0  0  0  0  3  0  0  0  0  0  0
   22.9150   36.2060   66.6890 N   0  0  0  0  0  0  0  0  0  0  0  0
   23.2190   37.4100   66.1420 C   0  0  0  0  0  0  0  0  0  0  0  0
   24.4070   37.3120   65.4610 C   0  0  0  0  0  0  0  0  0  0  0  0
   22.6000   38.6530   66.1350 C   0  0  0  0  0  0  0  0  0  0  0  0
   24.7970   36.0360   65.6160 N   0  0  0  0  0  0  0  0  0  0  0  0
   24.9770   38.3580   64.8040 N   0  0  0  0  0  0  0  0  0  0  0  0
   23.9000   35.3680   66.3540 C   0  0  0  0  0  0  0  0  0  0  0  0
   23.9620   33.5130   66.8750 Br  0  0  0  0  0  0  0  0  0  0  0  0
   24.3170   39.5290   64.8430 C   0  0  0  0  0  0  0  0  0  0  0  0
   26.2400   38.2180   64.0910 C   0  0  0  0  0  1  0  0  0  0  0  0
   24.8350   40.5070   64.2380 O   0  0  0  0  0  0  0  0  0  0  0  0
   23.1510   39.6830   65.4940 N   0  0  0  0  0  0  0  0  0  0  0  0
   22.4810   40.9660   65.5070 C   0  0  0  0  0  1  0  0  0  0  0  0
   21.5110   38.7300   66.7630 O   0  0  0  0  0  0  0  0  0  0  0  0
  1  2  1  0  0  0  0
  2  7  1  0  0  0  0
  2  3  1  0  0  0  0
  3  4  1  0  0  0  0
  3  5  2  0  0  0  0
  6  5  1  0  0  0  0
  6  8  1  0  0  0  0
  7  6  2  0  0  0  0
  8 15  1  0  0  0  0
  9 10  1  0  0  0  0
  9  7  1  0  0  0  0
 10 12  1  0  0  0  0
 11  9  2  0  0  0  0
 12 14  2  0  0  0  0
 12  8  1  0  0  0  0
 13 10  1  0  0  0  0
 16  1  2  0  0  0  0
 17 16  1  0  0  0  0
 18 17  1  0  0  0  0
 19 21  1  0  0  0  0
 19 18  2  0  0  0  0
 20 18  1  0  0  0  0
 20 30  2  0  0  0  0
 21 23  2  0  0  0  0
 22 25  1  0  0  0  0
 22 19  1  0  0  0  0
 23 17  1  0  0  0  0
 23 24  1  0  0  0  0
 25 28  1  0  0  0  0
 26 22  1  0  0  0  0
 27 25  2  0  0  0  0
 28 29  1  0  0  0  0
 28 20  1  0  0  0  0
M  END
>  <Pose>
1

>  <Score>
-8.639

$$$$
