/Users/jonathanwahrer/Desktop/Msc/3_Semester/Drug_Design_Praktikum/waehrer_HTS_screening/HTS_experiment/out/docking_results/vina_output/4x21/0708_docked.pdbqt
 OpenBabel03212201503D

 31 34  0  0  0  0  0  0  0  0999 V2000
   16.7630   36.0820   69.9830 C   0  0  0  0  0  2  0  0  0  0  0  0
   15.7370   35.9350   71.0690 C   0  0  0  0  0  2  0  0  0  0  0  0
   15.1890   34.5990   71.1810 N   0  0  0  0  0  0  0  0  0  0  0  0
   14.0510   34.1660   70.5570 C   0  0  0  0  0  0  0  0  0  0  0  0
   13.0150   35.2790   69.4100 Br  0  0  0  0  0  0  0  0  0  0  0  0
   13.8030   32.8880   70.8770 N   0  0  0  0  0  0  0  0  0  0  0  0
   14.7690   32.4520   71.7150 C   0  0  0  0  0  0  0  0  0  0  0  0
   15.6170   33.5340   71.8880 C   0  0  0  0  0  0  0  0  0  0  0  0
   14.9400   31.2560   72.3020 N   0  0  0  0  0  0  0  0  0  0  0  0
   16.6890   33.3680   72.7100 C   0  0  0  0  0  0  0  0  0  0  0  0
   16.8600   32.1540   73.3040 N   0  0  0  0  0  0  0  0  0  0  0  0
   17.4840   34.3100   72.9060 O   0  0  0  0  0  0  0  0  0  0  0  0
   16.0110   31.1290   73.1060 C   0  0  0  0  0  0  0  0  0  0  0  0
   17.6940   32.0720   73.9240 H   0  0  0  0  0  0  0  0  0  0  0  0
   16.2190   30.0110   73.6870 O   0  0  0  0  0  0  0  0  0  0  0  0
   14.0500   30.1300   72.1140 C   0  0  0  0  0  1  0  0  0  0  0  0
   17.7070   37.2350   70.1660 C   0  0  0  0  0  2  0  0  0  0  0  0
   18.7180   37.2230   69.1180 N   0  0  0  0  0  0  0  0  0  0  0  0
   19.9460   36.6570   69.1420 C   0  0  0  0  0  0  0  0  0  0  0  0
   20.5930   36.8710   67.9460 C   0  0  0  0  0  0  0  0  0  0  0  0
   20.6080   35.9480   70.1090 C   0  0  0  0  0  0  0  0  0  0  0  0
   19.7330   37.5800   67.1920 N   0  0  0  0  0  0  0  0  0  0  0  0
   21.8340   36.4230   67.6790 N   0  0  0  0  0  0  0  0  0  0  0  0
   18.6060   37.7890   67.9050 C   0  0  0  0  0  0  0  0  0  0  0  0
   17.0490   38.7350   67.3320 Br  0  0  0  0  0  0  0  0  0  0  0  0
   22.4510   35.7270   68.6650 C   0  0  0  0  0  0  0  0  0  0  0  0
   22.4820   36.6750   66.3940 C   0  0  0  0  0  1  0  0  0  0  0  0
   23.6200   35.3020   68.4170 O   0  0  0  0  0  0  0  0  0  0  0  0
   21.8520   35.4950   69.8520 N   0  0  0  0  0  0  0  0  0  0  0  0
   22.3740   34.9540   70.5700 H   0  0  0  0  0  0  0  0  0  0  0  0
   20.0240   35.7490   71.2020 O   0  0  0  0  0  0  0  0  0  0  0  0
  1 17  1  0  0  0  0
  1  2  1  0  0  0  0
  2  3  1  0  0  0  0
  3  8  1  0  0  0  0
  4  6  2  0  0  0  0
  4  3  1  0  0  0  0
  5  4  1  0  0  0  0
  6  7  1  0  0  0  0
  7  8  2  0  0  0  0
  7  9  1  0  0  0  0
  8 10  1  0  0  0  0
  9 13  1  0  0  0  0
 10 12  2  0  0  0  0
 10 11  1  0  0  0  0
 11 14  1  0  0  0  0
 13 11  1  0  0  0  0
 13 15  2  0  0  0  0
 16  9  1  0  0  0  0
 18 19  1  0  0  0  0
 18 17  1  0  0  0  0
 19 21  1  0  0  0  0
 20 19  2  0  0  0  0
 21 31  2  0  0  0  0
 22 24  2  0  0  0  0
 22 20  1  0  0  0  0
 23 20  1  0  0  0  0
 23 26  1  0  0  0  0
 24 18  1  0  0  0  0
 25 24  1  0  0  0  0
 26 29  1  0  0  0  0
 27 23  1  0  0  0  0
 28 26  2  0  0  0  0
 29 21  1  0  0  0  0
 29 30  1  0  0  0  0
M  END
>  <Pose>
1

>  <Score>
-8.649

$$$$
