/Users/jonathanwahrer/Desktop/Msc/3_Semester/Drug_Design_Praktikum/waehrer_HTS_screening/HTS_experiment/out/docking_results/vina_output/4x21/0709_docked.pdbqt
 OpenBabel03212201503D

 30 33  0  0  0  0  0  0  0  0999 V2000
   20.6680   36.7420   69.0450 C   0  0  0  0  0  3  0  0  0  0  0  0
   19.6060   36.1600   69.7920 N   0  0  0  0  0  0  0  0  0  0  0  0
   19.7290   35.1050   70.6320 C   0  0  0  0  0  0  0  0  0  0  0  0
   21.3930   34.2280   70.9630 Br  0  0  0  0  0  0  0  0  0  0  0  0
   18.5280   34.8120   71.1540 N   0  0  0  0  0  0  0  0  0  0  0  0
   17.5960   35.6630   70.6720 C   0  0  0  0  0  0  0  0  0  0  0  0
   18.2980   36.5060   69.8140 C   0  0  0  0  0  0  0  0  0  0  0  0
   16.2710   35.8070   70.8560 N   0  0  0  0  0  0  0  0  0  0  0  0
   17.5550   37.4720   69.1790 C   0  0  0  0  0  0  0  0  0  0  0  0
   16.2170   37.6120   69.3680 N   0  0  0  0  0  0  0  0  0  0  0  0
   18.1790   38.2430   68.3920 O   0  0  0  0  0  0  0  0  0  0  0  0
   15.5910   36.7710   70.2100 C   0  0  0  0  0  0  0  0  0  0  0  0
   15.7100   38.3670   68.8570 H   0  0  0  0  0  0  0  0  0  0  0  0
   14.3390   36.9140   70.3790 O   0  0  0  0  0  0  0  0  0  0  0  0
   15.5360   34.9370   71.7450 C   0  0  0  0  0  1  0  0  0  0  0  0
   20.8580   36.2630   67.6510 C   0  0  0  0  0  3  0  0  0  0  0  0
   22.1130   36.4860   67.0250 N   0  0  0  0  0  0  0  0  0  0  0  0
   22.5380   37.6010   66.4080 C   0  0  0  0  0  0  0  0  0  0  0  0
   23.8150   37.3930   65.9300 C   0  0  0  0  0  0  0  0  0  0  0  0
   21.9890   38.8520   66.1710 C   0  0  0  0  0  0  0  0  0  0  0  0
   24.1160   36.1290   66.2920 N   0  0  0  0  0  0  0  0  0  0  0  0
   24.4560   38.3640   65.2810 N   0  0  0  0  0  0  0  0  0  0  0  0
   23.1140   35.5590   66.9510 C   0  0  0  0  0  0  0  0  0  0  0  0
   23.0490   33.7750   67.6760 Br  0  0  0  0  0  0  0  0  0  0  0  0
   23.8720   39.5480   65.0840 C   0  0  0  0  0  0  0  0  0  0  0  0
   25.7930   38.1590   64.7750 C   0  0  0  0  0  1  0  0  0  0  0  0
   24.4590   40.4960   64.4640 O   0  0  0  0  0  0  0  0  0  0  0  0
   22.6300   39.8290   65.5180 N   0  0  0  0  0  0  0  0  0  0  0  0
   22.1990   40.7740   65.3450 H   0  0  0  0  0  0  0  0  0  0  0  0
   20.8350   39.1050   66.5810 O   0  0  0  0  0  0  0  0  0  0  0  0
  1  2  1  0  0  0  0
  2  7  1  0  0  0  0
  2  3  1  0  0  0  0
  3  4  1  0  0  0  0
  3  5  2  0  0  0  0
  6  8  1  0  0  0  0
  6  5  1  0  0  0  0
  7  6  2  0  0  0  0
  8 15  1  0  0  0  0
  9 10  1  0  0  0  0
  9  7  1  0  0  0  0
 10 12  1  0  0  0  0
 11  9  2  0  0  0  0
 12 14  2  0  0  0  0
 12  8  1  0  0  0  0
 13 10  1  0  0  0  0
 16  1  2  0  0  0  0
 17 16  1  0  0  0  0
 18 17  1  0  0  0  0
 19 21  1  0  0  0  0
 19 18  2  0  0  0  0
 20 18  1  0  0  0  0
 20 30  2  0  0  0  0
 21 23  2  0  0  0  0
 22 19  1  0  0  0  0
 23 17  1  0  0  0  0
 23 24  1  0  0  0  0
 25 22  1  0  0  0  0
 25 28  1  0  0  0  0
 26 22  1  0  0  0  0
 27 25  2  0  0  0  0
 28 20  1  0  0  0  0
 29 28  1  0  0  0  0
M  END
>  <Pose>
1

>  <Score>
-8.484

$$$$
