/Users/jonathanwahrer/Desktop/Msc/3_Semester/Drug_Design_Praktikum/waehrer_HTS_screening/HTS_experiment/out/docking_results/vina_output/4x21/0737_docked.pdbqt
 OpenBabel03212201513D

 21 24  0  0  1  0  0  0  0  0999 V2000
   14.2860   30.7620   73.0460 C   0  0  2  0  0  3  0  0  0  0  0  0
   13.2880   30.8330   73.8970 C   0  0  0  0  0  3  0  0  0  0  0  0
   12.9840   29.7340   74.8270 C   0  0  0  0  0  0  0  0  0  0  0  0
   11.9840   29.7920   75.6880 C   0  0  0  0  0  1  0  0  0  0  0  0
   13.8420   28.6070   74.7350 N   0  0  0  0  0  0  0  0  0  0  0  0
   14.9270   28.5480   73.7990 C   0  0  0  0  0  0  0  0  0  0  0  0
   15.1180   29.6210   72.9860 N   0  0  0  0  0  0  0  0  0  0  0  0
   16.1750   29.3130   72.2250 N   0  0  0  0  0  0  0  0  0  0  0  0
   16.6500   28.0960   72.5280 C   0  0  0  0  0  3  0  0  0  0  0  0
   15.8640   27.6280   73.5120 N   0  0  0  0  0  0  0  0  0  0  0  0
   13.6790   27.7950   75.3670 H   0  0  0  0  0  0  0  0  0  0  0  0
   14.5320   31.8440   72.1790 N   0  0  2  0  0  0  0  0  0  0  0  0
   13.6540   32.0150   71.0470 C   0  0  0  0  0  2  0  0  0  0  0  0
   13.6430   33.4430   70.6100 C   0  0  0  0  0  0  0  0  0  0  0  0
   14.7170   34.2120   70.7750 N   0  0  0  0  0  0  0  0  0  0  0  0
   12.6890   34.2110   70.0210 N   0  0  0  0  0  0  0  0  0  0  0  0
   14.4650   35.4400   70.3070 C   0  0  0  0  0  0  0  0  0  0  0  0
   15.9310   33.7020   71.3810 C   0  0  0  0  0  2  0  0  0  0  0  0
   15.6290   36.9630   70.2780 Br  0  0  0  0  0  0  0  0  0  0  0  0
   13.1720   35.4510   69.8240 C   0  0  0  0  0  3  0  0  0  0  0  0
   15.6470   32.7130   72.4730 C   0  0  0  0  0  2  0  0  0  0  0  0
  1  2  1  1  0  0  0
  2  3  2  0  0  0  0
  3  4  1  0  0  0  0
  5  3  1  0  0  0  0
  5 11  1  0  0  0  0
  6  5  1  0  0  0  0
  7  1  1  0  0  0  0
  7  6  1  0  0  0  0
  8  9  2  0  0  0  0
  8  7  1  0  0  0  0
  9 10  1  0  0  0  0
 10  6  2  0  0  0  0
 12 13  1  6  0  0  0
 12 21  1  0  0  0  0
 12  1  1  0  0  0  0
 14 15  1  0  0  0  0
 14 13  1  0  0  0  0
 15 18  1  0  0  0  0
 16 14  2  0  0  0  0
 17 15  1  0  0  0  0
 18 21  1  0  0  0  0
 19 17  1  0  0  0  0
 20 16  1  0  0  0  0
 20 17  2  0  0  0  0
M  END
>  <Pose>
1

>  <Score>
-7.478

$$$$
