/Users/jonathanwahrer/Desktop/Msc/3_Semester/Drug_Design_Praktikum/waehrer_HTS_screening/HTS_experiment/out/docking_results/vina_output/4x21/0746_docked.pdbqt
 OpenBabel03212201513D

 30 33  0  0  1  0  0  0  0  0999 V2000
   21.2850   36.1760   69.1160 C   0  0  0  0  0  0  0  0  0  0  0  0
   21.4630   35.0370   69.6740 O   0  0  0  0  0  0  0  0  0  0  0  0
   21.7460   36.3180   67.8020 N   0  0  0  0  0  0  0  0  0  0  0  0
   21.6070   37.5470   67.0490 C   0  0  0  0  0  2  0  0  0  0  0  0
   22.9810   38.0430   66.7190 C   0  0  0  0  0  2  0  0  0  0  0  0
   23.8200   36.9900   66.0680 C   0  0  1  0  0  0  0  0  0  0  0  0
   24.2860   37.5000   64.7900 N   0  0  0  0  0  0  0  0  0  0  0  0
   25.1730   38.6190   65.0520 C   0  0  0  0  0  2  0  0  0  0  0  0
   26.5370   38.0090   65.3960 C   0  0  0  0  0  2  0  0  0  0  0  0
   26.2950   37.1130   66.5530 C   0  0  0  0  0  0  0  0  0  0  0  0
   27.1690   36.6210   67.4520 N   0  0  0  0  0  0  0  0  0  0  0  0
   26.4710   35.8580   68.3090 C   0  0  0  0  0  3  0  0  0  0  0  0
   25.1800   35.8830   67.9340 N   0  0  0  0  0  0  0  0  0  0  0  0
   25.0340   36.6550   66.8450 C   0  0  0  0  0  0  0  0  0  0  0  0
   22.9760   35.7410   65.8150 C   0  0  0  0  0  2  0  0  0  0  0  0
   22.3950   35.2300   67.0930 C   0  0  0  0  0  2  0  0  0  0  0  0
   23.4850   37.8910   64.2200 H   0  0  0  0  0  0  0  0  0  0  0  0
   28.2070   36.7710   67.5220 H   0  0  0  0  0  0  0  0  0  0  0  0
   20.6110   37.1950   69.9380 C   0  0  2  0  0  3  0  0  0  0  0  0
   21.3270   37.5880   71.1790 C   0  0  0  0  0  1  0  0  0  0  0  0
   19.2550   36.8160   70.2790 N   0  0  0  0  0  0  0  0  0  0  0  0
   18.1260   37.2500   69.5620 C   0  0  0  0  0  0  0  0  0  0  0  0
   18.2730   38.0030   68.5770 O   0  0  0  0  0  0  0  0  0  0  0  0
   19.1210   36.1880   71.0980 H   0  0  0  0  0  0  0  0  0  0  0  0
   16.7900   36.8330   69.9560 C   0  0  0  0  0  0  0  0  0  0  0  0
   16.3650   35.5690   69.9950 O   0  0  0  0  0  0  0  0  0  0  0  0
   15.1190   35.5160   70.3880 C   0  0  0  0  0  0  0  0  0  0  0  0
   14.0760   33.9120   70.5980 Br  0  0  0  0  0  0  0  0  0  0  0  0
   14.6630   36.8020   70.6320 C   0  0  0  0  0  3  0  0  0  0  0  0
   15.7300   37.6180   70.3530 C   0  0  0  0  0  3  0  0  0  0  0  0
  1  2  2  0  0  0  0
  1 19  1  0  0  0  0
  3  1  1  0  0  0  0
  4  3  1  0  0  0  0
  5  4  1  0  0  0  0
  6 15  1  6  0  0  0
  6  5  1  0  0  0  0
  6 14  1  0  0  0  0
  7  8  1  0  0  0  0
  7  6  1  0  0  0  0
  8  9  1  0  0  0  0
  9 10  1  0  0  0  0
 10 14  2  0  0  0  0
 10 11  1  0  0  0  0
 11 18  1  0  0  0  0
 11 12  1  0  0  0  0
 13 12  2  0  0  0  0
 14 13  1  0  0  0  0
 15 16  1  0  0  0  0
 16  3  1  0  0  0  0
 17  7  1  0  0  0  0
 19 21  1  0  0  0  0
 19 20  1  1  0  0  0
 21 24  1  0  0  0  0
 22 25  1  0  0  0  0
 22 21  1  0  0  0  0
 23 22  2  0  0  0  0
 25 26  1  0  0  0  0
 25 30  2  0  0  0  0
 26 27  1  0  0  0  0
 27 28  1  0  0  0  0
 27 29  2  0  0  0  0
 30 29  1  0  0  0  0
M  END
>  <Pose>
1

>  <Score>
-8.159

$$$$
