/Users/jonathanwahrer/Desktop/Msc/3_Semester/Drug_Design_Praktikum/waehrer_HTS_screening/HTS_experiment/out/docking_results/vina_output/4x21/0755_docked.pdbqt
 OpenBabel03212201523D

 28 31  0  0  0  0  0  0  0  0999 V2000
   16.8860   30.3030   72.6890 C   0  0  0  0  0  0  0  0  0  0  0  0
   17.3190   29.2570   72.1820 O   0  0  0  0  0  0  0  0  0  0  0  0
   17.6770   31.4810   72.7220 N   0  0  0  0  0  0  0  0  0  0  0  0
   17.1600   32.7080   73.3220 C   0  0  0  0  0  2  0  0  0  0  0  0
   18.1790   33.8340   73.1670 C   0  0  0  0  0  2  0  0  0  0  0  0
   18.5800   33.8620   71.7740 N   0  0  0  0  0  0  0  0  0  0  0  0
   19.1410   32.6730   71.1940 C   0  0  0  0  0  2  0  0  0  0  0  0
   19.0170   31.5330   72.1730 C   0  0  0  0  0  2  0  0  0  0  0  0
   18.4270   35.0430   70.9770 C   0  0  0  0  0  0  0  0  0  0  0  0
   17.2730   35.7240   70.9410 N   0  0  0  0  0  0  0  0  0  0  0  0
   17.1590   36.8230   70.1860 C   0  0  0  0  0  0  0  0  0  0  0  0
   18.1850   37.2810   69.4420 N   0  0  0  0  0  0  0  0  0  0  0  0
   15.8770   37.5690   70.1540 C   0  0  0  0  0  1  0  0  0  0  0  0
   19.3700   36.6460   69.4330 C   0  0  0  0  0  0  0  0  0  0  0  0
   19.4670   35.5160   70.2180 C   0  0  0  0  0  3  0  0  0  0  0  0
   20.4770   37.0880   68.6690 N   0  0  0  0  0  0  0  0  0  0  0  0
   20.3360   37.3320   67.2480 C   0  0  0  0  0  2  0  0  0  0  0  0
   21.5730   38.0770   66.7940 C   0  0  0  0  0  2  0  0  0  0  0  0
   22.7240   37.2470   67.0260 N   0  0  0  0  0  0  0  0  0  0  0  0
   22.7870   36.6510   68.3230 C   0  0  0  0  0  2  0  0  0  0  0  0
   22.8950   36.3240   65.9330 C   0  0  0  0  0  1  0  0  0  0  0  0
   21.7880   37.3190   69.2440 C   0  0  0  0  0  2  0  0  0  0  0  0
   15.5230   30.3270   73.2690 C   0  0  0  0  0  0  0  0  0  0  0  0
   15.1310   29.7370   74.3710 O   0  0  0  0  0  0  0  0  0  0  0  0
   13.8630   29.9460   74.6210 C   0  0  0  0  0  0  0  0  0  0  0  0
   12.8920   29.2700   76.1220 Br  0  0  0  0  0  0  0  0  0  0  0  0
   13.3660   30.7360   73.6070 C   0  0  0  0  0  3  0  0  0  0  0  0
   14.4200   30.9690   72.7610 C   0  0  0  0  0  3  0  0  0  0  0  0
  1  3  1  0  0  0  0
  1 23  1  0  0  0  0
  2  1  2  0  0  0  0
  3  4  1  0  0  0  0
  5  4  1  0  0  0  0
  6  5  1  0  0  0  0
  7  6  1  0  0  0  0
  7  8  1  0  0  0  0
  8  3  1  0  0  0  0
  9  6  1  0  0  0  0
 10  9  1  0  0  0  0
 11 10  2  0  0  0  0
 12 11  1  0  0  0  0
 13 11  1  0  0  0  0
 14 12  2  0  0  0  0
 14 15  1  0  0  0  0
 15  9  2  0  0  0  0
 16 22  1  0  0  0  0
 16 14  1  0  0  0  0
 17 16  1  0  0  0  0
 18 19  1  0  0  0  0
 18 17  1  0  0  0  0
 19 20  1  0  0  0  0
 20 22  1  0  0  0  0
 21 19  1  0  0  0  0
 23 24  1  0  0  0  0
 24 25  1  0  0  0  0
 25 26  1  0  0  0  0
 27 25  2  0  0  0  0
 28 23  2  0  0  0  0
 28 27  1  0  0  0  0
M  END
>  <Pose>
1

>  <Score>
-8.476

$$$$
