/Users/jonathanwahrer/Desktop/Msc/3_Semester/Drug_Design_Praktikum/waehrer_HTS_screening/HTS_experiment/out/docking_results/vina_output/4x21/0767_docked.pdbqt
 OpenBabel03212201523D

 32 35  0  0  0  0  0  0  0  0999 V2000
   14.9360   29.4720   74.0100 C   0  0  0  0  0  2  0  0  0  0  0  0
   16.0810   30.2610   73.7040 N   0  0  0  0  0  0  0  0  0  0  0  0
   17.0420   29.8460   72.7410 C   0  0  0  0  0  0  0  0  0  0  0  0
   16.8560   28.7310   72.1450 O   0  0  0  0  0  0  0  0  0  0  0  0
   16.2250   31.1640   74.1910 H   0  0  0  0  0  0  0  0  0  0  0  0
   18.2160   30.6500   72.4240 C   0  0  0  0  0  0  0  0  0  0  0  0
   19.4460   30.2230   72.5580 O   0  0  0  0  0  0  0  0  0  0  0  0
   20.2870   31.1520   72.2030 N   0  0  0  0  0  0  0  0  0  0  0  0
   19.6070   32.2530   71.8120 C   0  0  0  0  0  0  0  0  0  0  0  0
   18.3180   31.9020   71.9630 N   0  0  0  0  0  0  0  0  0  0  0  0
   20.1550   33.5190   71.3390 C   0  0  0  0  0  0  0  0  0  0  0  0
   20.5340   33.8250   70.1240 O   0  0  0  0  0  0  0  0  0  0  0  0
   20.9780   35.0420   70.0360 C   0  0  0  0  0  0  0  0  0  0  0  0
   21.6400   35.9630   68.5160 Br  0  0  0  0  0  0  0  0  0  0  0  0
   20.9010   35.6330   71.2990 C   0  0  0  0  0  3  0  0  0  0  0  0
   20.3740   34.6430   72.1140 C   0  0  0  0  0  3  0  0  0  0  0  0
   13.6550   30.0450   73.4400 C   0  0  0  0  0  2  0  0  0  0  0  0
   13.7810   31.4730   73.1860 N   0  0  0  0  0  0  0  0  0  0  0  0
   14.1830   31.9070   71.9110 C   0  0  0  0  0  0  0  0  0  0  0  0
   14.4080   30.9730   71.0610 O   0  0  0  0  0  0  0  0  0  0  0  0
   13.5790   32.1760   73.9200 H   0  0  0  0  0  0  0  0  0  0  0  0
   14.3690   33.2600   71.4520 C   0  0  0  0  0  0  0  0  0  0  0  0
   15.6670   33.7150   71.2280 C   0  0  0  0  0  3  0  0  0  0  0  0
   15.8730   34.9960   70.7810 C   0  0  0  0  0  0  0  0  0  0  0  0
   14.8150   35.8220   70.5580 C   0  0  0  0  0  0  0  0  0  0  0  0
   17.1610   35.4850   70.5450 C   0  0  0  0  0  3  0  0  0  0  0  0
   15.0300   37.1260   70.1030 C   0  0  0  0  0  3  0  0  0  0  0  0
   13.6150   35.3680   70.7760 O   0  0  0  0  0  0  0  0  0  0  0  0
   16.2930   37.6110   69.8690 C   0  0  0  0  0  3  0  0  0  0  0  0
   17.3550   36.7730   70.0970 C   0  0  0  0  0  3  0  0  0  0  0  0
   13.3460   34.1410   71.2080 C   0  0  0  0  0  0  0  0  0  0  0  0
   12.1440   33.8300   71.3780 O   0  0  0  0  0  0  0  0  0  0  0  0
  2  1  1  0  0  0  0
  2  5  1  0  0  0  0
  3  2  1  0  0  0  0
  4  3  2  0  0  0  0
  6  7  1  0  0  0  0
  6  3  1  0  0  0  0
  8  7  1  0  0  0  0
  9 10  1  0  0  0  0
  9  8  2  0  0  0  0
 10  6  2  0  0  0  0
 11  9  1  0  0  0  0
 11 16  2  0  0  0  0
 12 11  1  0  0  0  0
 13 12  1  0  0  0  0
 13 15  2  0  0  0  0
 14 13  1  0  0  0  0
 15 16  1  0  0  0  0
 17  1  1  0  0  0  0
 18 17  1  0  0  0  0
 18 21  1  0  0  0  0
 19 18  1  0  0  0  0
 20 19  2  0  0  0  0
 22 19  1  0  0  0  0
 23 22  2  0  0  0  0
 24 23  1  0  0  0  0
 25 28  1  0  0  0  0
 25 24  1  0  0  0  0
 26 24  2  0  0  0  0
 27 25  2  0  0  0  0
 28 31  1  0  0  0  0
 29 30  2  0  0  0  0
 29 27  1  0  0  0  0
 30 26  1  0  0  0  0
 31 32  2  0  0  0  0
 31 22  1  0  0  0  0
M  END
>  <Pose>
1

>  <Score>
-9.449

$$$$
