/Users/jonathanwahrer/Desktop/Msc/3_Semester/Drug_Design_Praktikum/waehrer_HTS_screening/HTS_experiment/out/docking_results/vina_output/4x21/0784_docked.pdbqt
 OpenBabel03212201543D

 39 42  0  0  1  0  0  0  0  0999 V2000
   18.8970   32.3430   72.2970 C   0  0  1  0  0  3  0  0  0  0  0  0
   18.5220   32.4380   70.8090 C   0  0  2  0  0  0  0  0  0  0  0  0
   19.3800   33.5980   70.2850 C   0  0  0  0  0  2  0  0  0  0  0  0
   19.1980   34.8210   71.1410 C   0  0  2  0  0  0  0  0  0  0  0  0
   18.1760   34.6010   72.0320 O   0  0  0  0  0  0  0  0  0  0  0  0
   18.4020   33.5720   72.9420 C   0  0  0  0  0  2  0  0  0  0  0  0
   18.7340   35.9280   70.2050 C   0  0  0  0  0  2  0  0  0  0  0  0
   19.9290   36.5810   69.5570 C   0  0  0  0  0  2  0  0  0  0  0  0
   21.0870   35.6710   69.5840 N   0  0  0  0  0  0  0  0  0  0  0  0
   21.6270   35.4070   70.8850 C   0  0  0  0  0  2  0  0  0  0  0  0
   20.4310   35.2940   71.8260 C   0  0  0  0  0  2  0  0  0  0  0  0
   21.5980   35.0760   68.4310 C   0  0  0  0  0  0  0  0  0  0  0  0
   21.0370   35.2630   67.2830 O   0  0  0  0  0  0  0  0  0  0  0  0
   17.0590   32.6970   70.6320 C   0  0  0  0  0  1  0  0  0  0  0  0
   18.8550   31.2950   70.1150 O   0  0  0  0  0  0  0  0  0  0  0  0
   18.7070   31.4480   69.1480 H   0  0  0  0  0  0  0  0  0  0  0  0
   18.6000   31.0880   72.8570 N   0  0  0  0  0  0  0  0  0  0  0  0
   17.4030   30.4960   72.8490 C   0  0  0  0  0  3  0  0  0  0  0  0
   17.1910   29.2450   73.4280 C   0  0  0  0  0  0  0  0  0  0  0  0
   15.4530   28.4960   73.3620 Br  0  0  0  0  0  0  0  0  0  0  0  0
   18.2390   28.5850   74.0310 C   0  0  0  0  0  0  0  0  0  0  0  0
   19.4380   29.1930   74.0310 N   0  0  0  0  0  0  0  0  0  0  0  0
   18.0720   27.4410   74.5680 O   0  0  0  0  0  0  0  0  0  0  0  0
   19.6130   30.3990   73.4650 C   0  0  0  0  0  0  0  0  0  0  0  0
   20.2720   28.7290   74.4800 H   0  0  0  0  0  0  0  0  0  0  0  0
   20.7620   30.9150   73.4990 O   0  0  0  0  0  0  0  0  0  0  0  0
   22.7740   34.2190   68.4290 C   0  0  1  0  0  3  0  0  0  0  0  0
   22.4890   32.9470   69.0470 N   0  0  0  0  0  0  0  0  0  0  0  0
   23.0880   32.3650   70.1570 C   0  0  0  0  0  0  0  0  0  0  0  0
   24.0200   32.8620   70.8240 O   0  0  0  0  0  0  0  0  0  0  0  0
   22.6270   31.0110   70.6650 C   0  0  0  0  0  1  0  0  0  0  0  0
   21.7130   32.3920   68.5700 H   0  0  0  0  0  0  0  0  0  0  0  0
   23.2990   33.9660   66.9810 C   0  0  0  0  0  2  0  0  0  0  0  0
   24.7360   33.6420   67.0170 C   0  0  0  0  0  0  0  0  0  0  0  0
   25.3640   32.6390   67.6090 N   0  0  0  0  0  0  0  0  0  0  0  0
   26.7080   32.6990   67.4000 C   0  0  0  0  0  3  0  0  0  0  0  0
   26.9200   33.7910   66.6420 N   0  0  0  0  0  0  0  0  0  0  0  0
   25.7300   34.3810   66.3990 C   0  0  0  0  0  3  0  0  0  0  0  0
   27.8720   34.0920   66.3220 H   0  0  0  0  0  0  0  0  0  0  0  0
  1 17  1  1  0  0  0
  1  6  1  0  0  0  0
  2 14  1  6  0  0  0
  2  1  1  0  0  0  0
  3  2  1  0  0  0  0
  3  4  1  0  0  0  0
  4  7  1  6  0  0  0
  4 11  1  0  0  0  0
  4  5  1  0  0  0  0
  5  6  1  0  0  0  0
  8  9  1  0  0  0  0
  8  7  1  0  0  0  0
  9 10  1  0  0  0  0
 10 11  1  0  0  0  0
 12  9  1  0  0  0  0
 13 12  2  0  0  0  0
 15  2  1  0  0  0  0
 16 15  1  0  0  0  0
 17 24  1  0  0  0  0
 18 17  1  0  0  0  0
 18 19  2  0  0  0  0
 19 21  1  0  0  0  0
 20 19  1  0  0  0  0
 21 22  1  0  0  0  0
 21 23  2  0  0  0  0
 22 25  1  0  0  0  0
 24 26  2  0  0  0  0
 24 22  1  0  0  0  0
 27 33  1  6  0  0  0
 27 12  1  0  0  0  0
 27 28  1  0  0  0  0
 28 29  1  0  0  0  0
 29 31  1  0  0  0  0
 29 30  2  0  0  0  0
 32 28  1  0  0  0  0
 33 34  1  0  0  0  0
 34 35  1  0  0  0  0
 36 35  2  0  0  0  0
 37 36  1  0  0  0  0
 38 37  1  0  0  0  0
 38 34  2  0  0  0  0
 39 37  1  0  0  0  0
M  END
>  <Pose>
1

>  <Score>
-8.307

$$$$
