/Users/jonathanwahrer/Desktop/Msc/3_Semester/Drug_Design_Praktikum/waehrer_HTS_screening/HTS_experiment/out/docking_results/vina_output/4x21/0786_docked.pdbqt
 OpenBabel03212201543D

 25 28  0  0  1  0  0  0  0  0999 V2000
   20.9290   35.9050   69.1600 N   0  0  0  0  0  0  0  0  0  0  0  0
   21.4070   36.3820   67.9300 C   0  0  0  0  0  0  0  0  0  0  0  0
   21.2840   37.5900   67.6380 O   0  0  0  0  0  0  0  0  0  0  0  0
   21.0360   34.8990   69.3920 H   0  0  0  0  0  0  0  0  0  0  0  0
   20.2960   36.8190   70.0850 C   0  0  0  0  0  2  0  0  0  0  0  0
   18.8470   36.5280   70.2220 C   0  0  0  0  0  0  0  0  0  0  0  0
   17.8140   37.3400   69.9310 N   0  0  0  0  0  0  0  0  0  0  0  0
   16.6580   36.7070   70.1950 C   0  0  0  0  0  0  0  0  0  0  0  0
   16.9430   35.4770   70.6590 N   0  0  0  0  0  0  0  0  0  0  0  0
   15.3360   37.1230   70.0600 C   0  0  0  0  0  3  0  0  0  0  0  0
   15.9120   34.6500   70.9940 C   0  0  0  0  0  3  0  0  0  0  0  0
   18.2830   35.3560   70.6800 C   0  0  0  0  0  3  0  0  0  0  0  0
   14.5940   35.0320   70.8730 C   0  0  0  0  0  0  0  0  0  0  0  0
   13.1500   33.8660   71.3440 Br  0  0  0  0  0  0  0  0  0  0  0  0
   14.2980   36.2920   70.3980 C   0  0  0  0  0  3  0  0  0  0  0  0
   22.0560   35.4680   66.9720 C   0  0  1  0  0  3  0  0  0  0  0  0
   23.1650   36.1740   66.2350 C   0  0  0  0  0  2  0  0  0  0  0  0
   24.1250   36.6100   67.2310 N   0  0  0  0  0  0  0  0  0  0  0  0
   24.3780   35.8410   68.3030 C   0  0  0  0  0  0  0  0  0  0  0  0
   24.8860   37.6990   67.3360 C   0  0  0  0  0  0  0  0  0  0  0  0
   25.2980   36.4930   69.0430 N   0  0  0  0  0  0  0  0  0  0  0  0
   23.7430   34.5420   68.5720 C   0  0  0  0  0  2  0  0  0  0  0  0
   25.6060   37.6150   68.4620 N   0  0  0  0  0  0  0  0  0  0  0  0
   22.5700   34.2540   67.7040 C   0  0  0  0  0  2  0  0  0  0  0  0
   24.9800   38.8650   66.4040 C   0  0  0  0  0  1  0  0  0  0  0  0
  1  4  1  0  0  0  0
  1  5  1  0  0  0  0
  2  1  1  0  0  0  0
  3  2  2  0  0  0  0
  5  6  1  0  0  0  0
  6 12  2  0  0  0  0
  7  8  2  0  0  0  0
  7  6  1  0  0  0  0
  8  9  1  0  0  0  0
  9 12  1  0  0  0  0
  9 11  1  0  0  0  0
 10  8  1  0  0  0  0
 10 15  2  0  0  0  0
 13 11  2  0  0  0  0
 13 14  1  0  0  0  0
 15 13  1  0  0  0  0
 16 24  1  0  0  0  0
 16  2  1  1  0  0  0
 17 16  1  0  0  0  0
 17 18  1  0  0  0  0
 18 20  1  0  0  0  0
 18 19  1  0  0  0  0
 19 22  1  0  0  0  0
 19 21  2  0  0  0  0
 20 23  2  0  0  0  0
 23 21  1  0  0  0  0
 24 22  1  0  0  0  0
 25 20  1  0  0  0  0
M  END
>  <Pose>
1

>  <Score>
-8.022

$$$$
