/Users/jonathanwahrer/Desktop/Msc/3_Semester/Drug_Design_Praktikum/waehrer_HTS_screening/HTS_experiment/out/docking_results/vina_output/4x21/0789_docked.pdbqt
 OpenBabel03212201543D

 21 24  0  0  1  0  0  0  0  0999 V2000
   14.1170   32.7420   71.4730 C   0  0  0  0  0  0  0  0  0  0  0  0
   12.9200   32.7180   71.0780 O   0  0  0  0  0  0  0  0  0  0  0  0
   14.8430   33.9510   71.3310 N   0  0  0  0  0  0  0  0  0  0  0  0
   14.2210   35.0920   70.7650 C   0  0  0  0  0  2  0  0  0  0  0  0
   15.1640   36.0250   70.1020 C   0  0  2  0  0  3  0  0  0  0  0  0
   16.5510   35.6590   70.1530 N   0  0  2  0  0  0  0  0  0  0  0  0
   16.9450   35.2530   71.4900 C   0  0  0  0  0  2  0  0  0  0  0  0
   16.2090   33.9590   71.7810 C   0  0  0  0  0  2  0  0  0  0  0  0
   17.2260   36.8220   69.6650 C   0  0  0  0  0  2  0  0  0  0  0  0
   16.4520   37.9950   70.2110 C   0  0  0  0  0  2  0  0  0  0  0  0
   15.1660   37.4030   70.7440 C   0  0  0  0  0  2  0  0  0  0  0  0
   14.7020   31.5280   72.0590 C   0  0  0  0  0  0  0  0  0  0  0  0
   14.6230   31.0500   73.3090 N   0  0  0  0  0  0  0  0  0  0  0  0
   15.2950   29.9180   73.4450 N   0  0  0  0  0  0  0  0  0  0  0  0
   15.5120   29.0710   74.4860 C   0  0  0  0  0  3  0  0  0  0  0  0
   15.8590   29.5930   72.2670 C   0  0  0  0  0  0  0  0  0  0  0  0
   16.2700   27.9290   74.3570 C   0  0  0  0  0  0  0  0  0  0  0  0
   16.5640   26.7450   75.8430 Br  0  0  0  0  0  0  0  0  0  0  0  0
   16.8380   27.6180   73.1420 C   0  0  0  0  0  3  0  0  0  0  0  0
   16.6100   28.4680   72.1300 N   0  0  0  0  0  0  0  0  0  0  0  0
   15.4950   30.5950   71.3910 C   0  0  0  0  0  3  0  0  0  0  0  0
  1 12  1  0  0  0  0
  2  1  2  0  0  0  0
  3  1  1  0  0  0  0
  3  8  1  0  0  0  0
  4  3  1  0  0  0  0
  5  6  1  0  0  0  0
  5 11  1  1  0  0  0
  5  4  1  0  0  0  0
  6  9  1  1  0  0  0
  6  7  1  0  0  0  0
  7  8  1  0  0  0  0
  9 10  1  0  0  0  0
 10 11  1  0  0  0  0
 12 13  2  0  0  0  0
 13 14  1  0  0  0  0
 14 15  1  0  0  0  0
 16 14  1  0  0  0  0
 17 15  2  0  0  0  0
 17 18  1  0  0  0  0
 19 17  1  0  0  0  0
 20 16  1  0  0  0  0
 20 19  2  0  0  0  0
 21 12  1  0  0  0  0
 21 16  2  0  0  0  0
M  END
>  <Pose>
1

>  <Score>
-7.593

$$$$
