/Users/jonathanwahrer/Desktop/Msc/3_Semester/Drug_Design_Praktikum/waehrer_HTS_screening/HTS_experiment/out/docking_results/vina_output/4x21/0790_docked.pdbqt
 OpenBabel03212201543D

 25 28  0  0  0  0  0  0  0  0999 V2000
   20.5690   35.1840   71.0020 C   0  0  0  0  0  0  0  0  0  0  0  0
   20.8660   35.2110   72.2310 O   0  0  0  0  0  0  0  0  0  0  0  0
   21.3950   34.5110   70.0660 N   0  0  0  0  0  0  0  0  0  0  0  0
   20.9750   34.5290   68.6560 C   0  0  0  0  0  2  0  0  0  0  0  0
   22.2810   34.3570   67.8810 C   0  0  0  0  0  2  0  0  0  0  0  0
   23.2630   35.1190   68.5940 N   0  0  0  0  0  0  0  0  0  0  0  0
   23.8480   34.3580   69.7370 C   0  0  0  0  0  2  0  0  0  0  0  0
   22.6140   33.8250   70.4690 C   0  0  0  0  0  2  0  0  0  0  0  0
   23.6700   36.4250   68.3760 C   0  0  0  0  0  0  0  0  0  0  0  0
   24.6180   36.8830   69.1390 O   0  0  0  0  0  0  0  0  0  0  0  0
   19.3640   35.8580   70.5830 C   0  0  0  0  0  0  0  0  0  0  0  0
   19.2200   37.0870   69.9830 C   0  0  0  0  0  3  0  0  0  0  0  0
   17.9160   37.3240   69.7640 N   0  0  0  0  0  0  0  0  0  0  0  0
   17.2230   36.2740   70.2100 N   0  0  0  0  0  0  0  0  0  0  0  0
   15.9210   36.0190   70.2280 C   0  0  0  0  0  3  0  0  0  0  0  0
   18.0720   35.3620   70.7160 C   0  0  0  0  0  0  0  0  0  0  0  0
   15.4400   34.8570   70.7460 C   0  0  0  0  0  0  0  0  0  0  0  0
   13.5710   34.4980   70.7670 Br  0  0  0  0  0  0  0  0  0  0  0  0
   16.3080   33.9320   71.2590 C   0  0  0  0  0  3  0  0  0  0  0  0
   17.6130   34.2110   71.2300 N   0  0  0  0  0  0  0  0  0  0  0  0
   23.1950   37.3980   67.4070 C   0  0  0  0  0  0  0  0  0  0  0  0
   21.9500   37.8940   67.3760 O   0  0  0  0  0  0  0  0  0  0  0  0
   21.7890   38.7380   66.4150 C   0  0  0  0  0  3  0  0  0  0  0  0
   22.9630   38.8620   65.7150 C   0  0  0  0  0  3  0  0  0  0  0  0
   23.8420   38.0050   66.3580 C   0  0  0  0  0  3  0  0  0  0  0  0
  1  2  2  0  0  0  0
  3  8  1  0  0  0  0
  3  1  1  0  0  0  0
  4  3  1  0  0  0  0
  5  6  1  0  0  0  0
  5  4  1  0  0  0  0
  6  7  1  0  0  0  0
  7  8  1  0  0  0  0
  9  6  1  0  0  0  0
  9 10  2  0  0  0  0
 11 16  2  0  0  0  0
 11  1  1  0  0  0  0
 12 11  1  0  0  0  0
 13 12  2  0  0  0  0
 13 14  1  0  0  0  0
 14 15  1  0  0  0  0
 14 16  1  0  0  0  0
 15 17  2  0  0  0  0
 16 20  1  0  0  0  0
 17 18  1  0  0  0  0
 17 19  1  0  0  0  0
 20 19  2  0  0  0  0
 21  9  1  0  0  0  0
 22 21  1  0  0  0  0
 23 22  1  0  0  0  0
 24 25  1  0  0  0  0
 24 23  2  0  0  0  0
 25 21  2  0  0  0  0
M  END
>  <Pose>
1

>  <Score>
-8.125

$$$$
