/Users/jonathanwahrer/Desktop/Msc/3_Semester/Drug_Design_Praktikum/waehrer_HTS_screening/HTS_experiment/out/docking_results/vina_output/4x21/0800_docked.pdbqt
 OpenBabel03212201543D

 29 32  0  0  1  0  0  0  0  0999 V2000
   18.7900   37.2690   69.5630 C   0  0  0  0  0  0  0  0  0  0  0  0
   18.6310   37.6170   68.3640 O   0  0  0  0  0  0  0  0  0  0  0  0
   17.6760   37.1550   70.3600 O   0  0  0  0  0  0  0  0  0  0  0  0
   16.3630   37.0710   69.8400 C   0  0  0  0  0  2  0  0  0  0  0  0
   15.7070   35.8620   70.3980 C   0  0  0  0  0  0  0  0  0  0  0  0
   16.3620   35.0180   71.2150 N   0  0  0  0  0  0  0  0  0  0  0  0
   15.7740   33.9120   71.7300 C   0  0  1  0  0  3  0  0  0  0  0  0
   14.4920   33.6110   71.4370 N   0  0  0  0  0  0  0  0  0  0  0  0
   16.4910   33.0770   72.5640 C   0  0  0  0  0  3  0  0  0  0  0  0
   13.8890   32.5190   71.9370 C   0  0  0  0  0  3  0  0  0  0  0  0
   13.7920   34.4300   70.6200 C   0  0  0  0  0  0  0  0  0  0  0  0
   14.5990   31.6820   72.7700 C   0  0  0  0  0  0  0  0  0  0  0  0
   13.7390   30.1310   73.4780 Br  0  0  0  0  0  0  0  0  0  0  0  0
   15.9200   31.9450   73.1010 C   0  0  0  0  0  3  0  0  0  0  0  0
   14.3990   35.5720   70.0880 C   0  0  0  0  0  2  0  0  0  0  0  0
   12.6110   34.1590   70.3470 O   0  0  0  0  0  0  0  0  0  0  0  0
   20.1810   37.0090   70.0180 C   0  0  0  0  0  2  0  0  0  0  0  0
   20.5560   35.6330   69.8820 N   0  0  0  0  0  0  0  0  0  0  0  0
   21.0120   34.9900   68.6920 C   0  0  0  0  0  0  0  0  0  0  0  0
   21.1520   35.5570   67.5700 O   0  0  0  0  0  0  0  0  0  0  0  0
   21.2730   33.6260   69.0000 N   0  0  0  0  0  0  0  0  0  0  0  0
   20.8310   33.3600   70.3460 C   0  0  0  0  0  0  0  0  0  0  0  0
   21.7110   32.9600   68.3410 H   0  0  0  0  0  0  0  0  0  0  0  0
   19.5960   32.5010   70.3980 C   0  0  0  0  0  2  0  0  0  0  0  0
   21.8120   32.5880   71.1610 C   0  0  0  0  0  2  0  0  0  0  0  0
   20.5330   34.6650   70.9330 C   0  0  0  0  0  0  0  0  0  0  0  0
   19.6110   31.9630   71.7950 C   0  0  0  0  0  2  0  0  0  0  0  0
   20.9830   32.1840   72.3610 C   0  0  0  0  0  2  0  0  0  0  0  0
   20.2940   34.9450   72.1310 O   0  0  0  0  0  0  0  0  0  0  0  0
  1 17  1  0  0  0  0
  1  3  1  0  0  0  0
  2  1  2  0  0  0  0
  4  3  1  0  0  0  0
  4  5  1  0  0  0  0
  5  6  2  0  0  0  0
  6  7  1  0  0  0  0
  7  9  1  6  0  0  0
  8  7  1  0  0  0  0
  8 10  1  0  0  0  0
  9 14  2  0  0  0  0
 10 12  2  0  0  0  0
 11  8  1  0  0  0  0
 12 14  1  0  0  0  0
 12 13  1  0  0  0  0
 15  5  1  0  0  0  0
 15 11  1  0  0  0  0
 16 11  2  0  0  0  0
 18 17  1  0  0  0  0
 18 26  1  0  0  0  0
 19 21  1  0  0  0  0
 19 18  1  0  0  0  0
 20 19  2  0  0  0  0
 21 22  1  0  0  0  0
 22 24  1  0  0  0  0
 22 26  1  0  0  0  0
 22 25  1  0  0  0  0
 23 21  1  0  0  0  0
 24 27  1  0  0  0  0
 25 28  1  0  0  0  0
 26 29  2  0  0  0  0
 27 28  1  0  0  0  0
M  END
>  <Pose>
1

>  <Score>
-8.504

$$$$
