/Users/jonathanwahrer/Desktop/Msc/3_Semester/Drug_Design_Praktikum/waehrer_HTS_screening/HTS_experiment/out/docking_results/vina_output/4x21/0803_docked.pdbqt
 OpenBabel03212201553D

 31 34  0  0  0  0  0  0  0  0999 V2000
   16.4320   37.7240   70.1070 Br  0  0  0  0  0  0  0  0  0  0  0  0
   18.0000   36.6530   70.0330 C   0  0  0  0  0  0  0  0  0  0  0  0
   19.1910   37.1080   69.5860 C   0  0  0  0  0  2  0  0  0  0  0  0
   20.3170   36.3880   69.6130 N   0  0  0  0  0  0  0  0  0  0  0  0
   20.2660   35.1520   70.1080 C   0  0  0  0  0  0  0  0  0  0  0  0
   21.3990   34.3960   70.1380 N   0  0  0  0  0  0  0  0  0  0  0  0
   22.5710   34.8290   69.6940 C   0  0  0  0  0  0  0  0  0  0  0  0
   22.6500   36.1030   69.1780 C   0  0  0  0  0  0  0  0  0  0  0  0
   23.8390   36.6080   68.6930 C   0  0  0  0  0  3  0  0  0  0  0  0
   25.0200   35.8650   68.6980 C   0  0  0  0  0  3  0  0  0  0  0  0
   24.9290   34.5910   69.2160 C   0  0  0  0  0  3  0  0  0  0  0  0
   23.7390   34.0810   69.7040 C   0  0  0  0  0  3  0  0  0  0  0  0
   21.4830   36.8580   69.1570 C   0  0  0  0  0  0  0  0  0  0  0  0
   21.5410   38.0170   68.6900 O   0  0  0  0  0  0  0  0  0  0  0  0
   19.0840   34.6720   70.5610 N   0  0  0  0  0  0  0  0  0  0  0  0
   17.9290   35.3230   70.5670 C   0  0  0  0  0  0  0  0  0  0  0  0
   19.1780   33.6720   70.9320 H   0  0  0  0  0  0  0  0  0  0  0  0
   16.6920   34.8730   70.9050 N   0  0  0  0  0  0  0  0  0  0  0  0
   17.1750   34.2330   72.0110 H   0  0  0  0  0  0  0  0  0  0  0  0
   15.4730   34.4300   71.2390 C   0  0  0  0  0  0  0  0  0  0  0  0
   15.3320   33.1480   71.7870 C   0  0  0  0  0  0  0  0  0  0  0  0
   14.1070   32.5800   71.9150 C   0  0  0  0  0  3  0  0  0  0  0  0
   12.9800   33.2550   71.5130 C   0  0  0  0  0  3  0  0  0  0  0  0
   13.0510   34.5200   70.9740 C   0  0  0  0  0  3  0  0  0  0  0  0
   14.3040   35.0730   70.8520 C   0  0  0  0  0  3  0  0  0  0  0  0
   16.4680   32.4300   72.3780 C   0  0  0  0  0  0  0  0  0  0  0  0
   16.9860   32.9140   73.4160 O   0  0  0  0  0  0  0  0  0  0  0  0
   17.0170   31.2780   71.8940 O   0  0  0  0  0  0  0  0  0  0  0  0
   17.1170   30.0940   72.6620 C   0  0  0  0  0  2  0  0  0  0  0  0
   15.7770   29.3530   72.6700 C   0  0  0  0  0  2  0  0  0  0  0  0
   15.1370   29.5290   74.0270 C   0  0  0  0  0  1  0  0  0  0  0  0
  2  1  1  0  0  0  0
  2 16  2  0  0  0  0
  3  4  1  0  0  0  0
  3  2  1  0  0  0  0
  4  5  1  0  0  0  0
  5  6  2  0  0  0  0
  5 15  1  0  0  0  0
  7 12  1  0  0  0  0
  7  6  1  0  0  0  0
  8  7  2  0  0  0  0
  9 10  2  0  0  0  0
  9  8  1  0  0  0  0
 10 11  1  0  0  0  0
 11 12  2  0  0  0  0
 13  8  1  0  0  0  0
 13  4  1  0  0  0  0
 14 13  2  0  0  0  0
 15 16  1  0  0  0  0
 15 17  1  0  0  0  0
 16 18  1  0  0  0  0
 18 20  1  0  0  0  0
 18 19  1  0  0  0  0
 20 21  1  0  0  0  0
 21 22  2  0  0  0  0
 21 26  1  0  0  0  0
 23 22  1  0  0  0  0
 24 23  2  0  0  0  0
 25 24  1  0  0  0  0
 25 20  2  0  0  0  0
 26 27  2  0  0  0  0
 28 26  1  0  0  0  0
 28 29  1  0  0  0  0
 29 30  1  0  0  0  0
 30 31  1  0  0  0  0
M  END
>  <Pose>
1

>  <Score>
-8.216

$$$$
