/Users/jonathanwahrer/Desktop/Msc/3_Semester/Drug_Design_Praktikum/waehrer_HTS_screening/HTS_experiment/out/docking_results/vina_output/4x21/0833_docked.pdbqt
 OpenBabel03212201553D

 28 31  0  0  1  0  0  0  0  0999 V2000
   20.0260   35.0740   71.6380 C   0  0  1  0  0  0  0  0  0  0  0  0
   20.7000   33.9980   70.9240 N   0  0  0  0  0  0  0  0  0  0  0  0
   20.0890   32.6910   70.7130 C   0  0  0  0  0  2  0  0  0  0  0  0
   21.0510   31.6630   70.2430 C   0  0  0  0  0  2  0  0  0  0  0  0
   22.2950   31.5530   71.0860 C   0  0  0  0  0  2  0  0  0  0  0  0
   23.3500   32.3900   70.3860 C   0  0  0  0  0  2  0  0  0  0  0  0
   23.0840   33.7960   70.3140 C   0  0  0  0  0  3  0  0  0  0  0  0
   21.9460   34.4910   70.5450 C   0  0  0  0  0  0  0  0  0  0  0  0
   21.9140   35.8920   70.3960 N   0  0  0  0  0  4  0  0  0  0  0  0
   20.6590   36.2530   70.9860 C   0  0  0  0  0  2  0  0  0  0  0  0
   22.6790   36.3980   70.8990 H   0  0  0  0  0  0  0  0  0  0  0  0
   18.5650   34.9930   71.4370 C   0  0  0  0  0  0  0  0  0  0  0  0
   17.9930   35.7680   70.4230 C   0  0  0  0  0  3  0  0  0  0  0  0
   16.6060   35.7000   70.2810 C   0  0  0  0  0  3  0  0  0  0  0  0
   15.8530   34.9030   71.1120 C   0  0  0  0  0  0  0  0  0  0  0  0
   13.9530   34.8390   70.8810 Br  0  0  0  0  0  0  0  0  0  0  0  0
   16.4550   34.1490   72.1040 C   0  0  0  0  0  3  0  0  0  0  0  0
   17.8300   34.2020   72.2610 C   0  0  0  0  0  3  0  0  0  0  0  0
   20.3270   34.9360   72.9680 O   0  0  0  0  0  0  0  0  0  0  0  0
   19.5760   35.1160   73.5710 H   0  0  0  0  0  0  0  0  0  0  0  0
   21.9480   36.1410   68.9900 C   0  0  0  0  0  0  0  0  0  0  0  0
   23.0570   36.7230   68.4000 C   0  0  0  0  0  0  0  0  0  0  0  0
   22.9600   36.9940   67.0410 C   0  0  0  0  0  3  0  0  0  0  0  0
   21.8440   36.7200   66.2720 C   0  0  0  0  0  3  0  0  0  0  0  0
   20.7390   36.1260   66.9180 C   0  0  0  0  0  3  0  0  0  0  0  0
   20.8470   35.8670   68.2370 C   0  0  0  0  0  3  0  0  0  0  0  0
   24.1630   36.9960   69.1460 O   0  0  0  0  0  0  0  0  0  0  0  0
   25.4500   36.9880   68.5850 C   0  0  0  0  0  1  0  0  0  0  0  0
  1 19  1  1  0  0  0
  2  1  1  0  0  0  0
  3  2  1  0  0  0  0
  4  3  1  0  0  0  0
  4  5  1  0  0  0  0
  6  5  1  0  0  0  0
  7  6  1  0  0  0  0
  7  8  2  0  0  0  0
  8  2  1  0  0  0  0
  9  8  1  0  0  0  0
  9 11  1  0  0  0  0
  9 10  1  0  0  0  0
 10  1  1  0  0  0  0
 12  1  1  0  0  0  0
 12 18  1  0  0  0  0
 13 12  2  0  0  0  0
 14 13  1  0  0  0  0
 14 15  2  0  0  0  0
 15 17  1  0  0  0  0
 16 15  1  0  0  0  0
 17 18  2  0  0  0  0
 19 20  1  0  0  0  0
 21  9  1  0  0  0  0
 22 21  1  0  0  0  0
 22 27  1  0  0  0  0
 23 22  2  0  0  0  0
 24 25  2  0  0  0  0
 24 23  1  0  0  0  0
 25 26  1  0  0  0  0
 26 21  2  0  0  0  0
 28 27  1  0  0  0  0
M  END
>  <Pose>
1

>  <Score>
-7.654

$$$$
