/Users/jonathanwahrer/Desktop/Msc/3_Semester/Drug_Design_Praktikum/waehrer_HTS_screening/HTS_experiment/out/docking_results/vina_output/4x21/0834_docked.pdbqt
 OpenBabel03212201563D

 28 31  0  0  1  0  0  0  0  0999 V2000
   20.6940   33.1820   70.8220 C   0  0  2  0  0  0  0  0  0  0  0  0
   20.7510   34.4260   70.1250 N   0  0  0  0  0  0  0  0  0  0  0  0
   21.0450   34.6480   68.7430 C   0  0  0  0  0  3  0  0  0  0  0  0
   22.0010   35.7290   68.4140 C   0  0  0  0  0  3  0  0  0  0  0  0
   22.5420   36.5270   69.5440 C   0  0  0  0  0  2  0  0  0  0  0  0
   21.4980   37.4790   70.1300 C   0  0  0  0  0  2  0  0  0  0  0  0
   20.7290   36.6950   71.1450 C   0  0  0  0  0  3  0  0  0  0  0  0
   20.4160   35.4100   71.1410 C   0  0  0  0  0  0  0  0  0  0  0  0
   19.6890   34.7630   72.1780 N   0  0  0  0  0  4  0  0  0  0  0  0
   20.4280   33.5410   72.2880 C   0  0  0  0  0  2  0  0  0  0  0  0
   19.7630   35.3580   73.0410 H   0  0  0  0  0  0  0  0  0  0  0  0
   21.9000   32.3590   70.8540 C   0  0  0  0  0  0  0  0  0  0  0  0
   23.1750   32.7310   70.5830 C   0  0  0  0  0  3  0  0  0  0  0  0
   24.2380   31.8400   70.6550 C   0  0  0  0  0  3  0  0  0  0  0  0
   24.0200   30.5260   71.0130 C   0  0  0  0  0  0  0  0  0  0  0  0
   25.4660   29.2790   71.1240 Br  0  0  0  0  0  0  0  0  0  0  0  0
   22.7280   30.1450   71.2880 C   0  0  0  0  0  3  0  0  0  0  0  0
   21.6710   31.0160   71.2210 C   0  0  0  0  0  3  0  0  0  0  0  0
   19.6690   32.3440   70.3390 O   0  0  0  0  0  0  0  0  0  0  0  0
   19.8970   31.4410   70.6790 H   0  0  0  0  0  0  0  0  0  0  0  0
   18.3590   34.5830   71.7640 C   0  0  0  0  0  0  0  0  0  0  0  0
   17.5300   33.6380   72.3970 C   0  0  0  0  0  3  0  0  0  0  0  0
   16.2320   33.4360   72.0140 C   0  0  0  0  0  3  0  0  0  0  0  0
   15.6770   34.1610   70.9810 C   0  0  0  0  0  0  0  0  0  0  0  0
   16.4650   35.0870   70.3490 C   0  0  0  0  0  3  0  0  0  0  0  0
   17.7740   35.2900   70.7350 C   0  0  0  0  0  3  0  0  0  0  0  0
   14.3400   33.9460   70.5950 O   0  0  0  0  0  0  0  0  0  0  0  0
   13.5660   32.9780   71.2540 C   0  0  0  0  0  1  0  0  0  0  0  0
  1 19  1  6  0  0  0
  1 12  1  0  0  0  0
  1 10  1  0  0  0  0
  2  1  1  0  0  0  0
  2  8  1  0  0  0  0
  3  2  1  0  0  0  0
  4  3  2  0  0  0  0
  4  5  1  0  0  0  0
  5  6  1  0  0  0  0
  6  7  1  0  0  0  0
  8  7  2  0  0  0  0
  8  9  1  0  0  0  0
  9 10  1  0  0  0  0
  9 11  1  0  0  0  0
 12 18  1  0  0  0  0
 13 14  1  0  0  0  0
 13 12  2  0  0  0  0
 14 15  2  0  0  0  0
 15 16  1  0  0  0  0
 15 17  1  0  0  0  0
 18 17  2  0  0  0  0
 19 20  1  0  0  0  0
 21  9  1  0  0  0  0
 21 22  1  0  0  0  0
 23 22  2  0  0  0  0
 24 23  1  0  0  0  0
 25 26  1  0  0  0  0
 25 24  2  0  0  0  0
 26 21  2  0  0  0  0
 27 24  1  0  0  0  0
 27 28  1  0  0  0  0
M  END
>  <Pose>
1

>  <Score>
-7.236

$$$$
