/Users/jonathanwahrer/Desktop/Msc/3_Semester/Drug_Design_Praktikum/waehrer_HTS_screening/HTS_experiment/out/docking_results/vina_output/4x21/0836_docked.pdbqt
 OpenBabel03212201563D

 27 30  0  0  1  0  0  0  0  0999 V2000
   21.2250   36.1090   69.9200 C   0  0  2  0  0  0  0  0  0  0  0  0
   21.7370   34.8990   69.3260 N   0  0  0  0  0  0  0  0  0  0  0  0
   21.8630   34.3740   67.9730 C   0  0  0  0  0  2  0  0  0  0  0  0
   23.0080   33.4620   67.7630 C   0  0  0  0  0  2  0  0  0  0  0  0
   23.9420   33.3010   68.9360 C   0  0  0  0  0  2  0  0  0  0  0  0
   23.2590   33.3340   70.2260 C   0  0  0  0  0  3  0  0  0  0  0  0
   22.2010   34.1030   70.4050 C   0  0  0  0  0  0  0  0  0  0  0  0
   21.3480   34.3370   71.5220 N   0  0  0  0  0  4  0  0  0  0  0  0
   20.8290   35.6520   71.3050 C   0  0  0  0  0  2  0  0  0  0  0  0
   21.9630   34.3190   72.3800 H   0  0  0  0  0  0  0  0  0  0  0  0
   20.1290   36.7380   69.1880 C   0  0  0  0  0  0  0  0  0  0  0  0
   18.9050   36.9290   69.7940 C   0  0  0  0  0  3  0  0  0  0  0  0
   17.8350   37.5160   69.1510 C   0  0  0  0  0  3  0  0  0  0  0  0
   17.9430   37.9490   67.8430 C   0  0  0  0  0  0  0  0  0  0  0  0
   16.4760   38.7610   66.9310 Br  0  0  0  0  0  0  0  0  0  0  0  0
   19.1590   37.7670   67.2220 C   0  0  0  0  0  3  0  0  0  0  0  0
   20.2270   37.1770   67.8730 C   0  0  0  0  0  3  0  0  0  0  0  0
   22.2970   37.0230   69.9810 O   0  0  0  0  0  0  0  0  0  0  0  0
   22.1100   37.6070   70.7560 H   0  0  0  0  0  0  0  0  0  0  0  0
   20.4040   33.3220   71.5920 C   0  0  0  0  0  0  0  0  0  0  0  0
   20.4250   32.4120   72.6230 C   0  0  0  0  0  3  0  0  0  0  0  0
   19.4690   31.3860   72.6920 C   0  0  0  0  0  3  0  0  0  0  0  0
   18.4910   31.2520   71.7470 C   0  0  0  0  0  0  0  0  0  0  0  0
   18.4720   32.1850   70.6930 C   0  0  0  0  0  3  0  0  0  0  0  0
   19.4250   33.1810   70.6540 C   0  0  0  0  0  3  0  0  0  0  0  0
   17.5120   30.2600   71.7530 O   0  0  0  0  0  0  0  0  0  0  0  0
   16.1830   30.4080   71.3710 C   0  0  0  0  0  1  0  0  0  0  0  0
  1 18  1  1  0  0  0
  1  9  1  0  0  0  0
  2  1  1  0  0  0  0
  2  7  1  0  0  0  0
  3  2  1  0  0  0  0
  4  3  1  0  0  0  0
  4  5  1  0  0  0  0
  5  6  1  0  0  0  0
  6  7  2  0  0  0  0
  7  8  1  0  0  0  0
  8 20  1  0  0  0  0
  8 10  1  0  0  0  0
  9  8  1  0  0  0  0
 11 12  1  0  0  0  0
 11  1  1  0  0  0  0
 13 12  2  0  0  0  0
 14 13  1  0  0  0  0
 15 14  1  0  0  0  0
 16 14  2  0  0  0  0
 16 17  1  0  0  0  0
 17 11  2  0  0  0  0
 18 19  1  0  0  0  0
 20 21  1  0  0  0  0
 21 22  2  0  0  0  0
 23 26  1  0  0  0  0
 23 22  1  0  0  0  0
 24 23  2  0  0  0  0
 25 24  1  0  0  0  0
 25 20  2  0  0  0  0
 27 26  1  0  0  0  0
M  END
>  <Pose>
1

>  <Score>
-7.821

$$$$
