/Users/jonathanwahrer/Desktop/Msc/3_Semester/Drug_Design_Praktikum/waehrer_HTS_screening/HTS_experiment/out/docking_results/vina_output/4x21/0847_docked.pdbqt
 OpenBabel03212201563D

 31 34  0  0  1  0  0  0  0  0999 V2000
   20.1600   36.2510   70.0700 C   0  0  0  0  0  0  0  0  0  0  0  0
   20.7320   36.1360   68.8610 N   0  0  0  0  0  0  0  0  0  0  0  0
   21.5940   35.1040   68.9040 C   0  0  1  0  0  3  0  0  0  0  0  0
   21.5550   34.5660   70.1680 N   0  0  0  0  0  0  0  0  0  0  0  0
   20.6770   35.2880   70.8430 N   0  0  0  0  0  0  0  0  0  0  0  0
   22.4840   34.5110   67.9010 C   0  0  0  0  0  2  0  0  0  0  0  0
   23.0620   35.4840   66.9100 C   0  0  0  0  0  2  0  0  0  0  0  0
   22.0330   36.1800   66.0800 C   0  0  0  0  0  2  0  0  0  0  0  0
   21.5510   37.3700   66.8760 C   0  0  0  0  0  2  0  0  0  0  0  0
   20.4020   37.0120   67.7840 C   0  0  0  0  0  2  0  0  0  0  0  0
   22.2440   33.4470   70.6750 C   0  0  0  0  0  3  0  0  0  0  0  0
   21.4780   32.3370   71.1770 C   0  0  0  0  0  0  0  0  0  0  0  0
   22.2490   31.3640   71.6640 O   0  0  0  0  0  1  0  0  0  0  0  0
   20.0760   32.0420   71.2710 C   0  0  0  0  0  0  0  0  0  0  0  0
   19.4930   31.7250   72.5180 C   0  0  0  0  0  3  0  0  0  0  0  0
   18.1630   31.4300   72.6640 C   0  0  0  0  0  3  0  0  0  0  0  0
   17.3200   31.4290   71.5820 C   0  0  0  0  0  0  0  0  0  0  0  0
   17.8440   31.7300   70.3550 C   0  0  0  0  0  3  0  0  0  0  0  0
   19.2120   32.0310   70.2190 C   0  0  0  0  0  3  0  0  0  0  0  0
   15.9670   31.1290   71.7320 O   0  0  0  0  0  0  0  0  0  0  0  0
   15.2860   31.3000   72.9510 C   0  0  0  0  0  1  0  0  0  0  0  0
   19.1370   37.2310   70.5590 C   0  0  0  0  0  2  0  0  0  0  0  0
   17.9270   37.2160   69.7630 N   0  0  0  0  0  0  0  0  0  0  0  0
   17.8730   37.7300   68.8560 H   0  0  0  0  0  0  0  0  0  0  0  0
   16.7450   36.5100   70.1620 C   0  0  0  0  0  0  0  0  0  0  0  0
   15.4980   37.0010   69.8440 C   0  0  0  0  0  3  0  0  0  0  0  0
   14.3720   36.3210   70.2240 C   0  0  0  0  0  3  0  0  0  0  0  0
   14.4800   35.1300   70.9350 C   0  0  0  0  0  0  0  0  0  0  0  0
   12.9180   34.1850   71.4620 Br  0  0  0  0  0  0  0  0  0  0  0  0
   15.7240   34.6210   71.2650 C   0  0  0  0  0  3  0  0  0  0  0  0
   16.8340   35.3290   70.8680 C   0  0  0  0  0  3  0  0  0  0  0  0
  1 22  1  0  0  0  0
  1  5  2  0  0  0  0
  2  3  1  0  0  0  0
  2  1  1  0  0  0  0
  3  6  1  6  0  0  0
  3  4  1  0  0  0  0
  4 11  1  0  0  0  0
  4  5  1  0  0  0  0
  7  6  1  0  0  0  0
  8  9  1  0  0  0  0
  8  7  1  0  0  0  0
  9 10  1  0  0  0  0
 10  2  1  0  0  0  0
 11 12  2  0  0  0  0
 12 14  1  0  0  0  0
 12 13  1  0  0  0  0
 14 15  1  0  0  0  0
 15 16  2  0  0  0  0
 17 20  1  0  0  0  0
 17 16  1  0  0  0  0
 18 17  2  0  0  0  0
 19 18  1  0  0  0  0
 19 14  2  0  0  0  0
 20 21  1  0  0  0  0
 23 25  1  0  0  0  0
 23 22  1  0  0  0  0
 24 23  1  0  0  0  0
 25 31  1  0  0  0  0
 26 25  2  0  0  0  0
 26 27  1  0  0  0  0
 27 28  2  0  0  0  0
 28 30  1  0  0  0  0
 28 29  1  0  0  0  0
 31 30  2  0  0  0  0
M  END
>  <Pose>
1

>  <Score>
-8.272

$$$$
