/Users/jonathanwahrer/Desktop/Msc/3_Semester/Drug_Design_Praktikum/waehrer_HTS_screening/HTS_experiment/out/docking_results/vina_output/4x21/0850_docked.pdbqt
 OpenBabel03212201573D

 29 32  0  0  1  0  0  0  0  0999 V2000
   15.0690   31.2030   73.0800 N   0  0  0  0  0  4  0  0  0  0  0  0
   14.3920   31.0130   71.8310 C   0  0  1  0  0  0  0  0  0  0  0  0
   15.5600   30.5310   70.9720 C   0  0  0  0  0  2  0  0  0  0  0  0
   16.6750   31.3740   71.4300 N   0  0  0  0  0  0  0  0  0  0  0  0
   17.8390   31.5410   70.6340 C   0  0  0  0  0  2  0  0  0  0  0  0
   18.8650   32.4750   71.2010 C   0  0  0  0  0  2  0  0  0  0  0  0
   18.1990   33.7610   71.6060 C   0  0  0  0  0  2  0  0  0  0  0  0
   18.0100   33.6520   73.1260 C   0  0  0  0  0  2  0  0  0  0  0  0
   16.7950   32.8550   73.3910 C   0  0  0  0  0  3  0  0  0  0  0  0
   16.2500   31.8850   72.6920 C   0  0  0  0  0  0  0  0  0  0  0  0
   14.4280   31.8010   73.6890 H   0  0  0  0  0  0  0  0  0  0  0  0
   13.2930   30.2140   71.8250 O   0  0  0  0  0  0  0  0  0  0  0  0
   13.4430   29.3470   71.4050 H   0  0  0  0  0  0  0  0  0  0  0  0
   13.9730   32.3080   71.2230 C   0  0  0  0  0  0  0  0  0  0  0  0
   14.3570   32.7580   69.9950 C   0  0  0  0  0  3  0  0  0  0  0  0
   13.9170   33.9930   69.4730 C   0  0  0  0  0  3  0  0  0  0  0  0
   13.0720   34.8010   70.1950 C   0  0  0  0  0  0  0  0  0  0  0  0
   12.6790   34.3580   71.4350 C   0  0  0  0  0  3  0  0  0  0  0  0
   13.1110   33.1530   71.9400 C   0  0  0  0  0  3  0  0  0  0  0  0
   12.6250   36.0300   69.6830 O   0  0  0  0  0  0  0  0  0  0  0  0
   13.5230   37.0660   69.3620 C   0  0  0  0  0  2  0  0  0  0  0  0
   14.5640   37.2720   70.4170 C   0  0  0  0  0  1  0  0  0  0  0  0
   15.3520   30.0870   73.8390 C   0  0  0  0  0  0  0  0  0  0  0  0
   14.4920   29.7290   74.8750 C   0  0  0  0  0  3  0  0  0  0  0  0
   14.7050   28.6050   75.6590 C   0  0  0  0  0  3  0  0  0  0  0  0
   15.7920   27.7900   75.4390 C   0  0  0  0  0  0  0  0  0  0  0  0
   16.0930   26.2210   76.4990 Br  0  0  0  0  0  0  0  0  0  0  0  0
   16.6510   28.1130   74.4350 C   0  0  0  0  0  3  0  0  0  0  0  0
   16.4120   29.2480   73.6640 C   0  0  0  0  0  3  0  0  0  0  0  0
  1 11  1  0  0  0  0
  1 23  1  0  0  0  0
  2 12  1  1  0  0  0
  2  1  1  0  0  0  0
  3  4  1  0  0  0  0
  3  2  1  0  0  0  0
  4 10  1  0  0  0  0
  5  6  1  0  0  0  0
  5  4  1  0  0  0  0
  6  7  1  0  0  0  0
  7  8  1  0  0  0  0
  8  9  1  0  0  0  0
 10  1  1  0  0  0  0
 10  9  2  0  0  0  0
 13 12  1  0  0  0  0
 14  2  1  0  0  0  0
 14 19  1  0  0  0  0
 15 14  2  0  0  0  0
 16 15  1  0  0  0  0
 16 17  2  0  0  0  0
 17 18  1  0  0  0  0
 18 19  2  0  0  0  0
 20 17  1  0  0  0  0
 21 20  1  0  0  0  0
 21 22  1  0  0  0  0
 23 24  1  0  0  0  0
 24 25  2  0  0  0  0
 26 25  1  0  0  0  0
 26 27  1  0  0  0  0
 28 26  2  0  0  0  0
 29 23  2  0  0  0  0
 29 28  1  0  0  0  0
M  END
>  <Pose>
1

>  <Score>
-7.856

$$$$
