/Users/jonathanwahrer/Desktop/Msc/3_Semester/Drug_Design_Praktikum/waehrer_HTS_screening/HTS_experiment/out/docking_results/vina_output/4x21/0860_docked.pdbqt
 OpenBabel03212201573D

 29 32  0  0  1  0  0  0  0  0999 V2000
   13.9590   31.9870   70.7790 Br  0  0  0  0  0  0  0  0  0  0  0  0
   15.5970   32.9010   71.1660 C   0  0  0  0  0  0  0  0  0  0  0  0
   16.8190   32.2660   71.0710 C   0  0  0  0  0  3  0  0  0  0  0  0
   17.9940   32.9270   71.3500 C   0  0  0  0  0  0  0  0  0  0  0  0
   17.8900   34.2490   71.7290 C   0  0  0  0  0  0  0  0  0  0  0  0
   16.6710   34.8890   71.8250 C   0  0  0  0  0  3  0  0  0  0  0  0
   15.4970   34.2230   71.5450 C   0  0  0  0  0  0  0  0  0  0  0  0
   14.1850   34.9250   71.6520 C   0  0  0  0  0  1  0  0  0  0  0  0
   19.0920   34.8960   72.0060 O   0  0  0  0  0  0  0  0  0  0  0  0
   20.2970   34.2420   72.2220 C   0  0  0  0  0  2  0  0  0  0  0  0
   20.4870   32.9720   71.4640 C   0  0  2  0  0  0  0  0  0  0  0  0
   19.2500   32.1800   71.2260 C   0  0  2  0  0  3  0  0  0  0  0  0
   21.3610   32.1440   72.3020 N   0  0  0  0  0  4  0  0  0  0  0  0
   22.1700   31.2440   71.5550 C   0  0  0  0  0  2  0  0  0  0  0  0
   23.2600   30.7470   72.5180 C   0  0  0  0  0  2  0  0  0  0  0  0
   22.6060   30.0380   73.5110 O   0  0  0  0  0  0  0  0  0  0  0  0
   21.7020   30.8080   74.2330 C   0  0  0  0  0  2  0  0  0  0  0  0
   20.6420   31.4190   73.3040 C   0  0  0  0  0  2  0  0  0  0  0  0
   21.9900   32.8200   72.7920 H   0  0  0  0  0  0  0  0  0  0  0  0
   21.2200   33.1760   70.1540 C   0  0  0  0  0  2  0  0  0  0  0  0
   21.7380   34.4980   69.9800 N   0  0  0  0  0  4  0  0  0  0  0  0
   23.1230   34.5060   69.5470 C   0  0  0  0  0  2  0  0  0  0  0  0
   23.3590   35.5090   68.4270 C   0  0  0  0  0  2  0  0  0  0  0  0
   22.6470   35.1960   67.2810 O   0  0  0  0  0  0  0  0  0  0  0  0
   21.4170   34.6240   67.5890 C   0  0  0  0  0  2  0  0  0  0  0  0
   20.9890   35.1980   68.9240 C   0  0  0  0  0  2  0  0  0  0  0  0
   21.6790   35.1100   70.8080 H   0  0  0  0  0  0  0  0  0  0  0  0
   19.2580   31.6110   69.9290 O   0  0  0  0  0  0  0  0  0  0  0  0
   18.5160   31.9350   69.3780 H   0  0  0  0  0  0  0  0  0  0  0  0
  1  2  1  0  0  0  0
  2  7  1  0  0  0  0
  3  2  2  0  0  0  0
  3  4  1  0  0  0  0
  4  5  2  0  0  0  0
  5  6  1  0  0  0  0
  5  9  1  0  0  0  0
  7  8  1  0  0  0  0
  7  6  2  0  0  0  0
  9 10  1  0  0  0  0
 11 20  1  6  0  0  0
 11 10  1  0  0  0  0
 11 13  1  0  0  0  0
 12 28  1  6  0  0  0
 12  4  1  0  0  0  0
 12 11  1  0  0  0  0
 13 19  1  0  0  0  0
 13 18  1  0  0  0  0
 14 13  1  0  0  0  0
 14 15  1  0  0  0  0
 15 16  1  0  0  0  0
 16 17  1  0  0  0  0
 18 17  1  0  0  0  0
 21 20  1  0  0  0  0
 21 27  1  0  0  0  0
 22 21  1  0  0  0  0
 23 22  1  0  0  0  0
 24 25  1  0  0  0  0
 24 23  1  0  0  0  0
 25 26  1  0  0  0  0
 26 21  1  0  0  0  0
 29 28  1  0  0  0  0
M  END
>  <Pose>
1

>  <Score>
-7.245

$$$$
