/Users/jonathanwahrer/Desktop/Msc/3_Semester/Drug_Design_Praktikum/waehrer_HTS_screening/HTS_experiment/out/docking_results/vina_output/4x21/0865_docked.pdbqt
 OpenBabel03212201573D

 30 33  0  0  0  0  0  0  0  0999 V2000
   20.0720   38.2610   66.5650 C   0  0  0  0  0  0  0  0  0  0  0  0
   20.8060   39.2810   66.0680 N   0  0  0  0  0  4  0  0  0  0  0  0
   22.1460   39.1950   65.8750 C   0  0  0  0  0  0  0  0  0  0  0  0
   22.7220   38.0380   66.2050 N   0  0  0  0  0  0  0  0  0  0  0  0
   22.0550   36.9820   66.7040 C   0  0  0  0  0  0  0  0  0  0  0  0
   20.7290   37.1290   66.8720 N   0  0  0  0  0  2  0  0  0  0  0  0
   18.6780   38.4190   66.7410 N   0  0  0  0  0  0  0  0  0  0  0  0
   18.1810   39.1530   66.2080 H   0  0  0  0  0  0  0  0  0  0  0  0
   17.9760   37.6040   67.6180 N   0  0  0  0  0  0  0  0  0  0  0  0
   17.4620   38.0150   68.7210 C   0  0  0  0  0  3  0  0  0  0  0  0
   16.7370   37.0990   69.5920 C   0  0  0  0  0  0  0  0  0  0  0  0
   17.3820   36.1270   70.3400 C   0  0  0  0  0  3  0  0  0  0  0  0
   16.6910   35.2620   71.1630 C   0  0  0  0  0  0  0  0  0  0  0  0
   15.3180   35.3340   71.2710 C   0  0  0  0  0  0  0  0  0  0  0  0
   17.6060   33.9320   72.1830 Br  0  0  0  0  0  0  0  0  0  0  0  0
   14.6170   34.4900   72.0780 F   0  0  0  0  0  0  0  0  0  0  0  0
   14.6660   36.2950   70.5340 C   0  0  0  0  0  3  0  0  0  0  0  0
   15.3650   37.1630   69.7070 C   0  0  0  0  0  3  0  0  0  0  0  0
   22.8700   40.3010   65.3470 N   0  0  0  0  0  0  0  0  0  0  0  0
   24.1950   40.6820   65.7780 C   0  0  0  0  0  2  0  0  0  0  0  0
   24.0470   42.1530   66.1630 C   0  0  0  0  0  2  0  0  0  0  0  0
   23.8050   42.8740   65.0530 O   0  0  0  0  0  0  0  0  0  0  0  0
   22.8930   42.4620   64.1640 C   0  0  0  0  0  2  0  0  0  0  0  0
   22.2850   41.1240   64.3150 C   0  0  0  0  0  2  0  0  0  0  0  0
   22.7370   35.7790   67.0330 N   0  0  0  0  0  0  0  0  0  0  0  0
   22.0010   34.7090   67.6790 C   0  0  0  0  0  2  0  0  0  0  0  0
   22.9370   33.5570   67.9680 C   0  0  0  0  0  2  0  0  0  0  0  0
   23.7050   33.1730   66.9060 O   0  0  0  0  0  0  0  0  0  0  0  0
   24.2380   34.1720   66.1370 C   0  0  0  0  0  2  0  0  0  0  0  0
   24.1260   35.5510   66.7660 C   0  0  0  0  0  2  0  0  0  0  0  0
  1  7  1  0  0  0  0
  1  6  1  0  0  0  0
  2  1  2  0  0  0  0
  3  2  2  0  0  0  0
  3  4  1  0  0  0  0
  4  5  2  0  0  0  0
  5  6  1  0  0  0  0
  5 25  1  0  0  0  0
  7  9  1  0  0  0  0
  8  7  1  0  0  0  0
  9 10  2  0  0  0  0
 10 11  1  0  0  0  0
 11 18  2  0  0  0  0
 11 12  1  0  0  0  0
 12 13  2  0  0  0  0
 13 14  1  0  0  0  0
 13 15  1  0  0  0  0
 14 16  1  0  0  0  0
 17 14  2  0  0  0  0
 18 17  1  0  0  0  0
 19 20  1  0  0  0  0
 19  3  1  0  0  0  0
 20 21  1  0  0  0  0
 22 21  1  0  0  0  0
 23 24  1  0  0  0  0
 23 22  1  0  0  0  0
 24 19  1  0  0  0  0
 25 26  1  0  0  0  0
 26 27  1  0  0  0  0
 28 27  1  0  0  0  0
 29 30  1  0  0  0  0
 29 28  1  0  0  0  0
 30 25  1  0  0  0  0
M  END
>  <Pose>
1

>  <Score>
-8.831

$$$$
