/Users/jonathanwahrer/Desktop/Msc/3_Semester/Drug_Design_Praktikum/waehrer_HTS_screening/HTS_experiment/out/docking_results/vina_output/4x21/0872_docked.pdbqt
 OpenBabel03212201583D

 32 35  0  0  0  0  0  0  0  0999 V2000
   22.1840   34.2310   69.3000 N   0  0  0  0  0  0  0  0  0  0  0  0
   22.5190   33.0740   68.7570 N   0  0  0  0  0  0  0  0  0  0  0  0
   22.9820   33.3600   67.5530 N   0  0  0  0  0  0  0  0  0  0  0  0
   22.9430   34.6880   67.3200 C   0  0  0  0  0  0  0  0  0  0  0  0
   22.4340   35.2310   68.4380 C   0  0  0  0  0  0  0  0  0  0  0  0
   22.4020   36.5820   68.1840 C   0  0  0  0  0  0  0  0  0  0  0  0
   21.9840   37.4520   68.9940 O   0  0  0  0  0  0  0  0  0  0  0  0
   22.8720   36.8730   66.9540 N   0  0  0  0  0  0  0  0  0  0  0  0
   23.2130   35.6940   66.4080 C   0  0  0  0  0  0  0  0  0  0  0  0
   23.6970   35.5400   65.2570 O   0  0  0  0  0  0  0  0  0  0  0  0
   22.4420   32.1080   69.1870 H   0  0  0  0  0  0  0  0  0  0  0  0
   23.3260   32.6180   66.8880 H   0  0  0  0  0  0  0  0  0  0  0  0
   21.6350   34.3540   70.6330 C   0  0  0  0  0  2  0  0  0  0  0  0
   20.1290   34.2010   70.5630 C   0  0  0  0  0  0  0  0  0  0  0  0
   19.3180   35.1670   71.1510 N   0  0  0  0  0  0  0  0  0  0  0  0
   19.8340   35.9840   71.6270 H   0  0  0  0  0  0  0  0  0  0  0  0
   19.7000   33.2020   69.9750 O   0  0  0  0  0  0  0  0  0  0  0  0
   17.9140   35.1480   71.1610 C   0  0  0  0  0  0  0  0  0  0  0  0
   17.2270   36.0770   70.3630 C   0  0  0  0  0  0  0  0  0  0  0  0
   17.9710   36.9450   69.6230 F   0  0  0  0  0  0  0  0  0  0  0  0
   15.8560   36.0920   70.3440 C   0  0  0  0  0  3  0  0  0  0  0  0
   15.1280   35.2010   71.1050 C   0  0  0  0  0  0  0  0  0  0  0  0
   15.7640   34.2750   71.8990 C   0  0  0  0  0  3  0  0  0  0  0  0
   13.7770   35.2480   71.0580 F   0  0  0  0  0  0  0  0  0  0  0  0
   17.1750   34.2790   71.9010 C   0  0  0  0  0  3  0  0  0  0  0  0
   22.9720   38.1890   66.3840 C   0  0  0  0  0  0  0  0  0  0  0  0
   21.8460   38.9720   66.2150 C   0  0  0  0  0  3  0  0  0  0  0  0
   21.8940   40.2390   65.6730 C   0  0  0  0  0  3  0  0  0  0  0  0
   23.1340   40.7160   65.2940 C   0  0  0  0  0  0  0  0  0  0  0  0
   24.2960   39.9770   65.4390 C   0  0  0  0  0  3  0  0  0  0  0  0
   23.1760   42.4830   64.5410 Br  0  0  0  0  0  0  0  0  0  0  0  0
   24.1780   38.7160   65.9880 C   0  0  0  0  0  3  0  0  0  0  0  0
  1 13  1  0  0  0  0
  2 11  1  0  0  0  0
  2  1  1  0  0  0  0
  3  2  1  0  0  0  0
  4  3  1  0  0  0  0
  4  5  2  0  0  0  0
  5  1  1  0  0  0  0
  6  5  1  0  0  0  0
  6  7  2  0  0  0  0
  8  6  1  0  0  0  0
  9  8  1  0  0  0  0
  9  4  1  0  0  0  0
 10  9  2  0  0  0  0
 12  3  1  0  0  0  0
 14 13  1  0  0  0  0
 14 15  1  0  0  0  0
 15 18  1  0  0  0  0
 15 16  1  0  0  0  0
 17 14  2  0  0  0  0
 18 25  1  0  0  0  0
 19 18  2  0  0  0  0
 20 19  1  0  0  0  0
 21 19  1  0  0  0  0
 21 22  2  0  0  0  0
 22 23  1  0  0  0  0
 23 25  2  0  0  0  0
 24 22  1  0  0  0  0
 26  8  1  0  0  0  0
 27 26  1  0  0  0  0
 28 27  2  0  0  0  0
 29 30  2  0  0  0  0
 29 28  1  0  0  0  0
 30 32  1  0  0  0  0
 31 29  1  0  0  0  0
 32 26  2  0  0  0  0
M  END
>  <Pose>
1

>  <Score>
-9.300

$$$$
