/Users/jonathanwahrer/Desktop/Msc/3_Semester/Drug_Design_Praktikum/waehrer_HTS_screening/HTS_experiment/out/docking_results/vina_output/4x21/0873_docked.pdbqt
 OpenBabel03212201583D

 32 35  0  0  1  0  0  0  0  0999 V2000
   23.7510   36.5810   68.8210 C   0  0  2  0  0  3  0  0  0  0  0  0
   24.2330   35.2110   68.7570 N   0  0  0  0  0  0  0  0  0  0  0  0
   23.2320   34.5920   67.9230 C   0  0  0  0  0  0  0  0  0  0  0  0
   23.3630   33.6340   67.1160 O   0  0  0  0  0  0  0  0  0  0  0  0
   21.9300   35.2800   68.1540 C   0  0  0  0  0  0  0  0  0  0  0  0
   20.8070   35.1090   67.6810 O   0  0  0  0  0  0  0  0  0  0  0  0
   22.3020   36.3090   69.1680 C   0  0  0  0  0  0  0  0  0  0  0  0
   21.5290   36.8180   70.0960 C   0  0  0  0  0  0  0  0  0  0  0  0
   22.0530   37.7950   70.9670 O   0  0  0  0  0  1  0  0  0  0  0  0
   25.3320   34.5290   69.2930 C   0  0  0  0  0  2  0  0  0  0  0  0
   25.1380   33.4680   70.3160 C   0  0  0  0  0  2  0  0  0  0  0  0
   25.8800   32.2650   70.0670 N   0  0  0  0  0  4  0  0  0  0  0  0
   26.2550   32.2270   68.6690 C   0  0  0  0  0  2  0  0  0  0  0  0
   27.1440   31.0310   68.3830 C   0  0  0  0  0  2  0  0  0  0  0  0
   26.4640   29.8740   68.7120 O   0  0  0  0  0  0  0  0  0  0  0  0
   26.0580   29.9070   70.0430 C   0  0  0  0  0  2  0  0  0  0  0  0
   25.0590   31.0530   70.2590 C   0  0  0  0  0  2  0  0  0  0  0  0
   26.6790   32.1140   70.7170 H   0  0  0  0  0  0  0  0  0  0  0  0
   23.7840   37.3050   67.5400 C   0  0  0  0  0  0  0  0  0  0  0  0
   24.9090   37.3760   66.7450 C   0  0  0  0  0  0  0  0  0  0  0  0
   26.0380   36.7670   67.0720 F   0  0  0  0  0  0  0  0  0  0  0  0
   24.9090   38.0990   65.5480 C   0  0  0  0  0  3  0  0  0  0  0  0
   23.8010   38.7570   65.1240 C   0  0  0  0  0  3  0  0  0  0  0  0
   22.6680   38.7110   65.8840 C   0  0  0  0  0  3  0  0  0  0  0  0
   22.6910   37.9890   67.0670 C   0  0  0  0  0  3  0  0  0  0  0  0
   20.1440   36.4020   70.2580 C   0  0  0  0  0  0  0  0  0  0  0  0
   19.1420   37.2070   69.7630 C   0  0  0  0  0  3  0  0  0  0  0  0
   17.8030   36.8860   69.9060 C   0  0  0  0  0  3  0  0  0  0  0  0
   17.4420   35.7280   70.5600 C   0  0  0  0  0  0  0  0  0  0  0  0
   18.4160   34.9170   71.0580 C   0  0  0  0  0  3  0  0  0  0  0  0
   15.5850   35.2540   70.7740 Br  0  0  0  0  0  0  0  0  0  0  0  0
   19.7720   35.2540   70.9060 C   0  0  0  0  0  3  0  0  0  0  0  0
  1 19  1  6  0  0  0
  1  7  1  0  0  0  0
  2  1  1  0  0  0  0
  2 10  1  0  0  0  0
  3  5  1  0  0  0  0
  3  2  1  0  0  0  0
  4  3  2  0  0  0  0
  5  7  1  0  0  0  0
  6  5  2  0  0  0  0
  7  8  2  0  0  0  0
  8 26  1  0  0  0  0
  8  9  1  0  0  0  0
 10 11  1  0  0  0  0
 12 17  1  0  0  0  0
 12 11  1  0  0  0  0
 12 18  1  0  0  0  0
 13 12  1  0  0  0  0
 14 13  1  0  0  0  0
 14 15  1  0  0  0  0
 15 16  1  0  0  0  0
 16 17  1  0  0  0  0
 20 21  1  0  0  0  0
 20 19  2  0  0  0  0
 22 20  1  0  0  0  0
 23 22  2  0  0  0  0
 23 24  1  0  0  0  0
 24 25  2  0  0  0  0
 25 19  1  0  0  0  0
 26 32  1  0  0  0  0
 27 28  1  0  0  0  0
 27 26  2  0  0  0  0
 28 29  2  0  0  0  0
 29 31  1  0  0  0  0
 29 30  1  0  0  0  0
 32 30  2  0  0  0  0
M  END
>  <Pose>
1

>  <Score>
-7.936

$$$$
