/Users/jonathanwahrer/Desktop/Msc/3_Semester/Drug_Design_Praktikum/waehrer_HTS_screening/HTS_experiment/out/docking_results/vina_output/4x21/0874_docked.pdbqt
 OpenBabel03212201583D

 31 34  0  0  0  0  0  0  0  0999 V2000
   22.1680   34.1970   69.3090 N   0  0  0  0  0  0  0  0  0  0  0  0
   22.5420   33.0770   68.7290 N   0  0  0  0  0  0  0  0  0  0  0  0
   23.0280   33.3240   67.5220 N   0  0  0  0  0  0  0  0  0  0  0  0
   22.9660   34.6560   67.3090 C   0  0  0  0  0  0  0  0  0  0  0  0
   22.4420   35.1730   68.4020 C   0  0  0  0  0  0  0  0  0  0  0  0
   22.3770   36.5410   68.1860 C   0  0  0  0  0  0  0  0  0  0  0  0
   21.9310   37.3630   69.0150 O   0  0  0  0  0  0  0  0  0  0  0  0
   22.8580   36.8590   66.9710 N   0  0  0  0  0  0  0  0  0  0  0  0
   23.2250   35.6860   66.4240 C   0  0  0  0  0  0  0  0  0  0  0  0
   23.7260   35.5350   65.2880 O   0  0  0  0  0  0  0  0  0  0  0  0
   22.4560   32.1330   69.1880 H   0  0  0  0  0  0  0  0  0  0  0  0
   23.3970   32.6110   66.8460 H   0  0  0  0  0  0  0  0  0  0  0  0
   21.5860   34.3900   70.6240 C   0  0  0  0  0  2  0  0  0  0  0  0
   20.1050   34.2470   70.5410 C   0  0  0  0  0  0  0  0  0  0  0  0
   19.2540   35.1880   71.1120 N   0  0  0  0  0  0  0  0  0  0  0  0
   19.7370   36.0080   71.6070 H   0  0  0  0  0  0  0  0  0  0  0  0
   19.6850   33.2470   69.9360 O   0  0  0  0  0  0  0  0  0  0  0  0
   17.8300   35.1920   71.1160 C   0  0  0  0  0  0  0  0  0  0  0  0
   17.1410   36.1140   70.3110 C   0  0  0  0  0  0  0  0  0  0  0  0
   17.8730   36.9750   69.5470 F   0  0  0  0  0  0  0  0  0  0  0  0
   15.7720   36.1700   70.2700 C   0  0  0  0  0  3  0  0  0  0  0  0
   15.0040   35.3160   71.0280 C   0  0  0  0  0  3  0  0  0  0  0  0
   15.6690   34.4200   71.8130 C   0  0  0  0  0  3  0  0  0  0  0  0
   17.0510   34.3480   71.8650 C   0  0  0  0  0  3  0  0  0  0  0  0
   22.9500   38.1670   66.4050 C   0  0  0  0  0  0  0  0  0  0  0  0
   24.1600   38.6790   65.9800 C   0  0  0  0  0  3  0  0  0  0  0  0
   24.2660   39.9410   65.4300 C   0  0  0  0  0  3  0  0  0  0  0  0
   23.1570   40.7480   65.2830 C   0  0  0  0  0  0  0  0  0  0  0  0
   21.9380   40.2580   65.7020 C   0  0  0  0  0  3  0  0  0  0  0  0
   23.2750   42.5000   64.5250 Br  0  0  0  0  0  0  0  0  0  0  0  0
   21.8540   38.9930   66.2490 C   0  0  0  0  0  3  0  0  0  0  0  0
  1 13  1  0  0  0  0
  2 11  1  0  0  0  0
  2  1  1  0  0  0  0
  3  2  1  0  0  0  0
  4  3  1  0  0  0  0
  4  5  2  0  0  0  0
  5  1  1  0  0  0  0
  6  5  1  0  0  0  0
  6  7  2  0  0  0  0
  8  6  1  0  0  0  0
  9  8  1  0  0  0  0
  9  4  1  0  0  0  0
 10  9  2  0  0  0  0
 12  3  1  0  0  0  0
 14 13  1  0  0  0  0
 14 15  1  0  0  0  0
 15 18  1  0  0  0  0
 15 16  1  0  0  0  0
 17 14  2  0  0  0  0
 18 24  1  0  0  0  0
 19 18  2  0  0  0  0
 20 19  1  0  0  0  0
 21 19  1  0  0  0  0
 21 22  2  0  0  0  0
 22 23  1  0  0  0  0
 23 24  2  0  0  0  0
 25  8  1  0  0  0  0
 26 25  2  0  0  0  0
 27 26  1  0  0  0  0
 28 27  2  0  0  0  0
 28 29  1  0  0  0  0
 29 31  2  0  0  0  0
 30 28  1  0  0  0  0
 31 25  1  0  0  0  0
M  END
>  <Pose>
1

>  <Score>
-9.131

$$$$
