/Users/jonathanwahrer/Desktop/Msc/3_Semester/Drug_Design_Praktikum/waehrer_HTS_screening/HTS_experiment/out/docking_results/vina_output/4x21/0886_docked.pdbqt
 OpenBabel03212201583D

 31 34  0  0  0  0  0  0  0  0999 V2000
   15.0390   33.4780   71.1960 N   0  0  0  0  0  0  0  0  0  0  0  0
   15.7820   34.5960   71.1420 C   0  0  0  0  0  0  0  0  0  0  0  0
   16.9510   34.6330   71.6120 O   0  0  0  0  0  0  0  0  0  0  0  0
   15.1130   35.6390   70.5290 C   0  0  0  0  0  0  0  0  0  0  0  0
   13.9250   35.1360   70.2020 C   0  0  0  0  0  0  0  0  0  0  0  0
   13.2400   36.1160   69.6070 N   0  0  0  0  0  0  0  0  0  0  0  0
   13.9980   37.1960   69.5740 N   0  0  0  0  0  0  0  0  0  0  0  0
   15.1730   36.9370   70.1400 N   0  0  0  0  0  0  0  0  0  0  0  0
   13.8660   33.8180   70.6030 C   0  0  0  0  0  0  0  0  0  0  0  0
   12.9190   32.9910   70.4780 O   0  0  0  0  0  0  0  0  0  0  0  0
   12.2560   36.0030   69.2380 H   0  0  0  0  0  0  0  0  0  0  0  0
   13.7400   38.1090   69.1760 H   0  0  0  0  0  0  0  0  0  0  0  0
   16.3020   37.8010   70.3240 C   0  0  0  0  0  2  0  0  0  0  0  0
   17.5280   37.4000   69.6260 C   0  0  0  0  0  0  0  0  0  0  0  0
   17.5850   37.6070   68.4040 O   0  0  0  0  0  0  0  0  0  0  0  0
   18.5860   36.8100   70.3240 N   0  0  0  0  0  0  0  0  0  0  0  0
   18.4670   36.6620   71.3910 H   0  0  0  0  0  0  0  0  0  0  0  0
   19.8350   36.3590   69.8380 C   0  0  0  0  0  0  0  0  0  0  0  0
   20.8210   37.2290   69.4390 C   0  0  0  0  0  3  0  0  0  0  0  0
   22.0670   36.8200   68.9530 C   0  0  0  0  0  3  0  0  0  0  0  0
   22.2830   35.4670   68.8850 C   0  0  0  0  0  0  0  0  0  0  0  0
   21.3160   34.5760   69.2770 C   0  0  0  0  0  3  0  0  0  0  0  0
   23.9800   34.8320   68.2250 Br  0  0  0  0  0  0  0  0  0  0  0  0
   20.1020   35.0030   69.7500 C   0  0  0  0  0  3  0  0  0  0  0  0
   15.3780   32.2100   71.7530 C   0  0  0  0  0  0  0  0  0  0  0  0
   14.8900   31.7340   72.9490 C   0  0  0  0  0  3  0  0  0  0  0  0
   15.2630   30.4850   73.4520 C   0  0  0  0  0  3  0  0  0  0  0  0
   16.1350   29.6960   72.7570 C   0  0  0  0  0  0  0  0  0  0  0  0
   16.4940   28.4760   73.2580 F   0  0  0  0  0  0  0  0  0  0  0  0
   16.6350   30.1510   71.5590 C   0  0  0  0  0  3  0  0  0  0  0  0
   16.2610   31.3840   71.0740 C   0  0  0  0  0  3  0  0  0  0  0  0
  1 25  1  0  0  0  0
  2  1  1  0  0  0  0
  2  3  2  0  0  0  0
  4  2  1  0  0  0  0
  5  4  2  0  0  0  0
  5  9  1  0  0  0  0
  6  5  1  0  0  0  0
  7  6  1  0  0  0  0
  7  8  1  0  0  0  0
  8 13  1  0  0  0  0
  8  4  1  0  0  0  0
  9  1  1  0  0  0  0
 10  9  2  0  0  0  0
 11  6  1  0  0  0  0
 12  7  1  0  0  0  0
 14 16  1  0  0  0  0
 14 13  1  0  0  0  0
 15 14  2  0  0  0  0
 16 17  1  0  0  0  0
 18 16  1  0  0  0  0
 19 18  2  0  0  0  0
 20 19  1  0  0  0  0
 21 20  2  0  0  0  0
 21 22  1  0  0  0  0
 22 24  2  0  0  0  0
 23 21  1  0  0  0  0
 24 18  1  0  0  0  0
 25 26  1  0  0  0  0
 26 27  2  0  0  0  0
 28 29  1  0  0  0  0
 28 27  1  0  0  0  0
 30 28  2  0  0  0  0
 31 30  1  0  0  0  0
 31 25  2  0  0  0  0
M  END
>  <Pose>
1

>  <Score>
-8.488

$$$$
