/Users/jonathanwahrer/Desktop/Msc/3_Semester/Drug_Design_Praktikum/waehrer_HTS_screening/HTS_experiment/out/docking_results/vina_output/4x21/0892_docked.pdbqt
 OpenBabel03212201593D

 27 30  0  0  1  0  0  0  0  0999 V2000
   19.0380   33.3730   73.1220 C   0  0  2  0  0  3  0  0  0  0  0  0
   19.6760   34.6620   72.9770 N   0  0  0  0  0  0  0  0  0  0  0  0
   20.2390   35.0330   71.7150 C   0  0  0  0  0  0  0  0  0  0  0  0
   20.5670   36.5660   70.9620 S   0  0  0  0  0  0  0  0  0  0  0  0
   21.2310   36.0190   69.4960 C   0  0  0  0  0  0  0  0  0  0  0  0
   21.1820   34.6750   69.6260 C   0  0  0  0  0  0  0  0  0  0  0  0
   20.6750   34.1610   70.7590 C   0  0  0  0  0  0  0  0  0  0  0  0
   20.4920   32.7470   71.1930 C   0  0  0  0  0  0  0  0  0  0  0  0
   20.8350   31.7930   70.4560 O   0  0  0  0  0  0  0  0  0  0  0  0
   19.9270   32.4400   72.4510 N   0  0  0  0  0  0  0  0  0  0  0  0
   21.7280   33.9050   68.4290 C   0  0  0  0  0  2  0  0  0  0  0  0
   22.6560   34.8050   67.6800 C   0  0  0  0  0  2  0  0  0  0  0  0
   21.8260   35.9220   67.2040 N   0  0  0  0  0  4  0  0  0  0  0  0
   21.7440   36.8040   68.3490 C   0  0  0  0  0  2  0  0  0  0  0  0
   22.4170   36.5630   66.0530 C   0  0  0  0  0  1  0  0  0  0  0  0
   19.7530   35.3520   73.7560 H   0  0  0  0  0  0  0  0  0  0  0  0
   20.1380   31.5270   72.9280 H   0  0  0  0  0  0  0  0  0  0  0  0
   20.8650   35.5670   67.0140 H   0  0  0  0  0  0  0  0  0  0  0  0
   17.7380   33.4610   72.4050 C   0  0  0  0  0  0  0  0  0  0  0  0
   16.8630   32.4110   72.2660 C   0  0  0  0  0  0  0  0  0  0  0  0
   15.6590   32.5430   71.5730 C   0  0  0  0  0  0  0  0  0  0  0  0
   17.1770   31.1920   72.8250 O   0  0  0  0  0  1  0  0  0  0  0  0
   14.3640   30.8950   71.3950 I   0  0  0  0  0  0  0  0  0  0  0  0
   15.3010   33.7250   71.0040 C   0  0  0  0  0  3  0  0  0  0  0  0
   16.1630   34.7900   71.1310 C   0  0  0  0  0  0  0  0  0  0  0  0
   17.3470   34.6690   71.8100 C   0  0  0  0  0  3  0  0  0  0  0  0
   15.6660   36.4470   70.3370 Br  0  0  0  0  0  0  0  0  0  0  0  0
  1 19  1  6  0  0  0
  2  1  1  0  0  0  0
  2 16  1  0  0  0  0
  3  2  1  0  0  0  0
  4  3  1  0  0  0  0
  5  6  2  0  0  0  0
  5  4  1  0  0  0  0
  6  7  1  0  0  0  0
  7  8  1  0  0  0  0
  7  3  2  0  0  0  0
  8 10  1  0  0  0  0
  9  8  2  0  0  0  0
 10 17  1  0  0  0  0
 10  1  1  0  0  0  0
 11  6  1  0  0  0  0
 12 11  1  0  0  0  0
 13 12  1  0  0  0  0
 13 14  1  0  0  0  0
 14  5  1  0  0  0  0
 15 13  1  0  0  0  0
 18 13  1  0  0  0  0
 20 19  1  0  0  0  0
 20 22  1  0  0  0  0
 21 20  2  0  0  0  0
 23 21  1  0  0  0  0
 24 25  2  0  0  0  0
 24 21  1  0  0  0  0
 25 26  1  0  0  0  0
 26 19  2  0  0  0  0
 27 25  1  0  0  0  0
M  END
>  <Pose>
1

>  <Score>
-8.000

$$$$
