/Users/jonathanwahrer/Desktop/Msc/3_Semester/Drug_Design_Praktikum/waehrer_HTS_screening/HTS_experiment/out/docking_results/vina_output/4x21/0895_docked.pdbqt
 OpenBabel03212201593D

 28 31  0  0  1  0  0  0  0  0999 V2000
   19.5690   35.8870   70.6470 C   0  0  2  0  0  3  0  0  0  0  0  0
   18.6930   34.7510   70.9310 N   0  0  0  0  0  0  0  0  0  0  0  0
   17.2530   34.9130   70.9730 C   0  0  0  0  0  0  0  0  0  0  0  0
   15.9830   33.9140   71.5600 S   0  0  0  0  0  0  0  0  0  0  0  0
   14.6640   34.9130   71.1870 C   0  0  0  0  0  0  0  0  0  0  0  0
   15.2460   36.0080   70.6090 C   0  0  0  0  0  0  0  0  0  0  0  0
   16.5920   36.0010   70.5010 C   0  0  0  0  0  0  0  0  0  0  0  0
   17.4590   37.0640   69.9150 C   0  0  0  0  0  0  0  0  0  0  0  0
   16.9680   38.1320   69.4390 O   0  0  0  0  0  0  0  0  0  0  0  0
   18.8550   36.8770   69.8890 N   0  0  0  0  0  0  0  0  0  0  0  0
   14.2100   37.0470   70.1930 C   0  0  0  0  0  2  0  0  0  0  0  0
   13.1260   36.3740   69.3930 C   0  0  0  0  0  2  0  0  0  0  0  0
   12.6740   35.1420   69.9470 N   0  0  0  0  0  4  0  0  0  0  0  0
   13.1600   34.9250   71.3060 C   0  0  0  0  0  2  0  0  0  0  0  0
   13.2690   34.0610   69.1450 C   0  0  0  0  0  1  0  0  0  0  0  0
   19.0690   33.8020   71.1110 H   0  0  0  0  0  0  0  0  0  0  0  0
   19.4370   37.5020   69.2720 H   0  0  0  0  0  0  0  0  0  0  0  0
   11.6270   35.0240   69.9250 H   0  0  0  0  0  0  0  0  0  0  0  0
   20.6520   35.3560   69.7740 C   0  0  0  0  0  0  0  0  0  0  0  0
   21.1850   34.1100   70.0770 C   0  0  0  0  0  3  0  0  0  0  0  0
   22.1770   33.5240   69.3510 C   0  0  0  0  0  0  0  0  0  0  0  0
   22.6720   34.2240   68.2510 C   0  0  0  0  0  0  0  0  0  0  0  0
   22.1600   35.4640   67.9270 C   0  0  0  0  0  0  0  0  0  0  0  0
   23.6790   33.6620   67.4890 O   0  0  0  0  0  1  0  0  0  0  0  0
   22.9220   36.5050   66.2590 I   0  0  0  0  0  0  0  0  0  0  0  0
   21.1500   36.0270   68.6910 C   0  0  0  0  0  3  0  0  0  0  0  0
   22.7300   32.2810   69.6280 O   0  0  0  0  0  0  0  0  0  0  0  0
   22.1680   31.5110   70.6750 C   0  0  0  0  0  1  0  0  0  0  0  0
  1 19  1  6  0  0  0
  1  2  1  0  0  0  0
  2  3  1  0  0  0  0
  2 16  1  0  0  0  0
  3  4  1  0  0  0  0
  5 14  1  0  0  0  0
  5  4  1  0  0  0  0
  6  5  2  0  0  0  0
  7  6  1  0  0  0  0
  7  3  2  0  0  0  0
  8  7  1  0  0  0  0
  9  8  2  0  0  0  0
 10  8  1  0  0  0  0
 10  1  1  0  0  0  0
 11  6  1  0  0  0  0
 12 13  1  0  0  0  0
 12 11  1  0  0  0  0
 13 14  1  0  0  0  0
 15 13  1  0  0  0  0
 17 10  1  0  0  0  0
 18 13  1  0  0  0  0
 19 20  1  0  0  0  0
 21 27  1  0  0  0  0
 21 20  2  0  0  0  0
 22 21  1  0  0  0  0
 23 22  2  0  0  0  0
 23 26  1  0  0  0  0
 24 22  1  0  0  0  0
 25 23  1  0  0  0  0
 26 19  2  0  0  0  0
 27 28  1  0  0  0  0
M  END
>  <Pose>
1

>  <Score>
-8.895

$$$$
