/Users/jonathanwahrer/Desktop/Msc/3_Semester/Drug_Design_Praktikum/waehrer_HTS_screening/HTS_experiment/out/docking_results/vina_output/4x21/0908_docked.pdbqt
 OpenBabel03212201593D

 25 28  0  0  0  0  0  0  0  0999 V2000
   22.9020   36.0190   68.2490 N   0  0  0  0  0  0  0  0  0  0  0  0
   21.6120   35.8380   68.5840 C   0  0  0  0  0  0  0  0  0  0  0  0
   20.7930   35.0970   67.9630 O   0  0  0  0  0  0  0  0  0  0  0  0
   21.2760   36.5690   69.7060 C   0  0  0  0  0  0  0  0  0  0  0  0
   22.3810   37.2040   70.0590 C   0  0  0  0  0  0  0  0  0  0  0  0
   22.0360   37.9140   71.1590 N   0  0  0  0  0  0  0  0  0  0  0  0
   20.7670   37.7140   71.4610 N   0  0  0  0  0  0  0  0  0  0  0  0
   20.2770   36.8860   70.5760 N   0  0  0  0  0  0  0  0  0  0  0  0
   23.3890   36.8720   69.1680 C   0  0  0  0  0  0  0  0  0  0  0  0
   24.5810   37.3190   69.2300 O   0  0  0  0  0  0  0  0  0  0  0  0
   22.6670   38.5370   71.7070 H   0  0  0  0  0  0  0  0  0  0  0  0
   20.2470   38.1390   72.2570 H   0  0  0  0  0  0  0  0  0  0  0  0
   23.6320   35.4480   67.1620 C   0  0  0  0  0  0  0  0  0  0  0  0
   24.2380   34.2130   67.2690 C   0  0  0  0  0  0  0  0  0  0  0  0
   24.0430   33.1920   69.1130 I   0  0  0  0  0  0  0  0  0  0  0  0
   24.9490   33.6420   66.2330 C   0  0  0  0  0  3  0  0  0  0  0  0
   25.0820   34.2970   65.0260 C   0  0  0  0  0  3  0  0  0  0  0  0
   24.4810   35.5330   64.9080 C   0  0  0  0  0  3  0  0  0  0  0  0
   23.7700   36.0970   65.9530 C   0  0  0  0  0  3  0  0  0  0  0  0
   18.9540   36.3730   70.4840 C   0  0  0  0  0  0  0  0  0  0  0  0
   18.6300   35.1040   70.9100 C   0  0  0  0  0  3  0  0  0  0  0  0
   17.3310   34.6340   70.8080 C   0  0  0  0  0  3  0  0  0  0  0  0
   16.3160   35.4060   70.2810 C   0  0  0  0  0  3  0  0  0  0  0  0
   16.6390   36.6760   69.8550 C   0  0  0  0  0  3  0  0  0  0  0  0
   17.9240   37.1510   69.9520 C   0  0  0  0  0  3  0  0  0  0  0  0
  1  2  1  0  0  0  0
  1  9  1  0  0  0  0
  2  4  1  0  0  0  0
  3  2  2  0  0  0  0
  4  5  2  0  0  0  0
  4  8  1  0  0  0  0
  5  6  1  0  0  0  0
  6  7  1  0  0  0  0
  6 11  1  0  0  0  0
  7 12  1  0  0  0  0
  8  7  1  0  0  0  0
  9 10  2  0  0  0  0
  9  5  1  0  0  0  0
 13 14  1  0  0  0  0
 13  1  1  0  0  0  0
 14 15  1  0  0  0  0
 16 14  2  0  0  0  0
 17 16  1  0  0  0  0
 18 17  2  0  0  0  0
 18 19  1  0  0  0  0
 19 13  2  0  0  0  0
 20  8  1  0  0  0  0
 20 21  1  0  0  0  0
 22 21  2  0  0  0  0
 23 22  1  0  0  0  0
 24 25  1  0  0  0  0
 24 23  2  0  0  0  0
 25 20  2  0  0  0  0
M  END
>  <Pose>
1

>  <Score>
-8.084

$$$$
