/Users/jonathanwahrer/Desktop/Msc/3_Semester/Drug_Design_Praktikum/waehrer_HTS_screening/HTS_experiment/out/docking_results/vina_output/4x21/0910_docked.pdbqt
 OpenBabel03212201593D

 26 29  0  0  0  0  0  0  0  0999 V2000
   16.3170   34.7870   71.3370 C   0  0  0  0  0  0  0  0  0  0  0  0
   15.1170   34.2910   70.7770 C   0  0  0  0  0  0  0  0  0  0  0  0
   14.3040   34.7960   69.8560 N   0  0  0  0  0  0  0  0  0  0  0  0
   13.3220   33.9650   69.6790 O   0  0  0  0  0  0  0  0  0  0  0  0
   13.4570   32.9420   70.4440 N   0  0  0  0  0  0  0  0  0  0  0  0
   14.5790   33.1060   71.1570 C   0  0  0  0  0  0  0  0  0  0  0  0
   15.2090   32.3460   72.1180 C   0  0  0  0  0  0  0  0  0  0  0  0
   16.3730   32.7980   72.6820 C   0  0  0  0  0  3  0  0  0  0  0  0
   16.9320   34.0040   72.3030 C   0  0  0  0  0  3  0  0  0  0  0  0
   16.7740   35.9660   70.7830 N   0  0  0  0  0  0  0  0  0  0  0  0
   17.2150   37.1040   70.2490 C   0  0  0  0  0  0  0  0  0  0  0  0
   16.7310   38.2750   70.5340 O   0  0  0  0  0  0  0  0  0  0  0  0
   15.7310   36.6220   71.3630 H   0  0  0  0  0  0  0  0  0  0  0  0
   18.3110   37.2370   69.2520 C   0  0  0  0  0  0  0  0  0  0  0  0
   19.5900   36.7490   69.4130 C   0  0  0  0  0  0  0  0  0  0  0  0
   20.3550   35.7460   71.1270 I   0  0  0  0  0  0  0  0  0  0  0  0
   20.2840   37.0230   68.2600 C   0  0  0  0  0  3  0  0  0  0  0  0
   19.4310   37.6510   67.4540 N   0  0  0  0  0  0  0  0  0  0  0  0
   18.2450   37.7850   68.0360 N   0  0  0  0  0  0  0  0  0  0  0  0
   17.0840   38.3990   67.3650 C   0  0  0  0  0  1  0  0  0  0  0  0
   14.6160   31.1290   72.4890 N   0  0  0  0  0  0  0  0  0  0  0  0
   13.6400   31.0220   73.5740 C   0  0  0  0  0  2  0  0  0  0  0  0
   14.3040   30.1220   74.5960 C   0  0  0  0  0  2  0  0  0  0  0  0
   15.5500   29.6590   74.2040 O   0  0  0  0  0  0  0  0  0  0  0  0
   15.5880   29.0400   72.9730 C   0  0  0  0  0  2  0  0  0  0  0  0
   14.8530   29.8290   71.9030 C   0  0  0  0  0  2  0  0  0  0  0  0
  1  9  2  0  0  0  0
  2  6  1  0  0  0  0
  2  1  1  0  0  0  0
  3  2  2  0  0  0  0
  4  3  1  0  0  0  0
  4  5  1  0  0  0  0
  5  6  2  0  0  0  0
  6  7  1  0  0  0  0
  7 21  1  0  0  0  0
  7  8  2  0  0  0  0
  9  8  1  0  0  0  0
 10  1  1  0  0  0  0
 10 13  1  0  0  0  0
 11 12  2  0  0  0  0
 11 10  1  0  0  0  0
 14 15  2  0  0  0  0
 14 11  1  0  0  0  0
 15 16  1  0  0  0  0
 17 15  1  0  0  0  0
 18 19  1  0  0  0  0
 18 17  2  0  0  0  0
 19 14  1  0  0  0  0
 20 19  1  0  0  0  0
 21 22  1  0  0  0  0
 22 23  1  0  0  0  0
 24 23  1  0  0  0  0
 25 24  1  0  0  0  0
 26 21  1  0  0  0  0
 26 25  1  0  0  0  0
M  END
>  <Pose>
1

>  <Score>
-8.185

$$$$
