/Users/jonathanwahrer/Desktop/Msc/3_Semester/Drug_Design_Praktikum/waehrer_HTS_screening/HTS_experiment/out/docking_results/vina_output/4x21/0920_docked.pdbqt
 OpenBabel03212201593D

 24 27  0  0  1  0  0  0  0  0999 V2000
   17.5360   37.3530   69.9520 N   0  0  0  0  0  0  0  0  0  0  0  0
   18.1170   37.5830   68.8160 C   0  0  1  0  0  3  0  0  0  0  0  0
   17.8780   38.5040   67.2880 S   0  0  0  0  0  0  0  0  0  0  0  0
   19.4100   37.9510   66.5750 C   0  0  0  0  0  3  0  0  0  0  0  0
   20.0140   37.1560   67.4300 C   0  0  0  0  0  0  0  0  0  0  0  0
   19.3430   36.9350   68.6580 N   0  0  0  0  0  0  0  0  0  0  0  0
   19.5700   36.1710   69.9120 C   0  0  0  0  0  3  0  0  0  0  0  0
   18.3360   36.4270   70.7040 C   0  0  0  0  0  3  0  0  0  0  0  0
   16.2930   37.8900   70.3660 C   0  0  0  0  0  2  0  0  0  0  0  0
   15.1370   37.0580   70.5720 C   0  0  1  0  0  3  0  0  0  0  0  0
   14.0250   37.7420   70.6170 O   0  0  0  0  0  1  0  0  0  0  0  0
   14.9570   35.6410   70.7360 C   0  0  0  0  0  0  0  0  0  0  0  0
   14.1240   34.9080   69.9470 C   0  0  0  0  0  3  0  0  0  0  0  0
   13.9630   33.5630   70.1420 C   0  0  0  0  0  3  0  0  0  0  0  0
   14.6220   32.8660   71.1370 C   0  0  0  0  0  0  0  0  0  0  0  0
   14.4100   30.8230   71.4740 I   0  0  0  0  0  0  0  0  0  0  0  0
   15.4740   33.6240   71.9410 C   0  0  0  0  0  3  0  0  0  0  0  0
   15.6310   34.9550   71.7450 C   0  0  0  0  0  3  0  0  0  0  0  0
   21.3250   36.5670   67.0290 C   0  0  0  0  0  0  0  0  0  0  0  0
   21.7160   35.3140   67.4210 C   0  0  0  0  0  3  0  0  0  0  0  0
   22.9500   34.7580   67.0320 C   0  0  0  0  0  3  0  0  0  0  0  0
   23.8100   35.4760   66.2330 C   0  0  0  0  0  3  0  0  0  0  0  0
   23.4250   36.7320   65.8370 C   0  0  0  0  0  3  0  0  0  0  0  0
   22.2050   37.2710   66.2260 C   0  0  0  0  0  3  0  0  0  0  0  0
  1  9  1  0  0  0  0
  1  8  1  0  0  0  0
  2  3  1  1  0  0  0
  2  1  1  0  0  0  0
  4  3  1  0  0  0  0
  4  5  2  0  0  0  0
  5  6  1  0  0  0  0
  6  2  1  0  0  0  0
  6  7  1  0  0  0  0
  7  8  2  0  0  0  0
  9 10  1  0  0  0  0
 10 11  1  6  0  0  0
 10 12  1  0  0  0  0
 12 18  1  0  0  0  0
 13 14  1  0  0  0  0
 13 12  2  0  0  0  0
 14 15  2  0  0  0  0
 15 16  1  0  0  0  0
 15 17  1  0  0  0  0
 18 17  2  0  0  0  0
 19 20  1  0  0  0  0
 19  5  1  0  0  0  0
 21 20  2  0  0  0  0
 22 21  1  0  0  0  0
 23 24  1  0  0  0  0
 23 22  2  0  0  0  0
 24 19  2  0  0  0  0
M  END
>  <Pose>
1

>  <Score>
-8.567

$$$$
