/Users/jonathanwahrer/Desktop/Msc/3_Semester/Drug_Design_Praktikum/waehrer_HTS_screening/HTS_experiment/out/docking_results/vina_output/4x21/0924_docked.pdbqt
 OpenBabel03212201593D

 29 32  0  0  0  0  0  0  0  0999 V2000
   19.9530   37.9000   66.5980 C   0  0  0  0  0  0  0  0  0  0  0  0
   20.8020   36.8680   66.7450 N   0  0  0  0  0  4  0  0  0  0  0  0
   22.1090   37.0030   66.4870 C   0  0  0  0  0  0  0  0  0  0  0  0
   22.5220   38.2130   66.0750 N   0  0  0  0  0  0  0  0  0  0  0  0
   21.7010   39.2700   65.9150 C   0  0  0  0  0  0  0  0  0  0  0  0
   20.3950   39.0940   66.1860 N   0  0  0  0  0  2  0  0  0  0  0  0
   18.5440   37.7290   66.8840 N   0  0  0  0  0  0  0  0  0  0  0  0
   18.0490   36.8700   66.5600 H   0  0  0  0  0  0  0  0  0  0  0  0
   17.8790   38.7060   67.5470 N   0  0  0  0  0  0  0  0  0  0  0  0
   17.3410   38.5580   68.6760 C   0  0  0  0  0  3  0  0  0  0  0  0
   17.3040   37.3790   69.4970 C   0  0  0  0  0  0  0  0  0  0  0  0
   18.3620   36.6480   69.9500 C   0  0  0  0  0  3  0  0  0  0  0  0
   18.2180   35.5060   70.7510 C   0  0  0  0  0  3  0  0  0  0  0  0
   16.9760   35.0810   71.1120 C   0  0  0  0  0  0  0  0  0  0  0  0
   16.6590   33.3910   72.3040 I   0  0  0  0  0  0  0  0  0  0  0  0
   15.8890   35.8010   70.6680 C   0  0  0  0  0  3  0  0  0  0  0  0
   16.0360   36.9190   69.8830 C   0  0  0  0  0  3  0  0  0  0  0  0
   23.0290   35.9220   66.6350 N   0  0  0  0  0  0  0  0  0  0  0  0
   23.9300   35.5100   65.6020 C   0  0  0  0  0  2  0  0  0  0  0  0
   24.6120   34.2220   66.0690 C   0  0  0  0  0  2  0  0  0  0  0  0
   23.6920   33.2980   66.5340 O   0  0  0  0  0  0  0  0  0  0  0  0
   23.0310   33.7050   67.6670 C   0  0  0  0  0  2  0  0  0  0  0  0
   23.0640   35.1950   67.8940 C   0  0  0  0  0  2  0  0  0  0  0  0
   22.2220   40.5170   65.4740 N   0  0  0  0  0  0  0  0  0  0  0  0
   21.6910   41.1300   64.2790 C   0  0  0  0  0  2  0  0  0  0  0  0
   22.8870   41.8250   63.6130 C   0  0  0  0  0  2  0  0  0  0  0  0
   23.2860   42.8400   64.4420 O   0  0  0  0  0  0  0  0  0  0  0  0
   23.7230   42.4750   65.6840 C   0  0  0  0  0  3  0  0  0  0  0  0
   23.2600   41.1610   66.2010 C   0  0  0  0  0  3  0  0  0  0  0  0
  1  2  2  0  0  0  0
  1  7  1  0  0  0  0
  3 18  1  0  0  0  0
  3  2  2  0  0  0  0
  4  3  1  0  0  0  0
  5  4  2  0  0  0  0
  5  6  1  0  0  0  0
  6  1  1  0  0  0  0
  7  9  1  0  0  0  0
  8  7  1  0  0  0  0
  9 10  2  0  0  0  0
 10 11  1  0  0  0  0
 11 17  2  0  0  0  0
 11 12  1  0  0  0  0
 12 13  2  0  0  0  0
 13 14  1  0  0  0  0
 14 15  1  0  0  0  0
 16 14  2  0  0  0  0
 17 16  1  0  0  0  0
 18 23  1  0  0  0  0
 19 20  1  0  0  0  0
 19 18  1  0  0  0  0
 20 21  1  0  0  0  0
 21 22  1  0  0  0  0
 22 23  1  0  0  0  0
 24  5  1  0  0  0  0
 24 29  1  0  0  0  0
 25 24  1  0  0  0  0
 26 25  1  0  0  0  0
 26 27  1  0  0  0  0
 27 28  1  0  0  0  0
 28 29  2  0  0  0  0
M  END
>  <Pose>
1

>  <Score>
-8.687

$$$$
