/Users/jonathanwahrer/Desktop/Msc/3_Semester/Drug_Design_Praktikum/waehrer_HTS_screening/HTS_experiment/out/docking_results/vina_output/4x21/0935_docked.pdbqt
 OpenBabel03212202003D

 34 38  0  0  1  0  0  0  0  0999 V2000
   20.6910   32.5200   71.2070 N   0  0  0  0  0  0  0  0  0  0  0  0
   21.2530   33.5820   70.6040 C   0  0  0  0  0  0  0  0  0  0  0  0
   22.6170   33.7220   70.4730 C   0  0  2  0  0  3  0  0  0  0  0  0
   23.3830   32.7000   70.9990 C   0  0  0  0  0  0  0  0  0  0  0  0
   24.6500   32.6780   70.9590 O   0  0  0  0  0  0  0  0  0  0  0  0
   22.8230   31.6130   71.6150 N   0  0  0  0  0  0  0  0  0  0  0  0
   21.4820   31.5550   71.7020 C   0  0  0  0  0  0  0  0  0  0  0  0
   20.9230   30.5770   72.2600 O   0  0  0  0  0  0  0  0  0  0  0  0
   20.4580   34.5750   70.0920 O   0  0  0  0  0  0  0  0  0  0  0  0
   23.4010   30.8480   72.0090 H   0  0  0  0  0  0  0  0  0  0  0  0
   23.2980   34.8430   69.8510 C   0  0  1  0  0  3  0  0  0  0  0  0
   24.5500   34.5840   69.2150 N   0  0  0  0  0  4  0  0  0  0  0  0
   24.4750   33.7080   68.0780 C   0  0  0  0  0  2  0  0  0  0  0  0
   24.9780   35.8950   68.6600 C   0  0  0  0  0  1  0  0  0  0  0  0
   25.3460   34.3610   69.8350 H   0  0  0  0  0  0  0  0  0  0  0  0
   23.0560   33.4270   67.6300 C   0  0  0  0  0  2  0  0  0  0  0  0
   22.2910   34.7300   67.6280 C   0  0  0  0  0  0  0  0  0  0  0  0
   22.4420   35.4640   68.7770 C   0  0  0  0  0  0  0  0  0  0  0  0
   21.5440   35.1720   66.5860 C   0  0  0  0  0  3  0  0  0  0  0  0
   21.8320   36.6880   68.9070 C   0  0  0  0  0  0  0  0  0  0  0  0
   21.0690   37.1360   67.8380 C   0  0  0  0  0  0  0  0  0  0  0  0
   20.9070   36.4090   66.6760 C   0  0  0  0  0  0  0  0  0  0  0  0
   20.3290   38.3120   67.6410 O   0  0  0  0  0  0  0  0  0  0  0  0
   20.0940   37.1320   65.8160 O   0  0  0  0  0  0  0  0  0  0  0  0
   19.4250   38.1610   66.5630 C   0  0  0  0  0  2  0  0  0  0  0  0
   21.9890   37.4130   70.0540 O   0  0  0  0  0  0  0  0  0  0  0  0
   21.0670   37.5690   71.0850 C   0  0  0  0  0  1  0  0  0  0  0  0
   19.2830   32.3980   71.3320 C   0  0  0  0  0  0  0  0  0  0  0  0
   18.5030   31.7650   70.3780 C   0  0  0  0  0  3  0  0  0  0  0  0
   17.1490   31.6460   70.4960 C   0  0  0  0  0  3  0  0  0  0  0  0
   16.4910   32.1690   71.6040 C   0  0  0  0  0  0  0  0  0  0  0  0
   14.4070   31.9800   71.7730 I   0  0  0  0  0  0  0  0  0  0  0  0
   17.2620   32.7970   72.5530 C   0  0  0  0  0  3  0  0  0  0  0  0
   18.6310   32.9230   72.4430 C   0  0  0  0  0  3  0  0  0  0  0  0
  1 28  1  0  0  0  0
  1  7  1  0  0  0  0
  2  1  1  0  0  0  0
  3  2  1  1  0  0  0
  3  4  1  0  0  0  0
  4  6  1  0  0  0  0
  5  4  2  0  0  0  0
  6  7  1  0  0  0  0
  6 10  1  0  0  0  0
  7  8  2  0  0  0  0
  9  2  2  0  0  0  0
 11 18  1  6  0  0  0
 11  3  1  0  0  0  0
 12 15  1  0  0  0  0
 12 11  1  0  0  0  0
 13 12  1  0  0  0  0
 14 12  1  0  0  0  0
 16 13  1  0  0  0  0
 17 16  1  0  0  0  0
 17 18  1  0  0  0  0
 18 20  2  0  0  0  0
 19 22  1  0  0  0  0
 19 17  2  0  0  0  0
 20 26  1  0  0  0  0
 21 20  1  0  0  0  0
 22 21  2  0  0  0  0
 23 21  1  0  0  0  0
 24 25  1  0  0  0  0
 24 22  1  0  0  0  0
 25 23  1  0  0  0  0
 26 27  1  0  0  0  0
 28 34  1  0  0  0  0
 29 30  1  0  0  0  0
 29 28  2  0  0  0  0
 30 31  2  0  0  0  0
 31 32  1  0  0  0  0
 31 33  1  0  0  0  0
 34 33  2  0  0  0  0
M  END
>  <Pose>
1

>  <Score>
-7.677

$$$$
