/Users/jonathanwahrer/Desktop/Msc/3_Semester/Drug_Design_Praktikum/waehrer_HTS_screening/HTS_experiment/out/docking_results/vina_output/4x21/0950_docked.pdbqt
 OpenBabel03212202003D

 26 29  0  0  0  0  0  0  0  0999 V2000
   19.8500   36.4660   69.3550 C   0  0  0  0  0  0  0  0  0  0  0  0
   18.5450   36.9500   69.4920 C   0  0  0  0  0  0  0  0  0  0  0  0
   17.9640   38.0810   69.0530 N   0  0  0  0  0  0  0  0  0  0  0  0
   16.7220   38.0800   69.4370 O   0  0  0  0  0  0  0  0  0  0  0  0
   16.4580   37.0020   70.1080 N   0  0  0  0  0  0  0  0  0  0  0  0
   17.5780   36.2560   70.1700 C   0  0  0  0  0  0  0  0  0  0  0  0
   17.8810   35.0400   70.7420 C   0  0  0  0  0  0  0  0  0  0  0  0
   19.1640   34.5740   70.6010 C   0  0  0  0  0  3  0  0  0  0  0  0
   20.1600   35.2760   69.9110 C   0  0  0  0  0  3  0  0  0  0  0  0
   20.7660   37.2670   68.6340 N   0  0  0  0  0  0  0  0  0  0  0  0
   21.0200   37.2300   67.2700 C   0  0  0  0  0  0  0  0  0  0  0  0
   20.3930   36.3980   66.5270 O   0  0  0  0  0  0  0  0  0  0  0  0
   21.3450   37.9800   69.1810 H   0  0  0  0  0  0  0  0  0  0  0  0
   21.9880   38.0950   66.5690 C   0  0  0  0  0  0  0  0  0  0  0  0
   23.1490   37.8300   65.9300 C   0  0  0  0  0  0  0  0  0  0  0  0
   24.1260   36.0010   65.7140 I   0  0  0  0  0  0  0  0  0  0  0  0
   23.6300   39.0380   65.4260 C   0  0  0  0  0  3  0  0  0  0  0  0
   22.7720   40.0040   65.7590 N   0  0  0  0  0  0  0  0  0  0  0  0
   21.8020   39.4520   66.4340 N   0  0  0  0  0  0  0  0  0  0  0  0
   22.9280   41.4230   65.4080 C   0  0  0  0  0  1  0  0  0  0  0  0
   16.8660   34.3370   71.4400 N   0  0  0  0  0  0  0  0  0  0  0  0
   15.6710   33.8920   70.7540 C   0  0  0  0  0  2  0  0  0  0  0  0
   14.8260   33.1170   71.7040 C   0  0  0  0  0  2  0  0  0  0  0  0
   15.5090   32.1450   72.4080 O   0  0  0  0  0  0  0  0  0  0  0  0
   16.5730   32.5900   73.1260 C   0  0  0  0  0  2  0  0  0  0  0  0
   16.9550   34.0230   72.8530 C   0  0  0  0  0  2  0  0  0  0  0  0
  1  2  1  0  0  0  0
  1  9  2  0  0  0  0
  2  6  1  0  0  0  0
  3  4  1  0  0  0  0
  3  2  2  0  0  0  0
  4  5  1  0  0  0  0
  5  6  2  0  0  0  0
  6  7  1  0  0  0  0
  7 21  1  0  0  0  0
  8  7  2  0  0  0  0
  9  8  1  0  0  0  0
 10 13  1  0  0  0  0
 10  1  1  0  0  0  0
 11 10  1  0  0  0  0
 12 11  2  0  0  0  0
 14 11  1  0  0  0  0
 15 14  1  0  0  0  0
 16 15  1  0  0  0  0
 17 18  1  0  0  0  0
 17 15  2  0  0  0  0
 18 19  1  0  0  0  0
 19 14  2  0  0  0  0
 20 18  1  0  0  0  0
 21 26  1  0  0  0  0
 22 21  1  0  0  0  0
 22 23  1  0  0  0  0
 23 24  1  0  0  0  0
 24 25  1  0  0  0  0
 26 25  1  0  0  0  0
M  END
>  <Pose>
1

>  <Score>
-7.933

$$$$
