/Users/jonathanwahrer/Desktop/Msc/3_Semester/Drug_Design_Praktikum/waehrer_HTS_screening/HTS_experiment/out/docking_results/vina_output/4x21/0956_docked.pdbqt
 OpenBabel03212202003D

 30 33  0  0  1  0  0  0  0  0999 V2000
   21.0480   34.1070   70.7270 I   0  0  0  0  0  0  0  0  0  0  0  0
   18.9960   34.5930   70.7580 C   0  0  0  0  0  0  0  0  0  0  0  0
   18.4370   35.7650   70.3430 C   0  0  0  0  0  0  0  0  0  0  0  0
   17.0690   35.5970   70.5640 C   0  0  0  0  0  0  0  0  0  0  0  0
   16.7960   34.3980   71.0820 N   0  0  0  0  0  0  0  0  0  0  0  0
   17.9690   33.7780   71.2030 C   0  0  0  0  0  3  0  0  0  0  0  0
   16.2560   36.6160   70.2390 N   0  0  0  0  0  0  0  0  0  0  0  0
   16.7440   37.7540   69.7220 C   0  0  0  0  0  3  0  0  0  0  0  0
   18.0540   37.9120   69.5120 N   0  0  0  0  0  0  0  0  0  0  0  0
   18.9530   36.9250   69.8140 C   0  0  0  0  0  0  0  0  0  0  0  0
   15.5260   33.8460   71.4470 C   0  0  2  0  0  3  0  0  0  0  0  0
   15.5930   32.5250   71.8730 O   0  0  0  0  0  0  0  0  0  0  0  0
   14.2500   32.1930   72.0300 C   0  0  1  0  0  3  0  0  0  0  0  0
   13.5030   32.8240   70.8780 C   0  0  2  0  0  3  0  0  0  0  0  0
   14.5830   33.7120   70.2490 C   0  0  0  0  0  2  0  0  0  0  0  0
   14.0670   30.6760   71.8830 C   0  0  0  0  0  2  0  0  0  0  0  0
   13.3610   30.4210   70.7000 O   0  0  0  0  0  0  0  0  0  0  0  0
   12.6960   31.1560   70.5150 H   0  0  0  0  0  0  0  0  0  0  0  0
   12.5000   33.6860   71.3230 O   0  0  0  0  0  0  0  0  0  0  0  0
   11.6980   33.4770   70.7520 H   0  0  0  0  0  0  0  0  0  0  0  0
   20.3380   37.1490   69.5680 N   0  0  0  0  0  0  0  0  0  0  0  0
   20.8130   37.0760   68.2270 C   0  0  0  0  0  0  0  0  0  0  0  0
   19.9710   36.8150   67.3310 O   0  0  0  0  0  0  0  0  0  0  0  0
   21.0430   37.3630   70.2780 H   0  0  0  0  0  0  0  0  0  0  0  0
   22.1820   37.2790   67.8390 C   0  0  0  0  0  0  0  0  0  0  0  0
   23.2150   36.8830   68.6440 C   0  0  0  0  0  3  0  0  0  0  0  0
   24.5500   37.0710   68.2790 C   0  0  0  0  0  3  0  0  0  0  0  0
   24.8410   37.6660   67.0880 C   0  0  0  0  0  3  0  0  0  0  0  0
   23.8270   38.0730   66.2600 C   0  0  0  0  0  3  0  0  0  0  0  0
   22.4960   37.8750   66.6450 C   0  0  0  0  0  3  0  0  0  0  0  0
  1  2  1  0  0  0  0
  2  6  2  0  0  0  0
  3  4  1  0  0  0  0
  3  2  1  0  0  0  0
  4  5  1  0  0  0  0
  5  6  1  0  0  0  0
  5 11  1  0  0  0  0
  7  4  2  0  0  0  0
  8  7  1  0  0  0  0
  9  8  2  0  0  0  0
  9 10  1  0  0  0  0
 10  3  2  0  0  0  0
 11 15  1  6  0  0  0
 11 12  1  0  0  0  0
 12 13  1  0  0  0  0
 13 16  1  6  0  0  0
 14 19  1  1  0  0  0
 14 13  1  0  0  0  0
 15 14  1  0  0  0  0
 17 16  1  0  0  0  0
 18 17  1  0  0  0  0
 20 19  1  0  0  0  0
 21 10  1  0  0  0  0
 21 24  1  0  0  0  0
 22 21  1  0  0  0  0
 23 22  2  0  0  0  0
 25 22  1  0  0  0  0
 25 26  1  0  0  0  0
 27 26  2  0  0  0  0
 28 27  1  0  0  0  0
 29 30  1  0  0  0  0
 29 28  2  0  0  0  0
 30 25  2  0  0  0  0
M  END
>  <Pose>
1

>  <Score>
-8.620

$$$$
