/Users/jonathanwahrer/Desktop/Msc/3_Semester/Drug_Design_Praktikum/waehrer_HTS_screening/HTS_experiment/out/docking_results/vina_output/4x21/0961_docked.pdbqt
 OpenBabel03212202003D

 29 33  0  0  1  0  0  0  0  0999 V2000
   19.5050   32.7670   71.4060 C   0  0  1  0  0  3  0  0  0  0  0  0
   19.9340   31.7580   72.1260 N   0  0  0  0  0  0  0  0  0  0  0  0
   19.0410   30.9630   72.7890 C   0  0  0  0  0  3  0  0  0  0  0  0
   17.6930   31.1470   72.7540 C   0  0  0  0  0  3  0  0  0  0  0  0
   17.2040   32.1950   72.0050 C   0  0  0  0  0  0  0  0  0  0  0  0
   15.9420   32.6810   71.7370 N   0  0  0  0  0  0  0  0  0  0  0  0
   16.0370   33.7340   70.9430 C   0  0  0  0  0  0  0  0  0  0  0  0
   17.3660   33.9090   70.7110 N   0  0  0  0  0  0  0  0  0  0  0  0
   18.0990   32.9860   71.3460 C   0  0  0  0  0  0  0  0  0  0  0  0
   14.7860   32.0290   72.2840 C   0  0  0  0  0  1  0  0  0  0  0  0
   21.3200   31.3980   72.1920 C   0  0  0  0  0  1  0  0  0  0  0  0
   20.3160   33.7610   70.7280 C   0  0  0  0  0  3  0  0  0  0  0  0
   20.6970   33.8790   69.5060 C   0  0  0  0  0  3  0  0  0  0  0  0
   21.4960   34.8740   68.8270 C   0  0  0  0  0  0  0  0  0  0  0  0
   22.7780   34.7380   68.4060 C   0  0  0  0  0  0  0  0  0  0  0  0
   23.7730   33.1670   68.8230 Br  0  0  0  0  0  0  0  0  0  0  0  0
   23.4480   35.7620   67.6900 C   0  0  0  0  0  3  0  0  0  0  0  0
   22.8130   36.9380   67.3960 C   0  0  0  0  0  0  0  0  0  0  0  0
   21.5110   37.1050   67.8130 C   0  0  0  0  0  0  0  0  0  0  0  0
   23.1740   38.1120   66.7280 O   0  0  0  0  0  0  0  0  0  0  0  0
   20.8690   36.1050   68.5080 C   0  0  0  0  0  3  0  0  0  0  0  0
   21.1030   38.3810   67.3910 O   0  0  0  0  0  0  0  0  0  0  0  0
   21.9540   38.7280   66.3170 C   0  0  0  0  0  2  0  0  0  0  0  0
   14.9720   34.5690   70.3750 C   0  0  0  0  0  0  0  0  0  0  0  0
   13.8730   34.1050   69.7330 C   0  0  0  0  0  3  0  0  0  0  0  0
   12.9300   35.0060   69.2020 C   0  0  0  0  0  3  0  0  0  0  0  0
   13.1180   36.3630   69.3300 C   0  0  0  0  0  3  0  0  0  0  0  0
   14.2360   36.8640   69.9850 C   0  0  0  0  0  3  0  0  0  0  0  0
   15.1180   35.9620   70.4810 C   0  0  0  0  0  3  0  0  0  0  0  0
  1 12  1  1  0  0  0
  1  2  1  0  0  0  0
  2 11  1  0  0  0  0
  2  3  1  0  0  0  0
  4  3  2  0  0  0  0
  5  4  1  0  0  0  0
  6  5  1  0  0  0  0
  6 10  1  0  0  0  0
  7  6  1  0  0  0  0
  8  7  2  0  0  0  0
  8  9  1  0  0  0  0
  9  1  1  0  0  0  0
  9  5  2  0  0  0  0
 13 12  2  0  0  0  0
 14 13  1  0  0  0  0
 15 16  1  0  0  0  0
 15 14  2  0  0  0  0
 17 15  1  0  0  0  0
 18 17  2  0  0  0  0
 18 19  1  0  0  0  0
 19 21  2  0  0  0  0
 20 18  1  0  0  0  0
 21 14  1  0  0  0  0
 22 19  1  0  0  0  0
 23 20  1  0  0  0  0
 23 22  1  0  0  0  0
 24 29  1  0  0  0  0
 24  7  1  0  0  0  0
 25 24  2  0  0  0  0
 26 27  2  0  0  0  0
 26 25  1  0  0  0  0
 27 28  1  0  0  0  0
 28 29  2  0  0  0  0
M  END
>  <Pose>
1

>  <Score>
-9.483

$$$$
