/Users/jonathanwahrer/Desktop/Msc/3_Semester/Drug_Design_Praktikum/waehrer_HTS_screening/HTS_experiment/out/docking_results/vina_output/4x21/0969_docked.pdbqt
 OpenBabel03212202013D

 31 34  0  0  1  0  0  0  0  0999 V2000
   25.0070   33.7580   67.9440 Br  0  0  0  0  0  0  0  0  0  0  0  0
   23.7000   33.3120   69.2500 C   0  0  0  0  0  0  0  0  0  0  0  0
   22.4830   33.9760   69.3710 C   0  0  2  0  0  3  0  0  0  0  0  0
   21.5630   33.6130   70.3410 C   0  0  0  0  0  0  0  0  0  0  0  0
   21.8460   32.5780   71.2090 C   0  0  0  0  0  3  0  0  0  0  0  0
   23.0390   31.9200   71.0970 C   0  0  0  0  0  0  0  0  0  0  0  0
   23.9450   32.2850   70.1330 C   0  0  0  0  0  0  0  0  0  0  0  0
   25.1500   31.5610   70.0790 O   0  0  0  0  0  1  0  0  0  0  0  0
   23.3680   30.4890   72.3330 Br  0  0  0  0  0  0  0  0  0  0  0  0
   20.3520   34.2550   70.4820 C   0  0  0  0  0  0  0  0  0  0  0  0
   20.0760   35.2880   69.6100 C   0  0  0  0  0  0  0  0  0  0  0  0
   21.1080   35.6040   68.6150 C   0  0  0  0  0  0  0  0  0  0  0  0
   20.8150   36.6520   67.7420 C   0  0  1  0  0  3  0  0  0  0  0  0
   19.6220   37.3300   67.8330 C   0  0  0  0  0  0  0  0  0  0  0  0
   19.4020   38.2660   67.0240 O   0  0  0  0  0  0  0  0  0  0  0  0
   18.6640   37.0050   68.7880 C   0  0  0  0  0  0  0  0  0  0  0  0
   18.8840   35.9910   69.6740 C   0  0  0  0  0  3  0  0  0  0  0  0
   17.0320   37.9980   68.8440 Br  0  0  0  0  0  0  0  0  0  0  0  0
   22.1220   37.1230   66.4130 Br  0  0  0  0  0  0  0  0  0  0  0  0
   22.2440   34.9530   68.5340 O   0  0  0  0  0  0  0  0  0  0  0  0
   19.3850   33.8750   71.5130 C   0  0  0  0  0  0  0  0  0  0  0  0
   19.3110   34.5760   72.7030 C   0  0  0  0  0  0  0  0  0  0  0  0
   18.4130   34.2350   73.6910 C   0  0  0  0  0  3  0  0  0  0  0  0
   20.3980   35.9470   72.9530 Cl  0  0  0  0  0  0  0  0  0  0  0  0
   17.5710   33.1630   73.4770 C   0  0  0  0  0  3  0  0  0  0  0  0
   17.6110   32.4450   72.3210 C   0  0  0  0  0  0  0  0  0  0  0  0
   18.5150   32.8000   71.3440 C   0  0  0  0  0  0  0  0  0  0  0  0
   16.5020   31.0960   72.1300 Cl  0  0  0  0  0  0  0  0  0  0  0  0
   18.5670   32.0410   70.1180 C   0  0  0  0  0  0  0  0  0  0  0  0
   17.8090   32.2870   69.1390 O   0  0  0  0  0  0  0  0  0  0  0  0
   19.4730   30.9930   69.9760 O   0  0  0  0  0  1  0  0  0  0  0  0
  1  2  1  0  0  0  0
  2  3  1  0  0  0  0
  2  7  2  0  0  0  0
  3 20  1  6  0  0  0
  3  4  1  0  0  0  0
  4 10  2  0  0  0  0
  4  5  1  0  0  0  0
  6  5  2  0  0  0  0
  6  9  1  0  0  0  0
  7  6  1  0  0  0  0
  8  7  1  0  0  0  0
 10 21  1  0  0  0  0
 11 17  1  0  0  0  0
 11 10  1  0  0  0  0
 12 11  2  0  0  0  0
 13 19  1  1  0  0  0
 13 14  1  0  0  0  0
 13 12  1  0  0  0  0
 14 16  1  0  0  0  0
 15 14  2  0  0  0  0
 16 18  1  0  0  0  0
 16 17  2  0  0  0  0
 20 12  1  0  0  0  0
 21 22  1  0  0  0  0
 22 24  1  0  0  0  0
 22 23  2  0  0  0  0
 25 23  1  0  0  0  0
 26 25  2  0  0  0  0
 27 21  2  0  0  0  0
 27 26  1  0  0  0  0
 28 26  1  0  0  0  0
 29 27  1  0  0  0  0
 30 29  2  0  0  0  0
 31 29  1  0  0  0  0
M  END
>  <Pose>
1

>  <Score>
-6.683

$$$$
