/Users/jonathanwahrer/Desktop/Msc/3_Semester/Drug_Design_Praktikum/waehrer_HTS_screening/HTS_experiment/out/docking_results/vina_output/4x21/0971_docked.pdbqt
 OpenBabel03212202013D

 29 33  0  0  1  0  0  0  0  0999 V2000
   21.2530   30.1190   72.2230 Br  0  0  0  0  0  0  0  0  0  0  0  0
   22.0230   31.6850   71.4520 C   0  0  0  0  0  0  0  0  0  0  0  0
   21.2400   32.8130   71.1450 C   0  0  0  0  0  0  0  0  0  0  0  0
   21.7510   33.9500   70.5940 C   0  0  0  0  0  0  0  0  0  0  0  0
   23.1220   33.9780   70.3280 C   0  0  0  0  0  3  0  0  0  0  0  0
   23.8810   32.8850   70.6250 C   0  0  0  0  0  0  0  0  0  0  0  0
   23.3690   31.7310   71.1840 C   0  0  0  0  0  0  0  0  0  0  0  0
   24.2120   30.6420   71.4640 O   0  0  0  0  0  1  0  0  0  0  0  0
   25.7540   32.9140   70.2660 Br  0  0  0  0  0  0  0  0  0  0  0  0
   20.9150   35.1030   70.2870 C   0  0  1  0  0  0  0  0  0  0  0  0
   21.3850   36.1750   71.1020 O   0  0  0  0  0  0  0  0  0  0  0  0
   21.8300   37.2320   70.3560 C   0  0  0  0  0  0  0  0  0  0  0  0
   22.2940   38.3020   70.8120 O   0  0  0  0  0  0  0  0  0  0  0  0
   21.6470   36.8460   68.9710 C   0  0  0  0  0  0  0  0  0  0  0  0
   21.1040   35.5840   68.8890 C   0  0  0  0  0  0  0  0  0  0  0  0
   20.8670   35.0670   67.6580 C   0  0  0  0  0  3  0  0  0  0  0  0
   21.1690   35.8040   66.5310 C   0  0  0  0  0  3  0  0  0  0  0  0
   21.7130   37.0680   66.6090 C   0  0  0  0  0  3  0  0  0  0  0  0
   21.9580   37.6040   67.8450 C   0  0  0  0  0  3  0  0  0  0  0  0
   19.5080   34.9150   70.6240 C   0  0  0  0  0  0  0  0  0  0  0  0
   19.0540   33.7500   71.1760 C   0  0  0  0  0  0  0  0  0  0  0  0
   17.6900   33.5860   71.4950 C   0  0  0  0  0  0  0  0  0  0  0  0
   16.8220   34.6220   71.2410 C   0  0  0  0  0  0  0  0  0  0  0  0
   17.2750   35.8080   70.6810 C   0  0  0  0  0  0  0  0  0  0  0  0
   18.5980   35.9590   70.3740 C   0  0  0  0  0  3  0  0  0  0  0  0
   16.0840   37.2510   70.3240 Br  0  0  0  0  0  0  0  0  0  0  0  0
   15.4830   34.4480   71.5590 O   0  0  0  0  0  1  0  0  0  0  0  0
   17.0930   31.9400   72.2660 Br  0  0  0  0  0  0  0  0  0  0  0  0
   19.8840   32.6730   71.4540 O   0  0  0  0  0  0  0  0  0  0  0  0
  2  1  1  0  0  0  0
  3  2  2  0  0  0  0
  3 29  1  0  0  0  0
  4  3  1  0  0  0  0
  5  4  2  0  0  0  0
  5  6  1  0  0  0  0
  6  7  2  0  0  0  0
  7  2  1  0  0  0  0
  7  8  1  0  0  0  0
  9  6  1  0  0  0  0
 10 15  1  6  0  0  0
 10  4  1  0  0  0  0
 10 20  1  0  0  0  0
 10 11  1  0  0  0  0
 12 13  2  0  0  0  0
 12 11  1  0  0  0  0
 14 12  1  0  0  0  0
 15 14  1  0  0  0  0
 16 15  2  0  0  0  0
 17 18  2  0  0  0  0
 17 16  1  0  0  0  0
 18 19  1  0  0  0  0
 19 14  2  0  0  0  0
 20 21  1  0  0  0  0
 21 29  1  0  0  0  0
 21 22  2  0  0  0  0
 22 28  1  0  0  0  0
 23 22  1  0  0  0  0
 23 27  1  0  0  0  0
 24 23  2  0  0  0  0
 25 20  2  0  0  0  0
 25 24  1  0  0  0  0
 26 24  1  0  0  0  0
M  END
>  <Pose>
1

>  <Score>
-9.056

$$$$
