/Users/jonathanwahrer/Desktop/Msc/3_Semester/Drug_Design_Praktikum/waehrer_HTS_screening/HTS_experiment/out/docking_results/vina_output/4x21/0978_docked.pdbqt
 OpenBabel03212202013D

 33 37  0  0  1  0  0  0  0  0999 V2000
   16.6460   25.2550   73.9480 I   0  0  0  0  0  0  0  0  0  0  0  0
   18.6790   25.8230   73.9550 C   0  0  0  0  0  0  0  0  0  0  0  0
   18.9630   27.1690   73.7470 C   0  0  0  0  0  0  0  0  0  0  0  0
   20.2610   27.5640   73.7460 C   0  0  0  0  0  0  0  0  0  0  0  0
   21.2620   26.6120   73.9530 C   0  0  0  0  0  3  0  0  0  0  0  0
   20.9910   25.2770   74.1590 C   0  0  0  0  0  0  0  0  0  0  0  0
   19.6680   24.8830   74.1590 C   0  0  0  0  0  0  0  0  0  0  0  0
   19.3710   23.5440   74.3650 O   0  0  0  0  0  1  0  0  0  0  0  0
   22.5460   23.8700   74.4680 I   0  0  0  0  0  0  0  0  0  0  0  0
   20.6680   28.9420   73.5390 C   0  0  2  0  0  0  0  0  0  0  0  0
   21.5210   29.0680   72.3920 O   0  0  0  0  0  0  0  0  0  0  0  0
   22.7370   29.6130   72.7090 C   0  0  0  0  0  0  0  0  0  0  0  0
   23.7260   29.8690   71.9630 O   0  0  0  0  0  0  0  0  0  0  0  0
   22.7080   29.8690   74.1420 C   0  0  0  0  0  0  0  0  0  0  0  0
   21.4980   29.4770   74.6300 C   0  0  0  0  0  0  0  0  0  0  0  0
   21.2090   29.6150   75.9880 C   0  0  0  0  0  0  0  0  0  0  0  0
   22.1320   30.1470   76.8620 C   0  0  0  0  0  0  0  0  0  0  0  0
   23.3670   30.5470   76.3600 C   0  0  0  0  0  0  0  0  0  0  0  0
   23.6560   30.4130   75.0250 C   0  0  0  0  0  0  0  0  0  0  0  0
   25.1890   30.9130   74.4190 Cl  0  0  0  0  0  0  0  0  0  0  0  0
   24.5770   31.2280   77.4110 Cl  0  0  0  0  0  0  0  0  0  0  0  0
   21.7350   30.3060   78.5570 Cl  0  0  0  0  0  0  0  0  0  0  0  0
   19.6520   29.0960   76.5420 Cl  0  0  0  0  0  0  0  0  0  0  0  0
   19.5030   29.8430   73.3330 C   0  0  0  0  0  0  0  0  0  0  0  0
   18.2190   29.4150   73.3400 C   0  0  0  0  0  0  0  0  0  0  0  0
   17.2220   30.3670   73.1340 C   0  0  0  0  0  0  0  0  0  0  0  0
   17.4930   31.7000   72.9270 C   0  0  0  0  0  0  0  0  0  0  0  0
   18.8140   32.1010   72.9270 C   0  0  0  0  0  0  0  0  0  0  0  0
   19.8210   31.1920   73.1260 C   0  0  0  0  0  3  0  0  0  0  0  0
   19.2600   34.1360   72.6130 I   0  0  0  0  0  0  0  0  0  0  0  0
   16.5120   32.6370   72.7250 O   0  0  0  0  0  1  0  0  0  0  0  0
   15.2270   29.7150   73.1420 I   0  0  0  0  0  0  0  0  0  0  0  0
   17.9100   28.0830   73.5440 O   0  0  0  0  0  0  0  0  0  0  0  0
  1  2  1  0  0  0  0
  2  7  1  0  0  0  0
  3  2  2  0  0  0  0
  4  3  1  0  0  0  0
  4  5  2  0  0  0  0
  5  6  1  0  0  0  0
  6  7  2  0  0  0  0
  6  9  1  0  0  0  0
  7  8  1  0  0  0  0
 10 11  1  6  0  0  0
 10  4  1  0  0  0  0
 10 15  1  0  0  0  0
 11 12  1  0  0  0  0
 12 14  1  0  0  0  0
 13 12  2  0  0  0  0
 14 15  2  0  0  0  0
 14 19  1  0  0  0  0
 15 16  1  0  0  0  0
 16 23  1  0  0  0  0
 16 17  2  0  0  0  0
 17 22  1  0  0  0  0
 18 17  1  0  0  0  0
 18 21  1  0  0  0  0
 19 18  2  0  0  0  0
 20 19  1  0  0  0  0
 24 25  1  0  0  0  0
 24 10  1  0  0  0  0
 25 33  1  0  0  0  0
 26 32  1  0  0  0  0
 26 25  2  0  0  0  0
 27 28  2  0  0  0  0
 27 26  1  0  0  0  0
 28 29  1  0  0  0  0
 29 24  2  0  0  0  0
 30 28  1  0  0  0  0
 31 27  1  0  0  0  0
 33  3  1  0  0  0  0
M  END
>  <Pose>
1

>  <Score>
-5.997

$$$$
