/Users/jonathanwahrer/Desktop/Msc/3_Semester/Drug_Design_Praktikum/waehrer_HTS_screening/HTS_experiment/out/docking_results/vina_output/4x21/0979_docked.pdbqt
 OpenBabel03212202013D

 29 33  0  0  1  0  0  0  0  0999 V2000
   24.7930   32.7370   69.4620 I   0  0  0  0  0  0  0  0  0  0  0  0
   23.2240   32.3430   70.8300 C   0  0  0  0  0  0  0  0  0  0  0  0
   22.0960   33.1760   70.7380 C   0  0  0  0  0  0  0  0  0  0  0  0
   21.0750   32.9440   71.6050 C   0  0  0  0  0  0  0  0  0  0  0  0
   21.1910   31.8990   72.5390 C   0  0  0  0  0  3  0  0  0  0  0  0
   22.2920   31.0870   72.6260 C   0  0  0  0  0  0  0  0  0  0  0  0
   23.3260   31.3230   71.7470 C   0  0  0  0  0  0  0  0  0  0  0  0
   24.4550   30.5200   71.8080 O   0  0  0  0  0  1  0  0  0  0  0  0
   22.4000   29.5280   74.0590 I   0  0  0  0  0  0  0  0  0  0  0  0
   19.8550   33.7600   71.5880 C   0  0  2  0  0  0  0  0  0  0  0  0
   19.5580   34.2870   72.8670 O   0  0  0  0  0  0  0  0  0  0  0  0
   18.3450   33.8610   73.3400 C   0  0  0  0  0  0  0  0  0  0  0  0
   17.7810   34.1380   74.4320 O   0  0  0  0  0  0  0  0  0  0  0  0
   17.7730   32.9880   72.3250 C   0  0  0  0  0  0  0  0  0  0  0  0
   18.6520   32.9210   71.2930 C   0  0  0  0  0  0  0  0  0  0  0  0
   18.3180   32.1320   70.1860 C   0  0  0  0  0  3  0  0  0  0  0  0
   17.1250   31.4460   70.1590 C   0  0  0  0  0  3  0  0  0  0  0  0
   16.2310   31.5120   71.2060 C   0  0  0  0  0  3  0  0  0  0  0  0
   16.5480   32.2840   72.2980 C   0  0  0  0  0  3  0  0  0  0  0  0
   19.8740   34.8140   70.5600 C   0  0  0  0  0  0  0  0  0  0  0  0
   20.9220   34.9950   69.7250 C   0  0  0  0  0  0  0  0  0  0  0  0
   20.8710   36.0140   68.7780 C   0  0  0  0  0  0  0  0  0  0  0  0
   19.7770   36.8260   68.6860 C   0  0  0  0  0  0  0  0  0  0  0  0
   18.6930   36.6700   69.5180 C   0  0  0  0  0  0  0  0  0  0  0  0
   18.7670   35.6630   70.4410 C   0  0  0  0  0  3  0  0  0  0  0  0
   17.0010   37.9310   69.3700 I   0  0  0  0  0  0  0  0  0  0  0  0
   19.7510   37.8340   67.7310 O   0  0  0  0  0  1  0  0  0  0  0  0
   22.5240   36.2900   67.4700 I   0  0  0  0  0  0  0  0  0  0  0  0
   22.0720   34.1900   69.7770 O   0  0  0  0  0  0  0  0  0  0  0  0
  1  2  1  0  0  0  0
  2  7  1  0  0  0  0
  3  2  2  0  0  0  0
  3  4  1  0  0  0  0
  4  5  2  0  0  0  0
  5  6  1  0  0  0  0
  6  9  1  0  0  0  0
  7  8  1  0  0  0  0
  7  6  2  0  0  0  0
 10 20  1  6  0  0  0
 10  4  1  0  0  0  0
 10 11  1  0  0  0  0
 11 12  1  0  0  0  0
 12 13  2  0  0  0  0
 14 12  1  0  0  0  0
 15 10  1  0  0  0  0
 15 14  2  0  0  0  0
 16 15  1  0  0  0  0
 17 16  2  0  0  0  0
 17 18  1  0  0  0  0
 18 19  2  0  0  0  0
 19 14  1  0  0  0  0
 21 29  1  0  0  0  0
 21 20  2  0  0  0  0
 22 21  1  0  0  0  0
 23 22  2  0  0  0  0
 23 24  1  0  0  0  0
 24 25  2  0  0  0  0
 25 20  1  0  0  0  0
 26 24  1  0  0  0  0
 27 23  1  0  0  0  0
 28 22  1  0  0  0  0
 29  3  1  0  0  0  0
M  END
>  <Pose>
1

>  <Score>
-8.759

$$$$
