/Users/jonathanwahrer/Desktop/Msc/3_Semester/Drug_Design_Praktikum/waehrer_HTS_screening/HTS_experiment/out/docking_results/vina_output/4x21/0983_docked.pdbqt
 OpenBabel03212202013D

 34 37  0  0  0  0  0  0  0  0999 V2000
   18.6790   33.5540   70.6930 C   0  0  0  0  0  0  0  0  0  0  0  0
   17.3530   33.9780   70.8600 C   0  0  0  0  0  0  0  0  0  0  0  0
   17.3880   35.3360   70.6330 C   0  0  0  0  0  0  0  0  0  0  0  0
   18.6500   35.6890   70.3510 N   0  0  0  0  0  0  0  0  0  0  0  0
   19.4900   34.6100   70.3750 C   0  0  0  0  0  0  0  0  0  0  0  0
   16.2000   36.0560   70.7280 C   0  0  0  0  0  0  0  0  0  0  0  0
   15.0400   35.4030   71.0400 C   0  0  0  0  0  3  0  0  0  0  0  0
   14.9990   34.0250   71.2720 C   0  0  0  0  0  0  0  0  0  0  0  0
   16.1940   33.3050   71.1760 C   0  0  0  0  0  3  0  0  0  0  0  0
   13.3560   33.1770   71.7020 Br  0  0  0  0  0  0  0  0  0  0  0  0
   16.2180   37.9250   70.4210 Br  0  0  0  0  0  0  0  0  0  0  0  0
   18.9750   36.6740   70.1330 H   0  0  0  0  0  0  0  0  0  0  0  0
   20.9160   34.6470   70.0720 C   0  0  0  0  0  0  0  0  0  0  0  0
   21.7480   33.5970   70.3160 N   0  0  0  0  0  0  0  0  0  0  0  0
   23.0070   33.8960   69.9610 C   0  0  0  0  0  0  0  0  0  0  0  0
   21.4780   32.6740   70.7200 H   0  0  0  0  0  0  0  0  0  0  0  0
   23.0380   35.1810   69.4630 C   0  0  0  0  0  0  0  0  0  0  0  0
   24.2120   33.2080   69.9930 C   0  0  0  0  0  0  0  0  0  0  0  0
   21.7110   35.6180   69.5500 C   0  0  0  0  0  0  0  0  0  0  0  0
   24.2020   35.7690   69.0150 C   0  0  0  0  0  3  0  0  0  0  0  0
   25.4010   35.0730   69.0530 C   0  0  0  0  0  0  0  0  0  0  0  0
   25.3870   33.7800   69.5500 C   0  0  0  0  0  3  0  0  0  0  0  0
   27.0310   35.8700   68.4360 Br  0  0  0  0  0  0  0  0  0  0  0  0
   24.2640   31.4250   70.6660 Br  0  0  0  0  0  0  0  0  0  0  0  0
   21.3230   36.8830   69.1490 O   0  0  0  0  0  0  0  0  0  0  0  0
   20.6050   37.1790   67.6310 S   0  0  0  0  0  0  0  0  0  0  0  0
   20.7530   35.9900   66.7260 O   0  0  0  0  0  1  0  0  0  0  0  0
   21.2350   38.3520   66.9360 O   0  0  0  0  0  1  0  0  0  0  0  0
   18.9690   37.5790   67.8490 O   0  0  0  0  0  1  0  0  0  0  0  0
   19.0670   32.2270   70.8430 O   0  0  0  0  0  0  0  0  0  0  0  0
   19.6690   31.6410   72.3350 S   0  0  0  0  0  0  0  0  0  0  0  0
   18.4740   31.2290   73.1490 O   0  0  0  0  0  1  0  0  0  0  0  0
   20.5580   30.4400   72.1230 O   0  0  0  0  0  1  0  0  0  0  0  0
   20.4780   32.8500   73.1790 O   0  0  0  0  0  1  0  0  0  0  0  0
  1 30  1  0  0  0  0
  1  2  1  0  0  0  0
  2  9  1  0  0  0  0
  3  6  1  0  0  0  0
  3  2  2  0  0  0  0
  4  5  1  0  0  0  0
  4  3  1  0  0  0  0
  5  1  2  0  0  0  0
  6  7  2  0  0  0  0
  7  8  1  0  0  0  0
  8 10  1  0  0  0  0
  9  8  2  0  0  0  0
 11  6  1  0  0  0  0
 12  4  1  0  0  0  0
 13 14  1  0  0  0  0
 13  5  1  0  0  0  0
 14 16  1  0  0  0  0
 15 18  1  0  0  0  0
 15 14  1  0  0  0  0
 17 19  1  0  0  0  0
 17 15  2  0  0  0  0
 18 24  1  0  0  0  0
 19 13  2  0  0  0  0
 20 21  2  0  0  0  0
 20 17  1  0  0  0  0
 21 22  1  0  0  0  0
 22 18  2  0  0  0  0
 23 21  1  0  0  0  0
 25 19  1  0  0  0  0
 26 29  1  0  0  0  0
 26 25  1  0  0  0  0
 27 26  1  0  0  0  0
 28 26  1  0  0  0  0
 30 31  1  0  0  0  0
 31 32  1  0  0  0  0
 31 34  1  0  0  0  0
 33 31  1  0  0  0  0
M  END
>  <Pose>
1

>  <Score>
-8.825

$$$$
