/Users/jonathanwahrer/Desktop/Msc/3_Semester/Drug_Design_Praktikum/waehrer_HTS_screening/HTS_experiment/out/docking_results/vina_output/4x21/0985_docked.pdbqt
 OpenBabel03212202013D

 28 31  0  0  1  0  0  0  0  0999 V2000
   16.4180   34.3360   71.0370 N   0  0  0  0  0  0  0  0  0  0  0  0
   15.2290   33.7650   71.2640 C   0  0  0  0  0  0  0  0  0  0  0  0
   14.8870   32.5620   71.8030 N   0  0  0  0  0  0  0  0  0  0  0  0
   13.6280   32.1610   71.9520 C   0  0  0  0  0  0  0  0  0  0  0  0
   12.6410   32.9820   71.5500 N   0  0  0  0  0  0  0  0  0  0  0  0
   12.9090   34.1880   71.0080 C   0  0  0  0  0  0  0  0  0  0  0  0
   14.2140   34.6070   70.8530 C   0  0  0  0  0  0  0  0  0  0  0  0
   14.8190   35.7020   70.3700 N   0  0  0  0  0  0  0  0  0  0  0  0
   16.1570   35.5330   70.4840 C   0  0  0  0  0  0  0  0  0  0  0  0
   17.5010   36.7890   69.9480 Br  0  0  0  0  0  0  0  0  0  0  0  0
   17.6750   33.7060   71.3580 C   0  0  2  0  0  3  0  0  0  0  0  0
   18.7550   34.5720   71.1880 O   0  0  0  0  0  0  0  0  0  0  0  0
   19.8140   33.7370   71.4460 C   0  0  1  0  0  3  0  0  0  0  0  0
   19.5380   32.5780   70.4810 C   0  0  1  0  0  3  0  0  0  0  0  0
   21.1530   34.2910   71.1330 C   0  0  0  0  0  2  0  0  0  0  0  0
   19.9940   31.4300   71.1250 O   0  0  0  0  0  0  0  0  0  0  0  0
   18.0300   32.6070   70.3590 C   0  0  1  0  0  3  0  0  0  0  0  0
   21.4500   31.8640   71.9030 P   0  0  2  0  0  0  0  0  0  0  0  0
   21.2750   31.8900   73.4060 O   0  0  0  0  0  1  0  0  0  0  0  0
   22.0990   33.2730   71.2920 O   0  0  0  0  0  0  0  0  0  0  0  0
   22.5430   30.5890   71.5780 O   0  0  0  0  0  0  0  0  0  0  0  0
   17.4350   31.4070   70.6590 O   0  0  0  0  0  0  0  0  0  0  0  0
   17.5300   31.2150   71.6450 H   0  0  0  0  0  0  0  0  0  0  0  0
   13.3210   30.8910   72.5220 N   0  0  0  0  0  0  0  0  0  0  0  0
   12.3790   30.5000   72.3070 H   0  0  0  0  0  0  0  0  0  0  0  0
   14.0000   30.3670   73.1280 H   0  0  0  0  0  0  0  0  0  0  0  0
   11.8920   35.0420   70.5910 O   0  0  0  0  0  0  0  0  0  0  0  0
   12.1540   35.7380   69.8780 H   0  0  0  0  0  0  0  0  0  0  0  0
  1  2  1  0  0  0  0
  2  3  1  0  0  0  0
  3  4  2  0  0  0  0
  4 24  1  0  0  0  0
  5  4  1  0  0  0  0
  6  5  2  0  0  0  0
  7  6  1  0  0  0  0
  7  2  2  0  0  0  0
  8  9  2  0  0  0  0
  8  7  1  0  0  0  0
  9  1  1  0  0  0  0
 10  9  1  0  0  0  0
 11  1  1  6  0  0  0
 12 11  1  0  0  0  0
 12 13  1  0  0  0  0
 13 15  1  6  0  0  0
 14 16  1  1  0  0  0
 14 13  1  0  0  0  0
 15 20  1  0  0  0  0
 16 18  1  0  0  0  0
 17 14  1  0  0  0  0
 17 22  1  1  0  0  0
 17 11  1  0  0  0  0
 18 21  2  6  0  0  0
 18 19  1  0  0  0  0
 20 18  1  0  0  0  0
 22 23  1  0  0  0  0
 24 26  1  0  0  0  0
 25 24  1  0  0  0  0
 27  6  1  0  0  0  0
 28 27  1  0  0  0  0
M  END
>  <Pose>
1

>  <Score>
-8.220

$$$$
