/Users/jonathanwahrer/Desktop/Msc/3_Semester/Drug_Design_Praktikum/waehrer_HTS_screening/HTS_experiment/out/docking_results/vina_output/4x21/0991_docked.pdbqt
 OpenBabel03212202023D

 34 39  0  0  1  0  0  0  0  0999 V2000
   23.7260   32.9170   69.8400 N   0  0  0  0  0  0  0  0  0  0  0  0
   22.4280   33.1780   70.1370 C   0  0  0  0  0  0  0  0  0  0  0  0
   21.8890   32.1600   70.8950 C   0  0  0  0  0  0  0  0  0  0  0  0
   22.8910   31.2700   71.0540 N   0  0  0  0  0  0  0  0  0  0  0  0
   23.9870   31.7310   70.4170 C   0  0  0  0  0  0  0  0  0  0  0  0
   25.6990   30.8860   70.3070 Br  0  0  0  0  0  0  0  0  0  0  0  0
   20.5730   32.2380   71.3020 C   0  0  0  0  0  0  0  0  0  0  0  0
   20.0740   31.3210   71.9900 O   0  0  0  0  0  0  0  0  0  0  0  0
   19.7810   33.2870   70.9830 N   0  0  0  0  0  0  0  0  0  0  0  0
   20.3270   34.2690   70.2420 C   0  0  0  0  0  0  0  0  0  0  0  0
   19.3510   35.1770   70.0650 N   0  0  0  0  0  0  0  0  0  0  0  0
   18.2070   34.8060   70.6670 C   0  0  0  0  0  0  0  0  0  0  0  0
   18.4820   33.5900   71.2570 C   0  0  0  0  0  3  0  0  0  0  0  0
   21.6250   34.2100   69.8310 N   0  0  0  0  0  0  0  0  0  0  0  0
   22.0440   34.9750   69.2560 H   0  0  0  0  0  0  0  0  0  0  0  0
   24.6490   33.7390   69.0610 C   0  0  2  0  0  3  0  0  0  0  0  0
   24.3700   35.0940   69.2230 O   0  0  0  0  0  0  0  0  0  0  0  0
   24.8250   35.7560   68.1170 C   0  0  1  0  0  3  0  0  0  0  0  0
   24.5510   34.7880   66.9640 C   0  0  1  0  0  3  0  0  0  0  0  0
   24.0610   37.0200   67.8000 C   0  0  0  0  0  2  0  0  0  0  0  0
   25.5650   35.0010   66.0350 O   0  0  0  0  0  0  0  0  0  0  0  0
   24.6090   33.4340   67.6030 C   0  0  1  0  0  3  0  0  0  0  0  0
   25.7590   36.6840   65.9080 P   0  0  1  0  0  0  0  0  0  0  0  0
   25.8120   37.0900   64.2200 S   0  0  0  0  0  1  0  0  0  0  0  0
   24.4440   37.5100   66.5720 O   0  0  0  0  0  0  0  0  0  0  0  0
   27.1510   37.2100   66.7090 O   0  0  0  0  0  0  0  0  0  0  0  0
   25.7600   32.7470   67.1960 O   0  0  0  0  0  0  0  0  0  0  0  0
   26.4470   33.3530   66.8500 H   0  0  0  0  0  0  0  0  0  0  0  0
   16.9320   35.5340   70.6930 C   0  0  0  0  0  0  0  0  0  0  0  0
   16.8830   36.8620   70.3340 C   0  0  0  0  0  3  0  0  0  0  0  0
   15.6920   37.5780   70.3480 C   0  0  0  0  0  3  0  0  0  0  0  0
   14.5380   36.9340   70.7310 C   0  0  0  0  0  3  0  0  0  0  0  0
   14.5440   35.5980   71.1010 C   0  0  0  0  0  3  0  0  0  0  0  0
   15.7530   34.9380   71.0670 C   0  0  0  0  0  3  0  0  0  0  0  0
  1  2  1  0  0  0  0
  1  5  1  0  0  0  0
  2  3  2  0  0  0  0
  3  4  1  0  0  0  0
  3  7  1  0  0  0  0
  5  4  2  0  0  0  0
  6  5  1  0  0  0  0
  7  8  2  0  0  0  0
  9 13  1  0  0  0  0
  9  7  1  0  0  0  0
 10  9  1  0  0  0  0
 11 10  2  0  0  0  0
 11 12  1  0  0  0  0
 12 29  1  0  0  0  0
 12 13  2  0  0  0  0
 14  2  1  0  0  0  0
 14 10  1  0  0  0  0
 15 14  1  0  0  0  0
 16 17  1  0  0  0  0
 16  1  1  1  0  0  0
 18 20  1  6  0  0  0
 18 17  1  0  0  0  0
 19 21  1  6  0  0  0
 19 22  1  0  0  0  0
 19 18  1  0  0  0  0
 22 27  1  6  0  0  0
 22 16  1  0  0  0  0
 23 24  1  6  0  0  0
 23 21  1  0  0  0  0
 23 25  1  0  0  0  0
 23 26  2  0  0  0  0
 25 20  1  0  0  0  0
 28 27  1  0  0  0  0
 29 34  1  0  0  0  0
 30 31  1  0  0  0  0
 30 29  2  0  0  0  0
 31 32  2  0  0  0  0
 32 33  1  0  0  0  0
 34 33  2  0  0  0  0
M  END
>  <Pose>
1

>  <Score>
-9.062

$$$$
