/Users/jonathanwahrer/Desktop/Msc/3_Semester/Drug_Design_Praktikum/waehrer_HTS_screening/HTS_experiment/out/docking_results/vina_output/4x21/0993_docked.pdbqt
 OpenBabel03212202023D

 26 29  0  0  1  0  0  0  0  0999 V2000
   21.0860   32.4140   71.2780 P   0  0  2  0  0  0  0  0  0  0  0  0
   21.4680   33.6510   70.1070 S   0  0  0  0  0  1  0  0  0  0  0  0
   19.6590   31.6010   70.8110 O   0  0  0  0  0  0  0  0  0  0  0  0
   18.6190   32.4690   71.0300 C   0  0  2  0  0  3  0  0  0  0  0  0
   18.5470   32.7800   72.5310 C   0  0  2  0  0  3  0  0  0  0  0  0
   17.2780   33.3520   72.6010 O   0  0  0  0  0  0  0  0  0  0  0  0
   16.4460   32.5010   71.9130 C   0  0  2  0  0  3  0  0  0  0  0  0
   17.2570   31.8270   70.8350 C   0  0  2  0  0  3  0  0  0  0  0  0
   19.6370   33.7190   72.9440 C   0  0  0  0  0  2  0  0  0  0  0  0
   20.8510   33.0720   72.7950 O   0  0  0  0  0  0  0  0  0  0  0  0
   22.3360   31.3060   71.2880 O   0  0  0  0  0  0  0  0  0  0  0  0
   15.3460   33.1880   71.2630 N   0  0  0  0  0  0  0  0  0  0  0  0
   15.3620   34.5040   70.9300 C   0  0  0  0  0  0  0  0  0  0  0  0
   16.3040   35.4700   71.0850 N   0  0  0  0  0  0  0  0  0  0  0  0
   14.1600   34.8200   70.3310 C   0  0  0  0  0  0  0  0  0  0  0  0
   16.0830   36.7310   70.6640 C   0  0  0  0  0  3  0  0  0  0  0  0
   14.9040   37.0470   70.0760 N   0  0  0  0  0  0  0  0  0  0  0  0
   13.9460   36.1180   69.9050 C   0  0  0  0  0  0  0  0  0  0  0  0
   13.4180   33.6980   70.3030 N   0  0  0  0  0  0  0  0  0  0  0  0
   14.1510   32.7160   70.8720 C   0  0  0  0  0  0  0  0  0  0  0  0
   13.6350   30.8840   71.1240 Br  0  0  0  0  0  0  0  0  0  0  0  0
   12.7060   36.4680   69.2810 N   0  0  0  0  0  0  0  0  0  0  0  0
   12.2720   37.4020   69.5170 H   0  0  0  0  0  0  0  0  0  0  0  0
   12.2220   35.8400   68.6100 H   0  0  0  0  0  0  0  0  0  0  0  0
   17.3950   30.4830   71.2060 O   0  0  0  0  0  0  0  0  0  0  0  0
   17.4140   29.8750   70.4440 H   0  0  0  0  0  0  0  0  0  0  0  0
  1  2  1  6  0  0  0
  1 11  2  0  0  0  0
  1 10  1  0  0  0  0
  3  1  1  0  0  0  0
  4  3  1  1  0  0  0
  4  5  1  0  0  0  0
  5  6  1  0  0  0  0
  5  9  1  6  0  0  0
  7 12  1  6  0  0  0
  7  6  1  0  0  0  0
  8  4  1  0  0  0  0
  8 25  1  1  0  0  0
  8  7  1  0  0  0  0
 10  9  1  0  0  0  0
 13 14  1  0  0  0  0
 13 12  1  0  0  0  0
 15 13  2  0  0  0  0
 16 14  2  0  0  0  0
 17 16  1  0  0  0  0
 18 17  2  0  0  0  0
 18 15  1  0  0  0  0
 19 15  1  0  0  0  0
 19 20  2  0  0  0  0
 20 21  1  0  0  0  0
 20 12  1  0  0  0  0
 22 23  1  0  0  0  0
 22 18  1  0  0  0  0
 24 22  1  0  0  0  0
 26 25  1  0  0  0  0
M  END
>  <Pose>
1

>  <Score>
-7.689

$$$$
