/Users/jonathanwahrer/Desktop/Msc/3_Semester/Drug_Design_Praktikum/waehrer_HTS_screening/HTS_experiment/out/docking_results/vina_output/4x21/1001_docked.pdbqt
 OpenBabel03212202023D

 26 29  0  0  1  0  0  0  0  0999 V2000
   20.8820   32.3460   72.3490 P   0  0  2  0  0  0  0  0  0  0  0  0
   22.0620   32.3940   71.3770 O   0  0  0  0  0  0  0  0  0  0  0  0
   19.6620   31.4550   71.6180 O   0  0  0  0  0  0  0  0  0  0  0  0
   18.4440   32.0760   71.7190 C   0  0  2  0  0  3  0  0  0  0  0  0
   18.4350   32.8080   73.0680 C   0  0  2  0  0  3  0  0  0  0  0  0
   17.1320   32.8730   73.4590 O   0  0  0  0  0  0  0  0  0  0  0  0
   16.4200   31.8550   72.8870 C   0  0  2  0  0  3  0  0  0  0  0  0
   17.2850   31.1350   71.9110 C   0  0  2  0  0  3  0  0  0  0  0  0
   19.0980   34.1270   72.8270 C   0  0  0  0  0  2  0  0  0  0  0  0
   20.4500   33.9220   72.6880 O   0  0  0  0  0  0  0  0  0  0  0  0
   21.4590   31.5280   73.7360 O   0  0  0  0  0  1  0  0  0  0  0  0
   15.2340   32.4340   72.2690 N   0  0  0  0  0  0  0  0  0  0  0  0
   15.1910   33.5900   71.5670 C   0  0  0  0  0  0  0  0  0  0  0  0
   16.1590   34.4710   71.2590 N   0  0  0  0  0  0  0  0  0  0  0  0
   13.8940   33.7960   71.1470 C   0  0  0  0  0  0  0  0  0  0  0  0
   15.8530   35.5600   70.5360 C   0  0  0  0  0  3  0  0  0  0  0  0
   14.5860   35.7590   70.1290 N   0  0  0  0  0  0  0  0  0  0  0  0
   13.5710   34.9250   70.3980 C   0  0  0  0  0  0  0  0  0  0  0  0
   13.1560   32.7810   71.5880 N   0  0  0  0  0  0  0  0  0  0  0  0
   13.9780   31.9610   72.2670 C   0  0  0  0  0  0  0  0  0  0  0  0
   13.4960   30.3120   73.1440 Br  0  0  0  0  0  0  0  0  0  0  0  0
   12.2300   35.1240   69.9730 N   0  0  0  0  0  0  0  0  0  0  0  0
   11.6710   35.8970   70.4430 H   0  0  0  0  0  0  0  0  0  0  0  0
   11.7640   34.5760   69.2440 H   0  0  0  0  0  0  0  0  0  0  0  0
   17.7310   29.9070   72.3590 O   0  0  0  0  0  0  0  0  0  0  0  0
   17.0410   29.2250   72.3920 H   0  0  0  0  0  0  0  0  0  0  0  0
  1  2  2  6  0  0  0
  1 10  1  0  0  0  0
  1 11  1  0  0  0  0
  3  1  1  0  0  0  0
  4  3  1  1  0  0  0
  4  8  1  0  0  0  0
  4  5  1  0  0  0  0
  5  9  1  6  0  0  0
  5  6  1  0  0  0  0
  7 12  1  6  0  0  0
  7  6  1  0  0  0  0
  8 25  1  1  0  0  0
  8  7  1  0  0  0  0
 10  9  1  0  0  0  0
 13 12  1  0  0  0  0
 14 13  1  0  0  0  0
 15 13  2  0  0  0  0
 15 19  1  0  0  0  0
 16 14  2  0  0  0  0
 17 18  2  0  0  0  0
 17 16  1  0  0  0  0
 18 15  1  0  0  0  0
 19 20  2  0  0  0  0
 20 12  1  0  0  0  0
 20 21  1  0  0  0  0
 22 18  1  0  0  0  0
 22 23  1  0  0  0  0
 24 22  1  0  0  0  0
 25 26  1  0  0  0  0
M  END
>  <Pose>
1

>  <Score>
-7.861

$$$$
