/Users/jonathanwahrer/Desktop/Msc/3_Semester/Drug_Design_Praktikum/waehrer_HTS_screening/HTS_experiment/out/docking_results/vina_output/4x21/1027_docked.pdbqt
 OpenBabel03212202033D

 32 35  0  0  0  0  0  0  0  0999 V2000
   20.3960   34.0760   71.1670 N   0  0  0  0  0  0  0  0  0  0  0  0
   20.0180   32.8420   70.6470 C   0  0  0  0  0  2  0  0  0  0  0  0
   18.5750   32.5260   70.7370 C   0  0  0  0  0  0  0  0  0  0  0  0
   18.0310   31.7480   69.9160 O   0  0  0  0  0  0  0  0  0  0  0  0
   17.8580   33.1490   71.7960 N   0  0  0  0  0  0  0  0  0  0  0  0
   18.6330   33.7690   72.8090 C   0  0  0  0  0  0  0  0  0  0  0  0
   18.1300   33.8750   73.9630 O   0  0  0  0  0  0  0  0  0  0  0  0
   19.9930   34.2860   72.5500 C   0  0  0  0  0  2  0  0  0  0  0  0
   20.3380   35.4730   70.2420 S   0  0  0  0  0  0  0  0  0  0  0  0
   20.8490   36.6230   71.1100 O   0  0  0  0  0  0  0  0  0  0  0  0
   18.9060   35.8480   69.9370 O   0  0  0  0  0  0  0  0  0  0  0  0
   21.2950   35.4980   68.7860 C   0  0  0  0  0  0  0  0  0  0  0  0
   22.3730   34.6100   68.6850 C   0  0  0  0  0  3  0  0  0  0  0  0
   23.2430   34.5770   67.6190 C   0  0  0  0  0  0  0  0  0  0  0  0
   23.0750   35.4540   66.5690 C   0  0  0  0  0  0  0  0  0  0  0  0
   24.3830   33.7630   67.3360 N   0  0  0  0  0  0  0  0  0  0  0  0
   22.0220   36.3310   66.6490 C   0  0  0  0  0  3  0  0  0  0  0  0
   24.1170   35.2360   65.5360 C   0  0  0  0  0  2  0  0  0  0  0  0
   21.1370   36.3590   67.7390 C   0  0  0  0  0  0  0  0  0  0  0  0
   19.6430   37.5610   67.6900 Br  0  0  0  0  0  0  0  0  0  0  0  0
   24.6240   33.8390   65.8990 C   0  0  0  0  0  2  0  0  0  0  0  0
   25.1640   33.0220   68.2400 C   0  0  0  0  0  0  0  0  0  0  0  0
   26.1380   32.3300   67.7810 O   0  0  0  0  0  0  0  0  0  0  0  0
   24.9690   32.9620   69.7090 C   0  0  0  0  0  1  0  0  0  0  0  0
   16.4110   33.1290   71.8140 C   0  0  0  0  0  2  0  0  0  0  0  0
   15.7710   34.4600   72.0120 C   0  0  0  0  0  2  0  0  0  0  0  0
   14.7970   34.8590   70.9980 C   0  0  0  0  0  0  0  0  0  0  0  0
   13.9950   33.9540   70.3600 C   0  0  0  0  0  3  0  0  0  0  0  0
   13.1080   34.3930   69.4180 C   0  0  0  0  0  3  0  0  0  0  0  0
   12.9930   35.7380   69.0850 C   0  0  0  0  0  3  0  0  0  0  0  0
   13.8060   36.6240   69.7370 C   0  0  0  0  0  3  0  0  0  0  0  0
   14.7090   36.2170   70.6890 C   0  0  0  0  0  3  0  0  0  0  0  0
  1  8  1  0  0  0  0
  2  3  1  0  0  0  0
  2  1  1  0  0  0  0
  3  5  1  0  0  0  0
  4  3  2  0  0  0  0
  5 25  1  0  0  0  0
  5  6  1  0  0  0  0
  6  7  2  0  0  0  0
  8  6  1  0  0  0  0
  9 10  2  0  0  0  0
  9  1  1  0  0  0  0
 11  9  2  0  0  0  0
 12  9  1  0  0  0  0
 13 12  1  0  0  0  0
 14 13  2  0  0  0  0
 15 17  2  0  0  0  0
 15 14  1  0  0  0  0
 16 14  1  0  0  0  0
 16 22  1  0  0  0  0
 17 19  1  0  0  0  0
 18 21  1  0  0  0  0
 18 15  1  0  0  0  0
 19 12  2  0  0  0  0
 20 19  1  0  0  0  0
 21 16  1  0  0  0  0
 22 24  1  0  0  0  0
 23 22  2  0  0  0  0
 25 26  1  0  0  0  0
 27 26  1  0  0  0  0
 28 27  2  0  0  0  0
 29 28  1  0  0  0  0
 30 29  2  0  0  0  0
 30 31  1  0  0  0  0
 31 32  2  0  0  0  0
 32 27  1  0  0  0  0
M  END
>  <Pose>
1

>  <Score>
-9.857

$$$$
