/Users/jonathanwahrer/Desktop/Msc/3_Semester/Drug_Design_Praktikum/waehrer_HTS_screening/HTS_experiment/out/docking_results/vina_output/4x21/1040_docked.pdbqt
 OpenBabel03212202043D

 34 38  0  0  0  0  0  0  0  0999 V2000
   20.6170   36.0650   70.0410 S   0  0  0  0  0  0  0  0  0  0  0  0
   21.0690   37.3760   69.5250 O   0  0  0  0  0  0  0  0  0  0  0  0
   21.2700   35.9400   71.4220 O   0  0  0  0  0  0  0  0  0  0  0  0
   21.2290   34.7230   69.1540 N   0  0  0  0  0  0  0  0  0  0  0  0
   22.4210   34.1630   69.6910 C   0  0  0  0  0  2  0  0  0  0  0  0
   23.7010   34.8170   69.1870 C   0  0  0  0  0  2  0  0  0  0  0  0
   23.6710   34.8500   67.7640 N   0  0  0  0  0  0  0  0  0  0  0  0
   22.5030   35.6300   67.2440 C   0  0  0  0  0  2  0  0  0  0  0  0
   24.5090   34.3000   66.8140 C   0  0  0  0  0  0  0  0  0  0  0  0
   21.2800   34.9420   67.7480 C   0  0  0  0  0  2  0  0  0  0  0  0
   24.1620   34.5370   65.5650 O   0  0  0  0  0  0  0  0  0  0  0  0
   25.7000   33.5120   66.9410 C   0  0  0  0  0  2  0  0  0  0  0  0
   26.2080   33.2000   68.2280 N   0  0  0  0  0  0  0  0  0  0  0  0
   26.8840   33.9960   69.0540 N   0  0  0  0  0  0  0  0  0  0  0  0
   27.1660   33.3670   70.2010 C   0  0  0  0  0  3  0  0  0  0  0  0
   26.6340   32.1060   70.0810 C   0  0  0  0  0  0  0  0  0  0  0  0
   26.0420   32.0070   68.8580 C   0  0  0  0  0  3  0  0  0  0  0  0
   26.7090   30.7160   71.4080 Br  0  0  0  0  0  0  0  0  0  0  0  0
   18.9100   35.9370   70.3270 C   0  0  0  0  0  0  0  0  0  0  0  0
   17.9840   36.7840   69.7010 C   0  0  0  0  0  0  0  0  0  0  0  0
   16.6280   36.6790   69.9350 C   0  0  0  0  0  0  0  0  0  0  0  0
   18.2230   37.8140   68.7950 O   0  0  0  0  0  0  0  0  0  0  0  0
   16.1260   35.7280   70.8000 C   0  0  0  0  0  0  0  0  0  0  0  0
   16.0010   37.6440   69.1780 O   0  0  0  0  0  0  0  0  0  0  0  0
   17.0230   34.9000   71.4150 C   0  0  0  0  0  0  0  0  0  0  0  0
   18.3870   35.0170   71.1700 C   0  0  0  0  0  0  0  0  0  0  0  0
   16.6420   33.8290   72.3650 C   0  0  0  0  0  2  0  0  0  0  0  0
   19.2280   34.0630   71.9130 C   0  0  0  0  0  2  0  0  0  0  0  0
   18.6900   32.6540   71.7840 C   0  0  0  0  0  2  0  0  0  0  0  0
   17.2840   32.6300   71.9290 N   0  0  0  0  0  0  0  0  0  0  0  0
   16.5550   31.8460   70.9960 C   0  0  0  0  0  1  0  0  0  0  0  0
   16.9730   38.4460   68.5690 C   0  0  0  0  0  2  0  0  0  0  0  0
   14.7410   35.6150   71.0450 O   0  0  0  0  0  0  0  0  0  0  0  0
   13.9340   34.9070   70.0940 C   0  0  0  0  0  1  0  0  0  0  0  0
  1 19  1  0  0  0  0
  1  3  2  0  0  0  0
  2  1  2  0  0  0  0
  4  5  1  0  0  0  0
  4  1  1  0  0  0  0
  6  5  1  0  0  0  0
  7  6  1  0  0  0  0
  8 10  1  0  0  0  0
  8  7  1  0  0  0  0
  9 12  1  0  0  0  0
  9  7  1  0  0  0  0
 10  4  1  0  0  0  0
 11  9  2  0  0  0  0
 12 13  1  0  0  0  0
 13 17  1  0  0  0  0
 13 14  1  0  0  0  0
 14 15  2  0  0  0  0
 16 15  1  0  0  0  0
 16 18  1  0  0  0  0
 17 16  2  0  0  0  0
 19 26  1  0  0  0  0
 20 21  1  0  0  0  0
 20 19  2  0  0  0  0
 21 23  2  0  0  0  0
 22 20  1  0  0  0  0
 23 33  1  0  0  0  0
 23 25  1  0  0  0  0
 24 21  1  0  0  0  0
 25 27  1  0  0  0  0
 26 25  2  0  0  0  0
 26 28  1  0  0  0  0
 29 28  1  0  0  0  0
 29 30  1  0  0  0  0
 30 27  1  0  0  0  0
 31 30  1  0  0  0  0
 32 22  1  0  0  0  0
 32 24  1  0  0  0  0
 34 33  1  0  0  0  0
M  END
>  <Pose>
1

>  <Score>
-8.919

$$$$
