/Users/jonathanwahrer/Desktop/Msc/3_Semester/Drug_Design_Praktikum/waehrer_HTS_screening/HTS_experiment/out/docking_results/vina_output/4x21/1042_docked.pdbqt
 OpenBabel03212202043D

 31 34  0  0  0  0  0  0  0  0999 V2000
   19.9810   34.7430   70.6130 N   0  0  0  0  0  0  0  0  0  0  0  0
   19.6600   35.0440   71.9270 C   0  0  0  0  0  2  0  0  0  0  0  0
   19.4760   33.7070   72.6970 C   0  0  0  0  0  2  0  0  0  0  0  0
   18.5580   32.8630   71.9850 N   0  0  0  0  0  0  0  0  0  0  0  0
   18.9130   32.5120   70.6290 C   0  0  0  0  0  2  0  0  0  0  0  0
   20.1110   33.3570   70.2550 C   0  0  0  0  0  2  0  0  0  0  0  0
   17.3570   32.3750   72.5360 C   0  0  0  0  0  0  0  0  0  0  0  0
   17.0550   32.6830   73.7110 O   0  0  0  0  0  0  0  0  0  0  0  0
   16.4620   31.5170   71.7570 C   0  0  0  0  0  2  0  0  0  0  0  0
   15.1890   32.1890   71.5140 N   0  0  0  0  0  0  0  0  0  0  0  0
   13.9300   31.9880   72.1240 C   0  0  0  0  0  0  0  0  0  0  0  0
   13.6890   31.1360   73.0410 O   0  0  0  0  0  0  0  0  0  0  0  0
   13.0160   32.9000   71.5280 N   0  0  0  0  0  0  0  0  0  0  0  0
   13.7980   33.9480   70.9270 C   0  0  0  0  0  0  0  0  0  0  0  0
   11.9760   32.7570   71.5660 H   0  0  0  0  0  0  0  0  0  0  0  0
   14.0540   35.1060   71.8350 C   0  0  0  0  0  2  0  0  0  0  0  0
   13.1040   34.5660   69.7340 C   0  0  0  0  0  2  0  0  0  0  0  0
   15.0370   33.2360   70.5340 C   0  0  0  0  0  0  0  0  0  0  0  0
   14.5230   36.1790   70.8440 C   0  0  0  0  0  2  0  0  0  0  0  0
   13.6700   35.9430   69.6270 C   0  0  0  0  0  2  0  0  0  0  0  0
   15.7800   33.4960   69.5610 O   0  0  0  0  0  0  0  0  0  0  0  0
   20.5420   35.8520   69.5180 S   0  0  0  0  0  0  0  0  0  0  0  0
   21.4790   36.8200   70.2540 O   0  0  0  0  0  0  0  0  0  0  0  0
   21.4630   35.2140   68.4740 O   0  0  0  0  0  0  0  0  0  0  0  0
   19.3870   36.8610   68.7040 C   0  0  0  0  0  0  0  0  0  0  0  0
   19.5600   37.4840   67.4980 C   0  0  0  0  0  0  0  0  0  0  0  0
   18.5820   38.3220   66.9500 C   0  0  0  0  0  3  0  0  0  0  0  0
   21.1420   37.1540   66.5030 Br  0  0  0  0  0  0  0  0  0  0  0  0
   17.4060   38.5590   67.5890 C   0  0  0  0  0  3  0  0  0  0  0  0
   17.2000   37.9490   68.7970 C   0  0  0  0  0  3  0  0  0  0  0  0
   18.1590   37.1260   69.3390 C   0  0  0  0  0  3  0  0  0  0  0  0
  1  2  1  0  0  0  0
  2  3  1  0  0  0  0
  4  7  1  0  0  0  0
  4  3  1  0  0  0  0
  5  4  1  0  0  0  0
  6  1  1  0  0  0  0
  6  5  1  0  0  0  0
  7  8  2  0  0  0  0
  9  7  1  0  0  0  0
 10  9  1  0  0  0  0
 10 11  1  0  0  0  0
 11 12  2  0  0  0  0
 13 15  1  0  0  0  0
 13 11  1  0  0  0  0
 14 13  1  0  0  0  0
 14 16  1  0  0  0  0
 17 14  1  0  0  0  0
 18 14  1  0  0  0  0
 18 10  1  0  0  0  0
 19 16  1  0  0  0  0
 20 17  1  0  0  0  0
 20 19  1  0  0  0  0
 21 18  2  0  0  0  0
 22 23  2  0  0  0  0
 22  1  1  0  0  0  0
 24 22  2  0  0  0  0
 25 31  1  0  0  0  0
 25 22  1  0  0  0  0
 26 25  2  0  0  0  0
 27 26  1  0  0  0  0
 27 29  2  0  0  0  0
 28 26  1  0  0  0  0
 29 30  1  0  0  0  0
 30 31  2  0  0  0  0
M  END
>  <Pose>
1

>  <Score>
-9.140

$$$$
