/Users/jonathanwahrer/Desktop/Msc/3_Semester/Drug_Design_Praktikum/waehrer_HTS_screening/HTS_experiment/out/docking_results/vina_output/4x21/1043_docked.pdbqt
 OpenBabel03212202053D

 31 34  0  0  0  0  0  0  0  0999 V2000
   20.6730   35.5430   68.6780 N   0  0  0  0  0  0  0  0  0  0  0  0
   21.4670   34.3330   68.6410 C   0  0  0  0  0  2  0  0  0  0  0  0
   21.5770   33.7100   70.0100 C   0  0  0  0  0  2  0  0  0  0  0  0
   20.2010   33.5780   70.5320 N   0  0  0  0  0  0  0  0  0  0  0  0
   19.4450   34.7910   70.5810 C   0  0  0  0  0  2  0  0  0  0  0  0
   20.3450   35.9130   70.0100 C   0  0  0  0  0  2  0  0  0  0  0  0
   19.7070   32.3290   70.9350 C   0  0  0  0  0  0  0  0  0  0  0  0
   20.5600   31.3340   70.7970 O   0  0  0  0  0  0  0  0  0  0  0  0
   18.4410   31.9060   71.4780 C   0  0  0  0  0  2  0  0  0  0  0  0
   17.3970   32.8550   71.7050 N   0  0  0  0  0  0  0  0  0  0  0  0
   17.1550   33.6330   72.9050 C   0  0  0  0  0  0  0  0  0  0  0  0
   17.8960   33.5590   73.9250 O   0  0  0  0  0  0  0  0  0  0  0  0
   15.9980   34.4230   72.6830 N   0  0  0  0  0  0  0  0  0  0  0  0
   15.2930   33.8460   71.5890 C   0  0  0  0  0  0  0  0  0  0  0  0
   15.7710   35.2720   73.2700 H   0  0  0  0  0  0  0  0  0  0  0  0
   14.2150   32.8780   72.0130 C   0  0  0  0  0  2  0  0  0  0  0  0
   14.4940   34.8690   70.8000 C   0  0  0  0  0  2  0  0  0  0  0  0
   16.3440   33.2220   70.7880 C   0  0  0  0  0  0  0  0  0  0  0  0
   13.4470   32.6960   70.7180 C   0  0  0  0  0  2  0  0  0  0  0  0
   13.6240   33.9800   69.9440 C   0  0  0  0  0  2  0  0  0  0  0  0
   16.3670   33.0240   69.5460 O   0  0  0  0  0  0  0  0  0  0  0  0
   21.3230   36.8030   67.7290 S   0  0  0  0  0  0  0  0  0  0  0  0
   21.3710   38.0410   68.6070 O   0  0  0  0  0  0  0  0  0  0  0  0
   20.3630   37.1320   66.6130 O   0  0  0  0  0  0  0  0  0  0  0  0
   22.9020   36.4320   67.0800 C   0  0  0  0  0  0  0  0  0  0  0  0
   24.0520   36.5470   67.8340 C   0  0  0  0  0  3  0  0  0  0  0  0
   25.3050   36.2500   67.3090 C   0  0  0  0  0  3  0  0  0  0  0  0
   25.4380   35.8280   66.0110 C   0  0  0  0  0  0  0  0  0  0  0  0
   24.2960   35.7080   65.2470 C   0  0  0  0  0  3  0  0  0  0  0  0
   27.1690   35.4130   65.2760 Br  0  0  0  0  0  0  0  0  0  0  0  0
   23.0500   36.0060   65.7770 C   0  0  0  0  0  3  0  0  0  0  0  0
  1  6  1  0  0  0  0
  2  1  1  0  0  0  0
  2  3  1  0  0  0  0
  3  4  1  0  0  0  0
  4  5  1  0  0  0  0
  4  7  1  0  0  0  0
  6  5  1  0  0  0  0
  7  9  1  0  0  0  0
  8  7  2  0  0  0  0
  9 10  1  0  0  0  0
 10 11  1  0  0  0  0
 11 12  2  0  0  0  0
 13 11  1  0  0  0  0
 13 15  1  0  0  0  0
 14 16  1  0  0  0  0
 14 13  1  0  0  0  0
 17 14  1  0  0  0  0
 18 14  1  0  0  0  0
 18 10  1  0  0  0  0
 19 16  1  0  0  0  0
 20 19  1  0  0  0  0
 20 17  1  0  0  0  0
 21 18  2  0  0  0  0
 22 23  2  0  0  0  0
 22  1  1  0  0  0  0
 24 22  2  0  0  0  0
 25 22  1  0  0  0  0
 25 26  1  0  0  0  0
 27 26  2  0  0  0  0
 28 27  1  0  0  0  0
 29 31  1  0  0  0  0
 29 28  2  0  0  0  0
 30 28  1  0  0  0  0
 31 25  2  0  0  0  0
M  END
>  <Pose>
1

>  <Score>
-8.528

$$$$
