/Users/jonathanwahrer/Desktop/Msc/3_Semester/Drug_Design_Praktikum/waehrer_HTS_screening/HTS_experiment/out/docking_results/vina_output/4x21/1056_docked.pdbqt
 OpenBabel03212202053D

 30 33  0  0  1  0  0  0  0  0999 V2000
   17.3140   31.4690   71.4810 N   0  0  0  0  0  0  0  0  0  0  0  0
   18.2260   31.5610   72.5550 C   0  0  0  0  0  2  0  0  0  0  0  0
   18.9960   32.8100   72.6830 C   0  0  0  0  0  2  0  0  0  0  0  0
   19.4070   33.3230   71.4100 N   0  0  0  0  0  0  0  0  0  0  0  0
   19.1070   32.5780   70.2210 C   0  0  0  0  0  2  0  0  0  0  0  0
   17.7400   31.9690   70.2240 C   0  0  0  0  0  2  0  0  0  0  0  0
   20.1000   34.5470   71.3160 C   0  0  0  0  0  0  0  0  0  0  0  0
   20.3520   35.1830   72.3640 O   0  0  0  0  0  0  0  0  0  0  0  0
   20.5480   35.1280   70.0560 C   0  0  1  0  0  3  0  0  0  0  0  0
   19.8560   36.1900   69.5040 C   0  0  0  0  0  3  0  0  0  0  0  0
   20.2680   36.7270   68.3450 N   0  0  0  0  0  0  0  0  0  0  0  0
   21.3490   36.2700   67.6780 C   0  0  1  0  0  3  0  0  0  0  0  0
   22.0440   35.2380   68.1870 N   0  0  0  0  0  0  0  0  0  0  0  0
   21.7530   36.8450   66.4780 C   0  0  0  0  0  3  0  0  0  0  0  0
   23.1360   34.7730   67.5170 C   0  0  0  0  0  3  0  0  0  0  0  0
   21.6500   34.6750   69.3600 C   0  0  0  0  0  0  0  0  0  0  0  0
   23.5530   35.3300   66.3260 C   0  0  0  0  0  0  0  0  0  0  0  0
   22.8520   36.3940   65.7820 C   0  0  0  0  0  3  0  0  0  0  0  0
   24.7350   34.8510   65.5680 C   0  0  0  0  0  1  0  0  0  0  0  0
   22.2920   33.7230   69.8290 O   0  0  0  0  0  0  0  0  0  0  0  0
   15.6790   31.6820   71.8580 S   0  0  0  0  0  0  0  0  0  0  0  0
   14.8900   30.4840   71.4590 O   0  0  0  0  0  0  0  0  0  0  0  0
   15.5520   31.8620   73.3510 O   0  0  0  0  0  0  0  0  0  0  0  0
   15.0670   33.1190   71.0840 C   0  0  0  0  0  0  0  0  0  0  0  0
   15.8080   34.2820   71.0940 C   0  0  0  0  0  3  0  0  0  0  0  0
   15.2610   35.3910   70.4570 C   0  0  0  0  0  0  0  0  0  0  0  0
   14.0380   35.3490   69.8390 C   0  0  0  0  0  3  0  0  0  0  0  0
   16.2330   37.0240   70.4370 Br  0  0  0  0  0  0  0  0  0  0  0  0
   13.3010   34.1730   69.8340 C   0  0  0  0  0  3  0  0  0  0  0  0
   13.8330   33.0460   70.4690 C   0  0  0  0  0  3  0  0  0  0  0  0
  1 21  1  0  0  0  0
  1  2  1  0  0  0  0
  2  3  1  0  0  0  0
  4  3  1  0  0  0  0
  5  6  1  0  0  0  0
  5  4  1  0  0  0  0
  6  1  1  0  0  0  0
  7  4  1  0  0  0  0
  7  8  2  0  0  0  0
  9  7  1  1  0  0  0
 10  9  1  0  0  0  0
 11 10  2  0  0  0  0
 12 14  1  6  0  0  0
 12 13  1  0  0  0  0
 12 11  1  0  0  0  0
 13 16  1  0  0  0  0
 15 13  1  0  0  0  0
 16 20  2  0  0  0  0
 16  9  1  0  0  0  0
 17 15  2  0  0  0  0
 18 17  1  0  0  0  0
 18 14  2  0  0  0  0
 19 17  1  0  0  0  0
 21 23  2  0  0  0  0
 22 21  2  0  0  0  0
 24 25  1  0  0  0  0
 24 21  1  0  0  0  0
 26 25  2  0  0  0  0
 27 26  1  0  0  0  0
 28 26  1  0  0  0  0
 29 27  2  0  0  0  0
 29 30  1  0  0  0  0
 30 24  2  0  0  0  0
M  END
>  <Pose>
1

>  <Score>
-9.772

$$$$
