/Users/jonathanwahrer/Desktop/Msc/3_Semester/Drug_Design_Praktikum/waehrer_HTS_screening/HTS_experiment/out/docking_results/vina_output/4x21/1073_docked.pdbqt
 OpenBabel03212202063D

 28 31  0  0  0  0  0  0  0  0999 V2000
   19.9770   33.7090   71.3590 N   0  0  0  0  0  0  0  0  0  0  0  0
   20.4150   32.8190   72.3570 C   0  0  0  0  0  2  0  0  0  0  0  0
   19.5510   31.5950   72.4870 C   0  0  0  0  0  2  0  0  0  0  0  0
   18.2450   31.7390   71.9520 N   0  0  0  0  0  0  0  0  0  0  0  0
   18.2860   32.1160   70.5840 C   0  0  0  0  0  2  0  0  0  0  0  0
   19.2660   33.1810   70.2580 C   0  0  0  0  0  2  0  0  0  0  0  0
   17.3900   32.4640   72.8160 C   0  0  0  0  0  2  0  0  0  0  0  0
   16.0440   32.6490   72.3900 N   0  0  0  0  0  0  0  0  0  0  0  0
   15.6890   33.7350   71.7350 N   0  0  0  0  0  0  0  0  0  0  0  0
   14.4440   33.9900   71.3050 C   0  0  0  0  0  0  0  0  0  0  0  0
   13.4880   33.0400   71.5760 C   0  0  0  0  0  3  0  0  0  0  0  0
   13.7960   31.8820   72.2590 C   0  0  0  0  0  3  0  0  0  0  0  0
   15.1160   31.7170   72.6590 C   0  0  0  0  0  0  0  0  0  0  0  0
   15.3990   30.6400   73.2910 O   0  0  0  0  0  0  0  0  0  0  0  0
   14.0880   35.1820   70.5940 N   0  0  0  0  0  0  0  0  0  0  0  0
   13.1170   35.3580   69.6930 C   0  0  0  0  0  3  0  0  0  0  0  0
   13.1410   36.6390   69.2810 N   0  0  0  0  0  0  0  0  0  0  0  0
   14.1290   37.2910   69.9180 C   0  0  0  0  0  3  0  0  0  0  0  0
   14.7190   36.3580   70.7440 C   0  0  0  0  0  3  0  0  0  0  0  0
   20.8000   35.1340   71.1350 S   0  0  0  0  0  0  0  0  0  0  0  0
   20.8390   35.9790   72.3640 O   0  0  0  0  0  0  0  0  0  0  0  0
   22.2020   34.8680   70.6900 O   0  0  0  0  0  0  0  0  0  0  0  0
   19.9880   36.0820   69.8720 C   0  0  0  0  0  0  0  0  0  0  0  0
   18.4720   36.8610   69.9190 S   0  0  0  0  0  0  0  0  0  0  0  0
   18.4550   37.5180   68.3470 C   0  0  0  0  0  0  0  0  0  0  0  0
   19.6530   37.1040   67.8190 C   0  0  0  0  0  3  0  0  0  0  0  0
   17.1070   38.5800   67.4970 Br  0  0  0  0  0  0  0  0  0  0  0  0
   20.4400   36.3620   68.6130 C   0  0  0  0  0  3  0  0  0  0  0  0
  1  2  1  0  0  0  0
  2  3  1  0  0  0  0
  4  3  1  0  0  0  0
  4  7  1  0  0  0  0
  5  4  1  0  0  0  0
  6  5  1  0  0  0  0
  6  1  1  0  0  0  0
  8 13  1  0  0  0  0
  8  7  1  0  0  0  0
  9  8  1  0  0  0  0
 10 11  1  0  0  0  0
 10  9  2  0  0  0  0
 11 12  2  0  0  0  0
 12 13  1  0  0  0  0
 13 14  2  0  0  0  0
 15 19  1  0  0  0  0
 15 10  1  0  0  0  0
 16 15  1  0  0  0  0
 17 16  2  0  0  0  0
 17 18  1  0  0  0  0
 18 19  2  0  0  0  0
 20  1  1  0  0  0  0
 20 21  2  0  0  0  0
 22 20  2  0  0  0  0
 23 24  1  0  0  0  0
 23 20  1  0  0  0  0
 25 24  1  0  0  0  0
 26 25  2  0  0  0  0
 26 28  1  0  0  0  0
 27 25  1  0  0  0  0
 28 23  2  0  0  0  0
M  END
>  <Pose>
1

>  <Score>
-8.356

$$$$
