/Users/jonathanwahrer/Desktop/Msc/3_Semester/Drug_Design_Praktikum/waehrer_HTS_screening/HTS_experiment/out/docking_results/vina_output/4x21/1076_docked.pdbqt
 OpenBabel03212202063D

 29 32  0  0  0  0  0  0  0  0999 V2000
   19.7870   33.8190   71.4120 N   0  0  0  0  0  0  0  0  0  0  0  0
   19.6830   32.8110   70.4050 C   0  0  0  0  0  2  0  0  0  0  0  0
   18.4720   31.9470   70.7990 C   0  0  0  0  0  2  0  0  0  0  0  0
   18.3030   31.8960   72.1860 N   0  0  0  0  0  0  0  0  0  0  0  0
   19.5000   31.9820   72.9770 C   0  0  0  0  0  2  0  0  0  0  0  0
   20.3830   33.1430   72.5780 C   0  0  0  0  0  2  0  0  0  0  0  0
   17.1390   32.3860   72.7960 C   0  0  0  0  0  2  0  0  0  0  0  0
   16.2430   33.1790   72.0180 N   0  0  0  0  0  0  0  0  0  0  0  0
   16.5430   34.5300   71.7080 N   0  0  0  0  0  0  0  0  0  0  0  0
   15.4510   34.9960   70.9200 C   0  0  0  0  0  0  0  0  0  0  0  0
   17.3900   35.0730   71.9980 H   0  0  0  0  0  0  0  0  0  0  0  0
   15.3820   36.2320   70.4400 C   0  0  0  0  0  3  0  0  0  0  0  0
   14.4820   33.9760   70.7320 N   0  0  0  0  0  0  0  0  0  0  0  0
   14.3960   36.9660   69.6150 C   0  0  0  0  0  2  0  0  0  0  0  0
   13.0080   36.4000   69.8010 C   0  0  0  0  0  2  0  0  0  0  0  0
   13.0010   35.0600   69.0890 C   0  0  0  0  0  2  0  0  0  0  0  0
   13.2310   33.9240   70.0380 C   0  0  0  0  0  2  0  0  0  0  0  0
   14.9950   32.8450   71.4280 C   0  0  0  0  0  0  0  0  0  0  0  0
   14.4010   31.7390   71.4860 O   0  0  0  0  0  0  0  0  0  0  0  0
   20.8360   35.1080   71.0020 S   0  0  0  0  0  0  0  0  0  0  0  0
   22.2670   34.6530   70.8740 O   0  0  0  0  0  0  0  0  0  0  0  0
   20.8050   36.0920   72.1480 O   0  0  0  0  0  0  0  0  0  0  0  0
   20.3840   35.9480   69.5690 C   0  0  0  0  0  0  0  0  0  0  0  0
   19.2530   36.6890   69.3950 C   0  0  0  0  0  3  0  0  0  0  0  0
   18.9820   37.3290   68.1940 C   0  0  0  0  0  0  0  0  0  0  0  0
   19.8360   37.2430   67.1350 C   0  0  0  0  0  3  0  0  0  0  0  0
   17.3810   38.3680   67.9710 Br  0  0  0  0  0  0  0  0  0  0  0  0
   20.9940   36.4960   67.2820 C   0  0  0  0  0  3  0  0  0  0  0  0
   21.2510   35.8680   68.4750 C   0  0  0  0  0  3  0  0  0  0  0  0
  1  6  1  0  0  0  0
  2  3  1  0  0  0  0
  2  1  1  0  0  0  0
  3  4  1  0  0  0  0
  4  7  1  0  0  0  0
  4  5  1  0  0  0  0
  6  5  1  0  0  0  0
  8  7  1  0  0  0  0
  9 11  1  0  0  0  0
  9  8  1  0  0  0  0
 10  9  1  0  0  0  0
 12 10  2  0  0  0  0
 13 10  1  0  0  0  0
 13 18  1  0  0  0  0
 14 15  1  0  0  0  0
 14 12  1  0  0  0  0
 16 15  1  0  0  0  0
 16 17  1  0  0  0  0
 17 13  1  0  0  0  0
 18 19  2  0  0  0  0
 18  8  1  0  0  0  0
 20  1  1  0  0  0  0
 20 22  2  0  0  0  0
 21 20  2  0  0  0  0
 23 20  1  0  0  0  0
 24 23  1  0  0  0  0
 25 24  2  0  0  0  0
 26 28  2  0  0  0  0
 26 25  1  0  0  0  0
 27 25  1  0  0  0  0
 28 29  1  0  0  0  0
 29 23  2  0  0  0  0
M  END
>  <Pose>
1

>  <Score>
-9.243

$$$$
