/Users/jonathanwahrer/Desktop/Msc/3_Semester/Drug_Design_Praktikum/waehrer_HTS_screening/HTS_experiment/out/docking_results/vina_output/4x21/1081_docked.pdbqt
 OpenBabel03212202063D

 27 30  0  0  0  0  0  0  0  0999 V2000
   19.7730   32.9250   71.8500 N   0  0  0  0  0  0  0  0  0  0  0  0
   20.0900   34.1090   72.5520 C   0  0  0  0  0  2  0  0  0  0  0  0
   20.1180   35.3770   71.7660 C   0  0  0  0  0  2  0  0  0  0  0  0
   19.8060   35.2210   70.3670 N   0  0  0  0  0  0  0  0  0  0  0  0
   20.2160   34.0360   69.6850 C   0  0  0  0  0  3  0  0  0  0  0  0
   20.2130   32.7990   70.5120 C   0  0  0  0  0  3  0  0  0  0  0  0
   19.0960   36.2920   69.7270 C   0  0  0  0  0  0  0  0  0  0  0  0
   19.5530   37.0410   68.7090 N   0  0  0  0  0  0  0  0  0  0  0  0
   18.5750   37.9160   68.4480 N   0  0  0  0  0  0  0  0  0  0  0  0
   17.5660   37.7130   69.2670 N   0  0  0  0  0  0  0  0  0  0  0  0
   17.8510   36.7140   70.0750 N   0  0  0  0  0  0  0  0  0  0  0  0
   20.8050   36.9140   68.0500 C   0  0  0  0  0  0  0  0  0  0  0  0
   21.9840   37.2260   68.6870 C   0  0  0  0  0  3  0  0  0  0  0  0
   23.1960   37.0910   68.0120 C   0  0  0  0  0  3  0  0  0  0  0  0
   23.2450   36.6470   66.7090 C   0  0  0  0  0  3  0  0  0  0  0  0
   22.0450   36.3290   66.0600 C   0  0  0  0  0  3  0  0  0  0  0  0
   20.8410   36.4710   66.7510 C   0  0  0  0  0  3  0  0  0  0  0  0
   18.2720   32.2020   72.1930 S   0  0  0  0  0  0  0  0  0  0  0  0
   18.0590   31.8480   73.6110 O   0  0  0  0  0  0  0  0  0  0  0  0
   18.1970   30.8970   71.4090 O   0  0  0  0  0  0  0  0  0  0  0  0
   16.9800   33.2160   71.6140 C   0  0  0  0  0  0  0  0  0  0  0  0
   16.4020   34.1990   72.3770 C   0  0  0  0  0  3  0  0  0  0  0  0
   15.3700   35.0060   71.9000 C   0  0  0  0  0  3  0  0  0  0  0  0
   14.9180   34.7930   70.5930 C   0  0  0  0  0  0  0  0  0  0  0  0
   15.4890   33.8090   69.8180 C   0  0  0  0  0  3  0  0  0  0  0  0
   13.5060   35.8650   69.8720 Br  0  0  0  0  0  0  0  0  0  0  0  0
   16.5000   33.0390   70.3230 C   0  0  0  0  0  3  0  0  0  0  0  0
  1 18  1  0  0  0  0
  1  2  1  0  0  0  0
  3  2  1  0  0  0  0
  4  3  1  0  0  0  0
  5  4  1  0  0  0  0
  5  6  2  0  0  0  0
  6  1  1  0  0  0  0
  7 11  2  0  0  0  0
  7  4  1  0  0  0  0
  8  7  1  0  0  0  0
  9  8  1  0  0  0  0
  9 10  2  0  0  0  0
 10 11  1  0  0  0  0
 12 13  1  0  0  0  0
 12  8  1  0  0  0  0
 14 13  2  0  0  0  0
 15 14  1  0  0  0  0
 16 15  2  0  0  0  0
 16 17  1  0  0  0  0
 17 12  2  0  0  0  0
 18 19  2  0  0  0  0
 20 18  2  0  0  0  0
 21 18  1  0  0  0  0
 21 22  1  0  0  0  0
 23 22  2  0  0  0  0
 24 23  1  0  0  0  0
 25 27  1  0  0  0  0
 25 24  2  0  0  0  0
 26 24  1  0  0  0  0
 27 21  2  0  0  0  0
M  END
>  <Pose>
1

>  <Score>
-8.073

$$$$
