/Users/jonathanwahrer/Desktop/Msc/3_Semester/Drug_Design_Praktikum/waehrer_HTS_screening/HTS_experiment/out/docking_results/vina_output/4x21/1084_docked.pdbqt
 OpenBabel03212202073D

 29 32  0  0  0  0  0  0  0  0999 V2000
   17.1990   30.7680   72.6340 N   0  0  0  0  0  0  0  0  0  0  0  0
   16.9540   30.6940   71.2330 C   0  0  0  0  0  2  0  0  0  0  0  0
   17.8930   31.5510   70.4120 C   0  0  0  0  0  2  0  0  0  0  0  0
   18.3300   32.6340   71.2440 N   0  0  0  0  0  0  0  0  0  0  0  0
   19.0870   32.3310   72.4240 C   0  0  0  0  0  2  0  0  0  0  0  0
   18.5750   31.0270   72.9840 C   0  0  0  0  0  2  0  0  0  0  0  0
   18.0190   33.9600   70.9000 C   0  0  0  0  0  0  0  0  0  0  0  0
   16.7560   34.4130   70.8260 N   0  0  0  0  0  0  0  0  0  0  0  0
   16.4000   35.6440   70.5080 C   0  0  0  0  0  0  0  0  0  0  0  0
   17.4080   36.5510   70.2270 C   0  0  0  0  0  3  0  0  0  0  0  0
   18.7190   36.1350   70.2910 C   0  0  0  0  0  0  0  0  0  0  0  0
   18.9930   34.8600   70.6230 N   0  0  0  0  0  0  0  0  0  0  0  0
   19.8310   37.0780   69.9960 C   0  0  0  0  0  1  0  0  0  0  0  0
   15.0290   35.9970   70.4640 N   0  0  0  0  0  0  0  0  0  0  0  0
   14.5100   37.0990   69.6810 C   0  0  0  0  0  2  0  0  0  0  0  0
   13.0340   36.7900   69.4350 C   0  0  0  0  0  2  0  0  0  0  0  0
   12.9490   35.4300   69.1280 O   0  0  0  0  0  0  0  0  0  0  0  0
   13.1070   34.6140   70.2240 C   0  0  0  0  0  2  0  0  0  0  0  0
   14.0830   35.2240   71.2360 C   0  0  0  0  0  2  0  0  0  0  0  0
   16.7760   29.2440   73.3350 S   0  0  0  0  0  0  0  0  0  0  0  0
   16.6850   28.2260   72.2100 O   0  0  0  0  0  0  0  0  0  0  0  0
   17.8720   28.8100   74.2640 O   0  0  0  0  0  0  0  0  0  0  0  0
   15.2370   29.3180   74.1440 C   0  0  0  0  0  0  0  0  0  0  0  0
   14.3670   30.3530   73.8260 C   0  0  0  0  0  3  0  0  0  0  0  0
   13.1330   30.4750   74.4260 C   0  0  0  0  0  3  0  0  0  0  0  0
   12.7390   29.5550   75.3660 C   0  0  0  0  0  0  0  0  0  0  0  0
   13.5770   28.5100   75.7100 C   0  0  0  0  0  3  0  0  0  0  0  0
   11.0280   29.7380   76.1850 Br  0  0  0  0  0  0  0  0  0  0  0  0
   14.8170   28.4140   75.0850 C   0  0  0  0  0  3  0  0  0  0  0  0
  1  6  1  0  0  0  0
  1 20  1  0  0  0  0
  2  1  1  0  0  0  0
  3  2  1  0  0  0  0
  3  4  1  0  0  0  0
  4  5  1  0  0  0  0
  5  6  1  0  0  0  0
  7  4  1  0  0  0  0
  8  7  2  0  0  0  0
  9  8  1  0  0  0  0
 10 11  1  0  0  0  0
 10  9  2  0  0  0  0
 11 12  2  0  0  0  0
 12  7  1  0  0  0  0
 13 11  1  0  0  0  0
 14  9  1  0  0  0  0
 14 19  1  0  0  0  0
 15 14  1  0  0  0  0
 16 15  1  0  0  0  0
 17 16  1  0  0  0  0
 17 18  1  0  0  0  0
 18 19  1  0  0  0  0
 20 23  1  0  0  0  0
 20 22  2  0  0  0  0
 21 20  2  0  0  0  0
 23 29  1  0  0  0  0
 24 23  2  0  0  0  0
 24 25  1  0  0  0  0
 25 26  2  0  0  0  0
 26 27  1  0  0  0  0
 26 28  1  0  0  0  0
 29 27  2  0  0  0  0
M  END
>  <Pose>
1

>  <Score>
-8.687

$$$$
