/Users/jonathanwahrer/Desktop/Msc/3_Semester/Drug_Design_Praktikum/waehrer_HTS_screening/HTS_experiment/out/docking_results/vina_output/4x21/1089_docked.pdbqt
 OpenBabel03212202073D

 25 28  0  0  0  0  0  0  0  0999 V2000
   19.5790   33.6320   71.5790 N   0  0  0  0  0  0  0  0  0  0  0  0
   19.0950   32.5770   70.7750 C   0  0  0  0  0  2  0  0  0  0  0  0
   17.5980   32.3880   70.7600 C   0  0  0  0  0  2  0  0  0  0  0  0
   16.9150   33.2750   71.6480 N   0  0  0  0  0  0  0  0  0  0  0  0
   17.5130   33.8080   72.8600 C   0  0  0  0  0  2  0  0  0  0  0  0
   19.0050   33.6450   72.8670 C   0  0  0  0  0  2  0  0  0  0  0  0
   15.5840   33.6810   71.3610 C   0  0  0  0  0  0  0  0  0  0  0  0
   14.5550   32.8060   71.5670 N   0  0  0  0  0  0  0  0  0  0  0  0
   13.2970   33.1690   71.3120 C   0  0  0  0  0  3  0  0  0  0  0  0
   12.9880   34.3800   70.8520 N   0  0  0  0  0  0  0  0  0  0  0  0
   13.9770   35.2470   70.6440 C   0  0  0  0  0  0  0  0  0  0  0  0
   13.9690   36.5050   70.1940 N   0  0  0  0  0  0  0  0  0  0  0  0
   15.3160   34.9380   70.8880 C   0  0  0  0  0  0  0  0  0  0  0  0
   15.2540   36.9580   70.1590 C   0  0  0  0  0  3  0  0  0  0  0  0
   16.0770   35.9990   70.5830 N   0  0  0  0  0  0  0  0  0  0  0  0
   17.1080   36.0840   70.6530 H   0  0  0  0  0  0  0  0  0  0  0  0
   19.9980   35.0820   70.8630 S   0  0  0  0  0  0  0  0  0  0  0  0
   20.7910   35.9090   71.8680 O   0  0  0  0  0  0  0  0  0  0  0  0
   18.8300   35.9110   70.4690 O   0  0  0  0  0  0  0  0  0  0  0  0
   21.0530   34.9360   69.4540 C   0  0  0  0  0  0  0  0  0  0  0  0
   22.3750   33.8920   69.1960 S   0  0  0  0  0  0  0  0  0  0  0  0
   22.8210   34.3850   67.6290 C   0  0  0  0  0  0  0  0  0  0  0  0
   21.9060   35.3700   67.3440 C   0  0  0  0  0  3  0  0  0  0  0  0
   24.2360   33.7430   66.5190 Br  0  0  0  0  0  0  0  0  0  0  0  0
   21.0000   35.6480   68.2880 C   0  0  0  0  0  3  0  0  0  0  0  0
  1  6  1  0  0  0  0
  2  1  1  0  0  0  0
  3  2  1  0  0  0  0
  3  4  1  0  0  0  0
  4  5  1  0  0  0  0
  5  6  1  0  0  0  0
  7  8  1  0  0  0  0
  7  4  1  0  0  0  0
  9  8  2  0  0  0  0
 10  9  1  0  0  0  0
 11 10  2  0  0  0  0
 11 13  1  0  0  0  0
 12 11  1  0  0  0  0
 13  7  2  0  0  0  0
 14 12  2  0  0  0  0
 14 15  1  0  0  0  0
 15 16  1  0  0  0  0
 15 13  1  0  0  0  0
 17  1  1  0  0  0  0
 17 18  2  0  0  0  0
 19 17  2  0  0  0  0
 20 17  1  0  0  0  0
 21 20  1  0  0  0  0
 22 21  1  0  0  0  0
 23 22  2  0  0  0  0
 23 25  1  0  0  0  0
 24 22  1  0  0  0  0
 25 20  2  0  0  0  0
M  END
>  <Pose>
1

>  <Score>
-7.727

$$$$
