/Users/jonathanwahrer/Desktop/Msc/3_Semester/Drug_Design_Praktikum/waehrer_HTS_screening/HTS_experiment/out/docking_results/vina_output/4x21/1105_docked.pdbqt
 OpenBabel03212202073D

 33 36  0  0  1  0  0  0  0  0999 V2000
   23.2930   34.1940   68.0610 N   0  0  0  0  0  0  0  0  0  0  0  0
   23.8040   34.0040   66.7450 C   0  0  0  0  0  2  0  0  0  0  0  0
   24.1770   35.2780   66.0210 C   0  0  0  0  0  2  0  0  0  0  0  0
   24.9390   36.1700   66.8990 N   0  0  0  0  0  0  0  0  0  0  0  0
   24.3440   36.3180   68.2090 C   0  0  0  0  0  0  0  0  0  0  0  0
   24.8630   36.9940   69.1000 O   0  0  0  0  0  0  0  0  0  0  0  0
   23.0530   35.5630   68.3370 C   0  0  2  0  0  3  0  0  0  0  0  0
   25.8010   36.6530   66.6480 H   0  0  0  0  0  0  0  0  0  0  0  0
   22.3110   35.8980   69.5690 C   0  0  0  0  0  2  0  0  0  0  0  0
   21.1710   36.7860   69.2360 C   0  0  0  0  0  0  0  0  0  0  0  0
   21.4570   37.9030   68.7280 O   0  0  0  0  0  0  0  0  0  0  0  0
   19.8170   36.4010   69.4780 N   0  0  0  0  0  0  0  0  0  0  0  0
   19.5040   35.1240   70.0590 C   0  0  0  0  0  2  0  0  0  0  0  0
   18.7610   37.3150   69.1290 C   0  0  0  0  0  2  0  0  0  0  0  0
   18.2480   35.1120   70.8730 C   0  0  0  0  0  2  0  0  0  0  0  0
   17.2340   36.0410   70.4060 N   0  0  0  0  0  0  0  0  0  0  0  0
   17.7080   37.4030   70.2140 C   0  0  0  0  0  2  0  0  0  0  0  0
   15.8910   35.7230   70.1590 C   0  0  0  0  0  0  0  0  0  0  0  0
   15.5000   34.4030   70.1480 C   0  0  0  0  0  3  0  0  0  0  0  0
   14.1740   34.0910   69.8890 C   0  0  0  0  0  3  0  0  0  0  0  0
   13.2210   35.0470   69.6390 C   0  0  0  0  0  3  0  0  0  0  0  0
   13.6170   36.3640   69.6500 C   0  0  0  0  0  3  0  0  0  0  0  0
   14.9420   36.6840   69.9090 C   0  0  0  0  0  3  0  0  0  0  0  0
   24.2580   33.3630   69.1860 S   0  0  0  0  0  0  0  0  0  0  0  0
   25.1860   34.2400   69.9650 O   0  0  0  0  0  0  0  0  0  0  0  0
   25.1380   32.3350   68.4850 O   0  0  0  0  0  0  0  0  0  0  0  0
   23.2850   32.4500   70.3260 C   0  0  0  0  0  0  0  0  0  0  0  0
   21.8960   32.5030   70.3310 C   0  0  0  0  0  3  0  0  0  0  0  0
   21.1190   31.8040   71.2100 C   0  0  0  0  0  3  0  0  0  0  0  0
   21.7010   30.9960   72.1510 C   0  0  0  0  0  0  0  0  0  0  0  0
   23.0990   30.9160   72.1760 C   0  0  0  0  0  3  0  0  0  0  0  0
   20.6720   29.9970   73.4020 Br  0  0  0  0  0  0  0  0  0  0  0  0
   23.8500   31.6340   71.2770 C   0  0  0  0  0  3  0  0  0  0  0  0
  1  7  1  0  0  0  0
  1 24  1  0  0  0  0
  2  1  1  0  0  0  0
  3  2  1  0  0  0  0
  3  4  1  0  0  0  0
  4  5  1  0  0  0  0
  5  7  1  0  0  0  0
  5  6  2  0  0  0  0
  7  9  1  1  0  0  0
  8  4  1  0  0  0  0
 10 12  1  0  0  0  0
 10  9  1  0  0  0  0
 11 10  2  0  0  0  0
 12 13  1  0  0  0  0
 13 15  1  0  0  0  0
 14 12  1  0  0  0  0
 14 17  1  0  0  0  0
 16 15  1  0  0  0  0
 17 16  1  0  0  0  0
 18 16  1  0  0  0  0
 19 18  1  0  0  0  0
 20 19  2  0  0  0  0
 21 22  2  0  0  0  0
 21 20  1  0  0  0  0
 22 23  1  0  0  0  0
 23 18  2  0  0  0  0
 24 25  2  0  0  0  0
 24 27  1  0  0  0  0
 26 24  2  0  0  0  0
 27 28  2  0  0  0  0
 27 33  1  0  0  0  0
 28 29  1  0  0  0  0
 29 30  2  0  0  0  0
 30 31  1  0  0  0  0
 30 32  1  0  0  0  0
 33 31  2  0  0  0  0
M  END
>  <Pose>
1

>  <Score>
-8.887

$$$$
