/Users/jonathanwahrer/Desktop/Msc/3_Semester/Drug_Design_Praktikum/waehrer_HTS_screening/HTS_experiment/out/docking_results/vina_output/4x21/1133_docked.pdbqt
 OpenBabel03212202093D

 35 38  0  0  1  0  0  0  0  0999 V2000
   15.9870   35.9960   70.5940 C   0  0  0  0  0  0  0  0  0  0  0  0
   16.3770   34.8740   71.2000 N   0  0  0  0  0  0  0  0  0  0  0  0
   15.2810   34.0750   71.2870 C   0  0  0  0  0  0  0  0  0  0  0  0
   14.9640   32.8860   71.8240 N   0  0  0  0  0  0  0  0  0  0  0  0
   13.7490   32.3280   71.8300 C   0  0  0  0  0  0  0  0  0  0  0  0
   12.7150   33.0270   71.2210 N   0  0  0  0  0  0  0  0  0  0  0  0
   12.9300   34.1960   70.6710 C   0  0  0  0  0  0  0  0  0  0  0  0
   14.1910   34.7580   70.6830 C   0  0  0  0  0  0  0  0  0  0  0  0
   14.6840   35.9240   70.2840 N   0  0  0  0  0  0  0  0  0  0  0  0
   17.6630   34.4660   71.6650 C   0  0  2  0  0  3  0  0  0  0  0  0
   18.5100   33.9680   70.6500 O   0  0  0  0  0  0  0  0  0  0  0  0
   19.5740   33.5040   71.4580 C   0  0  1  0  0  3  0  0  0  0  0  0
   18.7600   32.5000   72.3150 C   0  0  2  0  0  3  0  0  0  0  0  0
   17.6880   33.4870   72.7950 C   0  0  1  0  0  3  0  0  0  0  0  0
   20.6350   32.8380   70.6670 C   0  0  0  0  0  2  0  0  0  0  0  0
   20.2700   31.5220   70.3580 O   0  0  0  0  0  0  0  0  0  0  0  0
   20.0710   31.4960   69.3720 H   0  0  0  0  0  0  0  0  0  0  0  0
   19.4960   31.9670   73.3390 O   0  0  0  0  0  0  0  0  0  0  0  0
   19.5810   30.9900   73.2250 H   0  0  0  0  0  0  0  0  0  0  0  0
   18.1890   34.0820   73.9810 O   0  0  0  0  0  0  0  0  0  0  0  0
   17.4180   34.0830   74.5920 H   0  0  0  0  0  0  0  0  0  0  0  0
   17.0020   37.4510   70.3060 S   0  0  0  0  0  0  0  0  0  0  0  0
   18.0340   37.2260   68.7920 C   0  0  0  0  0  2  0  0  0  0  0  0
   19.4670   37.2220   69.1650 C   0  0  0  0  0  0  0  0  0  0  0  0
   20.5020   37.1690   68.2640 C   0  0  0  0  0  0  0  0  0  0  0  0
   21.7900   37.0300   68.6490 C   0  0  0  0  0  3  0  0  0  0  0  0
   20.0230   37.4420   66.4320 Br  0  0  0  0  0  0  0  0  0  0  0  0
   22.1410   36.9400   69.9910 C   0  0  0  0  0  3  0  0  0  0  0  0
   21.1090   36.9870   70.9390 C   0  0  0  0  0  3  0  0  0  0  0  0
   19.7960   37.1260   70.5310 C   0  0  0  0  0  3  0  0  0  0  0  0
   13.4190   31.0780   72.4530 N   0  0  0  0  0  0  0  0  0  0  0  0
   12.6510   30.4550   72.2100 H   0  0  0  0  0  0  0  0  0  0  0  0
   14.0270   30.7820   73.2940 H   0  0  0  0  0  0  0  0  0  0  0  0
   11.9470   34.9230   70.0480 O   0  0  0  0  0  0  0  0  0  0  0  0
   11.1330   35.2950   70.5250 H   0  0  0  0  0  0  0  0  0  0  0  0
  1  2  1  0  0  0  0
  2  3  1  0  0  0  0
  3  4  1  0  0  0  0
  4  5  2  0  0  0  0
  5 31  1  0  0  0  0
  6  5  1  0  0  0  0
  7  8  1  0  0  0  0
  7  6  2  0  0  0  0
  8  3  2  0  0  0  0
  9  1  2  0  0  0  0
  9  8  1  0  0  0  0
 10  2  1  6  0  0  0
 10 14  1  0  0  0  0
 11 12  1  0  0  0  0
 11 10  1  0  0  0  0
 12 15  1  6  0  0  0
 12 13  1  0  0  0  0
 13 14  1  0  0  0  0
 13 18  1  1  0  0  0
 14 20  1  1  0  0  0
 16 15  1  0  0  0  0
 17 16  1  0  0  0  0
 19 18  1  0  0  0  0
 20 21  1  0  0  0  0
 22  1  1  0  0  0  0
 23 24  1  0  0  0  0
 23 22  1  0  0  0  0
 24 30  1  0  0  0  0
 25 26  1  0  0  0  0
 25 24  2  0  0  0  0
 26 28  2  0  0  0  0
 27 25  1  0  0  0  0
 28 29  1  0  0  0  0
 30 29  2  0  0  0  0
 31 33  1  0  0  0  0
 32 31  1  0  0  0  0
 34 35  1  0  0  0  0
 34  7  1  0  0  0  0
M  END
>  <Pose>
1

>  <Score>
-8.254

$$$$
