/Users/jonathanwahrer/Desktop/Msc/3_Semester/Drug_Design_Praktikum/waehrer_HTS_screening/HTS_experiment/out/docking_results/vina_output/4x21/1143_docked.pdbqt
 OpenBabel03212202093D

 33 37  0  0  1  0  0  0  0  0999 V2000
   18.6560   27.2710   75.1830 C   0  0  1  0  0  3  0  0  0  0  0  0
   19.0020   26.5890   76.4220 N   0  0  0  0  0  4  0  0  0  0  0  0
   19.3390   27.5610   77.4480 C   0  0  0  0  0  2  0  0  0  0  0  0
   19.5630   28.9560   76.9260 C   0  0  0  0  0  2  0  0  0  0  0  0
   20.3670   28.8550   75.6560 C   0  0  0  0  0  0  0  0  0  0  0  0
   19.8730   27.9150   74.7210 C   0  0  0  0  0  0  0  0  0  0  0  0
   20.5430   27.7270   73.5440 C   0  0  0  0  0  0  0  0  0  0  0  0
   21.6910   28.4840   73.3210 C   0  0  0  0  0  0  0  0  0  0  0  0
   22.1500   29.3940   74.2450 C   0  0  0  0  0  0  0  0  0  0  0  0
   21.4850   29.5940   75.4400 C   0  0  0  0  0  3  0  0  0  0  0  0
   23.2930   29.9830   73.7450 O   0  0  0  0  0  0  0  0  0  0  0  0
   23.7280   29.2460   72.6290 C   0  0  0  0  0  2  0  0  0  0  0  0
   22.5560   28.5200   72.2610 O   0  0  0  0  0  0  0  0  0  0  0  0
   20.0730   25.6590   76.3130 C   0  0  0  0  0  1  0  0  0  0  0  0
   18.1460   26.0880   76.7360 H   0  0  0  0  0  0  0  0  0  0  0  0
   17.7970   26.4780   74.3130 C   0  0  1  0  0  3  0  0  0  0  0  0
   16.7740   25.8200   75.2630 C   0  0  0  0  0  0  0  0  0  0  0  0
   15.9230   26.7460   75.9200 N   0  0  0  0  0  2  0  0  0  0  0  0
   16.7220   24.5970   75.4190 O   0  0  0  0  0  0  0  0  0  0  0  0
   15.5230   27.8650   75.4370 C   0  0  0  0  0  0  0  0  0  0  0  0
   14.4480   28.9700   76.3390 S   0  0  0  0  0  0  0  0  0  0  0  0
   16.0120   28.1720   74.1110 N   0  0  0  0  0  0  0  0  0  0  0  0
   16.8720   27.2620   73.4400 C   0  0  0  0  0  0  0  0  0  0  0  0
   16.7900   27.1880   72.2130 O   0  0  0  0  0  0  0  0  0  0  0  0
   15.6410   29.3610   73.4750 C   0  0  0  0  0  0  0  0  0  0  0  0
   16.6040   30.3740   73.3850 C   0  0  0  0  0  3  0  0  0  0  0  0
   16.3130   31.5730   72.7720 C   0  0  0  0  0  3  0  0  0  0  0  0
   15.0440   31.7760   72.2390 C   0  0  0  0  0  0  0  0  0  0  0  0
   14.0880   30.7560   72.3340 C   0  0  0  0  0  3  0  0  0  0  0  0
   14.6040   33.4040   71.3920 Br  0  0  0  0  0  0  0  0  0  0  0  0
   14.3960   29.5660   72.9490 C   0  0  0  0  0  3  0  0  0  0  0  0
   20.1090   26.8120   72.5950 O   0  0  0  0  0  0  0  0  0  0  0  0
   20.7630   25.5510   72.5080 C   0  0  0  0  0  1  0  0  0  0  0  0
  1  6  1  6  0  0  0
  1  2  1  0  0  0  0
  2 15  1  0  0  0  0
  2  3  1  0  0  0  0
  4  3  1  0  0  0  0
  5  4  1  0  0  0  0
  6  5  2  0  0  0  0
  7  6  1  0  0  0  0
  8  7  2  0  0  0  0
  8  9  1  0  0  0  0
  9 10  2  0  0  0  0
 10  5  1  0  0  0  0
 11  9  1  0  0  0  0
 12 11  1  0  0  0  0
 13 12  1  0  0  0  0
 13  8  1  0  0  0  0
 14  2  1  0  0  0  0
 16 23  1  6  0  0  0
 16  1  1  0  0  0  0
 16 17  1  0  0  0  0
 17 19  2  0  0  0  0
 17 18  1  0  0  0  0
 20 18  1  0  0  0  0
 20 21  2  0  0  0  0
 22 20  1  0  0  0  0
 23 22  1  0  0  0  0
 24 23  2  0  0  0  0
 25 22  1  0  0  0  0
 26 25  1  0  0  0  0
 27 26  2  0  0  0  0
 28 29  2  0  0  0  0
 28 27  1  0  0  0  0
 29 31  1  0  0  0  0
 30 28  1  0  0  0  0
 31 25  2  0  0  0  0
 32  7  1  0  0  0  0
 33 32  1  0  0  0  0
M  END
>  <Pose>
1

>  <Score>
-5.705

$$$$
