/Users/jonathanwahrer/Desktop/Msc/3_Semester/Drug_Design_Praktikum/waehrer_HTS_screening/HTS_experiment/out/docking_results/vina_output/4x21/1151_docked.pdbqt
 OpenBabel03212202103D

 24 27  0  0  1  0  0  0  0  0999 V2000
   24.1790   36.5810   68.6960 S   0  0  0  0  0  0  0  0  0  0  0  0
   25.2900   37.5760   68.5230 O   0  0  0  0  0  0  0  0  0  0  0  0
   24.7020   35.2170   69.0500 O   0  0  0  0  0  0  0  0  0  0  0  0
   23.0090   37.1220   69.9240 C   0  0  0  0  0  2  0  0  0  0  0  0
   21.6960   36.4580   69.5660 C   0  0  2  0  0  3  0  0  0  0  0  0
   21.1860   37.0590   68.3510 N   0  0  0  0  0  0  0  0  0  0  0  0
   22.0880   37.4510   67.2880 C   0  0  0  0  0  2  0  0  0  0  0  0
   23.2270   36.4350   67.1770 C   0  0  0  0  0  2  0  0  0  0  0  0
   19.7770   37.1210   68.5290 C   0  0  0  0  0  0  0  0  0  0  0  0
   18.9130   37.3480   67.6150 O   0  0  0  0  0  0  0  0  0  0  0  0
   19.4320   36.8900   69.8890 N   0  0  0  0  0  0  0  0  0  0  0  0
   20.6560   36.6800   70.5760 C   0  0  0  0  0  0  0  0  0  0  0  0
   20.8380   36.6810   71.8300 O   0  0  0  0  0  0  0  0  0  0  0  0
   18.1050   36.8670   70.4860 C   0  0  1  0  0  3  0  0  0  0  0  0
   17.1190   37.6820   69.6670 C   0  0  0  0  0  2  0  0  0  0  0  0
   15.8040   37.6560   70.4490 C   0  0  0  0  0  2  0  0  0  0  0  0
   15.3510   36.3150   70.4100 O   0  0  0  0  0  0  0  0  0  0  0  0
   16.2500   35.2590   70.5050 C   0  0  0  0  0  0  0  0  0  0  0  0
   17.5970   35.4830   70.5440 C   0  0  0  0  0  0  0  0  0  0  0  0
   15.7140   33.9810   70.5550 C   0  0  0  0  0  0  0  0  0  0  0  0
   18.4820   34.4450   70.6370 C   0  0  0  0  0  3  0  0  0  0  0  0
   17.9900   33.1630   70.6890 C   0  0  0  0  0  3  0  0  0  0  0  0
   16.6350   32.9530   70.6500 C   0  0  0  0  0  3  0  0  0  0  0  0
   13.8390   33.6760   70.5000 Br  0  0  0  0  0  0  0  0  0  0  0  0
  1  3  2  0  0  0  0
  1  4  1  0  0  0  0
  2  1  2  0  0  0  0
  5  4  1  1  0  0  0
  5 12  1  0  0  0  0
  6  9  1  0  0  0  0
  6  5  1  0  0  0  0
  7  6  1  0  0  0  0
  8  7  1  0  0  0  0
  8  1  1  0  0  0  0
  9 11  1  0  0  0  0
 10  9  2  0  0  0  0
 11 14  1  0  0  0  0
 11 12  1  0  0  0  0
 12 13  2  0  0  0  0
 14 15  1  6  0  0  0
 14 19  1  0  0  0  0
 15 16  1  0  0  0  0
 17 16  1  0  0  0  0
 17 18  1  0  0  0  0
 18 19  2  0  0  0  0
 18 20  1  0  0  0  0
 19 21  1  0  0  0  0
 20 23  2  0  0  0  0
 21 22  2  0  0  0  0
 23 22  1  0  0  0  0
 24 20  1  0  0  0  0
M  END
>  <Pose>
1

>  <Score>
-8.566

$$$$
