/Users/jonathanwahrer/Desktop/Msc/3_Semester/Drug_Design_Praktikum/waehrer_HTS_screening/HTS_experiment/out/docking_results/vina_output/4x21/1161_docked.pdbqt
 OpenBabel03212202103D

 29 32  0  0  0  0  0  0  0  0999 V2000
   17.6180   32.2020   70.6880 N   0  0  0  0  0  0  0  0  0  0  0  0
   17.0470   33.4310   70.7020 C   0  0  0  0  0  0  0  0  0  0  0  0
   18.0160   34.3880   70.6820 C   0  0  0  0  0  0  0  0  0  0  0  0
   17.6770   35.7290   70.6880 C   0  0  0  0  0  3  0  0  0  0  0  0
   16.3470   36.0820   70.7150 C   0  0  0  0  0  3  0  0  0  0  0  0
   15.3530   35.1370   70.7350 C   0  0  0  0  0  3  0  0  0  0  0  0
   15.7250   33.8110   70.7280 C   0  0  0  0  0  3  0  0  0  0  0  0
   19.1880   33.7460   70.6590 N   0  0  0  0  0  0  0  0  0  0  0  0
   18.9380   32.4050   70.6630 C   0  0  0  0  0  0  0  0  0  0  0  0
   16.8820   30.9630   70.7010 C   0  0  0  0  0  2  0  0  0  0  0  0
   16.9060   30.3180   72.0370 C   0  0  0  0  0  0  0  0  0  0  0  0
   17.9550   29.7930   72.4850 O   0  0  0  0  0  0  0  0  0  0  0  0
   15.7150   30.2620   72.8920 C   0  0  0  0  0  0  0  0  0  0  0  0
   15.2920   29.1430   74.1170 S   0  0  0  0  0  0  0  0  0  0  0  0
   13.7870   29.7830   74.5800 C   0  0  0  0  0  0  0  0  0  0  0  0
   13.6530   30.8670   73.7570 C   0  0  0  0  0  3  0  0  0  0  0  0
   12.6030   29.1290   75.9250 Br  0  0  0  0  0  0  0  0  0  0  0  0
   14.6390   31.1140   72.8920 C   0  0  0  0  0  3  0  0  0  0  0  0
   19.9070   31.5670   70.6560 N   0  0  0  0  0  0  0  0  0  0  0  0
   20.9050   31.7430   70.5610 H   0  0  0  0  0  0  0  0  0  0  0  0
   20.4890   34.3980   70.6190 C   0  0  0  0  0  2  0  0  0  0  0  0
   20.7840   34.7890   69.1630 C   0  0  0  0  0  2  0  0  0  0  0  0
   21.7040   35.8870   69.0770 N   0  0  0  0  0  4  0  0  0  0  0  0
   22.4130   35.9660   67.8160 C   0  0  0  0  0  2  0  0  0  0  0  0
   21.4780   35.9280   66.6410 C   0  0  0  0  0  2  0  0  0  0  0  0
   20.3260   36.8670   66.7710 C   0  0  0  0  0  2  0  0  0  0  0  0
   19.9050   37.1920   68.1600 C   0  0  0  0  0  2  0  0  0  0  0  0
   20.9610   37.1170   69.2050 C   0  0  0  0  0  2  0  0  0  0  0  0
   22.4390   35.8050   69.8130 H   0  0  0  0  0  0  0  0  0  0  0  0
  1 10  1  0  0  0  0
  1  2  1  0  0  0  0
  2  7  1  0  0  0  0
  3  4  1  0  0  0  0
  3  2  2  0  0  0  0
  4  5  2  0  0  0  0
  5  6  1  0  0  0  0
  7  6  2  0  0  0  0
  8  9  1  0  0  0  0
  8  3  1  0  0  0  0
  9  1  1  0  0  0  0
 10 11  1  0  0  0  0
 11 12  2  0  0  0  0
 11 13  1  0  0  0  0
 13 18  2  0  0  0  0
 13 14  1  0  0  0  0
 14 15  1  0  0  0  0
 15 17  1  0  0  0  0
 16 15  2  0  0  0  0
 18 16  1  0  0  0  0
 19  9  2  0  0  0  0
 20 19  1  0  0  0  0
 21  8  1  0  0  0  0
 22 21  1  0  0  0  0
 23 22  1  0  0  0  0
 23 28  1  0  0  0  0
 23 29  1  0  0  0  0
 24 23  1  0  0  0  0
 25 26  1  0  0  0  0
 25 24  1  0  0  0  0
 26 27  1  0  0  0  0
 27 28  1  0  0  0  0
M  END
>  <Pose>
1

>  <Score>
-7.656

$$$$
