/Users/jonathanwahrer/Desktop/Msc/3_Semester/Drug_Design_Praktikum/waehrer_HTS_screening/HTS_experiment/out/docking_results/vina_output/4x21/1177_docked.pdbqt
 OpenBabel03212202113D

 33 36  0  0  1  0  0  0  0  0999 V2000
   15.4340   35.9430   70.1030 C   0  0  2  0  0  3  0  0  0  0  0  0
   15.5750   34.4580   70.2650 C   0  0  2  0  0  3  0  0  0  0  0  0
   14.2470   34.0210   70.5660 N   0  0  0  0  0  0  0  0  0  0  0  0
   13.3930   34.9110   69.7960 C   0  0  0  0  0  0  0  0  0  0  0  0
   12.2100   34.6150   69.4730 O   0  0  0  0  0  0  0  0  0  0  0  0
   14.1240   36.1280   69.4920 C   0  0  0  0  0  0  0  0  0  0  0  0
   13.7120   37.1390   68.8310 O   0  0  0  0  0  0  0  0  0  0  0  0
   13.7600   32.9330   71.3620 C   0  0  0  0  0  2  0  0  0  0  0  0
   13.6400   31.6120   70.6750 C   0  0  0  0  0  2  0  0  0  0  0  0
   14.0640   30.4710   71.6120 C   0  0  0  0  0  2  0  0  0  0  0  0
   15.2110   30.8950   72.3410 N   0  0  0  0  0  4  0  0  0  0  0  0
   15.1340   30.7880   73.7630 C   0  0  0  0  0  2  0  0  0  0  0  0
   15.2810   29.3720   74.2690 C   0  0  0  0  0  2  0  0  0  0  0  0
   15.3950   28.5430   73.1300 O   0  0  0  0  0  0  0  0  0  0  0  0
   16.6320   28.8940   72.5540 C   0  0  0  0  0  2  0  0  0  0  0  0
   16.4250   30.2400   71.8910 C   0  0  0  0  0  2  0  0  0  0  0  0
   15.3520   31.9270   72.1230 H   0  0  0  0  0  0  0  0  0  0  0  0
   16.6270   34.1100   71.2110 C   0  0  0  0  0  0  0  0  0  0  0  0
   17.7730   33.4720   70.7100 C   0  0  0  0  0  3  0  0  0  0  0  0
   18.8400   33.1170   71.4960 C   0  0  0  0  0  0  0  0  0  0  0  0
   18.8100   33.3900   72.8410 C   0  0  0  0  0  3  0  0  0  0  0  0
   20.3860   32.2480   70.7870 Br  0  0  0  0  0  0  0  0  0  0  0  0
   17.6960   34.0210   73.3720 C   0  0  0  0  0  3  0  0  0  0  0  0
   16.6420   34.3630   72.5520 C   0  0  0  0  0  3  0  0  0  0  0  0
   16.3120   36.8860   70.3870 C   0  0  1  0  0  3  0  0  0  0  0  0
   16.0370   37.7790   71.4470 O   0  0  0  0  0  1  0  0  0  0  0  0
   17.5540   37.0140   69.6270 C   0  0  0  0  0  0  0  0  0  0  0  0
   19.1080   36.4850   70.1110 S   0  0  0  0  0  0  0  0  0  0  0  0
   20.0020   37.0320   68.7650 C   0  0  0  0  0  0  0  0  0  0  0  0
   19.0680   37.5910   68.0190 N   0  0  0  0  0  0  0  0  0  0  0  0
   21.4830   36.9110   68.4940 C   0  0  0  0  0  1  0  0  0  0  0  0
   17.8310   37.6010   68.4200 C   0  0  0  0  0  0  0  0  0  0  0  0
   16.7650   38.2850   67.5740 C   0  0  0  0  0  1  0  0  0  0  0  0
  1  2  1  0  0  0  0
  1 25  1  6  0  0  0
  2  3  1  0  0  0  0
  2 18  1  1  0  0  0
  3  8  1  0  0  0  0
  4  3  1  0  0  0  0
  5  4  2  0  0  0  0
  6  4  1  0  0  0  0
  6  1  1  0  0  0  0
  7  6  2  0  0  0  0
  9  8  1  0  0  0  0
  9 10  1  0  0  0  0
 10 11  1  0  0  0  0
 11 12  1  0  0  0  0
 12 13  1  0  0  0  0
 14 13  1  0  0  0  0
 15 14  1  0  0  0  0
 16 11  1  0  0  0  0
 16 15  1  0  0  0  0
 17 11  1  0  0  0  0
 18 24  1  0  0  0  0
 19 18  2  0  0  0  0
 19 20  1  0  0  0  0
 20 21  2  0  0  0  0
 21 23  1  0  0  0  0
 22 20  1  0  0  0  0
 24 23  2  0  0  0  0
 25 26  1  1  0  0  0
 27 28  1  0  0  0  0
 27 25  1  0  0  0  0
 29 28  1  0  0  0  0
 30 32  1  0  0  0  0
 30 29  2  0  0  0  0
 31 29  1  0  0  0  0
 32 27  2  0  0  0  0
 33 32  1  0  0  0  0
M  END
>  <Pose>
1

>  <Score>
-8.457

$$$$
