/Users/jonathanwahrer/Desktop/Msc/3_Semester/Drug_Design_Praktikum/waehrer_HTS_screening/HTS_experiment/out/docking_results/vina_output/4x21/1178_docked.pdbqt
 OpenBabel03212202113D

 33 36  0  0  1  0  0  0  0  0999 V2000
   17.6520   31.2220   72.5890 C   0  0  1  0  0  3  0  0  0  0  0  0
   17.7040   32.6840   72.9070 C   0  0  1  0  0  3  0  0  0  0  0  0
   19.0970   32.9950   72.7270 N   0  0  0  0  0  0  0  0  0  0  0  0
   19.8060   31.8270   73.1640 C   0  0  0  0  0  0  0  0  0  0  0  0
   20.9890   31.7900   73.5470 O   0  0  0  0  0  0  0  0  0  0  0  0
   18.9100   30.6820   73.0890 C   0  0  0  0  0  0  0  0  0  0  0  0
   19.0940   29.4670   73.3750 O   0  0  0  0  0  0  0  0  0  0  0  0
   19.6130   34.2370   72.2330 C   0  0  0  0  0  2  0  0  0  0  0  0
   20.4750   34.1400   71.0450 C   0  0  0  0  0  2  0  0  0  0  0  0
   20.2250   35.0280   69.9390 C   0  0  0  0  0  2  0  0  0  0  0  0
   20.5140   36.3760   69.8040 N   0  0  0  0  0  4  0  0  0  0  0  0
   19.3190   37.2180   70.1860 C   0  0  0  0  0  2  0  0  0  0  0  0
   18.3560   37.2440   69.0450 C   0  0  0  0  0  2  0  0  0  0  0  0
   18.9510   37.9690   68.0190 O   0  0  0  0  0  0  0  0  0  0  0  0
   19.9910   37.1450   67.5350 C   0  0  0  0  0  2  0  0  0  0  0  0
   21.0310   36.9200   68.5970 C   0  0  0  0  0  2  0  0  0  0  0  0
   21.1870   36.6720   70.5520 H   0  0  0  0  0  0  0  0  0  0  0  0
   16.7650   33.4400   72.0650 C   0  0  0  0  0  0  0  0  0  0  0  0
   16.7920   33.5390   70.7010 C   0  0  0  0  0  3  0  0  0  0  0  0
   15.8940   34.2620   69.9480 C   0  0  0  0  0  3  0  0  0  0  0  0
   14.8930   34.9410   70.5960 C   0  0  0  0  0  0  0  0  0  0  0  0
   14.8140   34.8810   71.9630 C   0  0  0  0  0  3  0  0  0  0  0  0
   13.6440   35.9460   69.5460 Br  0  0  0  0  0  0  0  0  0  0  0  0
   15.7270   34.1480   72.6840 C   0  0  0  0  0  3  0  0  0  0  0  0
   16.6520   30.6110   72.0270 C   0  0  2  0  0  3  0  0  0  0  0  0
   16.7730   30.1690   70.6990 O   0  0  0  0  0  1  0  0  0  0  0  0
   15.3940   30.3790   72.7710 C   0  0  0  0  0  0  0  0  0  0  0  0
   15.1650   29.7310   74.3410 S   0  0  0  0  0  0  0  0  0  0  0  0
   13.4710   29.8770   74.4370 C   0  0  0  0  0  0  0  0  0  0  0  0
   13.1640   30.4110   73.2730 N   0  0  0  0  0  0  0  0  0  0  0  0
   12.5270   29.5030   75.5480 C   0  0  0  0  0  1  0  0  0  0  0  0
   14.1010   30.6760   72.4140 C   0  0  0  0  0  0  0  0  0  0  0  0
   13.7880   31.3360   71.0740 C   0  0  0  0  0  1  0  0  0  0  0  0
  1 25  1  1  0  0  0
  1  2  1  0  0  0  0
  1  6  1  0  0  0  0
  2 18  1  6  0  0  0
  3  2  1  0  0  0  0
  3  4  1  0  0  0  0
  4  5  2  0  0  0  0
  6  4  1  0  0  0  0
  6  7  2  0  0  0  0
  8  3  1  0  0  0  0
  9  8  1  0  0  0  0
 10  9  1  0  0  0  0
 11 10  1  0  0  0  0
 11 12  1  0  0  0  0
 11 17  1  0  0  0  0
 13 12  1  0  0  0  0
 14 13  1  0  0  0  0
 15 14  1  0  0  0  0
 15 16  1  0  0  0  0
 16 11  1  0  0  0  0
 18 24  1  0  0  0  0
 19 18  2  0  0  0  0
 20 21  2  0  0  0  0
 20 19  1  0  0  0  0
 21 22  1  0  0  0  0
 22 24  2  0  0  0  0
 23 21  1  0  0  0  0
 25 26  1  6  0  0  0
 25 27  1  0  0  0  0
 27 28  1  0  0  0  0
 28 29  1  0  0  0  0
 29 31  1  0  0  0  0
 30 29  2  0  0  0  0
 32 27  2  0  0  0  0
 32 30  1  0  0  0  0
 33 32  1  0  0  0  0
M  END
>  <Pose>
1

>  <Score>
-7.872

$$$$
