/Users/jonathanwahrer/Desktop/Msc/3_Semester/Drug_Design_Praktikum/waehrer_HTS_screening/HTS_experiment/out/docking_results/vina_output/4x21/1180_docked.pdbqt
 OpenBabel03212202123D

 32 35  0  0  1  0  0  0  0  0999 V2000
   20.4600   33.4290   71.4290 C   0  0  1  0  0  3  0  0  0  0  0  0
   19.2930   32.4960   71.4540 C   0  0  1  0  0  3  0  0  0  0  0  0
   19.7580   31.5100   72.3510 N   0  0  0  0  0  0  0  0  0  0  0  0
   21.1190   31.2400   71.8330 C   0  0  0  0  0  0  0  0  0  0  0  0
   21.7540   30.1540   71.8980 O   0  0  0  0  0  0  0  0  0  0  0  0
   21.5680   32.4940   71.2360 C   0  0  0  0  0  0  0  0  0  0  0  0
   22.6620   32.7820   70.6590 O   0  0  0  0  0  0  0  0  0  0  0  0
   20.4790   34.7430   71.5100 C   0  0  2  0  0  3  0  0  0  0  0  0
   20.4880   35.3600   72.7480 O   0  0  0  0  0  1  0  0  0  0  0  0
   20.4890   35.4890   70.2430 C   0  0  0  0  0  0  0  0  0  0  0  0
   21.6850   35.4980   69.0030 S   0  0  0  0  0  0  0  0  0  0  0  0
   20.9160   36.5420   67.9020 C   0  0  0  0  0  0  0  0  0  0  0  0
   19.7920   36.8310   68.5270 N   0  0  0  0  0  0  0  0  0  0  0  0
   21.3930   37.0200   66.5570 C   0  0  0  0  0  1  0  0  0  0  0  0
   19.5440   36.3250   69.6940 C   0  0  0  0  0  0  0  0  0  0  0  0
   18.2330   36.6110   70.4120 C   0  0  0  0  0  1  0  0  0  0  0  0
   17.9910   33.0670   71.4510 C   0  0  0  0  0  0  0  0  0  0  0  0
   17.2660   33.0950   70.2560 C   0  0  0  0  0  3  0  0  0  0  0  0
   16.0130   33.6420   70.1620 C   0  0  0  0  0  3  0  0  0  0  0  0
   15.4560   34.1840   71.3010 C   0  0  0  0  0  0  0  0  0  0  0  0
   16.1560   34.1670   72.4900 C   0  0  0  0  0  3  0  0  0  0  0  0
   13.7120   34.9680   71.2580 Br  0  0  0  0  0  0  0  0  0  0  0  0
   17.4130   33.6120   72.5600 C   0  0  0  0  0  3  0  0  0  0  0  0
   19.3210   30.7190   73.4510 C   0  0  0  0  0  2  0  0  0  0  0  0
   18.2570   29.7240   73.2690 C   0  0  0  0  0  2  0  0  0  0  0  0
   16.9010   30.0820   73.1680 N   0  0  0  0  0  4  0  0  0  0  0  0
   16.3280   29.9160   71.8490 C   0  0  0  0  0  2  0  0  0  0  0  0
   14.9150   30.4860   71.9240 C   0  0  0  0  0  2  0  0  0  0  0  0
   14.5030   30.6250   73.2490 O   0  0  0  0  0  0  0  0  0  0  0  0
   14.7080   29.3620   73.8420 C   0  0  0  0  0  2  0  0  0  0  0  0
   16.1710   29.0510   73.9770 C   0  0  0  0  0  2  0  0  0  0  0  0
   16.7030   30.9800   73.6210 H   0  0  0  0  0  0  0  0  0  0  0  0
  1  2  1  0  0  0  0
  1  8  1  6  0  0  0
  2 17  1  1  0  0  0
  2  3  1  0  0  0  0
  3 24  1  0  0  0  0
  4  5  2  0  0  0  0
  4  3  1  0  0  0  0
  6  1  1  0  0  0  0
  6  4  1  0  0  0  0
  7  6  2  0  0  0  0
  8  9  1  1  0  0  0
 10  8  1  0  0  0  0
 11 10  1  0  0  0  0
 12 13  2  0  0  0  0
 12 11  1  0  0  0  0
 13 15  1  0  0  0  0
 14 12  1  0  0  0  0
 15 10  2  0  0  0  0
 15 16  1  0  0  0  0
 17 23  1  0  0  0  0
 18 17  2  0  0  0  0
 19 18  1  0  0  0  0
 19 20  2  0  0  0  0
 20 21  1  0  0  0  0
 21 23  2  0  0  0  0
 22 20  1  0  0  0  0
 25 24  1  0  0  0  0
 26 25  1  0  0  0  0
 26 32  1  0  0  0  0
 26 31  1  0  0  0  0
 27 28  1  0  0  0  0
 27 26  1  0  0  0  0
 28 29  1  0  0  0  0
 29 30  1  0  0  0  0
 30 31  1  0  0  0  0
M  END
>  <Pose>
1

>  <Score>
-7.448

$$$$
