/Users/jonathanwahrer/Desktop/Msc/3_Semester/Drug_Design_Praktikum/waehrer_HTS_screening/HTS_experiment/out/docking_results/vina_output/4x21/1192_docked.pdbqt
 OpenBabel03212202123D

 27 30  0  0  1  0  0  0  0  0999 V2000
   17.4330   33.8300   73.6580 S   0  0  0  0  0  0  0  0  0  0  0  0
   18.8580   33.8050   72.6990 C   0  0  0  0  0  0  0  0  0  0  0  0
   18.6980   32.6630   71.9610 C   0  0  0  0  0  0  0  0  0  0  0  0
   17.5830   31.9440   72.1650 C   0  0  0  0  0  0  0  0  0  0  0  0
   16.6930   32.4090   73.0950 C   0  0  0  0  0  0  0  0  0  0  0  0
   15.4530   31.5910   73.3080 C   0  0  0  0  0  2  0  0  0  0  0  0
   14.8070   31.4100   72.0100 N   0  0  0  0  0  4  0  0  0  0  0  0
   15.6790   30.8660   71.0150 C   0  0  0  0  0  2  0  0  0  0  0  0
   17.0980   30.6500   71.5290 C   0  0  0  0  0  2  0  0  0  0  0  0
   14.4220   32.7520   71.5710 C   0  0  0  0  0  1  0  0  0  0  0  0
   19.8170   32.3810   71.0200 C   0  0  0  0  0  0  0  0  0  0  0  0
   19.7940   31.3550   70.2770 O   0  0  0  0  0  0  0  0  0  0  0  0
   20.9110   33.2830   70.9690 N   0  0  0  0  0  0  0  0  0  0  0  0
   20.8580   34.6510   71.3960 C   0  0  2  0  0  3  0  0  0  0  0  0
   20.0120   34.6720   72.5790 N   0  0  0  0  0  0  0  0  0  0  0  0
   13.9170   30.8850   72.1230 H   0  0  0  0  0  0  0  0  0  0  0  0
   21.8220   32.9020   70.5860 H   0  0  0  0  0  0  0  0  0  0  0  0
   20.1960   35.3050   73.3830 H   0  0  0  0  0  0  0  0  0  0  0  0
   20.2900   35.5530   70.3660 C   0  0  0  0  0  0  0  0  0  0  0  0
   19.0440   36.1290   70.5080 C   0  0  0  0  0  3  0  0  0  0  0  0
   18.5010   36.9690   69.5630 C   0  0  0  0  0  0  0  0  0  0  0  0
   19.2110   37.2620   68.4170 C   0  0  0  0  0  0  0  0  0  0  0  0
   16.7880   37.7550   69.7700 Br  0  0  0  0  0  0  0  0  0  0  0  0
   20.4550   36.7000   68.2530 C   0  0  0  0  0  0  0  0  0  0  0  0
   18.6700   38.1090   67.4600 O   0  0  0  0  0  1  0  0  0  0  0  0
   20.9930   35.8580   69.2070 C   0  0  0  0  0  3  0  0  0  0  0  0
   21.4090   37.1350   66.6430 Br  0  0  0  0  0  0  0  0  0  0  0  0
  2  1  1  0  0  0  0
  3  4  1  0  0  0  0
  3  2  2  0  0  0  0
  4  5  2  0  0  0  0
  5  6  1  0  0  0  0
  5  1  1  0  0  0  0
  7 16  1  0  0  0  0
  7  6  1  0  0  0  0
  8  9  1  0  0  0  0
  8  7  1  0  0  0  0
  9  4  1  0  0  0  0
 10  7  1  0  0  0  0
 11  3  1  0  0  0  0
 12 11  2  0  0  0  0
 13 11  1  0  0  0  0
 13 14  1  0  0  0  0
 14 19  1  6  0  0  0
 14 15  1  0  0  0  0
 15  2  1  0  0  0  0
 15 18  1  0  0  0  0
 17 13  1  0  0  0  0
 19 20  1  0  0  0  0
 21 23  1  0  0  0  0
 21 20  2  0  0  0  0
 22 21  1  0  0  0  0
 24 22  2  0  0  0  0
 24 26  1  0  0  0  0
 25 22  1  0  0  0  0
 26 19  2  0  0  0  0
 27 24  1  0  0  0  0
M  END
>  <Pose>
1

>  <Score>
-8.422

$$$$
