/Users/jonathanwahrer/Desktop/Msc/3_Semester/Drug_Design_Praktikum/waehrer_HTS_screening/HTS_experiment/out/docking_results/vina_output/4x21/1193_docked.pdbqt
 OpenBabel03212202123D

 29 32  0  0  1  0  0  0  0  0999 V2000
   20.8040   36.8400   71.0180 S   0  0  0  0  0  0  0  0  0  0  0  0
   20.2510   35.3500   71.6420 C   0  0  0  0  0  0  0  0  0  0  0  0
   20.5450   34.4690   70.6390 C   0  0  0  0  0  0  0  0  0  0  0  0
   21.1400   34.9740   69.5280 C   0  0  0  0  0  0  0  0  0  0  0  0
   21.3900   36.3240   69.5140 C   0  0  0  0  0  0  0  0  0  0  0  0
   22.0360   37.0000   68.3510 C   0  0  0  0  0  2  0  0  0  0  0  0
   22.9640   36.1850   67.6460 N   0  0  0  0  0  4  0  0  0  0  0  0
   22.9240   34.7890   67.9220 C   0  0  0  0  0  2  0  0  0  0  0  0
   21.5790   34.2280   68.2630 C   0  0  0  0  0  2  0  0  0  0  0  0
   22.9150   36.4530   66.2130 C   0  0  0  0  0  1  0  0  0  0  0  0
   20.1580   33.0580   70.9490 C   0  0  0  0  0  0  0  0  0  0  0  0
   20.3800   32.1430   70.0910 O   0  0  0  0  0  0  0  0  0  0  0  0
   19.5500   32.7520   72.1880 N   0  0  0  0  0  0  0  0  0  0  0  0
   18.7750   33.7460   72.8970 C   0  0  1  0  0  3  0  0  0  0  0  0
   19.6130   34.9440   72.8820 N   0  0  0  0  0  0  0  0  0  0  0  0
   23.9360   36.5170   67.9370 H   0  0  0  0  0  0  0  0  0  0  0  0
   19.6600   31.7990   72.6010 H   0  0  0  0  0  0  0  0  0  0  0  0
   19.7950   35.5430   73.7040 H   0  0  0  0  0  0  0  0  0  0  0  0
   17.5370   33.9850   72.1090 C   0  0  0  0  0  0  0  0  0  0  0  0
   16.5330   33.0410   72.0710 C   0  0  0  0  0  3  0  0  0  0  0  0
   15.3780   33.2440   71.3470 C   0  0  0  0  0  0  0  0  0  0  0  0
   15.2170   34.4250   70.6350 C   0  0  0  0  0  0  0  0  0  0  0  0
   13.9820   31.9480   71.2850 Br  0  0  0  0  0  0  0  0  0  0  0  0
   16.2040   35.3870   70.6550 C   0  0  0  0  0  0  0  0  0  0  0  0
   14.0580   34.6520   69.8960 O   0  0  0  0  0  1  0  0  0  0  0  0
   17.3320   35.1570   71.3800 C   0  0  0  0  0  3  0  0  0  0  0  0
   15.9950   36.5460   69.9310 O   0  0  0  0  0  0  0  0  0  0  0  0
   16.8090   37.6750   69.9410 C   0  0  0  0  0  2  0  0  0  0  0  0
   17.7770   37.6720   68.7780 C   0  0  0  0  0  1  0  0  0  0  0  0
  1  2  1  0  0  0  0
  2 15  1  0  0  0  0
  3 11  1  0  0  0  0
  3  2  2  0  0  0  0
  4  3  1  0  0  0  0
  5  4  2  0  0  0  0
  5  1  1  0  0  0  0
  6  5  1  0  0  0  0
  7  8  1  0  0  0  0
  7 16  1  0  0  0  0
  7  6  1  0  0  0  0
  8  9  1  0  0  0  0
  9  4  1  0  0  0  0
 10  7  1  0  0  0  0
 11 13  1  0  0  0  0
 12 11  2  0  0  0  0
 13 17  1  0  0  0  0
 13 14  1  0  0  0  0
 14 19  1  6  0  0  0
 15 14  1  0  0  0  0
 15 18  1  0  0  0  0
 20 19  1  0  0  0  0
 21 20  2  0  0  0  0
 22 24  2  0  0  0  0
 22 21  1  0  0  0  0
 23 21  1  0  0  0  0
 24 26  1  0  0  0  0
 25 22  1  0  0  0  0
 26 19  2  0  0  0  0
 27 28  1  0  0  0  0
 27 24  1  0  0  0  0
 29 28  1  0  0  0  0
M  END
>  <Pose>
1

>  <Score>
-7.891

$$$$
