/Users/jonathanwahrer/Desktop/Msc/3_Semester/Drug_Design_Praktikum/waehrer_HTS_screening/HTS_experiment/out/docking_results/vina_output/4x21/1206_docked.pdbqt
 OpenBabel03212202123D

 25 28  0  0  1  0  0  0  0  0999 V2000
   14.7000   35.7890   70.7680 S   0  0  0  0  0  0  0  0  0  0  0  0
   13.2640   34.7030   70.5610 C   0  0  2  0  0  3  0  0  0  0  0  0
   13.5850   33.6730   71.6100 C   0  0  0  0  0  2  0  0  0  0  0  0
   14.9940   33.4630   71.7470 N   0  0  0  0  0  0  0  0  0  0  0  0
   15.7750   34.4730   71.3280 C   0  0  2  0  0  3  0  0  0  0  0  0
   17.0590   34.1340   71.4900 N   0  0  0  0  0  0  0  0  0  0  0  0
   17.1130   32.8920   72.0200 C   0  0  0  0  0  3  0  0  0  0  0  0
   15.8210   32.4550   72.1910 C   0  0  0  0  0  0  0  0  0  0  0  0
   13.2830   34.0160   69.2170 C   0  0  0  0  0  1  0  0  0  0  0  0
   15.4610   31.1640   72.7270 C   0  0  0  0  0  0  0  0  0  0  0  0
   16.2250   30.0530   72.3290 C   0  0  0  0  0  3  0  0  0  0  0  0
   15.9630   28.8040   72.8310 C   0  0  0  0  0  3  0  0  0  0  0  0
   14.9610   28.5580   73.7350 C   0  0  0  0  0  0  0  0  0  0  0  0
   14.2000   29.6280   74.1410 C   0  0  0  0  0  3  0  0  0  0  0  0
   14.4660   30.9050   73.6300 C   0  0  0  0  0  3  0  0  0  0  0  0
   14.7550   27.2390   74.2040 N   0  0  0  0  0  0  0  0  0  0  0  0
   15.2050   26.2690   73.5850 O   0  0  0  0  0  0  0  0  0  0  0  0
   14.0510   27.0430   75.3530 O   0  0  0  0  0  0  0  0  0  0  0  0
   18.1940   34.9290   71.1660 C   0  0  0  0  0  0  0  0  0  0  0  0
   18.1020   36.0330   70.3510 C   0  0  0  0  0  3  0  0  0  0  0  0
   19.1850   36.8210   70.0220 C   0  0  0  0  0  3  0  0  0  0  0  0
   20.4300   36.5050   70.5200 C   0  0  0  0  0  0  0  0  0  0  0  0
   20.5610   35.4000   71.3440 C   0  0  0  0  0  3  0  0  0  0  0  0
   21.9560   37.5730   70.0850 Br  0  0  0  0  0  0  0  0  0  0  0  0
   19.4600   34.6300   71.6580 C   0  0  0  0  0  3  0  0  0  0  0  0
  2  9  1  6  0  0  0
  2  1  1  0  0  0  0
  2  3  1  0  0  0  0
  3  4  1  0  0  0  0
  4  8  1  0  0  0  0
  5  1  1  1  0  0  0
  5  6  1  0  0  0  0
  5  4  1  0  0  0  0
  6  7  1  0  0  0  0
  7  8  2  0  0  0  0
  8 10  1  0  0  0  0
 10 15  1  0  0  0  0
 11 10  2  0  0  0  0
 11 12  1  0  0  0  0
 12 13  2  0  0  0  0
 13 14  1  0  0  0  0
 13 16  1  0  0  0  0
 15 14  2  0  0  0  0
 16 18  2  0  0  0  0
 17 16  2  0  0  0  0
 19  6  1  0  0  0  0
 19 25  1  0  0  0  0
 20 19  2  0  0  0  0
 21 20  1  0  0  0  0
 21 22  2  0  0  0  0
 22 23  1  0  0  0  0
 23 25  2  0  0  0  0
 24 22  1  0  0  0  0
M  END
>  <Pose>
1

>  <Score>
-7.962

$$$$
