/Users/jonathanwahrer/Desktop/Msc/3_Semester/Drug_Design_Praktikum/waehrer_HTS_screening/HTS_experiment/out/docking_results/vina_output/4x21/1217_docked.pdbqt
 OpenBabel03212202123D

 28 31  0  0  1  0  0  0  0  0999 V2000
   25.1580   35.5130   69.1190 S   0  0  0  0  0  0  0  0  0  0  0  0
   26.8920   35.4070   68.7530 C   0  0  0  0  0  2  0  0  0  0  0  0
   27.1690   36.0490   67.4080 C   0  0  0  0  0  2  0  0  0  0  0  0
   26.3890   35.3140   66.3320 C   0  0  0  0  0  2  0  0  0  0  0  0
   24.9900   35.6700   66.4070 N   0  0  2  0  0  0  0  0  0  0  0  0
   24.0910   36.2100   65.4390 C   0  0  2  0  0  0  0  0  0  0  0  0
   22.8040   35.5320   65.8820 C   0  0  0  0  0  2  0  0  0  0  0  0
   22.9320   35.5000   67.3220 N   0  0  0  0  0  0  0  0  0  0  0  0
   24.1900   35.5300   67.5940 C   0  0  2  0  0  3  0  0  0  0  0  0
   21.8850   35.4820   68.2810 C   0  0  0  0  0  0  0  0  0  0  0  0
   21.7160   34.3130   69.0110 C   0  0  0  0  0  0  0  0  0  0  0  0
   20.6910   34.2090   69.9560 C   0  0  0  0  0  3  0  0  0  0  0  0
   19.8390   35.2800   70.1620 C   0  0  0  0  0  3  0  0  0  0  0  0
   19.9770   36.4520   69.4580 C   0  0  0  0  0  0  0  0  0  0  0  0
   21.0290   36.4920   68.5220 C   0  0  0  0  0  3  0  0  0  0  0  0
   22.5660   33.2480   68.8000 O   0  0  0  0  0  0  0  0  0  0  0  0
   23.0790   32.4080   69.8070 C   0  0  0  0  0  1  0  0  0  0  0  0
   19.1590   37.5570   69.6180 O   0  0  0  0  0  0  0  0  0  0  0  0
   17.7620   37.5640   69.5400 C   0  0  0  0  0  1  0  0  0  0  0  0
   24.4560   35.8020   64.1610 O   0  0  0  0  0  0  0  0  0  0  0  0
   23.6760   35.4370   63.6850 H   0  0  0  0  0  0  0  0  0  0  0  0
   23.8720   37.6680   65.5120 C   0  0  0  0  0  0  0  0  0  0  0  0
   22.7050   38.2920   65.8210 C   0  0  0  0  0  3  0  0  0  0  0  0
   22.6010   39.6850   65.8250 C   0  0  0  0  0  3  0  0  0  0  0  0
   23.6810   40.4830   65.5120 C   0  0  0  0  0  0  0  0  0  0  0  0
   24.8540   39.8680   65.2010 C   0  0  0  0  0  3  0  0  0  0  0  0
   23.5210   42.3940   65.5150 Br  0  0  0  0  0  0  0  0  0  0  0  0
   24.9560   38.5040   65.1970 C   0  0  0  0  0  3  0  0  0  0  0  0
  2  1  1  0  0  0  0
  3  2  1  0  0  0  0
  4  3  1  0  0  0  0
  5  4  1  1  0  0  0
  5  9  1  0  0  0  0
  6 20  1  6  0  0  0
  6 22  1  0  0  0  0
  6  7  1  0  0  0  0
  6  5  1  0  0  0  0
  7  8  1  0  0  0  0
  8  9  1  0  0  0  0
  8 10  1  0  0  0  0
  9  1  1  1  0  0  0
 10 15  2  0  0  0  0
 10 11  1  0  0  0  0
 11 12  2  0  0  0  0
 12 13  1  0  0  0  0
 14 18  1  0  0  0  0
 14 13  2  0  0  0  0
 15 14  1  0  0  0  0
 16 11  1  0  0  0  0
 16 17  1  0  0  0  0
 19 18  1  0  0  0  0
 21 20  1  0  0  0  0
 22 23  1  0  0  0  0
 23 24  2  0  0  0  0
 25 27  1  0  0  0  0
 25 24  1  0  0  0  0
 26 25  2  0  0  0  0
 28 26  1  0  0  0  0
 28 22  2  0  0  0  0
M  END
>  <Pose>
1

>  <Score>
-6.856

$$$$
