/Users/jonathanwahrer/Desktop/Msc/3_Semester/Drug_Design_Praktikum/waehrer_HTS_screening/HTS_experiment/out/docking_results/vina_output/4x21/1219_docked.pdbqt
 OpenBabel03212202133D

 27 30  0  0  1  0  0  0  0  0999 V2000
   17.9560   33.0690   73.2600 S   0  0  0  0  0  0  0  0  0  0  0  0
   19.7280   32.6550   72.9860 C   0  0  0  0  0  2  0  0  0  0  0  0
   19.8320   31.2180   72.5030 C   0  0  0  0  0  2  0  0  0  0  0  0
   18.9630   30.3050   73.3270 C   0  0  0  0  0  2  0  0  0  0  0  0
   17.6110   30.3790   72.8730 N   0  0  2  0  0  0  0  0  0  0  0  0
   16.5290   29.4470   72.6130 C   0  0  1  0  0  0  0  0  0  0  0  0
   15.7260   30.1490   71.5320 C   0  0  0  0  0  2  0  0  0  0  0  0
   16.0200   31.5660   71.8240 N   0  0  0  0  0  0  0  0  0  0  0  0
   17.0590   31.6660   72.5530 C   0  0  1  0  0  3  0  0  0  0  0  0
   16.9860   28.2090   72.2060 O   0  0  0  0  0  0  0  0  0  0  0  0
   17.4820   27.7010   72.8630 H   0  0  0  0  0  0  0  0  0  0  0  0
   15.6510   29.2830   73.7960 C   0  0  0  0  0  0  0  0  0  0  0  0
   14.3730   29.8050   73.7790 C   0  0  0  0  0  3  0  0  0  0  0  0
   13.5810   29.6260   74.9130 C   0  0  0  0  0  0  0  0  0  0  0  0
   14.0510   28.9590   76.0040 C   0  0  0  0  0  3  0  0  0  0  0  0
   15.3290   28.4310   76.0340 C   0  0  0  0  0  3  0  0  0  0  0  0
   16.1170   28.6140   74.8920 C   0  0  0  0  0  3  0  0  0  0  0  0
   12.2670   30.1580   74.9050 N   0  0  0  0  0  0  0  0  0  0  0  0
   12.0500   31.3710   74.7160 O   0  0  0  0  0  0  0  0  0  0  0  0
   11.1780   29.3590   75.1050 O   0  0  0  0  0  0  0  0  0  0  0  0
   15.2490   32.6590   71.3340 C   0  0  0  0  0  0  0  0  0  0  0  0
   13.9340   32.9020   71.6010 C   0  0  0  0  0  3  0  0  0  0  0  0
   13.2470   34.0010   71.1030 C   0  0  0  0  0  3  0  0  0  0  0  0
   13.9040   34.9070   70.2960 C   0  0  0  0  0  0  0  0  0  0  0  0
   15.2450   34.6920   70.0020 C   0  0  0  0  0  3  0  0  0  0  0  0
   13.0430   36.4490   69.5580 Br  0  0  0  0  0  0  0  0  0  0  0  0
   15.9110   33.5840   70.5120 C   0  0  0  0  0  3  0  0  0  0  0  0
  2  1  1  0  0  0  0
  3  2  1  0  0  0  0
  3  4  1  0  0  0  0
  5  4  1  6  0  0  0
  6 10  1  6  0  0  0
  6  5  1  0  0  0  0
  6 12  1  0  0  0  0
  7  8  1  0  0  0  0
  7  6  1  0  0  0  0
  8  9  1  0  0  0  0
  9  5  1  0  0  0  0
  9  1  1  1  0  0  0
 10 11  1  0  0  0  0
 12 17  1  0  0  0  0
 13 12  2  0  0  0  0
 13 14  1  0  0  0  0
 14 15  2  0  0  0  0
 15 16  1  0  0  0  0
 17 16  2  0  0  0  0
 18 14  1  0  0  0  0
 18 20  2  0  0  0  0
 19 18  2  0  0  0  0
 21 22  1  0  0  0  0
 21  8  1  0  0  0  0
 23 22  2  0  0  0  0
 24 23  1  0  0  0  0
 25 24  2  0  0  0  0
 25 27  1  0  0  0  0
 26 24  1  0  0  0  0
 27 21  2  0  0  0  0
M  END
>  <Pose>
1

>  <Score>
-7.835

$$$$
