/Users/jonathanwahrer/Desktop/Msc/3_Semester/Drug_Design_Praktikum/waehrer_HTS_screening/HTS_experiment/out/docking_results/vina_output/4x21/1222_docked.pdbqt
 OpenBabel03212202133D

 24 27  0  0  1  0  0  0  0  0999 V2000
   17.9600   33.0610   73.3340 S   0  0  0  0  0  0  0  0  0  0  0  0
   19.7440   32.6660   73.0490 C   0  0  0  0  0  2  0  0  0  0  0  0
   19.9040   31.2140   72.6810 C   0  0  0  0  0  2  0  0  0  0  0  0
   18.8330   30.3140   73.2590 C   0  0  0  0  0  2  0  0  0  0  0  0
   17.5650   30.4630   72.6580 N   0  0  1  0  0  0  0  0  0  0  0  0
   16.3980   29.6650   72.2440 C   0  0  1  0  0  0  0  0  0  0  0  0
   16.0590   30.4340   70.9890 C   0  0  0  0  0  2  0  0  0  0  0  0
   16.2330   31.8070   71.4380 N   0  0  0  0  0  0  0  0  0  0  0  0
   17.1320   31.8060   72.3040 C   0  0  1  0  0  3  0  0  0  0  0  0
   16.7100   28.3730   71.9470 O   0  0  0  0  0  0  0  0  0  0  0  0
   17.6520   28.1980   71.7010 H   0  0  0  0  0  0  0  0  0  0  0  0
   15.2810   29.8070   73.2350 C   0  0  0  0  0  0  0  0  0  0  0  0
   14.0490   30.3380   72.9060 C   0  0  0  0  0  3  0  0  0  0  0  0
   13.0660   30.4270   73.8830 C   0  0  0  0  0  3  0  0  0  0  0  0
   13.2660   30.0010   75.1900 C   0  0  0  0  0  3  0  0  0  0  0  0
   14.4830   29.4740   75.5240 C   0  0  0  0  0  3  0  0  0  0  0  0
   15.4730   29.3860   74.5460 C   0  0  0  0  0  3  0  0  0  0  0  0
   15.4490   32.9370   70.9980 C   0  0  0  0  0  0  0  0  0  0  0  0
   14.1000   32.9370   70.8270 C   0  0  0  0  0  3  0  0  0  0  0  0
   13.3890   34.0330   70.3560 C   0  0  0  0  0  3  0  0  0  0  0  0
   14.0570   35.1860   70.0400 C   0  0  0  0  0  0  0  0  0  0  0  0
   15.4280   35.1910   70.2130 C   0  0  0  0  0  3  0  0  0  0  0  0
   13.1600   36.7490   69.3790 Br  0  0  0  0  0  0  0  0  0  0  0  0
   16.1260   34.1110   70.6760 C   0  0  0  0  0  3  0  0  0  0  0  0
  2  1  1  0  0  0  0
  3  2  1  0  0  0  0
  3  4  1  0  0  0  0
  5  4  1  1  0  0  0
  6 10  1  6  0  0  0
  6  5  1  0  0  0  0
  6 12  1  0  0  0  0
  7  8  1  0  0  0  0
  7  6  1  0  0  0  0
  8  9  1  0  0  0  0
  9  5  1  0  0  0  0
  9  1  1  1  0  0  0
 11 10  1  0  0  0  0
 12 17  1  0  0  0  0
 13 12  2  0  0  0  0
 13 14  1  0  0  0  0
 14 15  2  0  0  0  0
 15 16  1  0  0  0  0
 17 16  2  0  0  0  0
 18  8  1  0  0  0  0
 19 18  1  0  0  0  0
 20 19  2  0  0  0  0
 21 22  2  0  0  0  0
 21 20  1  0  0  0  0
 22 24  1  0  0  0  0
 23 21  1  0  0  0  0
 24 18  2  0  0  0  0
M  END
>  <Pose>
1

>  <Score>
-7.869

$$$$
