/Users/jonathanwahrer/Desktop/Msc/3_Semester/Drug_Design_Praktikum/waehrer_HTS_screening/HTS_experiment/out/docking_results/vina_output/4x21/1224_docked.pdbqt
 OpenBabel03212202133D

 26 29  0  0  1  0  0  0  0  0999 V2000
   24.4310   39.1220   66.2590 S   0  0  0  0  0  0  0  0  0  0  0  0
   25.2660   39.7990   64.7660 C   0  0  0  0  0  2  0  0  0  0  0  0
   26.3790   38.8110   64.4480 C   0  0  0  0  0  2  0  0  0  0  0  0
   25.8440   37.5040   63.9520 C   0  0  0  0  0  2  0  0  0  0  0  0
   25.0600   36.7760   64.9010 N   0  0  2  0  0  0  0  0  0  0  0  0
   24.9270   35.3690   65.2930 C   0  0  1  0  0  0  0  0  0  0  0  0
   23.3920   35.3590   65.4210 C   0  0  0  0  0  2  0  0  0  0  0  0
   23.1510   36.6190   66.0990 N   0  0  0  0  0  0  0  0  0  0  0  0
   24.0960   37.4090   65.7860 C   0  0  1  0  0  3  0  0  0  0  0  0
   25.3470   34.5570   64.2670 O   0  0  0  0  0  0  0  0  0  0  0  0
   26.1820   34.8690   63.8440 H   0  0  0  0  0  0  0  0  0  0  0  0
   25.5390   35.0790   66.6010 C   0  0  0  0  0  0  0  0  0  0  0  0
   26.6380   35.7180   67.1320 C   0  0  0  0  0  3  0  0  0  0  0  0
   27.1320   35.3750   68.3800 C   0  0  0  0  0  3  0  0  0  0  0  0
   26.5320   34.3900   69.1100 C   0  0  0  0  0  0  0  0  0  0  0  0
   25.4320   33.7410   68.5940 C   0  0  0  0  0  3  0  0  0  0  0  0
   27.1680   33.8660   70.8460 Br  0  0  0  0  0  0  0  0  0  0  0  0
   24.9530   34.0900   67.3570 C   0  0  0  0  0  3  0  0  0  0  0  0
   22.0090   36.8360   66.9590 C   0  0  0  0  0  0  0  0  0  0  0  0
   22.1570   36.7500   68.3400 C   0  0  0  0  0  3  0  0  0  0  0  0
   21.0880   36.9490   69.1850 C   0  0  0  0  0  3  0  0  0  0  0  0
   19.8220   37.2400   68.7230 C   0  0  0  0  0  0  0  0  0  0  0  0
   19.6670   37.3250   67.3600 C   0  0  0  0  0  3  0  0  0  0  0  0
   20.7600   37.1220   66.5020 C   0  0  0  0  0  3  0  0  0  0  0  0
   18.7660   37.4360   69.6070 O   0  0  0  0  0  0  0  0  0  0  0  0
   17.4210   37.5770   69.2490 C   0  0  0  0  0  1  0  0  0  0  0  0
  2  1  1  0  0  0  0
  3  2  1  0  0  0  0
  4  3  1  0  0  0  0
  5  4  1  6  0  0  0
  5  6  1  0  0  0  0
  5  9  1  0  0  0  0
  6 10  1  6  0  0  0
  6  7  1  0  0  0  0
  6 12  1  0  0  0  0
  7  8  1  0  0  0  0
  8 19  1  0  0  0  0
  9  8  1  0  0  0  0
  9  1  1  1  0  0  0
 11 10  1  0  0  0  0
 12 13  2  0  0  0  0
 12 18  1  0  0  0  0
 13 14  1  0  0  0  0
 14 15  2  0  0  0  0
 15 17  1  0  0  0  0
 16 15  1  0  0  0  0
 18 16  2  0  0  0  0
 19 20  1  0  0  0  0
 20 21  2  0  0  0  0
 22 21  1  0  0  0  0
 22 25  1  0  0  0  0
 23 22  2  0  0  0  0
 24 19  2  0  0  0  0
 24 23  1  0  0  0  0
 26 25  1  0  0  0  0
M  END
>  <Pose>
1

>  <Score>
-6.370

$$$$
