/Users/jonathanwahrer/Desktop/Msc/3_Semester/Drug_Design_Praktikum/waehrer_HTS_screening/HTS_experiment/out/docking_results/vina_output/4x21/1236_docked.pdbqt
 OpenBabel03212202143D

 30 34  0  0  1  0  0  0  0  0999 V2000
   18.4560   33.6640   70.9540 C   0  0  2  0  0  3  0  0  0  0  0  0
   19.8030   33.5520   71.5780 C   0  0  1  0  0  3  0  0  0  0  0  0
   20.7240   32.9900   70.5530 C   0  0  0  0  0  0  0  0  0  0  0  0
   21.2270   33.8970   69.5530 N   0  0  0  0  0  0  0  0  0  0  0  0
   21.0290   31.7720   70.5880 O   0  0  0  0  0  0  0  0  0  0  0  0
   21.2720   35.1490   69.7260 C   0  0  0  0  0  0  0  0  0  0  0  0
   21.8250   36.5010   68.7070 S   0  0  0  0  0  0  0  0  0  0  0  0
   20.8510   35.7350   70.9380 N   0  0  0  0  0  0  0  0  0  0  0  0
   22.0870   37.6510   70.1410 C   0  0  0  0  0  2  0  0  0  0  0  0
   20.9330   37.1670   70.9820 C   0  0  0  0  0  2  0  0  0  0  0  0
   20.3640   34.8600   71.9890 C   0  0  0  0  0  0  0  0  0  0  0  0
   20.4500   35.2650   73.1730 O   0  0  0  0  0  0  0  0  0  0  0  0
   17.6630   34.8590   71.4230 C   0  0  2  0  0  3  0  0  0  0  0  0
   16.4860   34.5230   72.2400 C   0  0  0  0  0  0  0  0  0  0  0  0
   16.6380   34.1760   73.4640 O   0  0  0  0  0  0  0  0  0  0  0  0
   15.1560   34.5800   71.6660 N   0  0  0  0  0  0  0  0  0  0  0  0
   13.9490   34.0640   72.2490 C   0  0  0  0  0  2  0  0  0  0  0  0
   14.9890   35.2230   70.4200 C   0  0  0  0  0  0  0  0  0  0  0  0
   12.9830   33.6240   71.1760 C   0  0  0  0  0  2  0  0  0  0  0  0
   13.2470   35.0610   70.0350 S   0  0  0  0  0  0  0  0  0  0  0  0
   15.9570   35.7560   69.7800 N   0  0  0  0  0  0  0  0  0  0  0  0
   17.3010   35.7410   70.2850 C   0  0  0  0  0  0  0  0  0  0  0  0
   18.1440   36.4920   69.7340 O   0  0  0  0  0  0  0  0  0  0  0  0
   17.7240   32.3930   71.1530 C   0  0  0  0  0  0  0  0  0  0  0  0
   18.1080   31.4980   72.1430 C   0  0  0  0  0  3  0  0  0  0  0  0
   17.4310   30.3120   72.3400 C   0  0  0  0  0  0  0  0  0  0  0  0
   16.3500   29.9890   71.5510 C   0  0  0  0  0  3  0  0  0  0  0  0
   17.9510   29.0760   73.6970 Br  0  0  0  0  0  0  0  0  0  0  0  0
   15.9750   30.8680   70.5810 C   0  0  0  0  0  3  0  0  0  0  0  0
   16.6420   32.0580   70.3720 C   0  0  0  0  0  3  0  0  0  0  0  0
  1 24  1  1  0  0  0
  2  1  1  6  0  0  0
  2 11  1  0  0  0  0
  3  5  2  0  0  0  0
  3  2  1  0  0  0  0
  4  6  2  0  0  0  0
  4  3  1  0  0  0  0
  6  8  1  0  0  0  0
  7  6  1  0  0  0  0
  7  9  1  0  0  0  0
  8 10  1  0  0  0  0
  8 11  1  0  0  0  0
  9 10  1  0  0  0  0
 11 12  2  0  0  0  0
 13  1  1  6  0  0  0
 13 14  1  0  0  0  0
 14 15  2  0  0  0  0
 16 14  1  0  0  0  0
 16 17  1  0  0  0  0
 18 16  1  0  0  0  0
 19 17  1  0  0  0  0
 20 18  1  0  0  0  0
 20 19  1  0  0  0  0
 21 22  1  0  0  0  0
 21 18  2  0  0  0  0
 22 13  1  0  0  0  0
 23 22  2  0  0  0  0
 24 25  1  0  0  0  0
 25 26  2  0  0  0  0
 26 28  1  0  0  0  0
 27 26  1  0  0  0  0
 29 27  2  0  0  0  0
 30 29  1  0  0  0  0
 30 24  2  0  0  0  0
M  END
>  <Pose>
1

>  <Score>
-7.208

$$$$
