/Users/jonathanwahrer/Desktop/Msc/3_Semester/Drug_Design_Praktikum/waehrer_HTS_screening/HTS_experiment/out/docking_results/vina_output/4x21/1237_docked.pdbqt
 OpenBabel03212202143D

 30 34  0  0  1  0  0  0  0  0999 V2000
   18.3220   34.9800   70.5670 C   0  0  2  0  0  3  0  0  0  0  0  0
   18.9110   33.9910   71.4820 C   0  0  1  0  0  3  0  0  0  0  0  0
   18.7560   34.0510   72.9080 C   0  0  0  0  0  0  0  0  0  0  0  0
   17.6270   33.3360   73.4820 N   0  0  0  0  0  0  0  0  0  0  0  0
   19.4580   34.6340   73.7710 O   0  0  0  0  0  0  0  0  0  0  0  0
   17.1130   32.3170   72.8700 C   0  0  0  0  0  0  0  0  0  0  0  0
   15.7310   31.2300   73.3100 S   0  0  0  0  0  0  0  0  0  0  0  0
   17.5470   31.8440   71.6140 N   0  0  0  0  0  0  0  0  0  0  0  0
   15.4750   30.6140   71.5890 C   0  0  0  0  0  2  0  0  0  0  0  0
   16.8850   30.7060   71.0990 C   0  0  0  0  0  2  0  0  0  0  0  0
   18.6380   32.5810   71.0140 C   0  0  0  0  0  0  0  0  0  0  0  0
   19.3320   32.0500   70.1290 O   0  0  0  0  0  0  0  0  0  0  0  0
   18.8750   36.3330   70.4240 C   0  0  1  0  0  3  0  0  0  0  0  0
   20.3970   36.2000   70.3800 C   0  0  0  0  0  0  0  0  0  0  0  0
   21.0380   36.0250   71.4410 O   0  0  0  0  0  0  0  0  0  0  0  0
   21.0950   36.2750   69.1150 N   0  0  0  0  0  0  0  0  0  0  0  0
   22.4240   35.8550   68.8340 C   0  0  0  0  0  2  0  0  0  0  0  0
   20.3920   36.8480   68.0270 C   0  0  0  0  0  0  0  0  0  0  0  0
   22.5720   35.4210   67.3970 C   0  0  0  0  0  2  0  0  0  0  0  0
   21.5170   36.7490   66.6450 S   0  0  0  0  0  0  0  0  0  0  0  0
   19.2020   37.2970   68.1010 N   0  0  0  0  0  0  0  0  0  0  0  0
   18.4870   37.2340   69.3720 C   0  0  0  0  0  0  0  0  0  0  0  0
   17.5280   38.0200   69.4730 O   0  0  0  0  0  0  0  0  0  0  0  0
   16.8090   34.9450   70.5760 C   0  0  0  0  0  0  0  0  0  0  0  0
   16.0870   35.7850   71.3890 C   0  0  0  0  0  3  0  0  0  0  0  0
   14.7170   35.7200   71.3740 C   0  0  0  0  0  3  0  0  0  0  0  0
   14.0260   34.8560   70.5840 C   0  0  0  0  0  0  0  0  0  0  0  0
   14.7190   34.0040   69.7610 C   0  0  0  0  0  3  0  0  0  0  0  0
   12.1090   34.7730   70.5690 Br  0  0  0  0  0  0  0  0  0  0  0  0
   16.1130   34.0700   69.7770 C   0  0  0  0  0  3  0  0  0  0  0  0
  1 24  1  1  0  0  0
  2  1  1  6  0  0  0
  2  3  1  0  0  0  0
  3  4  1  0  0  0  0
  3  5  2  0  0  0  0
  6  7  1  0  0  0  0
  6  4  2  0  0  0  0
  8  6  1  0  0  0  0
  9  7  1  0  0  0  0
 10  9  1  0  0  0  0
 10  8  1  0  0  0  0
 11  2  1  0  0  0  0
 11  8  1  0  0  0  0
 12 11  2  0  0  0  0
 13  1  1  6  0  0  0
 14 13  1  0  0  0  0
 14 15  2  0  0  0  0
 16 14  1  0  0  0  0
 17 16  1  0  0  0  0
 18 21  2  0  0  0  0
 18 16  1  0  0  0  0
 19 17  1  0  0  0  0
 20 19  1  0  0  0  0
 20 18  1  0  0  0  0
 21 22  1  0  0  0  0
 22 23  2  0  0  0  0
 22 13  1  0  0  0  0
 24 25  1  0  0  0  0
 26 25  2  0  0  0  0
 27 26  1  0  0  0  0
 28 30  1  0  0  0  0
 28 27  2  0  0  0  0
 29 27  1  0  0  0  0
 30 24  2  0  0  0  0
M  END
>  <Pose>
1

>  <Score>
-8.226

$$$$
