/Users/jonathanwahrer/Desktop/Msc/3_Semester/Drug_Design_Praktikum/waehrer_HTS_screening/HTS_experiment/out/docking_results/vina_output/4x21/1248_docked.pdbqt
 OpenBabel03212202143D

 21 24  0  0  0  0  0  0  0  0999 V2000
   13.9380   31.2130   71.2980 S   0  0  0  0  0  0  0  0  0  0  0  0
   15.4120   30.4440   71.7300 C   0  0  0  0  0  0  0  0  0  0  0  0
   16.2810   31.4410   71.5690 N   0  0  0  0  0  0  0  0  0  0  0  0
   17.4930   30.8830   71.9040 C   0  0  0  0  0  0  0  0  0  0  0  0
   17.3170   29.6070   72.2440 N   0  0  0  0  0  0  0  0  0  0  0  0
   16.0400   29.2990   72.1480 N   0  0  0  0  0  0  0  0  0  0  0  0
   15.8560   32.5760   71.1830 N   0  0  0  0  0  0  0  0  0  0  0  0
   14.5760   32.7760   70.9420 C   0  0  0  0  0  0  0  0  0  0  0  0
   13.8740   33.9830   70.4950 C   0  0  0  0  0  0  0  0  0  0  0  0
   12.5700   34.0930   70.2130 N   0  0  0  0  0  0  0  0  0  0  0  0
   12.3050   35.3550   69.8380 N   0  0  0  0  0  0  0  0  0  0  0  0
   13.4470   36.0680   69.8780 C   0  0  0  0  0  3  0  0  0  0  0  0
   11.3590   35.7070   69.5630 H   0  0  0  0  0  0  0  0  0  0  0  0
   14.4490   35.1900   70.2980 C   0  0  0  0  0  0  0  0  0  0  0  0
   16.2550   35.6860   70.5220 Br  0  0  0  0  0  0  0  0  0  0  0  0
   18.7990   31.5730   71.8940 C   0  0  0  0  0  0  0  0  0  0  0  0
   19.6010   31.5300   70.8140 N   0  0  0  0  0  0  0  0  0  0  0  0
   20.7940   32.1650   70.8170 C   0  0  0  0  0  3  0  0  0  0  0  0
   21.2030   32.8630   71.9200 C   0  0  0  0  0  3  0  0  0  0  0  0
   20.3970   32.8990   72.9830 N   0  0  0  0  0  0  0  0  0  0  0  0
   19.2000   32.2720   73.0070 C   0  0  0  0  0  3  0  0  0  0  0  0
  1  2  1  0  0  0  0
  2  6  2  0  0  0  0
  3  2  1  0  0  0  0
  3  4  1  0  0  0  0
  4  5  2  0  0  0  0
  6  5  1  0  0  0  0
  7  3  1  0  0  0  0
  8  7  2  0  0  0  0
  8  1  1  0  0  0  0
  9  8  1  0  0  0  0
 10  9  2  0  0  0  0
 11 12  1  0  0  0  0
 11 10  1  0  0  0  0
 12 14  2  0  0  0  0
 13 11  1  0  0  0  0
 14  9  1  0  0  0  0
 14 15  1  0  0  0  0
 16  4  1  0  0  0  0
 16 21  1  0  0  0  0
 17 18  1  0  0  0  0
 17 16  2  0  0  0  0
 18 19  2  0  0  0  0
 19 20  1  0  0  0  0
 20 21  2  0  0  0  0
M  END
>  <Pose>
1

>  <Score>
-7.626

$$$$
