/Users/jonathanwahrer/Desktop/Msc/3_Semester/Drug_Design_Praktikum/waehrer_HTS_screening/HTS_experiment/out/docking_results/vina_output/4x21/1255_docked.pdbqt
 OpenBabel03212202153D

 34 38  0  0  1  0  0  0  0  0999 V2000
   21.5880   35.1000   69.9640 C   0  0  1  0  0  3  0  0  0  0  0  0
   21.5490   34.4200   71.3030 C   0  0  2  0  0  3  0  0  0  0  0  0
   21.6850   32.9150   71.0780 C   0  0  0  0  0  0  0  0  0  0  0  0
   20.5980   32.2750   70.3720 N   0  0  0  0  0  0  0  0  0  0  0  0
   22.6930   32.3530   71.5040 O   0  0  0  0  0  0  0  0  0  0  0  0
   19.4020   32.7600   70.4650 C   0  0  0  0  0  0  0  0  0  0  0  0
   17.8620   32.2260   69.7360 S   0  0  0  0  0  0  0  0  0  0  0  0
   19.0860   33.8950   71.2410 N   0  0  0  0  0  0  0  0  0  0  0  0
   16.8680   33.5110   70.4780 C   0  0  0  0  0  0  0  0  0  0  0  0
   17.7720   34.2780   71.2440 N   0  0  0  0  0  0  0  0  0  0  0  0
   15.5580   33.6780   70.3200 C   0  0  0  0  0  2  0  0  0  0  0  0
   17.3930   35.1230   71.8040 H   0  0  0  0  0  0  0  0  0  0  0  0
   20.2030   34.5060   71.9510 C   0  0  0  0  0  0  0  0  0  0  0  0
   20.0040   35.0730   73.0630 O   0  0  0  0  0  0  0  0  0  0  0  0
   21.5430   36.5750   69.9460 C   0  0  2  0  0  3  0  0  0  0  0  0
   20.4840   37.2350   70.6950 C   0  0  0  0  0  0  0  0  0  0  0  0
   20.7370   37.7600   71.8320 O   0  0  0  0  0  0  0  0  0  0  0  0
   19.1290   37.3210   70.1820 N   0  0  0  0  0  0  0  0  0  0  0  0
   17.9780   37.4830   70.8830 N   0  0  0  0  0  0  0  0  0  0  0  0
   19.0160   37.2300   68.7800 C   0  0  0  0  0  0  0  0  0  0  0  0
   16.7690   37.5460   70.1450 C   0  0  0  0  0  0  0  0  0  0  0  0
   17.9120   37.5700   71.9560 H   0  0  0  0  0  0  0  0  0  0  0  0
   15.5340   37.7020   70.5690 C   0  0  0  0  0  2  0  0  0  0  0  0
   17.2720   37.3630   68.4360 S   0  0  0  0  0  0  0  0  0  0  0  0
   20.0160   37.0810   67.9860 N   0  0  0  0  0  0  0  0  0  0  0  0
   21.3560   36.9950   68.4980 C   0  0  0  0  0  0  0  0  0  0  0  0
   22.3760   37.2410   67.8380 O   0  0  0  0  0  0  0  0  0  0  0  0
   22.7300   34.6120   69.1390 C   0  0  0  0  0  0  0  0  0  0  0  0
   22.5200   33.9060   67.9760 C   0  0  0  0  0  3  0  0  0  0  0  0
   23.5700   33.4530   67.2110 C   0  0  0  0  0  3  0  0  0  0  0  0
   24.8620   33.7090   67.6130 C   0  0  0  0  0  0  0  0  0  0  0  0
   25.1190   34.4210   68.7860 C   0  0  0  0  0  3  0  0  0  0  0  0
   26.3430   33.0930   66.5720 Br  0  0  0  0  0  0  0  0  0  0  0  0
   24.0390   34.8580   69.5250 C   0  0  0  0  0  3  0  0  0  0  0  0
  1 28  1  1  0  0  0
  2  1  1  6  0  0  0
  2 13  1  0  0  0  0
  3  2  1  0  0  0  0
  3  5  2  0  0  0  0
  4  6  2  0  0  0  0
  4  3  1  0  0  0  0
  6  8  1  0  0  0  0
  7  6  1  0  0  0  0
  7  9  1  0  0  0  0
  8 10  1  0  0  0  0
  8 13  1  0  0  0  0
  9 10  1  0  0  0  0
 10 12  1  0  0  0  0
 11  9  2  0  0  0  0
 13 14  2  0  0  0  0
 15  1  1  6  0  0  0
 15 16  1  0  0  0  0
 16 17  2  0  0  0  0
 18 16  1  0  0  0  0
 18 19  1  0  0  0  0
 19 22  1  0  0  0  0
 20 18  1  0  0  0  0
 21 23  2  0  0  0  0
 21 19  1  0  0  0  0
 24 20  1  0  0  0  0
 24 21  1  0  0  0  0
 25 26  1  0  0  0  0
 25 20  2  0  0  0  0
 26 15  1  0  0  0  0
 27 26  2  0  0  0  0
 28 34  1  0  0  0  0
 29 28  2  0  0  0  0
 30 31  2  0  0  0  0
 30 29  1  0  0  0  0
 31 32  1  0  0  0  0
 32 34  2  0  0  0  0
 33 31  1  0  0  0  0
M  END
>  <Pose>
1

>  <Score>
-6.827

$$$$
