/Users/jonathanwahrer/Desktop/Msc/3_Semester/Drug_Design_Praktikum/waehrer_HTS_screening/HTS_experiment/out/docking_results/vina_output/4x21/1256_docked.pdbqt
 OpenBabel03212202153D

 30 33  0  0  0  0  0  0  0  0999 V2000
   16.3080   31.3150   71.6720 S   0  0  0  0  0  0  0  0  0  0  0  0
   15.3340   32.6370   71.1830 C   0  0  0  0  0  0  0  0  0  0  0  0
   13.9940   32.8040   70.9550 N   0  0  0  0  0  0  0  0  0  0  0  0
   13.4940   33.9990   70.6010 C   0  0  0  0  0  0  0  0  0  0  0  0
   12.2940   34.2440   70.3750 O   0  0  0  0  0  0  0  0  0  0  0  0
   14.4200   35.0100   70.4910 C   0  0  0  0  0  3  0  0  0  0  0  0
   15.7550   34.8510   70.7160 C   0  0  0  0  0  0  0  0  0  0  0  0
   16.2360   33.6170   71.0780 N   0  0  0  0  0  0  0  0  0  0  0  0
   17.4530   33.3380   71.3430 N   0  0  0  0  0  0  0  0  0  0  0  0
   17.8240   32.1420   71.7050 C   0  0  0  0  0  0  0  0  0  0  0  0
   16.6140   36.0250   70.5700 C   0  0  0  0  0  0  0  0  0  0  0  0
   16.0980   37.1980   70.6710 O   0  0  0  0  0  0  0  0  0  0  0  0
   18.0000   35.9800   70.3160 N   0  0  0  0  0  0  0  0  0  0  0  0
   18.5000   35.0780   70.1980 H   0  0  0  0  0  0  0  0  0  0  0  0
   18.7570   37.2210   70.2040 C   0  0  0  0  0  2  0  0  0  0  0  0
   19.5850   37.2220   68.9730 C   0  0  0  0  0  0  0  0  0  0  0  0
   18.9840   37.4990   67.7550 C   0  0  0  0  0  0  0  0  0  0  0  0
   19.7330   37.4620   66.6060 C   0  0  0  0  0  3  0  0  0  0  0  0
   21.0680   37.1560   66.6140 C   0  0  0  0  0  3  0  0  0  0  0  0
   21.6760   36.8790   67.8250 C   0  0  0  0  0  0  0  0  0  0  0  0
   20.9170   36.9180   68.9830 C   0  0  0  0  0  3  0  0  0  0  0  0
   23.5330   36.4490   67.9250 Br  0  0  0  0  0  0  0  0  0  0  0  0
   17.6410   37.8040   67.7590 O   0  0  0  0  0  0  0  0  0  0  0  0
   17.2420   39.1020   67.3200 C   0  0  0  0  0  1  0  0  0  0  0  0
   19.1320   31.6380   72.0630 N   0  0  0  0  0  0  0  0  0  0  0  0
   20.2540   31.9100   71.2500 C   0  0  0  0  0  2  0  0  0  0  0  0
   21.4750   31.1990   71.7860 C   0  0  0  0  0  2  0  0  0  0  0  0
   21.1160   29.9240   72.2320 O   0  0  0  0  0  0  0  0  0  0  0  0
   20.3890   30.0170   73.4250 C   0  0  0  0  0  2  0  0  0  0  0  0
   19.1700   30.8720   73.2630 C   0  0  0  0  0  2  0  0  0  0  0  0
  1 10  1  0  0  0  0
  2  1  1  0  0  0  0
  3  2  2  0  0  0  0
  4  3  1  0  0  0  0
  5  4  2  0  0  0  0
  6  4  1  0  0  0  0
  6  7  2  0  0  0  0
  7  8  1  0  0  0  0
  8  2  1  0  0  0  0
  8  9  1  0  0  0  0
  9 10  2  0  0  0  0
 10 25  1  0  0  0  0
 11 12  2  0  0  0  0
 11  7  1  0  0  0  0
 13 11  1  0  0  0  0
 14 13  1  0  0  0  0
 15 13  1  0  0  0  0
 16 21  1  0  0  0  0
 16 15  1  0  0  0  0
 17 23  1  0  0  0  0
 17 16  2  0  0  0  0
 18 19  2  0  0  0  0
 18 17  1  0  0  0  0
 19 20  1  0  0  0  0
 20 22  1  0  0  0  0
 20 21  2  0  0  0  0
 24 23  1  0  0  0  0
 25 30  1  0  0  0  0
 26 27  1  0  0  0  0
 26 25  1  0  0  0  0
 27 28  1  0  0  0  0
 28 29  1  0  0  0  0
 30 29  1  0  0  0  0
M  END
>  <Pose>
1

>  <Score>
-8.359

$$$$
