/Users/jonathanwahrer/Desktop/Msc/3_Semester/Drug_Design_Praktikum/waehrer_HTS_screening/HTS_experiment/out/docking_results/vina_output/4x21/1265_docked.pdbqt
 OpenBabel03212202153D

 24 27  0  0  1  0  0  0  0  0999 V2000
   19.2100   36.0130   70.7640 S   0  0  0  0  0  0  0  0  0  0  0  0
   18.2450   36.9980   69.6250 C   0  0  1  0  0  3  0  0  0  0  0  0
   17.0860   37.5510   69.4780 N   0  0  0  0  0  0  0  0  0  0  0  0
   16.9830   38.2310   68.2420 C   0  0  0  0  0  3  0  0  0  0  0  0
   18.3100   38.0260   67.5880 C   0  0  0  0  0  3  0  0  0  0  0  0
   19.1090   37.2150   68.5370 N   0  0  0  0  0  0  0  0  0  0  0  0
   20.3860   36.6490   68.6340 C   0  0  0  0  0  0  0  0  0  0  0  0
   20.6620   35.9680   69.7230 C   0  0  0  0  0  3  0  0  0  0  0  0
   16.0510   37.4530   70.5230 C   0  0  0  0  0  2  0  0  0  0  0  0
   14.9540   36.6360   69.9660 C   0  0  0  0  0  0  0  0  0  0  0  0
   14.1500   37.1070   69.1370 O   0  0  0  0  0  0  0  0  0  0  0  0
   14.7920   35.2500   70.3830 C   0  0  0  0  0  0  0  0  0  0  0  0
   13.7080   34.4890   69.9410 C   0  0  0  0  0  3  0  0  0  0  0  0
   13.5260   33.1740   70.3280 C   0  0  0  0  0  3  0  0  0  0  0  0
   14.4550   32.6250   71.1720 C   0  0  0  0  0  0  0  0  0  0  0  0
   15.5460   33.3370   71.6360 C   0  0  0  0  0  3  0  0  0  0  0  0
   14.1930   30.8000   71.7010 Br  0  0  0  0  0  0  0  0  0  0  0  0
   15.7080   34.6640   71.2310 C   0  0  0  0  0  3  0  0  0  0  0  0
   21.4540   36.7800   67.5890 C   0  0  0  0  0  0  0  0  0  0  0  0
   22.1030   35.6770   67.0830 C   0  0  0  0  0  3  0  0  0  0  0  0
   23.0930   35.7410   66.1250 C   0  0  0  0  0  3  0  0  0  0  0  0
   23.4850   36.9590   65.6210 C   0  0  0  0  0  3  0  0  0  0  0  0
   22.8550   38.0700   66.1080 C   0  0  0  0  0  3  0  0  0  0  0  0
   21.8460   37.9930   67.0860 C   0  0  0  0  0  3  0  0  0  0  0  0
  2  1  1  1  0  0  0
  3  2  1  0  0  0  0
  3  9  1  0  0  0  0
  4  3  1  0  0  0  0
  5  4  2  0  0  0  0
  5  6  1  0  0  0  0
  6  7  1  0  0  0  0
  6  2  1  0  0  0  0
  7  8  2  0  0  0  0
  8  1  1  0  0  0  0
 10 12  1  0  0  0  0
 10  9  1  0  0  0  0
 11 10  2  0  0  0  0
 12 18  1  0  0  0  0
 13 14  1  0  0  0  0
 13 12  2  0  0  0  0
 14 15  2  0  0  0  0
 15 16  1  0  0  0  0
 15 17  1  0  0  0  0
 18 16  2  0  0  0  0
 19  7  1  0  0  0  0
 20 19  2  0  0  0  0
 21 20  1  0  0  0  0
 22 23  1  0  0  0  0
 22 21  2  0  0  0  0
 23 24  2  0  0  0  0
 24 19  1  0  0  0  0
M  END
>  <Pose>
1

>  <Score>
-8.271

$$$$
