/Users/jonathanwahrer/Desktop/Msc/3_Semester/Drug_Design_Praktikum/waehrer_HTS_screening/HTS_experiment/out/docking_results/vina_output/4x21/1266_docked.pdbqt
 OpenBabel03212202153D

 28 31  0  0  1  0  0  0  0  0999 V2000
   16.9430   37.4110   70.2360 C   0  0  2  0  0  3  0  0  0  0  0  0
   16.4720   37.7560   68.9010 N   0  0  0  0  0  0  0  0  0  0  0  0
   17.3950   38.0230   67.9010 C   0  0  0  0  0  2  0  0  0  0  0  0
   18.7810   37.4180   67.9880 C   0  0  0  0  0  2  0  0  0  0  0  0
   19.1980   37.1570   69.2960 N   0  0  0  0  0  0  0  0  0  0  0  0
   18.3800   37.6170   70.3780 C   0  0  0  0  0  2  0  0  0  0  0  0
   20.3750   36.4640   69.6800 C   0  0  0  0  0  0  0  0  0  0  0  0
   20.5700   36.5120   70.9770 O   0  0  0  0  0  0  0  0  0  0  0  0
   15.7150   37.1070   68.6050 H   0  0  0  0  0  0  0  0  0  0  0  0
   21.3570   35.7380   68.9580 C   0  0  0  0  0  0  0  0  0  0  0  0
   21.4790   34.3560   69.2420 C   0  0  0  0  0  3  0  0  0  0  0  0
   22.2800   33.5720   68.5200 N   0  0  0  0  0  0  0  0  0  0  0  0
   23.0000   34.0470   67.5030 C   0  0  0  0  0  0  0  0  0  0  0  0
   22.9240   35.3750   67.1810 C   0  0  0  0  0  0  0  0  0  0  0  0
   23.8380   33.2090   66.7590 O   0  0  0  0  0  0  0  0  0  0  0  0
   22.0990   36.2290   67.9110 C   0  0  0  0  0  3  0  0  0  0  0  0
   23.6650   35.8890   66.0700 N   0  0  0  0  0  0  0  0  0  0  0  0
   24.4770   34.9870   65.3170 C   0  0  0  0  0  0  0  0  0  0  0  0
   23.6210   36.8830   65.8010 H   0  0  0  0  0  0  0  0  0  0  0  0
   24.8160   35.1680   64.1300 O   0  0  0  0  0  0  0  0  0  0  0  0
   24.9420   33.7480   66.0130 C   0  0  0  0  0  2  0  0  0  0  0  0
   16.5030   35.9840   70.4320 C   0  0  0  0  0  0  0  0  0  0  0  0
   15.1330   35.7040   70.3060 C   0  0  0  0  0  0  0  0  0  0  0  0
   14.0400   37.0870   70.0860 Cl  0  0  0  0  0  0  0  0  0  0  0  0
   14.6180   34.4270   70.3480 C   0  0  0  0  0  3  0  0  0  0  0  0
   15.4850   33.3540   70.5250 C   0  0  0  0  0  3  0  0  0  0  0  0
   16.8350   33.6320   70.6490 C   0  0  0  0  0  3  0  0  0  0  0  0
   17.3390   34.9200   70.6040 C   0  0  0  0  0  3  0  0  0  0  0  0
  1  6  1  0  0  0  0
  1 22  1  6  0  0  0
  2  1  1  0  0  0  0
  3  4  1  0  0  0  0
  3  2  1  0  0  0  0
  4  5  1  0  0  0  0
  5  7  1  0  0  0  0
  5  6  1  0  0  0  0
  7  8  2  0  0  0  0
  9  2  1  0  0  0  0
 10 11  2  0  0  0  0
 10  7  1  0  0  0  0
 12 11  1  0  0  0  0
 13 12  2  0  0  0  0
 14 13  1  0  0  0  0
 14 16  2  0  0  0  0
 15 13  1  0  0  0  0
 16 10  1  0  0  0  0
 17 14  1  0  0  0  0
 18 21  1  0  0  0  0
 18 17  1  0  0  0  0
 19 17  1  0  0  0  0
 20 18  2  0  0  0  0
 21 15  1  0  0  0  0
 22 28  1  0  0  0  0
 23 25  1  0  0  0  0
 23 22  2  0  0  0  0
 24 23  1  0  0  0  0
 25 26  2  0  0  0  0
 26 27  1  0  0  0  0
 28 27  2  0  0  0  0
M  END
>  <Pose>
1

>  <Score>
-9.092

$$$$
