/Users/jonathanwahrer/Desktop/Msc/3_Semester/Drug_Design_Praktikum/waehrer_HTS_screening/HTS_experiment/out/docking_results/vina_output/4x21/1280_docked.pdbqt
 OpenBabel03212202163D

 35 38  0  0  1  0  0  0  0  0999 V2000
   15.4820   32.8300   72.6590 C   0  0  1  0  0  3  0  0  0  0  0  0
   14.8960   31.5120   72.5110 N   0  0  0  0  0  0  0  0  0  0  0  0
   15.5530   30.8890   71.4210 C   0  0  0  0  0  0  0  0  0  0  0  0
   15.0740   30.0000   70.7090 O   0  0  0  0  0  0  0  0  0  0  0  0
   16.8860   31.5110   71.3260 C   0  0  0  0  0  0  0  0  0  0  0  0
   17.7970   31.2500   70.5030 O   0  0  0  0  0  0  0  0  0  0  0  0
   16.9220   32.4960   72.3990 C   0  0  0  0  0  0  0  0  0  0  0  0
   18.0170   32.9360   73.0030 C   0  0  0  0  0  0  0  0  0  0  0  0
   17.8020   33.8590   74.0540 O   0  0  0  0  0  1  0  0  0  0  0  0
   14.9050   33.7600   71.6770 C   0  0  0  0  0  0  0  0  0  0  0  0
   15.5840   34.9210   71.3340 C   0  0  0  0  0  3  0  0  0  0  0  0
   15.0720   35.8130   70.3860 C   0  0  0  0  0  0  0  0  0  0  0  0
   16.0390   37.4110   69.9350 Br  0  0  0  0  0  0  0  0  0  0  0  0
   13.8740   35.5530   69.7710 C   0  0  0  0  0  3  0  0  0  0  0  0
   13.1910   34.4070   70.1000 C   0  0  0  0  0  3  0  0  0  0  0  0
   13.7150   33.5330   71.0430 C   0  0  0  0  0  3  0  0  0  0  0  0
   19.3700   32.5240   72.6440 C   0  0  0  0  0  0  0  0  0  0  0  0
   20.1540   33.1620   71.7300 C   0  0  0  0  0  0  0  0  0  0  0  0
   21.4300   32.6680   71.4070 C   0  0  0  0  0  3  0  0  0  0  0  0
   19.6940   34.4190   71.0940 C   0  0  0  0  0  1  0  0  0  0  0  0
   21.9500   31.5390   71.9810 C   0  0  0  0  0  0  0  0  0  0  0  0
   21.1590   30.8930   72.9070 C   0  0  0  0  0  3  0  0  0  0  0  0
   19.9140   31.3660   73.2300 C   0  0  0  0  0  3  0  0  0  0  0  0
   23.2150   31.0450   71.6650 O   0  0  0  0  0  0  0  0  0  0  0  0
   24.0130   31.6840   70.7010 C   0  0  0  0  0  1  0  0  0  0  0  0
   13.8360   30.9910   73.3480 C   0  0  0  0  0  2  0  0  0  0  0  0
   14.3280   30.1900   74.5120 C   0  0  0  0  0  2  0  0  0  0  0  0
   14.2200   28.7190   74.3790 C   0  0  0  0  0  2  0  0  0  0  0  0
   15.3300   28.0720   73.7750 N   0  0  0  0  0  4  0  0  0  0  0  0
   16.6310   28.6250   74.1870 C   0  0  0  0  0  2  0  0  0  0  0  0
   17.6020   28.2410   73.0680 C   0  0  0  0  0  2  0  0  0  0  0  0
   17.0610   27.3010   72.2100 O   0  0  0  0  0  0  0  0  0  0  0  0
   16.5400   26.2190   72.9190 C   0  0  0  0  0  2  0  0  0  0  0  0
   15.4300   26.6630   73.8890 C   0  0  0  0  0  2  0  0  0  0  0  0
   15.2780   28.2870   72.7330 H   0  0  0  0  0  0  0  0  0  0  0  0
  1 10  1  6  0  0  0
  2  1  1  0  0  0  0
  2 26  1  0  0  0  0
  3  2  1  0  0  0  0
  4  3  2  0  0  0  0
  5  3  1  0  0  0  0
  5  7  1  0  0  0  0
  6  5  2  0  0  0  0
  7  1  1  0  0  0  0
  7  8  2  0  0  0  0
  8  9  1  0  0  0  0
 11 10  1  0  0  0  0
 12 11  2  0  0  0  0
 13 12  1  0  0  0  0
 14 15  2  0  0  0  0
 14 12  1  0  0  0  0
 15 16  1  0  0  0  0
 16 10  2  0  0  0  0
 17  8  1  0  0  0  0
 17 23  1  0  0  0  0
 18 17  2  0  0  0  0
 19 18  1  0  0  0  0
 19 21  2  0  0  0  0
 20 18  1  0  0  0  0
 21 22  1  0  0  0  0
 22 23  2  0  0  0  0
 24 21  1  0  0  0  0
 25 24  1  0  0  0  0
 26 27  1  0  0  0  0
 28 27  1  0  0  0  0
 29 34  1  0  0  0  0
 29 30  1  0  0  0  0
 29 28  1  0  0  0  0
 31 30  1  0  0  0  0
 32 33  1  0  0  0  0
 32 31  1  0  0  0  0
 33 34  1  0  0  0  0
 35 29  1  0  0  0  0
M  END
>  <Pose>
1

>  <Score>
-8.573

$$$$
