/Users/jonathanwahrer/Desktop/Msc/3_Semester/Drug_Design_Praktikum/waehrer_HTS_screening/HTS_experiment/out/docking_results/vina_output/4x21/1282_docked.pdbqt
 OpenBabel03212202163D

 30 33  0  0  1  0  0  0  0  0999 V2000
   20.9870   37.1410   67.9900 C   0  0  2  0  0  3  0  0  0  0  0  0
   21.4490   36.1330   66.9550 C   0  0  0  0  0  2  0  0  0  0  0  0
   22.8140   36.5430   66.6910 N   0  0  0  0  0  0  0  0  0  0  0  0
   23.2400   37.5630   67.6270 C   0  0  1  0  0  3  0  0  0  0  0  0
   22.2460   37.3640   68.7790 C   0  0  0  0  0  2  0  0  0  0  0  0
   24.6130   37.2720   68.0400 C   0  0  0  0  0  0  0  0  0  0  0  0
   24.9270   37.1910   69.2360 O   0  0  0  0  0  0  0  0  0  0  0  0
   25.5850   37.0850   67.0240 N   0  0  0  0  0  0  0  0  0  0  0  0
   25.1720   36.6100   65.7230 C   0  0  1  0  0  3  0  0  0  0  0  0
   23.7710   36.1310   65.7050 C   0  0  0  0  0  0  0  0  0  0  0  0
   23.3960   35.3370   64.8030 O   0  0  0  0  0  0  0  0  0  0  0  0
   26.6010   37.2780   67.1750 H   0  0  0  0  0  0  0  0  0  0  0  0
   19.9020   36.6140   68.7990 N   0  0  0  0  0  0  0  0  0  0  0  0
   18.6800   37.3140   68.7820 C   0  0  0  0  0  0  0  0  0  0  0  0
   18.5690   38.3770   68.0660 O   0  0  0  0  0  0  0  0  0  0  0  0
   19.9990   35.7660   69.3740 H   0  0  0  0  0  0  0  0  0  0  0  0
   17.5270   36.8780   69.5510 C   0  0  0  0  0  0  0  0  0  0  0  0
   17.6040   35.7470   70.3550 C   0  0  0  0  0  3  0  0  0  0  0  0
   16.5230   35.3350   71.0840 C   0  0  0  0  0  0  0  0  0  0  0  0
   16.6430   33.7750   72.1860 Br  0  0  0  0  0  0  0  0  0  0  0  0
   15.3390   36.0150   71.0520 C   0  0  0  0  0  3  0  0  0  0  0  0
   15.2600   37.1340   70.2600 C   0  0  0  0  0  3  0  0  0  0  0  0
   16.3500   37.5590   69.5170 C   0  0  0  0  0  3  0  0  0  0  0  0
   25.4430   37.6140   64.6240 C   0  0  0  0  0  2  0  0  0  0  0  0
   25.1230   38.9990   65.0090 C   0  0  0  0  0  0  0  0  0  0  0  0
   23.8640   39.5110   64.7500 C   0  0  0  0  0  3  0  0  0  0  0  0
   23.5570   40.8030   65.1080 C   0  0  0  0  0  3  0  0  0  0  0  0
   24.4630   41.6410   65.7290 C   0  0  0  0  0  3  0  0  0  0  0  0
   25.7190   41.1340   65.9880 C   0  0  0  0  0  3  0  0  0  0  0  0
   26.0450   39.8380   65.6370 C   0  0  0  0  0  3  0  0  0  0  0  0
  1  5  1  0  0  0  0
  1 13  1  1  0  0  0
  2  1  1  0  0  0  0
  3  2  1  0  0  0  0
  3  4  1  0  0  0  0
  4  6  1  0  0  0  0
  4  5  1  1  0  0  0
  6  7  2  0  0  0  0
  8 12  1  0  0  0  0
  8  6  1  0  0  0  0
  9 24  1  6  0  0  0
  9  8  1  0  0  0  0
 10  9  1  0  0  0  0
 10  3  1  0  0  0  0
 11 10  2  0  0  0  0
 13 16  1  0  0  0  0
 14 13  1  0  0  0  0
 14 17  1  0  0  0  0
 15 14  2  0  0  0  0
 17 18  1  0  0  0  0
 18 19  2  0  0  0  0
 19 20  1  0  0  0  0
 21 19  1  0  0  0  0
 22 21  2  0  0  0  0
 23 17  2  0  0  0  0
 23 22  1  0  0  0  0
 24 25  1  0  0  0  0
 25 30  1  0  0  0  0
 26 25  2  0  0  0  0
 26 27  1  0  0  0  0
 27 28  2  0  0  0  0
 28 29  1  0  0  0  0
 30 29  2  0  0  0  0
M  END
>  <Pose>
1

>  <Score>
-8.656

$$$$
