/Users/jonathanwahrer/Desktop/Msc/3_Semester/Drug_Design_Praktikum/waehrer_HTS_screening/HTS_experiment/out/docking_results/vina_output/4x21/1285_docked.pdbqt
 OpenBabel03212202173D

 34 37  0  0  1  0  0  0  0  0999 V2000
   16.4840   32.8740   72.6830 C   0  0  1  0  0  3  0  0  0  0  0  0
   15.9860   31.5120   72.6870 N   0  0  0  0  0  0  0  0  0  0  0  0
   16.4570   30.8640   71.4850 C   0  0  0  0  0  0  0  0  0  0  0  0
   15.9610   29.8920   70.9030 O   0  0  0  0  0  0  0  0  0  0  0  0
   17.6510   31.6130   71.1060 C   0  0  0  0  0  0  0  0  0  0  0  0
   18.4160   31.4290   70.1120 O   0  0  0  0  0  0  0  0  0  0  0  0
   17.8520   32.6680   72.0850 C   0  0  0  0  0  0  0  0  0  0  0  0
   18.9610   33.3360   72.3640 C   0  0  0  0  0  0  0  0  0  0  0  0
   18.8770   34.3760   73.3330 O   0  0  0  0  0  1  0  0  0  0  0  0
   15.7010   33.8110   71.8670 C   0  0  0  0  0  0  0  0  0  0  0  0
   16.3230   34.9930   71.4560 C   0  0  0  0  0  3  0  0  0  0  0  0
   15.6530   35.9010   70.6960 C   0  0  0  0  0  0  0  0  0  0  0  0
   16.5220   37.5110   70.1450 Br  0  0  0  0  0  0  0  0  0  0  0  0
   14.3520   35.6800   70.3140 C   0  0  0  0  0  3  0  0  0  0  0  0
   13.7120   34.5270   70.7010 C   0  0  0  0  0  3  0  0  0  0  0  0
   14.3960   33.5990   71.4780 C   0  0  0  0  0  3  0  0  0  0  0  0
   20.2150   33.0250   71.7250 C   0  0  0  0  0  0  0  0  0  0  0  0
   20.7510   33.5780   70.6160 N   0  0  0  0  0  0  0  0  0  0  0  0
   21.9610   33.0080   70.3940 C   0  0  0  0  0  0  0  0  0  0  0  0
   20.3360   34.5070   69.7380 C   0  0  0  0  0  3  0  0  0  0  0  0
   22.2080   32.0850   71.3650 N   0  0  0  0  0  0  0  0  0  0  0  0
   22.7860   33.3170   69.3440 C   0  0  0  0  0  0  0  0  0  0  0  0
   21.1260   32.1050   72.1780 C   0  0  0  0  0  0  0  0  0  0  0  0
   20.9720   31.2410   73.3810 C   0  0  0  0  0  1  0  0  0  0  0  0
   22.3520   34.2720   68.4510 C   0  0  0  0  0  3  0  0  0  0  0  0
   24.1100   32.6600   69.1500 C   0  0  0  0  0  1  0  0  0  0  0  0
   21.1190   34.8530   68.6700 C   0  0  0  0  0  3  0  0  0  0  0  0
   15.1550   30.8920   73.7050 C   0  0  0  0  0  2  0  0  0  0  0  0
   13.7240   30.7400   73.3190 C   0  0  0  0  0  2  0  0  0  0  0  0
   12.7490   30.7980   74.4680 C   0  0  0  0  0  2  0  0  0  0  0  0
   12.1550   29.4970   74.6700 N   0  0  0  0  0  4  0  0  0  0  0  0
   12.8610   28.7730   75.7100 C   0  0  0  0  0  1  0  0  0  0  0  0
   10.7970   29.6820   75.1440 C   0  0  0  0  0  1  0  0  0  0  0  0
   12.0840   28.9470   73.7870 H   0  0  0  0  0  0  0  0  0  0  0  0
  1 10  1  6  0  0  0
  1  2  1  0  0  0  0
  2 28  1  0  0  0  0
  3  2  1  0  0  0  0
  4  3  2  0  0  0  0
  5  3  1  0  0  0  0
  5  7  1  0  0  0  0
  6  5  2  0  0  0  0
  7  8  2  0  0  0  0
  7  1  1  0  0  0  0
  8  9  1  0  0  0  0
 11 10  2  0  0  0  0
 12 11  1  0  0  0  0
 13 12  1  0  0  0  0
 14 12  2  0  0  0  0
 14 15  1  0  0  0  0
 15 16  2  0  0  0  0
 16 10  1  0  0  0  0
 17 23  2  0  0  0  0
 17  8  1  0  0  0  0
 18 17  1  0  0  0  0
 19 18  1  0  0  0  0
 19 21  2  0  0  0  0
 20 18  1  0  0  0  0
 21 23  1  0  0  0  0
 22 19  1  0  0  0  0
 23 24  1  0  0  0  0
 25 27  1  0  0  0  0
 25 22  2  0  0  0  0
 26 22  1  0  0  0  0
 27 20  2  0  0  0  0
 29 28  1  0  0  0  0
 29 30  1  0  0  0  0
 30 31  1  0  0  0  0
 31 33  1  0  0  0  0
 31 32  1  0  0  0  0
 34 31  1  0  0  0  0
M  END
>  <Pose>
1

>  <Score>
-9.306

$$$$
