/Users/jonathanwahrer/Desktop/Msc/3_Semester/Drug_Design_Praktikum/waehrer_HTS_screening/HTS_experiment/out/docking_results/vina_output/4x21/1300_docked.pdbqt
 OpenBabel03212202183D

 22 25  0  0  1  0  0  0  0  0999 V2000
   17.9840   33.0190   71.7780 N   0  0  0  0  0  0  0  0  0  0  0  0
   17.6940   31.7920   71.1340 C   0  0  0  0  0  0  0  0  0  0  0  0
   18.3650   31.2480   70.2330 O   0  0  0  0  0  0  0  0  0  0  0  0
   16.4490   31.2060   71.6750 C   0  0  2  0  0  3  0  0  0  0  0  0
   15.3300   31.6320   70.7490 C   0  0  2  0  0  3  0  0  0  0  0  0
   15.2080   32.9960   71.1270 O   0  0  0  0  0  0  0  0  0  0  0  0
   14.8850   32.7500   72.4880 C   0  0  2  0  0  3  0  0  0  0  0  0
   16.1300   32.0240   72.9230 C   0  0  2  0  0  3  0  0  0  0  0  0
   17.2350   33.0070   72.9960 C   0  0  0  0  0  0  0  0  0  0  0  0
   17.4890   33.7460   74.0020 O   0  0  0  0  0  0  0  0  0  0  0  0
   13.7350   31.8380   72.3110 C   0  0  0  0  0  2  0  0  0  0  0  0
   14.0270   31.1130   71.2350 C   0  0  0  0  0  2  0  0  0  0  0  0
   18.8220   34.0960   71.3890 C   0  0  0  0  0  0  0  0  0  0  0  0
   20.1780   34.0780   71.6230 C   0  0  0  0  0  0  0  0  0  0  0  0
   20.8800   32.5190   72.4880 Br  0  0  0  0  0  0  0  0  0  0  0  0
   21.0210   35.1240   71.2580 C   0  0  0  0  0  3  0  0  0  0  0  0
   20.5160   36.2470   70.6320 C   0  0  0  0  0  0  0  0  0  0  0  0
   19.1510   36.2670   70.3970 C   0  0  0  0  0  3  0  0  0  0  0  0
   18.3180   35.2340   70.7570 C   0  0  0  0  0  3  0  0  0  0  0  0
   21.3520   37.3320   70.2500 N   0  0  0  0  0  0  0  0  0  0  0  0
   21.3410   37.6930   69.0600 O   0  0  0  0  0  0  0  0  0  0  0  0
   22.1730   38.0110   71.1080 O   0  0  0  0  0  0  0  0  0  0  0  0
  1  9  1  0  0  0  0
  2  1  1  0  0  0  0
  3  2  2  0  0  0  0
  4  2  1  6  0  0  0
  4  8  1  0  0  0  0
  5  6  1  0  0  0  0
  5 12  1  1  0  0  0
  5  4  1  0  0  0  0
  6  7  1  0  0  0  0
  7 11  1  6  0  0  0
  7  8  1  0  0  0  0
  8  9  1  6  0  0  0
  9 10  2  0  0  0  0
 12 11  1  0  0  0  0
 13 14  1  0  0  0  0
 13  1  1  0  0  0  0
 14 15  1  0  0  0  0
 16 14  2  0  0  0  0
 17 16  1  0  0  0  0
 18 17  2  0  0  0  0
 18 19  1  0  0  0  0
 19 13  2  0  0  0  0
 20 17  1  0  0  0  0
 20 22  2  0  0  0  0
 21 20  2  0  0  0  0
M  END
>  <Pose>
1

>  <Score>
-7.305

$$$$
