/Users/jonathanwahrer/Desktop/Msc/3_Semester/Drug_Design_Praktikum/waehrer_HTS_screening/HTS_experiment/out/docking_results/vina_output/4x21/1310_docked.pdbqt
 OpenBabel03212202183D

 32 35  0  0  1  0  0  0  0  0999 V2000
   19.8800   35.8170   70.8550 C   0  0  1  0  0  3  0  0  0  0  0  0
   19.7640   34.4670   71.3630 N   0  0  0  0  0  0  0  0  0  0  0  0
   19.8480   33.5990   70.2460 C   0  0  0  0  0  0  0  0  0  0  0  0
   19.3630   32.4470   70.1240 O   0  0  0  0  0  0  0  0  0  0  0  0
   20.6260   34.3160   69.2360 C   0  0  0  0  0  0  0  0  0  0  0  0
   20.9550   33.9470   68.0850 O   0  0  0  0  0  0  0  0  0  0  0  0
   20.9660   35.6110   69.8460 C   0  0  0  0  0  0  0  0  0  0  0  0
   21.9850   36.3680   69.5060 C   0  0  0  0  0  0  0  0  0  0  0  0
   22.1160   37.5930   70.1730 O   0  0  0  0  0  1  0  0  0  0  0  0
   18.6420   36.3560   70.2840 C   0  0  0  0  0  0  0  0  0  0  0  0
   17.3740   35.9650   70.6340 C   0  0  0  0  0  3  0  0  0  0  0  0
   16.2270   36.5180   70.0620 C   0  0  0  0  0  0  0  0  0  0  0  0
   14.4830   35.9140   70.6060 Br  0  0  0  0  0  0  0  0  0  0  0  0
   16.3450   37.4990   69.1020 C   0  0  0  0  0  3  0  0  0  0  0  0
   17.6050   37.9110   68.7310 C   0  0  0  0  0  3  0  0  0  0  0  0
   18.7270   37.3570   69.3030 C   0  0  0  0  0  3  0  0  0  0  0  0
   22.9650   35.9670   68.4770 C   0  0  0  0  0  0  0  0  0  0  0  0
   23.9890   35.1740   68.5900 O   0  0  0  0  0  0  0  0  0  0  0  0
   24.6340   35.0510   67.4520 C   0  0  0  0  0  0  0  0  0  0  0  0
   23.9970   35.8200   66.4910 C   0  0  0  0  0  0  0  0  0  0  0  0
   25.7560   34.3420   67.0610 C   0  0  0  0  0  3  0  0  0  0  0  0
   22.9360   36.3950   67.1630 C   0  0  0  0  0  3  0  0  0  0  0  0
   24.4790   35.8640   65.2000 C   0  0  0  0  0  3  0  0  0  0  0  0
   25.5950   35.1590   64.8110 C   0  0  0  0  0  3  0  0  0  0  0  0
   26.2390   34.3890   65.7550 C   0  0  0  0  0  3  0  0  0  0  0  0
   19.6150   33.9890   72.7360 C   0  0  0  0  0  2  0  0  0  0  0  0
   18.1470   33.8530   73.0940 C   0  0  0  0  0  2  0  0  0  0  0  0
   17.7160   32.4190   73.2480 C   0  0  0  0  0  2  0  0  0  0  0  0
   17.2290   31.9260   72.0000 N   0  0  0  0  0  4  0  0  0  0  0  0
   17.0220   30.4930   71.9900 C   0  0  0  0  0  1  0  0  0  0  0  0
   16.0280   32.5430   71.5240 C   0  0  0  0  0  1  0  0  0  0  0  0
   17.9820   32.1150   71.2730 H   0  0  0  0  0  0  0  0  0  0  0  0
  1 10  1  6  0  0  0
  1  2  1  0  0  0  0
  2 26  1  0  0  0  0
  3  2  1  0  0  0  0
  4  3  2  0  0  0  0
  5  7  1  0  0  0  0
  5  3  1  0  0  0  0
  6  5  2  0  0  0  0
  7  1  1  0  0  0  0
  8  7  2  0  0  0  0
  8  9  1  0  0  0  0
 10 11  1  0  0  0  0
 12 13  1  0  0  0  0
 12 11  2  0  0  0  0
 14 12  1  0  0  0  0
 15 14  2  0  0  0  0
 15 16  1  0  0  0  0
 16 10  2  0  0  0  0
 17 18  1  0  0  0  0
 17  8  1  0  0  0  0
 19 18  1  0  0  0  0
 20 22  1  0  0  0  0
 20 19  2  0  0  0  0
 21 19  1  0  0  0  0
 22 17  2  0  0  0  0
 23 20  1  0  0  0  0
 24 23  2  0  0  0  0
 24 25  1  0  0  0  0
 25 21  2  0  0  0  0
 26 27  1  0  0  0  0
 27 28  1  0  0  0  0
 29 28  1  0  0  0  0
 30 29  1  0  0  0  0
 31 29  1  0  0  0  0
 32 29  1  0  0  0  0
M  END
>  <Pose>
1

>  <Score>
-8.398

$$$$
