/Users/jonathanwahrer/Desktop/Msc/3_Semester/Drug_Design_Praktikum/waehrer_HTS_screening/HTS_experiment/out/docking_results/vina_output/4x21/1314_docked.pdbqt
 OpenBabel03212202183D

 32 35  0  0  0  0  0  0  0  0999 V2000
   18.6520   32.3330   70.9930 C   0  0  0  0  0  0  0  0  0  0  0  0
   19.0960   31.2110   71.4720 N   0  0  0  0  0  0  0  0  0  0  0  0
   18.1050   30.4930   71.8780 N   0  0  0  0  0  0  0  0  0  0  0  0
   16.8850   31.1260   71.6840 N   0  0  0  0  0  0  0  0  0  0  0  0
   17.1880   32.2780   71.1280 C   0  0  0  0  0  0  0  0  0  0  0  0
   19.3110   33.5300   70.6610 C   0  0  0  0  0  0  0  0  0  0  0  0
   19.2370   34.7800   71.5660 N   0  0  0  0  0  0  0  0  0  0  0  0
   18.7130   34.6430   72.4270 H   0  0  0  0  0  0  0  0  0  0  0  0
   19.9810   33.7130   69.6510 O   0  0  0  0  0  0  0  0  0  0  0  0
   19.8650   35.6870   70.8950 N   0  0  0  0  0  2  0  0  0  0  0  0
   20.1170   36.8240   70.4600 C   0  0  0  0  0  2  0  0  0  0  0  0
   19.1340   37.1560   69.3100 C   0  0  0  0  0  0  0  0  0  0  0  0
   19.6800   37.2650   68.0540 C   0  0  0  0  0  0  0  0  0  0  0  0
   21.4480   36.6800   67.7450 Br  0  0  0  0  0  0  0  0  0  0  0  0
   18.9120   37.8750   67.0570 C   0  0  0  0  0  3  0  0  0  0  0  0
   17.6200   38.3320   67.3340 C   0  0  0  0  0  3  0  0  0  0  0  0
   17.0980   38.1860   68.5750 C   0  0  0  0  0  3  0  0  0  0  0  0
   17.9020   37.5830   69.5920 C   0  0  0  0  0  3  0  0  0  0  0  0
   16.4690   33.3780   70.4910 C   0  0  0  0  0  2  0  0  0  0  0  0
   15.4670   34.1490   70.9270 N   0  0  0  0  0  0  0  0  0  0  0  0
   15.2150   35.2280   69.9830 C   0  0  0  0  0  2  0  0  0  0  0  0
   14.3080   33.9110   71.6110 C   0  0  0  0  0  2  0  0  0  0  0  0
   13.7310   35.2900   69.7780 C   0  0  0  0  0  2  0  0  0  0  0  0
   13.1500   34.1520   70.6110 C   0  0  0  0  0  2  0  0  0  0  0  0
   15.7450   30.4660   72.1410 C   0  0  0  0  0  0  0  0  0  0  0  0
   14.5310   30.5500   71.4600 N   0  0  0  0  0  0  0  0  0  0  0  0
   13.6420   29.9540   72.1500 O   0  0  0  0  0  0  0  0  0  0  0  0
   14.1220   29.4700   73.2240 N   0  0  0  0  0  0  0  0  0  0  0  0
   15.4490   29.7800   73.2450 C   0  0  0  0  0  0  0  0  0  0  0  0
   16.2690   29.3840   74.3520 N   0  0  0  0  0  0  0  0  0  0  0  0
   16.0370   28.4920   74.8110 H   0  0  0  0  0  0  0  0  0  0  0  0
   17.0040   29.9940   74.7020 H   0  0  0  0  0  0  0  0  0  0  0  0
  1  5  2  0  0  0  0
  1  2  1  0  0  0  0
  2  3  2  0  0  0  0
  4  3  1  0  0  0  0
  4 25  1  0  0  0  0
  5  4  1  0  0  0  0
  6  1  1  0  0  0  0
  6  7  1  0  0  0  0
  7  8  1  0  0  0  0
  9  6  2  0  0  0  0
 10  7  1  0  0  0  0
 11 10  1  0  0  0  0
 12 18  1  0  0  0  0
 12 11  1  0  0  0  0
 13 12  2  0  0  0  0
 14 13  1  0  0  0  0
 15 16  2  0  0  0  0
 15 13  1  0  0  0  0
 16 17  1  0  0  0  0
 17 18  2  0  0  0  0
 19 20  1  0  0  0  0
 19  5  1  0  0  0  0
 20 22  1  0  0  0  0
 21 20  1  0  0  0  0
 23 21  1  0  0  0  0
 23 24  1  0  0  0  0
 24 22  1  0  0  0  0
 25 29  1  0  0  0  0
 26 25  2  0  0  0  0
 26 27  1  0  0  0  0
 27 28  1  0  0  0  0
 28 29  2  0  0  0  0
 29 30  1  0  0  0  0
 30 32  1  0  0  0  0
 30 31  1  0  0  0  0
M  END
>  <Pose>
1

>  <Score>
-8.776

$$$$
