/Users/jonathanwahrer/Desktop/Msc/3_Semester/Drug_Design_Praktikum/waehrer_HTS_screening/HTS_experiment/out/docking_results/vina_output/4x21/1315_docked.pdbqt
 OpenBabel03212202193D

 30 33  0  0  1  0  0  0  0  0999 V2000
   19.2050   35.3810   70.8390 N   0  0  0  0  0  0  0  0  0  0  0  0
   18.2070   36.1720   70.3270 C   0  0  0  0  0  0  0  0  0  0  0  0
   17.0380   35.7130   70.8600 C   0  0  0  0  0  0  0  0  0  0  0  0
   15.8340   36.3320   70.5090 C   0  0  0  0  0  3  0  0  0  0  0  0
   15.8480   37.3950   69.6320 C   0  0  0  0  0  3  0  0  0  0  0  0
   17.0270   37.8620   69.0930 C   0  0  0  0  0  3  0  0  0  0  0  0
   18.2240   37.2360   69.4510 C   0  0  0  0  0  3  0  0  0  0  0  0
   17.3340   34.6750   71.6730 N   0  0  0  0  0  0  0  0  0  0  0  0
   18.6510   34.4600   71.6720 C   0  0  2  0  0  3  0  0  0  0  0  0
   20.6140   35.5740   70.5690 C   0  0  0  0  0  2  0  0  0  0  0  0
   21.1150   34.7960   69.4300 C   0  0  1  0  0  3  0  0  0  0  0  0
   20.9710   33.4930   69.5230 O   0  0  0  0  0  1  0  0  0  0  0  0
   21.7470   35.2210   68.2080 C   0  0  0  0  0  0  0  0  0  0  0  0
   22.8730   34.6790   67.6590 C   0  0  0  0  0  3  0  0  0  0  0  0
   23.4060   35.1270   66.4850 C   0  0  0  0  0  0  0  0  0  0  0  0
   25.0020   34.3200   65.7420 Br  0  0  0  0  0  0  0  0  0  0  0  0
   22.7990   36.1650   65.8130 C   0  0  0  0  0  3  0  0  0  0  0  0
   21.6610   36.7510   66.3150 C   0  0  0  0  0  3  0  0  0  0  0  0
   21.1570   36.2750   67.4930 C   0  0  0  0  0  3  0  0  0  0  0  0
   19.2900   33.5890   72.4210 N   0  0  0  0  0  0  0  0  0  0  0  0
   19.4300   32.6190   72.1540 H   0  0  0  0  0  0  0  0  0  0  0  0
   19.6410   33.8980   73.3380 H   0  0  0  0  0  0  0  0  0  0  0  0
   16.3090   33.9820   72.4330 C   0  0  0  0  0  2  0  0  0  0  0  0
   15.7120   32.8000   71.7870 C   0  0  0  0  0  2  0  0  0  0  0  0
   16.1360   31.5040   72.1760 N   0  0  0  0  0  0  0  0  0  0  0  0
   15.6530   30.4870   71.2070 C   0  0  0  0  0  2  0  0  0  0  0  0
   14.1690   30.5310   71.0380 C   0  0  0  0  0  2  0  0  0  0  0  0
   13.6090   30.1090   72.2450 O   0  0  0  0  0  0  0  0  0  0  0  0
   14.0110   30.8930   73.2970 C   0  0  0  0  0  2  0  0  0  0  0  0
   15.5010   31.0650   73.4300 C   0  0  0  0  0  2  0  0  0  0  0  0
  1  9  1  0  0  0  0
  2  1  1  0  0  0  0
  2  3  1  0  0  0  0
  3  8  1  0  0  0  0
  4  3  2  0  0  0  0
  5  4  1  0  0  0  0
  6  7  1  0  0  0  0
  6  5  2  0  0  0  0
  7  2  2  0  0  0  0
  8 23  1  0  0  0  0
  9  8  1  0  0  0  0
  9 20  1  1  0  0  0
 10  1  1  0  0  0  0
 11 12  1  6  0  0  0
 11 10  1  0  0  0  0
 13 11  1  0  0  0  0
 14 13  1  0  0  0  0
 15 14  2  0  0  0  0
 16 15  1  0  0  0  0
 17 18  2  0  0  0  0
 17 15  1  0  0  0  0
 18 19  1  0  0  0  0
 19 13  2  0  0  0  0
 20 22  1  0  0  0  0
 21 20  1  0  0  0  0
 24 25  1  0  0  0  0
 24 23  1  0  0  0  0
 25 30  1  0  0  0  0
 26 25  1  0  0  0  0
 27 26  1  0  0  0  0
 27 28  1  0  0  0  0
 28 29  1  0  0  0  0
 29 30  1  0  0  0  0
M  END
>  <Pose>
1

>  <Score>
-8.244

$$$$
