/Users/jonathanwahrer/Desktop/Msc/3_Semester/Drug_Design_Praktikum/waehrer_HTS_screening/HTS_experiment/out/docking_results/vina_output/4x21/1329_docked.pdbqt
 OpenBabel03212202193D

 28 31  0  0  0  0  0  0  0  0999 V2000
   17.2600   37.4490   69.8060 C   0  0  0  0  0  3  0  0  0  0  0  0
   16.4520   36.4490   70.1650 C   0  0  0  0  0  0  0  0  0  0  0  0
   16.8070   35.1190   70.3850 O   0  0  0  0  0  0  0  0  0  0  0  0
   15.7130   34.3810   70.7470 C   0  0  0  0  0  0  0  0  0  0  0  0
   14.5800   35.1860   70.7840 C   0  0  0  0  0  0  0  0  0  0  0  0
   13.3740   34.6040   71.1400 C   0  0  0  0  0  3  0  0  0  0  0  0
   13.3160   33.2640   71.4490 C   0  0  0  0  0  3  0  0  0  0  0  0
   14.4750   32.4870   71.4000 C   0  0  0  0  0  0  0  0  0  0  0  0
   15.6800   33.0360   71.0500 C   0  0  0  0  0  0  0  0  0  0  0  0
   14.3120   31.1490   71.7270 O   0  0  0  0  0  1  0  0  0  0  0  0
   15.0160   36.5430   70.4100 C   0  0  0  0  0  0  0  0  0  0  0  0
   14.2570   37.5430   70.3290 O   0  0  0  0  0  0  0  0  0  0  0  0
   16.8500   32.1630   70.9370 C   0  0  0  0  0  2  0  0  0  0  0  0
   18.0540   32.6420   71.5110 N   0  0  0  0  0  4  0  0  0  0  0  0
   19.1660   32.1570   70.7100 C   0  0  0  0  0  2  0  0  0  0  0  0
   20.3740   31.7510   71.4810 C   0  0  0  0  0  2  0  0  0  0  0  0
   20.1340   30.8830   72.5790 N   0  0  0  0  0  0  0  0  0  0  0  0
   18.7520   30.8340   72.9290 C   0  0  0  0  0  2  0  0  0  0  0  0
   20.9690   31.2630   73.6990 C   0  0  0  0  0  1  0  0  0  0  0  0
   18.1680   32.2050   72.8820 C   0  0  0  0  0  2  0  0  0  0  0  0
   18.0930   33.7040   71.5610 H   0  0  0  0  0  0  0  0  0  0  0  0
   18.6780   37.2290   69.6000 C   0  0  0  0  0  0  0  0  0  0  0  0
   19.1980   37.0890   68.3320 C   0  0  0  0  0  3  0  0  0  0  0  0
   20.5600   36.8650   68.1490 C   0  0  0  0  0  0  0  0  0  0  0  0
   21.2790   36.6600   66.3910 Br  0  0  0  0  0  0  0  0  0  0  0  0
   21.3980   36.7820   69.2500 C   0  0  0  0  0  3  0  0  0  0  0  0
   20.8400   36.9260   70.5000 C   0  0  0  0  0  3  0  0  0  0  0  0
   19.4980   37.1490   70.6990 C   0  0  0  0  0  3  0  0  0  0  0  0
  1  2  2  0  0  0  0
  2  3  1  0  0  0  0
  2 11  1  0  0  0  0
  3  4  1  0  0  0  0
  4  5  2  0  0  0  0
  4  9  1  0  0  0  0
  5  6  1  0  0  0  0
  6  7  2  0  0  0  0
  8  7  1  0  0  0  0
  8 10  1  0  0  0  0
  9  8  2  0  0  0  0
 11  5  1  0  0  0  0
 12 11  2  0  0  0  0
 13  9  1  0  0  0  0
 13 14  1  0  0  0  0
 14 21  1  0  0  0  0
 14 20  1  0  0  0  0
 15 16  1  0  0  0  0
 15 14  1  0  0  0  0
 16 17  1  0  0  0  0
 17 18  1  0  0  0  0
 17 19  1  0  0  0  0
 20 18  1  0  0  0  0
 22  1  1  0  0  0  0
 22 28  1  0  0  0  0
 23 22  2  0  0  0  0
 24 23  1  0  0  0  0
 24 26  2  0  0  0  0
 25 24  1  0  0  0  0
 26 27  1  0  0  0  0
 27 28  2  0  0  0  0
M  END
>  <Pose>
1

>  <Score>
-9.235

$$$$
