/Users/jonathanwahrer/Desktop/Msc/3_Semester/Drug_Design_Praktikum/waehrer_HTS_screening/HTS_experiment/out/docking_results/vina_output/4x21/1341_docked.pdbqt
 OpenBabel03212202193D

 28 31  0  0  0  0  0  0  0  0999 V2000
   23.3890   37.4250   66.5380 C   0  0  0  0  0  0  0  0  0  0  0  0
   23.9110   36.2370   66.1530 N   0  0  0  0  0  0  0  0  0  0  0  0
   23.7320   35.3460   67.1500 C   0  0  0  0  0  0  0  0  0  0  0  0
   23.0990   35.9280   68.1910 N   0  0  0  0  0  0  0  0  0  0  0  0
   22.8920   37.2080   67.8040 C   0  0  0  0  0  3  0  0  0  0  0  0
   24.2950   34.0300   66.7530 C   0  0  0  0  0  3  0  0  0  0  0  0
   24.9290   34.2340   65.4210 C   0  0  0  0  0  3  0  0  0  0  0  0
   24.5910   35.6250   65.0330 C   0  0  0  0  0  3  0  0  0  0  0  0
   22.7110   35.3370   69.4550 C   0  0  0  0  0  2  0  0  0  0  0  0
   21.2340   35.1410   69.4920 C   0  0  0  0  0  0  0  0  0  0  0  0
   20.7600   34.2070   68.8420 O   0  0  0  0  0  0  0  0  0  0  0  0
   20.4770   36.0270   70.2600 N   0  0  0  0  0  0  0  0  0  0  0  0
   20.9440   36.8250   70.8060 H   0  0  0  0  0  0  0  0  0  0  0  0
   19.0660   35.9700   70.4040 C   0  0  0  0  0  0  0  0  0  0  0  0
   18.2880   36.9880   69.8370 C   0  0  0  0  0  3  0  0  0  0  0  0
   16.9370   36.9750   69.9720 C   0  0  0  0  0  3  0  0  0  0  0  0
   16.2930   35.9650   70.6670 C   0  0  0  0  0  0  0  0  0  0  0  0
   17.0600   34.9780   71.2170 C   0  0  0  0  0  3  0  0  0  0  0  0
   18.4550   34.9630   71.0950 C   0  0  0  0  0  3  0  0  0  0  0  0
   14.8140   35.9720   70.8010 C   0  0  0  0  0  2  0  0  0  0  0  0
   14.3920   34.6620   71.4740 C   0  0  0  0  0  1  0  0  0  0  0  0
   23.3320   38.6990   65.8220 C   0  0  0  0  0  0  0  0  0  0  0  0
   22.2390   39.5340   65.9480 C   0  0  0  0  0  3  0  0  0  0  0  0
   22.1590   40.7440   65.2810 C   0  0  0  0  0  3  0  0  0  0  0  0
   23.1750   41.1730   64.4550 C   0  0  0  0  0  0  0  0  0  0  0  0
   23.0800   42.7090   63.6050 Cl  0  0  0  0  0  0  0  0  0  0  0  0
   24.2720   40.3490   64.3190 C   0  0  0  0  0  3  0  0  0  0  0  0
   24.3500   39.1250   64.9960 C   0  0  0  0  0  3  0  0  0  0  0  0
  1  5  2  0  0  0  0
  2  1  1  0  0  0  0
  2  3  1  0  0  0  0
  3  4  1  0  0  0  0
  4  9  1  0  0  0  0
  5  4  1  0  0  0  0
  6  3  2  0  0  0  0
  7  6  1  0  0  0  0
  8  7  2  0  0  0  0
  8  2  1  0  0  0  0
  9 10  1  0  0  0  0
 10 12  1  0  0  0  0
 11 10  2  0  0  0  0
 12 14  1  0  0  0  0
 12 13  1  0  0  0  0
 14 19  1  0  0  0  0
 15 16  1  0  0  0  0
 15 14  2  0  0  0  0
 16 17  2  0  0  0  0
 17 20  1  0  0  0  0
 17 18  1  0  0  0  0
 19 18  2  0  0  0  0
 20 21  1  0  0  0  0
 22 23  1  0  0  0  0
 22  1  1  0  0  0  0
 24 23  2  0  0  0  0
 25 24  1  0  0  0  0
 26 25  1  0  0  0  0
 27 25  2  0  0  0  0
 27 28  1  0  0  0  0
 28 22  2  0  0  0  0
M  END
>  <Pose>
1

>  <Score>
-8.756

$$$$
