/Users/jonathanwahrer/Desktop/Msc/3_Semester/Drug_Design_Praktikum/waehrer_HTS_screening/HTS_experiment/out/docking_results/vina_output/4x21/1343_docked.pdbqt
 OpenBabel03212202203D

 41 44  0  0  1  0  0  0  0  0999 V2000
   18.2760   34.3020   70.9080 C   0  0  0  0  0  0  0  0  0  0  0  0
   17.1420   33.5620   71.0190 N   0  0  0  0  0  0  0  0  0  0  0  0
   16.0720   34.3710   70.8070 C   0  0  0  0  0  0  0  0  0  0  0  0
   14.7480   34.1810   70.7940 N   0  0  0  0  0  0  0  0  0  0  0  0
   13.8830   35.1830   70.5490 C   0  0  0  0  0  0  0  0  0  0  0  0
   14.3680   36.4200   70.3090 N   0  0  0  0  0  0  0  0  0  0  0  0
   15.6710   36.6820   70.3060 C   0  0  0  0  0  0  0  0  0  0  0  0
   16.5530   35.6500   70.5570 C   0  0  0  0  0  0  0  0  0  0  0  0
   17.8700   35.5590   70.6280 N   0  0  0  0  0  0  0  0  0  0  0  0
   19.6080   33.8270   71.0590 N   0  0  0  0  0  0  0  0  0  0  0  0
   19.9320   33.5130   71.9870 H   0  0  0  0  0  0  0  0  0  0  0  0
   20.4260   33.8090   69.9130 N   0  0  0  0  0  0  0  0  0  0  0  0
   21.0790   34.8150   69.4980 C   0  0  0  0  0  3  0  0  0  0  0  0
   21.9340   34.8260   68.3150 C   0  0  0  0  0  0  0  0  0  0  0  0
   21.7780   35.7830   67.3360 C   0  0  0  0  0  0  0  0  0  0  0  0
   20.4220   37.0980   67.5540 Br  0  0  0  0  0  0  0  0  0  0  0  0
   22.5930   35.8010   66.2010 C   0  0  0  0  0  3  0  0  0  0  0  0
   23.5830   34.8590   66.0190 C   0  0  0  0  0  0  0  0  0  0  0  0
   23.7380   33.9010   66.9990 C   0  0  0  0  0  0  0  0  0  0  0  0
   22.9290   33.8940   68.1150 C   0  0  0  0  0  3  0  0  0  0  0  0
   24.4060   34.8610   64.8920 O   0  0  0  0  0  0  0  0  0  0  0  0
   25.3200   35.8770   64.6110 C   0  0  0  0  0  1  0  0  0  0  0  0
   24.7410   32.9560   66.8050 O   0  0  0  0  0  0  0  0  0  0  0  0
   25.9920   32.9930   67.4160 C   0  0  0  0  0  1  0  0  0  0  0  0
   17.0890   32.1620   71.3100 C   0  0  2  0  0  3  0  0  0  0  0  0
   15.9940   31.5120   70.7590 O   0  0  0  0  0  0  0  0  0  0  0  0
   15.7620   30.3710   71.4720 C   0  0  1  0  0  3  0  0  0  0  0  0
   16.5500   30.3930   72.7360 C   0  0  2  0  0  3  0  0  0  0  0  0
   17.0210   31.8480   72.7900 C   0  0  1  0  0  3  0  0  0  0  0  0
   14.2790   30.3360   71.8480 C   0  0  0  0  0  2  0  0  0  0  0  0
   13.6280   31.4590   71.3270 O   0  0  0  0  0  0  0  0  0  0  0  0
   13.6810   31.4790   70.3370 H   0  0  0  0  0  0  0  0  0  0  0  0
   17.7260   29.6290   72.5920 O   0  0  0  0  0  0  0  0  0  0  0  0
   18.4970   30.1940   72.3700 H   0  0  0  0  0  0  0  0  0  0  0  0
   18.2730   31.9370   73.3990 O   0  0  0  0  0  0  0  0  0  0  0  0
   18.9440   31.4350   72.8680 H   0  0  0  0  0  0  0  0  0  0  0  0
   16.2030   37.9520   70.0600 O   0  0  0  0  0  0  0  0  0  0  0  0
   16.8930   38.2820   70.7250 H   0  0  0  0  0  0  0  0  0  0  0  0
   12.4650   34.9610   70.5390 N   0  0  0  0  0  0  0  0  0  0  0  0
   11.9320   34.6590   69.7180 H   0  0  0  0  0  0  0  0  0  0  0  0
   11.9660   35.1260   71.4390 H   0  0  0  0  0  0  0  0  0  0  0  0
  1  2  1  0  0  0  0
  1 10  1  0  0  0  0
  3  2  1  0  0  0  0
  4  3  1  0  0  0  0
  5  4  2  0  0  0  0
  6  5  1  0  0  0  0
  7  6  2  0  0  0  0
  7  8  1  0  0  0  0
  8  9  1  0  0  0  0
  8  3  2  0  0  0  0
  9  1  2  0  0  0  0
 10 11  1  0  0  0  0
 12 10  1  0  0  0  0
 13 12  2  0  0  0  0
 14 13  1  0  0  0  0
 15 16  1  0  0  0  0
 15 14  2  0  0  0  0
 17 15  1  0  0  0  0
 18 17  2  0  0  0  0
 18 19  1  0  0  0  0
 19 20  2  0  0  0  0
 20 14  1  0  0  0  0
 21 18  1  0  0  0  0
 22 21  1  0  0  0  0
 23 19  1  0  0  0  0
 23 24  1  0  0  0  0
 25  2  1  1  0  0  0
 25 29  1  0  0  0  0
 26 25  1  0  0  0  0
 26 27  1  0  0  0  0
 27 30  1  1  0  0  0
 27 28  1  0  0  0  0
 28 33  1  6  0  0  0
 28 29  1  0  0  0  0
 29 35  1  6  0  0  0
 31 30  1  0  0  0  0
 32 31  1  0  0  0  0
 34 33  1  0  0  0  0
 36 35  1  0  0  0  0
 37  7  1  0  0  0  0
 37 38  1  0  0  0  0
 39  5  1  0  0  0  0
 39 41  1  0  0  0  0
 40 39  1  0  0  0  0
M  END
>  <Pose>
1

>  <Score>
-8.234

$$$$
