/Users/jonathanwahrer/Desktop/Msc/3_Semester/Drug_Design_Praktikum/waehrer_HTS_screening/HTS_experiment/out/docking_results/vina_output/4x21/1357_docked.pdbqt
 OpenBabel03212202203D

 24 27  0  0  1  0  0  0  0  0999 V2000
   23.1390   35.4470   66.8040 C   0  0  1  0  0  3  0  0  0  0  0  0
   22.0460   36.1040   67.3690 C   0  0  1  0  0  0  0  0  0  0  0  0
   21.7980   37.0790   68.4670 C   0  0  0  0  0  0  0  0  0  0  0  0
   21.8220   38.2640   67.5740 N   0  0  0  0  0  2  0  0  0  0  0  0
   22.7650   38.0850   66.7030 C   0  0  2  0  0  3  0  0  0  0  0  0
   23.3760   36.8260   66.9930 C   0  0  2  0  0  0  0  0  0  0  0  0
   24.3670   37.0500   68.0880 C   0  0  0  0  0  0  0  0  0  0  0  0
   25.1700   37.2150   68.9420 N   0  0  0  0  0  0  0  0  0  0  0  0
   20.4930   36.8850   68.9330 O   0  0  0  0  0  0  0  0  0  0  0  0
   20.5670   36.7770   70.3080 C   0  0  0  0  0  2  0  0  0  0  0  0
   21.8470   37.5310   70.6250 C   0  0  0  0  0  2  0  0  0  0  0  0
   22.6280   37.1260   69.5140 O   0  0  0  0  0  0  0  0  0  0  0  0
   20.9230   36.2970   66.3830 C   0  0  0  0  0  0  0  0  0  0  0  0
   20.0550   36.4410   65.5940 N   0  0  0  0  0  0  0  0  0  0  0  0
   23.8010   34.4020   67.6280 C   0  0  0  0  0  0  0  0  0  0  0  0
   25.0430   33.9070   67.3190 C   0  0  0  0  0  0  0  0  0  0  0  0
   26.0290   34.5350   65.8100 Br  0  0  0  0  0  0  0  0  0  0  0  0
   25.5890   32.9260   68.1360 C   0  0  0  0  0  3  0  0  0  0  0  0
   24.9060   32.4400   69.2560 C   0  0  0  0  0  3  0  0  0  0  0  0
   23.6640   32.9500   69.5470 C   0  0  0  0  0  3  0  0  0  0  0  0
   23.1230   33.9300   68.7260 C   0  0  0  0  0  3  0  0  0  0  0  0
   23.1190   39.0010   65.6430 N   0  0  0  0  0  0  0  0  0  0  0  0
   23.5230   39.9340   65.8530 H   0  0  0  0  0  0  0  0  0  0  0  0
   22.9750   38.7420   64.6490 H   0  0  0  0  0  0  0  0  0  0  0  0
  1  6  1  0  0  0  0
  1  2  1  0  0  0  0
  1 15  1  1  0  0  0
  2 13  1  6  0  0  0
  2  3  1  0  0  0  0
  3  9  1  0  0  0  0
  3 12  1  0  0  0  0
  4  3  1  0  0  0  0
  5 22  1  1  0  0  0
  5  6  1  0  0  0  0
  5  4  1  0  0  0  0
  6  2  1  0  0  0  0
  6  7  1  1  0  0  0
  7  8  3  0  0  0  0
  9 10  1  0  0  0  0
 10 11  1  0  0  0  0
 12 11  1  0  0  0  0
 14 13  3  0  0  0  0
 15 21  1  0  0  0  0
 16 15  2  0  0  0  0
 16 18  1  0  0  0  0
 17 16  1  0  0  0  0
 18 19  2  0  0  0  0
 19 20  1  0  0  0  0
 21 20  2  0  0  0  0
 22 23  1  0  0  0  0
 24 22  1  0  0  0  0
M  END
>  <Pose>
1

>  <Score>
-6.322

$$$$
