/Users/jonathanwahrer/Desktop/Msc/3_Semester/Drug_Design_Praktikum/waehrer_HTS_screening/HTS_experiment/out/docking_results/vina_output/4x21/1360_docked.pdbqt
 OpenBabel03212202213D

 34 37  0  0  1  0  0  0  0  0999 V2000
   19.9630   32.4920   71.7300 C   0  0  1  0  0  3  0  0  0  0  0  0
   21.1030   32.6270   70.8610 N   0  0  0  0  0  0  0  0  0  0  0  0
   20.5550   33.4960   69.7940 C   0  0  2  0  0  3  0  0  0  0  0  0
   21.6380   33.8440   68.9590 N   0  0  0  0  0  0  0  0  0  0  0  0
   22.7850   33.1140   69.4050 C   0  0  0  0  0  0  0  0  0  0  0  0
   22.4370   32.3900   70.5470 C   0  0  0  0  0  0  0  0  0  0  0  0
   23.3960   31.6050   71.1520 C   0  0  0  0  0  0  0  0  0  0  0  0
   23.0590   30.9620   72.1790 O   0  0  0  0  0  0  0  0  0  0  0  0
   24.6300   31.5520   70.6360 N   0  0  0  0  0  0  0  0  0  0  0  0
   24.9310   32.2480   69.5530 C   0  0  0  0  0  0  0  0  0  0  0  0
   26.1050   32.1710   69.0990 O   0  0  0  0  0  0  0  0  0  0  0  0
   24.0240   33.0450   68.9090 N   0  0  0  0  0  0  0  0  0  0  0  0
   24.4800   33.7520   67.7330 C   0  0  0  0  0  1  0  0  0  0  0  0
   25.6190   30.7050   71.3100 C   0  0  0  0  0  1  0  0  0  0  0  0
   21.6420   34.7350   67.8280 C   0  0  0  0  0  1  0  0  0  0  0  0
   19.7800   34.5180   70.5120 C   0  0  1  0  0  3  0  0  0  0  0  0
   19.6750   33.9860   71.9480 C   0  0  1  0  0  3  0  0  0  0  0  0
   18.8370   31.8830   71.0600 C   0  0  2  0  0  3  0  0  0  0  0  0
   18.9950   31.7650   69.7720 O   0  0  0  0  0  1  0  0  0  0  0  0
   17.5790   31.3900   71.5750 C   0  0  0  0  0  0  0  0  0  0  0  0
   16.3870   31.5310   70.9040 C   0  0  0  0  0  3  0  0  0  0  0  0
   15.2300   31.0630   71.4760 C   0  0  0  0  0  3  0  0  0  0  0  0
   15.2280   30.4470   72.7180 C   0  0  0  0  0  0  0  0  0  0  0  0
   13.6060   29.8060   73.4870 Br  0  0  0  0  0  0  0  0  0  0  0  0
   16.4300   30.3080   73.3890 C   0  0  0  0  0  3  0  0  0  0  0  0
   17.5950   30.7720   72.8280 C   0  0  0  0  0  3  0  0  0  0  0  0
   18.3600   34.2390   72.5290 C   0  0  0  0  0  0  0  0  0  0  0  0
   18.1380   33.9490   73.7510 O   0  0  0  0  0  0  0  0  0  0  0  0
   17.3370   34.7840   71.8020 O   0  0  0  0  0  0  0  0  0  0  0  0
   15.9620   34.6460   72.1670 C   0  0  0  0  0  1  0  0  0  0  0  0
   20.2450   35.8990   70.4960 C   0  0  0  0  0  0  0  0  0  0  0  0
   21.1290   36.2730   71.3110 O   0  0  0  0  0  0  0  0  0  0  0  0
   19.7450   36.8250   69.6070 O   0  0  0  0  0  0  0  0  0  0  0  0
   18.4040   37.2590   69.6710 C   0  0  0  0  0  1  0  0  0  0  0  0
  1 18  1  6  0  0  0
  1 17  1  0  0  0  0
  2  1  1  0  0  0  0
  3  4  1  1  0  0  0
  3 16  1  0  0  0  0
  3  2  1  0  0  0  0
  4  5  1  0  0  0  0
  5  6  2  0  0  0  0
  6  2  1  0  0  0  0
  6  7  1  0  0  0  0
  7  8  2  0  0  0  0
  9  7  1  0  0  0  0
  9 14  1  0  0  0  0
 10  9  1  0  0  0  0
 11 10  2  0  0  0  0
 12  5  1  0  0  0  0
 12 10  1  0  0  0  0
 13 12  1  0  0  0  0
 15  4  1  0  0  0  0
 16 31  1  1  0  0  0
 16 17  1  0  0  0  0
 17 27  1  6  0  0  0
 18 19  1  6  0  0  0
 18 20  1  0  0  0  0
 20 26  1  0  0  0  0
 21 22  1  0  0  0  0
 21 20  2  0  0  0  0
 22 23  2  0  0  0  0
 23 25  1  0  0  0  0
 23 24  1  0  0  0  0
 26 25  2  0  0  0  0
 27 28  2  0  0  0  0
 29 30  1  0  0  0  0
 29 27  1  0  0  0  0
 31 32  2  0  0  0  0
 33 34  1  0  0  0  0
 33 31  1  0  0  0  0
M  END
>  <Pose>
1

>  <Score>
-7.378

$$$$
