/Users/jonathanwahrer/Desktop/Msc/3_Semester/Drug_Design_Praktikum/waehrer_HTS_screening/HTS_experiment/out/docking_results/vina_output/4x21/1372_docked.pdbqt
 OpenBabel03212202213D

 31 34  0  0  1  0  0  0  0  0999 V2000
   22.3860   35.2670   67.9490 C   0  0  0  0  0  0  0  0  0  0  0  0
   21.7730   34.2130   67.6840 O   0  0  0  0  0  0  0  0  0  0  0  0
   23.7030   35.2140   68.4190 N   0  0  0  0  0  0  0  0  0  0  0  0
   24.6660   34.1670   68.3660 C   0  0  0  0  0  2  0  0  0  0  0  0
   26.0160   34.8960   68.2900 C   0  0  0  0  0  2  0  0  0  0  0  0
   25.9000   36.2330   67.5990 C   0  0  1  0  0  0  0  0  0  0  0  0
   27.1690   36.9060   67.5450 N   0  0  0  0  0  0  0  0  0  0  0  0
   26.9440   38.2290   66.9460 C   0  0  0  0  0  2  0  0  0  0  0  0
   26.5430   38.1280   65.5070 C   0  0  0  0  0  2  0  0  0  0  0  0
   25.7410   36.9170   65.2190 C   0  0  0  0  0  0  0  0  0  0  0  0
   25.1980   36.4910   64.0750 N   0  0  0  0  0  0  0  0  0  0  0  0
   24.5540   35.3310   64.3120 C   0  0  0  0  0  3  0  0  0  0  0  0
   24.7050   35.0510   65.6140 N   0  0  0  0  0  0  0  0  0  0  0  0
   25.4320   35.9960   66.2290 C   0  0  0  0  0  0  0  0  0  0  0  0
   24.9820   37.2070   68.3560 C   0  0  0  0  0  2  0  0  0  0  0  0
   24.1980   36.3550   69.2600 C   0  0  0  0  0  2  0  0  0  0  0  0
   27.5040   37.0930   68.5200 H   0  0  0  0  0  0  0  0  0  0  0  0
   25.2210   36.9160   63.1220 H   0  0  0  0  0  0  0  0  0  0  0  0
   21.6700   36.5610   67.7330 C   0  0  1  0  0  3  0  0  0  0  0  0
   21.5820   36.7620   66.1980 C   0  0  0  0  0  1  0  0  0  0  0  0
   20.2880   36.5390   68.1460 N   0  0  0  0  0  0  0  0  0  0  0  0
   19.9590   36.8630   69.5240 C   0  0  0  0  0  0  0  0  0  0  0  0
   20.8290   37.2000   70.3370 O   0  0  0  0  0  0  0  0  0  0  0  0
   19.5520   36.3070   67.4830 H   0  0  0  0  0  0  0  0  0  0  0  0
   18.5370   36.7510   69.8890 C   0  0  0  0  0  0  0  0  0  0  0  0
   18.1440   35.6400   70.6530 C   0  0  0  0  0  3  0  0  0  0  0  0
   16.8460   35.4170   71.0410 C   0  0  0  0  0  0  0  0  0  0  0  0
   16.4060   33.8650   72.1010 Br  0  0  0  0  0  0  0  0  0  0  0  0
   15.8850   36.3240   70.6630 C   0  0  0  0  0  3  0  0  0  0  0  0
   16.2530   37.4240   69.9060 C   0  0  0  0  0  3  0  0  0  0  0  0
   17.5720   37.6370   69.5180 C   0  0  0  0  0  3  0  0  0  0  0  0
  1  3  1  0  0  0  0
  2  1  2  0  0  0  0
  3 16  1  0  0  0  0
  4  3  1  0  0  0  0
  5  4  1  0  0  0  0
  6  5  1  1  0  0  0
  6 15  1  0  0  0  0
  7  6  1  0  0  0  0
  7 17  1  0  0  0  0
  8  7  1  0  0  0  0
  9  8  1  0  0  0  0
 10  9  1  0  0  0  0
 10 14  2  0  0  0  0
 11 12  1  0  0  0  0
 11 10  1  0  0  0  0
 12 13  2  0  0  0  0
 13 14  1  0  0  0  0
 14  6  1  0  0  0  0
 15 16  1  0  0  0  0
 18 11  1  0  0  0  0
 19 20  1  6  0  0  0
 19  1  1  0  0  0  0
 19 21  1  0  0  0  0
 21 22  1  0  0  0  0
 22 25  1  0  0  0  0
 22 23  2  0  0  0  0
 24 21  1  0  0  0  0
 25 26  1  0  0  0  0
 26 27  2  0  0  0  0
 27 28  1  0  0  0  0
 29 27  1  0  0  0  0
 30 29  2  0  0  0  0
 31 25  2  0  0  0  0
 31 30  1  0  0  0  0
M  END
>  <Pose>
1

>  <Score>
-8.109

$$$$
