/Users/jonathanwahrer/Desktop/Msc/3_Semester/Drug_Design_Praktikum/waehrer_HTS_screening/HTS_experiment/out/docking_results/vina_output/4x21/1386_docked.pdbqt
 OpenBabel03212202223D

 33 36  0  0  1  0  0  0  0  0999 V2000
   19.8740   36.8930   69.8720 C   0  0  0  0  0  0  0  0  0  0  0  0
   20.2950   37.3940   68.8040 O   0  0  0  0  0  0  0  0  0  0  0  0
   20.6890   35.9130   70.5500 N   0  0  0  0  0  0  0  0  0  0  0  0
   21.9560   35.5470   69.9780 C   0  0  0  0  0  2  0  0  0  0  0  0
   21.8420   34.1070   69.5210 C   0  0  2  0  0  3  0  0  0  0  0  0
   20.9350   33.2840   70.3630 C   0  0  2  0  0  0  0  0  0  0  0  0
   20.6620   33.8160   71.7220 C   0  0  0  0  0  2  0  0  0  0  0  0
   20.3150   35.2680   71.7780 C   0  0  0  0  0  2  0  0  0  0  0  0
   21.5950   31.9100   70.5330 C   0  0  0  0  0  1  0  0  0  0  0  0
   18.5810   37.2610   70.4600 C   0  0  0  0  0  2  0  0  0  0  0  0
   17.3660   37.0050   69.6740 C   0  0  0  0  0  2  0  0  0  0  0  0
   16.4620   35.9300   70.1530 C   0  0  0  0  0  0  0  0  0  0  0  0
   16.8750   34.6570   70.4850 N   0  0  0  0  0  0  0  0  0  0  0  0
   15.8080   33.9180   70.8210 C   0  0  0  0  0  0  0  0  0  0  0  0
   15.6450   32.6030   71.2280 C   0  0  0  0  0  3  0  0  0  0  0  0
   14.6830   34.7010   70.7100 C   0  0  0  0  0  0  0  0  0  0  0  0
   14.3980   32.1000   71.5140 C   0  0  0  0  0  0  0  0  0  0  0  0
   14.2450   30.4130   72.0310 Cl  0  0  0  0  0  0  0  0  0  0  0  0
   13.2790   32.9010   71.3990 C   0  0  0  0  0  3  0  0  0  0  0  0
   13.4280   34.2060   70.9950 C   0  0  0  0  0  3  0  0  0  0  0  0
   15.1410   35.9190   70.2980 N   0  0  0  0  0  0  0  0  0  0  0  0
   14.2130   37.0030   70.0290 C   0  0  0  0  0  1  0  0  0  0  0  0
   23.1770   33.5720   69.4120 N   0  0  0  0  0  0  0  0  0  0  0  0
   23.9640   33.4830   70.5020 C   0  0  0  0  0  3  0  0  0  0  0  0
   25.2440   32.9790   70.4450 C   0  0  0  0  0  3  0  0  0  0  0  0
   25.7260   32.5540   69.2280 C   0  0  0  0  0  0  0  0  0  0  0  0
   26.9030   32.0770   69.1090 O   0  0  0  0  0  0  0  0  0  0  0  0
   24.9200   32.6540   68.1600 N   0  0  0  0  0  0  0  0  0  0  0  0
   23.6830   33.1470   68.2420 C   0  0  0  0  0  0  0  0  0  0  0  0
   25.2530   32.3380   67.2000 H   0  0  0  0  0  0  0  0  0  0  0  0
   22.9650   33.2200   67.2040 O   0  0  0  0  0  0  0  0  0  0  0  0
   19.7020   33.0270   69.7440 O   0  0  0  0  0  0  0  0  0  0  0  0
   19.8870   32.7680   68.7870 H   0  0  0  0  0  0  0  0  0  0  0  0
  1 10  1  0  0  0  0
  1  3  1  0  0  0  0
  2  1  2  0  0  0  0
  3  8  1  0  0  0  0
  4  3  1  0  0  0  0
  5 23  1  1  0  0  0
  5  4  1  0  0  0  0
  5  6  1  0  0  0  0
  6  9  1  1  0  0  0
  6  7  1  0  0  0  0
  7  8  1  0  0  0  0
 11 12  1  0  0  0  0
 11 10  1  0  0  0  0
 12 21  1  0  0  0  0
 12 13  2  0  0  0  0
 13 14  1  0  0  0  0
 14 15  1  0  0  0  0
 15 17  2  0  0  0  0
 16 14  2  0  0  0  0
 16 20  1  0  0  0  0
 17 18  1  0  0  0  0
 19 17  1  0  0  0  0
 20 19  2  0  0  0  0
 21 16  1  0  0  0  0
 22 21  1  0  0  0  0
 23 24  1  0  0  0  0
 25 24  2  0  0  0  0
 26 25  1  0  0  0  0
 27 26  2  0  0  0  0
 28 29  1  0  0  0  0
 28 26  1  0  0  0  0
 29 23  1  0  0  0  0
 30 28  1  0  0  0  0
 31 29  2  0  0  0  0
 32  6  1  0  0  0  0
 33 32  1  0  0  0  0
M  END
>  <Pose>
1

>  <Score>
-9.107

$$$$
