/Users/jonathanwahrer/Desktop/Msc/3_Semester/Drug_Design_Praktikum/waehrer_HTS_screening/HTS_experiment/out/docking_results/vina_output/4x21/1404_docked.pdbqt
 OpenBabel03212202223D

 26 29  0  0  1  0  0  0  0  0999 V2000
   13.0090   28.9150   76.6270 Br  0  0  0  0  0  0  0  0  0  0  0  0
   13.9530   29.2080   74.9950 C   0  0  0  0  0  0  0  0  0  0  0  0
   13.8270   30.3950   74.2980 C   0  0  0  0  0  3  0  0  0  0  0  0
   14.4870   30.6540   73.1150 C   0  0  0  0  0  0  0  0  0  0  0  0
   15.3150   29.6310   72.6430 C   0  0  0  0  0  0  0  0  0  0  0  0
   15.4400   28.4520   73.3370 C   0  0  0  0  0  3  0  0  0  0  0  0
   14.7730   28.2070   74.5190 C   0  0  0  0  0  0  0  0  0  0  0  0
   14.9460   26.9080   75.2300 C   0  0  0  0  0  1  0  0  0  0  0  0
   15.9640   29.9280   71.4530 O   0  0  0  0  0  0  0  0  0  0  0  0
   15.6710   31.0490   70.6410 C   0  0  0  0  0  2  0  0  0  0  0  0
   15.4770   32.3270   71.5230 C   0  0  2  0  0  0  0  0  0  0  0  0
   14.3390   31.8970   72.3720 C   0  0  0  0  0  0  0  0  0  0  0  0
   13.2520   32.4820   72.5240 O   0  0  0  0  0  0  0  0  0  0  0  0
   15.3180   33.4690   70.8030 N   0  0  0  0  0  0  0  0  0  0  0  0
   15.3840   34.7590   71.3450 C   0  0  0  0  0  2  0  0  0  0  0  0
   13.9880   35.3100   71.5460 C   0  0  0  0  0  2  0  0  0  0  0  0
   13.4560   35.4710   70.2450 O   0  0  0  0  0  0  0  0  0  0  0  0
   13.2010   34.1580   69.8130 C   0  0  0  0  0  2  0  0  0  0  0  0
   14.5480   33.4520   69.6390 C   0  0  0  0  0  2  0  0  0  0  0  0
   16.7240   32.3640   72.3330 C   0  0  0  0  0  2  0  0  0  0  0  0
   17.9800   32.3520   71.6500 N   0  0  0  0  0  0  0  0  0  0  0  0
   18.6300   33.5840   71.4080 C   0  0  0  0  0  2  0  0  0  0  0  0
   19.2820   34.1120   72.6940 C   0  0  0  0  0  2  0  0  0  0  0  0
   20.2990   33.2010   72.9980 O   0  0  0  0  0  0  0  0  0  0  0  0
   19.6730   32.0170   73.4030 C   0  0  0  0  0  2  0  0  0  0  0  0
   18.8640   31.3900   72.3090 C   0  0  0  0  0  2  0  0  0  0  0  0
  2  1  1  0  0  0  0
  3  2  2  0  0  0  0
  4  3  1  0  0  0  0
  5  4  2  0  0  0  0
  5  6  1  0  0  0  0
  6  7  2  0  0  0  0
  7  2  1  0  0  0  0
  7  8  1  0  0  0  0
  9  5  1  0  0  0  0
 10  9  1  0  0  0  0
 10 11  1  0  0  0  0
 11 20  1  1  0  0  0
 11 12  1  0  0  0  0
 12 13  2  0  0  0  0
 12  4  1  0  0  0  0
 14 15  1  0  0  0  0
 14 11  1  0  0  0  0
 15 16  1  0  0  0  0
 17 16  1  0  0  0  0
 18 17  1  0  0  0  0
 19 18  1  0  0  0  0
 19 14  1  0  0  0  0
 21 26  1  0  0  0  0
 21 20  1  0  0  0  0
 22 21  1  0  0  0  0
 22 23  1  0  0  0  0
 23 24  1  0  0  0  0
 24 25  1  0  0  0  0
 26 25  1  0  0  0  0
M  END
>  <Pose>
1

>  <Score>
-6.667

$$$$
