/Users/jonathanwahrer/Desktop/Msc/3_Semester/Drug_Design_Praktikum/waehrer_HTS_screening/HTS_experiment/out/docking_results/vina_output/4x21/1405_docked.pdbqt
 OpenBabel03212202223D

 27 30  0  0  1  0  0  0  0  0999 V2000
   12.9610   31.1710   73.9860 Br  0  0  0  0  0  0  0  0  0  0  0  0
   12.1030   30.0510   75.2990 C   0  0  0  0  0  0  0  0  0  0  0  0
   10.8270   30.3110   75.7250 C   0  0  0  0  0  3  0  0  0  0  0  0
   10.2330   29.4950   76.6640 C   0  0  0  0  0  0  0  0  0  0  0  0
   10.9610   28.4380   77.1390 C   0  0  0  0  0  0  0  0  0  0  0  0
   12.2740   28.1710   76.7000 C   0  0  0  0  0  3  0  0  0  0  0  0
   12.8480   28.9920   75.7660 C   0  0  0  0  0  3  0  0  0  0  0  0
   10.2170   27.6920   78.0980 N   0  0  0  0  0  0  0  0  0  0  0  0
    8.9640   28.3010   78.2380 C   0  0  0  0  0  0  0  0  0  0  0  0
    8.0400   27.9020   79.0110 O   0  0  0  0  0  0  0  0  0  0  0  0
    8.9040   29.4950   77.3230 C   0  0  2  0  0  0  0  0  0  0  0  0
    7.8060   29.2350   76.3980 C   0  0  0  0  0  0  0  0  0  0  0  0
    6.7040   30.0310   76.3700 C   0  0  0  0  0  0  0  0  0  0  0  0
    5.8800   29.5210   75.4080 N   0  0  0  0  0  0  0  0  0  0  0  0
    6.4280   28.4600   74.8550 N   0  0  0  0  0  0  0  0  0  0  0  0
    7.6090   28.2460   75.4300 C   0  0  0  0  0  0  0  0  0  0  0  0
    8.6140   27.1710   75.1580 C   0  0  0  0  0  1  0  0  0  0  0  0
    6.5460   31.1380   77.2110 O   0  0  0  0  0  0  0  0  0  0  0  0
    7.5950   31.3820   78.0920 C   0  0  0  0  0  0  0  0  0  0  0  0
    8.6790   30.6540   78.1660 C   0  0  0  0  0  0  0  0  0  0  0  0
    9.6870   31.0620   79.1590 C   0  0  0  0  0  0  0  0  0  0  0  0
   10.5000   31.3670   79.9400 N   0  0  0  0  0  0  0  0  0  0  0  0
   10.6720   26.4950   78.8200 C   0  0  0  0  0  1  0  0  0  0  0  0
    6.0450   27.8480   74.0880 H   0  0  0  0  0  0  0  0  0  0  0  0
    7.4880   32.5210   78.9920 N   0  0  0  0  0  0  0  0  0  0  0  0
    7.2270   33.4150   78.5320 H   0  0  0  0  0  0  0  0  0  0  0  0
    7.6540   32.4620   79.9950 H   0  0  0  0  0  0  0  0  0  0  0  0
  1  2  1  0  0  0  0
  2  3  2  0  0  0  0
  2  7  1  0  0  0  0
  3  4  1  0  0  0  0
  4  5  2  0  0  0  0
  4 11  1  0  0  0  0
  5  8  1  0  0  0  0
  6  5  1  0  0  0  0
  7  6  2  0  0  0  0
  8  9  1  0  0  0  0
  8 23  1  0  0  0  0
  9 10  2  0  0  0  0
 11 12  1  6  0  0  0
 11 20  1  0  0  0  0
 11  9  1  0  0  0  0
 13 12  1  0  0  0  0
 13 18  1  0  0  0  0
 14 13  2  0  0  0  0
 15 14  1  0  0  0  0
 15 16  1  0  0  0  0
 16 12  2  0  0  0  0
 17 16  1  0  0  0  0
 18 19  1  0  0  0  0
 19 20  2  0  0  0  0
 19 25  1  0  0  0  0
 20 21  1  0  0  0  0
 21 22  3  0  0  0  0
 24 15  1  0  0  0  0
 25 27  1  0  0  0  0
 26 25  1  0  0  0  0
M  END
>  <Pose>
1

>  <Score>
-5.158

$$$$
