/Users/jonathanwahrer/Desktop/Msc/3_Semester/Drug_Design_Praktikum/waehrer_HTS_screening/HTS_experiment/out/docking_results/vina_output/4x21/1413_docked.pdbqt
 OpenBabel03212202223D

 24 27  0  0  0  0  0  0  0  0999 V2000
   15.3610   37.4340   70.5520 C   0  0  0  0  0  2  0  0  0  0  0  0
   16.6530   37.3850   69.8860 N   0  0  0  0  0  0  0  0  0  0  0  0
   16.8910   37.9700   68.7000 C   0  0  0  0  0  2  0  0  0  0  0  0
   18.1430   37.8970   68.0990 C   0  0  0  0  0  0  0  0  0  0  0  0
   19.1810   37.2220   68.7030 C   0  0  0  0  0  0  0  0  0  0  0  0
   18.6710   38.3730   66.9410 N   0  0  0  0  0  0  0  0  0  0  0  0
   18.9460   36.6310   69.8970 C   0  0  0  0  0  0  0  0  0  0  0  0
   20.2880   37.2880   67.9380 N   0  0  0  0  0  0  0  0  0  0  0  0
   20.3570   35.6950   70.7460 Br  0  0  0  0  0  0  0  0  0  0  0  0
   17.6780   36.7260   70.4680 C   0  0  0  0  0  3  0  0  0  0  0  0
   19.9200   38.0010   66.8780 N   0  0  0  0  0  0  0  0  0  0  0  0
   21.5880   36.7620   68.1200 C   0  0  0  0  0  1  0  0  0  0  0  0
   14.3970   36.4520   70.0630 C   0  0  0  0  0  0  0  0  0  0  0  0
   13.5600   36.8660   69.2050 O   0  0  0  0  0  0  0  0  0  0  0  0
   14.3070   35.0520   70.4660 C   0  0  0  0  0  0  0  0  0  0  0  0
   15.2120   34.5620   71.3640 C   0  0  0  0  0  3  0  0  0  0  0  0
   15.1550   33.2500   71.7560 C   0  0  0  0  0  0  0  0  0  0  0  0
   14.1970   32.3800   71.2690 C   0  0  0  0  0  0  0  0  0  0  0  0
   16.0820   32.7760   72.6670 C   0  0  0  0  0  3  0  0  0  0  0  0
   13.2900   32.9110   70.3550 C   0  0  0  0  0  3  0  0  0  0  0  0
   14.1190   31.0560   71.6490 C   0  0  0  0  0  3  0  0  0  0  0  0
   13.3420   34.2200   69.9620 C   0  0  0  0  0  3  0  0  0  0  0  0
   15.0490   30.5980   72.5570 C   0  0  0  0  0  3  0  0  0  0  0  0
   16.0100   31.4560   73.0500 C   0  0  0  0  0  3  0  0  0  0  0  0
  2 10  1  0  0  0  0
  2  1  1  0  0  0  0
  3  2  1  0  0  0  0
  4  3  1  0  0  0  0
  4  5  2  0  0  0  0
  5  7  1  0  0  0  0
  6  4  1  0  0  0  0
  7 10  2  0  0  0  0
  7  9  1  0  0  0  0
  8 12  1  0  0  0  0
  8  5  1  0  0  0  0
 11  6  2  0  0  0  0
 11  8  1  0  0  0  0
 13 15  1  0  0  0  0
 13  1  1  0  0  0  0
 14 13  2  0  0  0  0
 15 16  1  0  0  0  0
 16 17  2  0  0  0  0
 17 19  1  0  0  0  0
 18 21  1  0  0  0  0
 18 17  1  0  0  0  0
 19 24  2  0  0  0  0
 20 18  2  0  0  0  0
 21 23  2  0  0  0  0
 22 20  1  0  0  0  0
 22 15  2  0  0  0  0
 23 24  1  0  0  0  0
M  END
>  <Pose>
1

>  <Score>
-9.264

$$$$
