/Users/jonathanwahrer/Desktop/Msc/3_Semester/Drug_Design_Praktikum/waehrer_HTS_screening/HTS_experiment/out/docking_results/vina_output/4x21/1415_docked.pdbqt
 OpenBabel03212202223D

 32 35  0  0  1  0  0  0  0  0999 V2000
   16.7650   38.0920   70.7000 Br  0  0  0  0  0  0  0  0  0  0  0  0
   16.5090   36.1980   70.5580 C   0  0  0  0  0  0  0  0  0  0  0  0
   17.5620   35.3460   70.7940 C   0  0  0  0  0  0  0  0  0  0  0  0
   17.4170   33.9520   70.7010 C   0  0  0  0  0  0  0  0  0  0  0  0
   16.1660   33.4860   70.3610 C   0  0  0  0  0  3  0  0  0  0  0  0
   15.0940   34.3180   70.1180 C   0  0  0  0  0  0  0  0  0  0  0  0
   15.2610   35.6800   70.2160 C   0  0  0  0  0  0  0  0  0  0  0  0
   14.1690   36.6580   69.9740 C   0  0  0  0  0  1  0  0  0  0  0  0
   13.3720   33.6440   69.6480 Br  0  0  0  0  0  0  0  0  0  0  0  0
   18.5530   33.0910   70.9560 C   0  0  0  0  0  0  0  0  0  0  0  0
   18.4120   31.8640   70.9780 O   0  0  0  0  0  0  0  0  0  0  0  0
   19.8790   33.6910   71.1880 C   0  0  1  0  0  0  0  0  0  0  0  0
   19.6550   35.0090   71.8960 C   0  0  0  0  0  2  0  0  0  0  0  0
   18.8110   35.8550   71.1370 O   0  0  0  0  0  0  0  0  0  0  0  0
   20.8160   32.8050   71.9530 C   0  0  0  0  0  2  0  0  0  0  0  0
   20.6750   31.4180   71.7340 N   0  0  0  0  0  4  0  0  0  0  0  0
   21.8200   30.9130   71.0360 C   0  0  0  0  0  2  0  0  0  0  0  0
   23.0750   30.8570   71.8320 C   0  0  2  0  0  3  0  0  0  0  0  0
   22.9540   31.1140   73.2840 C   0  0  0  0  0  2  0  0  0  0  0  0
   24.0370   31.9010   71.2550 C   0  0  0  0  0  1  0  0  0  0  0  0
   21.6240   30.8900   73.8910 C   0  0  0  0  0  2  0  0  0  0  0  0
   20.5210   30.6110   72.9130 C   0  0  0  0  0  2  0  0  0  0  0  0
   19.8370   31.2320   71.1270 H   0  0  0  0  0  0  0  0  0  0  0  0
   20.4490   33.9860   69.8160 C   0  0  0  0  0  2  0  0  0  0  0  0
   21.2650   35.1490   69.7330 N   0  0  0  0  0  4  0  0  0  0  0  0
   20.8640   35.9690   68.5910 C   0  0  0  0  0  2  0  0  0  0  0  0
   21.7710   35.7940   67.4090 C   0  0  1  0  0  3  0  0  0  0  0  0
   22.1160   34.3310   67.2470 C   0  0  0  0  0  2  0  0  0  0  0  0
   20.9640   36.1870   66.1640 C   0  0  0  0  0  1  0  0  0  0  0  0
   22.9540   33.9270   68.4200 C   0  0  0  0  0  2  0  0  0  0  0  0
   22.6750   34.8740   69.5600 C   0  0  0  0  0  2  0  0  0  0  0  0
   21.1480   35.7340   70.5640 H   0  0  0  0  0  0  0  0  0  0  0  0
  2  1  1  0  0  0  0
  2  3  1  0  0  0  0
  3 14  1  0  0  0  0
  4  3  2  0  0  0  0
  4 10  1  0  0  0  0
  5  4  1  0  0  0  0
  6  7  1  0  0  0  0
  6  5  2  0  0  0  0
  7  2  2  0  0  0  0
  8  7  1  0  0  0  0
  9  6  1  0  0  0  0
 10 11  2  0  0  0  0
 10 12  1  0  0  0  0
 12 24  1  6  0  0  0
 12 13  1  0  0  0  0
 12 15  1  0  0  0  0
 14 13  1  0  0  0  0
 16 15  1  0  0  0  0
 16 22  1  0  0  0  0
 17 16  1  0  0  0  0
 17 18  1  0  0  0  0
 18 20  1  6  0  0  0
 18 19  1  0  0  0  0
 19 21  1  0  0  0  0
 22 21  1  0  0  0  0
 23 16  1  0  0  0  0
 25 24  1  0  0  0  0
 25 32  1  0  0  0  0
 26 25  1  0  0  0  0
 27 29  1  6  0  0  0
 27 26  1  0  0  0  0
 28 27  1  0  0  0  0
 28 30  1  0  0  0  0
 30 31  1  0  0  0  0
 31 25  1  0  0  0  0
M  END
>  <Pose>
1

>  <Score>
-7.450

$$$$
