/Users/jonathanwahrer/Desktop/Msc/3_Semester/Drug_Design_Praktikum/waehrer_HTS_screening/HTS_experiment/out/docking_results/vina_output/4x21/1428_docked.pdbqt
 OpenBabel03212202233D

 37 40  0  0  1  0  0  0  0  0999 V2000
   13.7020   33.4120   70.1820 Cl  0  0  0  0  0  0  0  0  0  0  0  0
   15.0580   34.5300   70.2810 C   0  0  0  0  0  0  0  0  0  0  0  0
   16.3340   34.1040   70.5340 C   0  0  0  0  0  3  0  0  0  0  0  0
   17.3590   35.0210   70.6020 C   0  0  0  0  0  0  0  0  0  0  0  0
   17.0590   36.3440   70.4110 C   0  0  0  0  0  0  0  0  0  0  0  0
   15.7550   36.7760   70.1520 C   0  0  0  0  0  3  0  0  0  0  0  0
   14.7480   35.8590   70.0880 C   0  0  0  0  0  3  0  0  0  0  0  0
   18.2100   37.1770   70.4940 N   0  0  0  0  0  0  0  0  0  0  0  0
   19.2900   36.3240   70.7500 C   0  0  0  0  0  0  0  0  0  0  0  0
   20.4810   36.7630   70.8670 O   0  0  0  0  0  0  0  0  0  0  0  0
   18.8170   34.9360   70.8510 C   0  0  2  0  0  0  0  0  0  0  0  0
   19.4970   34.1660   69.8470 N   0  0  0  0  0  0  0  0  0  0  0  0
   20.3900   33.2530   70.4880 C   0  0  2  0  0  3  0  0  0  0  0  0
   20.5020   33.6690   71.9200 C   0  0  0  0  0  2  0  0  0  0  0  0
   19.1920   34.3690   72.1510 C   0  0  2  0  0  3  0  0  0  0  0  0
   18.2490   38.2250   70.3840 H   0  0  0  0  0  0  0  0  0  0  0  0
   18.8200   33.7140   69.1960 H   0  0  0  0  0  0  0  0  0  0  0  0
   18.1830   33.4980   72.8070 C   0  0  0  0  0  0  0  0  0  0  0  0
   17.6050   33.9850   73.8100 O   0  0  0  0  0  0  0  0  0  0  0  0
   17.8650   32.2080   72.3690 N   0  0  0  0  0  0  0  0  0  0  0  0
   18.4030   31.8940   71.5040 H   0  0  0  0  0  0  0  0  0  0  0  0
   16.9460   31.3020   72.9020 C   0  0  0  0  0  0  0  0  0  0  0  0
   17.3580   30.0090   73.1900 C   0  0  0  0  0  0  0  0  0  0  0  0
   16.5050   29.0630   73.7200 C   0  0  0  0  0  3  0  0  0  0  0  0
   15.1920   29.3610   73.9880 C   0  0  0  0  0  3  0  0  0  0  0  0
   14.7580   30.6260   73.7140 C   0  0  0  0  0  0  0  0  0  0  0  0
   15.6300   31.5710   73.1810 C   0  0  0  0  0  3  0  0  0  0  0  0
   18.6670   29.6310   72.9480 O   0  0  0  0  0  0  0  0  0  0  0  0
   19.6460   29.5200   73.9350 C   0  0  0  0  0  1  0  0  0  0  0  0
   13.4420   30.9670   73.9710 O   0  0  0  0  0  0  0  0  0  0  0  0
   12.6230   30.2390   74.8680 C   0  0  0  0  0  1  0  0  0  0  0  0
   21.7440   33.2100   69.7980 C   0  0  0  0  0  2  0  0  0  0  0  0
   21.9400   34.3550   68.8970 C   0  0  0  0  0  0  0  0  0  0  0  0
   21.4540   34.3440   67.7550 O   0  0  0  0  0  0  0  0  0  0  0  0
   22.6810   35.4680   69.3330 N   0  0  0  0  0  0  0  0  0  0  0  0
   22.2820   36.4180   69.1770 H   0  0  0  0  0  0  0  0  0  0  0  0
   23.6150   35.4110   69.8080 H   0  0  0  0  0  0  0  0  0  0  0  0
  1  2  1  0  0  0  0
  2  3  1  0  0  0  0
  3  4  2  0  0  0  0
  5  8  1  0  0  0  0
  5  4  1  0  0  0  0
  6  5  2  0  0  0  0
  7  6  1  0  0  0  0
  7  2  2  0  0  0  0
  8  9  1  0  0  0  0
  9 11  1  0  0  0  0
  9 10  2  0  0  0  0
 11  4  1  6  0  0  0
 11 15  1  0  0  0  0
 12 13  1  0  0  0  0
 12 11  1  0  0  0  0
 13 32  1  6  0  0  0
 13 14  1  0  0  0  0
 14 15  1  0  0  0  0
 15 18  1  6  0  0  0
 16  8  1  0  0  0  0
 17 12  1  0  0  0  0
 18 19  2  0  0  0  0
 20 18  1  0  0  0  0
 20 22  1  0  0  0  0
 21 20  1  0  0  0  0
 22 27  2  0  0  0  0
 22 23  1  0  0  0  0
 23 24  2  0  0  0  0
 24 25  1  0  0  0  0
 26 30  1  0  0  0  0
 26 25  2  0  0  0  0
 27 26  1  0  0  0  0
 28 23  1  0  0  0  0
 28 29  1  0  0  0  0
 30 31  1  0  0  0  0
 33 35  1  0  0  0  0
 33 32  1  0  0  0  0
 34 33  2  0  0  0  0
 35 37  1  0  0  0  0
 36 35  1  0  0  0  0
M  END
>  <Pose>
1

>  <Score>
-8.209

$$$$
