/Users/jonathanwahrer/Desktop/Msc/3_Semester/Drug_Design_Praktikum/waehrer_HTS_screening/HTS_experiment/out/docking_results/vina_output/4x21/1433_docked.pdbqt
 OpenBabel03212202233D

 28 31  0  0  1  0  0  0  0  0999 V2000
   19.7680   35.9910   71.1690 Br  0  0  0  0  0  0  0  0  0  0  0  0
   19.6240   36.8040   69.4620 C   0  0  0  0  0  0  0  0  0  0  0  0
   20.7410   36.8550   68.6220 C   0  0  0  0  0  0  0  0  0  0  0  0
   20.6710   37.4250   67.3750 C   0  0  0  0  0  0  0  0  0  0  0  0
   19.4610   37.9460   66.9810 C   0  0  0  0  0  3  0  0  0  0  0  0
   18.3320   37.9100   67.7980 C   0  0  0  0  0  0  0  0  0  0  0  0
   18.4180   37.3240   69.0640 C   0  0  0  0  0  0  0  0  0  0  0  0
   17.2170   37.2740   69.9430 C   0  0  0  0  0  1  0  0  0  0  0  0
   17.0520   38.5070   67.3350 C   0  0  0  0  0  1  0  0  0  0  0  0
   21.7980   37.4880   66.4010 C   0  0  2  0  0  3  0  0  0  0  0  0
   23.1250   37.0730   66.9580 C   0  0  2  0  0  0  0  0  0  0  0  0
   23.0740   37.1760   68.4710 C   0  0  0  0  0  2  0  0  0  0  0  0
   21.9880   36.3530   68.9710 O   0  0  0  0  0  0  0  0  0  0  0  0
   24.0870   38.0430   66.4810 N   0  0  0  0  0  0  0  0  0  0  0  0
   24.6430   37.7230   65.2090 C   0  0  0  0  0  2  0  0  0  0  0  0
   25.9040   38.4550   64.8500 C   0  0  0  0  0  2  0  0  0  0  0  0
   26.7680   38.6770   65.8880 O   0  0  0  0  0  0  0  0  0  0  0  0
   26.0780   39.3930   66.8750 C   0  0  0  0  0  2  0  0  0  0  0  0
   25.0900   38.3490   67.4590 C   0  0  0  0  0  2  0  0  0  0  0  0
   23.5330   35.6740   66.6930 C   0  0  0  0  0  2  0  0  0  0  0  0
   24.2610   34.8940   67.5850 N   0  0  0  0  0  0  0  0  0  0  0  0
   24.1150   33.4440   67.2150 C   0  0  0  0  0  2  0  0  0  0  0  0
   24.5160   33.2060   65.8060 C   0  0  0  0  0  2  0  0  0  0  0  0
   25.5010   34.0330   65.3370 O   0  0  0  0  0  0  0  0  0  0  0  0
   26.3290   34.5720   66.2770 C   0  0  0  0  0  2  0  0  0  0  0  0
   25.7100   34.9780   67.5760 C   0  0  0  0  0  2  0  0  0  0  0  0
   21.8640   38.8360   65.9290 O   0  0  0  0  0  0  0  0  0  0  0  0
   22.0450   39.4040   66.7180 H   0  0  0  0  0  0  0  0  0  0  0  0
  2  1  1  0  0  0  0
  3 13  1  0  0  0  0
  3  2  2  0  0  0  0
  4  3  1  0  0  0  0
  5  4  2  0  0  0  0
  5  6  1  0  0  0  0
  6  7  2  0  0  0  0
  7  2  1  0  0  0  0
  7  8  1  0  0  0  0
  9  6  1  0  0  0  0
 10 27  1  1  0  0  0
 10 11  1  0  0  0  0
 10  4  1  0  0  0  0
 11 20  1  6  0  0  0
 11 12  1  0  0  0  0
 12 13  1  0  0  0  0
 14 11  1  0  0  0  0
 14 19  1  0  0  0  0
 15 14  1  0  0  0  0
 16 15  1  0  0  0  0
 16 17  1  0  0  0  0
 17 18  1  0  0  0  0
 18 19  1  0  0  0  0
 20 21  1  0  0  0  0
 22 21  1  0  0  0  0
 23 22  1  0  0  0  0
 24 23  1  0  0  0  0
 24 25  1  0  0  0  0
 25 26  1  0  0  0  0
 26 21  1  0  0  0  0
 27 28  1  0  0  0  0
M  END
>  <Pose>
1

>  <Score>
-6.786

$$$$
