/Users/jonathanwahrer/Desktop/Msc/3_Semester/Drug_Design_Praktikum/waehrer_HTS_screening/HTS_experiment/out/docking_results/vina_output/4x21/1435_docked.pdbqt
 OpenBabel03212202243D

 32 35  0  0  0  0  0  0  0  0999 V2000
   22.1610   36.2100   67.6510 C   0  0  0  0  0  2  0  0  0  0  0  0
   22.0870   36.5630   66.1720 C   0  0  0  0  0  2  0  0  0  0  0  0
   23.1490   37.4630   65.7910 N   0  0  0  0  0  0  0  0  0  0  0  0
   24.4140   37.1710   65.4040 C   0  0  0  0  0  0  0  0  0  0  0  0
   25.0820   35.3860   65.2810 Br  0  0  0  0  0  0  0  0  0  0  0  0
   25.0960   38.2980   65.1330 N   0  0  0  0  0  0  0  0  0  0  0  0
   24.2780   39.3570   65.3410 C   0  0  0  0  0  0  0  0  0  0  0  0
   23.0780   38.8130   65.7480 C   0  0  0  0  0  0  0  0  0  0  0  0
   24.4680   40.6900   65.2150 N   0  0  0  0  0  0  0  0  0  0  0  0
   22.0370   39.6800   66.0340 C   0  0  0  0  0  0  0  0  0  0  0  0
   22.2350   41.0000   65.9080 N   0  0  0  0  0  0  0  0  0  0  0  0
   20.9540   39.1710   66.4030 O   0  0  0  0  0  0  0  0  0  0  0  0
   23.4340   41.5010   65.5030 C   0  0  0  0  0  0  0  0  0  0  0  0
   21.4530   41.6630   66.1220 H   0  0  0  0  0  0  0  0  0  0  0  0
   23.5370   42.7520   65.4090 O   0  0  0  0  0  0  0  0  0  0  0  0
   25.7380   41.2450   64.7860 C   0  0  0  0  0  1  0  0  0  0  0  0
   20.7910   35.9360   68.2120 C   0  0  0  0  0  2  0  0  0  0  0  0
   20.4890   36.6330   69.5050 C   0  0  0  0  0  2  0  0  0  0  0  0
   19.2790   36.1370   70.0690 N   0  0  0  0  0  0  0  0  0  0  0  0
   18.0150   36.5230   69.8990 C   0  0  0  0  0  0  0  0  0  0  0  0
   17.1890   35.6900   70.6460 C   0  0  0  0  0  0  0  0  0  0  0  0
   17.4110   37.5230   69.1840 C   0  0  0  0  0  0  0  0  0  0  0  0
   17.9980   34.8230   71.2460 N   0  0  0  0  0  0  0  0  0  0  0  0
   15.8650   35.8690   70.6530 N   0  0  0  0  0  0  0  0  0  0  0  0
   19.2650   35.0740   70.9130 C   0  0  0  0  0  0  0  0  0  0  0  0
   20.7580   34.0730   71.5470 Br  0  0  0  0  0  0  0  0  0  0  0  0
   15.2950   36.8590   69.9400 C   0  0  0  0  0  0  0  0  0  0  0  0
   14.9740   35.0100   71.4260 C   0  0  0  0  0  1  0  0  0  0  0  0
   14.0490   37.0200   69.9520 O   0  0  0  0  0  0  0  0  0  0  0  0
   16.0780   37.6680   69.2190 N   0  0  0  0  0  0  0  0  0  0  0  0
   15.6710   38.4590   68.6440 H   0  0  0  0  0  0  0  0  0  0  0  0
   18.1260   38.2890   68.5070 O   0  0  0  0  0  0  0  0  0  0  0  0
  1 17  1  0  0  0  0
  2  1  1  0  0  0  0
  3  2  1  0  0  0  0
  4  3  1  0  0  0  0
  5  4  1  0  0  0  0
  6  7  1  0  0  0  0
  6  4  2  0  0  0  0
  7  8  2  0  0  0  0
  8  3  1  0  0  0  0
  8 10  1  0  0  0  0
  9  7  1  0  0  0  0
  9 13  1  0  0  0  0
 10 12  2  0  0  0  0
 11 10  1  0  0  0  0
 11 14  1  0  0  0  0
 13 11  1  0  0  0  0
 15 13  2  0  0  0  0
 16  9  1  0  0  0  0
 17 18  1  0  0  0  0
 18 19  1  0  0  0  0
 19 25  1  0  0  0  0
 20 19  1  0  0  0  0
 20 21  2  0  0  0  0
 21 24  1  0  0  0  0
 21 23  1  0  0  0  0
 22 30  1  0  0  0  0
 22 20  1  0  0  0  0
 24 28  1  0  0  0  0
 25 23  2  0  0  0  0
 25 26  1  0  0  0  0
 27 29  2  0  0  0  0
 27 24  1  0  0  0  0
 30 27  1  0  0  0  0
 31 30  1  0  0  0  0
 32 22  2  0  0  0  0
M  END
>  <Pose>
1

>  <Score>
-8.812

$$$$
