/Users/jonathanwahrer/Desktop/Msc/3_Semester/Drug_Design_Praktikum/waehrer_HTS_screening/HTS_experiment/out/docking_results/vina_output/4x21/1444_docked.pdbqt
 OpenBabel03212202243D

 33 36  0  0  0  0  0  0  0  0999 V2000
   19.3900   34.1900   71.7750 N   0  0  0  0  0  0  0  0  0  0  0  0
   18.0500   34.0510   71.6040 C   0  0  0  0  0  0  0  0  0  0  0  0
   17.4490   34.2800   72.8190 O   0  0  0  0  0  0  0  0  0  0  0  0
   19.6520   34.4650   72.8330 H   0  0  0  0  0  0  0  0  0  0  0  0
   17.0400   33.7530   70.6010 C   0  0  0  0  0  2  0  0  0  0  0  0
   15.7690   34.3300   70.5040 N   0  0  0  0  0  0  0  0  0  0  0  0
   15.5520   35.8010   70.4530 C   0  0  0  0  0  2  0  0  0  0  0  0
   14.0710   35.9750   70.7130 C   0  0  0  0  0  2  0  0  0  0  0  0
   13.3050   35.3440   69.5810 C   0  0  0  0  0  2  0  0  0  0  0  0
   13.4760   33.8400   69.6370 C   0  0  0  0  0  2  0  0  0  0  0  0
   14.6060   33.4910   70.5450 C   0  0  0  0  0  0  0  0  0  0  0  0
   14.4790   32.4940   71.4250 C   0  0  0  0  0  0  0  0  0  0  0  0
   13.3110   31.6570   71.4410 N   0  0  0  0  0  0  0  0  0  0  0  0
   15.2720   32.0650   72.4840 N   0  0  0  0  0  0  0  0  0  0  0  0
   13.4110   30.7380   72.5020 N   0  0  0  0  0  0  0  0  0  0  0  0
   12.4730   31.6330   70.8290 H   0  0  0  0  0  0  0  0  0  0  0  0
   14.6310   30.9740   73.1680 C   0  0  0  0  0  0  0  0  0  0  0  0
   12.7230   29.9950   72.7780 H   0  0  0  0  0  0  0  0  0  0  0  0
   15.1220   30.3900   74.1610 O   0  0  0  0  0  0  0  0  0  0  0  0
   16.1780   32.4720   72.7690 H   0  0  0  0  0  0  0  0  0  0  0  0
   20.5560   34.0040   71.0410 C   0  0  0  0  0  0  0  0  0  0  0  0
   21.3440   34.9780   70.4960 N   0  0  0  0  0  0  0  0  0  0  0  0
   22.3940   34.4010   69.9270 N   0  0  0  0  0  0  0  0  0  0  0  0
   22.3530   33.0860   70.0610 C   0  0  0  0  0  3  0  0  0  0  0  0
   21.1790   32.8060   70.7760 C   0  0  0  0  0  3  0  0  0  0  0  0
   21.0630   36.3710   70.5400 C   0  0  0  0  0  2  0  0  0  0  0  0
   20.2250   36.8590   69.4280 C   0  0  0  0  0  0  0  0  0  0  0  0
   20.6930   37.0870   68.1680 C   0  0  0  0  0  0  0  0  0  0  0  0
   22.3770   36.7980   67.8000 Cl  0  0  0  0  0  0  0  0  0  0  0  0
   19.8640   37.5440   67.1700 C   0  0  0  0  0  3  0  0  0  0  0  0
   18.5300   37.7860   67.4110 C   0  0  0  0  0  3  0  0  0  0  0  0
   18.0470   37.5590   68.6820 C   0  0  0  0  0  3  0  0  0  0  0  0
   18.8900   37.1030   69.6620 C   0  0  0  0  0  3  0  0  0  0  0  0
  1  4  1  0  0  0  0
  2  1  1  0  0  0  0
  2  3  2  0  0  0  0
  5  2  1  0  0  0  0
  6 11  1  0  0  0  0
  6  5  1  0  0  0  0
  7  6  1  0  0  0  0
  7  8  1  0  0  0  0
  9 10  1  0  0  0  0
  9  8  1  0  0  0  0
 10 11  1  0  0  0  0
 11 12  2  0  0  0  0
 12 13  1  0  0  0  0
 12 14  1  0  0  0  0
 13 15  1  0  0  0  0
 14 20  1  0  0  0  0
 14 17  1  0  0  0  0
 15 18  1  0  0  0  0
 15 17  1  0  0  0  0
 16 13  1  0  0  0  0
 17 19  2  0  0  0  0
 21  1  1  0  0  0  0
 22 26  1  0  0  0  0
 22 21  1  0  0  0  0
 23 24  2  0  0  0  0
 23 22  1  0  0  0  0
 24 25  1  0  0  0  0
 25 21  2  0  0  0  0
 27 33  1  0  0  0  0
 27 26  1  0  0  0  0
 28 27  2  0  0  0  0
 29 28  1  0  0  0  0
 30 31  2  0  0  0  0
 30 28  1  0  0  0  0
 31 32  1  0  0  0  0
 32 33  2  0  0  0  0
M  END
>  <Pose>
1

>  <Score>
-9.213

$$$$
