/Users/jonathanwahrer/Desktop/Msc/3_Semester/Drug_Design_Praktikum/waehrer_HTS_screening/HTS_experiment/out/docking_results/vina_output/4x21/1447_docked.pdbqt
 OpenBabel03212202253D

 38 41  0  0  0  0  0  0  0  0999 V2000
   21.9700   38.3630   66.4630 C   0  0  0  0  0  0  0  0  0  0  0  0
   21.9760   39.7260   66.3020 N   0  0  0  0  0  0  0  0  0  0  0  0
   23.0370   40.0780   65.6300 N   0  0  0  0  0  0  0  0  0  0  0  0
   23.7760   39.0300   65.3100 N   0  0  0  0  0  0  0  0  0  0  0  0
   23.1410   37.9580   65.8130 C   0  0  0  0  0  0  0  0  0  0  0  0
   20.9490   37.6070   67.1630 C   0  0  0  0  0  0  0  0  0  0  0  0
   20.9080   37.2200   68.4960 N   0  0  0  0  0  0  0  0  0  0  0  0
   21.6260   37.4100   69.2350 H   0  0  0  0  0  0  0  0  0  0  0  0
   19.9500   37.2540   66.4300 O   0  0  0  0  0  0  0  0  0  0  0  0
   19.7610   36.4700   68.9250 N   0  0  0  0  0  0  0  0  0  0  0  0
   18.8850   37.0390   69.6740 C   0  0  0  0  0  3  0  0  0  0  0  0
   17.6880   36.3720   70.1630 C   0  0  0  0  0  0  0  0  0  0  0  0
   16.4400   36.7800   69.7750 C   0  0  0  0  0  3  0  0  0  0  0  0
   15.2840   36.1550   70.2320 C   0  0  0  0  0  0  0  0  0  0  0  0
   15.3840   35.0790   71.1100 C   0  0  0  0  0  0  0  0  0  0  0  0
   13.5750   36.7540   69.6690 Br  0  0  0  0  0  0  0  0  0  0  0  0
   16.6240   34.6670   71.5020 C   0  0  0  0  0  0  0  0  0  0  0  0
   16.8040   33.2060   72.6950 Br  0  0  0  0  0  0  0  0  0  0  0  0
   17.7720   35.3070   71.0320 C   0  0  0  0  0  0  0  0  0  0  0  0
   14.2190   34.4700   71.5540 O   0  0  0  0  0  0  0  0  0  0  0  0
   14.1040   34.2100   72.5190 H   0  0  0  0  0  0  0  0  0  0  0  0
   19.0400   34.9030   71.4190 O   0  0  0  0  0  0  0  0  0  0  0  0
   19.3650   33.9690   71.2020 H   0  0  0  0  0  0  0  0  0  0  0  0
   23.5500   36.5550   65.6920 C   0  0  0  0  0  2  0  0  0  0  0  0
   24.3360   36.0560   66.8230 N   0  0  0  0  0  0  0  0  0  0  0  0
   25.6460   35.5990   66.3170 C   0  0  0  0  0  2  0  0  0  0  0  0
   25.4530   34.7510   65.1090 C   0  0  0  0  0  2  0  0  0  0  0  0
   24.5780   33.7310   65.3960 O   0  0  0  0  0  0  0  0  0  0  0  0
   24.2640   33.6110   66.7240 C   0  0  0  0  0  2  0  0  0  0  0  0
   23.6630   34.8440   67.3490 C   0  0  0  0  0  2  0  0  0  0  0  0
   24.9700   39.1040   64.5520 C   0  0  0  0  0  0  0  0  0  0  0  0
   25.5150   38.1920   63.7180 N   0  0  0  0  0  0  0  0  0  0  0  0
   26.6220   38.6640   63.2090 O   0  0  0  0  0  0  0  0  0  0  0  0
   26.8570   39.8680   63.6650 N   0  0  0  0  0  0  0  0  0  0  0  0
   25.8510   40.1730   64.5010 C   0  0  0  0  0  0  0  0  0  0  0  0
   25.7420   41.3960   65.1980 N   0  0  0  0  0  0  0  0  0  0  0  0
   25.2080   41.4200   66.0860 H   0  0  0  0  0  0  0  0  0  0  0  0
   26.1750   42.2730   64.8580 H   0  0  0  0  0  0  0  0  0  0  0  0
  1  6  1  0  0  0  0
  2  1  1  0  0  0  0
  3  2  2  0  0  0  0
  4  3  1  0  0  0  0
  4  5  1  0  0  0  0
  5  1  2  0  0  0  0
  6  7  1  0  0  0  0
  7 10  1  0  0  0  0
  7  8  1  0  0  0  0
  9  6  2  0  0  0  0
 10 11  2  0  0  0  0
 11 12  1  0  0  0  0
 12 19  1  0  0  0  0
 13 12  2  0  0  0  0
 13 14  1  0  0  0  0
 14 15  2  0  0  0  0
 15 17  1  0  0  0  0
 15 20  1  0  0  0  0
 16 14  1  0  0  0  0
 17 18  1  0  0  0  0
 19 22  1  0  0  0  0
 19 17  2  0  0  0  0
 20 21  1  0  0  0  0
 23 22  1  0  0  0  0
 24  5  1  0  0  0  0
 24 25  1  0  0  0  0
 25 30  1  0  0  0  0
 26 25  1  0  0  0  0
 27 28  1  0  0  0  0
 27 26  1  0  0  0  0
 28 29  1  0  0  0  0
 29 30  1  0  0  0  0
 31  4  1  0  0  0  0
 32 31  2  0  0  0  0
 33 34  1  0  0  0  0
 33 32  1  0  0  0  0
 34 35  2  0  0  0  0
 35 31  1  0  0  0  0
 35 36  1  0  0  0  0
 36 37  1  0  0  0  0
 38 36  1  0  0  0  0
M  END
>  <Pose>
1

>  <Score>
-8.354

$$$$
