/Users/jonathanwahrer/Desktop/Msc/3_Semester/Drug_Design_Praktikum/waehrer_HTS_screening/HTS_experiment/out/docking_results/vina_output/4x21/1477_docked.pdbqt
 OpenBabel03212202263D

 35 39  0  0  1  0  0  0  0  0999 V2000
   21.1780   33.8050   71.4340 C   0  0  2  0  0  3  0  0  0  0  0  0
   21.9400   32.7150   71.0080 N   0  0  0  0  0  0  0  0  0  0  0  0
   21.0160   31.6090   70.7810 C   0  0  0  0  0  0  0  0  0  0  0  0
   21.2680   30.4920   70.2630 O   0  0  0  0  0  0  0  0  0  0  0  0
   19.6900   31.9750   71.2550 C   0  0  0  0  0  0  0  0  0  0  0  0
   18.6410   31.2490   71.2060 O   0  0  0  0  0  0  0  0  0  0  0  0
   19.8050   33.3100   71.7770 C   0  0  2  0  0  3  0  0  0  0  0  0
   18.8500   33.9740   72.3960 C   0  0  2  0  0  3  0  0  0  0  0  0
   19.1880   34.4520   73.6840 O   0  0  0  0  0  1  0  0  0  0  0  0
   17.5190   34.2420   71.8850 C   0  0  0  0  0  0  0  0  0  0  0  0
   17.0250   35.2070   71.0940 N   0  0  0  0  0  0  0  0  0  0  0  0
   15.7010   35.0950   70.9080 C   0  0  0  0  0  0  0  0  0  0  0  0
   17.6980   36.2210   70.4850 C   0  0  0  0  0  3  0  0  0  0  0  0
   15.3210   34.0050   71.6110 N   0  0  0  0  0  0  0  0  0  0  0  0
   14.9880   35.9740   70.1150 C   0  0  0  0  0  3  0  0  0  0  0  0
   16.3850   33.4660   72.2110 C   0  0  0  0  0  0  0  0  0  0  0  0
   16.4060   32.2730   73.0670 C   0  0  0  0  0  1  0  0  0  0  0  0
   15.6550   36.9980   69.4980 C   0  0  0  0  0  3  0  0  0  0  0  0
   17.0190   37.1140   69.6890 C   0  0  0  0  0  3  0  0  0  0  0  0
   21.1390   35.0720   70.7310 C   0  0  0  0  0  0  0  0  0  0  0  0
   21.0330   35.1060   69.3350 C   0  0  0  0  0  3  0  0  0  0  0  0
   20.9420   36.3050   68.6610 C   0  0  0  0  0  0  0  0  0  0  0  0
   20.7940   36.3450   66.7700 Br  0  0  0  0  0  0  0  0  0  0  0  0
   20.9530   37.5070   69.3390 C   0  0  0  0  0  3  0  0  0  0  0  0
   21.0570   37.5140   70.7190 C   0  0  0  0  0  3  0  0  0  0  0  0
   21.1430   36.3050   71.3460 C   0  0  0  0  0  3  0  0  0  0  0  0
   23.3480   32.5880   70.8970 C   0  0  0  0  0  2  0  0  0  0  0  0
   24.0190   32.6270   69.6000 C   0  0  0  0  0  2  0  0  0  0  0  0
   24.4380   33.8730   69.0280 N   0  0  0  0  0  4  0  0  0  0  0  0
   25.8890   33.9470   69.2010 C   0  0  0  0  0  2  0  0  0  0  0  0
   26.6410   33.3380   68.0620 C   0  0  0  0  0  2  0  0  0  0  0  0
   25.7860   32.5950   67.2350 O   0  0  0  0  0  0  0  0  0  0  0  0
   24.9290   33.5150   66.6720 C   0  0  0  0  0  2  0  0  0  0  0  0
   23.9990   34.0670   67.6870 C   0  0  0  0  0  2  0  0  0  0  0  0
   24.0960   34.7020   69.6000 H   0  0  0  0  0  0  0  0  0  0  0  0
  1 20  1  6  0  0  0
  1  7  1  0  0  0  0
  2  1  1  0  0  0  0
  3  2  1  0  0  0  0
  3  5  1  0  0  0  0
  4  3  2  0  0  0  0
  5  7  1  0  0  0  0
  6  5  2  0  0  0  0
  7  8  1  6  0  0  0
  8  9  1  1  0  0  0
 10 16  2  0  0  0  0
 10  8  1  0  0  0  0
 11 10  1  0  0  0  0
 12 11  1  0  0  0  0
 12 14  2  0  0  0  0
 13 11  1  0  0  0  0
 14 16  1  0  0  0  0
 15 12  1  0  0  0  0
 16 17  1  0  0  0  0
 18 19  1  0  0  0  0
 18 15  2  0  0  0  0
 19 13  2  0  0  0  0
 20 26  1  0  0  0  0
 21 20  2  0  0  0  0
 22 21  1  0  0  0  0
 22 24  2  0  0  0  0
 23 22  1  0  0  0  0
 24 25  1  0  0  0  0
 25 26  2  0  0  0  0
 27  2  1  0  0  0  0
 28 27  1  0  0  0  0
 29 30  1  0  0  0  0
 29 35  1  0  0  0  0
 29 28  1  0  0  0  0
 31 30  1  0  0  0  0
 32 31  1  0  0  0  0
 33 32  1  0  0  0  0
 33 34  1  0  0  0  0
 34 29  1  0  0  0  0
M  END
>  <Pose>
1

>  <Score>
-8.549

$$$$
