/Users/jonathanwahrer/Desktop/Msc/3_Semester/Drug_Design_Praktikum/waehrer_HTS_screening/HTS_experiment/out/docking_results/vina_output/4x21/1487_docked.pdbqt
 OpenBabel03212202263D

 29 32  0  0  1  0  0  0  0  0999 V2000
   21.1820   34.3290   71.9810 N   0  0  0  0  0  4  0  0  0  0  0  0
   20.4250   35.5550   71.9530 C   0  0  0  0  0  2  0  0  0  0  0  0
   20.8420   36.4230   70.8410 C   0  0  2  0  0  0  0  0  0  0  0  0
   21.9100   35.6890   70.2250 N   0  0  0  0  0  0  0  0  0  0  0  0
   23.0130   36.0950   69.3860 C   0  0  0  0  0  3  0  0  0  0  0  0
   23.0400   35.4710   68.0280 C   0  0  0  0  0  3  0  0  0  0  0  0
   22.0770   34.3540   67.8230 C   0  0  0  0  0  2  0  0  0  0  0  0
   22.6270   33.1110   68.5590 C   0  0  0  0  0  2  0  0  0  0  0  0
   22.0370   33.2220   69.9540 C   0  0  0  0  0  3  0  0  0  0  0  0
   21.7480   34.3050   70.6390 C   0  0  0  0  0  0  0  0  0  0  0  0
   21.9660   34.2760   72.6230 H   0  0  0  0  0  0  0  0  0  0  0  0
   21.4230   37.6130   71.3620 O   0  0  0  0  0  0  0  0  0  0  0  0
   22.3620   37.6390   70.9820 H   0  0  0  0  0  0  0  0  0  0  0  0
   19.8180   36.8710   69.9270 C   0  0  0  0  0  0  0  0  0  0  0  0
   18.4860   37.0550   70.2970 C   0  0  0  0  0  3  0  0  0  0  0  0
   17.5110   37.5100   69.4200 C   0  0  0  0  0  0  0  0  0  0  0  0
   17.8780   37.7990   68.1060 C   0  0  0  0  0  3  0  0  0  0  0  0
   19.1710   37.6310   67.7020 C   0  0  0  0  0  3  0  0  0  0  0  0
   20.1290   37.1690   68.6190 C   0  0  0  0  0  3  0  0  0  0  0  0
   16.1790   37.6720   69.8650 N   0  0  0  0  0  0  0  0  0  0  0  0
   15.9460   38.3510   70.9130 O   0  0  0  0  0  0  0  0  0  0  0  0
   15.1160   37.1390   69.2360 O   0  0  0  0  0  0  0  0  0  0  0  0
   20.4140   33.1390   72.0750 C   0  0  0  0  0  0  0  0  0  0  0  0
   19.2070   32.9790   71.4410 C   0  0  0  0  0  3  0  0  0  0  0  0
   18.4070   31.8540   71.6260 C   0  0  0  0  0  0  0  0  0  0  0  0
   16.8860   31.6870   70.7620 Cl  0  0  0  0  0  0  0  0  0  0  0  0
   18.8200   30.8460   72.4730 C   0  0  0  0  0  3  0  0  0  0  0  0
   20.0170   30.9670   73.1270 C   0  0  0  0  0  3  0  0  0  0  0  0
   20.8000   32.0990   72.9300 C   0  0  0  0  0  3  0  0  0  0  0  0
  1 23  1  0  0  0  0
  1 11  1  0  0  0  0
  2  1  1  0  0  0  0
  3 12  1  1  0  0  0
  3  2  1  0  0  0  0
  4 10  1  0  0  0  0
  4  3  1  0  0  0  0
  5  4  1  0  0  0  0
  6  5  2  0  0  0  0
  7  6  1  0  0  0  0
  7  8  1  0  0  0  0
  8  9  1  0  0  0  0
  9 10  2  0  0  0  0
 10  1  1  0  0  0  0
 13 12  1  0  0  0  0
 14 15  1  0  0  0  0
 14  3  1  0  0  0  0
 16 20  1  0  0  0  0
 16 15  2  0  0  0  0
 17 16  1  0  0  0  0
 18 17  2  0  0  0  0
 18 19  1  0  0  0  0
 19 14  2  0  0  0  0
 20 21  2  0  0  0  0
 22 20  2  0  0  0  0
 23 29  1  0  0  0  0
 24 25  1  0  0  0  0
 24 23  2  0  0  0  0
 25 27  2  0  0  0  0
 26 25  1  0  0  0  0
 27 28  1  0  0  0  0
 29 28  2  0  0  0  0
M  END
>  <Pose>
1

>  <Score>
-7.923

$$$$
