/Users/jonathanwahrer/Desktop/Msc/3_Semester/Drug_Design_Praktikum/waehrer_HTS_screening/HTS_experiment/out/docking_results/vina_output/4x21/1506_docked.pdbqt
 OpenBabel03212202273D

 32 35  0  0  1  0  0  0  0  0999 V2000
   18.0770   31.1020   73.3390 N   0  0  0  0  0  0  0  0  0  0  0  0
   19.2190   31.5750   72.5970 C   0  0  0  0  0  0  0  0  0  0  0  0
   19.6580   30.8890   71.6610 O   0  0  0  0  0  0  0  0  0  0  0  0
   17.7540   31.7290   74.0720 H   0  0  0  0  0  0  0  0  0  0  0  0
   19.8790   32.8610   72.9260 C   0  0  2  0  0  3  0  0  0  0  0  0
   18.8030   33.9120   73.0870 C   0  0  0  0  0  2  0  0  0  0  0  0
   18.2510   34.2020   71.7090 C   0  0  0  0  0  2  0  0  0  0  0  0
   19.3130   34.9120   71.0030 N   0  0  0  0  0  0  0  0  0  0  0  0
   20.6750   34.5730   71.2390 C   0  0  0  0  0  2  0  0  0  0  0  0
   20.9010   33.2800   71.9350 C   0  0  0  0  0  2  0  0  0  0  0  0
   18.9280   35.9260   70.0960 C   0  0  0  0  0  0  0  0  0  0  0  0
   19.7090   36.3300   69.0760 N   0  0  0  0  0  0  0  0  0  0  0  0
   19.3650   37.2760   68.2220 N   0  0  0  0  0  0  0  0  0  0  0  0
   19.9940   37.7970   67.1730 N   0  0  0  0  0  0  0  0  0  0  0  0
   18.1960   37.9210   68.2990 C   0  0  0  0  0  0  0  0  0  0  0  0
   19.2640   38.7240   66.6140 N   0  0  0  0  0  0  0  0  0  0  0  0
   18.1410   38.8200   67.2940 N   0  0  0  0  0  0  0  0  0  0  0  0
   17.3480   37.5510   69.3280 C   0  0  0  0  0  3  0  0  0  0  0  0
   17.7060   36.5620   70.2220 C   0  0  0  0  0  3  0  0  0  0  0  0
   17.5200   29.8680   72.9470 C   0  0  0  0  0  3  0  0  0  0  0  0
   16.4090   29.7820   71.9850 C   0  0  0  0  0  3  0  0  0  0  0  0
   15.8550   30.9800   71.4800 N   0  0  0  0  0  0  0  0  0  0  0  0
   14.8730   31.8210   71.9810 C   0  0  0  0  0  0  0  0  0  0  0  0
   14.3060   31.5990   73.0720 O   0  0  0  0  0  0  0  0  0  0  0  0
   16.2470   31.3390   70.5030 H   0  0  0  0  0  0  0  0  0  0  0  0
   14.4260   33.0380   71.2640 C   0  0  0  0  0  0  0  0  0  0  0  0
   14.7600   34.2820   71.7560 C   0  0  0  0  0  3  0  0  0  0  0  0
   14.3750   35.4390   71.1210 C   0  0  0  0  0  3  0  0  0  0  0  0
   13.6300   35.3580   69.9560 C   0  0  0  0  0  0  0  0  0  0  0  0
   13.1310   36.8290   69.1370 Cl  0  0  0  0  0  0  0  0  0  0  0  0
   13.2800   34.1380   69.4400 C   0  0  0  0  0  3  0  0  0  0  0  0
   13.6890   32.9830   70.1110 C   0  0  0  0  0  3  0  0  0  0  0  0
  1  4  1  0  0  0  0
  2  1  1  0  0  0  0
  3  2  2  0  0  0  0
  5  2  1  6  0  0  0
  5  6  1  0  0  0  0
  7  6  1  0  0  0  0
  8  9  1  0  0  0  0
  8  7  1  0  0  0  0
  9 10  1  0  0  0  0
 10  5  1  0  0  0  0
 11 19  1  0  0  0  0
 11  8  1  0  0  0  0
 12 11  2  0  0  0  0
 13 15  1  0  0  0  0
 13 12  1  0  0  0  0
 14 13  1  0  0  0  0
 15 18  1  0  0  0  0
 16 14  2  0  0  0  0
 16 17  1  0  0  0  0
 17 15  2  0  0  0  0
 18 19  2  0  0  0  0
 20  1  1  0  0  0  0
 21 20  2  0  0  0  0
 22 23  1  0  0  0  0
 22 21  1  0  0  0  0
 23 24  2  0  0  0  0
 25 22  1  0  0  0  0
 26 27  1  0  0  0  0
 26 23  1  0  0  0  0
 28 27  2  0  0  0  0
 29 28  1  0  0  0  0
 30 29  1  0  0  0  0
 31 29  2  0  0  0  0
 31 32  1  0  0  0  0
 32 26  2  0  0  0  0
M  END
>  <Pose>
1

>  <Score>
-9.638

$$$$
