/Users/jonathanwahrer/Desktop/Msc/3_Semester/Drug_Design_Praktikum/waehrer_HTS_screening/HTS_experiment/out/docking_results/vina_output/4x21/1507_docked.pdbqt
 OpenBabel03212202273D

 32 35  0  0  1  0  0  0  0  0999 V2000
   17.2360   29.5100   73.1370 C   0  0  0  0  0  0  0  0  0  0  0  0
   16.1270   30.1770   73.3800 C   0  0  0  0  0  0  0  0  0  0  0  0
   15.7830   31.6040   73.0750 C   0  0  2  0  0  3  0  0  0  0  0  0
   14.4420   31.4950   72.6270 N   0  0  0  0  0  0  0  0  0  0  0  0
   13.8350   30.5730   73.5820 C   0  0  0  0  0  0  0  0  0  0  0  0
   12.6270   30.5110   73.9290 O   0  0  0  0  0  0  0  0  0  0  0  0
   14.9170   29.7240   74.0660 C   0  0  0  0  0  0  0  0  0  0  0  0
   14.8960   28.7660   74.9090 O   0  0  0  0  0  0  0  0  0  0  0  0
   18.3260   30.0960   72.5180 O   0  0  0  0  0  1  0  0  0  0  0  0
   17.3720   28.1080   73.5130 C   0  0  0  0  0  0  0  0  0  0  0  0
   17.9940   27.7260   74.6880 C   0  0  0  0  0  3  0  0  0  0  0  0
   18.1080   26.3900   74.9570 C   0  0  0  0  0  3  0  0  0  0  0  0
   17.6410   25.3960   74.1290 C   0  0  0  0  0  0  0  0  0  0  0  0
   17.8390   23.5370   74.5790 Br  0  0  0  0  0  0  0  0  0  0  0  0
   17.0200   25.7700   72.9550 C   0  0  0  0  0  3  0  0  0  0  0  0
   16.8970   27.1330   72.6670 C   0  0  0  0  0  3  0  0  0  0  0  0
   16.7890   32.3150   72.3590 C   0  0  0  0  0  0  0  0  0  0  0  0
   17.5690   33.2280   73.0270 C   0  0  0  0  0  3  0  0  0  0  0  0
   18.5690   33.9400   72.4100 C   0  0  0  0  0  3  0  0  0  0  0  0
   18.8330   33.7560   71.0610 C   0  0  0  0  0  0  0  0  0  0  0  0
   18.0390   32.8350   70.4070 C   0  0  0  0  0  3  0  0  0  0  0  0
   20.1020   34.6530   70.2640 Cl  0  0  0  0  0  0  0  0  0  0  0  0
   17.0380   32.1260   71.0330 C   0  0  0  0  0  3  0  0  0  0  0  0
   13.6720   32.1120   71.5640 C   0  0  0  0  0  2  0  0  0  0  0  0
   13.5410   33.5850   71.5820 C   0  0  0  0  0  2  0  0  0  0  0  0
   14.2760   34.2660   70.5100 N   0  0  0  0  0  4  0  0  0  0  0  0
   15.0910   35.3000   71.0500 C   0  0  0  0  0  2  0  0  0  0  0  0
   14.7490   36.6940   70.6580 C   0  0  0  0  0  2  0  0  0  0  0  0
   14.1280   36.8350   69.4310 O   0  0  0  0  0  0  0  0  0  0  0  0
   12.9240   36.1040   69.5460 C   0  0  0  0  0  2  0  0  0  0  0  0
   13.3150   34.6680   69.5260 C   0  0  0  0  0  2  0  0  0  0  0  0
   14.8830   33.5010   70.0810 H   0  0  0  0  0  0  0  0  0  0  0  0
  1  2  2  0  0  0  0
  1 10  1  0  0  0  0
  2  7  1  0  0  0  0
  3 17  1  6  0  0  0
  3  2  1  0  0  0  0
  4  3  1  0  0  0  0
  4  5  1  0  0  0  0
  5  6  2  0  0  0  0
  5  7  1  0  0  0  0
  7  8  2  0  0  0  0
  9  1  1  0  0  0  0
 10 11  1  0  0  0  0
 11 12  2  0  0  0  0
 13 14  1  0  0  0  0
 13 12  1  0  0  0  0
 15 13  2  0  0  0  0
 16 15  1  0  0  0  0
 16 10  2  0  0  0  0
 17 18  1  0  0  0  0
 19 18  2  0  0  0  0
 20 19  1  0  0  0  0
 21 23  1  0  0  0  0
 21 20  2  0  0  0  0
 22 20  1  0  0  0  0
 23 17  2  0  0  0  0
 24 25  1  0  0  0  0
 24  4  1  0  0  0  0
 26 27  1  0  0  0  0
 26 25  1  0  0  0  0
 28 27  1  0  0  0  0
 29 30  1  0  0  0  0
 29 28  1  0  0  0  0
 31 30  1  0  0  0  0
 31 26  1  0  0  0  0
 32 26  1  0  0  0  0
M  END
>  <Pose>
1

>  <Score>
-8.091

$$$$
