/Users/jonathanwahrer/Desktop/Msc/3_Semester/Drug_Design_Praktikum/waehrer_HTS_screening/HTS_experiment/out/docking_results/vina_output/4x21/1511_docked.pdbqt
 OpenBabel03212202283D

 34 37  0  0  0  0  0  0  0  0999 V2000
   22.8310   36.8800   66.9230 N   0  0  0  0  0  0  0  0  0  0  0  0
   22.4040   36.5040   68.1400 C   0  0  0  0  0  0  0  0  0  0  0  0
   21.9730   37.3270   68.9880 O   0  0  0  0  0  0  0  0  0  0  0  0
   22.5070   35.1330   68.3050 C   0  0  0  0  0  0  0  0  0  0  0  0
   23.0060   34.6680   67.1660 C   0  0  0  0  0  0  0  0  0  0  0  0
   23.1060   33.3400   67.3270 N   0  0  0  0  0  0  0  0  0  0  0  0
   22.6790   33.0030   68.5310 N   0  0  0  0  0  0  0  0  0  0  0  0
   22.3050   34.0920   69.1480 N   0  0  0  0  0  0  0  0  0  0  0  0
   23.2080   35.7340   66.3140 C   0  0  0  0  0  0  0  0  0  0  0  0
   23.6780   35.6540   65.1310 O   0  0  0  0  0  0  0  0  0  0  0  0
   23.4590   32.6500   66.6350 H   0  0  0  0  0  0  0  0  0  0  0  0
   22.6360   32.0260   68.9490 H   0  0  0  0  0  0  0  0  0  0  0  0
   21.7720   34.2100   70.4840 C   0  0  0  0  0  2  0  0  0  0  0  0
   20.2760   34.4060   70.4040 C   0  0  0  0  0  0  0  0  0  0  0  0
   19.5440   33.4200   70.1660 O   0  0  0  0  0  0  0  0  0  0  0  0
   19.7220   35.6800   70.5970 N   0  0  0  0  0  0  0  0  0  0  0  0
   20.4100   36.4770   70.7980 H   0  0  0  0  0  0  0  0  0  0  0  0
   18.3500   35.9990   70.5550 C   0  0  0  0  0  0  0  0  0  0  0  0
   17.3320   35.2430   71.0770 C   0  0  0  0  0  3  0  0  0  0  0  0
   16.0030   35.6030   70.9880 C   0  0  0  0  0  0  0  0  0  0  0  0
   15.6930   36.7820   70.3430 C   0  0  0  0  0  0  0  0  0  0  0  0
   16.6920   37.5750   69.8030 C   0  0  0  0  0  3  0  0  0  0  0  0
   18.0040   37.1970   69.9020 C   0  0  0  0  0  3  0  0  0  0  0  0
   14.9900   34.8140   71.5280 O   0  0  0  0  0  0  0  0  0  0  0  0
   14.9270   33.4430   71.1160 C   0  0  0  0  0  1  0  0  0  0  0  0
   14.3580   37.1640   70.2420 O   0  0  0  0  0  0  0  0  0  0  0  0
   13.5910   36.7110   69.1440 C   0  0  0  0  0  1  0  0  0  0  0  0
   22.9010   38.1750   66.3370 C   0  0  0  0  0  0  0  0  0  0  0  0
   21.8000   38.9930   66.1910 C   0  0  0  0  0  3  0  0  0  0  0  0
   21.9050   40.2540   65.6120 C   0  0  0  0  0  3  0  0  0  0  0  0
   23.1190   40.7320   65.1600 C   0  0  0  0  0  0  0  0  0  0  0  0
   23.2720   42.4660   64.3620 Br  0  0  0  0  0  0  0  0  0  0  0  0
   24.2160   39.9070   65.3100 C   0  0  0  0  0  3  0  0  0  0  0  0
   24.1100   38.6570   65.8850 C   0  0  0  0  0  3  0  0  0  0  0  0
  1  2  1  0  0  0  0
  2  4  1  0  0  0  0
  2  3  2  0  0  0  0
  4  8  1  0  0  0  0
  5  6  1  0  0  0  0
  5  4  2  0  0  0  0
  6  7  1  0  0  0  0
  7 12  1  0  0  0  0
  7  8  1  0  0  0  0
  8 13  1  0  0  0  0
  9  1  1  0  0  0  0
  9  5  1  0  0  0  0
 10  9  2  0  0  0  0
 11  6  1  0  0  0  0
 14 13  1  0  0  0  0
 14 16  1  0  0  0  0
 15 14  2  0  0  0  0
 16 17  1  0  0  0  0
 18 16  1  0  0  0  0
 18 19  1  0  0  0  0
 20 19  2  0  0  0  0
 20 24  1  0  0  0  0
 21 20  1  0  0  0  0
 22 23  1  0  0  0  0
 22 21  2  0  0  0  0
 23 18  2  0  0  0  0
 25 24  1  0  0  0  0
 26 21  1  0  0  0  0
 27 26  1  0  0  0  0
 28  1  1  0  0  0  0
 29 28  1  0  0  0  0
 30 29  2  0  0  0  0
 31 33  2  0  0  0  0
 31 30  1  0  0  0  0
 32 31  1  0  0  0  0
 33 34  1  0  0  0  0
 34 28  2  0  0  0  0
M  END
>  <Pose>
1

>  <Score>
-9.143

$$$$
