/Users/jonathanwahrer/Desktop/Msc/3_Semester/Drug_Design_Praktikum/waehrer_HTS_screening/HTS_experiment/out/docking_results/vina_output/4x21/1521_docked.pdbqt
 OpenBabel03212202283D

 24 27  0  0  1  0  0  0  0  0999 V2000
   12.9590   34.5800   69.3320 Cl  0  0  0  0  0  0  0  0  0  0  0  0
   14.3630   35.4720   69.8800 C   0  0  0  0  0  0  0  0  0  0  0  0
   15.4860   34.7870   70.2770 C   0  0  0  0  0  0  0  0  0  0  0  0
   15.8180   33.4880   70.3620 N   0  0  0  0  0  0  0  0  0  0  0  0
   17.0730   33.3280   70.8230 C   0  0  0  0  0  0  0  0  0  0  0  0
   17.5520   34.6020   71.0390 C   0  0  0  0  0  0  0  0  0  0  0  0
   16.5800   35.5210   70.7050 C   0  0  0  0  0  0  0  0  0  0  0  0
   16.5080   36.8990   70.7180 C   0  0  0  0  0  3  0  0  0  0  0  0
   15.3990   37.6060   70.3270 C   0  0  0  0  0  3  0  0  0  0  0  0
   14.3020   36.8660   69.8980 C   0  0  0  0  0  3  0  0  0  0  0  0
   18.9410   34.6880   71.5540 C   0  0  0  0  0  2  0  0  0  0  0  0
   19.7180   33.8620   70.6580 N   0  0  0  0  0  0  0  0  0  0  0  0
   19.4300   32.4830   70.7220 C   0  0  0  0  0  2  0  0  0  0  0  0
   18.0010   32.2220   71.1400 C   0  0  0  0  0  2  0  0  0  0  0  0
   15.2050   32.6620   70.1110 H   0  0  0  0  0  0  0  0  0  0  0  0
   21.0460   34.2710   70.4780 C   0  0  0  0  0  2  0  0  0  0  0  0
   21.2890   34.9230   69.1510 C   0  0  1  0  0  0  0  0  0  0  0  0
   20.4390   36.1230   68.9130 C   0  0  0  0  0  2  0  0  0  0  0  0
   21.2490   37.2570   68.6270 N   0  0  0  0  0  0  0  0  0  0  0  0
   22.6240   36.8880   68.7210 C   0  0  0  0  0  3  0  0  0  0  0  0
   21.0190   37.7240   67.7180 H   0  0  0  0  0  0  0  0  0  0  0  0
   22.6960   35.4550   69.1300 C   0  0  0  0  0  3  0  0  0  0  0  0
   21.1940   33.9940   68.1080 O   0  0  0  0  0  0  0  0  0  0  0  0
   20.4420   33.3900   68.3500 H   0  0  0  0  0  0  0  0  0  0  0  0
  1  2  1  0  0  0  0
  2 10  2  0  0  0  0
  2  3  1  0  0  0  0
  3  4  1  0  0  0  0
  3  7  2  0  0  0  0
  4  5  1  0  0  0  0
  5  6  2  0  0  0  0
  5 14  1  0  0  0  0
  6 11  1  0  0  0  0
  7  8  1  0  0  0  0
  7  6  1  0  0  0  0
  9  8  2  0  0  0  0
 10  9  1  0  0  0  0
 12 13  1  0  0  0  0
 12 11  1  0  0  0  0
 13 14  1  0  0  0  0
 15  4  1  0  0  0  0
 16 12  1  0  0  0  0
 17 16  1  1  0  0  0
 18 17  1  0  0  0  0
 19 20  1  0  0  0  0
 19 18  1  0  0  0  0
 20 22  2  0  0  0  0
 21 19  1  0  0  0  0
 22 17  1  0  0  0  0
 23 24  1  0  0  0  0
 23 17  1  0  0  0  0
M  END
>  <Pose>
1

>  <Score>
-7.773

$$$$
