/Users/jonathanwahrer/Desktop/Msc/3_Semester/Drug_Design_Praktikum/waehrer_HTS_screening/HTS_experiment/out/docking_results/vina_output/4x21/1523_docked.pdbqt
 OpenBabel03212202283D

 25 28  0  0  0  0  0  0  0  0999 V2000
   20.1980   32.2760   70.7840 C   0  0  0  0  0  0  0  0  0  0  0  0
   20.8130   31.2290   70.3760 O   0  0  0  0  0  0  0  0  0  0  0  0
   20.8940   33.4630   71.0130 N   0  0  0  0  0  0  0  0  0  0  0  0
   22.3130   33.5100   70.7940 C   0  0  0  0  0  2  0  0  0  0  0  0
   22.5860   34.4290   69.6360 C   0  0  0  0  0  2  0  0  0  0  0  0
   21.8020   35.6220   69.7780 N   0  0  0  0  0  0  0  0  0  0  0  0
   21.2360   35.8550   71.1210 C   0  0  0  0  0  2  0  0  0  0  0  0
   20.3040   34.7020   71.4690 C   0  0  0  0  0  2  0  0  0  0  0  0
   21.5090   36.5750   68.8020 C   0  0  0  0  0  0  0  0  0  0  0  0
   20.8030   37.5830   69.2150 O   0  0  0  0  0  0  0  0  0  0  0  0
   18.7390   32.1100   70.9810 C   0  0  0  0  0  0  0  0  0  0  0  0
   18.0840   30.9990   71.3480 N   0  0  0  0  0  0  0  0  0  0  0  0
   16.7970   31.2560   71.4130 N   0  0  0  0  0  0  0  0  0  0  0  0
   16.5580   32.5330   71.0930 N   0  0  0  0  0  0  0  0  0  0  0  0
   17.7620   33.0650   70.8240 C   0  0  0  0  0  3  0  0  0  0  0  0
   15.2880   33.1610   71.0570 C   0  0  0  0  0  0  0  0  0  0  0  0
   15.1250   34.3700   70.4250 C   0  0  0  0  0  3  0  0  0  0  0  0
   13.8600   34.9750   70.3990 C   0  0  0  0  0  0  0  0  0  0  0  0
   13.6160   36.6530   69.5280 Br  0  0  0  0  0  0  0  0  0  0  0  0
   12.7830   34.3770   70.9970 C   0  0  0  0  0  3  0  0  0  0  0  0
   12.9360   33.1670   71.6310 C   0  0  0  0  0  3  0  0  0  0  0  0
   14.2030   32.5710   71.6500 C   0  0  0  0  0  3  0  0  0  0  0  0
   21.8690   36.6240   67.3900 C   0  0  0  0  0  3  0  0  0  0  0  0
   20.9140   36.4940   66.2890 C   0  0  0  0  0  2  0  0  0  0  0  0
   21.6650   37.8040   66.5140 C   0  0  0  0  0  2  0  0  0  0  0  0
  1 11  1  0  0  0  0
  1  3  1  0  0  0  0
  2  1  2  0  0  0  0
  3  8  1  0  0  0  0
  4  3  1  0  0  0  0
  5  6  1  0  0  0  0
  5  4  1  0  0  0  0
  6  7  1  0  0  0  0
  7  8  1  0  0  0  0
  9 10  2  0  0  0  0
  9  6  1  0  0  0  0
 11 12  1  0  0  0  0
 12 13  2  0  0  0  0
 14 13  1  0  0  0  0
 15 11  2  0  0  0  0
 15 14  1  0  0  0  0
 16 14  1  0  0  0  0
 16 22  1  0  0  0  0
 17 16  2  0  0  0  0
 18 17  1  0  0  0  0
 18 20  2  0  0  0  0
 19 18  1  0  0  0  0
 20 21  1  0  0  0  0
 21 22  2  0  0  0  0
 23  9  1  0  0  0  0
 24 25  1  0  0  0  0
 24 23  1  0  0  0  0
 25 23  1  0  0  0  0
M  END
>  <Pose>
1

>  <Score>
-8.806

$$$$
