/Users/jonathanwahrer/Desktop/Msc/3_Semester/Drug_Design_Praktikum/waehrer_HTS_screening/HTS_experiment/out/docking_results/vina_output/4x21/1531_docked.pdbqt
 OpenBabel03212202293D

 27 30  0  0  0  0  0  0  0  0999 V2000
   17.6570   37.3270   69.7840 N   0  0  0  0  0  0  0  0  0  0  0  0
   18.2860   37.5410   68.5850 C   0  0  0  0  0  0  0  0  0  0  0  0
   19.3240   36.7020   68.5510 N   0  0  0  0  0  0  0  0  0  0  0  0
   19.4080   35.9520   69.6630 C   0  0  0  0  0  0  0  0  0  0  0  0
   18.3420   36.3560   70.4470 C   0  0  0  0  0  3  0  0  0  0  0  0
   20.0610   36.8580   67.3020 C   0  0  0  0  0  3  0  0  0  0  0  0
   19.3970   38.0010   66.5920 C   0  0  0  0  0  3  0  0  0  0  0  0
   18.1810   38.3720   67.3620 C   0  0  0  0  0  3  0  0  0  0  0  0
   16.4710   37.9700   70.2360 C   0  0  0  0  0  3  0  0  0  0  0  0
   15.3100   37.2140   70.6440 C   0  0  0  0  0  0  0  0  0  0  0  0
   14.2960   37.9540   71.0490 O   0  0  0  0  0  1  0  0  0  0  0  0
   15.0550   35.7990   70.6900 C   0  0  0  0  0  0  0  0  0  0  0  0
   14.1970   35.0990   69.8980 C   0  0  0  0  0  3  0  0  0  0  0  0
   13.9910   33.7140   69.9880 C   0  0  0  0  0  3  0  0  0  0  0  0
   14.6820   32.9850   70.9240 C   0  0  0  0  0  0  0  0  0  0  0  0
   15.5600   33.6550   71.7450 C   0  0  0  0  0  0  0  0  0  0  0  0
   14.4290   31.2590   71.0410 Cl  0  0  0  0  0  0  0  0  0  0  0  0
   16.4460   32.7460   72.9400 Cl  0  0  0  0  0  0  0  0  0  0  0  0
   15.7390   34.9950   71.6360 C   0  0  0  0  0  3  0  0  0  0  0  0
   20.3870   34.9260   70.0190 C   0  0  0  0  0  0  0  0  0  0  0  0
   21.7470   35.0870   69.9530 C   0  0  0  0  0  3  0  0  0  0  0  0
   22.6240   34.0530   70.3140 C   0  0  0  0  0  3  0  0  0  0  0  0
   22.1670   32.8300   70.7500 C   0  0  0  0  0  0  0  0  0  0  0  0
   20.8010   32.6580   70.8180 C   0  0  0  0  0  3  0  0  0  0  0  0
   19.9410   33.6760   70.4640 C   0  0  0  0  0  3  0  0  0  0  0  0
   23.0230   31.7980   71.1090 O   0  0  0  0  0  0  0  0  0  0  0  0
   22.5510   30.4650   71.1800 C   0  0  0  0  0  1  0  0  0  0  0  0
  1  9  1  0  0  0  0
  1  5  1  0  0  0  0
  2  1  1  0  0  0  0
  3  2  1  0  0  0  0
  3  4  1  0  0  0  0
  4 20  1  0  0  0  0
  4  5  2  0  0  0  0
  6  3  1  0  0  0  0
  7  6  2  0  0  0  0
  7  8  1  0  0  0  0
  8  2  2  0  0  0  0
  9 10  2  0  0  0  0
 10 12  1  0  0  0  0
 10 11  1  0  0  0  0
 12 19  1  0  0  0  0
 13 14  1  0  0  0  0
 13 12  2  0  0  0  0
 14 15  2  0  0  0  0
 15 17  1  0  0  0  0
 15 16  1  0  0  0  0
 16 18  1  0  0  0  0
 19 16  2  0  0  0  0
 20 25  1  0  0  0  0
 21 20  2  0  0  0  0
 21 22  1  0  0  0  0
 22 23  2  0  0  0  0
 23 24  1  0  0  0  0
 23 26  1  0  0  0  0
 25 24  2  0  0  0  0
 26 27  1  0  0  0  0
M  END
>  <Pose>
1

>  <Score>
-8.191

$$$$
