/Users/jonathanwahrer/Desktop/Msc/3_Semester/Drug_Design_Praktikum/waehrer_HTS_screening/HTS_experiment/out/docking_results/vina_output/4x21/1533_docked.pdbqt
 OpenBabel03212202293D

 28 31  0  0  1  0  0  0  0  0999 V2000
   16.3320   34.6400   70.8470 C   0  0  0  0  0  0  0  0  0  0  0  0
   15.0170   34.7580   70.5280 N   0  0  0  0  0  0  0  0  0  0  0  0
   14.8190   35.9110   69.8820 C   0  0  2  0  0  3  0  0  0  0  0  0
   16.0030   36.5850   69.7560 N   0  0  0  0  0  0  0  0  0  0  0  0
   16.9150   35.7970   70.3500 C   0  0  0  0  0  3  0  0  0  0  0  0
   13.3920   36.0820   69.5260 C   0  0  0  0  0  2  0  0  0  0  0  0
   12.9000   34.6620   69.5580 C   0  0  0  0  0  2  0  0  0  0  0  0
   13.7460   34.0410   70.6450 C   0  0  0  0  0  2  0  0  0  0  0  0
   16.1990   37.8770   69.1650 C   0  0  0  0  0  3  0  0  0  0  0  0
   17.4380   38.2650   68.5470 C   0  0  0  0  0  0  0  0  0  0  0  0
   17.4080   39.4980   68.0500 O   0  0  0  0  0  1  0  0  0  0  0  0
   18.7070   37.6130   68.3460 C   0  0  0  0  0  0  0  0  0  0  0  0
   19.4020   37.0760   69.4530 C   0  0  0  0  0  3  0  0  0  0  0  0
   20.6110   36.4380   69.3620 C   0  0  0  0  0  0  0  0  0  0  0  0
   21.1590   36.3290   68.1000 C   0  0  0  0  0  3  0  0  0  0  0  0
   20.5010   36.8440   67.0050 C   0  0  0  0  0  3  0  0  0  0  0  0
   19.2690   37.4930   67.1040 C   0  0  0  0  0  3  0  0  0  0  0  0
   21.2910   35.9080   70.4840 N   0  0  0  0  0  0  0  0  0  0  0  0
   21.1330   36.4340   71.5910 O   0  0  0  0  0  0  0  0  0  0  0  0
   22.1190   34.8280   70.3800 O   0  0  0  0  0  0  0  0  0  0  0  0
   17.0440   33.5720   71.5480 C   0  0  0  0  0  0  0  0  0  0  0  0
   18.1680   33.8970   72.2740 C   0  0  0  0  0  3  0  0  0  0  0  0
   18.8860   32.9290   72.9800 C   0  0  0  0  0  3  0  0  0  0  0  0
   18.4570   31.6220   72.9480 C   0  0  0  0  0  0  0  0  0  0  0  0
   17.3440   31.2930   72.2310 C   0  0  0  0  0  0  0  0  0  0  0  0
   19.3770   30.4150   73.8470 Cl  0  0  0  0  0  0  0  0  0  0  0  0
   16.8270   29.6210   72.2110 Cl  0  0  0  0  0  0  0  0  0  0  0  0
   16.6400   32.2690   71.5320 C   0  0  0  0  0  3  0  0  0  0  0  0
  1 21  1  0  0  0  0
  2  8  1  0  0  0  0
  2  1  1  0  0  0  0
  3  6  1  1  0  0  0
  3  2  1  0  0  0  0
  4  3  1  0  0  0  0
  4  5  1  0  0  0  0
  5  1  2  0  0  0  0
  6  7  1  0  0  0  0
  7  8  1  0  0  0  0
  9  4  1  0  0  0  0
 10  9  2  0  0  0  0
 11 10  1  0  0  0  0
 12 10  1  0  0  0  0
 12 13  1  0  0  0  0
 14 13  2  0  0  0  0
 14 18  1  0  0  0  0
 15 14  1  0  0  0  0
 16 17  1  0  0  0  0
 16 15  2  0  0  0  0
 17 12  2  0  0  0  0
 18 19  2  0  0  0  0
 20 18  2  0  0  0  0
 21 22  1  0  0  0  0
 22 23  2  0  0  0  0
 24 23  1  0  0  0  0
 24 26  1  0  0  0  0
 25 24  2  0  0  0  0
 27 25  1  0  0  0  0
 28 21  2  0  0  0  0
 28 25  1  0  0  0  0
M  END
>  <Pose>
1

>  <Score>
-9.158

$$$$
