/Users/jonathanwahrer/Desktop/Msc/3_Semester/Drug_Design_Praktikum/waehrer_HTS_screening/HTS_experiment/out/docking_results/vina_output/4x21/1535_docked.pdbqt
 OpenBabel03212202293D

 28 31  0  0  1  0  0  0  0  0999 V2000
   15.5870   34.0040   71.0800 C   0  0  0  0  0  0  0  0  0  0  0  0
   14.4570   34.5650   70.6180 N   0  0  0  0  0  0  0  0  0  0  0  0
   14.7040   35.8410   70.2540 C   0  0  2  0  0  3  0  0  0  0  0  0
   16.0050   36.0940   70.4860 N   0  0  0  0  0  0  0  0  0  0  0  0
   16.5940   34.9780   71.0000 C   0  0  0  0  0  3  0  0  0  0  0  0
   13.4630   36.4750   69.7530 C   0  0  0  0  0  2  0  0  0  0  0  0
   12.7620   35.2590   69.2040 C   0  0  0  0  0  2  0  0  0  0  0  0
   13.0430   34.2770   70.3540 C   0  0  0  0  0  2  0  0  0  0  0  0
   16.6630   37.3310   70.2770 C   0  0  0  0  0  2  0  0  0  0  0  0
   17.4610   37.6170   69.1190 C   0  0  2  0  0  3  0  0  0  0  0  0
   16.8240   38.3940   68.2660 O   0  0  0  0  0  1  0  0  0  0  0  0
   18.7910   37.2230   68.7200 C   0  0  0  0  0  0  0  0  0  0  0  0
   19.6660   36.5090   69.4940 C   0  0  0  0  0  3  0  0  0  0  0  0
   20.9410   36.1620   69.0400 C   0  0  0  0  0  0  0  0  0  0  0  0
   21.3480   36.5320   67.7990 C   0  0  0  0  0  3  0  0  0  0  0  0
   20.4880   37.2510   66.9980 C   0  0  0  0  0  3  0  0  0  0  0  0
   19.2370   37.5960   67.4320 C   0  0  0  0  0  3  0  0  0  0  0  0
   21.8060   35.4160   69.8980 N   0  0  0  0  0  0  0  0  0  0  0  0
   22.8310   34.8920   69.4280 O   0  0  0  0  0  0  0  0  0  0  0  0
   21.5440   35.2570   71.2210 O   0  0  0  0  0  0  0  0  0  0  0  0
   15.8410   32.6560   71.5910 C   0  0  0  0  0  0  0  0  0  0  0  0
   16.8900   31.8910   71.0700 C   0  0  0  0  0  3  0  0  0  0  0  0
   17.1840   30.6330   71.5220 C   0  0  0  0  0  3  0  0  0  0  0  0
   16.4440   30.0590   72.5280 C   0  0  0  0  0  0  0  0  0  0  0  0
   15.4110   30.7810   73.0620 C   0  0  0  0  0  0  0  0  0  0  0  0
   16.8290   28.4500   73.0990 Cl  0  0  0  0  0  0  0  0  0  0  0  0
   14.4340   30.1230   74.3360 Cl  0  0  0  0  0  0  0  0  0  0  0  0
   15.1250   32.0750   72.5830 C   0  0  0  0  0  3  0  0  0  0  0  0
  1 21  1  0  0  0  0
  2  1  1  0  0  0  0
  3  6  1  1  0  0  0
  3  4  1  0  0  0  0
  3  2  1  0  0  0  0
  4  5  1  0  0  0  0
  5  1  2  0  0  0  0
  7  6  1  0  0  0  0
  7  8  1  0  0  0  0
  8  2  1  0  0  0  0
  9  4  1  0  0  0  0
 10 11  1  6  0  0  0
 10  9  1  0  0  0  0
 12 10  1  0  0  0  0
 12 13  1  0  0  0  0
 14 13  2  0  0  0  0
 14 18  1  0  0  0  0
 15 14  1  0  0  0  0
 16 17  1  0  0  0  0
 16 15  2  0  0  0  0
 17 12  2  0  0  0  0
 18 20  2  0  0  0  0
 19 18  2  0  0  0  0
 21 28  1  0  0  0  0
 22 23  1  0  0  0  0
 22 21  2  0  0  0  0
 23 24  2  0  0  0  0
 24 25  1  0  0  0  0
 24 26  1  0  0  0  0
 25 27  1  0  0  0  0
 28 25  2  0  0  0  0
M  END
>  <Pose>
1

>  <Score>
-9.015

$$$$
