/Users/jonathanwahrer/Desktop/Msc/3_Semester/Drug_Design_Praktikum/waehrer_HTS_screening/HTS_experiment/out/docking_results/vina_output/4x21/1539_docked.pdbqt
 OpenBabel03212202303D

 34 37  0  0  1  0  0  0  0  0999 V2000
   23.7660   36.7300   68.8710 C   0  0  2  0  0  3  0  0  0  0  0  0
   24.2410   35.3700   68.5850 N   0  0  0  0  0  0  0  0  0  0  0  0
   23.2270   34.7920   67.7750 C   0  0  0  0  0  0  0  0  0  0  0  0
   23.3720   33.8920   66.9310 O   0  0  0  0  0  0  0  0  0  0  0  0
   21.9840   35.4660   68.1340 C   0  0  0  0  0  0  0  0  0  0  0  0
   20.8070   35.3090   67.6920 O   0  0  0  0  0  0  0  0  0  0  0  0
   22.3340   36.4430   69.1750 C   0  0  0  0  0  0  0  0  0  0  0  0
   21.5320   36.9300   70.1010 C   0  0  0  0  0  0  0  0  0  0  0  0
   22.0390   37.8880   70.9830 O   0  0  0  0  0  1  0  0  0  0  0  0
   23.8970   37.4810   67.5990 C   0  0  0  0  0  0  0  0  0  0  0  0
   25.1010   37.5720   66.9340 C   0  0  0  0  0  3  0  0  0  0  0  0
   25.2510   38.2640   65.7510 C   0  0  0  0  0  3  0  0  0  0  0  0
   24.1710   38.9070   65.1720 C   0  0  0  0  0  0  0  0  0  0  0  0
   24.3410   39.7960   63.6600 Cl  0  0  0  0  0  0  0  0  0  0  0  0
   22.9620   38.8300   65.8180 C   0  0  0  0  0  3  0  0  0  0  0  0
   22.8160   38.1390   66.9990 C   0  0  0  0  0  3  0  0  0  0  0  0
   20.1450   36.5120   70.2480 C   0  0  0  0  0  0  0  0  0  0  0  0
   19.0920   37.2560   69.7420 C   0  0  0  0  0  3  0  0  0  0  0  0
   17.7780   36.8690   69.9070 C   0  0  0  0  0  0  0  0  0  0  0  0
   17.4620   35.7060   70.5950 C   0  0  0  0  0  0  0  0  0  0  0  0
   16.6850   37.6960   69.3480 C   0  0  0  0  0  1  0  0  0  0  0  0
   18.4990   34.9590   71.1030 C   0  0  0  0  0  3  0  0  0  0  0  0
   19.8270   35.3610   70.9300 C   0  0  0  0  0  3  0  0  0  0  0  0
   16.1410   35.3020   70.7690 O   0  0  0  0  0  0  0  0  0  0  0  0
   15.7340   34.0660   70.2510 C   0  0  0  0  0  1  0  0  0  0  0  0
   25.4900   34.7580   69.0380 C   0  0  0  0  0  2  0  0  0  0  0  0
   25.1160   33.7600   70.1100 C   0  0  0  0  0  2  0  0  0  0  0  0
   24.6370   32.5180   69.5660 N   0  0  0  0  0  4  0  0  0  0  0  0
   23.4840   32.0610   70.2710 C   0  0  0  0  0  2  0  0  0  0  0  0
   23.7290   31.0590   71.3490 C   0  0  0  0  0  2  0  0  0  0  0  0
   24.7770   30.2060   71.1290 O   0  0  0  0  0  0  0  0  0  0  0  0
   25.9620   30.8610   70.8210 C   0  0  0  0  0  2  0  0  0  0  0  0
   25.7310   31.5880   69.5220 C   0  0  0  0  0  2  0  0  0  0  0  0
   24.3340   32.7410   68.5750 H   0  0  0  0  0  0  0  0  0  0  0  0
  1 10  1  6  0  0  0
  1  7  1  0  0  0  0
  2  1  1  0  0  0  0
  2 26  1  0  0  0  0
  3  5  1  0  0  0  0
  3  2  1  0  0  0  0
  4  3  2  0  0  0  0
  5  7  1  0  0  0  0
  6  5  2  0  0  0  0
  7  8  2  0  0  0  0
  8 17  1  0  0  0  0
  8  9  1  0  0  0  0
 11 10  2  0  0  0  0
 12 11  1  0  0  0  0
 13 12  2  0  0  0  0
 13 15  1  0  0  0  0
 14 13  1  0  0  0  0
 15 16  2  0  0  0  0
 16 10  1  0  0  0  0
 17 23  1  0  0  0  0
 18 19  1  0  0  0  0
 18 17  2  0  0  0  0
 19 20  2  0  0  0  0
 20 24  1  0  0  0  0
 20 22  1  0  0  0  0
 21 19  1  0  0  0  0
 23 22  2  0  0  0  0
 25 24  1  0  0  0  0
 26 27  1  0  0  0  0
 28 27  1  0  0  0  0
 28 29  1  0  0  0  0
 29 30  1  0  0  0  0
 31 30  1  0  0  0  0
 32 31  1  0  0  0  0
 33 28  1  0  0  0  0
 33 32  1  0  0  0  0
 34 28  1  0  0  0  0
M  END
>  <Pose>
1

>  <Score>
-7.914

$$$$
