/Users/jonathanwahrer/Desktop/Msc/3_Semester/Drug_Design_Praktikum/waehrer_HTS_screening/HTS_experiment/out/docking_results/vina_output/4x21/1548_docked.pdbqt
 OpenBabel03212202303D

 24 27  0  0  1  0  0  0  0  0999 V2000
   14.3940   35.2310   71.3450 Cl  0  0  0  0  0  0  0  0  0  0  0  0
   15.8880   35.9000   70.7070 C   0  0  0  0  0  0  0  0  0  0  0  0
   17.1040   35.2740   70.8780 C   0  0  0  0  0  2  0  0  0  0  0  0
   18.2640   35.7970   70.3820 N   0  0  0  0  0  0  0  0  0  0  0  0
   18.2750   36.9550   69.6970 C   0  0  0  0  0  0  0  0  0  0  0  0
   19.4260   37.4760   69.2030 N   0  0  0  0  0  0  0  0  0  0  0  0
   20.6130   36.8570   69.3740 C   0  0  0  0  0  0  0  0  0  0  0  0
   20.6390   35.6800   70.0640 C   0  0  2  0  0  3  0  0  0  0  0  0
   21.9290   34.9500   70.2830 C   0  0  0  0  0  2  0  0  0  0  0  0
   22.7800   35.3390   69.1440 N   0  0  0  0  0  0  0  0  0  0  0  0
   23.0650   36.7440   69.0840 C   0  0  0  0  0  2  0  0  0  0  0  0
   21.8000   37.5300   68.7840 C   0  0  0  0  0  2  0  0  0  0  0  0
   23.2010   34.3350   68.2770 C   0  0  0  0  0  0  0  0  0  0  0  0
   22.8380   33.1310   68.5130 O   0  0  0  0  0  0  0  0  0  0  0  0
   19.4430   35.1740   70.5560 C   0  0  0  0  0  0  0  0  0  0  0  0
   19.4560   34.0990   71.1880 O   0  0  0  0  0  0  0  0  0  0  0  0
   17.0560   37.5910   69.5210 C   0  0  0  0  0  3  0  0  0  0  0  0
   15.8690   37.0880   70.0100 C   0  0  0  0  0  3  0  0  0  0  0  0
   24.0420   34.5240   67.0890 C   0  0  0  0  0  0  0  0  0  0  0  0
   25.3090   34.1040   67.0350 N   0  0  0  0  0  0  0  0  0  0  0  0
   26.0670   34.2800   65.9490 C   0  0  0  0  0  3  0  0  0  0  0  0
   25.5840   34.9080   64.8190 C   0  0  0  0  0  3  0  0  0  0  0  0
   24.3080   35.3240   64.8920 N   0  0  0  0  0  0  0  0  0  0  0  0
   23.5310   35.1600   65.9630 C   0  0  0  0  0  3  0  0  0  0  0  0
  2  3  1  0  0  0  0
  2  1  1  0  0  0  0
  4 15  1  0  0  0  0
  4  3  1  0  0  0  0
  5  4  1  0  0  0  0
  6  7  2  0  0  0  0
  6  5  1  0  0  0  0
  7  8  1  0  0  0  0
  8  9  1  6  0  0  0
  8 15  1  0  0  0  0
 10  9  1  0  0  0  0
 11 10  1  0  0  0  0
 12 11  1  0  0  0  0
 12  7  1  0  0  0  0
 13 14  2  0  0  0  0
 13 10  1  0  0  0  0
 15 16  2  0  0  0  0
 17  5  2  0  0  0  0
 17 18  1  0  0  0  0
 18  2  2  0  0  0  0
 19 13  1  0  0  0  0
 20 19  1  0  0  0  0
 21 20  2  0  0  0  0
 22 23  2  0  0  0  0
 22 21  1  0  0  0  0
 23 24  1  0  0  0  0
 24 19  2  0  0  0  0
M  END
>  <Pose>
1

>  <Score>
-8.702

$$$$
