/Users/jonathanwahrer/Desktop/Msc/3_Semester/Drug_Design_Praktikum/waehrer_HTS_screening/HTS_experiment/out/docking_results/vina_output/4x21/1553_docked.pdbqt
 OpenBabel03212202303D

 29 32  0  0  1  0  0  0  0  0999 V2000
   14.5510   30.1750   72.2650 C   0  0  1  0  0  3  0  0  0  0  0  0
   15.6860   29.3420   72.1350 N   0  0  0  0  0  4  0  0  0  0  0  0
   15.8370   28.2940   73.1020 C   0  0  2  0  0  3  0  0  0  0  0  0
   15.7820   28.9050   74.5130 C   0  0  0  0  0  2  0  0  0  0  0  0
   14.4100   29.4360   74.6130 C   0  0  0  0  0  0  0  0  0  0  0  0
   13.5030   29.4460   75.6610 C   0  0  0  0  0  0  0  0  0  0  0  0
   12.3680   30.0670   75.1880 C   0  0  0  0  0  0  0  0  0  0  0  0
   12.5540   30.4280   73.9090 N   0  0  0  0  0  0  0  0  0  0  0  0
   13.8200   30.0390   73.5460 C   0  0  0  0  0  0  0  0  0  0  0  0
   11.2980   30.2030   76.0540 C   0  0  0  0  0  3  0  0  0  0  0  0
   11.4130   29.7190   77.3330 C   0  0  0  0  0  3  0  0  0  0  0  0
   12.5490   29.0980   77.8030 C   0  0  0  0  0  3  0  0  0  0  0  0
   13.6340   28.9550   76.9420 C   0  0  0  0  0  3  0  0  0  0  0  0
   15.6310   28.8700   71.1760 H   0  0  0  0  0  0  0  0  0  0  0  0
   16.6010   29.8580   72.1130 H   0  0  0  0  0  0  0  0  0  0  0  0
   11.8920   30.9210   73.2550 H   0  0  0  0  0  0  0  0  0  0  0  0
   14.9830   31.6170   72.1670 C   0  0  0  0  0  0  0  0  0  0  0  0
   14.1770   32.5830   71.5910 C   0  0  0  0  0  0  0  0  0  0  0  0
   14.5980   33.9150   71.5200 C   0  0  0  0  0  0  0  0  0  0  0  0
   13.4730   35.2370   70.7160 Br  0  0  0  0  0  0  0  0  0  0  0  0
   15.8150   34.2970   72.0150 C   0  0  0  0  0  3  0  0  0  0  0  0
   16.6180   33.3390   72.5890 C   0  0  0  0  0  0  0  0  0  0  0  0
   16.2080   32.0150   72.6640 C   0  0  0  0  0  3  0  0  0  0  0  0
   18.3390   33.8370   73.2950 Br  0  0  0  0  0  0  0  0  0  0  0  0
   12.9430   32.3100   71.0630 O   0  0  0  0  0  0  0  0  0  0  0  0
   12.2980   32.9600   70.7040 H   0  0  0  0  0  0  0  0  0  0  0  0
   17.1170   27.5910   72.8840 C   0  0  0  0  0  0  0  0  0  0  0  0
   18.1830   28.1280   73.2820 O   0  0  0  0  0  1  0  0  0  0  0  0
   17.1210   26.3610   72.2480 O   0  0  0  0  0  0  0  0  0  0  0  0
  1 17  1  1  0  0  0
  1  9  1  0  0  0  0
  2  1  1  0  0  0  0
  2  3  1  0  0  0  0
  3 27  1  6  0  0  0
  3  4  1  0  0  0  0
  4  5  1  0  0  0  0
  5  6  1  0  0  0  0
  6 13  1  0  0  0  0
  7  6  2  0  0  0  0
  7 10  1  0  0  0  0
  8  7  1  0  0  0  0
  9  8  1  0  0  0  0
  9  5  2  0  0  0  0
 10 11  2  0  0  0  0
 11 12  1  0  0  0  0
 13 12  2  0  0  0  0
 14  2  1  0  0  0  0
 15  2  1  0  0  0  0
 16  8  1  0  0  0  0
 17 23  1  0  0  0  0
 18 17  2  0  0  0  0
 19 18  1  0  0  0  0
 19 21  2  0  0  0  0
 20 19  1  0  0  0  0
 21 22  1  0  0  0  0
 22 23  2  0  0  0  0
 22 24  1  0  0  0  0
 25 18  1  0  0  0  0
 26 25  1  0  0  0  0
 27 28  1  0  0  0  0
 29 27  2  0  0  0  0
M  END
>  <Pose>
1

>  <Score>
-8.516

$$$$
