/Users/jonathanwahrer/Desktop/Msc/3_Semester/Drug_Design_Praktikum/waehrer_HTS_screening/HTS_experiment/out/docking_results/vina_output/4x21/1571_docked.pdbqt
 OpenBabel03212202303D

 28 31  0  0  1  0  0  0  0  0999 V2000
   18.6130   32.4600   72.6660 O   0  0  0  0  0  0  0  0  0  0  0  0
   19.9860   32.7300   72.6490 C   0  0  0  0  0  2  0  0  0  0  0  0
   20.3500   33.8040   71.6940 C   0  0  0  0  0  0  0  0  0  0  0  0
   20.6250   33.5730   70.3960 N   0  0  0  0  0  0  0  0  0  0  0  0
   20.9500   34.5590   69.5570 C   0  0  0  0  0  0  0  0  0  0  0  0
   21.0290   35.8600   69.9360 N   0  0  0  0  0  0  0  0  0  0  0  0
   21.2200   34.2380   68.2280 C   0  0  0  0  0  3  0  0  0  0  0  0
   21.3580   36.8140   69.0530 C   0  0  0  0  0  3  0  0  0  0  0  0
   20.7570   36.1270   71.2390 C   0  0  0  0  0  0  0  0  0  0  0  0
   21.6320   36.5360   67.7350 C   0  0  0  0  0  0  0  0  0  0  0  0
   22.1020   37.9410   66.5020 Br  0  0  0  0  0  0  0  0  0  0  0  0
   21.5580   35.2280   67.3300 C   0  0  0  0  0  3  0  0  0  0  0  0
   20.4200   35.1150   72.1170 C   0  0  0  0  0  3  0  0  0  0  0  0
   20.8320   37.3390   71.5840 O   0  0  0  0  0  0  0  0  0  0  0  0
   17.9760   31.5040   71.9090 C   0  0  0  0  0  0  0  0  0  0  0  0
   18.1350   30.3070   72.2840 O   0  0  0  0  0  0  0  0  0  0  0  0
   17.1470   31.8380   70.7200 C   0  0  0  0  0  2  0  0  0  0  0  0
   16.0860   32.7890   71.0560 N   0  0  0  0  0  0  0  0  0  0  0  0
   16.0900   34.1990   70.8450 C   0  0  0  0  0  0  0  0  0  0  0  0
   16.9290   34.8480   70.1720 O   0  0  0  0  0  0  0  0  0  0  0  0
   14.9240   34.7670   71.5620 C   0  0  2  0  0  3  0  0  0  0  0  0
   13.9510   33.6170   71.4560 C   0  0  1  0  0  3  0  0  0  0  0  0
   14.4350   36.0510   71.0280 C   0  0  0  0  0  2  0  0  0  0  0  0
   13.3270   33.4970   70.0790 C   0  0  0  0  0  2  0  0  0  0  0  0
   14.8520   32.4620   71.6710 C   0  0  0  0  0  0  0  0  0  0  0  0
   13.6700   34.6500   69.1730 C   0  0  0  0  0  2  0  0  0  0  0  0
   13.4950   35.9650   69.8790 C   0  0  0  0  0  2  0  0  0  0  0  0
   14.5940   31.3780   72.2830 O   0  0  0  0  0  0  0  0  0  0  0  0
  2  1  1  0  0  0  0
  3 13  2  0  0  0  0
  3  2  1  0  0  0  0
  4  3  1  0  0  0  0
  5  6  1  0  0  0  0
  5  4  2  0  0  0  0
  6  9  1  0  0  0  0
  7  5  1  0  0  0  0
  8  6  1  0  0  0  0
  9 14  2  0  0  0  0
  9 13  1  0  0  0  0
 10  8  2  0  0  0  0
 11 10  1  0  0  0  0
 12 10  1  0  0  0  0
 12  7  2  0  0  0  0
 15 16  2  0  0  0  0
 15  1  1  0  0  0  0
 17 18  1  0  0  0  0
 17 15  1  0  0  0  0
 18 25  1  0  0  0  0
 19 18  1  0  0  0  0
 19 21  1  0  0  0  0
 20 19  2  0  0  0  0
 21 23  1  6  0  0  0
 22 24  1  6  0  0  0
 22 21  1  0  0  0  0
 22 25  1  0  0  0  0
 25 28  2  0  0  0  0
 26 27  1  0  0  0  0
 26 24  1  0  0  0  0
 27 23  1  0  0  0  0
M  END
>  <Pose>
1

>  <Score>
-8.440

$$$$
