/Users/jonathanwahrer/Desktop/Msc/3_Semester/Drug_Design_Praktikum/waehrer_HTS_screening/HTS_experiment/out/docking_results/vina_output/4x21/1576_docked.pdbqt
 OpenBabel03212202303D

 30 33  0  0  0  0  0  0  0  0999 V2000
   16.0920   33.6700   71.1230 N   0  0  0  0  0  0  0  0  0  0  0  0
   16.7130   32.5730   70.4130 C   0  0  0  0  0  2  0  0  0  0  0  0
   17.9710   32.1560   71.1710 C   0  0  0  0  0  2  0  0  0  0  0  0
   18.6650   33.3440   71.6420 N   0  0  0  0  0  0  0  0  0  0  0  0
   17.9510   34.2670   72.4920 C   0  0  0  0  0  2  0  0  0  0  0  0
   16.5020   33.8460   72.5250 C   0  0  0  0  0  2  0  0  0  0  0  0
   20.0170   33.6090   71.2870 C   0  0  0  0  0  0  0  0  0  0  0  0
   20.6170   32.7730   70.5420 O   0  0  0  0  0  0  0  0  0  0  0  0
   20.7670   34.7900   71.7290 C   0  0  0  0  0  2  0  0  0  0  0  0
   21.4320   35.5000   70.6380 N   0  0  0  0  0  0  0  0  0  0  0  0
   22.6800   35.4170   70.2250 N   0  0  0  0  0  0  0  0  0  0  0  0
   22.9400   36.2190   69.1900 C   0  0  0  0  0  0  0  0  0  0  0  0
   21.7570   36.8790   68.9070 C   0  0  0  0  0  3  0  0  0  0  0  0
   20.8390   36.4140   69.8210 C   0  0  0  0  0  0  0  0  0  0  0  0
   19.4280   36.8480   69.8940 C   0  0  0  0  0  1  0  0  0  0  0  0
   24.2270   36.3690   68.4870 C   0  0  0  0  0  0  0  0  0  0  0  0
   24.9980   37.3040   68.7840 O   0  0  0  0  0  0  0  0  0  0  0  0
   24.5680   35.4380   67.4810 N   0  0  0  0  0  0  0  0  0  0  0  0
   23.7320   34.3390   67.0890 C   0  0  0  0  0  2  0  0  0  0  0  0
   25.8460   35.5760   66.7760 C   0  0  0  0  0  2  0  0  0  0  0  0
   24.4150   33.6890   65.8790 C   0  0  0  0  0  2  0  0  0  0  0  0
   24.6840   34.6200   64.9000 O   0  0  0  0  0  0  0  0  0  0  0  0
   25.5460   35.6160   65.2930 C   0  0  0  0  0  2  0  0  0  0  0  0
   15.1550   34.5610   70.5960 C   0  0  0  0  0  0  0  0  0  0  0  0
   13.8360   34.2520   70.3440 C   0  0  0  0  0  0  0  0  0  0  0  0
   13.2730   32.6580   70.6930 Cl  0  0  0  0  0  0  0  0  0  0  0  0
   12.9390   35.1650   69.8230 C   0  0  0  0  0  3  0  0  0  0  0  0
   13.3510   36.4280   69.5360 C   0  0  0  0  0  3  0  0  0  0  0  0
   14.6540   36.7810   69.7690 C   0  0  0  0  0  3  0  0  0  0  0  0
   15.5450   35.8630   70.2900 C   0  0  0  0  0  3  0  0  0  0  0  0
  1  6  1  0  0  0  0
  2  1  1  0  0  0  0
  2  3  1  0  0  0  0
  3  4  1  0  0  0  0
  4  5  1  0  0  0  0
  5  6  1  0  0  0  0
  7  4  1  0  0  0  0
  7  9  1  0  0  0  0
  8  7  2  0  0  0  0
 10  9  1  0  0  0  0
 11 10  1  0  0  0  0
 12 11  2  0  0  0  0
 13 12  1  0  0  0  0
 13 14  2  0  0  0  0
 14 15  1  0  0  0  0
 14 10  1  0  0  0  0
 16 17  2  0  0  0  0
 16 12  1  0  0  0  0
 18 16  1  0  0  0  0
 19 18  1  0  0  0  0
 20 18  1  0  0  0  0
 21 19  1  0  0  0  0
 22 23  1  0  0  0  0
 22 21  1  0  0  0  0
 23 20  1  0  0  0  0
 24  1  1  0  0  0  0
 25 24  1  0  0  0  0
 25 26  1  0  0  0  0
 27 25  2  0  0  0  0
 28 29  2  0  0  0  0
 28 27  1  0  0  0  0
 29 30  1  0  0  0  0
 30 24  2  0  0  0  0
M  END
>  <Pose>
1

>  <Score>
-9.132

$$$$
