/Users/jonathanwahrer/Desktop/Msc/3_Semester/Drug_Design_Praktikum/waehrer_HTS_screening/HTS_experiment/out/docking_results/vina_output/4x21/1586_docked.pdbqt
 OpenBabel03212202313D

 29 32  0  0  1  0  0  0  0  0999 V2000
   17.2940   37.3240   69.5510 C   0  0  0  0  0  0  0  0  0  0  0  0
   16.6590   38.3970   69.1080 O   0  0  0  0  0  0  0  0  0  0  0  0
   16.5470   36.4780   70.3880 N   0  0  0  0  0  0  0  0  0  0  0  0
   17.0430   35.2940   70.9930 C   0  0  0  0  0  2  0  0  0  0  0  0
   16.0030   34.7790   72.0030 C   0  0  1  0  0  3  0  0  0  0  0  0
   14.8010   34.5610   71.2410 N   0  0  0  0  0  0  0  0  0  0  0  0
   14.2240   35.6870   70.5870 C   0  0  0  0  0  2  0  0  0  0  0  0
   15.1590   36.8780   70.6170 C   0  0  0  0  0  2  0  0  0  0  0  0
   14.2250   33.2820   71.1500 C   0  0  0  0  0  0  0  0  0  0  0  0
   13.0260   33.1840   70.8330 O   0  0  0  0  0  0  0  0  0  0  0  0
   15.0630   32.0990   71.4350 C   0  0  1  0  0  3  0  0  0  0  0  0
   15.7720   32.3760   72.6500 N   0  0  0  0  0  0  0  0  0  0  0  0
   16.4670   33.6060   72.7420 C   0  0  0  0  0  0  0  0  0  0  0  0
   17.5060   33.7310   73.4630 O   0  0  0  0  0  0  0  0  0  0  0  0
   15.7920   31.7050   73.4580 H   0  0  0  0  0  0  0  0  0  0  0  0
   18.6470   37.2520   69.0720 C   0  0  0  0  0  0  0  0  0  0  0  0
   19.7820   37.0050   69.8050 C   0  0  0  0  0  3  0  0  0  0  0  0
   21.0700   36.9850   69.2700 C   0  0  0  0  0  3  0  0  0  0  0  0
   21.2490   37.2170   67.9450 C   0  0  0  0  0  0  0  0  0  0  0  0
   22.8670   37.1990   67.2280 Cl  0  0  0  0  0  0  0  0  0  0  0  0
   20.1570   37.4680   67.1570 C   0  0  0  0  0  3  0  0  0  0  0  0
   18.8920   37.4830   67.7080 C   0  0  0  0  0  3  0  0  0  0  0  0
   14.3260   30.8150   71.4130 C   0  0  0  0  0  2  0  0  0  0  0  0
   15.0820   29.7850   72.1430 C   0  0  0  0  0  0  0  0  0  0  0  0
   16.2970   29.2970   71.8790 N   0  0  0  0  0  0  0  0  0  0  0  0
   16.6160   28.3540   72.8140 C   0  0  0  0  0  3  0  0  0  0  0  0
   15.5990   28.2440   73.6720 N   0  0  0  0  0  0  0  0  0  0  0  0
   14.6530   29.1050   73.2840 C   0  0  0  0  0  3  0  0  0  0  0  0
   15.5480   27.6160   74.4790 H   0  0  0  0  0  0  0  0  0  0  0  0
  1  3  1  0  0  0  0
  2  1  2  0  0  0  0
  3  8  1  0  0  0  0
  3  4  1  0  0  0  0
  5  4  1  6  0  0  0
  5 13  1  0  0  0  0
  6  5  1  0  0  0  0
  7  8  1  0  0  0  0
  7  6  1  0  0  0  0
  9  6  1  0  0  0  0
  9 11  1  0  0  0  0
 10  9  2  0  0  0  0
 11 23  1  1  0  0  0
 11 12  1  0  0  0  0
 12 13  1  0  0  0  0
 12 15  1  0  0  0  0
 13 14  2  0  0  0  0
 16  1  1  0  0  0  0
 16 17  1  0  0  0  0
 18 17  2  0  0  0  0
 19 18  1  0  0  0  0
 20 19  1  0  0  0  0
 21 22  1  0  0  0  0
 21 19  2  0  0  0  0
 22 16  2  0  0  0  0
 23 24  1  0  0  0  0
 24 28  2  0  0  0  0
 25 24  1  0  0  0  0
 25 26  2  0  0  0  0
 26 27  1  0  0  0  0
 27 29  1  0  0  0  0
 28 27  1  0  0  0  0
M  END
>  <Pose>
1

>  <Score>
-9.512

$$$$
