/Users/jonathanwahrer/Desktop/Msc/3_Semester/Drug_Design_Praktikum/waehrer_HTS_screening/HTS_experiment/out/docking_results/vina_output/4x21/1591_docked.pdbqt
 OpenBabel03212202313D

 26 29  0  0  0  0  0  0  0  0999 V2000
   16.8860   37.5950   70.3240 Cl  0  0  0  0  0  0  0  0  0  0  0  0
   17.4530   35.9720   70.6460 C   0  0  0  0  0  0  0  0  0  0  0  0
   18.7740   35.6600   70.4940 C   0  0  0  0  0  0  0  0  0  0  0  0
   19.1090   34.3310   70.7650 C   0  0  0  0  0  3  0  0  0  0  0  0
   18.1710   33.4500   71.1480 N   0  0  0  0  0  0  0  0  0  0  0  0
   16.8960   33.7290   71.3010 N   0  0  0  0  0  0  0  0  0  0  0  0
   16.5290   34.9930   71.0510 C   0  0  0  0  0  0  0  0  0  0  0  0
   15.3320   35.3580   71.1700 O   0  0  0  0  0  0  0  0  0  0  0  0
   19.7590   36.6010   70.1110 N   0  0  0  0  0  0  0  0  0  0  0  0
   19.8980   37.0880   68.7490 C   0  0  0  0  0  2  0  0  0  0  0  0
   21.2270   36.7030   68.1520 C   0  0  0  0  0  2  0  0  0  0  0  0
   22.2140   36.8740   69.1900 N   0  0  0  0  0  0  0  0  0  0  0  0
   21.9110   37.7790   70.2670 C   0  0  0  0  0  2  0  0  0  0  0  0
   20.7390   37.1430   71.0470 C   0  0  0  0  0  2  0  0  0  0  0  0
   23.4450   36.1760   69.1540 C   0  0  0  0  0  0  0  0  0  0  0  0
   24.7000   36.7110   69.1410 N   0  0  0  0  0  0  0  0  0  0  0  0
   25.5880   35.7380   69.1070 N   0  0  0  0  0  0  0  0  0  0  0  0
   24.9280   34.5870   69.0970 C   0  0  0  0  0  0  0  0  0  0  0  0
   23.6530   34.8730   69.1250 O   0  0  0  0  0  0  0  0  0  0  0  0
   25.4720   33.1910   69.0610 C   0  0  0  0  0  1  0  0  0  0  0  0
   15.9650   32.7320   71.7110 C   0  0  0  0  0  0  0  0  0  0  0  0
   14.9100   32.3260   70.9190 C   0  0  0  0  0  3  0  0  0  0  0  0
   14.0150   31.3600   71.3260 C   0  0  0  0  0  3  0  0  0  0  0  0
   14.1450   30.7570   72.5610 C   0  0  0  0  0  3  0  0  0  0  0  0
   15.1970   31.1580   73.3570 C   0  0  0  0  0  3  0  0  0  0  0  0
   16.0920   32.1270   72.9450 C   0  0  0  0  0  3  0  0  0  0  0  0
  1  2  1  0  0  0  0
  2  7  1  0  0  0  0
  3  2  2  0  0  0  0
  3  4  1  0  0  0  0
  4  5  2  0  0  0  0
  5  6  1  0  0  0  0
  6 21  1  0  0  0  0
  7  8  2  0  0  0  0
  7  6  1  0  0  0  0
  9  3  1  0  0  0  0
  9 14  1  0  0  0  0
 10  9  1  0  0  0  0
 11 10  1  0  0  0  0
 11 12  1  0  0  0  0
 12 13  1  0  0  0  0
 13 14  1  0  0  0  0
 15 12  1  0  0  0  0
 16 15  2  0  0  0  0
 17 16  1  0  0  0  0
 18 17  2  0  0  0  0
 18 19  1  0  0  0  0
 19 15  1  0  0  0  0
 20 18  1  0  0  0  0
 21 26  1  0  0  0  0
 22 23  1  0  0  0  0
 22 21  2  0  0  0  0
 23 24  2  0  0  0  0
 24 25  1  0  0  0  0
 26 25  2  0  0  0  0
M  END
>  <Pose>
1

>  <Score>
-8.199

$$$$
