/Users/jonathanwahrer/Desktop/Msc/3_Semester/Drug_Design_Praktikum/waehrer_HTS_screening/HTS_experiment/out/docking_results/vina_output/4x21/1594_docked.pdbqt
 OpenBabel03212202313D

 27 30  0  0  0  0  0  0  0  0999 V2000
   20.3420   34.1460   69.9910 C   0  0  0  0  0  0  0  0  0  0  0  0
   20.3130   32.9050   70.3240 O   0  0  0  0  0  0  0  0  0  0  0  0
   19.5220   34.9970   70.7070 N   0  0  0  0  0  0  0  0  0  0  0  0
   19.4340   36.4180   70.4730 C   0  0  0  0  0  2  0  0  0  0  0  0
   18.0880   36.7890   69.8880 C   0  0  0  0  0  2  0  0  0  0  0  0
   17.0220   35.9340   70.5120 C   0  0  0  0  0  0  0  0  0  0  0  0
   17.2560   34.8990   71.3750 C   0  0  0  0  0  0  0  0  0  0  0  0
   16.0310   34.4070   71.6910 N   0  0  0  0  0  0  0  0  0  0  0  0
   15.0830   35.0770   71.0760 N   0  0  0  0  0  0  0  0  0  0  0  0
   15.6340   36.0400   70.3260 C   0  0  0  0  0  0  0  0  0  0  0  0
   15.0510   36.8950   69.5860 O   0  0  0  0  0  0  0  0  0  0  0  0
   18.6350   34.5110   71.7920 C   0  0  0  0  0  2  0  0  0  0  0  0
   15.9120   33.5960   72.3460 H   0  0  0  0  0  0  0  0  0  0  0  0
   21.2300   34.5150   68.9020 C   0  0  0  0  0  0  0  0  0  0  0  0
   21.1150   35.5200   68.0350 N   0  0  0  0  0  0  0  0  0  0  0  0
   22.1590   35.4990   67.1910 C   0  0  0  0  0  0  0  0  0  0  0  0
   22.9530   34.4730   67.5150 N   0  0  0  0  0  0  0  0  0  0  0  0
   22.4450   36.3670   66.1230 C   0  0  0  0  0  3  0  0  0  0  0  0
   24.0850   34.2470   66.7930 C   0  0  0  0  0  3  0  0  0  0  0  0
   22.4150   33.8400   68.5660 C   0  0  0  0  0  3  0  0  0  0  0  0
   24.3890   35.0810   65.7410 C   0  0  0  0  0  0  0  0  0  0  0  0
   25.8370   34.8290   64.7840 Cl  0  0  0  0  0  0  0  0  0  0  0  0
   23.5750   36.1460   65.3980 C   0  0  0  0  0  3  0  0  0  0  0  0
   13.6310   34.8580   71.1510 C   0  0  0  0  0  2  0  0  0  0  0  0
   13.2870   33.4260   70.8150 C   0  0  0  0  0  2  0  0  0  0  0  0
   12.5360   32.8160   71.8130 O   0  0  0  0  0  0  0  0  0  0  0  0
   11.6170   32.5700   71.4960 H   0  0  0  0  0  0  0  0  0  0  0  0
  1  2  2  0  0  0  0
  1  3  1  0  0  0  0
  3 12  1  0  0  0  0
  4  3  1  0  0  0  0
  5  4  1  0  0  0  0
  5  6  1  0  0  0  0
  6  7  2  0  0  0  0
  7  8  1  0  0  0  0
  7 12  1  0  0  0  0
  8 13  1  0  0  0  0
  9 24  1  0  0  0  0
  9  8  1  0  0  0  0
 10  6  1  0  0  0  0
 10  9  1  0  0  0  0
 11 10  2  0  0  0  0
 14  1  1  0  0  0  0
 15 14  1  0  0  0  0
 16 17  1  0  0  0  0
 16 15  2  0  0  0  0
 17 20  1  0  0  0  0
 18 16  1  0  0  0  0
 19 17  1  0  0  0  0
 20 14  2  0  0  0  0
 21 19  2  0  0  0  0
 22 21  1  0  0  0  0
 23 21  1  0  0  0  0
 23 18  2  0  0  0  0
 25 24  1  0  0  0  0
 25 26  1  0  0  0  0
 27 26  1  0  0  0  0
M  END
>  <Pose>
1

>  <Score>
-8.345

$$$$
