/Users/jonathanwahrer/Desktop/Msc/3_Semester/Drug_Design_Praktikum/waehrer_HTS_screening/HTS_experiment/out/docking_results/vina_output/4x21/1599_docked.pdbqt
 OpenBabel03212202313D

 30 33  0  0  1  0  0  0  0  0999 V2000
   20.5890   35.4310   70.9150 C   0  0  0  0  0  0  0  0  0  0  0  0
   20.8610   36.2470   71.8650 O   0  0  0  0  0  0  0  0  0  0  0  0
   21.5180   35.1490   69.9060 N   0  0  0  0  0  0  0  0  0  0  0  0
   21.2490   34.2480   68.8310 C   0  0  0  0  0  2  0  0  0  0  0  0
   21.8740   34.6860   67.5360 C   0  0  0  0  0  2  0  0  0  0  0  0
   22.2010   36.1610   67.4550 C   0  0  1  0  0  0  0  0  0  0  0  0
   23.0410   36.2640   66.2700 N   0  0  0  0  0  0  0  0  0  0  0  0
   23.3320   37.5720   65.8240 C   0  0  0  0  0  2  0  0  0  0  0  0
   22.4710   38.6800   66.3100 C   0  0  0  0  0  2  0  0  0  0  0  0
   21.0930   38.2040   66.6470 C   0  0  0  0  0  0  0  0  0  0  0  0
   19.8970   38.7720   66.5060 N   0  0  0  0  0  0  0  0  0  0  0  0
   19.0060   37.8780   66.9830 C   0  0  0  0  0  3  0  0  0  0  0  0
   19.6430   36.7680   67.4160 N   0  0  0  0  0  0  0  0  0  0  0  0
   20.9790   36.9580   67.2100 C   0  0  0  0  0  0  0  0  0  0  0  0
   22.9290   36.6920   68.6630 C   0  0  0  0  0  2  0  0  0  0  0  0
   22.8310   35.7830   69.8750 C   0  0  0  0  0  2  0  0  0  0  0  0
   23.9220   35.7360   66.5370 H   0  0  0  0  0  0  0  0  0  0  0  0
   19.1910   35.9340   67.8280 H   0  0  0  0  0  0  0  0  0  0  0  0
   19.2120   34.8230   70.9900 C   0  0  0  0  0  2  0  0  0  0  0  0
   18.2300   35.7440   70.6620 N   0  0  0  0  0  0  0  0  0  0  0  0
   17.2930   36.6240   70.3480 C   0  0  0  0  0  0  0  0  0  0  0  0
   17.4210   37.8740   70.1000 O   0  0  0  0  0  0  0  0  0  0  0  0
   19.1970   36.7310   70.5960 H   0  0  0  0  0  0  0  0  0  0  0  0
   15.8680   36.1440   70.2590 C   0  0  0  0  0  0  0  0  0  0  0  0
   15.5140   34.8790   70.6440 C   0  0  0  0  0  3  0  0  0  0  0  0
   14.2050   34.4370   70.5260 C   0  0  0  0  0  0  0  0  0  0  0  0
   13.7610   32.6880   71.0750 Br  0  0  0  0  0  0  0  0  0  0  0  0
   13.2830   35.3130   70.0090 C   0  0  0  0  0  3  0  0  0  0  0  0
   13.6450   36.5900   69.6220 C   0  0  0  0  0  3  0  0  0  0  0  0
   14.9670   37.0280   69.7450 C   0  0  0  0  0  3  0  0  0  0  0  0
  1 19  1  0  0  0  0
  1  2  2  0  0  0  0
  3  1  1  0  0  0  0
  4  3  1  0  0  0  0
  5  4  1  0  0  0  0
  6  5  1  1  0  0  0
  6 15  1  0  0  0  0
  7 17  1  0  0  0  0
  7  6  1  0  0  0  0
  8  7  1  0  0  0  0
  8  9  1  0  0  0  0
  9 10  1  0  0  0  0
 10 14  2  0  0  0  0
 11 10  1  0  0  0  0
 11 12  2  0  0  0  0
 12 13  1  0  0  0  0
 13 18  1  0  0  0  0
 14 13  1  0  0  0  0
 14  6  1  0  0  0  0
 15 16  1  0  0  0  0
 16  3  1  0  0  0  0
 20 19  1  0  0  0  0
 21 20  1  0  0  0  0
 22 21  2  0  0  0  0
 23 20  1  0  0  0  0
 24 21  1  0  0  0  0
 24 25  1  0  0  0  0
 26 25  2  0  0  0  0
 26 27  1  0  0  0  0
 28 26  1  0  0  0  0
 29 30  1  0  0  0  0
 29 28  2  0  0  0  0
 30 24  2  0  0  0  0
M  END
>  <Pose>
1

>  <Score>
-8.982

$$$$
