/Users/jonathanwahrer/Desktop/Msc/3_Semester/Drug_Design_Praktikum/waehrer_HTS_screening/HTS_experiment/out/docking_results/vina_output/4x21/1612_docked.pdbqt
 OpenBabel03212202323D

 31 34  0  0  0  0  0  0  0  0999 V2000
   18.3020   31.6560   71.6080 N   0  0  0  0  0  0  0  0  0  0  0  0
   17.7160   30.5620   72.1380 C   0  0  0  0  0  0  0  0  0  0  0  0
   18.4660   30.1950   73.2300 C   0  0  0  0  0  0  0  0  0  0  0  0
   19.4610   31.0540   73.3290 N   0  0  0  0  0  0  0  0  0  0  0  0
   19.3790   31.9710   72.3340 C   0  0  0  0  0  0  0  0  0  0  0  0
   18.0650   29.1030   73.9400 N   0  0  0  0  0  0  0  0  0  0  0  0
   16.9790   28.4010   73.5980 C   0  0  0  0  0  0  0  0  0  0  0  0
   16.6480   27.3970   74.2880 O   0  0  0  0  0  0  0  0  0  0  0  0
   16.2200   28.7250   72.5430 N   0  0  0  0  0  0  0  0  0  0  0  0
   16.5940   29.8060   71.8170 C   0  0  0  0  0  0  0  0  0  0  0  0
   15.8890   30.1130   70.8320 O   0  0  0  0  0  0  0  0  0  0  0  0
   18.8460   28.6990   75.1070 C   0  0  0  0  0  1  0  0  0  0  0  0
   15.3800   28.1500   72.3110 H   0  0  0  0  0  0  0  0  0  0  0  0
   20.2670   33.0900   72.1880 N   0  0  0  0  0  0  0  0  0  0  0  0
   21.6020   32.8370   71.6090 C   0  0  0  0  0  2  0  0  0  0  0  0
   21.8560   33.6870   70.4060 C   0  0  0  0  0  2  0  0  0  0  0  0
   21.0360   34.8760   70.4220 N   0  0  0  0  0  0  0  0  0  0  0  0
   20.7170   35.4470   71.7140 C   0  0  0  0  0  2  0  0  0  0  0  0
   20.5740   35.4590   69.2110 C   0  0  0  0  0  0  0  0  0  0  0  0
   19.9610   34.4280   72.5480 C   0  0  0  0  0  2  0  0  0  0  0  0
   20.8830   34.9570   68.1090 O   0  0  0  0  0  0  0  0  0  0  0  0
   19.7170   36.6690   69.2180 C   0  0  0  0  0  2  0  0  0  0  0  0
   19.6800   37.2030   67.7880 C   0  0  0  0  0  1  0  0  0  0  0  0
   17.7670   32.3520   70.4820 C   0  0  0  0  0  2  0  0  0  0  0  0
   16.7740   33.4100   70.7850 C   0  0  0  0  0  0  0  0  0  0  0  0
   15.4620   33.1250   71.0360 C   0  0  0  0  0  3  0  0  0  0  0  0
   14.5850   34.1770   71.2670 C   0  0  0  0  0  0  0  0  0  0  0  0
   12.8990   33.7750   71.5920 Cl  0  0  0  0  0  0  0  0  0  0  0  0
   14.9720   35.4990   71.2570 C   0  0  0  0  0  3  0  0  0  0  0  0
   16.3040   35.7700   71.0000 C   0  0  0  0  0  3  0  0  0  0  0  0
   17.1890   34.7560   70.7700 C   0  0  0  0  0  3  0  0  0  0  0  0
  1  2  1  0  0  0  0
  1  5  1  0  0  0  0
  2  3  2  0  0  0  0
  3  4  1  0  0  0  0
  3  6  1  0  0  0  0
  5  4  2  0  0  0  0
  6 12  1  0  0  0  0
  7  6  1  0  0  0  0
  7  8  2  0  0  0  0
  9  7  1  0  0  0  0
 10  2  1  0  0  0  0
 10  9  1  0  0  0  0
 11 10  2  0  0  0  0
 13  9  1  0  0  0  0
 14  5  1  0  0  0  0
 14 20  1  0  0  0  0
 15 14  1  0  0  0  0
 16 17  1  0  0  0  0
 16 15  1  0  0  0  0
 17 18  1  0  0  0  0
 18 20  1  0  0  0  0
 19 22  1  0  0  0  0
 19 17  1  0  0  0  0
 21 19  2  0  0  0  0
 23 22  1  0  0  0  0
 24 25  1  0  0  0  0
 24  1  1  0  0  0  0
 25 26  1  0  0  0  0
 26 27  2  0  0  0  0
 27 28  1  0  0  0  0
 29 27  1  0  0  0  0
 30 29  2  0  0  0  0
 31 25  2  0  0  0  0
 31 30  1  0  0  0  0
M  END
>  <Pose>
1

>  <Score>
-8.497

$$$$
