/Users/jonathanwahrer/Desktop/Msc/3_Semester/Drug_Design_Praktikum/waehrer_HTS_screening/HTS_experiment/out/docking_results/vina_output/4x21/1622_docked.pdbqt
 OpenBabel03212202323D

 28 31  0  0  1  0  0  0  0  0999 V2000
   19.8170   33.9840   72.0760 C   0  0  0  0  0  0  0  0  0  0  0  0
   20.0680   34.9260   72.8710 O   0  0  0  0  0  0  0  0  0  0  0  0
   18.6030   33.2480   72.1290 N   0  0  0  0  0  0  0  0  0  0  0  0
   17.6220   33.5970   73.1330 C   0  0  0  0  0  2  0  0  0  0  0  0
   16.2670   33.1860   72.5880 C   0  0  0  0  0  2  0  0  0  0  0  0
   16.1770   33.3800   71.0900 C   0  0  1  0  0  0  0  0  0  0  0  0
   14.7970   33.1750   70.7160 N   0  0  0  0  0  0  0  0  0  0  0  0
   14.1070   34.4070   70.8630 C   0  0  0  0  0  0  0  0  0  0  0  0
   12.8550   34.5940   70.9770 O   0  0  0  0  0  0  0  0  0  0  0  0
   15.1140   35.4220   70.8580 N   0  0  0  0  0  0  0  0  0  0  0  0
   16.3910   34.7990   70.7090 C   0  0  0  0  0  0  0  0  0  0  0  0
   17.4490   35.3720   70.3320 O   0  0  0  0  0  0  0  0  0  0  0  0
   14.9230   36.8700   70.9800 C   0  0  0  0  0  1  0  0  0  0  0  0
   17.1170   32.4800   70.3430 C   0  0  0  0  0  2  0  0  0  0  0  0
   18.2780   32.1600   71.2350 C   0  0  0  0  0  2  0  0  0  0  0  0
   14.4010   32.2700   70.3980 H   0  0  0  0  0  0  0  0  0  0  0  0
   20.8550   33.6850   71.0850 C   0  0  0  0  0  0  0  0  0  0  0  0
   21.7010   32.6110   71.2610 C   0  0  0  0  0  0  0  0  0  0  0  0
   21.5070   31.6070   72.7050 Cl  0  0  0  0  0  0  0  0  0  0  0  0
   22.6880   32.3060   70.3460 C   0  0  0  0  0  3  0  0  0  0  0  0
   22.7950   33.1180   69.2420 C   0  0  0  0  0  3  0  0  0  0  0  0
   21.9670   34.2070   69.0230 C   0  0  0  0  0  0  0  0  0  0  0  0
   20.9960   34.4750   69.9650 C   0  0  0  0  0  3  0  0  0  0  0  0
   22.1320   35.0110   67.8550 N   0  0  0  0  0  0  0  0  0  0  0  0
   23.2020   35.1680   67.1150 N   0  0  0  0  0  0  0  0  0  0  0  0
   22.9280   36.0260   66.0900 C   0  0  0  0  0  3  0  0  0  0  0  0
   21.6130   36.4200   66.2040 C   0  0  0  0  0  3  0  0  0  0  0  0
   21.1390   35.7550   67.3380 C   0  0  0  0  0  3  0  0  0  0  0  0
  1  3  1  0  0  0  0
  1  2  2  0  0  0  0
  3  4  1  0  0  0  0
  5  4  1  0  0  0  0
  6 14  1  6  0  0  0
  6  5  1  0  0  0  0
  7  8  1  0  0  0  0
  7  6  1  0  0  0  0
  8  9  2  0  0  0  0
 10  8  1  0  0  0  0
 10 13  1  0  0  0  0
 11 10  1  0  0  0  0
 11  6  1  0  0  0  0
 12 11  2  0  0  0  0
 14 15  1  0  0  0  0
 15  3  1  0  0  0  0
 16  7  1  0  0  0  0
 17 18  1  0  0  0  0
 17  1  1  0  0  0  0
 18 19  1  0  0  0  0
 20 18  2  0  0  0  0
 21 20  1  0  0  0  0
 22 21  2  0  0  0  0
 22 23  1  0  0  0  0
 23 17  2  0  0  0  0
 24 22  1  0  0  0  0
 25 24  1  0  0  0  0
 26 27  1  0  0  0  0
 26 25  2  0  0  0  0
 27 28  2  0  0  0  0
 28 24  1  0  0  0  0
M  END
>  <Pose>
1

>  <Score>
-8.192

$$$$
