/Users/jonathanwahrer/Desktop/Msc/3_Semester/Drug_Design_Praktikum/waehrer_HTS_screening/HTS_experiment/out/docking_results/vina_output/4x21/1631_docked.pdbqt
 OpenBabel03212202333D

 29 32  0  0  1  0  0  0  0  0999 V2000
   16.2320   32.8570   72.3330 C   0  0  1  0  0  3  0  0  0  0  0  0
   15.9130   31.4640   72.4650 N   0  0  0  0  0  0  0  0  0  0  0  0
   16.6480   30.6900   71.5230 C   0  0  0  0  0  0  0  0  0  0  0  0
   16.4250   29.4960   71.1690 O   0  0  0  0  0  0  0  0  0  0  0  0
   17.7480   31.5350   71.0120 C   0  0  0  0  0  0  0  0  0  0  0  0
   18.5940   31.1780   70.1620 O   0  0  0  0  0  0  0  0  0  0  0  0
   17.5980   32.8080   71.7050 C   0  0  0  0  0  0  0  0  0  0  0  0
   18.5190   33.7470   71.7210 C   0  0  0  0  0  0  0  0  0  0  0  0
   18.2000   34.9440   72.3940 O   0  0  0  0  0  1  0  0  0  0  0  0
   15.2680   33.6170   71.4980 C   0  0  0  0  0  0  0  0  0  0  0  0
   15.2620   35.0050   71.4710 C   0  0  0  0  0  3  0  0  0  0  0  0
   14.3880   35.7460   70.7110 C   0  0  0  0  0  0  0  0  0  0  0  0
   14.4120   37.4960   70.7000 Cl  0  0  0  0  0  0  0  0  0  0  0  0
   13.4720   35.0670   69.9380 C   0  0  0  0  0  3  0  0  0  0  0  0
   13.4400   33.6880   69.9320 C   0  0  0  0  0  3  0  0  0  0  0  0
   14.3270   32.9710   70.7030 C   0  0  0  0  0  3  0  0  0  0  0  0
   19.8300   33.6260   71.0990 C   0  0  0  0  0  0  0  0  0  0  0  0
   20.0630   34.2270   69.8540 C   0  0  0  0  0  3  0  0  0  0  0  0
   21.3010   34.1540   69.2550 C   0  0  0  0  0  3  0  0  0  0  0  0
   22.3640   33.4970   69.8380 C   0  0  0  0  0  3  0  0  0  0  0  0
   22.1570   32.9000   71.0620 C   0  0  0  0  0  3  0  0  0  0  0  0
   20.9010   32.9750   71.6660 C   0  0  0  0  0  3  0  0  0  0  0  0
   14.9970   30.9190   73.3910 C   0  0  1  0  0  3  0  0  0  0  0  0
   15.4990   29.9910   74.2480 N   0  0  0  0  0  0  0  0  0  0  0  0
   14.7370   29.4030   75.1690 C   0  0  0  0  0  3  0  0  0  0  0  0
   16.5170   29.7120   74.2030 H   0  0  0  0  0  0  0  0  0  0  0  0
   13.4100   29.7620   75.2390 C   0  0  0  0  0  3  0  0  0  0  0  0
   12.9240   30.7070   74.3610 C   0  0  0  0  0  3  0  0  0  0  0  0
   13.6990   31.2940   73.4330 N   0  0  0  0  0  0  0  0  0  0  0  0
  1 10  1  6  0  0  0
  1  2  1  0  0  0  0
  3  2  1  0  0  0  0
  4  3  2  0  0  0  0
  5  3  1  0  0  0  0
  5  7  1  0  0  0  0
  6  5  2  0  0  0  0
  7  8  2  0  0  0  0
  7  1  1  0  0  0  0
  8  9  1  0  0  0  0
 11 10  1  0  0  0  0
 12 11  2  0  0  0  0
 13 12  1  0  0  0  0
 14 12  1  0  0  0  0
 15 14  2  0  0  0  0
 15 16  1  0  0  0  0
 16 10  2  0  0  0  0
 17 22  1  0  0  0  0
 17  8  1  0  0  0  0
 18 17  2  0  0  0  0
 19 20  2  0  0  0  0
 19 18  1  0  0  0  0
 20 21  1  0  0  0  0
 21 22  2  0  0  0  0
 23  2  1  1  0  0  0
 23 29  1  0  0  0  0
 23 24  1  0  0  0  0
 24 25  1  0  0  0  0
 25 27  2  0  0  0  0
 26 24  1  0  0  0  0
 28 27  1  0  0  0  0
 29 28  2  0  0  0  0
M  END
>  <Pose>
1

>  <Score>
-9.097

$$$$
