/Users/jonathanwahrer/Desktop/Msc/3_Semester/Drug_Design_Praktikum/waehrer_HTS_screening/HTS_experiment/out/docking_results/vina_output/4x21/1638_docked.pdbqt
 OpenBabel03212202333D

 38 41  0  0  1  0  0  0  0  0999 V2000
   19.8980   34.0880   71.2060 C   0  0  0  0  0  0  0  0  0  0  0  0
   20.1960   33.3950   70.0410 C   0  0  0  0  0  0  0  0  0  0  0  0
   21.3130   33.7150   69.3330 N   0  0  0  0  0  0  0  0  0  0  0  0
   22.1570   34.6840   69.7110 C   0  0  0  0  0  0  0  0  0  0  0  0
   21.8730   35.3600   70.8380 N   0  0  0  0  0  0  0  0  0  0  0  0
   20.7820   35.0810   71.5710 C   0  0  0  0  0  3  0  0  0  0  0  0
   23.3290   35.0150   68.9700 N   0  0  0  0  0  0  0  0  0  0  0  0
   23.9870   34.0660   68.1070 C   0  0  0  0  0  2  0  0  0  0  0  0
   24.1810   34.5430   66.6940 C   0  0  0  0  0  2  0  0  0  0  0  0
   24.2130   36.0600   66.6000 C   0  0  2  0  0  0  0  0  0  0  0  0
   24.8770   36.4870   67.9190 C   0  0  0  0  0  2  0  0  0  0  0  0
   23.9230   36.3370   69.0570 C   0  0  0  0  0  2  0  0  0  0  0  0
   22.9750   36.6710   66.4990 N   0  0  0  0  0  0  0  0  0  0  0  0
   21.8930   36.0640   65.8270 C   0  0  0  0  0  2  0  0  0  0  0  0
   20.6050   36.5120   66.5400 C   0  0  0  0  0  2  0  0  0  0  0  0
   20.8940   37.8090   67.2440 C   0  0  0  0  0  2  0  0  0  0  0  0
   21.7740   38.7250   66.4320 C   0  0  0  0  0  2  0  0  0  0  0  0
   23.0580   38.0240   66.0210 C   0  0  0  0  0  2  0  0  0  0  0  0
   25.1710   36.4250   65.5320 C   0  0  0  0  0  0  0  0  0  0  0  0
   26.2190   37.1050   65.8010 O   0  0  0  0  0  0  0  0  0  0  0  0
   25.0060   36.0640   64.1910 N   0  0  0  0  0  0  0  0  0  0  0  0
   24.6990   36.8100   63.5080 H   0  0  0  0  0  0  0  0  0  0  0  0
   25.1600   35.1240   63.7750 H   0  0  0  0  0  0  0  0  0  0  0  0
   19.3070   32.3770   69.6490 N   0  0  0  0  0  0  0  0  0  0  0  0
   18.4180   32.1640   70.1480 H   0  0  0  0  0  0  0  0  0  0  0  0
   19.5370   31.7970   68.8160 H   0  0  0  0  0  0  0  0  0  0  0  0
   18.4730   33.7110   72.1520 S   0  0  0  0  0  0  0  0  0  0  0  0
   18.1820   32.2460   72.1560 O   0  0  0  0  0  0  0  0  0  0  0  0
   18.7010   34.2430   73.5440 O   0  0  0  0  0  0  0  0  0  0  0  0
   17.1130   34.6040   71.4550 C   0  0  0  0  0  0  0  0  0  0  0  0
   15.8180   34.2000   71.7090 C   0  0  0  0  0  0  0  0  0  0  0  0
   14.7900   34.9250   71.1450 C   0  0  0  0  0  3  0  0  0  0  0  0
   15.0330   36.0330   70.3410 C   0  0  0  0  0  3  0  0  0  0  0  0
   16.3400   36.4050   70.1100 C   0  0  0  0  0  0  0  0  0  0  0  0
   17.3910   35.7000   70.6600 C   0  0  0  0  0  3  0  0  0  0  0  0
   16.6690   37.8120   69.0890 Cl  0  0  0  0  0  0  0  0  0  0  0  0
   15.6170   33.1050   72.5040 O   0  0  0  0  0  0  0  0  0  0  0  0
   14.7240   32.0610   72.2370 C   0  0  0  0  0  1  0  0  0  0  0  0
  1  6  1  0  0  0  0
  1 27  1  0  0  0  0
  2  1  2  0  0  0  0
  3  4  2  0  0  0  0
  3  2  1  0  0  0  0
  4  5  1  0  0  0  0
  5  6  2  0  0  0  0
  7 12  1  0  0  0  0
  7  4  1  0  0  0  0
  8  7  1  0  0  0  0
  9  8  1  0  0  0  0
 10 19  1  6  0  0  0
 10  9  1  0  0  0  0
 10 11  1  0  0  0  0
 11 12  1  0  0  0  0
 13 10  1  0  0  0  0
 14 13  1  0  0  0  0
 14 15  1  0  0  0  0
 15 16  1  0  0  0  0
 17 16  1  0  0  0  0
 18 17  1  0  0  0  0
 18 13  1  0  0  0  0
 19 20  2  0  0  0  0
 21 19  1  0  0  0  0
 22 21  1  0  0  0  0
 23 21  1  0  0  0  0
 24  2  1  0  0  0  0
 24 25  1  0  0  0  0
 26 24  1  0  0  0  0
 27 28  2  0  0  0  0
 27 29  2  0  0  0  0
 30 31  1  0  0  0  0
 30 27  1  0  0  0  0
 31 37  1  0  0  0  0
 32 31  2  0  0  0  0
 33 32  1  0  0  0  0
 34 33  2  0  0  0  0
 34 35  1  0  0  0  0
 35 30  2  0  0  0  0
 36 34  1  0  0  0  0
 38 37  1  0  0  0  0
M  END
>  <Pose>
1

>  <Score>
-8.572

$$$$
