/Users/jonathanwahrer/Desktop/Msc/3_Semester/Drug_Design_Praktikum/waehrer_HTS_screening/HTS_experiment/out/docking_results/vina_output/4x21/1657_docked.pdbqt
 OpenBabel03212202343D

 33 36  0  0  1  0  0  0  0  0999 V2000
   16.1140   37.0830   69.5900 Cl  0  0  0  0  0  0  0  0  0  0  0  0
   15.9490   35.6190   70.5670 C   0  0  0  0  0  0  0  0  0  0  0  0
   14.7170   35.0200   70.7160 C   0  0  0  0  0  3  0  0  0  0  0  0
   14.5940   33.8950   71.4650 C   0  0  0  0  0  0  0  0  0  0  0  0
   15.7150   33.3360   72.0940 C   0  0  0  0  0  0  0  0  0  0  0  0
   16.9330   33.9510   71.9330 C   0  0  0  0  0  3  0  0  0  0  0  0
   17.0770   35.1020   71.1690 C   0  0  0  0  0  3  0  0  0  0  0  0
   15.5940   32.1560   72.8810 N   0  0  0  0  0  0  0  0  0  0  0  0
   14.5130   31.2250   72.5930 C   0  0  2  0  0  0  0  0  0  0  0  0
   13.3110   32.0180   72.4860 N   0  0  0  0  0  0  0  0  0  0  0  0
   13.3350   33.1870   71.6830 C   0  0  0  0  0  0  0  0  0  0  0  0
   12.3090   33.6640   71.1320 O   0  0  0  0  0  0  0  0  0  0  0  0
   14.3990   30.2660   73.7300 C   0  0  0  0  0  2  0  0  0  0  0  0
   15.3100   29.0660   73.5970 C   0  0  0  0  0  2  0  0  0  0  0  0
   16.6620   29.4480   73.2480 N   0  0  0  0  0  0  0  0  0  0  0  0
   16.9950   30.1460   72.0220 C   0  0  0  0  0  0  0  0  0  0  0  0
   18.1830   30.5290   71.9330 O   0  0  0  0  0  0  0  0  0  0  0  0
   16.1510   30.4770   70.8620 C   0  0  0  0  0  2  0  0  0  0  0  0
   14.7030   30.5620   71.2430 C   0  0  0  0  0  2  0  0  0  0  0  0
   16.2980   32.0160   73.6360 H   0  0  0  0  0  0  0  0  0  0  0  0
   12.4240   31.7750   72.9680 H   0  0  0  0  0  0  0  0  0  0  0  0
   17.7390   29.1750   74.1100 C   0  0  0  0  0  2  0  0  0  0  0  0
   18.3960   27.8880   74.1420 C   0  0  0  0  0  0  0  0  0  0  0  0
   19.4060   27.8860   75.0130 O   0  0  0  0  0  0  0  0  0  0  0  0
   18.1450   26.7250   73.4480 N   0  0  0  0  0  0  0  0  0  0  0  0
   19.0130   25.5460   73.7030 C   0  0  0  0  0  2  0  0  0  0  0  0
   17.1220   26.4930   72.5070 C   0  0  0  0  0  2  0  0  0  0  0  0
   18.0230   24.3780   73.8330 C   0  0  0  0  0  2  0  0  0  0  0  0
   16.7160   24.8370   74.1670 N   0  0  0  0  0  0  0  0  0  0  0  0
   16.0370   25.5830   73.1510 C   0  0  0  0  0  2  0  0  0  0  0  0
   15.8950   23.9230   74.8860 C   0  0  0  0  0  3  0  0  0  0  0  0
   14.4940   23.7900   74.3250 C   0  0  0  0  0  1  0  0  0  0  0  0
   16.5010   22.5540   75.0310 C   0  0  0  0  0  1  0  0  0  0  0  0
  1  2  1  0  0  0  0
  2  3  2  0  0  0  0
  2  7  1  0  0  0  0
  3  4  1  0  0  0  0
  4 11  1  0  0  0  0
  4  5  2  0  0  0  0
  5  8  1  0  0  0  0
  6  5  1  0  0  0  0
  7  6  2  0  0  0  0
  8 20  1  0  0  0  0
  9 19  1  6  0  0  0
  9  8  1  0  0  0  0
  9 13  1  0  0  0  0
 10  9  1  0  0  0  0
 10 21  1  0  0  0  0
 11 10  1  0  0  0  0
 12 11  2  0  0  0  0
 14 13  1  0  0  0  0
 15 14  1  0  0  0  0
 15 22  1  0  0  0  0
 16 15  1  0  0  0  0
 17 16  2  0  0  0  0
 18 19  1  0  0  0  0
 18 16  1  0  0  0  0
 22 23  1  0  0  0  0
 23 24  2  0  0  0  0
 25 26  1  0  0  0  0
 25 23  1  0  0  0  0
 26 28  1  0  0  0  0
 27 30  1  0  0  0  0
 27 25  1  0  0  0  0
 28 29  1  0  0  0  0
 29 31  1  0  0  0  0
 30 29  1  0  0  0  0
 31 33  1  0  0  0  0
 32 31  1  0  0  0  0
M  END
>  <Pose>
1

>  <Score>
-9.671

$$$$
