/Users/jonathanwahrer/Desktop/Msc/3_Semester/Drug_Design_Praktikum/waehrer_HTS_screening/HTS_experiment/out/docking_results/vina_output/4x21/1660_docked.pdbqt
 OpenBabel03212202343D

 31 34  0  0  0  0  0  0  0  0999 V2000
   14.0590   32.9650   71.1900 N   0  0  0  0  0  0  0  0  0  0  0  0
   12.9290   33.2860   70.6190 N   0  0  0  0  0  0  0  0  0  0  0  0
   12.9520   34.5100   70.0820 C   0  0  0  0  0  3  0  0  0  0  0  0
   14.2150   35.0300   70.3290 C   0  0  0  0  0  0  0  0  0  0  0  0
   14.8800   34.0280   71.0280 C   0  0  0  0  0  0  0  0  0  0  0  0
   16.1370   34.2950   71.3920 N   0  0  0  0  0  0  0  0  0  0  0  0
   16.7270   35.4730   71.0940 C   0  0  0  0  0  3  0  0  0  0  0  0
   16.1120   36.4580   70.4220 N   0  0  0  0  0  0  0  0  0  0  0  0
   14.8310   36.2240   70.0360 C   0  0  0  0  0  0  0  0  0  0  0  0
   14.2130   37.1180   69.4050 O   0  0  0  0  0  0  0  0  0  0  0  0
   16.7520   37.7330   70.0840 C   0  0  0  0  0  2  0  0  0  0  0  0
   17.8720   37.5580   69.1430 C   0  0  0  0  0  0  0  0  0  0  0  0
   17.5620   37.7100   67.9090 O   0  0  0  0  0  0  0  0  0  0  0  0
   19.1940   37.2540   69.4580 N   0  0  0  0  0  0  0  0  0  0  0  0
   20.1980   37.0460   68.4020 C   0  0  0  0  0  2  0  0  0  0  0  0
   19.6810   37.1520   70.8150 C   0  0  0  0  0  2  0  0  0  0  0  0
   20.5920   35.5690   68.5450 C   0  0  0  0  0  2  0  0  0  0  0  0
   20.9650   35.2800   69.9040 N   0  0  0  0  0  0  0  0  0  0  0  0
   20.9780   36.3860   70.8440 C   0  0  0  0  0  2  0  0  0  0  0  0
   21.2840   33.9680   70.3170 C   0  0  0  0  0  0  0  0  0  0  0  0
   21.1930   33.0320   69.4380 O   0  0  0  0  0  0  0  0  0  0  0  0
   21.6870   33.5860   71.5770 O   0  0  0  0  0  0  0  0  0  0  0  0
   20.8860   32.6870   72.3670 C   0  0  0  0  0  2  0  0  0  0  0  0
   19.6420   33.4630   72.7610 C   0  0  0  0  0  1  0  0  0  0  0  0
   14.3810   31.7450   71.8360 C   0  0  0  0  0  0  0  0  0  0  0  0
   15.3590   30.8720   71.4340 C   0  0  0  0  0  3  0  0  0  0  0  0
   15.5680   29.6920   72.1200 C   0  0  0  0  0  3  0  0  0  0  0  0
   14.8310   29.3220   73.2220 C   0  0  0  0  0  0  0  0  0  0  0  0
   15.0700   27.8440   74.0980 Cl  0  0  0  0  0  0  0  0  0  0  0  0
   13.8400   30.1900   73.6440 C   0  0  0  0  0  3  0  0  0  0  0  0
   13.6480   31.3620   72.9460 C   0  0  0  0  0  3  0  0  0  0  0  0
  1 25  1  0  0  0  0
  2  1  1  0  0  0  0
  3  4  1  0  0  0  0
  3  2  2  0  0  0  0
  4  5  2  0  0  0  0
  5  1  1  0  0  0  0
  5  6  1  0  0  0  0
  7  6  2  0  0  0  0
  8  7  1  0  0  0  0
  9  4  1  0  0  0  0
  9  8  1  0  0  0  0
 10  9  2  0  0  0  0
 11  8  1  0  0  0  0
 12 14  1  0  0  0  0
 12 11  1  0  0  0  0
 13 12  2  0  0  0  0
 14 16  1  0  0  0  0
 15 17  1  0  0  0  0
 15 14  1  0  0  0  0
 16 19  1  0  0  0  0
 17 18  1  0  0  0  0
 18 20  1  0  0  0  0
 18 19  1  0  0  0  0
 20 22  1  0  0  0  0
 21 20  2  0  0  0  0
 22 23  1  0  0  0  0
 23 24  1  0  0  0  0
 25 31  1  0  0  0  0
 26 25  2  0  0  0  0
 26 27  1  0  0  0  0
 27 28  2  0  0  0  0
 28 30  1  0  0  0  0
 28 29  1  0  0  0  0
 31 30  2  0  0  0  0
M  END
>  <Pose>
1

>  <Score>
-8.482

$$$$
