/Users/jonathanwahrer/Desktop/Msc/3_Semester/Drug_Design_Praktikum/waehrer_HTS_screening/HTS_experiment/out/docking_results/vina_output/4x21/1673_docked.pdbqt
 OpenBabel03212202353D

 35 38  0  0  1  0  0  0  0  0999 V2000
   19.2290   33.0630   72.1230 C   0  0  2  0  0  3  0  0  0  0  0  0
   20.6360   33.3030   71.6430 C   0  0  1  0  0  3  0  0  0  0  0  0
   21.2420   32.0550   71.5110 N   0  0  0  0  0  0  0  0  0  0  0  0
   20.7260   31.3390   72.7030 C   0  0  0  0  0  0  0  0  0  0  0  0
   21.3250   30.4620   73.3820 O   0  0  0  0  0  0  0  0  0  0  0  0
   19.3820   31.8410   72.9430 C   0  0  0  0  0  0  0  0  0  0  0  0
   18.5280   31.3170   73.7130 O   0  0  0  0  0  0  0  0  0  0  0  0
   20.8220   34.4460   70.7850 C   0  0  0  0  0  0  0  0  0  0  0  0
   21.0560   34.4030   69.4470 C   0  0  0  0  0  3  0  0  0  0  0  0
   21.2030   35.5650   68.7050 C   0  0  0  0  0  0  0  0  0  0  0  0
   21.1090   36.8060   69.3530 C   0  0  0  0  0  0  0  0  0  0  0  0
   20.8740   36.8470   70.6980 C   0  0  0  0  0  3  0  0  0  0  0  0
   20.7290   35.7070   71.4240 C   0  0  0  0  0  3  0  0  0  0  0  0
   21.2480   37.9930   68.6620 O   0  0  0  0  0  1  0  0  0  0  0  0
   18.2410   32.8680   71.0620 C   0  0  0  0  0  0  0  0  0  0  0  0
   18.3310   31.8450   70.2980 O   0  0  0  0  0  0  0  0  0  0  0  0
   17.1180   33.7470   70.7690 C   0  0  0  0  0  0  0  0  0  0  0  0
   15.8630   33.2570   70.4870 C   0  0  0  0  0  3  0  0  0  0  0  0
   14.8520   34.1650   70.1870 C   0  0  0  0  0  3  0  0  0  0  0  0
   15.0360   35.5230   70.1580 C   0  0  0  0  0  0  0  0  0  0  0  0
   13.5870   36.7210   69.7350 Br  0  0  0  0  0  0  0  0  0  0  0  0
   16.2920   36.0190   70.4400 C   0  0  0  0  0  3  0  0  0  0  0  0
   17.2920   35.1220   70.7360 C   0  0  0  0  0  3  0  0  0  0  0  0
   22.2160   31.3540   70.7340 C   0  0  0  0  0  2  0  0  0  0  0  0
   23.6340   31.4860   71.1420 C   0  0  0  0  0  2  0  0  0  0  0  0
   24.3080   32.7140   71.1330 N   0  0  0  0  0  4  0  0  0  0  0  0
   25.7010   32.6070   71.5870 C   0  0  0  0  0  2  0  0  0  0  0  0
   26.5360   31.7560   70.6900 C   0  0  0  0  0  2  0  0  0  0  0  0
   25.8260   31.4380   69.5550 O   0  0  0  0  0  0  0  0  0  0  0  0
   25.4020   32.6410   68.9650 C   0  0  0  0  0  2  0  0  0  0  0  0
   24.2920   33.2800   69.7730 C   0  0  0  0  0  2  0  0  0  0  0  0
   23.8660   33.4110   71.7280 H   0  0  0  0  0  0  0  0  0  0  0  0
   21.4340   35.5550   67.3670 O   0  0  0  0  0  0  0  0  0  0  0  0
   22.6880   35.3830   66.7900 C   0  0  0  0  0  2  0  0  0  0  0  0
   23.1150   36.5380   65.9010 C   0  0  0  0  0  1  0  0  0  0  0  0
  1 15  1  6  0  0  0
  1  6  1  0  0  0  0
  2  8  1  6  0  0  0
  2  1  1  0  0  0  0
  3  2  1  0  0  0  0
  3  4  1  0  0  0  0
  4  6  1  0  0  0  0
  4  5  2  0  0  0  0
  6  7  2  0  0  0  0
  8 13  1  0  0  0  0
  9  8  2  0  0  0  0
 10 11  2  0  0  0  0
 10  9  1  0  0  0  0
 11 12  1  0  0  0  0
 12 13  2  0  0  0  0
 14 11  1  0  0  0  0
 16 15  2  0  0  0  0
 17 15  1  0  0  0  0
 18 17  2  0  0  0  0
 19 18  1  0  0  0  0
 20 19  2  0  0  0  0
 20 22  1  0  0  0  0
 21 20  1  0  0  0  0
 22 23  2  0  0  0  0
 23 17  1  0  0  0  0
 24 25  1  0  0  0  0
 24  3  1  0  0  0  0
 26 25  1  0  0  0  0
 26 27  1  0  0  0  0
 26 32  1  0  0  0  0
 28 27  1  0  0  0  0
 29 28  1  0  0  0  0
 30 29  1  0  0  0  0
 30 31  1  0  0  0  0
 31 26  1  0  0  0  0
 33 10  1  0  0  0  0
 34 33  1  0  0  0  0
 35 34  1  0  0  0  0
M  END
>  <Pose>
1

>  <Score>
-8.205

$$$$
