/Users/jonathanwahrer/Desktop/Msc/3_Semester/Drug_Design_Praktikum/waehrer_HTS_screening/HTS_experiment/out/docking_results/vina_output/4x21/1676_docked.pdbqt
 OpenBabel03212202353D

 25 28  0  0  0  0  0  0  0  0999 V2000
   16.2010   36.0950   70.6700 C   0  0  0  0  0  0  0  0  0  0  0  0
   15.4320   37.0720   70.7400 O   0  0  0  0  0  0  0  0  0  0  0  0
   17.5230   36.2970   70.1980 N   0  0  0  0  0  0  0  0  0  0  0  0
   18.1710   35.4960   70.1340 H   0  0  0  0  0  0  0  0  0  0  0  0
   15.7050   34.7840   71.0770 C   0  0  0  0  0  0  0  0  0  0  0  0
   14.3540   34.5210   70.9350 C   0  0  0  0  0  0  0  0  0  0  0  0
   13.8630   33.2950   71.3120 C   0  0  0  0  0  0  0  0  0  0  0  0
   13.3110   35.2600   70.4700 N   0  0  0  0  0  0  0  0  0  0  0  0
   14.7230   32.3510   71.8220 C   0  0  0  0  0  3  0  0  0  0  0  0
   12.5310   33.3230   71.0630 N   0  0  0  0  0  0  0  0  0  0  0  0
   16.0700   32.6080   71.9670 C   0  0  0  0  0  0  0  0  0  0  0  0
   17.2420   31.2760   72.6800 Br  0  0  0  0  0  0  0  0  0  0  0  0
   16.5680   33.8280   71.5930 C   0  0  0  0  0  3  0  0  0  0  0  0
   12.2470   34.5120   70.5630 N   0  0  0  0  0  0  0  0  0  0  0  0
   13.4460   36.2330   70.1260 H   0  0  0  0  0  0  0  0  0  0  0  0
   17.9850   37.6050   69.8020 C   0  0  0  0  0  2  0  0  0  0  0  0
   18.8800   37.4620   68.6010 C   0  0  0  0  0  0  0  0  0  0  0  0
   20.0600   36.8250   68.5420 N   0  0  0  0  0  0  0  0  0  0  0  0
   20.5820   36.9000   67.2990 C   0  0  0  0  0  0  0  0  0  0  0  0
   20.8400   36.1040   69.5240 C   0  0  0  0  0  2  0  0  0  0  0  0
   19.7020   37.6010   66.5730 N   0  0  0  0  0  0  0  0  0  0  0  0
   21.8960   36.2320   67.0920 C   0  0  0  0  0  2  0  0  0  0  0  0
   18.6700   37.9430   67.3590 N   0  0  0  0  0  0  0  0  0  0  0  0
   21.6800   34.7910   67.5780 C   0  0  0  0  0  2  0  0  0  0  0  0
   21.1470   34.7290   68.9720 C   0  0  0  0  0  2  0  0  0  0  0  0
  1  2  2  0  0  0  0
  1  5  1  0  0  0  0
  3  1  1  0  0  0  0
  4  3  1  0  0  0  0
  5 13  1  0  0  0  0
  6  5  2  0  0  0  0
  6  7  1  0  0  0  0
  7  9  2  0  0  0  0
  8 14  1  0  0  0  0
  8  6  1  0  0  0  0
  9 11  1  0  0  0  0
 10  7  1  0  0  0  0
 11 12  1  0  0  0  0
 13 11  2  0  0  0  0
 14 10  2  0  0  0  0
 15  8  1  0  0  0  0
 16  3  1  0  0  0  0
 17 16  1  0  0  0  0
 18 17  1  0  0  0  0
 18 20  1  0  0  0  0
 19 18  1  0  0  0  0
 21 19  2  0  0  0  0
 21 23  1  0  0  0  0
 22 19  1  0  0  0  0
 22 24  1  0  0  0  0
 23 17  2  0  0  0  0
 24 25  1  0  0  0  0
 25 20  1  0  0  0  0
M  END
>  <Pose>
1

>  <Score>
-8.440

$$$$
