/Users/jonathanwahrer/Desktop/Msc/3_Semester/Drug_Design_Praktikum/waehrer_HTS_screening/HTS_experiment/out/docking_results/vina_output/4x21/1687_docked.pdbqt
 OpenBabel03212202353D

 27 30  0  0  0  0  0  0  0  0999 V2000
   18.0260   37.3770   69.0870 N   0  0  0  0  0  0  0  0  0  0  0  0
   18.4740   36.6340   70.1240 C   0  0  0  0  0  2  0  0  0  0  0  0
   19.7620   36.1470   70.1730 C   0  0  0  0  0  0  0  0  0  0  0  0
   20.6820   36.4340   69.0800 C   0  0  0  0  0  0  0  0  0  0  0  0
   21.8410   35.8410   69.3980 N   0  0  0  0  0  2  0  0  0  0  0  0
   21.7340   35.2140   70.5800 N   0  0  0  0  0  0  0  0  0  0  0  0
   20.4930   35.3870   71.0610 C   0  0  0  0  0  0  0  0  0  0  0  0
   20.0900   34.9180   72.1490 O   0  0  0  0  0  0  0  0  0  0  0  0
   20.1890   37.1970   68.0340 C   0  0  0  0  0  0  0  0  0  0  0  0
   18.8920   37.6270   68.0950 C   0  0  0  0  0  3  0  0  0  0  0  0
   22.5350   34.6860   71.0110 H   0  0  0  0  0  0  0  0  0  0  0  0
   16.6560   37.8780   69.0670 C   0  0  0  0  0  2  0  0  0  0  0  0
   15.9990   37.4890   70.3740 C   0  0  0  0  0  2  0  0  0  0  0  0
   14.9030   36.5660   70.1710 N   0  0  0  0  0  0  0  0  0  0  0  0
   13.7160   36.8650   69.6020 C   0  0  0  0  0  3  0  0  0  0  0  0
   12.9310   35.7740   69.5720 N   0  0  0  0  0  0  0  0  0  0  0  0
   13.6030   34.7300   70.1280 C   0  0  0  0  0  0  0  0  0  0  0  0
   13.2780   33.4060   70.3490 C   0  0  0  0  0  3  0  0  0  0  0  0
   14.8250   35.2620   70.4880 C   0  0  0  0  0  0  0  0  0  0  0  0
   14.1960   32.5710   70.9500 C   0  0  0  0  0  0  0  0  0  0  0  0
   13.8500   30.8710   71.2630 Cl  0  0  0  0  0  0  0  0  0  0  0  0
   15.4150   33.1150   71.3060 C   0  0  0  0  0  3  0  0  0  0  0  0
   15.7470   34.4370   71.0890 C   0  0  0  0  0  3  0  0  0  0  0  0
   21.0800   37.5060   66.9220 C   0  0  0  0  0  0  0  0  0  0  0  0
   21.4860   38.6860   66.7740 O   0  0  0  0  0  0  0  0  0  0  0  0
   21.4850   36.5440   66.0350 O   0  0  0  0  0  0  0  0  0  0  0  0
   22.8540   36.2040   65.8800 C   0  0  0  0  0  1  0  0  0  0  0  0
  1  2  1  0  0  0  0
  2  3  1  0  0  0  0
  3  7  1  0  0  0  0
  4  5  1  0  0  0  0
  4  3  2  0  0  0  0
  5  6  1  0  0  0  0
  6 11  1  0  0  0  0
  6  7  1  0  0  0  0
  7  8  2  0  0  0  0
  9 10  2  0  0  0  0
  9  4  1  0  0  0  0
 10  1  1  0  0  0  0
 12  1  1  0  0  0  0
 12 13  1  0  0  0  0
 14 13  1  0  0  0  0
 14 19  1  0  0  0  0
 15 14  1  0  0  0  0
 16 15  2  0  0  0  0
 16 17  1  0  0  0  0
 17 18  2  0  0  0  0
 17 19  1  0  0  0  0
 18 20  1  0  0  0  0
 19 23  2  0  0  0  0
 20 21  1  0  0  0  0
 20 22  2  0  0  0  0
 23 22  1  0  0  0  0
 24  9  1  0  0  0  0
 25 24  2  0  0  0  0
 26 24  1  0  0  0  0
 27 26  1  0  0  0  0
M  END
>  <Pose>
1

>  <Score>
-8.394

$$$$
