/Users/jonathanwahrer/Desktop/Msc/3_Semester/Drug_Design_Praktikum/waehrer_HTS_screening/HTS_experiment/out/docking_results/vina_output/4x21/1711_docked.pdbqt
 OpenBabel03212202373D

 30 33  0  0  0  0  0  0  0  0999 V2000
   23.1460   35.8490   66.3430 N   0  0  0  0  0  0  0  0  0  0  0  0
   23.4610   34.5980   66.9390 C   0  0  0  0  0  2  0  0  0  0  0  0
   22.3840   34.0880   67.8630 C   0  0  0  0  0  2  0  0  0  0  0  0
   21.6820   35.1510   68.5330 N   0  0  0  0  0  0  0  0  0  0  0  0
   21.1660   36.2550   67.7590 C   0  0  0  0  0  2  0  0  0  0  0  0
   21.7760   36.2060   66.3920 C   0  0  0  0  0  2  0  0  0  0  0  0
   21.4760   35.1560   69.9340 C   0  0  0  0  0  0  0  0  0  0  0  0
   21.9170   34.2070   70.6100 O   0  0  0  0  0  0  0  0  0  0  0  0
   20.7530   36.2530   70.6160 C   0  0  0  0  0  2  0  0  0  0  0  0
   19.3520   35.9650   70.7210 N   0  0  0  0  0  0  0  0  0  0  0  0
   18.6830   34.9640   71.4770 C   0  0  0  0  0  0  0  0  0  0  0  0
   19.2630   34.1340   72.2110 O   0  0  0  0  0  0  0  0  0  0  0  0
   17.2540   35.0900   71.2420 C   0  0  0  0  0  0  0  0  0  0  0  0
   17.0320   36.1300   70.3710 C   0  0  0  0  0  0  0  0  0  0  0  0
   16.1790   34.3840   71.7190 C   0  0  0  0  0  3  0  0  0  0  0  0
   15.7320   36.4390   69.9960 C   0  0  0  0  0  3  0  0  0  0  0  0
   18.3320   36.6950   70.0290 C   0  0  0  0  0  0  0  0  0  0  0  0
   14.6610   35.7350   70.4720 C   0  0  0  0  0  3  0  0  0  0  0  0
   14.8720   34.6770   71.3570 C   0  0  0  0  0  3  0  0  0  0  0  0
   18.4590   37.6700   69.2440 O   0  0  0  0  0  0  0  0  0  0  0  0
   24.2760   37.0780   66.5220 S   0  0  0  0  0  0  0  0  0  0  0  0
   24.4430   37.3720   68.0060 O   0  0  0  0  0  0  0  0  0  0  0  0
   25.6280   36.5570   66.0700 O   0  0  0  0  0  0  0  0  0  0  0  0
   23.9570   38.5250   65.6450 C   0  0  0  0  0  0  0  0  0  0  0  0
   22.8430   39.2870   65.9560 C   0  0  0  0  0  3  0  0  0  0  0  0
   22.5400   40.4550   65.2860 C   0  0  0  0  0  3  0  0  0  0  0  0
   23.3910   40.8600   64.2740 C   0  0  0  0  0  0  0  0  0  0  0  0
   24.4970   40.0910   63.9750 C   0  0  0  0  0  3  0  0  0  0  0  0
   23.0290   42.4810   63.2980 Br  0  0  0  0  0  0  0  0  0  0  0  0
   24.8120   38.9220   64.6360 C   0  0  0  0  0  3  0  0  0  0  0  0
  1  6  1  0  0  0  0
  1 21  1  0  0  0  0
  1  2  1  0  0  0  0
  2  3  1  0  0  0  0
  3  4  1  0  0  0  0
  4  7  1  0  0  0  0
  5  4  1  0  0  0  0
  6  5  1  0  0  0  0
  7  8  2  0  0  0  0
  7  9  1  0  0  0  0
  9 10  1  0  0  0  0
 10 11  1  0  0  0  0
 11 12  2  0  0  0  0
 13 11  1  0  0  0  0
 13 15  1  0  0  0  0
 14 13  2  0  0  0  0
 16 14  1  0  0  0  0
 16 18  2  0  0  0  0
 17 14  1  0  0  0  0
 17 10  1  0  0  0  0
 18 19  1  0  0  0  0
 19 15  2  0  0  0  0
 20 17  2  0  0  0  0
 21 22  2  0  0  0  0
 23 21  2  0  0  0  0
 24 25  1  0  0  0  0
 24 21  1  0  0  0  0
 26 25  2  0  0  0  0
 27 26  1  0  0  0  0
 28 27  2  0  0  0  0
 28 30  1  0  0  0  0
 29 27  1  0  0  0  0
 30 24  2  0  0  0  0
M  END
>  <Pose>
1

>  <Score>
-9.249

$$$$
