/Users/jonathanwahrer/Desktop/Msc/3_Semester/Drug_Design_Praktikum/waehrer_HTS_screening/HTS_experiment/out/docking_results/vina_output/4x21/1718_docked.pdbqt
 OpenBabel03212202373D

 34 38  0  0  1  0  0  0  0  0999 V2000
   16.6510   27.1190   72.6530 Cl  0  0  0  0  0  0  0  0  0  0  0  0
   15.8600   28.5690   73.2290 C   0  0  0  0  0  0  0  0  0  0  0  0
   16.1500   29.7600   72.5620 C   0  0  0  0  0  0  0  0  0  0  0  0
   15.5470   30.9240   72.9860 C   0  0  0  0  0  0  0  0  0  0  0  0
   14.6700   30.8510   74.0690 C   0  0  0  0  0  3  0  0  0  0  0  0
   14.3900   29.6700   74.7220 C   0  0  0  0  0  3  0  0  0  0  0  0
   14.9940   28.5050   74.2970 C   0  0  0  0  0  3  0  0  0  0  0  0
   15.9760   32.0580   72.1690 C   0  0  1  0  0  0  0  0  0  0  0  0
   14.8690   32.7550   71.5430 N   0  0  0  0  0  0  0  0  0  0  0  0
   15.3790   34.0850   71.2360 C   0  0  2  0  0  3  0  0  0  0  0  0
   16.3590   34.4220   72.3260 C   0  0  1  0  0  3  0  0  0  0  0  0
   16.7320   33.1040   72.9580 C   0  0  2  0  0  3  0  0  0  0  0  0
   18.2000   32.9690   72.7810 C   0  0  0  0  0  0  0  0  0  0  0  0
   18.8080   31.9060   73.0860 O   0  0  0  0  0  0  0  0  0  0  0  0
   18.7250   34.1740   72.2490 N   0  0  0  0  0  0  0  0  0  0  0  0
   17.6370   34.8950   71.6920 C   0  0  0  0  0  0  0  0  0  0  0  0
   17.6630   35.7980   70.8080 O   0  0  0  0  0  0  0  0  0  0  0  0
   16.9040   31.4780   71.1850 C   0  0  0  0  0  0  0  0  0  0  0  0
   17.5320   32.0930   70.2470 O   0  0  0  0  0  0  0  0  0  0  0  0
   16.9830   30.0900   71.4590 N   0  0  0  0  0  0  0  0  0  0  0  0
   14.0320   32.8010   72.1670 H   0  0  0  0  0  0  0  0  0  0  0  0
   17.5720   29.3920   70.9280 H   0  0  0  0  0  0  0  0  0  0  0  0
   14.2290   35.0480   71.1820 C   0  0  0  0  0  2  0  0  0  0  0  0
   13.1250   34.3730   70.4280 C   0  0  0  0  0  0  0  0  0  0  0  0
   12.2010   33.8670   71.1160 O   0  0  0  0  0  0  0  0  0  0  0  0
   13.1030   34.2950   69.0130 N   0  0  0  0  0  0  0  0  0  0  0  0
   12.8730   35.1570   68.4800 H   0  0  0  0  0  0  0  0  0  0  0  0
   13.3020   33.4310   68.4730 H   0  0  0  0  0  0  0  0  0  0  0  0
   20.0820   34.5820   72.2730 C   0  0  0  0  0  2  0  0  0  0  0  0
   20.8430   34.4860   71.0110 C   0  0  2  0  0  3  0  0  0  0  0  0
   22.0560   33.8190   71.1000 O   0  0  0  0  0  0  0  0  0  0  0  0
   22.4510   33.8050   69.7620 C   0  0  0  0  0  2  0  0  0  0  0  0
   22.1820   35.2300   69.2610 C   0  0  0  0  0  2  0  0  0  0  0  0
   21.2110   35.7530   70.3320 C   0  0  0  0  0  2  0  0  0  0  0  0
  1  2  1  0  0  0  0
  2  7  1  0  0  0  0
  3  4  1  0  0  0  0
  3  2  2  0  0  0  0
  4  5  2  0  0  0  0
  5  6  1  0  0  0  0
  7  6  2  0  0  0  0
  8 18  1  6  0  0  0
  8 12  1  0  0  0  0
  8  4  1  0  0  0  0
  9 21  1  0  0  0  0
  9  8  1  0  0  0  0
 10 23  1  1  0  0  0
 10  9  1  0  0  0  0
 10 11  1  0  0  0  0
 11 16  1  6  0  0  0
 11 12  1  0  0  0  0
 12 13  1  6  0  0  0
 13 14  2  0  0  0  0
 15 29  1  0  0  0  0
 15 13  1  0  0  0  0
 16 15  1  0  0  0  0
 17 16  2  0  0  0  0
 18 20  1  0  0  0  0
 19 18  2  0  0  0  0
 20  3  1  0  0  0  0
 22 20  1  0  0  0  0
 24 25  2  0  0  0  0
 24 23  1  0  0  0  0
 26 24  1  0  0  0  0
 27 26  1  0  0  0  0
 28 26  1  0  0  0  0
 30 31  1  0  0  0  0
 30 29  1  1  0  0  0
 32 31  1  0  0  0  0
 33 32  1  0  0  0  0
 33 34  1  0  0  0  0
 34 30  1  0  0  0  0
M  END
>  <Pose>
1

>  <Score>
-9.035

$$$$
