/Users/jonathanwahrer/Desktop/Msc/3_Semester/Drug_Design_Praktikum/waehrer_HTS_screening/HTS_experiment/out/docking_results/vina_output/4x21/1721_docked.pdbqt
 OpenBabel03212202373D

 28 31  0  0  1  0  0  0  0  0999 V2000
   20.9240   34.5520   70.8020 C   0  0  0  0  0  2  0  0  0  0  0  0
   20.9590   35.9590   70.6640 N   0  0  0  0  0  0  0  0  0  0  0  0
   21.6690   36.5190   71.1440 H   0  0  0  0  0  0  0  0  0  0  0  0
   19.9670   36.6170   69.8420 C   0  0  0  0  0  0  0  0  0  0  0  0
   20.3220   36.8850   68.5410 C   0  0  1  0  0  3  0  0  0  0  0  0
   19.3960   37.5190   67.7170 C   0  0  0  0  0  0  0  0  0  0  0  0
   21.4020   36.6940   67.7700 N   0  0  0  0  0  0  0  0  0  0  0  0
   18.2160   37.8200   68.2710 N   0  0  0  0  0  4  0  0  0  0  0  0
   19.9560   37.6760   66.5070 N   0  0  0  0  0  0  0  0  0  0  0  0
   17.8640   37.5660   69.5240 C   0  0  0  0  0  0  0  0  0  0  0  0
   16.2940   38.0050   70.1420 Cl  0  0  0  0  0  0  0  0  0  0  0  0
   18.7630   36.9500   70.3250 N   0  0  0  0  0  0  0  0  0  0  0  0
   21.2000   37.1680   66.5260 C   0  0  0  0  0  3  0  0  0  0  0  0
   22.2700   36.2250   68.1430 H   0  0  0  0  0  0  0  0  0  0  0  0
   20.0560   34.0290   71.8460 C   0  0  0  0  0  0  0  0  0  0  0  0
   20.0390   34.8190   72.9410 O   0  0  0  0  0  0  0  0  0  0  0  0
   19.2770   32.9080   71.9160 N   0  0  0  0  0  0  0  0  0  0  0  0
   19.1740   31.8420   70.9790 C   0  0  0  0  0  2  0  0  0  0  0  0
   18.3920   32.7980   73.1370 C   0  0  0  0  0  2  0  0  0  0  0  0
   17.7770   31.7550   70.3680 C   0  0  0  0  0  2  0  0  0  0  0  0
   16.8840   32.2230   71.3890 N   0  0  0  0  0  0  0  0  0  0  0  0
   17.2030   31.9110   72.7520 C   0  0  0  0  0  2  0  0  0  0  0  0
   15.7240   32.9640   71.1010 C   0  0  0  0  0  0  0  0  0  0  0  0
   14.4920   32.5700   71.5370 N   0  0  0  0  0  0  0  0  0  0  0  0
   13.3650   33.2170   71.3010 C   0  0  0  0  0  3  0  0  0  0  0  0
   13.3420   34.3740   70.5740 C   0  0  0  0  0  3  0  0  0  0  0  0
   14.5620   34.8320   70.1000 C   0  0  0  0  0  3  0  0  0  0  0  0
   15.7320   34.1360   70.3610 C   0  0  0  0  0  3  0  0  0  0  0  0
  1 15  1  0  0  0  0
  2  1  1  0  0  0  0
  2  3  1  0  0  0  0
  4 12  2  0  0  0  0
  4  2  1  0  0  0  0
  5  6  1  1  0  0  0
  5  4  1  0  0  0  0
  6  8  2  0  0  0  0
  7 14  1  0  0  0  0
  7  5  1  0  0  0  0
  8 10  2  0  0  0  0
  9 13  2  0  0  0  0
  9  6  1  0  0  0  0
 10 11  1  0  0  0  0
 10 12  1  0  0  0  0
 13  7  1  0  0  0  0
 15 17  1  0  0  0  0
 15 16  2  0  0  0  0
 17 19  1  0  0  0  0
 18 17  1  0  0  0  0
 20 18  1  0  0  0  0
 20 21  1  0  0  0  0
 21 22  1  0  0  0  0
 22 19  1  0  0  0  0
 23 21  1  0  0  0  0
 23 24  1  0  0  0  0
 25 24  2  0  0  0  0
 26 25  1  0  0  0  0
 27 28  1  0  0  0  0
 27 26  2  0  0  0  0
 28 23  2  0  0  0  0
M  END
>  <Pose>
1

>  <Score>
-8.382

$$$$
