/Users/jonathanwahrer/Desktop/Msc/3_Semester/Drug_Design_Praktikum/waehrer_HTS_screening/HTS_experiment/out/docking_results/vina_output/4x21/1726_docked.pdbqt
 OpenBabel03212202373D

 30 33  0  0  1  0  0  0  0  0999 V2000
   20.7070   34.6920   69.8430 N   0  0  0  0  0  4  0  0  0  0  0  0
   20.8740   35.8950   70.5860 C   0  0  0  0  0  2  0  0  0  0  0  0
   21.5030   37.0270   69.8380 C   0  0  1  0  0  3  0  0  0  0  0  0
   22.9600   36.8660   69.5830 C   0  0  0  0  0  2  0  0  0  0  0  0
   23.3200   36.7010   68.2030 N   0  0  0  0  0  0  0  0  0  0  0  0
   22.4880   36.2560   67.2440 C   0  0  0  0  0  0  0  0  0  0  0  0
   22.8300   36.0970   65.9320 C   0  0  0  0  0  3  0  0  0  0  0  0
   24.1150   36.4120   65.5410 C   0  0  0  0  0  3  0  0  0  0  0  0
   24.9720   36.8680   66.5140 C   0  0  0  0  0  3  0  0  0  0  0  0
   24.5940   37.0140   67.8270 C   0  0  0  0  0  0  0  0  0  0  0  0
   25.4070   37.4340   68.6920 O   0  0  0  0  0  0  0  0  0  0  0  0
   21.0970   35.9280   67.7370 C   0  0  1  0  0  3  0  0  0  0  0  0
   21.1980   34.6790   68.5190 C   0  0  0  0  0  2  0  0  0  0  0  0
   20.6980   37.1440   68.5380 C   0  0  0  0  0  2  0  0  0  0  0  0
   19.6610   34.4900   69.8000 H   0  0  0  0  0  0  0  0  0  0  0  0
   21.2620   33.6150   70.6390 C   0  0  0  0  0  2  0  0  0  0  0  0
   20.2550   32.5950   71.0650 C   0  0  1  0  0  3  0  0  0  0  0  0
   19.0750   33.3660   71.6570 C   0  0  0  0  0  2  0  0  0  0  0  0
   18.0880   33.4080   70.6670 O   0  0  0  0  0  0  0  0  0  0  0  0
   16.7590   33.6120   70.8260 C   0  0  0  0  0  0  0  0  0  0  0  0
   15.9270   32.5610   71.1410 C   0  0  0  0  0  0  0  0  0  0  0  0
   16.6930   30.8300   71.3470 Br  0  0  0  0  0  0  0  0  0  0  0  0
   14.5540   32.7300   71.3110 C   0  0  0  0  0  3  0  0  0  0  0  0
   14.0060   33.9700   71.1630 C   0  0  0  0  0  0  0  0  0  0  0  0
   14.8140   35.0450   70.8460 C   0  0  0  0  0  3  0  0  0  0  0  0
   12.5310   34.1440   71.3470 C   0  0  0  0  0  1  0  0  0  0  0  0
   16.1900   34.8580   70.6800 C   0  0  0  0  0  0  0  0  0  0  0  0
   17.3120   36.3320   70.2440 Br  0  0  0  0  0  0  0  0  0  0  0  0
   19.8620   31.8300   69.9690 O   0  0  0  0  0  0  0  0  0  0  0  0
   19.1560   31.2090   70.3070 H   0  0  0  0  0  0  0  0  0  0  0  0
  1  2  1  0  0  0  0
  1 16  1  0  0  0  0
  3 14  1  6  0  0  0
  3  2  1  0  0  0  0
  4  3  1  0  0  0  0
  5  4  1  0  0  0  0
  6 12  1  0  0  0  0
  6  5  1  0  0  0  0
  7  6  2  0  0  0  0
  8  7  1  0  0  0  0
  8  9  2  0  0  0  0
  9 10  1  0  0  0  0
 10  5  1  0  0  0  0
 10 11  2  0  0  0  0
 12 13  1  1  0  0  0
 12 14  1  0  0  0  0
 13  1  1  0  0  0  0
 15  1  1  0  0  0  0
 17 16  1  6  0  0  0
 17 18  1  0  0  0  0
 19 20  1  0  0  0  0
 19 18  1  0  0  0  0
 20 21  1  0  0  0  0
 21 23  2  0  0  0  0
 21 22  1  0  0  0  0
 24 23  1  0  0  0  0
 24 26  1  0  0  0  0
 25 24  2  0  0  0  0
 27 20  2  0  0  0  0
 27 25  1  0  0  0  0
 28 27  1  0  0  0  0
 29 30  1  0  0  0  0
 29 17  1  0  0  0  0
M  END
>  <Pose>
1

>  <Score>
-8.389

$$$$
