/Users/jonathanwahrer/Desktop/Msc/3_Semester/Drug_Design_Praktikum/waehrer_HTS_screening/HTS_experiment/out/docking_results/vina_output/4x21/1732_docked.pdbqt
 OpenBabel03212202373D

 28 31  0  0  0  0  0  0  0  0999 V2000
   19.1420   33.9130   72.1460 N   0  0  0  0  0  0  0  0  0  0  0  0
   18.7720   33.7720   73.4080 N   0  0  0  0  0  2  0  0  0  0  0  0
   17.4480   33.7060   73.4870 N   0  0  0  0  0  0  0  0  0  0  0  0
   16.9480   33.8080   72.2370 C   0  0  0  0  0  0  0  0  0  0  0  0
   18.0230   33.9330   71.4420 N   0  0  0  0  0  2  0  0  0  0  0  0
   20.5150   34.0230   71.6290 C   0  0  0  0  0  2  0  0  0  0  0  0
   20.5180   34.6310   70.2720 C   0  0  0  0  0  0  0  0  0  0  0  0
   19.9660   35.8900   70.0360 N   0  0  0  0  0  0  0  0  0  0  0  0
   19.5500   36.3760   70.8850 H   0  0  0  0  0  0  0  0  0  0  0  0
   21.0350   33.9610   69.3600 O   0  0  0  0  0  0  0  0  0  0  0  0
   19.8850   36.6060   68.8230 C   0  0  0  0  0  0  0  0  0  0  0  0
   18.7210   37.2980   68.4840 C   0  0  0  0  0  0  0  0  0  0  0  0
   17.2670   37.2430   69.6940 Br  0  0  0  0  0  0  0  0  0  0  0  0
   18.5700   38.0160   67.3230 C   0  0  0  0  0  3  0  0  0  0  0  0
   19.6130   38.0720   66.4250 C   0  0  0  0  0  3  0  0  0  0  0  0
   20.7840   37.4120   66.7020 C   0  0  0  0  0  3  0  0  0  0  0  0
   20.9050   36.6910   67.8930 C   0  0  0  0  0  3  0  0  0  0  0  0
   15.5450   33.7850   71.8490 C   0  0  0  0  0  0  0  0  0  0  0  0
   14.9170   32.5640   71.7660 C   0  0  0  0  0  0  0  0  0  0  0  0
   13.5820   32.5430   71.3970 C   0  0  0  0  0  3  0  0  0  0  0  0
   12.8830   33.6900   71.1150 C   0  0  0  0  0  3  0  0  0  0  0  0
   13.5120   34.9160   71.1980 C   0  0  0  0  0  3  0  0  0  0  0  0
   14.8460   34.9350   71.5670 C   0  0  0  0  0  3  0  0  0  0  0  0
   15.5760   31.3290   72.0440 N   0  0  0  0  0  0  0  0  0  0  0  0
   16.2690   30.6400   71.1460 N   0  0  0  0  0  0  0  0  0  0  0  0
   16.7450   29.5570   71.7200 N   0  0  0  0  0  0  0  0  0  0  0  0
   16.3510   29.5580   72.9920 N   0  0  0  0  0  0  0  0  0  0  0  0
   15.6170   30.6720   73.1940 C   0  0  0  0  0  3  0  0  0  0  0  0
  1  2  1  0  0  0  0
  2  3  1  0  0  0  0
  4  3  2  0  0  0  0
  5  1  1  0  0  0  0
  5  4  1  0  0  0  0
  6  1  1  0  0  0  0
  7  6  1  0  0  0  0
  8  7  1  0  0  0  0
  8  9  1  0  0  0  0
 10  7  2  0  0  0  0
 11  8  1  0  0  0  0
 12 11  1  0  0  0  0
 12 13  1  0  0  0  0
 14 12  2  0  0  0  0
 15 16  2  0  0  0  0
 15 14  1  0  0  0  0
 16 17  1  0  0  0  0
 17 11  2  0  0  0  0
 18  4  1  0  0  0  0
 19 18  1  0  0  0  0
 19 24  1  0  0  0  0
 20 19  2  0  0  0  0
 21 22  2  0  0  0  0
 21 20  1  0  0  0  0
 22 23  1  0  0  0  0
 23 18  2  0  0  0  0
 24 28  1  0  0  0  0
 25 26  2  0  0  0  0
 25 24  1  0  0  0  0
 26 27  1  0  0  0  0
 27 28  2  0  0  0  0
M  END
>  <Pose>
1

>  <Score>
-8.899

$$$$
