/Users/jonathanwahrer/Desktop/Msc/3_Semester/Drug_Design_Praktikum/waehrer_HTS_screening/HTS_experiment/out/docking_results/vina_output/4x21/1736_docked.pdbqt
 OpenBabel03212202383D

 35 39  0  0  1  0  0  0  0  0999 V2000
   20.3930   30.4510   74.3410 Cl  0  0  0  0  0  0  0  0  0  0  0  0
   19.7340   28.8270   74.0900 C   0  0  0  0  0  0  0  0  0  0  0  0
   18.4350   28.5340   74.4220 C   0  0  0  0  0  3  0  0  0  0  0  0
   17.9330   27.2750   74.2250 C   0  0  0  0  0  0  0  0  0  0  0  0
   18.7430   26.3050   73.6920 C   0  0  0  0  0  0  0  0  0  0  0  0
   20.0680   26.5720   73.3450 C   0  0  0  0  0  3  0  0  0  0  0  0
   20.5420   27.8470   73.5550 C   0  0  0  0  0  3  0  0  0  0  0  0
   18.0540   25.0750   73.5660 N   0  0  0  0  0  0  0  0  0  0  0  0
   16.7380   25.2980   74.0510 C   0  0  0  0  0  0  0  0  0  0  0  0
   15.8280   24.4430   74.1060 O   0  0  0  0  0  0  0  0  0  0  0  0
   16.5940   26.7000   74.4860 C   0  0  1  0  0  0  0  0  0  0  0  0
   16.2090   26.8130   75.8710 N   0  0  0  0  0  0  0  0  0  0  0  0
   15.3210   27.9270   75.9880 C   0  0  1  0  0  3  0  0  0  0  0  0
   14.5430   28.0050   74.6940 C   0  0  2  0  0  3  0  0  0  0  0  0
   15.5010   27.3590   73.7260 C   0  0  1  0  0  3  0  0  0  0  0  0
   15.9530   28.4300   72.8040 C   0  0  0  0  0  0  0  0  0  0  0  0
   16.9780   28.4680   72.0770 O   0  0  0  0  0  0  0  0  0  0  0  0
   14.9580   29.4700   72.8930 N   0  0  0  0  0  0  0  0  0  0  0  0
   14.3610   29.3960   74.2040 C   0  0  0  0  0  0  0  0  0  0  0  0
   13.7880   30.3210   74.8350 O   0  0  0  0  0  0  0  0  0  0  0  0
   18.4070   24.1460   73.1910 H   0  0  0  0  0  0  0  0  0  0  0  0
   17.0380   26.9050   76.4660 H   0  0  0  0  0  0  0  0  0  0  0  0
   14.4030   27.7940   77.1840 C   0  0  1  0  0  3  0  0  0  0  0  0
   14.6910   28.9900   78.0850 C   0  0  0  0  0  1  0  0  0  0  0  0
   13.0960   27.9500   76.7310 O   0  0  0  0  0  0  0  0  0  0  0  0
   12.5350   27.2260   77.0900 H   0  0  0  0  0  0  0  0  0  0  0  0
   14.6060   30.4260   71.8650 C   0  0  0  0  0  2  0  0  0  0  0  0
   15.2980   31.7260   72.1160 C   0  0  0  0  0  0  0  0  0  0  0  0
   14.8110   32.9000   71.5810 C   0  0  0  0  0  0  0  0  0  0  0  0
   15.4710   34.0920   71.8280 C   0  0  0  0  0  3  0  0  0  0  0  0
   16.6140   34.1480   72.6020 C   0  0  0  0  0  3  0  0  0  0  0  0
   17.1080   32.9810   73.1400 C   0  0  0  0  0  3  0  0  0  0  0  0
   16.4440   31.8040   72.8880 C   0  0  0  0  0  3  0  0  0  0  0  0
   13.6540   32.8400   70.7980 O   0  0  0  0  0  0  0  0  0  0  0  0
   13.4630   33.8420   69.7920 C   0  0  0  0  0  1  0  0  0  0  0  0
  2  1  1  0  0  0  0
  2  3  1  0  0  0  0
  4  3  2  0  0  0  0
  4 11  1  0  0  0  0
  5  4  1  0  0  0  0
  6  7  1  0  0  0  0
  6  5  2  0  0  0  0
  7  2  2  0  0  0  0
  8  5  1  0  0  0  0
  8  9  1  0  0  0  0
  9 10  2  0  0  0  0
 11  9  1  6  0  0  0
 11 12  1  0  0  0  0
 12 13  1  0  0  0  0
 12 22  1  0  0  0  0
 13 23  1  1  0  0  0
 14 19  1  6  0  0  0
 14 13  1  0  0  0  0
 15 16  1  6  0  0  0
 15 11  1  0  0  0  0
 15 14  1  0  0  0  0
 16 18  1  0  0  0  0
 17 16  2  0  0  0  0
 18 19  1  0  0  0  0
 19 20  2  0  0  0  0
 21  8  1  0  0  0  0
 23 24  1  1  0  0  0
 25 26  1  0  0  0  0
 25 23  1  0  0  0  0
 27 28  1  0  0  0  0
 27 18  1  0  0  0  0
 28 33  1  0  0  0  0
 29 30  1  0  0  0  0
 29 28  2  0  0  0  0
 30 31  2  0  0  0  0
 31 32  1  0  0  0  0
 33 32  2  0  0  0  0
 34 29  1  0  0  0  0
 35 34  1  0  0  0  0
M  END
>  <Pose>
1

>  <Score>
-7.375

$$$$
