/Users/jonathanwahrer/Desktop/Msc/3_Semester/Drug_Design_Praktikum/waehrer_HTS_screening/HTS_experiment/out/docking_results/vina_output/4x21/1741_docked.pdbqt
 OpenBabel03212202383D

 28 31  0  0  0  0  0  0  0  0999 V2000
   18.2210   31.7320   71.9140 C   0  0  0  0  0  0  0  0  0  0  0  0
   17.8900   30.9260   71.0230 O   0  0  0  0  0  0  0  0  0  0  0  0
   19.5160   32.2700   71.9370 N   0  0  0  0  0  0  0  0  0  0  0  0
   20.5290   31.9470   70.9570 C   0  0  0  0  0  2  0  0  0  0  0  0
   21.0590   33.2660   70.4190 C   0  0  0  0  0  2  0  0  0  0  0  0
   20.3160   34.3580   70.8930 N   0  0  0  0  0  0  0  0  0  0  0  0
   20.1660   34.5610   72.2760 C   0  0  0  0  0  2  0  0  0  0  0  0
   19.9500   33.2220   72.9710 C   0  0  0  0  0  2  0  0  0  0  0  0
   17.2080   32.1100   72.9570 C   0  0  0  0  0  2  0  0  0  0  0  0
   15.8900   32.2890   72.3850 N   0  0  0  0  0  0  0  0  0  0  0  0
   15.4620   33.4040   71.7260 C   0  0  0  0  0  0  0  0  0  0  0  0
   14.1600   33.2460   71.3150 C   0  0  0  0  0  0  0  0  0  0  0  0
   16.1260   34.5750   71.4430 C   0  0  0  0  0  3  0  0  0  0  0  0
   13.4810   34.2400   70.6170 C   0  0  0  0  0  3  0  0  0  0  0  0
   13.7610   31.9940   71.7310 C   0  0  0  0  0  3  0  0  0  0  0  0
   14.1490   35.4320   70.3260 C   0  0  0  0  0  0  0  0  0  0  0  0
   13.2430   36.8220   69.3640 Br  0  0  0  0  0  0  0  0  0  0  0  0
   15.4540   35.5740   70.7450 C   0  0  0  0  0  3  0  0  0  0  0  0
   14.8490   31.4470   72.3790 C   0  0  0  0  0  3  0  0  0  0  0  0
   19.5810   35.1440   69.9920 C   0  0  0  0  0  2  0  0  0  0  0  0
   20.3090   36.3350   69.4800 C   0  0  0  0  0  0  0  0  0  0  0  0
   20.1800   37.3970   70.1390 O   0  0  0  0  0  0  0  0  0  0  0  0
   21.1090   36.3270   68.3270 N   0  0  0  0  0  0  0  0  0  0  0  0
   21.7780   37.5360   67.8910 C   0  0  0  0  0  2  0  0  0  0  0  0
   21.3290   35.1560   67.5020 C   0  0  0  0  0  2  0  0  0  0  0  0
   23.2480   37.2040   67.7430 C   0  0  0  0  0  2  0  0  0  0  0  0
   23.3180   36.2810   66.6890 O   0  0  0  0  0  0  0  0  0  0  0  0
   22.7370   35.0820   67.0240 C   0  0  0  0  0  2  0  0  0  0  0  0
  1  3  1  0  0  0  0
  1  9  1  0  0  0  0
  2  1  2  0  0  0  0
  3  8  1  0  0  0  0
  4  3  1  0  0  0  0
  5  6  1  0  0  0  0
  5  4  1  0  0  0  0
  6  7  1  0  0  0  0
  7  8  1  0  0  0  0
 10  9  1  0  0  0  0
 11 10  1  0  0  0  0
 12 11  2  0  0  0  0
 12 15  1  0  0  0  0
 13 11  1  0  0  0  0
 14 12  1  0  0  0  0
 15 19  2  0  0  0  0
 16 14  2  0  0  0  0
 16 18  1  0  0  0  0
 17 16  1  0  0  0  0
 18 13  2  0  0  0  0
 19 10  1  0  0  0  0
 20  6  1  0  0  0  0
 21 20  1  0  0  0  0
 21 22  2  0  0  0  0
 23 21  1  0  0  0  0
 24 23  1  0  0  0  0
 25 23  1  0  0  0  0
 26 24  1  0  0  0  0
 27 28  1  0  0  0  0
 27 26  1  0  0  0  0
 28 25  1  0  0  0  0
M  END
>  <Pose>
1

>  <Score>
-8.544

$$$$
