/Users/jonathanwahrer/Desktop/Msc/3_Semester/Drug_Design_Praktikum/waehrer_HTS_screening/HTS_experiment/out/docking_results/vina_output/4x21/1744_docked.pdbqt
 OpenBabel03212202383D

 34 37  0  0  1  0  0  0  0  0999 V2000
   17.2410   32.5940   71.5150 N   0  0  0  0  0  0  0  0  0  0  0  0
   17.4710   32.5280   72.9220 C   0  0  0  0  0  0  0  0  0  0  0  0
   16.6340   32.8960   73.7820 O   0  0  0  0  0  0  0  0  0  0  0  0
   18.7210   32.0130   73.3770 N   0  0  0  0  0  0  0  0  0  0  0  0
   19.6970   31.5830   72.4160 C   0  0  0  0  0  0  0  0  0  0  0  0
   20.6820   30.9190   72.8850 O   0  0  0  0  0  0  0  0  0  0  0  0
   19.5830   31.8830   70.9770 C   0  0  1  0  0  3  0  0  0  0  0  0
   18.1910   32.1690   70.5480 C   0  0  0  0  0  0  0  0  0  0  0  0
   17.9010   32.0250   69.3350 O   0  0  0  0  0  0  0  0  0  0  0  0
   18.9570   31.9370   74.3990 H   0  0  0  0  0  0  0  0  0  0  0  0
   20.4840   33.0350   70.6010 C   0  0  1  0  0  3  0  0  0  0  0  0
   20.6390   34.1230   71.3340 C   0  0  0  0  0  2  0  0  0  0  0  0
   21.5970   34.9640   70.5830 C   0  0  1  0  0  3  0  0  0  0  0  0
   22.3710   33.9680   69.8650 N   0  0  0  0  0  0  0  0  0  0  0  0
   21.3130   33.1240   69.4430 N   0  0  0  0  0  0  0  0  0  0  0  0
   22.9470   34.3290   69.0990 H   0  0  0  0  0  0  0  0  0  0  0  0
   21.1180   32.6580   68.5580 H   0  0  0  0  0  0  0  0  0  0  0  0
   20.8810   35.8610   69.6340 C   0  0  0  0  0  0  0  0  0  0  0  0
   21.3250   36.1980   68.3870 C   0  0  0  0  0  3  0  0  0  0  0  0
   20.6030   37.0030   67.5290 C   0  0  0  0  0  0  0  0  0  0  0  0
   19.3750   37.5090   67.9140 C   0  0  0  0  0  0  0  0  0  0  0  0
   18.9240   37.1580   69.1970 C   0  0  0  0  0  3  0  0  0  0  0  0
   19.6570   36.3560   70.0390 C   0  0  0  0  0  3  0  0  0  0  0  0
   21.1060   37.3220   66.2550 O   0  0  0  0  0  0  0  0  0  0  0  0
   21.9790   37.8370   66.2030 H   0  0  0  0  0  0  0  0  0  0  0  0
   18.6260   38.3090   67.0850 O   0  0  0  0  0  0  0  0  0  0  0  0
   17.3060   38.6920   67.4110 C   0  0  0  0  0  1  0  0  0  0  0  0
   15.9940   33.1270   71.0840 C   0  0  0  0  0  0  0  0  0  0  0  0
   15.8770   34.4420   70.6690 C   0  0  0  0  0  3  0  0  0  0  0  0
   14.6930   34.9840   70.2330 C   0  0  0  0  0  0  0  0  0  0  0  0
   14.5950   36.6480   69.7260 Cl  0  0  0  0  0  0  0  0  0  0  0  0
   13.5810   34.1610   70.2160 C   0  0  0  0  0  3  0  0  0  0  0  0
   13.6550   32.8440   70.6220 C   0  0  0  0  0  3  0  0  0  0  0  0
   14.8790   32.3450   71.0560 C   0  0  0  0  0  3  0  0  0  0  0  0
  1  2  1  0  0  0  0
  2  4  1  0  0  0  0
  2  3  2  0  0  0  0
  4 10  1  0  0  0  0
  5  6  2  0  0  0  0
  5  4  1  0  0  0  0
  7  8  1  1  0  0  0
  7  5  1  0  0  0  0
  8  1  1  0  0  0  0
  9  8  2  0  0  0  0
 11  7  1  0  0  0  0
 11 12  1  1  0  0  0
 13 18  1  6  0  0  0
 13 12  1  0  0  0  0
 14 13  1  0  0  0  0
 15 14  1  0  0  0  0
 15 11  1  0  0  0  0
 16 14  1  0  0  0  0
 17 15  1  0  0  0  0
 18 23  1  0  0  0  0
 19 18  2  0  0  0  0
 20 21  2  0  0  0  0
 20 19  1  0  0  0  0
 21 22  1  0  0  0  0
 22 23  2  0  0  0  0
 24 20  1  0  0  0  0
 25 24  1  0  0  0  0
 26 27  1  0  0  0  0
 26 21  1  0  0  0  0
 28  1  1  0  0  0  0
 29 28  2  0  0  0  0
 30 29  1  0  0  0  0
 31 30  1  0  0  0  0
 32 30  2  0  0  0  0
 32 33  1  0  0  0  0
 33 34  2  0  0  0  0
 34 28  1  0  0  0  0
M  END
>  <Pose>
1

>  <Score>
-8.753

$$$$
