/Users/jonathanwahrer/Desktop/Msc/3_Semester/Drug_Design_Praktikum/waehrer_HTS_screening/HTS_experiment/out/docking_results/vina_output/4x21/1745_docked.pdbqt
 OpenBabel03212202393D

 34 37  0  0  1  0  0  0  0  0999 V2000
   17.7400   33.3280   71.7690 N   0  0  0  0  0  0  0  0  0  0  0  0
   18.3940   33.4240   73.0240 C   0  0  0  0  0  0  0  0  0  0  0  0
   17.8140   33.8720   74.0230 O   0  0  0  0  0  0  0  0  0  0  0  0
   19.7580   32.9990   73.1560 N   0  0  0  0  0  0  0  0  0  0  0  0
   20.4740   32.4740   72.0400 C   0  0  0  0  0  0  0  0  0  0  0  0
   21.4570   31.7250   72.1730 O   0  0  0  0  0  0  0  0  0  0  0  0
   20.0120   32.8500   70.6570 C   0  0  1  0  0  3  0  0  0  0  0  0
   18.5350   32.7930   70.6890 C   0  0  0  0  0  0  0  0  0  0  0  0
   17.8750   32.2500   69.7320 O   0  0  0  0  0  0  0  0  0  0  0  0
   20.2130   33.0780   74.0740 H   0  0  0  0  0  0  0  0  0  0  0  0
   20.5400   34.2050   70.3150 C   0  0  2  0  0  3  0  0  0  0  0  0
   21.6940   34.7520   70.6380 C   0  0  0  0  0  2  0  0  0  0  0  0
   21.7490   36.1220   70.0570 C   0  0  2  0  0  3  0  0  0  0  0  0
   20.3010   36.4210   69.9250 N   0  0  0  0  0  0  0  0  0  0  0  0
   19.7960   35.1680   69.5560 N   0  0  0  0  0  0  0  0  0  0  0  0
   19.9260   36.7530   70.8360 H   0  0  0  0  0  0  0  0  0  0  0  0
   19.0580   34.9560   68.8930 H   0  0  0  0  0  0  0  0  0  0  0  0
   22.2670   36.0370   68.6650 C   0  0  0  0  0  0  0  0  0  0  0  0
   23.0260   34.9310   68.2260 C   0  0  0  0  0  3  0  0  0  0  0  0
   23.4900   34.7940   66.9550 C   0  0  0  0  0  0  0  0  0  0  0  0
   23.2170   35.7760   66.0220 C   0  0  0  0  0  0  0  0  0  0  0  0
   22.4800   36.8700   66.4140 C   0  0  0  0  0  3  0  0  0  0  0  0
   22.0170   36.9950   67.7050 C   0  0  0  0  0  3  0  0  0  0  0  0
   24.2440   33.6750   66.5730 O   0  0  0  0  0  0  0  0  0  0  0  0
   25.5520   33.5160   67.0770 C   0  0  0  0  0  1  0  0  0  0  0  0
   23.6820   35.6510   64.7170 O   0  0  0  0  0  0  0  0  0  0  0  0
   23.4330   34.8280   64.1840 H   0  0  0  0  0  0  0  0  0  0  0  0
   16.3850   33.6850   71.5350 C   0  0  0  0  0  0  0  0  0  0  0  0
   16.1240   34.9860   71.0880 C   0  0  0  0  0  3  0  0  0  0  0  0
   14.8450   35.4350   70.8450 C   0  0  0  0  0  0  0  0  0  0  0  0
   14.6170   37.0730   70.2950 Cl  0  0  0  0  0  0  0  0  0  0  0  0
   13.7590   34.6210   71.0320 C   0  0  0  0  0  3  0  0  0  0  0  0
   14.0090   33.3200   71.4770 C   0  0  0  0  0  3  0  0  0  0  0  0
   15.2930   32.8790   71.7180 C   0  0  0  0  0  3  0  0  0  0  0  0
  1  2  1  0  0  0  0
  2  4  1  0  0  0  0
  2  3  2  0  0  0  0
  4 10  1  0  0  0  0
  5  6  2  0  0  0  0
  5  4  1  0  0  0  0
  7  8  1  1  0  0  0
  7  5  1  0  0  0  0
  8  1  1  0  0  0  0
  9  8  2  0  0  0  0
 11 12  1  1  0  0  0
 11  7  1  0  0  0  0
 13 18  1  6  0  0  0
 13 12  1  0  0  0  0
 14 13  1  0  0  0  0
 14 16  1  0  0  0  0
 15 14  1  0  0  0  0
 15 11  1  0  0  0  0
 17 15  1  0  0  0  0
 19 18  1  0  0  0  0
 20 19  2  0  0  0  0
 21 22  2  0  0  0  0
 21 20  1  0  0  0  0
 22 23  1  0  0  0  0
 23 18  2  0  0  0  0
 24 20  1  0  0  0  0
 24 25  1  0  0  0  0
 26 21  1  0  0  0  0
 27 26  1  0  0  0  0
 28 34  1  0  0  0  0
 28  1  1  0  0  0  0
 29 28  2  0  0  0  0
 30 32  2  0  0  0  0
 30 29  1  0  0  0  0
 31 30  1  0  0  0  0
 32 33  1  0  0  0  0
 33 34  2  0  0  0  0
M  END
>  <Pose>
1

>  <Score>
-8.713

$$$$
