/Users/jonathanwahrer/Desktop/Msc/3_Semester/Drug_Design_Praktikum/waehrer_HTS_screening/HTS_experiment/out/docking_results/vina_output/4x21/1758_docked.pdbqt
 OpenBabel03212202393D

 28 32  0  0  1  0  0  0  0  0999 V2000
   17.0560   35.2510   70.6970 N   0  0  0  0  0  0  0  0  0  0  0  0
   16.4050   36.2730   70.1700 N   0  0  0  0  0  0  0  0  0  0  0  0
   17.2460   37.1630   69.6050 C   0  0  0  0  0  0  0  0  0  0  0  0
   16.9710   38.2890   68.9910 C   0  0  0  0  0  2  0  0  0  0  0  0
   18.5210   36.6670   69.7910 C   0  0  1  0  0  3  0  0  0  0  0  0
   18.3600   35.4800   70.4710 C   0  0  0  0  0  0  0  0  0  0  0  0
   19.2920   34.7170   70.8330 O   0  0  0  0  0  0  0  0  0  0  0  0
   15.3650   36.3970   70.1770 H   0  0  0  0  0  0  0  0  0  0  0  0
   19.6620   37.2410   69.3810 C   0  0  0  0  0  2  0  0  0  0  0  0
   20.1480   36.8420   68.1060 N   0  0  0  0  0  0  0  0  0  0  0  0
   19.5800   36.8530   67.2360 H   0  0  0  0  0  0  0  0  0  0  0  0
   21.5250   36.3890   67.9950 C   0  0  2  0  0  0  0  0  0  0  0  0
   22.1760   37.0030   66.7650 C   0  0  0  0  0  2  0  0  0  0  0  0
   23.5520   36.5920   66.7060 N   0  0  2  0  0  0  0  0  0  0  0  0
   23.5680   35.1370   66.6030 C   0  0  0  0  0  2  0  0  0  0  0  0
   24.2170   37.0360   67.9100 C   0  0  0  0  0  2  0  0  0  0  0  0
   23.0000   34.5190   67.7680 N   0  0  1  0  0  0  0  0  0  0  0  0
   23.6800   34.9660   68.9640 C   0  0  0  0  0  2  0  0  0  0  0  0
   21.6120   34.8990   67.8580 C   0  0  0  0  0  2  0  0  0  0  0  0
   23.6570   36.3980   69.0960 N   0  0  2  0  0  0  0  0  0  0  0  0
   22.2880   36.8390   69.2220 C   0  0  0  0  0  2  0  0  0  0  0  0
   16.4770   34.1200   71.3780 C   0  0  0  0  0  0  0  0  0  0  0  0
   16.9670   33.6150   72.5400 C   0  0  0  0  0  3  0  0  0  0  0  0
   16.3350   32.5150   73.1220 C   0  0  0  0  0  3  0  0  0  0  0  0
   15.2260   31.9270   72.5510 C   0  0  0  0  0  0  0  0  0  0  0  0
   14.2760   30.2680   73.4330 I   0  0  0  0  0  0  0  0  0  0  0  0
   14.7260   32.4360   71.3740 C   0  0  0  0  0  3  0  0  0  0  0  0
   15.3640   33.5220   70.8150 C   0  0  0  0  0  3  0  0  0  0  0  0
  1 22  1  0  0  0  0
  2  8  1  0  0  0  0
  2  1  1  0  0  0  0
  3  5  1  0  0  0  0
  3  2  1  0  0  0  0
  4  3  2  0  0  0  0
  5  9  1  6  0  0  0
  5  6  1  0  0  0  0
  6  1  1  0  0  0  0
  6  7  2  0  0  0  0
 10  9  1  0  0  0  0
 11 10  1  0  0  0  0
 12 10  1  1  0  0  0
 12 21  1  0  0  0  0
 13 12  1  0  0  0  0
 14 15  1  1  0  0  0
 14 13  1  0  0  0  0
 14 16  1  0  0  0  0
 17 15  1  6  0  0  0
 17 19  1  0  0  0  0
 17 18  1  0  0  0  0
 18 20  1  0  0  0  0
 19 12  1  0  0  0  0
 20 16  1  6  0  0  0
 20 21  1  0  0  0  0
 22 23  1  0  0  0  0
 23 24  2  0  0  0  0
 25 24  1  0  0  0  0
 25 26  1  0  0  0  0
 27 25  2  0  0  0  0
 28 27  1  0  0  0  0
 28 22  2  0  0  0  0
M  END
>  <Pose>
1

>  <Score>
-7.895

$$$$
