/Users/jonathanwahrer/Desktop/Msc/3_Semester/Drug_Design_Praktikum/waehrer_HTS_screening/HTS_experiment/out/docking_results/vina_output/4x21/1781_docked.pdbqt
 OpenBabel03212202393D

 24 27  0  0  0  0  0  0  0  0999 V2000
   17.4210   32.9910   71.4460 C   0  0  0  0  0  0  0  0  0  0  0  0
   17.1800   31.7800   71.0100 O   0  0  0  0  0  0  0  0  0  0  0  0
   18.5490   33.1080   72.2440 N   0  0  0  0  0  0  0  0  0  0  0  0
   19.1000   34.2220   72.9410 C   0  0  0  0  0  2  0  0  0  0  0  0
   20.2610   34.7120   72.0520 C   0  0  0  0  0  2  0  0  0  0  0  0
   20.9550   33.5120   71.5490 N   0  0  0  0  0  0  0  0  0  0  0  0
   20.8570   32.3090   72.3230 C   0  0  0  0  0  2  0  0  0  0  0  0
   19.4030   31.8810   72.3840 C   0  0  0  0  0  2  0  0  0  0  0  0
   16.4610   33.9640   71.0060 C   0  0  0  0  0  0  0  0  0  0  0  0
   15.1560   33.5600   70.7010 C   0  0  0  0  0  3  0  0  0  0  0  0
   14.1860   34.4160   70.2350 C   0  0  0  0  0  3  0  0  0  0  0  0
   14.4590   35.7480   70.0400 C   0  0  0  0  0  0  0  0  0  0  0  0
   13.2150   36.8540   69.4420 Cl  0  0  0  0  0  0  0  0  0  0  0  0
   15.7250   36.1900   70.3250 C   0  0  0  0  0  3  0  0  0  0  0  0
   16.7070   35.3030   70.8010 C   0  0  0  0  0  3  0  0  0  0  0  0
   21.6910   33.5890   70.3310 C   0  0  0  0  0  0  0  0  0  0  0  0
   22.9470   33.0970   70.2410 N   0  0  0  0  0  0  0  0  0  0  0  0
   23.6600   33.1530   69.1310 N   0  0  0  0  0  0  0  0  0  0  0  0
   23.1910   33.7030   68.0020 C   0  0  0  0  0  0  0  0  0  0  0  0
   24.9180   32.7290   68.8230 C   0  0  0  0  0  3  0  0  0  0  0  0
   24.1220   33.6270   67.0200 N   0  0  0  0  0  0  0  0  0  0  0  0
   21.9100   34.2290   68.0140 C   0  0  0  0  0  3  0  0  0  0  0  0
   25.1780   33.0260   67.5380 N   0  0  0  0  0  0  0  0  0  0  0  0
   21.1890   34.1590   69.1830 C   0  0  0  0  0  3  0  0  0  0  0  0
  1  3  1  0  0  0  0
  2  1  2  0  0  0  0
  3  8  1  0  0  0  0
  3  4  1  0  0  0  0
  5  4  1  0  0  0  0
  6  5  1  0  0  0  0
  6  7  1  0  0  0  0
  7  8  1  0  0  0  0
  9  1  1  0  0  0  0
 10  9  2  0  0  0  0
 11 10  1  0  0  0  0
 12 11  2  0  0  0  0
 12 14  1  0  0  0  0
 13 12  1  0  0  0  0
 14 15  2  0  0  0  0
 15  9  1  0  0  0  0
 16  6  1  0  0  0  0
 17 16  2  0  0  0  0
 18 17  1  0  0  0  0
 19 22  1  0  0  0  0
 19 18  1  0  0  0  0
 20 18  1  0  0  0  0
 21 23  1  0  0  0  0
 21 19  2  0  0  0  0
 22 24  2  0  0  0  0
 23 20  2  0  0  0  0
 24 16  1  0  0  0  0
M  END
>  <Pose>
1

>  <Score>
-8.497

$$$$
