/Users/jonathanwahrer/Desktop/Msc/3_Semester/Drug_Design_Praktikum/waehrer_HTS_screening/HTS_experiment/out/docking_results/vina_output/4x21/1788_docked.pdbqt
 OpenBabel03212202403D

 30 33  0  0  0  0  0  0  0  0999 V2000
   19.3190   35.3000   70.8540 N   0  0  0  0  0  0  0  0  0  0  0  0
   18.1580   35.5110   70.3430 N   0  0  0  0  0  0  0  0  0  0  0  0
   17.1550   34.9300   71.1030 C   0  0  0  0  0  0  0  0  0  0  0  0
   17.7610   34.3430   72.1180 N   0  0  0  0  0  0  0  0  0  0  0  0
   19.1070   34.5800   71.9580 C   0  0  0  0  0  0  0  0  0  0  0  0
   19.9740   34.1610   72.7550 O   0  0  0  0  0  0  0  0  0  0  0  0
   17.2150   33.5160   73.1470 C   0  0  0  0  0  2  0  0  0  0  0  0
   17.1880   32.0710   72.8510 C   0  0  0  0  0  0  0  0  0  0  0  0
   18.3740   31.5450   72.7620 O   0  0  0  0  0  0  0  0  0  0  0  0
   16.1380   31.2010   72.6580 N   0  0  0  0  0  0  0  0  0  0  0  0
   14.7440   31.5560   72.6650 C   0  0  0  0  0  2  0  0  0  0  0  0
   16.4210   29.7730   72.4320 C   0  0  0  0  0  2  0  0  0  0  0  0
   13.8340   30.3520   72.3620 C   0  0  0  0  0  2  0  0  0  0  0  0
   14.1650   29.2610   73.2840 N   0  0  0  0  0  0  0  0  0  0  0  0
   15.5850   29.0250   73.4010 C   0  0  0  0  0  0  0  0  0  0  0  0
   13.4640   28.7190   73.7970 H   0  0  0  0  0  0  0  0  0  0  0  0
   16.0250   28.2400   74.2720 O   0  0  0  0  0  0  0  0  0  0  0  0
   15.7600   35.0320   70.6780 C   0  0  0  0  0  0  0  0  0  0  0  0
   15.1500   33.8890   70.1460 C   0  0  0  0  0  3  0  0  0  0  0  0
   13.8730   33.8630   69.6550 C   0  0  0  0  0  3  0  0  0  0  0  0
   13.0920   35.0110   69.6620 C   0  0  0  0  0  3  0  0  0  0  0  0
   13.6780   36.1330   70.1770 C   0  0  0  0  0  3  0  0  0  0  0  0
   14.9840   36.1540   70.6770 C   0  0  0  0  0  3  0  0  0  0  0  0
   20.5570   35.7590   70.3210 C   0  0  0  0  0  0  0  0  0  0  0  0
   21.2900   34.9480   69.4770 C   0  0  0  0  0  3  0  0  0  0  0  0
   22.4960   35.3760   68.9490 C   0  0  0  0  0  3  0  0  0  0  0  0
   23.0260   36.6210   69.2330 C   0  0  0  0  0  0  0  0  0  0  0  0
   24.5540   37.1730   68.5730 Cl  0  0  0  0  0  0  0  0  0  0  0  0
   22.2890   37.4320   70.0810 C   0  0  0  0  0  3  0  0  0  0  0  0
   21.0760   37.0030   70.6120 C   0  0  0  0  0  3  0  0  0  0  0  0
  1  5  1  0  0  0  0
  2  1  1  0  0  0  0
  2  3  2  0  0  0  0
  3  4  1  0  0  0  0
  4  7  1  0  0  0  0
  5  4  1  0  0  0  0
  5  6  2  0  0  0  0
  8  7  1  0  0  0  0
  9  8  2  0  0  0  0
 10 11  1  0  0  0  0
 10  8  1  0  0  0  0
 12 10  1  0  0  0  0
 12 15  1  0  0  0  0
 13 11  1  0  0  0  0
 13 14  1  0  0  0  0
 14 15  1  0  0  0  0
 14 16  1  0  0  0  0
 15 17  2  0  0  0  0
 18  3  1  0  0  0  0
 19 18  2  0  0  0  0
 20 21  2  0  0  0  0
 20 19  1  0  0  0  0
 21 22  1  0  0  0  0
 22 23  2  0  0  0  0
 23 18  1  0  0  0  0
 24 30  1  0  0  0  0
 24  1  1  0  0  0  0
 25 24  2  0  0  0  0
 26 27  2  0  0  0  0
 26 25  1  0  0  0  0
 27 29  1  0  0  0  0
 28 27  1  0  0  0  0
 29 30  2  0  0  0  0
M  END
>  <Pose>
1

>  <Score>
-9.162

$$$$
