/Users/jonathanwahrer/Desktop/Msc/3_Semester/Drug_Design_Praktikum/waehrer_HTS_screening/HTS_experiment/out/docking_results/vina_output/4x21/1789_docked.pdbqt
 OpenBabel03212202403D

 29 32  0  0  0  0  0  0  0  0999 V2000
   17.6460   35.7600   70.5180 N   0  0  0  0  0  0  0  0  0  0  0  0
   17.4370   37.0490   70.3950 N   0  0  0  0  0  0  0  0  0  0  0  0
   18.5630   37.5750   69.9220 N   0  0  0  0  0  0  0  0  0  0  0  0
   19.4970   36.6220   69.7390 C   0  0  0  0  0  0  0  0  0  0  0  0
   18.9010   35.4870   70.1190 C   0  0  0  0  0  0  0  0  0  0  0  0
   19.8620   34.5020   69.9320 C   0  0  0  0  0  0  0  0  0  0  0  0
   19.6750   33.2900   70.1810 O   0  0  0  0  0  0  0  0  0  0  0  0
   21.0090   35.0070   69.4540 N   0  0  0  0  0  0  0  0  0  0  0  0
   20.7830   36.3280   69.3330 C   0  0  0  0  0  0  0  0  0  0  0  0
   21.6240   37.1760   68.9100 O   0  0  0  0  0  0  0  0  0  0  0  0
   16.5450   37.5790   70.6280 H   0  0  0  0  0  0  0  0  0  0  0  0
   18.6760   38.5980   69.7270 H   0  0  0  0  0  0  0  0  0  0  0  0
   22.2220   34.3340   69.1300 C   0  0  0  0  0  0  0  0  0  0  0  0
   22.6120   34.0720   67.8310 C   0  0  0  0  0  3  0  0  0  0  0  0
   23.7890   33.4200   67.5260 C   0  0  0  0  0  0  0  0  0  0  0  0
   24.6420   32.9930   68.5230 C   0  0  0  0  0  0  0  0  0  0  0  0
   24.2660   33.2470   69.8250 C   0  0  0  0  0  3  0  0  0  0  0  0
   23.0830   33.9020   70.1210 C   0  0  0  0  0  3  0  0  0  0  0  0
   24.1820   33.1560   66.2180 O   0  0  0  0  0  0  0  0  0  0  0  0
   24.8410   34.1930   65.5150 C   0  0  0  0  0  1  0  0  0  0  0  0
   25.8280   32.3360   68.2050 O   0  0  0  0  0  0  0  0  0  0  0  0
   27.0860   32.9330   68.2720 C   0  0  0  0  0  1  0  0  0  0  0  0
   16.7050   34.8200   70.9890 C   0  0  0  0  0  0  0  0  0  0  0  0
   16.9420   34.1230   72.1700 C   0  0  0  0  0  3  0  0  0  0  0  0
   15.9790   33.2200   72.5690 C   0  0  0  0  0  3  0  0  0  0  0  0
   14.8230   32.9740   71.8840 C   0  0  0  0  0  0  0  0  0  0  0  0
   13.6180   31.8080   72.4360 Cl  0  0  0  0  0  0  0  0  0  0  0  0
   14.5970   33.6670   70.7200 C   0  0  0  0  0  3  0  0  0  0  0  0
   15.5210   34.5730   70.2820 C   0  0  0  0  0  3  0  0  0  0  0  0
  1 23  1  0  0  0  0
  2  1  1  0  0  0  0
  2 11  1  0  0  0  0
  3  2  1  0  0  0  0
  4  3  1  0  0  0  0
  4  5  2  0  0  0  0
  5  1  1  0  0  0  0
  6  5  1  0  0  0  0
  6  7  2  0  0  0  0
  8  6  1  0  0  0  0
  9  8  1  0  0  0  0
  9  4  1  0  0  0  0
 10  9  2  0  0  0  0
 12  3  1  0  0  0  0
 13  8  1  0  0  0  0
 13 18  1  0  0  0  0
 14 13  2  0  0  0  0
 15 14  1  0  0  0  0
 15 16  2  0  0  0  0
 16 17  1  0  0  0  0
 17 18  2  0  0  0  0
 19 15  1  0  0  0  0
 20 19  1  0  0  0  0
 21 22  1  0  0  0  0
 21 16  1  0  0  0  0
 23 24  1  0  0  0  0
 24 25  2  0  0  0  0
 26 27  1  0  0  0  0
 26 25  1  0  0  0  0
 28 26  2  0  0  0  0
 29 28  1  0  0  0  0
 29 23  2  0  0  0  0
M  END
>  <Pose>
1

>  <Score>
-8.030

$$$$
