/Users/jonathanwahrer/Desktop/Msc/3_Semester/Drug_Design_Praktikum/waehrer_HTS_screening/HTS_experiment/out/docking_results/vina_output/4x21/1790_docked.pdbqt
 OpenBabel03212202403D

 29 32  0  0  0  0  0  0  0  0999 V2000
   18.8830   35.3570   70.8410 N   0  0  0  0  0  0  0  0  0  0  0  0
   19.3030   34.6970   71.9020 N   0  0  0  0  0  0  0  0  0  0  0  0
   20.6070   34.5210   71.7310 N   0  0  0  0  0  0  0  0  0  0  0  0
   21.0290   35.0590   70.5740 C   0  0  0  0  0  0  0  0  0  0  0  0
   19.9250   35.5870   70.0180 C   0  0  0  0  0  0  0  0  0  0  0  0
   20.3620   36.1400   68.8280 C   0  0  0  0  0  0  0  0  0  0  0  0
   19.5780   36.7330   68.0290 O   0  0  0  0  0  0  0  0  0  0  0  0
   21.6810   35.9650   68.6490 N   0  0  0  0  0  0  0  0  0  0  0  0
   22.0980   35.2930   69.7350 C   0  0  0  0  0  0  0  0  0  0  0  0
   23.2980   34.9380   69.9340 O   0  0  0  0  0  0  0  0  0  0  0  0
   18.7070   34.3840   72.7060 H   0  0  0  0  0  0  0  0  0  0  0  0
   21.2300   34.0270   72.4070 H   0  0  0  0  0  0  0  0  0  0  0  0
   22.4300   36.4210   67.5230 C   0  0  0  0  0  0  0  0  0  0  0  0
   23.1050   35.5540   66.6890 C   0  0  0  0  0  3  0  0  0  0  0  0
   23.8350   35.9710   65.5940 C   0  0  0  0  0  0  0  0  0  0  0  0
   23.8920   37.3210   65.3220 C   0  0  0  0  0  3  0  0  0  0  0  0
   23.2360   38.2340   66.1230 C   0  0  0  0  0  0  0  0  0  0  0  0
   22.5140   37.7650   67.2160 C   0  0  0  0  0  3  0  0  0  0  0  0
   24.5070   35.0450   64.7730 O   0  0  0  0  0  0  0  0  0  0  0  0
   25.8580   34.7480   65.0410 C   0  0  0  0  0  1  0  0  0  0  0  0
   23.3170   39.5860   65.8170 O   0  0  0  0  0  0  0  0  0  0  0  0
   22.1780   40.3980   65.7350 C   0  0  0  0  0  1  0  0  0  0  0  0
   17.5490   35.7650   70.5930 C   0  0  0  0  0  0  0  0  0  0  0  0
   17.2120   37.0830   70.3280 C   0  0  0  0  0  3  0  0  0  0  0  0
   15.9110   37.4420   70.0920 C   0  0  0  0  0  3  0  0  0  0  0  0
   14.8860   36.5180   70.1080 C   0  0  0  0  0  0  0  0  0  0  0  0
   13.2240   37.0380   69.7980 Cl  0  0  0  0  0  0  0  0  0  0  0  0
   15.1960   35.2090   70.3690 C   0  0  0  0  0  3  0  0  0  0  0  0
   16.5070   34.8520   70.6060 C   0  0  0  0  0  3  0  0  0  0  0  0
  1  2  1  0  0  0  0
  2 11  1  0  0  0  0
  3  2  1  0  0  0  0
  3 12  1  0  0  0  0
  4  3  1  0  0  0  0
  5  4  2  0  0  0  0
  5  1  1  0  0  0  0
  6  5  1  0  0  0  0
  7  6  2  0  0  0  0
  8  6  1  0  0  0  0
  8  9  1  0  0  0  0
  9 10  2  0  0  0  0
  9  4  1  0  0  0  0
 13  8  1  0  0  0  0
 14 13  2  0  0  0  0
 15 14  1  0  0  0  0
 16 15  2  0  0  0  0
 16 17  1  0  0  0  0
 17 18  2  0  0  0  0
 18 13  1  0  0  0  0
 19 20  1  0  0  0  0
 19 15  1  0  0  0  0
 21 17  1  0  0  0  0
 22 21  1  0  0  0  0
 23 29  1  0  0  0  0
 23  1  1  0  0  0  0
 24 23  2  0  0  0  0
 25 26  2  0  0  0  0
 25 24  1  0  0  0  0
 26 28  1  0  0  0  0
 27 26  1  0  0  0  0
 28 29  2  0  0  0  0
M  END
>  <Pose>
1

>  <Score>
-8.259

$$$$
