/Users/jonathanwahrer/Desktop/Msc/3_Semester/Drug_Design_Praktikum/waehrer_HTS_screening/HTS_experiment/out/docking_results/vina_output/4x21/1801_docked.pdbqt
 OpenBabel03212202403D

 26 29  0  0  0  0  0  0  0  0999 V2000
   15.8490   29.3530   72.2360 Cl  0  0  0  0  0  0  0  0  0  0  0  0
   15.3820   30.9520   71.6580 C   0  0  0  0  0  0  0  0  0  0  0  0
   16.3310   31.9480   71.5130 C   0  0  0  0  0  3  0  0  0  0  0  0
   15.9820   33.1920   71.0660 C   0  0  0  0  0  0  0  0  0  0  0  0
   14.6550   33.4000   70.7710 C   0  0  0  0  0  0  0  0  0  0  0  0
   13.6960   32.4310   70.9050 C   0  0  0  0  0  3  0  0  0  0  0  0
   14.0630   31.1750   71.3590 C   0  0  0  0  0  3  0  0  0  0  0  0
   14.2410   34.7310   70.2860 C   0  0  0  0  0  0  0  0  0  0  0  0
   13.1050   35.2230   69.9360 N   0  0  0  0  0  0  0  0  0  0  0  0
   13.2100   36.5940   69.5280 C   0  0  0  0  0  3  0  0  0  0  0  0
   14.6580   36.9270   69.6760 C   0  0  0  0  0  3  0  0  0  0  0  0
   15.2610   35.7070   70.1590 N   0  0  0  0  0  0  0  0  0  0  0  0
   16.6330   35.4370   70.4810 C   0  0  0  0  0  0  0  0  0  0  0  0
   17.7420   36.1890   70.4410 N   0  0  0  0  0  0  0  0  0  0  0  0
   18.7850   35.4830   70.8410 N   0  0  0  0  0  0  0  0  0  0  0  0
   18.3040   34.2640   71.1370 C   0  0  0  0  0  0  0  0  0  0  0  0
   19.0110   33.3140   71.5540 O   0  0  0  0  0  0  0  0  0  0  0  0
   16.9620   34.2090   70.9210 N   0  0  0  0  0  0  0  0  0  0  0  0
   20.1760   35.9120   70.9500 C   0  0  0  0  0  2  0  0  0  0  0  0
   20.5160   36.7400   69.7690 C   0  0  0  0  0  0  0  0  0  0  0  0
   21.2610   37.7480   69.9290 O   0  0  0  0  0  0  0  0  0  0  0  0
   20.0400   36.4500   68.4640 N   0  0  0  0  0  0  0  0  0  0  0  0
   19.4280   35.6170   68.3510 H   0  0  0  0  0  0  0  0  0  0  0  0
   20.3990   37.2890   67.3430 C   0  0  0  0  0  3  0  0  0  0  0  0
   20.9710   36.4440   66.2010 C   0  0  0  0  0  1  0  0  0  0  0  0
   19.1010   37.8810   66.8090 C   0  0  0  0  0  1  0  0  0  0  0  0
  2  1  1  0  0  0  0
  3  2  1  0  0  0  0
  4  3  2  0  0  0  0
  5  6  2  0  0  0  0
  5  4  1  0  0  0  0
  6  7  1  0  0  0  0
  7  2  2  0  0  0  0
  8  5  1  0  0  0  0
  9  8  2  0  0  0  0
 10 11  2  0  0  0  0
 10  9  1  0  0  0  0
 11 12  1  0  0  0  0
 12  8  1  0  0  0  0
 12 13  1  0  0  0  0
 13 18  1  0  0  0  0
 14 13  2  0  0  0  0
 14 15  1  0  0  0  0
 15 19  1  0  0  0  0
 15 16  1  0  0  0  0
 16 17  2  0  0  0  0
 18  4  1  0  0  0  0
 18 16  1  0  0  0  0
 20 21  2  0  0  0  0
 20 19  1  0  0  0  0
 22 20  1  0  0  0  0
 23 22  1  0  0  0  0
 24 22  1  0  0  0  0
 25 24  1  0  0  0  0
 26 24  1  0  0  0  0
M  END
>  <Pose>
1

>  <Score>
-8.515

$$$$
