/Users/jonathanwahrer/Desktop/Msc/3_Semester/Drug_Design_Praktikum/waehrer_HTS_screening/HTS_experiment/out/docking_results/vina_output/4x21/1802_docked.pdbqt
 OpenBabel03212202403D

 27 30  0  0  0  0  0  0  0  0999 V2000
   13.6920   36.9800   69.6120 Cl  0  0  0  0  0  0  0  0  0  0  0  0
   14.8510   35.9040   70.3990 C   0  0  0  0  0  0  0  0  0  0  0  0
   16.2120   36.1860   70.2620 C   0  0  0  0  0  3  0  0  0  0  0  0
   17.1710   35.3920   70.8570 C   0  0  0  0  0  0  0  0  0  0  0  0
   16.7150   34.3130   71.5880 C   0  0  0  0  0  0  0  0  0  0  0  0
   15.4050   34.0040   71.7460 C   0  0  0  0  0  3  0  0  0  0  0  0
   14.4370   34.8180   71.1370 C   0  0  0  0  0  3  0  0  0  0  0  0
   17.7610   33.4730   72.2250 C   0  0  0  0  0  0  0  0  0  0  0  0
   17.6740   32.4080   72.9630 N   0  0  0  0  0  0  0  0  0  0  0  0
   18.9890   31.9490   73.3480 C   0  0  0  0  0  3  0  0  0  0  0  0
   19.9820   32.9110   72.7440 C   0  0  0  0  0  3  0  0  0  0  0  0
   19.1050   33.8320   72.0380 N   0  0  0  0  0  0  0  0  0  0  0  0
   19.4960   34.9650   71.2650 C   0  0  0  0  0  0  0  0  0  0  0  0
   20.7070   35.4820   70.9710 N   0  0  0  0  0  0  0  0  0  0  0  0
   20.5450   36.5660   70.2160 N   0  0  0  0  0  0  0  0  0  0  0  0
   19.2300   36.6950   70.0610 C   0  0  0  0  0  0  0  0  0  0  0  0
   18.6650   37.6120   69.4030 O   0  0  0  0  0  0  0  0  0  0  0  0
   18.5460   35.7080   70.7040 N   0  0  0  0  0  0  0  0  0  0  0  0
   21.6070   37.4300   69.6920 C   0  0  0  0  0  2  0  0  0  0  0  0
   21.7150   36.9740   68.2040 C   0  0  0  0  0  0  0  0  0  0  0  0
   21.6200   38.0170   67.4660 O   0  0  0  0  0  0  0  0  0  0  0  0
   21.8700   35.6800   67.8930 N   0  0  0  0  0  0  0  0  0  0  0  0
   21.9870   36.0070   66.5810 H   0  0  0  0  0  0  0  0  0  0  0  0
   22.0300   34.3500   67.5730 C   0  0  0  0  0  2  0  0  0  0  0  0
   23.3180   33.7560   68.1550 C   0  0  0  0  0  2  0  0  0  0  0  0
   24.0030   33.0210   67.2170 O   0  0  0  0  0  0  0  0  0  0  0  0
   24.4810   33.7280   66.1510 C   0  0  0  0  0  1  0  0  0  0  0  0
  1  2  1  0  0  0  0
  2  7  1  0  0  0  0
  3  2  2  0  0  0  0
  3  4  1  0  0  0  0
  4  5  2  0  0  0  0
  5  6  1  0  0  0  0
  5  8  1  0  0  0  0
  7  6  2  0  0  0  0
  8  9  2  0  0  0  0
  9 10  1  0  0  0  0
 11 10  2  0  0  0  0
 12  8  1  0  0  0  0
 12 11  1  0  0  0  0
 13 12  1  0  0  0  0
 14 13  2  0  0  0  0
 15 14  1  0  0  0  0
 16 15  1  0  0  0  0
 16 18  1  0  0  0  0
 17 16  2  0  0  0  0
 18  4  1  0  0  0  0
 18 13  1  0  0  0  0
 19 15  1  0  0  0  0
 20 19  1  0  0  0  0
 21 20  2  0  0  0  0
 22 20  1  0  0  0  0
 23 22  1  0  0  0  0
 24 22  1  0  0  0  0
 24 25  1  0  0  0  0
 26 25  1  0  0  0  0
 27 26  1  0  0  0  0
M  END
>  <Pose>
1

>  <Score>
-8.061

$$$$
