/Users/jonathanwahrer/Desktop/Msc/3_Semester/Drug_Design_Praktikum/waehrer_HTS_screening/HTS_experiment/out/docking_results/vina_output/4x21/1804_docked.pdbqt
 OpenBabel03212202403D

 26 30  0  0  0  0  0  0  0  0999 V2000
   12.9520   36.8440   69.5140 Cl  0  0  0  0  0  0  0  0  0  0  0  0
   13.6870   35.3580   70.0750 C   0  0  0  0  0  0  0  0  0  0  0  0
   15.0460   35.2300   70.3080 C   0  0  0  0  0  3  0  0  0  0  0  0
   15.6110   34.0570   70.7500 C   0  0  0  0  0  0  0  0  0  0  0  0
   14.7570   33.0000   70.9540 C   0  0  0  0  0  0  0  0  0  0  0  0
   13.4010   33.0700   70.7390 C   0  0  0  0  0  3  0  0  0  0  0  0
   12.8580   34.2770   70.2900 C   0  0  0  0  0  3  0  0  0  0  0  0
   15.3280   31.7240   71.4270 C   0  0  0  0  0  0  0  0  0  0  0  0
   14.7810   30.5960   71.6970 N   0  0  0  0  0  0  0  0  0  0  0  0
   15.7420   29.6190   72.1350 C   0  0  0  0  0  3  0  0  0  0  0  0
   17.0500   30.3430   72.0990 C   0  0  0  0  0  3  0  0  0  0  0  0
   16.7230   31.6690   71.6430 N   0  0  0  0  0  0  0  0  0  0  0  0
   17.5710   32.8120   71.4130 C   0  0  0  0  0  0  0  0  0  0  0  0
   18.8990   32.9940   71.5450 N   0  0  0  0  0  0  0  0  0  0  0  0
   19.2070   34.2350   71.2080 N   0  0  0  0  0  0  0  0  0  0  0  0
   18.0440   34.8130   70.8640 C   0  0  0  0  0  0  0  0  0  0  0  0
   17.9650   36.0160   70.4820 O   0  0  0  0  0  0  0  0  0  0  0  0
   17.0100   33.9530   70.9810 N   0  0  0  0  0  0  0  0  0  0  0  0
   20.5370   34.8610   71.2040 C   0  0  0  0  0  2  0  0  0  0  0  0
   21.2200   34.4870   69.9370 C   0  0  0  0  0  0  0  0  0  0  0  0
   21.7430   33.3440   69.8950 O   0  0  0  0  0  0  0  0  0  0  0  0
   21.2840   35.3700   68.8260 N   0  0  0  0  0  0  0  0  0  0  0  0
   21.9360   35.0620   67.5680 C   0  0  0  0  0  2  0  0  0  0  0  0
   20.7270   36.6990   68.7420 C   0  0  0  0  0  2  0  0  0  0  0  0
   21.9310   36.3350   66.7640 C   0  0  0  0  0  2  0  0  0  0  0  0
   21.7610   37.3850   67.8420 C   0  0  0  0  0  2  0  0  0  0  0  0
  1  2  1  0  0  0  0
  2  7  2  0  0  0  0
  2  3  1  0  0  0  0
  3  4  2  0  0  0  0
  4  5  1  0  0  0  0
  4 18  1  0  0  0  0
  5  8  1  0  0  0  0
  6  5  2  0  0  0  0
  7  6  1  0  0  0  0
  8 12  1  0  0  0  0
  8  9  2  0  0  0  0
  9 10  1  0  0  0  0
 11 10  2  0  0  0  0
 12 11  1  0  0  0  0
 13 14  2  0  0  0  0
 13 12  1  0  0  0  0
 15 14  1  0  0  0  0
 16 18  1  0  0  0  0
 16 15  1  0  0  0  0
 17 16  2  0  0  0  0
 18 13  1  0  0  0  0
 19 15  1  0  0  0  0
 20 19  1  0  0  0  0
 21 20  2  0  0  0  0
 22 20  1  0  0  0  0
 23 22  1  0  0  0  0
 24 22  1  0  0  0  0
 25 23  1  0  0  0  0
 25 26  1  0  0  0  0
 26 24  1  0  0  0  0
M  END
>  <Pose>
1

>  <Score>
-8.968

$$$$
