/Users/jonathanwahrer/Desktop/Msc/3_Semester/Drug_Design_Praktikum/waehrer_HTS_screening/HTS_experiment/out/docking_results/vina_output/4x21/1808_docked.pdbqt
 OpenBabel03212202413D

 24 28  0  0  1  0  0  0  0  0999 V2000
   19.6640   36.5090   70.0690 N   0  0  0  0  0  0  0  0  0  0  0  0
   20.0240   37.2240   68.8970 C   0  0  0  0  0  0  0  0  0  0  0  0
   19.2030   37.7980   68.1420 O   0  0  0  0  0  0  0  0  0  0  0  0
   21.5020   37.1730   68.7310 C   0  0  2  0  0  3  0  0  0  0  0  0
   21.9320   36.0550   67.8330 C   0  0  1  0  0  0  0  0  0  0  0  0
   23.1870   35.7400   68.4000 O   0  0  0  0  0  0  0  0  0  0  0  0
   22.7100   35.4090   69.6930 C   0  0  1  0  0  3  0  0  0  0  0  0
   22.0250   36.6740   70.0790 C   0  0  2  0  0  3  0  0  0  0  0  0
   20.8180   36.3790   70.8980 C   0  0  0  0  0  0  0  0  0  0  0  0
   20.8370   36.0750   72.0940 O   0  0  0  0  0  0  0  0  0  0  0  0
   21.6770   34.4070   69.3210 C   0  0  0  0  0  2  0  0  0  0  0  0
   21.1530   34.8580   68.1850 C   0  0  0  0  0  2  0  0  0  0  0  0
   18.3360   36.0270   70.3080 C   0  0  0  0  0  0  0  0  0  0  0  0
   17.2390   36.8540   70.2100 C   0  0  0  0  0  3  0  0  0  0  0  0
   15.9570   36.4040   70.4390 C   0  0  0  0  0  3  0  0  0  0  0  0
   15.7810   35.0840   70.7770 C   0  0  0  0  0  0  0  0  0  0  0  0
   14.0320   34.4270   71.1020 Br  0  0  0  0  0  0  0  0  0  0  0  0
   16.8590   34.2410   70.8820 C   0  0  0  0  0  3  0  0  0  0  0  0
   18.1600   34.6930   70.6500 C   0  0  0  0  0  3  0  0  0  0  0  0
   22.0160   36.3850   66.4040 C   0  0  0  0  0  3  0  0  0  0  0  0
   23.0750   35.8060   65.7600 O   0  0  0  0  0  0  0  0  0  0  0  0
   23.9760   36.7860   65.4260 C   0  0  0  0  0  2  0  0  0  0  0  0
   23.3980   38.0750   65.9080 C   0  0  0  0  0  2  0  0  0  0  0  0
   22.0760   37.7500   66.1930 O   0  0  0  0  0  0  0  0  0  0  0  0
  1 13  1  0  0  0  0
  1  9  1  0  0  0  0
  2  1  1  0  0  0  0
  3  2  2  0  0  0  0
  4  2  1  1  0  0  0
  4  8  1  0  0  0  0
  5 20  1  6  0  0  0
  5 12  1  0  0  0  0
  5  6  1  0  0  0  0
  5  4  1  0  0  0  0
  6  7  1  0  0  0  0
  7 11  1  6  0  0  0
  7  8  1  0  0  0  0
  8  9  1  1  0  0  0
  9 10  2  0  0  0  0
 12 11  1  0  0  0  0
 13 19  1  0  0  0  0
 14 13  2  0  0  0  0
 14 15  1  0  0  0  0
 15 16  2  0  0  0  0
 16 18  1  0  0  0  0
 16 17  1  0  0  0  0
 19 18  2  0  0  0  0
 21 20  1  0  0  0  0
 22 21  1  0  0  0  0
 22 23  1  0  0  0  0
 23 24  1  0  0  0  0
 24 20  1  0  0  0  0
M  END
>  <Pose>
1

>  <Score>
-8.409

$$$$
