/Users/jonathanwahrer/Desktop/Msc/3_Semester/Drug_Design_Praktikum/waehrer_HTS_screening/HTS_experiment/out/docking_results/vina_output/4x21/1816_docked.pdbqt
 OpenBabel03212202413D

 36 39  0  0  0  0  0  0  0  0999 V2000
   21.2240   36.3890   68.2510 C   0  0  0  0  0  0  0  0  0  0  0  0
   20.4300   35.7890   67.4470 O   0  0  0  0  0  0  0  0  0  0  0  0
   22.5830   36.2060   68.0660 N   0  0  0  0  0  0  0  0  0  0  0  0
   23.1330   35.3870   67.0320 C   0  0  0  0  0  2  0  0  0  0  0  0
   23.9640   34.2870   67.6960 C   0  0  0  0  0  2  0  0  0  0  0  0
   24.9400   34.8800   68.5470 N   0  0  0  0  0  0  0  0  0  0  0  0
   24.9300   36.3550   68.6370 C   0  0  0  0  0  2  0  0  0  0  0  0
   23.5350   36.8570   68.9370 C   0  0  0  0  0  2  0  0  0  0  0  0
   25.9010   34.1810   69.3080 C   0  0  0  0  0  0  0  0  0  0  0  0
   26.7010   34.9790   70.0080 O   0  0  0  0  0  0  0  0  0  0  0  0
   20.6100   37.2310   69.3150 C   0  0  0  0  0  2  0  0  0  0  0  0
   19.3630   36.6230   69.8320 C   0  0  0  0  0  0  0  0  0  0  0  0
   19.4250   35.6050   70.7810 C   0  0  0  0  0  0  0  0  0  0  0  0
   18.3540   35.0320   71.2750 O   0  0  0  0  0  0  0  0  0  0  0  0
   20.5920   35.2490   71.1560 O   0  0  0  0  0  0  0  0  0  0  0  0
   17.1390   35.3680   70.9160 C   0  0  0  0  0  0  0  0  0  0  0  0
   16.9650   36.3650   69.9840 C   0  0  0  0  0  0  0  0  0  0  0  0
   16.0130   34.7360   71.4620 C   0  0  0  0  0  3  0  0  0  0  0  0
   15.6850   36.7070   69.6190 C   0  0  0  0  0  3  0  0  0  0  0  0
   18.0940   36.9900   69.4460 C   0  0  0  0  0  0  0  0  0  0  0  0
   14.5700   36.0770   70.1620 C   0  0  0  0  0  0  0  0  0  0  0  0
   12.9400   36.5080   69.6980 Cl  0  0  0  0  0  0  0  0  0  0  0  0
   14.7320   35.0780   71.0950 C   0  0  0  0  0  0  0  0  0  0  0  0
   17.8990   38.0480   68.4600 C   0  0  0  0  0  1  0  0  0  0  0  0
   13.6070   34.4380   71.6480 O   0  0  0  0  0  0  0  0  0  0  0  0
   13.2640   33.1160   71.3120 C   0  0  0  0  0  1  0  0  0  0  0  0
   26.1690   32.7830   69.4600 C   0  0  0  0  0  0  0  0  0  0  0  0
   26.2540   32.2290   70.7620 C   0  0  0  0  0  3  0  0  0  0  0  0
   26.5130   30.8980   70.9510 C   0  0  0  0  0  0  0  0  0  0  0  0
   26.5840   30.4320   72.1180 O   0  0  0  0  0  0  0  0  0  0  0  0
   26.7020   30.0470   69.9330 N   0  0  0  0  0  0  0  0  0  0  0  0
   26.6220   30.5670   68.7080 C   0  0  0  0  0  0  0  0  0  0  0  0
   26.9770   28.6460   70.1530 C   0  0  0  0  0  1  0  0  0  0  0  0
   26.7940   29.7990   67.7060 O   0  0  0  0  0  0  0  0  0  0  0  0
   26.3620   31.9030   68.4840 N   0  0  0  0  0  0  0  0  0  0  0  0
   26.3160   32.2070   67.4910 H   0  0  0  0  0  0  0  0  0  0  0  0
  1 11  1  0  0  0  0
  2  1  2  0  0  0  0
  3  1  1  0  0  0  0
  3  8  1  0  0  0  0
  4  5  1  0  0  0  0
  4  3  1  0  0  0  0
  5  6  1  0  0  0  0
  6  7  1  0  0  0  0
  6  9  1  0  0  0  0
  7  8  1  0  0  0  0
  9 27  1  0  0  0  0
  9 10  2  0  0  0  0
 11 12  1  0  0  0  0
 12 13  1  0  0  0  0
 13 15  2  0  0  0  0
 13 14  1  0  0  0  0
 16 14  1  0  0  0  0
 16 18  1  0  0  0  0
 17 16  2  0  0  0  0
 19 17  1  0  0  0  0
 19 21  2  0  0  0  0
 20 12  2  0  0  0  0
 20 17  1  0  0  0  0
 21 23  1  0  0  0  0
 22 21  1  0  0  0  0
 23 18  2  0  0  0  0
 23 25  1  0  0  0  0
 24 20  1  0  0  0  0
 26 25  1  0  0  0  0
 27 28  2  0  0  0  0
 28 29  1  0  0  0  0
 29 30  2  0  0  0  0
 31 33  1  0  0  0  0
 31 29  1  0  0  0  0
 32 31  1  0  0  0  0
 34 32  2  0  0  0  0
 35 32  1  0  0  0  0
 35 27  1  0  0  0  0
 36 35  1  0  0  0  0
M  END
>  <Pose>
1

>  <Score>
-9.849

$$$$
