/Users/jonathanwahrer/Desktop/Msc/3_Semester/Drug_Design_Praktikum/waehrer_HTS_screening/HTS_experiment/out/docking_results/vina_output/4x21/1825_docked.pdbqt
 OpenBabel03212202423D

 29 32  0  0  1  0  0  0  0  0999 V2000
   16.4240   36.3020   70.2940 N   0  0  0  0  0  0  0  0  0  0  0  0
   15.0900   36.1330   70.0540 C   0  0  1  0  0  3  0  0  0  0  0  0
   14.7580   34.8530   70.2900 N   0  0  0  0  0  0  0  0  0  0  0  0
   15.8330   34.1590   70.6850 C   0  0  0  0  0  0  0  0  0  0  0  0
   16.8700   35.1040   70.6770 C   0  0  0  0  0  3  0  0  0  0  0  0
   13.3310   34.6820   70.0210 C   0  0  0  0  0  2  0  0  0  0  0  0
   12.9310   35.9010   69.2120 C   0  0  0  0  0  2  0  0  0  0  0  0
   13.9130   36.9350   69.6320 C   0  0  0  0  0  2  0  0  0  0  0  0
   17.1550   37.5660   70.1220 C   0  0  0  0  0  2  0  0  0  0  0  0
   18.1770   37.3790   69.0210 C   0  0  0  0  0  0  0  0  0  0  0  0
   19.4620   36.9330   69.2880 N   0  0  0  0  0  0  0  0  0  0  0  0
   19.6860   36.7220   70.3080 H   0  0  0  0  0  0  0  0  0  0  0  0
   17.7770   37.6570   67.8850 O   0  0  0  0  0  0  0  0  0  0  0  0
   20.4880   36.7370   68.3440 C   0  0  0  0  0  0  0  0  0  0  0  0
   21.1670   35.4980   68.3440 C   0  0  0  0  0  0  0  0  0  0  0  0
   22.1830   35.2400   67.4520 C   0  0  0  0  0  0  0  0  0  0  0  0
   20.7850   34.4590   69.3160 C   0  0  0  0  0  1  0  0  0  0  0  0
   23.0300   33.7080   67.4370 Cl  0  0  0  0  0  0  0  0  0  0  0  0
   22.5840   36.1730   66.5250 C   0  0  0  0  0  3  0  0  0  0  0  0
   21.9450   37.3860   66.5010 C   0  0  0  0  0  3  0  0  0  0  0  0
   20.9040   37.6460   67.4160 C   0  0  0  0  0  3  0  0  0  0  0  0
   16.0190   32.7640   71.0520 C   0  0  0  0  0  0  0  0  0  0  0  0
   14.9780   31.9430   71.3860 C   0  0  0  0  0  3  0  0  0  0  0  0
   15.1370   30.6100   71.7180 C   0  0  0  0  0  3  0  0  0  0  0  0
   16.3950   30.0280   71.7300 C   0  0  0  0  0  0  0  0  0  0  0  0
   17.4420   30.8520   71.3930 C   0  0  0  0  0  3  0  0  0  0  0  0
   17.2830   32.1830   71.0610 C   0  0  0  0  0  3  0  0  0  0  0  0
   16.5930   28.6970   72.0570 O   0  0  0  0  0  0  0  0  0  0  0  0
   16.1240   28.1260   73.2650 C   0  0  0  0  0  1  0  0  0  0  0  0
  1  5  1  0  0  0  0
  2  8  1  1  0  0  0
  2  3  1  0  0  0  0
  2  1  1  0  0  0  0
  3  4  1  0  0  0  0
  4 22  1  0  0  0  0
  5  4  2  0  0  0  0
  6  3  1  0  0  0  0
  7  8  1  0  0  0  0
  7  6  1  0  0  0  0
  9  1  1  0  0  0  0
 10 11  1  0  0  0  0
 10  9  1  0  0  0  0
 11 12  1  0  0  0  0
 13 10  2  0  0  0  0
 14 15  1  0  0  0  0
 14 11  1  0  0  0  0
 15 17  1  0  0  0  0
 16 15  2  0  0  0  0
 18 16  1  0  0  0  0
 19 16  1  0  0  0  0
 20 19  2  0  0  0  0
 20 21  1  0  0  0  0
 21 14  2  0  0  0  0
 22 27  2  0  0  0  0
 22 23  1  0  0  0  0
 23 24  2  0  0  0  0
 24 25  1  0  0  0  0
 25 28  1  0  0  0  0
 26 25  2  0  0  0  0
 27 26  1  0  0  0  0
 28 29  1  0  0  0  0
M  END
>  <Pose>
1

>  <Score>
-9.144

$$$$
