/Users/jonathanwahrer/Desktop/Msc/3_Semester/Drug_Design_Praktikum/waehrer_HTS_screening/HTS_experiment/out/docking_results/vina_output/4x21/1835_docked.pdbqt
 OpenBabel03212202423D

 36 39  0  0  1  0  0  0  0  0999 V2000
   20.2920   36.6780   69.4820 C   0  0  0  0  0  0  0  0  0  0  0  0
   21.2860   35.7760   69.4690 N   0  0  0  0  0  0  0  0  0  0  0  0
   22.1210   36.1590   68.4880 C   0  0  0  0  0  0  0  0  0  0  0  0
   23.2820   35.6450   68.0120 N   0  0  0  0  0  0  0  0  0  0  0  0
   23.9500   36.2230   66.9950 C   0  0  0  0  0  3  0  0  0  0  0  0
   23.4680   37.3460   66.4200 N   0  0  0  0  0  0  0  0  0  0  0  0
   22.3220   37.9160   66.8360 C   0  0  0  0  0  0  0  0  0  0  0  0
   21.6550   37.3050   67.8790 C   0  0  0  0  0  0  0  0  0  0  0  0
   20.5040   37.6100   68.5230 N   0  0  0  0  0  0  0  0  0  0  0  0
   19.1790   36.6690   70.3640 N   0  0  0  0  0  0  0  0  0  0  0  0
   19.2690   36.9960   71.3550 H   0  0  0  0  0  0  0  0  0  0  0  0
   17.9160   36.2240   69.9670 N   0  0  0  0  0  0  0  0  0  0  0  0
   17.1440   35.7030   70.8480 C   0  0  0  0  0  3  0  0  0  0  0  0
   15.8030   35.2110   70.5190 C   0  0  0  0  0  0  0  0  0  0  0  0
   15.5630   33.8690   70.3140 C   0  0  0  0  0  0  0  0  0  0  0  0
   16.9060   32.7600   70.4570 Cl  0  0  0  0  0  0  0  0  0  0  0  0
   14.2770   33.4230   70.0020 C   0  0  0  0  0  3  0  0  0  0  0  0
   13.2150   34.2940   69.8870 C   0  0  0  0  0  3  0  0  0  0  0  0
   13.4640   35.6350   70.0950 C   0  0  0  0  0  3  0  0  0  0  0  0
   14.7410   36.0810   70.4040 C   0  0  0  0  0  0  0  0  0  0  0  0
   15.0420   37.7960   70.6650 Cl  0  0  0  0  0  0  0  0  0  0  0  0
   21.4960   34.6190   70.2880 C   0  0  1  0  0  3  0  0  0  0  0  0
   20.6520   34.5840   71.3960 O   0  0  0  0  0  0  0  0  0  0  0  0
   20.8050   33.2630   71.8160 C   0  0  2  0  0  3  0  0  0  0  0  0
   20.4660   32.5130   70.5370 C   0  0  1  0  0  3  0  0  0  0  0  0
   21.2190   33.3410   69.5160 C   0  0  2  0  0  3  0  0  0  0  0  0
   19.8740   32.9010   72.9420 C   0  0  0  0  0  2  0  0  0  0  0  0
   19.2390   31.6990   72.7500 O   0  0  0  0  0  0  0  0  0  0  0  0
   19.5330   31.0180   73.3940 H   0  0  0  0  0  0  0  0  0  0  0  0
   20.9150   31.2000   70.5730 O   0  0  0  0  0  0  0  0  0  0  0  0
   20.6780   30.7810   69.7030 H   0  0  0  0  0  0  0  0  0  0  0  0
   22.4010   32.6550   69.2260 O   0  0  0  0  0  0  0  0  0  0  0  0
   22.3500   32.1760   68.3740 H   0  0  0  0  0  0  0  0  0  0  0  0
   21.8430   39.0910   66.2120 N   0  0  0  0  0  0  0  0  0  0  0  0
   22.2380   40.0230   66.4260 H   0  0  0  0  0  0  0  0  0  0  0  0
   21.0730   39.0170   65.5240 H   0  0  0  0  0  0  0  0  0  0  0  0
  1 10  1  0  0  0  0
  2  1  1  0  0  0  0
  3  2  1  0  0  0  0
  4  3  1  0  0  0  0
  5  4  2  0  0  0  0
  6  7  2  0  0  0  0
  6  5  1  0  0  0  0
  7  8  1  0  0  0  0
  8  3  2  0  0  0  0
  8  9  1  0  0  0  0
  9  1  2  0  0  0  0
 10 11  1  0  0  0  0
 12 10  1  0  0  0  0
 12 13  2  0  0  0  0
 14 13  1  0  0  0  0
 15 16  1  0  0  0  0
 15 14  2  0  0  0  0
 17 15  1  0  0  0  0
 18 17  2  0  0  0  0
 18 19  1  0  0  0  0
 19 20  2  0  0  0  0
 20 14  1  0  0  0  0
 20 21  1  0  0  0  0
 22  2  1  6  0  0  0
 22 23  1  0  0  0  0
 23 24  1  0  0  0  0
 24 27  1  1  0  0  0
 25 30  1  1  0  0  0
 25 24  1  0  0  0  0
 26 32  1  1  0  0  0
 26 22  1  0  0  0  0
 26 25  1  0  0  0  0
 28 27  1  0  0  0  0
 28 29  1  0  0  0  0
 31 30  1  0  0  0  0
 33 32  1  0  0  0  0
 34 35  1  0  0  0  0
 34  7  1  0  0  0  0
 36 34  1  0  0  0  0
M  END
>  <Pose>
1

>  <Score>
-8.016

$$$$
