/Users/jonathanwahrer/Desktop/Msc/3_Semester/Drug_Design_Praktikum/waehrer_HTS_screening/HTS_experiment/out/docking_results/vina_output/4x21/1837_docked.pdbqt
 OpenBabel03212202423D

 29 32  0  0  0  0  0  0  0  0999 V2000
   21.2520   34.9390   69.8260 N   0  0  0  0  0  0  0  0  0  0  0  0
   22.3120   35.9660   69.9000 C   0  0  0  0  0  2  0  0  0  0  0  0
   21.5660   37.2360   69.4390 C   0  0  0  0  0  2  0  0  0  0  0  0
   20.6520   36.7250   68.4070 N   0  0  0  0  0  0  0  0  0  0  0  0
   21.2010   35.7120   67.5630 C   0  0  0  0  0  2  0  0  0  0  0  0
   21.2990   34.4450   68.4290 C   0  0  0  0  0  2  0  0  0  0  0  0
   21.5480   33.8340   70.7200 C   0  0  0  0  0  2  0  0  0  0  0  0
   20.2530   33.0770   70.9040 C   0  0  0  0  0  0  0  0  0  0  0  0
   19.1190   33.6760   71.4610 N   0  0  0  0  0  0  0  0  0  0  0  0
   19.2340   34.6880   71.7840 H   0  0  0  0  0  0  0  0  0  0  0  0
   20.2130   31.8740   70.5440 O   0  0  0  0  0  0  0  0  0  0  0  0
   17.8490   33.1050   71.6840 C   0  0  0  0  0  0  0  0  0  0  0  0
   17.4860   32.6640   72.9650 C   0  0  0  0  0  3  0  0  0  0  0  0
   16.2610   32.1110   73.2380 C   0  0  0  0  0  3  0  0  0  0  0  0
   15.3190   31.9670   72.2300 C   0  0  0  0  0  0  0  0  0  0  0  0
   13.7460   31.2670   72.5440 Cl  0  0  0  0  0  0  0  0  0  0  0  0
   15.6590   32.3950   70.9700 C   0  0  0  0  0  3  0  0  0  0  0  0
   16.9040   32.9540   70.7080 C   0  0  0  0  0  3  0  0  0  0  0  0
   19.3500   37.2420   68.3450 C   0  0  0  0  0  0  0  0  0  0  0  0
   18.9840   38.0710   67.3190 N   0  0  0  0  0  0  0  0  0  0  0  0
   17.7720   38.6110   67.1970 C   0  0  0  0  0  3  0  0  0  0  0  0
   16.8380   38.3470   68.1180 N   0  0  0  0  0  0  0  0  0  0  0  0
   17.0730   37.5550   69.1590 C   0  0  0  0  0  0  0  0  0  0  0  0
   16.3340   37.1360   70.2050 N   0  0  0  0  0  0  0  0  0  0  0  0
   18.3490   36.9950   69.2750 C   0  0  0  0  0  0  0  0  0  0  0  0
   17.1070   36.3620   70.9230 N   0  0  0  0  0  0  0  0  0  0  0  0
   18.3100   36.2700   70.3770 N   0  0  0  0  0  0  0  0  0  0  0  0
   14.9540   37.4520   70.5220 C   0  0  0  0  0  2  0  0  0  0  0  0
   13.9950   36.5820   69.7390 C   0  0  0  0  0  1  0  0  0  0  0  0
  1  2  1  0  0  0  0
  1  7  1  0  0  0  0
  3  2  1  0  0  0  0
  4  3  1  0  0  0  0
  5  4  1  0  0  0  0
  5  6  1  0  0  0  0
  6  1  1  0  0  0  0
  7  8  1  0  0  0  0
  8  9  1  0  0  0  0
  9 12  1  0  0  0  0
  9 10  1  0  0  0  0
 11  8  2  0  0  0  0
 12 13  1  0  0  0  0
 13 14  2  0  0  0  0
 15 16  1  0  0  0  0
 15 14  1  0  0  0  0
 17 15  2  0  0  0  0
 18 17  1  0  0  0  0
 18 12  2  0  0  0  0
 19  4  1  0  0  0  0
 19 25  1  0  0  0  0
 20 19  2  0  0  0  0
 21 20  1  0  0  0  0
 21 22  2  0  0  0  0
 22 23  1  0  0  0  0
 23 25  2  0  0  0  0
 23 24  1  0  0  0  0
 24 28  1  0  0  0  0
 24 26  1  0  0  0  0
 25 27  1  0  0  0  0
 27 26  2  0  0  0  0
 29 28  1  0  0  0  0
M  END
>  <Pose>
1

>  <Score>
-7.793

$$$$
