/Users/jonathanwahrer/Desktop/Msc/3_Semester/Drug_Design_Praktikum/waehrer_HTS_screening/HTS_experiment/out/docking_results/vina_output/4x21/1850_docked.pdbqt
 OpenBabel03212202433D

 24 27  0  0  0  0  0  0  0  0999 V2000
   13.3070   32.8130   70.5130 Cl  0  0  0  0  0  0  0  0  0  0  0  0
   13.9610   34.4180   70.2190 C   0  0  0  0  0  0  0  0  0  0  0  0
   15.2670   34.7140   70.5540 C   0  0  0  0  0  0  0  0  0  0  0  0
   15.7770   35.9620   70.3260 C   0  0  0  0  0  0  0  0  0  0  0  0
   14.9560   36.9100   69.7580 C   0  0  0  0  0  3  0  0  0  0  0  0
   13.6490   36.6360   69.4170 C   0  0  0  0  0  3  0  0  0  0  0  0
   13.1450   35.3730   69.6510 C   0  0  0  0  0  3  0  0  0  0  0  0
   17.1670   36.3560   70.6560 C   0  0  0  0  0  2  0  0  0  0  0  0
   17.8670   35.1570   71.0490 N   0  0  0  0  0  0  0  0  0  0  0  0
   17.1860   34.2790   71.9710 C   0  0  0  0  0  2  0  0  0  0  0  0
   16.0670   33.6130   71.1640 C   0  0  0  0  0  2  0  0  0  0  0  0
   19.1580   34.8320   70.5700 C   0  0  0  0  0  0  0  0  0  0  0  0
   19.7140   33.7700   70.9520 O   0  0  0  0  0  0  0  0  0  0  0  0
   19.9140   35.6860   69.6230 C   0  0  0  0  0  2  0  0  0  0  0  0
   21.1870   35.1840   69.3610 O   0  0  0  0  0  0  0  0  0  0  0  0
   21.8660   35.3670   68.1640 C   0  0  0  0  0  0  0  0  0  0  0  0
   22.8430   34.5050   67.8230 N   0  0  0  0  0  0  0  0  0  0  0  0
   23.5310   34.6260   66.6910 N   0  0  0  0  0  0  0  0  0  0  0  0
   23.2980   35.6110   65.8130 C   0  0  0  0  0  0  0  0  0  0  0  0
   24.5270   33.8770   66.1840 C   0  0  0  0  0  3  0  0  0  0  0  0
   24.1390   35.4800   64.7690 N   0  0  0  0  0  0  0  0  0  0  0  0
   22.2960   36.5210   66.1320 C   0  0  0  0  0  3  0  0  0  0  0  0
   24.8780   34.4250   65.0080 N   0  0  0  0  0  0  0  0  0  0  0  0
   21.5850   36.3970   67.3010 C   0  0  0  0  0  3  0  0  0  0  0  0
  2  1  1  0  0  0  0
  2  3  1  0  0  0  0
  3 11  1  0  0  0  0
  4  3  2  0  0  0  0
  4  8  1  0  0  0  0
  5  4  1  0  0  0  0
  6  7  1  0  0  0  0
  6  5  2  0  0  0  0
  7  2  2  0  0  0  0
  8  9  1  0  0  0  0
  9 10  1  0  0  0  0
 11 10  1  0  0  0  0
 12 13  2  0  0  0  0
 12  9  1  0  0  0  0
 14 12  1  0  0  0  0
 15 14  1  0  0  0  0
 16 15  1  0  0  0  0
 17 16  2  0  0  0  0
 18 17  1  0  0  0  0
 19 22  1  0  0  0  0
 19 18  1  0  0  0  0
 20 18  1  0  0  0  0
 21 23  1  0  0  0  0
 21 19  2  0  0  0  0
 22 24  2  0  0  0  0
 23 20  2  0  0  0  0
 24 16  1  0  0  0  0
M  END
>  <Pose>
1

>  <Score>
-8.856

$$$$
