/Users/jonathanwahrer/Desktop/Msc/3_Semester/Drug_Design_Praktikum/waehrer_HTS_screening/HTS_experiment/out/docking_results/vina_output/4x21/1856_docked.pdbqt
 OpenBabel03212202433D

 31 34  0  0  0  0  0  0  0  0999 V2000
   18.1650   36.4530   69.9600 C   0  0  0  0  0  0  0  0  0  0  0  0
   18.9640   35.6440   70.6740 N   0  0  0  0  0  4  0  0  0  0  0  0
   18.5200   34.5760   71.3870 C   0  0  0  0  0  0  0  0  0  0  0  0
   17.1770   34.3680   71.3330 N   0  0  0  0  0  0  0  0  0  0  0  0
   16.3290   35.1410   70.6380 C   0  0  0  0  0  0  0  0  0  0  0  0
   16.8410   36.1650   69.9660 N   0  0  0  0  0  2  0  0  0  0  0  0
   18.6790   37.5580   69.2310 N   0  0  0  0  0  0  0  0  0  0  0  0
   18.1060   38.4100   69.0710 H   0  0  0  0  0  0  0  0  0  0  0  0
   19.9700   37.5400   68.7040 N   0  0  0  0  0  0  0  0  0  0  0  0
   20.1460   36.9520   67.5400 C   0  0  0  0  0  3  0  0  0  0  0  0
   21.4760   36.9100   66.9540 C   0  0  0  0  0  0  0  0  0  0  0  0
   22.1670   35.6900   66.9000 C   0  0  0  0  0  3  0  0  0  0  0  0
   23.4150   35.6310   66.3540 C   0  0  0  0  0  0  0  0  0  0  0  0
   24.3590   33.9750   66.2790 Br  0  0  0  0  0  0  0  0  0  0  0  0
   24.0210   36.7580   65.8450 C   0  0  0  0  0  3  0  0  0  0  0  0
   23.3650   37.9620   65.8870 C   0  0  0  0  0  3  0  0  0  0  0  0
   22.0800   38.0290   66.4480 C   0  0  0  0  0  0  0  0  0  0  0  0
   21.4470   39.2560   66.4750 O   0  0  0  0  0  0  0  0  0  0  0  0
   20.5990   39.4480   66.9660 H   0  0  0  0  0  0  0  0  0  0  0  0
   19.3860   33.7470   72.1250 N   0  0  0  0  0  0  0  0  0  0  0  0
   18.8720   32.8800   73.1430 C   0  0  0  0  0  2  0  0  0  0  0  0
   19.3780   31.4800   72.8340 C   0  0  0  0  0  2  0  0  0  0  0  0
   20.7790   31.5470   72.8260 O   0  0  0  0  0  0  0  0  0  0  0  0
   21.2190   32.2840   71.7270 C   0  0  0  0  0  2  0  0  0  0  0  0
   20.7960   33.7500   71.8800 C   0  0  0  0  0  2  0  0  0  0  0  0
   14.9420   34.8660   70.6260 N   0  0  0  0  0  0  0  0  0  0  0  0
   13.9560   35.7820   70.0890 C   0  0  0  0  0  2  0  0  0  0  0  0
   12.7780   35.0030   69.5460 C   0  0  0  0  0  2  0  0  0  0  0  0
   12.1930   34.1750   70.4660 O   0  0  0  0  0  0  0  0  0  0  0  0
   12.9740   33.9470   71.5920 C   0  0  0  0  0  2  0  0  0  0  0  0
   14.4010   33.6140   71.1650 C   0  0  0  0  0  2  0  0  0  0  0  0
  1  6  1  0  0  0  0
  1  2  2  0  0  0  0
  2  3  2  0  0  0  0
  3 20  1  0  0  0  0
  4  3  1  0  0  0  0
  5  4  2  0  0  0  0
  6  5  1  0  0  0  0
  7  1  1  0  0  0  0
  8  7  1  0  0  0  0
  9  7  1  0  0  0  0
 10  9  2  0  0  0  0
 11 10  1  0  0  0  0
 12 11  1  0  0  0  0
 13 12  2  0  0  0  0
 14 13  1  0  0  0  0
 15 16  2  0  0  0  0
 15 13  1  0  0  0  0
 16 17  1  0  0  0  0
 17 18  1  0  0  0  0
 17 11  2  0  0  0  0
 18 19  1  0  0  0  0
 20 21  1  0  0  0  0
 22 21  1  0  0  0  0
 23 22  1  0  0  0  0
 24 25  1  0  0  0  0
 24 23  1  0  0  0  0
 25 20  1  0  0  0  0
 26  5  1  0  0  0  0
 26 31  1  0  0  0  0
 27 26  1  0  0  0  0
 28 27  1  0  0  0  0
 28 29  1  0  0  0  0
 29 30  1  0  0  0  0
 31 30  1  0  0  0  0
M  END
>  <Pose>
1

>  <Score>
-8.489

$$$$
