/Users/jonathanwahrer/Desktop/Msc/3_Semester/Drug_Design_Praktikum/waehrer_HTS_screening/HTS_experiment/out/docking_results/vina_output/4x21/1865_docked.pdbqt
 OpenBabel03212202443D

 29 32  0  0  1  0  0  0  0  0999 V2000
   20.1600   34.0530   71.8940 N   0  0  0  0  0  0  0  0  0  0  0  0
   21.0760   33.0170   71.5090 C   0  0  0  0  0  0  0  0  0  0  0  0
   22.2530   33.2170   71.0600 O   0  0  0  0  0  0  0  0  0  0  0  0
   20.4570   31.7490   71.7130 N   0  0  0  0  0  0  0  0  0  0  0  0
   19.0340   32.0100   71.7330 C   0  0  1  0  0  0  0  0  0  0  0  0
   18.5920   32.1530   70.2890 C   0  0  0  0  0  2  0  0  0  0  0  0
   17.2360   32.8490   70.3300 C   0  0  0  0  0  2  0  0  0  0  0  0
   16.3750   32.2030   71.3010 N   0  0  0  0  0  0  0  0  0  0  0  0
   16.8120   30.9950   71.9500 C   0  0  0  0  0  2  0  0  0  0  0  0
   18.2260   31.0030   72.4310 C   0  0  0  0  0  2  0  0  0  0  0  0
   15.1050   32.7620   71.6010 C   0  0  0  0  0  0  0  0  0  0  0  0
   14.3560   32.1930   72.4570 O   0  0  0  0  0  0  0  0  0  0  0  0
   18.9870   33.3690   72.3280 C   0  0  0  0  0  0  0  0  0  0  0  0
   18.1200   33.8920   73.0780 O   0  0  0  0  0  0  0  0  0  0  0  0
   20.9240   30.8300   71.8240 H   0  0  0  0  0  0  0  0  0  0  0  0
   20.3620   35.4820   71.8570 C   0  0  0  0  0  2  0  0  0  0  0  0
   20.0320   36.0740   70.5430 C   0  0  0  0  0  0  0  0  0  0  0  0
   18.8160   36.6730   70.3100 C   0  0  0  0  0  3  0  0  0  0  0  0
   18.4710   37.2350   69.0980 C   0  0  0  0  0  0  0  0  0  0  0  0
   16.9200   37.9960   68.8090 Cl  0  0  0  0  0  0  0  0  0  0  0  0
   19.4140   37.1780   68.0910 C   0  0  0  0  0  3  0  0  0  0  0  0
   20.6380   36.5800   68.3110 C   0  0  0  0  0  3  0  0  0  0  0  0
   20.9660   36.0210   69.5340 C   0  0  0  0  0  3  0  0  0  0  0  0
   14.5940   33.9700   70.9770 C   0  0  0  0  0  0  0  0  0  0  0  0
   14.9950   35.2040   71.3430 N   0  0  0  0  0  0  0  0  0  0  0  0
   14.4790   36.2790   70.7220 C   0  0  0  0  0  3  0  0  0  0  0  0
   13.5450   36.1740   69.7140 C   0  0  0  0  0  3  0  0  0  0  0  0
   13.1420   34.9480   69.3480 N   0  0  0  0  0  0  0  0  0  0  0  0
   13.6620   33.8570   69.9720 C   0  0  0  0  0  3  0  0  0  0  0  0
  1 13  1  0  0  0  0
  2  4  1  0  0  0  0
  2  1  1  0  0  0  0
  3  2  2  0  0  0  0
  4  5  1  0  0  0  0
  4 15  1  0  0  0  0
  5  6  1  6  0  0  0
  5 13  1  0  0  0  0
  5 10  1  0  0  0  0
  6  7  1  0  0  0  0
  7  8  1  0  0  0  0
  8 11  1  0  0  0  0
  8  9  1  0  0  0  0
  9 10  1  0  0  0  0
 11 12  2  0  0  0  0
 13 14  2  0  0  0  0
 16  1  1  0  0  0  0
 17 16  1  0  0  0  0
 18 17  1  0  0  0  0
 19 18  2  0  0  0  0
 20 19  1  0  0  0  0
 21 22  2  0  0  0  0
 21 19  1  0  0  0  0
 22 23  1  0  0  0  0
 23 17  2  0  0  0  0
 24 25  1  0  0  0  0
 24 11  1  0  0  0  0
 26 25  2  0  0  0  0
 27 26  1  0  0  0  0
 28 27  2  0  0  0  0
 28 29  1  0  0  0  0
 29 24  2  0  0  0  0
M  END
>  <Pose>
1

>  <Score>
-8.815

$$$$
