/Users/jonathanwahrer/Desktop/Msc/3_Semester/Drug_Design_Praktikum/waehrer_HTS_screening/HTS_experiment/out/docking_results/vina_output/4x21/1871_docked.pdbqt
 OpenBabel03212202443D

 28 31  0  0  1  0  0  0  0  0999 V2000
   20.2640   35.5000   71.0730 C   0  0  2  0  0  0  0  0  0  0  0  0
   18.8850   35.2040   71.0820 N   0  0  0  0  0  4  0  0  0  0  0  0
   18.1740   36.1370   70.3150 C   0  0  0  0  0  0  0  0  0  0  0  0
   16.9510   36.4860   70.0000 C   0  0  0  0  0  3  0  0  0  0  0  0
   16.6790   37.6070   69.0930 C   0  0  0  0  0  3  0  0  0  0  0  0
   17.7370   38.1420   68.2450 C   0  0  0  0  0  3  0  0  0  0  0  0
   19.1090   37.5580   68.4760 C   0  0  0  0  0  2  0  0  0  0  0  0
   19.2190   36.9950   69.7750 N   0  0  0  0  0  0  0  0  0  0  0  0
   20.1890   37.0220   70.8620 C   0  0  2  0  0  3  0  0  0  0  0  0
   21.4390   37.6730   70.4400 C   0  0  0  0  0  1  0  0  0  0  0  0
   18.5960   35.5470   72.1060 H   0  0  0  0  0  0  0  0  0  0  0  0
   21.1060   34.9070   70.0360 C   0  0  0  0  0  0  0  0  0  0  0  0
   22.1930   34.1520   70.3910 C   0  0  0  0  0  3  0  0  0  0  0  0
   23.0370   33.5810   69.4410 C   0  0  0  0  0  3  0  0  0  0  0  0
   22.7570   33.7930   68.0980 C   0  0  0  0  0  0  0  0  0  0  0  0
   23.7600   33.1190   66.8270 Cl  0  0  0  0  0  0  0  0  0  0  0  0
   21.6570   34.5550   67.7570 C   0  0  0  0  0  3  0  0  0  0  0  0
   20.8220   35.1210   68.6990 C   0  0  0  0  0  3  0  0  0  0  0  0
   20.7890   35.3320   72.3340 O   0  0  0  0  0  0  0  0  0  0  0  0
   20.5450   34.5180   72.8100 H   0  0  0  0  0  0  0  0  0  0  0  0
   18.5040   33.8680   71.1660 C   0  0  0  0  0  0  0  0  0  0  0  0
   17.9860   33.4340   72.3750 C   0  0  0  0  0  3  0  0  0  0  0  0
   17.5840   32.1380   72.5920 C   0  0  0  0  0  3  0  0  0  0  0  0
   17.6710   31.1620   71.5950 C   0  0  0  0  0  0  0  0  0  0  0  0
   18.1890   31.6190   70.4090 C   0  0  0  0  0  3  0  0  0  0  0  0
   18.5890   32.9160   70.1990 C   0  0  0  0  0  3  0  0  0  0  0  0
   17.2600   29.8630   71.8240 O   0  0  0  0  0  0  0  0  0  0  0  0
   15.9350   29.6140   72.2190 C   0  0  0  0  0  1  0  0  0  0  0  0
  1  2  1  0  0  0  0
  1 19  1  1  0  0  0
  2 21  1  0  0  0  0
  2 11  1  0  0  0  0
  3  2  1  0  0  0  0
  4  3  2  0  0  0  0
  5  4  1  0  0  0  0
  6  7  1  0  0  0  0
  6  5  2  0  0  0  0
  7  8  1  0  0  0  0
  8  3  1  0  0  0  0
  8  9  1  0  0  0  0
  9 10  1  6  0  0  0
  9  1  1  0  0  0  0
 12 13  1  0  0  0  0
 12  1  1  0  0  0  0
 14 13  2  0  0  0  0
 15 14  1  0  0  0  0
 16 15  1  0  0  0  0
 17 15  2  0  0  0  0
 17 18  1  0  0  0  0
 18 12  2  0  0  0  0
 19 20  1  0  0  0  0
 21 22  1  0  0  0  0
 22 23  2  0  0  0  0
 24 27  1  0  0  0  0
 24 23  1  0  0  0  0
 25 24  2  0  0  0  0
 26 25  1  0  0  0  0
 26 21  2  0  0  0  0
 27 28  1  0  0  0  0
M  END
>  <Pose>
1

>  <Score>
-8.093

$$$$
