/Users/jonathanwahrer/Desktop/Msc/3_Semester/Drug_Design_Praktikum/waehrer_HTS_screening/HTS_experiment/out/docking_results/vina_output/4x21/1906_docked.pdbqt
 OpenBabel03212202453D

 33 36  0  0  1  0  0  0  0  0999 V2000
   16.6480   31.8200   71.9650 C   0  0  1  0  0  0  0  0  0  0  0  0
   15.5190   32.4290   72.5320 O   0  0  0  0  0  0  0  0  0  0  0  0
   14.3230   31.9660   72.0570 C   0  0  0  0  0  2  0  0  0  0  0  0
   13.9860   30.5560   72.4990 C   0  0  0  0  0  2  0  0  0  0  0  0
   15.2910   29.8460   72.4480 N   0  0  0  0  0  0  0  0  0  0  0  0
   16.2260   30.4000   71.5470 C   0  0  0  0  0  2  0  0  0  0  0  0
   15.4640   28.7450   73.2600 C   0  0  0  0  0  0  0  0  0  0  0  0
   14.5030   28.3490   74.0410 O   0  0  0  0  0  0  0  0  0  0  0  0
   16.9120   32.5600   70.6850 C   0  0  0  0  0  2  0  0  0  0  0  0
   16.9110   33.8730   70.6430 O   0  0  0  0  0  0  0  0  0  0  0  0
   16.3260   35.0130   70.4220 C   0  0  0  0  0  0  0  0  0  0  0  0
   14.9980   35.1780   70.1210 C   0  0  0  0  0  3  0  0  0  0  0  0
   14.4810   36.4260   69.9030 C   0  0  0  0  0  0  0  0  0  0  0  0
   12.7680   36.6000   69.5190 Cl  0  0  0  0  0  0  0  0  0  0  0  0
   15.2660   37.5610   69.9770 C   0  0  0  0  0  3  0  0  0  0  0  0
   16.5930   37.4010   70.2790 C   0  0  0  0  0  3  0  0  0  0  0  0
   17.1230   36.1720   70.4980 C   0  0  0  0  0  3  0  0  0  0  0  0
   17.7170   31.8160   72.9590 C   0  0  0  0  0  2  0  0  0  0  0  0
   19.0940   31.6020   72.5080 C   0  0  0  0  0  0  0  0  0  0  0  0
   19.4960   30.4650   72.1950 O   0  0  0  0  0  0  0  0  0  0  0  0
   20.0190   32.6800   72.4100 N   0  0  0  0  0  0  0  0  0  0  0  0
   19.6380   34.0450   72.7570 C   0  0  0  0  0  2  0  0  0  0  0  0
   21.3820   32.4740   71.9660 C   0  0  0  0  0  2  0  0  0  0  0  0
   20.1190   34.9390   71.6340 C   0  0  0  0  0  2  0  0  0  0  0  0
   21.5010   34.7830   71.4930 O   0  0  0  0  0  0  0  0  0  0  0  0
   21.7530   33.5180   70.9630 C   0  0  0  0  0  2  0  0  0  0  0  0
   16.6550   27.9550   73.3310 C   0  0  0  0  0  0  0  0  0  0  0  0
   16.8680   26.8650   72.5930 N   0  0  0  0  0  0  0  0  0  0  0  0
   17.9870   26.1170   72.6540 C   0  0  0  0  0  3  0  0  0  0  0  0
   18.9980   26.4780   73.5300 C   0  0  0  0  0  0  0  0  0  0  0  0
   18.8230   27.5550   74.2790 N   0  0  0  0  0  0  0  0  0  0  0  0
   20.2080   25.6180   73.5560 C   0  0  0  0  0  1  0  0  0  0  0  0
   17.6990   28.2860   74.2020 C   0  0  0  0  0  3  0  0  0  0  0  0
  1  9  1  6  0  0  0
  1  2  1  0  0  0  0
  1 18  1  0  0  0  0
  3  4  1  0  0  0  0
  3  2  1  0  0  0  0
  5  4  1  0  0  0  0
  5  7  1  0  0  0  0
  6  1  1  0  0  0  0
  6  5  1  0  0  0  0
  7 27  1  0  0  0  0
  7  8  2  0  0  0  0
 10  9  1  0  0  0  0
 11 17  1  0  0  0  0
 11 10  1  0  0  0  0
 12 11  2  0  0  0  0
 13 15  2  0  0  0  0
 13 12  1  0  0  0  0
 14 13  1  0  0  0  0
 15 16  1  0  0  0  0
 16 17  2  0  0  0  0
 19 18  1  0  0  0  0
 20 19  2  0  0  0  0
 21 19  1  0  0  0  0
 21 22  1  0  0  0  0
 23 21  1  0  0  0  0
 24 22  1  0  0  0  0
 25 24  1  0  0  0  0
 26 25  1  0  0  0  0
 26 23  1  0  0  0  0
 27 33  1  0  0  0  0
 28 29  1  0  0  0  0
 28 27  2  0  0  0  0
 29 30  2  0  0  0  0
 30 32  1  0  0  0  0
 30 31  1  0  0  0  0
 33 31  2  0  0  0  0
M  END
>  <Pose>
1

>  <Score>
-8.548

$$$$
