/Users/jonathanwahrer/Desktop/Msc/3_Semester/Drug_Design_Praktikum/waehrer_HTS_screening/HTS_experiment/out/docking_results/vina_output/4x21/1913_docked.pdbqt
 OpenBabel03212202453D

 29 32  0  0  1  0  0  0  0  0999 V2000
   17.5200   33.3470   71.4720 N   0  0  0  0  0  0  0  0  0  0  0  0
   18.0010   32.5630   70.3580 C   0  0  0  0  0  2  0  0  0  0  0  0
   18.9950   31.5060   70.7560 C   0  0  0  0  0  2  0  0  0  0  0  0
   19.9910   32.0890   71.6980 C   0  0  2  0  0  3  0  0  0  0  0  0
   19.3120   32.5040   72.9580 C   0  0  0  0  0  3  0  0  0  0  0  0
   18.0200   33.2180   72.8060 C   0  0  0  0  0  3  0  0  0  0  0  0
   20.8240   33.1190   71.0770 C   0  0  0  0  0  0  0  0  0  0  0  0
   20.9670   34.2140   71.6740 O   0  0  0  0  0  0  0  0  0  0  0  0
   21.4740   32.9430   69.8380 N   0  0  0  0  0  0  0  0  0  0  0  0
   21.3540   32.0180   69.3320 H   0  0  0  0  0  0  0  0  0  0  0  0
   22.2990   33.9510   69.2130 C   0  0  0  0  0  2  0  0  0  0  0  0
   21.8390   34.3390   67.8370 C   0  0  0  0  0  2  0  0  0  0  0  0
   21.6500   35.7750   67.7350 N   0  0  0  0  0  0  0  0  0  0  0  0
   21.2820   36.3790   68.9710 C   0  0  0  0  0  2  0  0  0  0  0  0
   19.8350   36.8270   68.9320 C   0  0  0  0  0  2  0  0  0  0  0  0
   19.7220   37.7980   67.9690 O   0  0  0  0  0  0  0  0  0  0  0  0
   20.1760   37.4670   66.7200 C   0  0  0  0  0  2  0  0  0  0  0  0
   20.8880   36.1630   66.6030 C   0  0  0  0  0  2  0  0  0  0  0  0
   16.5010   34.2900   71.2240 C   0  0  0  0  0  0  0  0  0  0  0  0
   15.1820   33.9290   71.3020 C   0  0  0  0  0  0  0  0  0  0  0  0
   14.1710   34.8740   71.0760 C   0  0  0  0  0  0  0  0  0  0  0  0
   14.5560   32.7700   71.5630 N   0  0  0  0  0  0  0  0  0  0  0  0
   14.5450   36.1230   70.7830 N   0  0  0  0  0  4  0  0  0  0  0  0
   12.9830   34.2940   71.1990 N   0  0  0  0  0  0  0  0  0  0  0  0
   15.8260   36.4860   70.7030 C   0  0  0  0  0  0  0  0  0  0  0  0
   16.2400   38.1250   70.3200 Cl  0  0  0  0  0  0  0  0  0  0  0  0
   16.7930   35.5880   70.9190 N   0  0  0  0  0  2  0  0  0  0  0  0
   13.2410   33.0140   71.4970 C   0  0  0  0  0  3  0  0  0  0  0  0
   15.0470   31.8680   71.7690 H   0  0  0  0  0  0  0  0  0  0  0  0
  1  6  1  0  0  0  0
  2  3  1  0  0  0  0
  2  1  1  0  0  0  0
  3  4  1  0  0  0  0
  4  7  1  6  0  0  0
  4  5  1  0  0  0  0
  6  5  2  0  0  0  0
  7  8  2  0  0  0  0
  9  7  1  0  0  0  0
 10  9  1  0  0  0  0
 11  9  1  0  0  0  0
 12 11  1  0  0  0  0
 13 12  1  0  0  0  0
 13 14  1  0  0  0  0
 15 14  1  0  0  0  0
 16 15  1  0  0  0  0
 17 16  1  0  0  0  0
 18 17  1  0  0  0  0
 18 13  1  0  0  0  0
 19 20  2  0  0  0  0
 19  1  1  0  0  0  0
 20 22  1  0  0  0  0
 21 24  1  0  0  0  0
 21 20  1  0  0  0  0
 22 29  1  0  0  0  0
 23 21  2  0  0  0  0
 24 28  2  0  0  0  0
 25 23  2  0  0  0  0
 25 27  1  0  0  0  0
 26 25  1  0  0  0  0
 27 19  1  0  0  0  0
 28 22  1  0  0  0  0
M  END
>  <Pose>
1

>  <Score>
-7.772

$$$$
