/Users/jonathanwahrer/Desktop/Msc/3_Semester/Drug_Design_Praktikum/waehrer_HTS_screening/HTS_experiment/out/docking_results/vina_output/4x21/1927_docked.pdbqt
 OpenBabel03212202463D

 36 39  0  0  1  0  0  0  0  0999 V2000
   21.8660   33.6840   70.7690 C   0  0  0  0  0  2  0  0  0  0  0  0
   22.4340   33.6980   69.4120 C   0  0  0  0  0  0  0  0  0  0  0  0
   22.2050   34.5390   68.3310 N   0  0  0  0  0  0  0  0  0  0  0  0
   21.1610   35.4960   68.2170 C   0  0  0  0  0  2  0  0  0  0  0  0
   23.1390   34.4580   67.1780 C   0  0  0  0  0  2  0  0  0  0  0  0
   21.7390   36.8800   68.0000 C   0  0  0  0  0  2  0  0  0  0  0  0
   22.3540   36.8040   66.6040 C   0  0  2  0  0  0  0  0  0  0  0  0
   23.4180   35.7730   66.5340 C   0  0  0  0  0  2  0  0  0  0  0  0
   23.2950   32.7340   69.2140 O   0  0  0  0  0  0  0  0  0  0  0  0
   22.6960   38.1320   66.1280 C   0  0  0  0  0  0  0  0  0  0  0  0
   21.6900   39.1070   66.1550 C   0  0  0  0  0  3  0  0  0  0  0  0
   21.9040   40.4040   65.6890 C   0  0  0  0  0  3  0  0  0  0  0  0
   23.1250   40.7780   65.1810 C   0  0  0  0  0  0  0  0  0  0  0  0
   23.3990   42.4320   64.5740 Cl  0  0  0  0  0  0  0  0  0  0  0  0
   24.1280   39.8230   65.1480 C   0  0  0  0  0  3  0  0  0  0  0  0
   23.9020   38.5420   65.6130 C   0  0  0  0  0  3  0  0  0  0  0  0
   21.2700   36.3300   65.7980 O   0  0  0  0  0  0  0  0  0  0  0  0
   21.6380   35.5980   65.2420 H   0  0  0  0  0  0  0  0  0  0  0  0
   20.4910   33.4810   70.9020 N   0  0  0  0  0  0  0  0  0  0  0  0
   19.5450   34.4840   71.2770 C   0  0  0  0  0  0  0  0  0  0  0  0
   20.0400   35.6170   71.5180 O   0  0  0  0  0  0  0  0  0  0  0  0
   20.0460   32.5570   70.6540 H   0  0  0  0  0  0  0  0  0  0  0  0
   18.1410   34.1910   71.3590 C   0  0  0  0  0  3  0  0  0  0  0  0
   17.1060   34.8860   71.0200 C   0  0  0  0  0  0  0  0  0  0  0  0
   17.1900   36.1980   70.4590 N   0  0  0  0  0  0  0  0  0  0  0  0
   15.7350   34.3370   71.1730 C   0  0  0  0  0  0  0  0  0  0  0  0
   16.0440   36.9250   70.0760 N   0  0  0  0  0  0  0  0  0  0  0  0
   18.1180   36.6630   70.3150 H   0  0  0  0  0  0  0  0  0  0  0  0
   14.7530   36.3810   70.2320 C   0  0  0  0  0  0  0  0  0  0  0  0
   16.1390   37.8820   69.6630 H   0  0  0  0  0  0  0  0  0  0  0  0
   13.7520   37.0670   69.8740 O   0  0  0  0  0  0  0  0  0  0  0  0
   14.6210   35.0520   70.7970 C   0  0  0  0  0  0  0  0  0  0  0  0
   13.3390   34.5540   70.9040 C   0  0  0  0  0  3  0  0  0  0  0  0
   13.1810   33.2680   71.4170 C   0  0  0  0  0  3  0  0  0  0  0  0
   14.2560   32.5170   71.8040 C   0  0  0  0  0  3  0  0  0  0  0  0
   15.5290   33.0820   71.6700 C   0  0  0  0  0  3  0  0  0  0  0  0
  1 19  1  0  0  0  0
  2  1  1  0  0  0  0
  3  2  1  0  0  0  0
  4  3  1  0  0  0  0
  5  3  1  0  0  0  0
  6  4  1  0  0  0  0
  7 17  1  6  0  0  0
  7  6  1  0  0  0  0
  8  7  1  0  0  0  0
  8  5  1  0  0  0  0
  9  2  2  0  0  0  0
 10 11  1  0  0  0  0
 10  7  1  0  0  0  0
 12 11  2  0  0  0  0
 13 12  1  0  0  0  0
 14 13  1  0  0  0  0
 15 13  2  0  0  0  0
 15 16  1  0  0  0  0
 16 10  2  0  0  0  0
 18 17  1  0  0  0  0
 19 20  1  0  0  0  0
 20 23  1  0  0  0  0
 20 21  2  0  0  0  0
 22 19  1  0  0  0  0
 24 26  1  0  0  0  0
 24 23  2  0  0  0  0
 25 24  1  0  0  0  0
 26 36  1  0  0  0  0
 27 29  1  0  0  0  0
 27 25  1  0  0  0  0
 28 25  1  0  0  0  0
 29 32  1  0  0  0  0
 30 27  1  0  0  0  0
 31 29  2  0  0  0  0
 32 33  1  0  0  0  0
 32 26  2  0  0  0  0
 33 34  2  0  0  0  0
 34 35  1  0  0  0  0
 36 35  2  0  0  0  0
M  END
>  <Pose>
1

>  <Score>
-10.095

$$$$
