/Users/jonathanwahrer/Desktop/Msc/3_Semester/Drug_Design_Praktikum/waehrer_HTS_screening/HTS_experiment/out/docking_results/vina_output/4x21/1930_docked.pdbqt
 OpenBabel03212202463D

 34 37  0  0  1  0  0  0  0  0999 V2000
   18.0920   37.1610   69.9690 C   0  0  0  0  0  0  0  0  0  0  0  0
   17.9220   38.0900   69.1380 O   0  0  0  0  0  0  0  0  0  0  0  0
   19.3860   36.6610   70.1990 N   0  0  0  0  0  0  0  0  0  0  0  0
   20.5640   37.1800   69.5030 C   0  0  0  0  0  2  0  0  0  0  0  0
   21.0720   36.0280   68.6590 C   0  0  2  0  0  3  0  0  0  0  0  0
   21.3350   34.8090   69.5110 C   0  0  2  0  0  0  0  0  0  0  0  0
   21.0980   35.1320   70.9910 C   0  0  0  0  0  2  0  0  0  0  0  0
   19.6580   35.5920   71.1440 C   0  0  0  0  0  2  0  0  0  0  0  0
   22.7030   34.2260   69.3290 C   0  0  0  0  0  1  0  0  0  0  0  0
   16.9130   36.6180   70.6860 C   0  0  0  0  0  2  0  0  0  0  0  0
   16.0290   35.7710   69.8300 C   0  0  0  0  0  2  0  0  0  0  0  0
   15.8340   34.3930   70.3440 C   0  0  0  0  0  0  0  0  0  0  0  0
   16.7550   33.4870   70.7150 N   0  0  0  0  0  0  0  0  0  0  0  0
   16.1720   32.3480   71.1270 C   0  0  0  0  0  0  0  0  0  0  0  0
   16.6150   31.1240   71.6030 C   0  0  0  0  0  3  0  0  0  0  0  0
   14.8110   32.5380   71.0120 C   0  0  0  0  0  0  0  0  0  0  0  0
   15.7560   30.1150   71.9580 C   0  0  0  0  0  0  0  0  0  0  0  0
   16.3070   28.5600   72.5630 Cl  0  0  0  0  0  0  0  0  0  0  0  0
   14.4010   30.3370   71.8320 C   0  0  0  0  0  3  0  0  0  0  0  0
   13.9130   31.5500   71.3570 C   0  0  0  0  0  3  0  0  0  0  0  0
   14.6330   33.7770   70.5390 N   0  0  0  0  0  0  0  0  0  0  0  0
   13.3650   34.4440   70.2470 C   0  0  0  0  0  1  0  0  0  0  0  0
   22.1260   36.3680   67.7690 N   0  0  0  0  0  0  0  0  0  0  0  0
   23.3460   36.7760   68.2270 C   0  0  0  0  0  3  0  0  0  0  0  0
   24.3690   37.1080   67.3650 C   0  0  0  0  0  0  0  0  0  0  0  0
   24.1640   37.0270   66.0060 C   0  0  0  0  0  0  0  0  0  0  0  0
   25.7060   37.5540   67.8300 C   0  0  0  0  0  1  0  0  0  0  0  0
   25.0870   37.3250   65.1730 O   0  0  0  0  0  0  0  0  0  0  0  0
   22.9600   36.6240   65.5620 N   0  0  0  0  0  0  0  0  0  0  0  0
   21.9780   36.3070   66.4540 C   0  0  0  0  0  0  0  0  0  0  0  0
   22.8020   36.5620   64.5390 H   0  0  0  0  0  0  0  0  0  0  0  0
   20.8780   35.9390   65.9830 O   0  0  0  0  0  0  0  0  0  0  0  0
   20.4230   33.7610   69.2350 O   0  0  0  0  0  0  0  0  0  0  0  0
   19.8840   34.0700   68.4660 H   0  0  0  0  0  0  0  0  0  0  0  0
  1  3  1  0  0  0  0
  1 10  1  0  0  0  0
  2  1  2  0  0  0  0
  3  8  1  0  0  0  0
  4  3  1  0  0  0  0
  5 23  1  1  0  0  0
  5  4  1  0  0  0  0
  5  6  1  0  0  0  0
  6  9  1  6  0  0  0
  6  7  1  0  0  0  0
  7  8  1  0  0  0  0
 11 12  1  0  0  0  0
 11 10  1  0  0  0  0
 12 21  1  0  0  0  0
 12 13  2  0  0  0  0
 13 14  1  0  0  0  0
 14 15  1  0  0  0  0
 15 17  2  0  0  0  0
 16 14  2  0  0  0  0
 16 20  1  0  0  0  0
 17 18  1  0  0  0  0
 19 17  1  0  0  0  0
 20 19  2  0  0  0  0
 21 16  1  0  0  0  0
 22 21  1  0  0  0  0
 23 24  1  0  0  0  0
 25 27  1  0  0  0  0
 25 24  2  0  0  0  0
 26 25  1  0  0  0  0
 28 26  2  0  0  0  0
 29 26  1  0  0  0  0
 29 30  1  0  0  0  0
 30 23  1  0  0  0  0
 31 29  1  0  0  0  0
 32 30  2  0  0  0  0
 33  6  1  0  0  0  0
 34 33  1  0  0  0  0
M  END
>  <Pose>
1

>  <Score>
-9.102

$$$$
