/Users/jonathanwahrer/Desktop/Msc/3_Semester/Drug_Design_Praktikum/waehrer_HTS_screening/HTS_experiment/out/docking_results/vina_output/4x21/1936_docked.pdbqt
 OpenBabel03212202463D

 25 28  0  0  0  0  0  0  0  0999 V2000
   20.8990   35.3760   69.4660 N   0  0  0  0  0  0  0  0  0  0  0  0
   21.3030   36.5660   68.8330 C   0  0  0  0  0  0  0  0  0  0  0  0
   21.0980   37.6370   69.4310 O   0  0  0  0  0  0  0  0  0  0  0  0
   21.0620   34.4630   68.9800 H   0  0  0  0  0  0  0  0  0  0  0  0
   20.2610   35.3570   70.7700 C   0  0  0  0  0  2  0  0  0  0  0  0
   18.7740   35.5210   70.6140 C   0  0  0  0  0  0  0  0  0  0  0  0
   17.8280   34.5910   70.8390 N   0  0  0  0  0  0  0  0  0  0  0  0
   16.6030   35.0900   70.5960 C   0  0  0  0  0  0  0  0  0  0  0  0
   15.3120   34.6130   70.6560 C   0  0  0  0  0  3  0  0  0  0  0  0
   16.7810   36.4160   70.1920 C   0  0  0  0  0  0  0  0  0  0  0  0
   14.1940   35.3680   70.3410 C   0  0  0  0  0  0  0  0  0  0  0  0
   12.5620   34.7090   70.4360 Cl  0  0  0  0  0  0  0  0  0  0  0  0
   14.4010   36.6850   69.9420 C   0  0  0  0  0  3  0  0  0  0  0  0
   15.6800   37.1770   69.8770 C   0  0  0  0  0  3  0  0  0  0  0  0
   18.1130   36.6220   70.2230 N   0  0  0  0  0  0  0  0  0  0  0  0
   18.5770   37.5250   69.9720 H   0  0  0  0  0  0  0  0  0  0  0  0
   21.9490   36.5890   67.5090 C   0  0  0  0  0  0  0  0  0  0  0  0
   21.0590   36.4030   66.3430 C   0  0  0  0  0  2  0  0  0  0  0  0
   21.5130   37.7860   66.5970 C   0  0  0  0  0  2  0  0  0  0  0  0
   23.3560   36.3430   67.4010 N   0  0  0  0  0  0  0  0  0  0  0  0
   23.7370   35.1500   66.7550 C   0  0  0  0  0  2  0  0  0  0  0  0
   24.0200   34.1100   67.8330 C   0  0  0  0  0  2  0  0  0  0  0  0
   25.1570   34.4500   68.5270 O   0  0  0  0  0  0  0  0  0  0  0  0
   25.3990   35.7970   68.6230 C   0  0  0  0  0  2  0  0  0  0  0  0
   24.1340   36.6270   68.5360 C   0  0  0  0  0  2  0  0  0  0  0  0
  1  5  1  0  0  0  0
  2  3  2  0  0  0  0
  2  1  1  0  0  0  0
  4  1  1  0  0  0  0
  6  5  1  0  0  0  0
  6  7  2  0  0  0  0
  8  9  1  0  0  0  0
  8  7  1  0  0  0  0
 10 15  1  0  0  0  0
 10  8  2  0  0  0  0
 11 12  1  0  0  0  0
 11  9  2  0  0  0  0
 13 11  1  0  0  0  0
 14 13  2  0  0  0  0
 14 10  1  0  0  0  0
 15  6  1  0  0  0  0
 16 15  1  0  0  0  0
 17  2  1  0  0  0  0
 18 19  1  0  0  0  0
 18 17  1  0  0  0  0
 19 17  1  0  0  0  0
 20 17  1  0  0  0  0
 20 25  1  0  0  0  0
 21 20  1  0  0  0  0
 21 22  1  0  0  0  0
 22 23  1  0  0  0  0
 23 24  1  0  0  0  0
 25 24  1  0  0  0  0
M  END
>  <Pose>
1

>  <Score>
-7.273

$$$$
