/Users/jonathanwahrer/Desktop/Msc/3_Semester/Drug_Design_Praktikum/waehrer_HTS_screening/HTS_experiment/out/docking_results/vina_output/4x21/1937_docked.pdbqt
 OpenBabel03212202473D

 31 34  0  0  1  0  0  0  0  0999 V2000
   20.3800   33.3460   71.0980 N   0  0  0  0  0  0  0  0  0  0  0  0
   20.2050   34.5880   71.6950 C   0  0  0  0  0  2  0  0  0  0  0  0
   21.3060   35.5580   71.0870 C   0  0  0  0  0  2  0  0  0  0  0  0
   21.4720   34.9820   69.7790 N   0  0  0  0  0  0  0  0  0  0  0  0
   22.3960   33.8120   69.8320 C   0  0  0  0  0  2  0  0  0  0  0  0
   21.8460   33.0230   70.9870 C   0  0  0  0  0  2  0  0  0  0  0  0
   20.9430   35.4760   68.6240 C   0  0  0  0  0  0  0  0  0  0  0  0
   20.7680   34.6590   67.6570 O   0  0  0  0  0  0  0  0  0  0  0  0
   19.7380   32.1450   71.5740 C   0  0  0  0  0  2  0  0  0  0  0  0
   18.3600   32.0870   70.9050 C   0  0  0  0  0  0  0  0  0  0  0  0
   17.3080   32.7500   71.5400 N   0  0  0  0  0  0  0  0  0  0  0  0
   17.5070   33.0260   72.5660 H   0  0  0  0  0  0  0  0  0  0  0  0
   18.2280   31.4970   69.8650 O   0  0  0  0  0  0  0  0  0  0  0  0
   16.0090   32.9950   71.0270 C   0  0  0  0  0  2  0  0  0  0  0  0
   15.8130   34.4020   70.5890 C   0  0  0  0  0  0  0  0  0  0  0  0
   14.5340   34.7980   70.2130 C   0  0  0  0  0  0  0  0  0  0  0  0
   13.3110   33.5670   70.0140 Cl  0  0  0  0  0  0  0  0  0  0  0  0
   14.2290   36.0930   69.9470 C   0  0  0  0  0  3  0  0  0  0  0  0
   15.1410   37.1240   70.0410 C   0  0  0  0  0  3  0  0  0  0  0  0
   16.4370   36.7190   70.4230 C   0  0  0  0  0  3  0  0  0  0  0  0
   16.7560   35.3910   70.6820 C   0  0  0  0  0  3  0  0  0  0  0  0
   20.5510   36.8880   68.3210 C   0  0  1  0  0  3  0  0  0  0  0  0
   21.7700   37.6580   68.5850 O   0  0  0  0  0  0  0  0  0  0  0  0
   22.9190   36.9100   68.1960 C   0  0  0  0  0  0  0  0  0  0  0  0
   22.8010   36.1000   67.0980 C   0  0  0  0  0  0  0  0  0  0  0  0
   24.1240   36.9910   68.8860 C   0  0  0  0  0  3  0  0  0  0  0  0
   23.8650   35.3270   66.6470 C   0  0  0  0  0  3  0  0  0  0  0  0
   21.5800   36.0500   66.4150 O   0  0  0  0  0  0  0  0  0  0  0  0
   25.0490   35.4250   67.3690 C   0  0  0  0  0  3  0  0  0  0  0  0
   25.2040   36.2370   68.4710 C   0  0  0  0  0  3  0  0  0  0  0  0
   20.4880   36.9340   66.7700 C   0  0  0  0  0  2  0  0  0  0  0  0
  1  9  1  0  0  0  0
  1  2  1  0  0  0  0
  3  2  1  0  0  0  0
  4  5  1  0  0  0  0
  4  3  1  0  0  0  0
  5  6  1  0  0  0  0
  6  1  1  0  0  0  0
  7  4  1  0  0  0  0
  8  7  2  0  0  0  0
 10 11  1  0  0  0  0
 10  9  1  0  0  0  0
 11 12  1  0  0  0  0
 13 10  2  0  0  0  0
 14 11  1  0  0  0  0
 15 21  1  0  0  0  0
 15 14  1  0  0  0  0
 16 15  2  0  0  0  0
 17 16  1  0  0  0  0
 18 19  2  0  0  0  0
 18 16  1  0  0  0  0
 19 20  1  0  0  0  0
 20 21  2  0  0  0  0
 22 23  1  0  0  0  0
 22  7  1  6  0  0  0
 24 23  1  0  0  0  0
 24 26  1  0  0  0  0
 25 24  2  0  0  0  0
 27 25  1  0  0  0  0
 27 29  2  0  0  0  0
 28 31  1  0  0  0  0
 28 25  1  0  0  0  0
 29 30  1  0  0  0  0
 30 26  2  0  0  0  0
 31 22  1  0  0  0  0
M  END
>  <Pose>
1

>  <Score>
-8.608

$$$$
