/Users/jonathanwahrer/Desktop/Msc/3_Semester/Drug_Design_Praktikum/waehrer_HTS_screening/HTS_experiment/out/docking_results/vina_output/4x21/1940_docked.pdbqt
 OpenBabel03212202473D

 30 33  0  0  1  0  0  0  0  0999 V2000
   16.3060   32.7520   72.8160 C   0  0  1  0  0  3  0  0  0  0  0  0
   15.7970   31.3780   72.7140 N   0  0  0  0  0  0  0  0  0  0  0  0
   16.0990   30.9620   71.3950 C   0  0  0  0  0  0  0  0  0  0  0  0
   15.4640   30.1260   70.7100 O   0  0  0  0  0  0  0  0  0  0  0  0
   17.3060   31.7010   70.9780 C   0  0  0  0  0  0  0  0  0  0  0  0
   17.9080   31.6320   69.8820 O   0  0  0  0  0  0  0  0  0  0  0  0
   17.6420   32.5330   72.1240 C   0  0  0  0  0  0  0  0  0  0  0  0
   18.8070   32.9640   72.4630 C   0  0  0  0  0  0  0  0  0  0  0  0
   18.9820   33.7460   73.6030 O   0  0  0  0  0  1  0  0  0  0  0  0
   15.1190   30.6330   73.7650 C   0  0  0  0  0  2  0  0  0  0  0  0
   15.5130   29.1910   73.8490 C   0  0  0  0  0  2  0  0  0  0  0  0
   16.7490   28.9140   74.4980 N   0  0  0  0  0  4  0  0  0  0  0  0
   16.7410   27.8820   75.4840 C   0  0  0  0  0  2  0  0  0  0  0  0
   16.4190   26.5130   74.9300 C   0  0  0  0  0  2  0  0  0  0  0  0
   17.3090   26.1660   73.9200 O   0  0  0  0  0  0  0  0  0  0  0  0
   17.4180   27.1600   72.9530 C   0  0  0  0  0  2  0  0  0  0  0  0
   17.7810   28.5060   73.5230 C   0  0  0  0  0  2  0  0  0  0  0  0
   17.0800   29.7900   74.9590 H   0  0  0  0  0  0  0  0  0  0  0  0
   15.5490   33.6570   71.9160 C   0  0  0  0  0  0  0  0  0  0  0  0
   14.2480   33.4120   71.5550 C   0  0  0  0  0  3  0  0  0  0  0  0
   13.5320   34.2540   70.7270 C   0  0  0  0  0  3  0  0  0  0  0  0
   14.1320   35.3920   70.2330 C   0  0  0  0  0  0  0  0  0  0  0  0
   13.3010   36.5120   69.1830 Cl  0  0  0  0  0  0  0  0  0  0  0  0
   15.4320   35.6570   70.5810 C   0  0  0  0  0  3  0  0  0  0  0  0
   16.1410   34.8130   71.4070 C   0  0  0  0  0  3  0  0  0  0  0  0
   19.9830   32.6470   71.6590 C   0  0  0  0  0  0  0  0  0  0  0  0
   20.6810   31.5740   71.5400 O   0  0  0  0  0  0  0  0  0  0  0  0
   21.6590   31.7440   70.6960 C   0  0  0  0  0  3  0  0  0  0  0  0
   21.6180   33.0260   70.2090 C   0  0  0  0  0  3  0  0  0  0  0  0
   20.5470   33.6170   70.8200 C   0  0  0  0  0  3  0  0  0  0  0  0
  1 19  1  6  0  0  0
  2  1  1  0  0  0  0
  2 10  1  0  0  0  0
  3  2  1  0  0  0  0
  4  3  2  0  0  0  0
  5  3  1  0  0  0  0
  5  7  1  0  0  0  0
  6  5  2  0  0  0  0
  7  8  2  0  0  0  0
  7  1  1  0  0  0  0
  8  9  1  0  0  0  0
 10 11  1  0  0  0  0
 11 12  1  0  0  0  0
 12 18  1  0  0  0  0
 12 13  1  0  0  0  0
 14 13  1  0  0  0  0
 15 14  1  0  0  0  0
 16 17  1  0  0  0  0
 16 15  1  0  0  0  0
 17 12  1  0  0  0  0
 20 19  1  0  0  0  0
 21 20  2  0  0  0  0
 22 24  2  0  0  0  0
 22 21  1  0  0  0  0
 23 22  1  0  0  0  0
 24 25  1  0  0  0  0
 25 19  2  0  0  0  0
 26  8  1  0  0  0  0
 27 26  1  0  0  0  0
 28 27  1  0  0  0  0
 29 28  2  0  0  0  0
 29 30  1  0  0  0  0
 30 26  2  0  0  0  0
M  END
>  <Pose>
1

>  <Score>
-7.904

$$$$
