/Users/jonathanwahrer/Desktop/Msc/3_Semester/Drug_Design_Praktikum/waehrer_HTS_screening/HTS_experiment/out/docking_results/vina_output/4x21/1943_docked.pdbqt
 OpenBabel03212202473D

 34 38  0  0  1  0  0  0  0  0999 V2000
   19.8560   36.2800   69.8010 N   0  0  0  0  0  0  0  0  0  0  0  0
   20.4570   36.8330   68.6100 C   0  0  0  0  0  0  0  0  0  0  0  0
   19.8510   37.3100   67.6460 O   0  0  0  0  0  0  0  0  0  0  0  0
   21.9200   36.7470   68.7140 C   0  0  2  0  0  3  0  0  0  0  0  0
   22.6310   36.2070   67.4960 C   0  0  2  0  0  0  0  0  0  0  0  0
   22.7750   34.7810   67.6650 N   0  0  0  0  0  0  0  0  0  0  0  0
   21.9060   34.4130   68.7650 C   0  0  2  0  0  3  0  0  0  0  0  0
   22.0830   35.6020   69.6870 C   0  0  2  0  0  3  0  0  0  0  0  0
   20.9500   35.8130   70.6070 C   0  0  0  0  0  0  0  0  0  0  0  0
   21.0020   35.6100   71.8220 O   0  0  0  0  0  0  0  0  0  0  0  0
   23.9660   36.9000   67.4910 C   0  0  0  0  0  0  0  0  0  0  0  0
   23.9760   37.7680   66.4350 C   0  0  0  0  0  0  0  0  0  0  0  0
   25.0660   38.6170   66.1880 C   0  0  0  0  0  3  0  0  0  0  0  0
   26.1670   38.5890   67.0170 C   0  0  0  0  0  3  0  0  0  0  0  0
   26.1590   37.7180   68.0740 C   0  0  0  0  0  3  0  0  0  0  0  0
   25.0800   36.8910   68.3040 C   0  0  0  0  0  3  0  0  0  0  0  0
   22.8140   37.6120   65.6370 N   0  0  0  0  0  0  0  0  0  0  0  0
   22.0370   36.5820   66.2280 C   0  0  0  0  0  0  0  0  0  0  0  0
   21.0130   36.1040   65.6970 O   0  0  0  0  0  0  0  0  0  0  0  0
   22.4780   34.3230   66.7710 H   0  0  0  0  0  0  0  0  0  0  0  0
   22.5690   38.1650   64.7590 H   0  0  0  0  0  0  0  0  0  0  0  0
   22.3390   33.1340   69.4330 C   0  0  0  0  0  2  0  0  0  0  0  0
   23.7860   32.9770   69.5450 C   0  0  0  0  0  0  0  0  0  0  0  0
   24.4770   32.7290   68.5390 O   0  0  0  0  0  0  0  0  0  0  0  0
   24.4150   33.1040   70.8050 N   0  0  0  0  0  0  0  0  0  0  0  0
   23.9060   33.2530   71.7100 H   0  0  0  0  0  0  0  0  0  0  0  0
   25.4690   33.0560   70.9290 H   0  0  0  0  0  0  0  0  0  0  0  0
   18.5030   36.2010   70.1490 C   0  0  0  0  0  0  0  0  0  0  0  0
   17.6190   37.2290   69.9710 C   0  0  0  0  0  3  0  0  0  0  0  0
   16.2740   37.1480   70.3140 C   0  0  0  0  0  3  0  0  0  0  0  0
   15.7890   35.9850   70.8600 C   0  0  0  0  0  0  0  0  0  0  0  0
   14.0920   35.8630   71.2890 Cl  0  0  0  0  0  0  0  0  0  0  0  0
   16.6410   34.9410   71.0530 C   0  0  0  0  0  3  0  0  0  0  0  0
   17.9900   35.0510   70.6990 C   0  0  0  0  0  3  0  0  0  0  0  0
  1 28  1  0  0  0  0
  1  9  1  0  0  0  0
  2  1  1  0  0  0  0
  3  2  2  0  0  0  0
  4  2  1  6  0  0  0
  4  8  1  0  0  0  0
  5 18  1  6  0  0  0
  5  6  1  0  0  0  0
  5  4  1  0  0  0  0
  6  7  1  0  0  0  0
  7 22  1  1  0  0  0
  7  8  1  0  0  0  0
  8  9  1  1  0  0  0
  9 10  2  0  0  0  0
 11  5  1  0  0  0  0
 11 16  1  0  0  0  0
 12 11  2  0  0  0  0
 13 12  1  0  0  0  0
 13 14  2  0  0  0  0
 14 15  1  0  0  0  0
 15 16  2  0  0  0  0
 17 18  1  0  0  0  0
 17 12  1  0  0  0  0
 19 18  2  0  0  0  0
 20  6  1  0  0  0  0
 21 17  1  0  0  0  0
 22 23  1  0  0  0  0
 23 25  1  0  0  0  0
 24 23  2  0  0  0  0
 25 27  1  0  0  0  0
 25 26  1  0  0  0  0
 28 34  1  0  0  0  0
 29 28  2  0  0  0  0
 29 30  1  0  0  0  0
 30 31  2  0  0  0  0
 31 33  1  0  0  0  0
 31 32  1  0  0  0  0
 34 33  2  0  0  0  0
M  END
>  <Pose>
1

>  <Score>
-9.177

$$$$
