/Users/jonathanwahrer/Desktop/Msc/3_Semester/Drug_Design_Praktikum/waehrer_HTS_screening/HTS_experiment/out/docking_results/vina_output/4x21/1945_docked.pdbqt
 OpenBabel03212202473D

 24 27  0  0  0  0  0  0  0  0999 V2000
   14.5040   35.3600   71.5700 Cl  0  0  0  0  0  0  0  0  0  0  0  0
   16.1310   35.6620   70.9920 C   0  0  0  0  0  0  0  0  0  0  0  0
   17.1930   34.8740   71.3700 C   0  0  0  0  0  3  0  0  0  0  0  0
   18.4860   35.1260   70.9030 C   0  0  0  0  0  0  0  0  0  0  0  0
   18.6740   36.1970   70.0410 C   0  0  0  0  0  0  0  0  0  0  0  0
   17.6230   36.9930   69.6540 C   0  0  0  0  0  3  0  0  0  0  0  0
   16.3590   36.7360   70.1220 C   0  0  0  0  0  3  0  0  0  0  0  0
   20.0200   36.5010   69.5220 C   0  0  0  0  0  0  0  0  0  0  0  0
   20.4640   37.4140   68.7270 N   0  0  0  0  0  0  0  0  0  0  0  0
   21.8800   37.3090   68.5050 C   0  0  0  0  0  3  0  0  0  0  0  0
   22.2940   36.1250   69.3230 C   0  0  0  0  0  3  0  0  0  0  0  0
   21.0790   35.6620   69.9380 N   0  0  0  0  0  0  0  0  0  0  0  0
   20.8540   34.5710   70.8220 C   0  0  0  0  0  0  0  0  0  0  0  0
   21.7860   33.8090   71.2050 O   0  0  0  0  0  0  0  0  0  0  0  0
   19.5410   34.2720   71.3300 N   0  0  0  0  0  0  0  0  0  0  0  0
   19.3340   33.1500   72.2350 C   0  0  0  0  0  2  0  0  0  0  0  0
   18.5650   32.0690   71.5770 C   0  0  0  0  0  0  0  0  0  0  0  0
   18.9670   31.6480   70.4650 O   0  0  0  0  0  0  0  0  0  0  0  0
   17.4030   31.4900   72.1430 N   0  0  0  0  0  0  0  0  0  0  0  0
   17.0830   31.8490   73.0650 H   0  0  0  0  0  0  0  0  0  0  0  0
   16.6720   30.4370   71.4810 C   0  0  0  0  0  2  0  0  0  0  0  0
   15.3260   30.9430   71.0360 C   0  0  0  0  0  3  0  0  0  0  0  0
   14.5190   31.7850   71.9610 C   0  0  0  0  0  2  0  0  0  0  0  0
   14.1230   30.3770   71.7300 C   0  0  0  0  0  2  0  0  0  0  0  0
  2  3  1  0  0  0  0
  2  1  1  0  0  0  0
  4 15  1  0  0  0  0
  4  3  2  0  0  0  0
  5  4  1  0  0  0  0
  6  5  2  0  0  0  0
  6  7  1  0  0  0  0
  7  2  2  0  0  0  0
  8 12  1  0  0  0  0
  8  5  1  0  0  0  0
  9  8  2  0  0  0  0
 10  9  1  0  0  0  0
 10 11  2  0  0  0  0
 11 12  1  0  0  0  0
 12 13  1  0  0  0  0
 13 14  2  0  0  0  0
 13 15  1  0  0  0  0
 15 16  1  0  0  0  0
 17 19  1  0  0  0  0
 17 16  1  0  0  0  0
 18 17  2  0  0  0  0
 19 20  1  0  0  0  0
 21 19  1  0  0  0  0
 22 21  1  0  0  0  0
 22 24  1  0  0  0  0
 22 23  1  0  0  0  0
 24 23  1  0  0  0  0
M  END
>  <Pose>
1

>  <Score>
-7.674

$$$$
