/Users/jonathanwahrer/Desktop/Msc/3_Semester/Drug_Design_Praktikum/waehrer_HTS_screening/HTS_experiment/out/docking_results/vina_output/4x21/1956_docked.pdbqt
 OpenBabel03212202483D

 35 38  0  0  1  0  0  0  0  0999 V2000
   21.1460   35.8070   70.7240 C   0  0  0  0  0  0  0  0  0  0  0  0
   21.0100   34.5140   70.9660 C   0  0  0  0  0  0  0  0  0  0  0  0
   20.3410   33.9180   72.1800 C   0  0  2  0  0  3  0  0  0  0  0  0
   20.7070   32.5320   72.1780 N   0  0  0  0  0  0  0  0  0  0  0  0
   21.3070   32.1720   70.9410 C   0  0  0  0  0  0  0  0  0  0  0  0
   21.6140   31.0320   70.5640 O   0  0  0  0  0  0  0  0  0  0  0  0
   21.4990   33.4270   70.1780 C   0  0  0  0  0  0  0  0  0  0  0  0
   22.0120   33.4880   69.0360 O   0  0  0  0  0  0  0  0  0  0  0  0
   20.6150   36.6800   71.7030 O   0  0  0  0  0  1  0  0  0  0  0  0
   18.8810   34.1530   72.0130 C   0  0  0  0  0  0  0  0  0  0  0  0
   18.3760   34.4700   70.7850 C   0  0  0  0  0  3  0  0  0  0  0  0
   17.0330   34.6710   70.6380 C   0  0  0  0  0  3  0  0  0  0  0  0
   16.1620   34.5620   71.7000 C   0  0  0  0  0  0  0  0  0  0  0  0
   16.6720   34.2410   72.9450 C   0  0  0  0  0  3  0  0  0  0  0  0
   18.0360   34.0380   73.0880 C   0  0  0  0  0  3  0  0  0  0  0  0
   14.7960   34.7680   71.5430 O   0  0  0  0  0  0  0  0  0  0  0  0
   13.9910   33.6640   71.1030 C   0  0  0  0  0  2  0  0  0  0  0  0
   13.5780   33.9060   69.6540 C   0  0  0  0  0  2  0  0  0  0  0  0
   13.1090   35.3510   69.5630 C   0  0  0  0  0  1  0  0  0  0  0  0
   20.5110   31.6090   73.2910 C   0  0  0  0  0  2  0  0  0  0  0  0
   19.7940   30.3920   72.8160 C   0  0  0  0  0  2  0  0  0  0  0  0
   18.3340   30.5680   72.8810 N   0  0  0  0  0  4  0  0  0  0  0  0
   17.7700   29.3750   73.4340 C   0  0  0  0  0  2  0  0  0  0  0  0
   16.2660   29.2870   73.1840 C   0  0  0  0  0  2  0  0  0  0  0  0
   16.0980   29.3490   71.7890 O   0  0  0  0  0  0  0  0  0  0  0  0
   16.4030   30.6360   71.3970 C   0  0  0  0  0  2  0  0  0  0  0  0
   17.8970   30.8510   71.5310 C   0  0  0  0  0  2  0  0  0  0  0  0
   18.0900   31.3850   73.5000 H   0  0  0  0  0  0  0  0  0  0  0  0
   21.7920   36.3220   69.5370 C   0  0  0  0  0  0  0  0  0  0  0  0
   21.0190   36.6460   68.4140 C   0  0  0  0  0  3  0  0  0  0  0  0
   21.5750   37.1020   67.2370 C   0  0  0  0  0  3  0  0  0  0  0  0
   22.9350   37.2600   67.1190 C   0  0  0  0  0  0  0  0  0  0  0  0
   23.7030   37.8340   65.6560 Cl  0  0  0  0  0  0  0  0  0  0  0  0
   23.7170   36.9520   68.1950 C   0  0  0  0  0  3  0  0  0  0  0  0
   23.1490   36.4880   69.3890 C   0  0  0  0  0  3  0  0  0  0  0  0
  1  2  2  0  0  0  0
  1  9  1  0  0  0  0
  2  3  1  0  0  0  0
  3 10  1  6  0  0  0
  4  3  1  0  0  0  0
  4 20  1  0  0  0  0
  5  4  1  0  0  0  0
  6  5  2  0  0  0  0
  7  5  1  0  0  0  0
  7  2  1  0  0  0  0
  8  7  2  0  0  0  0
 10 15  1  0  0  0  0
 11 10  2  0  0  0  0
 12 11  1  0  0  0  0
 12 13  2  0  0  0  0
 13 14  1  0  0  0  0
 14 15  2  0  0  0  0
 16 13  1  0  0  0  0
 17 16  1  0  0  0  0
 18 17  1  0  0  0  0
 19 18  1  0  0  0  0
 21 22  1  0  0  0  0
 21 20  1  0  0  0  0
 22 23  1  0  0  0  0
 22 28  1  0  0  0  0
 24 23  1  0  0  0  0
 25 24  1  0  0  0  0
 26 27  1  0  0  0  0
 26 25  1  0  0  0  0
 27 22  1  0  0  0  0
 29  1  1  0  0  0  0
 30 29  2  0  0  0  0
 31 30  1  0  0  0  0
 32 31  2  0  0  0  0
 32 34  1  0  0  0  0
 33 32  1  0  0  0  0
 34 35  2  0  0  0  0
 35 29  1  0  0  0  0
M  END
>  <Pose>
1

>  <Score>
-8.346

$$$$
