/Users/jonathanwahrer/Desktop/Msc/3_Semester/Drug_Design_Praktikum/waehrer_HTS_screening/HTS_experiment/out/docking_results/vina_output/4x21/1957_docked.pdbqt
 OpenBabel03212202483D

 36 40  0  0  1  0  0  0  0  0999 V2000
   15.4550   30.5570   73.2860 C   0  0  2  0  0  3  0  0  0  0  0  0
   14.8210   31.8310   72.9730 N   0  0  0  0  0  0  0  0  0  0  0  0
   15.6810   32.5030   72.0200 C   0  0  1  0  0  0  0  0  0  0  0  0
   16.2530   31.3580   71.2330 C   0  0  2  0  0  3  0  0  0  0  0  0
   16.4470   30.2570   72.2260 C   0  0  1  0  0  3  0  0  0  0  0  0
   17.8580   30.3680   72.6890 C   0  0  0  0  0  0  0  0  0  0  0  0
   18.3610   29.8130   73.6950 O   0  0  0  0  0  0  0  0  0  0  0  0
   18.5270   31.2400   71.7510 N   0  0  0  0  0  0  0  0  0  0  0  0
   17.6180   31.5890   70.7280 C   0  0  0  0  0  0  0  0  0  0  0  0
   17.8940   32.0220   69.5830 O   0  0  0  0  0  0  0  0  0  0  0  0
   14.9270   33.4400   71.1530 C   0  0  0  0  0  0  0  0  0  0  0  0
   15.4350   34.6950   71.3920 C   0  0  0  0  0  0  0  0  0  0  0  0
   14.9050   35.7760   70.7010 C   0  0  0  0  0  3  0  0  0  0  0  0
   13.8900   35.5640   69.7990 C   0  0  0  0  0  3  0  0  0  0  0  0
   13.3720   34.3050   69.5500 C   0  0  0  0  0  3  0  0  0  0  0  0
   13.9070   33.2400   70.2440 C   0  0  0  0  0  3  0  0  0  0  0  0
   16.4820   34.6480   72.3790 N   0  0  0  0  0  0  0  0  0  0  0  0
   16.6350   33.2970   72.7740 C   0  0  0  0  0  0  0  0  0  0  0  0
   17.4550   32.9130   73.6230 O   0  0  0  0  0  0  0  0  0  0  0  0
   14.6840   32.3860   73.8250 H   0  0  0  0  0  0  0  0  0  0  0  0
   17.0000   35.4970   72.7020 H   0  0  0  0  0  0  0  0  0  0  0  0
   14.3350   29.5580   73.3960 C   0  0  1  0  0  3  0  0  0  0  0  0
   13.8070   29.4220   74.7830 C   0  0  0  0  0  0  0  0  0  0  0  0
   12.4750   29.7190   75.0630 C   0  0  0  0  0  3  0  0  0  0  0  0
   11.9710   29.6220   76.3340 C   0  0  0  0  0  3  0  0  0  0  0  0
   12.7580   29.2240   77.3970 C   0  0  0  0  0  0  0  0  0  0  0  0
   12.1250   29.0950   79.0290 Cl  0  0  0  0  0  0  0  0  0  0  0  0
   14.0700   28.9360   77.0970 C   0  0  0  0  0  3  0  0  0  0  0  0
   14.6000   29.0260   75.8320 C   0  0  0  0  0  3  0  0  0  0  0  0
   13.2900   29.7940   72.5410 O   0  0  0  0  0  0  0  0  0  0  0  0
   12.5190   29.2480   72.8400 H   0  0  0  0  0  0  0  0  0  0  0  0
   19.8860   31.6800   71.8590 C   0  0  0  0  0  2  0  0  0  0  0  0
   20.2010   32.9820   71.2230 C   0  0  0  0  0  2  0  0  0  0  0  0
   20.3080   34.1610   72.1250 C   0  0  0  0  0  2  0  0  0  0  0  0
   19.4640   35.2050   71.7690 O   0  0  0  0  0  0  0  0  0  0  0  0
   19.4180   35.3090   70.3630 C   0  0  0  0  0  1  0  0  0  0  0  0
  1 22  1  6  0  0  0
  2  1  1  0  0  0  0
  2 20  1  0  0  0  0
  3 11  1  6  0  0  0
  3 18  1  0  0  0  0
  3  2  1  0  0  0  0
  4  9  1  1  0  0  0
  4  3  1  0  0  0  0
  4  5  1  0  0  0  0
  5  6  1  1  0  0  0
  5  1  1  0  0  0  0
  6  7  2  0  0  0  0
  8 32  1  0  0  0  0
  8  6  1  0  0  0  0
  9  8  1  0  0  0  0
 10  9  2  0  0  0  0
 11 12  1  0  0  0  0
 12 17  1  0  0  0  0
 13 12  2  0  0  0  0
 14 13  1  0  0  0  0
 15 14  2  0  0  0  0
 15 16  1  0  0  0  0
 16 11  2  0  0  0  0
 17 21  1  0  0  0  0
 17 18  1  0  0  0  0
 18 19  2  0  0  0  0
 22 30  1  6  0  0  0
 22 23  1  0  0  0  0
 23 24  2  0  0  0  0
 23 29  1  0  0  0  0
 24 25  1  0  0  0  0
 25 26  2  0  0  0  0
 26 27  1  0  0  0  0
 28 26  1  0  0  0  0
 29 28  2  0  0  0  0
 30 31  1  0  0  0  0
 33 32  1  0  0  0  0
 33 34  1  0  0  0  0
 35 34  1  0  0  0  0
 36 35  1  0  0  0  0
M  END
>  <Pose>
1

>  <Score>
-8.672

$$$$
