/Users/jonathanwahrer/Desktop/Msc/3_Semester/Drug_Design_Praktikum/waehrer_HTS_screening/HTS_experiment/out/docking_results/vina_output/4x21/1966_docked.pdbqt
 OpenBabel03212202493D

 27 30  0  0  0  0  0  0  0  0999 V2000
   20.1490   34.8040   70.9110 C   0  0  0  0  0  0  0  0  0  0  0  0
   20.7820   34.1400   71.8220 O   0  0  0  0  0  0  0  0  0  0  0  0
   20.7450   35.6930   70.0530 N   0  0  0  0  0  0  0  0  0  0  0  0
   21.3380   36.5780   69.2010 C   0  0  0  0  0  2  0  0  0  0  0  0
   21.9600   35.4630   70.6350 H   0  0  0  0  0  0  0  0  0  0  0  0
   18.7020   34.4620   70.9330 C   0  0  0  0  0  0  0  0  0  0  0  0
   17.6160   35.2940   70.8260 C   0  0  0  0  0  0  0  0  0  0  0  0
   17.6250   36.6410   70.6810 F   0  0  0  0  0  0  0  0  0  0  0  0
   16.4510   34.5780   70.8890 N   0  0  0  0  0  0  0  0  0  0  0  0
   16.8290   33.2990   71.0350 C   0  0  0  0  0  0  0  0  0  0  0  0
   15.1580   34.9390   70.8330 C   0  0  0  0  0  3  0  0  0  0  0  0
   18.1700   33.2300   71.0610 N   0  0  0  0  0  0  0  0  0  0  0  0
   15.8340   32.3560   71.1270 C   0  0  0  0  0  3  0  0  0  0  0  0
   14.4790   32.6880   71.0720 C   0  0  0  0  0  3  0  0  0  0  0  0
   14.1330   34.0040   70.9220 C   0  0  0  0  0  0  0  0  0  0  0  0
   12.4410   34.4960   70.8410 Cl  0  0  0  0  0  0  0  0  0  0  0  0
   20.4160   37.2520   68.2150 C   0  0  0  0  0  0  0  0  0  0  0  0
   20.7340   37.6080   66.9680 N   0  0  0  0  0  0  0  0  0  0  0  0
   19.6650   38.1640   66.4230 N   0  0  0  0  0  0  0  0  0  0  0  0
   18.6720   38.1710   67.2860 N   0  0  0  0  0  0  0  0  0  0  0  0
   19.1470   37.6030   68.3950 N   0  0  0  0  0  0  0  0  0  0  0  0
   22.0250   37.3790   66.4020 C   0  0  0  0  0  0  0  0  0  0  0  0
   22.8620   38.4740   66.2150 C   0  0  0  0  0  3  0  0  0  0  0  0
   24.1240   38.3210   65.6530 C   0  0  0  0  0  3  0  0  0  0  0  0
   24.5860   37.0810   65.2620 C   0  0  0  0  0  3  0  0  0  0  0  0
   23.7510   36.0000   65.4510 C   0  0  0  0  0  3  0  0  0  0  0  0
   22.4940   36.1490   66.0090 C   0  0  0  0  0  3  0  0  0  0  0  0
  1  6  1  0  0  0  0
  1  2  2  0  0  0  0
  3  5  1  0  0  0  0
  3  1  1  0  0  0  0
  4  3  1  0  0  0  0
  6 12  1  0  0  0  0
  7  9  1  0  0  0  0
  7  6  2  0  0  0  0
  8  7  1  0  0  0  0
  9 10  1  0  0  0  0
 10 12  2  0  0  0  0
 10 13  1  0  0  0  0
 11  9  1  0  0  0  0
 11 15  2  0  0  0  0
 14 13  2  0  0  0  0
 15 14  1  0  0  0  0
 16 15  1  0  0  0  0
 17 21  2  0  0  0  0
 17  4  1  0  0  0  0
 18 17  1  0  0  0  0
 19 18  1  0  0  0  0
 19 20  2  0  0  0  0
 20 21  1  0  0  0  0
 22 18  1  0  0  0  0
 23 22  1  0  0  0  0
 24 23  2  0  0  0  0
 25 26  2  0  0  0  0
 25 24  1  0  0  0  0
 26 27  1  0  0  0  0
 27 22  2  0  0  0  0
M  END
>  <Pose>
1

>  <Score>
-8.751

$$$$
