/Users/jonathanwahrer/Desktop/Msc/3_Semester/Drug_Design_Praktikum/waehrer_HTS_screening/HTS_experiment/out/docking_results/vina_output/4x21/1971_docked.pdbqt
 OpenBabel03212202493D

 22 25  0  0  1  0  0  0  0  0999 V2000
   17.4910   33.4920   70.6870 N   0  0  0  0  0  0  0  0  0  0  0  0
   18.4780   32.4650   70.4800 C   0  0  0  0  0  0  0  0  0  0  0  0
   18.2370   31.2340   70.4850 O   0  0  0  0  0  0  0  0  0  0  0  0
   19.7880   33.0750   70.2660 C   0  0  2  0  0  3  0  0  0  0  0  0
   20.7520   32.9300   71.3970 C   0  0  1  0  0  0  0  0  0  0  0  0
   21.5630   34.0730   71.1800 O   0  0  0  0  0  0  0  0  0  0  0  0
   20.5320   35.0350   71.3370 C   0  0  1  0  0  3  0  0  0  0  0  0
   19.5620   34.5960   70.2680 C   0  0  2  0  0  3  0  0  0  0  0  0
   18.1810   34.7360   70.7360 C   0  0  0  0  0  0  0  0  0  0  0  0
   17.6530   35.8040   71.1330 O   0  0  0  0  0  0  0  0  0  0  0  0
   19.9780   34.6280   72.6450 C   0  0  0  0  0  2  0  0  0  0  0  0
   20.1510   33.2870   72.7010 C   0  0  0  0  0  2  0  0  0  0  0  0
   16.0830   33.3450   70.8250 C   0  0  0  0  0  0  0  0  0  0  0  0
   15.1860   34.0080   70.0030 C   0  0  0  0  0  3  0  0  0  0  0  0
   13.8220   33.8630   70.1380 C   0  0  0  0  0  0  0  0  0  0  0  0
   12.7020   34.7080   69.0910 Cl  0  0  0  0  0  0  0  0  0  0  0  0
   13.2890   33.0420   71.1100 C   0  0  0  0  0  3  0  0  0  0  0  0
   14.1750   32.3770   71.9340 C   0  0  0  0  0  3  0  0  0  0  0  0
   15.5490   32.5230   71.7980 C   0  0  0  0  0  3  0  0  0  0  0  0
   21.5490   31.6740   71.3960 C   0  0  0  0  0  2  0  0  0  0  0  0
   21.2690   30.9500   70.2440 O   0  0  0  0  0  0  0  0  0  0  0  0
   21.7940   30.1170   70.2280 H   0  0  0  0  0  0  0  0  0  0  0  0
  1  9  1  0  0  0  0
  1 13  1  0  0  0  0
  2  3  2  0  0  0  0
  2  1  1  0  0  0  0
  4  8  1  0  0  0  0
  4  2  1  1  0  0  0
  4  5  1  0  0  0  0
  5 20  1  1  0  0  0
  5 12  1  0  0  0  0
  6  7  1  0  0  0  0
  6  5  1  0  0  0  0
  7 11  1  1  0  0  0
  8  9  1  1  0  0  0
  8  7  1  0  0  0  0
  9 10  2  0  0  0  0
 11 12  1  0  0  0  0
 13 19  1  0  0  0  0
 14 15  1  0  0  0  0
 14 13  2  0  0  0  0
 15 17  2  0  0  0  0
 16 15  1  0  0  0  0
 17 18  1  0  0  0  0
 19 18  2  0  0  0  0
 21 20  1  0  0  0  0
 22 21  1  0  0  0  0
M  END
>  <Pose>
1

>  <Score>
-7.879

$$$$
