/Users/jonathanwahrer/Desktop/Msc/3_Semester/Drug_Design_Praktikum/waehrer_HTS_screening/HTS_experiment/out/docking_results/vina_output/4x21/1973_docked.pdbqt
 OpenBabel03212202493D

 24 27  0  0  1  0  0  0  0  0999 V2000
   13.1010   36.8440   69.5660 Cl  0  0  0  0  0  0  0  0  0  0  0  0
   14.6450   36.1580   70.0720 C   0  0  0  0  0  0  0  0  0  0  0  0
   15.8470   36.7720   69.7850 C   0  0  0  0  0  2  0  0  0  0  0  0
   17.0430   36.2610   70.1650 N   0  0  0  0  0  0  0  0  0  0  0  0
   17.1300   35.1080   70.8550 C   0  0  0  0  0  0  0  0  0  0  0  0
   18.3200   34.5800   71.2450 N   0  0  0  0  0  0  0  0  0  0  0  0
   19.4970   35.1720   70.9690 C   0  0  0  0  0  0  0  0  0  0  0  0
   19.4230   36.3650   70.2570 C   0  0  1  0  0  3  0  0  0  0  0  0
   20.7220   37.0200   69.9500 C   0  0  0  0  0  2  0  0  0  0  0  0
   21.5950   35.9410   69.4740 N   0  0  0  0  0  0  0  0  0  0  0  0
   21.8910   34.8740   70.3880 C   0  0  0  0  0  2  0  0  0  0  0  0
   20.8040   34.6070   71.3910 C   0  0  0  0  0  2  0  0  0  0  0  0
   22.1110   35.9600   68.1600 C   0  0  0  0  0  0  0  0  0  0  0  0
   21.7740   36.9460   67.4200 O   0  0  0  0  0  0  0  0  0  0  0  0
   18.2030   36.8770   69.8750 C   0  0  0  0  0  0  0  0  0  0  0  0
   18.1630   37.9700   69.2230 O   0  0  0  0  0  0  0  0  0  0  0  0
   15.9350   34.4760   71.1530 C   0  0  0  0  0  3  0  0  0  0  0  0
   14.7050   34.9750   70.7770 C   0  0  0  0  0  3  0  0  0  0  0  0
   23.0040   34.9050   67.6310 C   0  0  0  0  0  3  0  0  0  0  0  0
   24.2930   34.8000   68.4150 C   0  0  0  0  0  2  0  0  0  0  0  0
   24.7310   36.2330   68.6850 C   0  0  0  0  0  2  0  0  0  0  0  0
   24.4620   37.0340   67.5760 O   0  0  0  0  0  0  0  0  0  0  0  0
   24.5610   36.3070   66.3830 C   0  0  0  0  0  2  0  0  0  0  0  0
   23.4220   35.3190   66.2120 C   0  0  0  0  0  2  0  0  0  0  0  0
  1  2  1  0  0  0  0
  2 18  2  0  0  0  0
  3  2  1  0  0  0  0
  3  4  1  0  0  0  0
  4  5  1  0  0  0  0
  5 17  2  0  0  0  0
  5  6  1  0  0  0  0
  7  6  2  0  0  0  0
  7 12  1  0  0  0  0
  8  9  1  6  0  0  0
  8  7  1  0  0  0  0
 10  9  1  0  0  0  0
 10 11  1  0  0  0  0
 11 12  1  0  0  0  0
 13 10  1  0  0  0  0
 14 13  2  0  0  0  0
 15  4  1  0  0  0  0
 15  8  1  0  0  0  0
 16 15  2  0  0  0  0
 18 17  1  0  0  0  0
 19 13  1  0  0  0  0
 19 20  1  0  0  0  0
 20 21  1  0  0  0  0
 22 21  1  0  0  0  0
 23 22  1  0  0  0  0
 24 23  1  0  0  0  0
 24 19  1  0  0  0  0
M  END
>  <Pose>
1

>  <Score>
-8.394

$$$$
