/Users/jonathanwahrer/Desktop/Msc/3_Semester/Drug_Design_Praktikum/waehrer_HTS_screening/HTS_experiment/out/docking_results/vina_output/4x21/1974_docked.pdbqt
 OpenBabel03212202493D

 26 29  0  0  0  0  0  0  0  0999 V2000
   16.6070   35.6780   71.4570 F   0  0  0  0  0  0  0  0  0  0  0  0
   15.9190   34.5110   71.4130 C   0  0  0  0  0  0  0  0  0  0  0  0
   16.6340   33.3230   71.4530 C   0  0  0  0  0  0  0  0  0  0  0  0
   16.0030   32.0990   71.4120 C   0  0  0  0  0  0  0  0  0  0  0  0
   14.6210   32.0920   71.3290 C   0  0  0  0  0  0  0  0  0  0  0  0
   13.9110   33.2690   71.2910 C   0  0  0  0  0  3  0  0  0  0  0  0
   14.5470   34.4880   71.3310 C   0  0  0  0  0  3  0  0  0  0  0  0
   13.8120   30.5350   71.2770 Cl  0  0  0  0  0  0  0  0  0  0  0  0
   16.9580   31.0120   71.4660 C   0  0  0  0  0  0  0  0  0  0  0  0
   16.7390   29.7800   71.4490 O   0  0  0  0  0  0  0  0  0  0  0  0
   18.2660   31.6500   71.5450 C   0  0  0  0  0  0  0  0  0  0  0  0
   19.3790   31.0390   71.6100 O   0  0  0  0  0  0  0  0  0  0  0  0
   18.0490   33.0520   71.5360 N   0  0  0  0  0  0  0  0  0  0  0  0
   19.0580   34.0890   71.5960 C   0  0  0  0  0  2  0  0  0  0  0  0
   19.3980   34.6370   70.2990 N   0  0  0  0  0  0  0  0  0  0  0  0
   19.7970   35.9980   70.4070 C   0  0  0  0  0  2  0  0  0  0  0  0
   20.9980   36.3810   69.6160 C   0  0  0  0  0  2  0  0  0  0  0  0
   22.0250   35.3720   69.5970 N   0  0  0  0  0  0  0  0  0  0  0  0
   21.6730   34.0230   69.9750 C   0  0  0  0  0  2  0  0  0  0  0  0
   20.2470   33.8010   69.5200 C   0  0  0  0  0  2  0  0  0  0  0  0
   23.3580   35.6540   69.2220 C   0  0  0  0  0  0  0  0  0  0  0  0
   24.2290   34.6710   68.9400 N   0  0  0  0  0  0  0  0  0  0  0  0
   25.5040   34.9140   68.5810 C   0  0  0  0  0  3  0  0  0  0  0  0
   25.9690   36.2120   68.4890 C   0  0  0  0  0  3  0  0  0  0  0  0
   25.1030   37.1990   68.7690 N   0  0  0  0  0  0  0  0  0  0  0  0
   23.8280   36.9580   69.1280 C   0  0  0  0  0  3  0  0  0  0  0  0
  2  3  1  0  0  0  0
  2  1  1  0  0  0  0
  3 13  1  0  0  0  0
  4  3  2  0  0  0  0
  4  9  1  0  0  0  0
  5  4  1  0  0  0  0
  6  5  2  0  0  0  0
  6  7  1  0  0  0  0
  7  2  2  0  0  0  0
  8  5  1  0  0  0  0
  9 11  1  0  0  0  0
 10  9  2  0  0  0  0
 11 12  2  0  0  0  0
 13 11  1  0  0  0  0
 13 14  1  0  0  0  0
 15 16  1  0  0  0  0
 15 14  1  0  0  0  0
 17 16  1  0  0  0  0
 18 17  1  0  0  0  0
 18 19  1  0  0  0  0
 20 19  1  0  0  0  0
 20 15  1  0  0  0  0
 21 18  1  0  0  0  0
 22 21  2  0  0  0  0
 23 22  1  0  0  0  0
 24 23  2  0  0  0  0
 24 25  1  0  0  0  0
 25 26  2  0  0  0  0
 26 21  1  0  0  0  0
M  END
>  <Pose>
1

>  <Score>
-8.275

$$$$
