/Users/jonathanwahrer/Desktop/Msc/3_Semester/Drug_Design_Praktikum/waehrer_HTS_screening/HTS_experiment/out/docking_results/vina_output/4x21/1982_docked.pdbqt
 OpenBabel03212202493D

 25 28  0  0  0  0  0  0  0  0999 V2000
   21.0720   35.9700   70.9210 Cl  0  0  0  0  0  0  0  0  0  0  0  0
   19.3400   35.9810   70.6700 C   0  0  0  0  0  0  0  0  0  0  0  0
   18.5100   34.9930   71.1570 C   0  0  0  0  0  3  0  0  0  0  0  0
   17.1430   34.9880   70.9660 C   0  0  0  0  0  0  0  0  0  0  0  0
   16.5950   36.0350   70.2480 C   0  0  0  0  0  0  0  0  0  0  0  0
   17.4150   37.0290   69.7570 C   0  0  0  0  0  3  0  0  0  0  0  0
   18.7810   37.0330   69.9480 C   0  0  0  0  0  3  0  0  0  0  0  0
   15.1320   36.0520   70.0320 C   0  0  0  0  0  0  0  0  0  0  0  0
   14.3910   36.8780   69.4220 N   0  0  0  0  0  0  0  0  0  0  0  0
   12.9880   36.5220   69.4410 C   0  0  0  0  0  3  0  0  0  0  0  0
   12.9280   35.2450   70.2130 C   0  0  0  0  0  3  0  0  0  0  0  0
   14.3180   35.0110   70.5530 N   0  0  0  0  0  0  0  0  0  0  0  0
   14.9630   33.9670   71.2830 C   0  0  0  0  0  0  0  0  0  0  0  0
   14.4590   32.8730   71.8810 N   0  0  0  0  0  0  0  0  0  0  0  0
   15.4170   32.1620   72.4510 N   0  0  0  0  0  0  0  0  0  0  0  0
   16.5610   32.8440   72.1960 C   0  0  0  0  0  0  0  0  0  0  0  0
   17.6850   32.4640   72.5870 O   0  0  0  0  0  0  0  0  0  0  0  0
   16.3070   33.9530   71.4820 N   0  0  0  0  0  0  0  0  0  0  0  0
   15.2720   30.9220   73.1890 C   0  0  0  0  0  2  0  0  0  0  0  0
   15.5030   29.7390   72.2380 C   0  0  0  0  0  2  0  0  0  0  0  0
   16.7020   28.9720   72.6610 C   0  0  0  0  0  0  0  0  0  0  0  0
   16.9850   27.8180   72.2540 O   0  0  0  0  0  0  0  0  0  0  0  0
   17.5880   29.5830   73.5850 N   0  0  0  0  0  0  0  0  0  0  0  0
   17.2730   30.1760   74.3740 H   0  0  0  0  0  0  0  0  0  0  0  0
   18.6090   29.4230   73.4570 H   0  0  0  0  0  0  0  0  0  0  0  0
  2  1  1  0  0  0  0
  2  3  1  0  0  0  0
  4  3  2  0  0  0  0
  4 18  1  0  0  0  0
  5  4  1  0  0  0  0
  6  7  1  0  0  0  0
  6  5  2  0  0  0  0
  7  2  2  0  0  0  0
  8  5  1  0  0  0  0
  8 12  1  0  0  0  0
  9 10  1  0  0  0  0
  9  8  2  0  0  0  0
 10 11  2  0  0  0  0
 11 12  1  0  0  0  0
 12 13  1  0  0  0  0
 13 18  1  0  0  0  0
 13 14  2  0  0  0  0
 14 15  1  0  0  0  0
 15 19  1  0  0  0  0
 16 15  1  0  0  0  0
 16 17  2  0  0  0  0
 18 16  1  0  0  0  0
 20 21  1  0  0  0  0
 20 19  1  0  0  0  0
 21 23  1  0  0  0  0
 22 21  2  0  0  0  0
 23 24  1  0  0  0  0
 25 23  1  0  0  0  0
M  END
>  <Pose>
1

>  <Score>
-8.130

$$$$
