/Users/jonathanwahrer/Desktop/Msc/3_Semester/Drug_Design_Praktikum/waehrer_HTS_screening/HTS_experiment/out/docking_results/vina_output/4x21/1986_docked.pdbqt
 OpenBabel03212202503D

 30 33  0  0  0  0  0  0  0  0999 V2000
   19.5560   38.2800   66.2000 Cl  0  0  0  0  0  0  0  0  0  0  0  0
   20.4850   37.1460   67.1640 C   0  0  0  0  0  0  0  0  0  0  0  0
   21.5940   36.5110   66.6420 C   0  0  0  0  0  2  0  0  0  0  0  0
   22.3360   35.6050   67.4100 C   0  0  0  0  0  0  0  0  0  0  0  0
   21.9050   35.3880   68.6940 C   0  0  0  0  0  0  0  0  0  0  0  0
   20.7790   36.0360   69.2210 C   0  0  0  0  0  3  0  0  0  0  0  0
   20.0560   36.9250   68.4570 C   0  0  0  0  0  3  0  0  0  0  0  0
   22.6260   34.4930   69.4790 O   0  0  0  0  0  0  0  0  0  0  0  0
   23.7460   33.8180   69.0270 C   0  0  0  0  0  0  0  0  0  0  0  0
   24.1800   34.0380   67.7290 C   0  0  0  0  0  0  0  0  0  0  0  0
   23.5100   34.9530   66.7980 C   0  0  0  0  0  0  0  0  0  0  0  0
   25.3030   33.3430   67.3250 C   0  0  0  0  0  0  0  0  0  0  0  0
   25.7480   33.5040   66.1440 O   0  0  0  0  0  0  0  0  0  0  0  0
   25.9820   32.4840   68.1010 N   0  0  0  0  0  0  0  0  0  0  0  0
   25.5210   32.3010   69.3620 C   0  0  0  0  0  0  0  0  0  0  0  0
   26.1740   31.4900   70.0730 O   0  0  0  0  0  0  0  0  0  0  0  0
   24.4310   32.9570   69.7990 N   0  0  0  0  0  0  0  0  0  0  0  0
   24.0000   32.7070   71.1600 C   0  0  0  0  0  1  0  0  0  0  0  0
   27.1690   31.7740   67.6220 C   0  0  0  0  0  1  0  0  0  0  0  0
   24.4790   36.0110   66.3620 C   0  0  0  0  0  3  0  0  0  0  0  0
   24.8010   36.1680   65.0310 C   0  0  0  0  0  0  0  0  0  0  0  0
   25.6830   37.1310   64.6480 N   0  0  0  0  0  0  0  0  0  0  0  0
   24.2250   35.3500   64.1000 O   0  0  0  0  0  0  0  0  0  0  0  0
   26.2560   37.9450   65.5690 C   0  0  0  0  0  0  0  0  0  0  0  0
   25.9810   37.2480   63.2240 C   0  0  0  0  0  1  0  0  0  0  0  0
   27.0710   38.8270   65.1760 O   0  0  0  0  0  0  0  0  0  0  0  0
   25.9620   37.8160   66.8720 N   0  0  0  0  0  0  0  0  0  0  0  0
   25.0900   36.8650   67.2580 C   0  0  0  0  0  0  0  0  0  0  0  0
   26.5980   38.7080   67.8370 C   0  0  0  0  0  1  0  0  0  0  0  0
   24.8290   36.7580   68.4640 O   0  0  0  0  0  0  0  0  0  0  0  0
  1  2  1  0  0  0  0
  2  7  2  0  0  0  0
  3  2  1  0  0  0  0
  3  4  1  0  0  0  0
  4  5  1  0  0  0  0
  5  6  2  0  0  0  0
  5  8  1  0  0  0  0
  7  6  1  0  0  0  0
  9  8  1  0  0  0  0
  9 17  1  0  0  0  0
 10  9  2  0  0  0  0
 11  4  2  0  0  0  0
 11 10  1  0  0  0  0
 12 10  1  0  0  0  0
 12 14  1  0  0  0  0
 13 12  2  0  0  0  0
 14 15  1  0  0  0  0
 15 17  1  0  0  0  0
 15 16  2  0  0  0  0
 17 18  1  0  0  0  0
 19 14  1  0  0  0  0
 20 11  1  0  0  0  0
 20 28  1  0  0  0  0
 21 20  1  0  0  0  0
 22 21  1  0  0  0  0
 22 24  1  0  0  0  0
 23 21  2  0  0  0  0
 24 27  1  0  0  0  0
 25 22  1  0  0  0  0
 26 24  2  0  0  0  0
 27 28  1  0  0  0  0
 27 29  1  0  0  0  0
 28 30  2  0  0  0  0
M  END
>  <Pose>
1

>  <Score>
-7.576

$$$$
