/Users/jonathanwahrer/Desktop/Msc/3_Semester/Drug_Design_Praktikum/waehrer_HTS_screening/HTS_experiment/out/docking_results/vina_output/4x21/2003_docked.pdbqt
 OpenBabel03212202503D

 28 31  0  0  0  0  0  0  0  0999 V2000
   23.5480   34.4620   68.0200 N   0  0  0  0  0  0  0  0  0  0  0  0
   22.1940   34.5530   67.5670 C   0  0  0  0  0  2  0  0  0  0  0  0
   21.2330   34.9840   68.6440 C   0  0  0  0  0  2  0  0  0  0  0  0
   21.8140   35.9540   69.5430 N   0  0  0  0  0  0  0  0  0  0  0  0
   23.1480   36.4720   69.3990 C   0  0  0  0  0  3  0  0  0  0  0  0
   24.0810   35.6390   68.6070 C   0  0  0  0  0  3  0  0  0  0  0  0
   21.0220   36.4230   70.6260 C   0  0  0  0  0  0  0  0  0  0  0  0
   21.4770   37.2800   71.4550 O   0  0  0  0  0  0  0  0  0  0  0  0
   19.6580   35.9350   70.8260 C   0  0  0  0  0  0  0  0  0  0  0  0
   19.3600   34.7970   71.5500 C   0  0  0  0  0  3  0  0  0  0  0  0
   18.0790   34.4090   71.6930 N   0  0  0  0  0  0  0  0  0  0  0  0
   17.0390   35.0760   71.1620 C   0  0  0  0  0  0  0  0  0  0  0  0
   17.3120   36.1880   70.4550 N   0  0  0  0  0  0  0  0  0  0  0  0
   15.7300   34.6440   71.3320 C   0  0  0  0  0  3  0  0  0  0  0  0
   16.2830   36.8710   69.9150 C   0  0  0  0  0  3  0  0  0  0  0  0
   18.5800   36.6090   70.2880 C   0  0  0  0  0  0  0  0  0  0  0  0
   14.9720   36.4660   70.0650 C   0  0  0  0  0  3  0  0  0  0  0  0
   14.6580   35.3300   70.7860 C   0  0  0  0  0  3  0  0  0  0  0  0
   18.8360   37.6460   69.6270 O   0  0  0  0  0  0  0  0  0  0  0  0
   24.5890   33.6370   66.9700 S   0  0  0  0  0  0  0  0  0  0  0  0
   25.5860   32.8400   67.7190 O   0  0  0  0  0  0  0  0  0  0  0  0
   23.7660   32.7280   66.0850 O   0  0  0  0  0  0  0  0  0  0  0  0
   25.4150   34.8220   65.9420 C   0  0  0  0  0  0  0  0  0  0  0  0
   24.7560   36.0390   64.9470 S   0  0  0  0  0  0  0  0  0  0  0  0
   26.2030   36.7000   64.3350 C   0  0  0  0  0  0  0  0  0  0  0  0
   27.1690   35.9400   64.9350 C   0  0  0  0  0  3  0  0  0  0  0  0
   26.4450   38.0430   63.1990 Cl  0  0  0  0  0  0  0  0  0  0  0  0
   26.7660   34.9720   65.7630 C   0  0  0  0  0  3  0  0  0  0  0  0
  1  6  1  0  0  0  0
  2  1  1  0  0  0  0
  2  3  1  0  0  0  0
  3  4  1  0  0  0  0
  4  7  1  0  0  0  0
  5  4  1  0  0  0  0
  6  5  2  0  0  0  0
  7  9  1  0  0  0  0
  7  8  2  0  0  0  0
  9 10  2  0  0  0  0
 10 11  1  0  0  0  0
 12 14  1  0  0  0  0
 12 11  2  0  0  0  0
 13 12  1  0  0  0  0
 15 17  2  0  0  0  0
 15 13  1  0  0  0  0
 16 13  1  0  0  0  0
 16  9  1  0  0  0  0
 17 18  1  0  0  0  0
 18 14  2  0  0  0  0
 19 16  2  0  0  0  0
 20 21  2  0  0  0  0
 20  1  1  0  0  0  0
 22 20  2  0  0  0  0
 23 20  1  0  0  0  0
 24 23  1  0  0  0  0
 25 26  2  0  0  0  0
 25 24  1  0  0  0  0
 26 28  1  0  0  0  0
 27 25  1  0  0  0  0
 28 23  2  0  0  0  0
M  END
>  <Pose>
1

>  <Score>
-8.783

$$$$
