/Users/jonathanwahrer/Desktop/Msc/3_Semester/Drug_Design_Praktikum/waehrer_HTS_screening/HTS_experiment/out/docking_results/vina_output/4x21/2004_docked.pdbqt
 OpenBabel03212202503D

 29 32  0  0  1  0  0  0  0  0999 V2000
   20.2280   34.7860   71.6390 S   0  0  0  0  0  0  0  0  0  0  0  0
   20.7690   36.1190   72.1350 O   0  0  0  0  0  0  0  0  0  0  0  0
   20.3600   33.8620   72.8490 O   0  0  0  0  0  0  0  0  0  0  0  0
   21.1500   34.1780   70.3820 N   0  0  0  0  0  0  0  0  0  0  0  0
   22.2140   33.3280   70.6920 C   0  0  0  0  0  2  0  0  0  0  0  0
   22.8010   32.6310   69.4550 C   0  0  0  0  0  2  0  0  0  0  0  0
   22.8360   33.5090   68.3230 N   0  0  0  0  0  0  0  0  0  0  0  0
   21.6690   34.3200   68.0550 C   0  0  0  0  0  2  0  0  0  0  0  0
   23.9720   33.5710   67.5080 C   0  0  0  0  0  0  0  0  0  0  0  0
   21.3980   35.1180   69.3150 C   0  0  0  0  0  2  0  0  0  0  0  0
   24.9750   32.8580   67.7610 O   0  0  0  0  0  0  0  0  0  0  0  0
   24.0550   34.4720   66.3150 C   0  0  0  0  0  3  0  0  0  0  0  0
   25.3300   34.3100   65.5210 C   0  0  0  0  0  2  0  0  0  0  0  0
   25.9330   35.4090   66.3920 C   0  0  0  0  0  2  0  0  0  0  0  0
   24.5010   35.8620   66.6940 C   0  0  0  0  0  2  0  0  0  0  0  0
   18.5140   34.9730   71.3380 C   0  0  0  0  0  0  0  0  0  0  0  0
   17.6230   34.0400   71.9060 C   0  0  0  0  0  3  0  0  0  0  0  0
   16.2700   34.0990   71.6580 C   0  0  0  0  0  0  0  0  0  0  0  0
   15.7070   35.0590   70.8480 C   0  0  0  0  0  0  0  0  0  0  0  0
   15.4090   33.1640   72.2330 O   0  0  0  0  0  0  0  0  0  0  0  0
   16.5720   35.9710   70.2950 C   0  0  0  0  0  3  0  0  0  0  0  0
   14.3090   35.0630   70.6310 N   0  0  0  0  0  0  0  0  0  0  0  0
   17.9530   35.9290   70.5360 C   0  0  0  0  0  0  0  0  0  0  0  0
   18.9750   37.1720   69.8550 Cl  0  0  0  0  0  0  0  0  0  0  0  0
   13.4440   34.1000   71.2220 C   0  0  0  0  0  0  0  0  0  0  0  0
   13.8860   35.7960   70.0150 H   0  0  0  0  0  0  0  0  0  0  0  0
   12.2040   34.1960   71.2820 O   0  0  0  0  0  0  0  0  0  0  0  0
   14.1020   32.9000   71.8020 C   0  0  1  0  0  3  0  0  0  0  0  0
   14.1550   31.7770   70.7900 C   0  0  0  0  0  1  0  0  0  0  0  0
  1  2  2  0  0  0  0
  1  3  2  0  0  0  0
  4  5  1  0  0  0  0
  4  1  1  0  0  0  0
  6  5  1  0  0  0  0
  7  6  1  0  0  0  0
  8  7  1  0  0  0  0
  8 10  1  0  0  0  0
  9 11  2  0  0  0  0
  9  7  1  0  0  0  0
 10  4  1  0  0  0  0
 12 15  1  0  0  0  0
 12  9  1  0  0  0  0
 13 12  1  0  0  0  0
 13 14  1  0  0  0  0
 14 15  1  0  0  0  0
 16  1  1  0  0  0  0
 16 17  1  0  0  0  0
 18 17  2  0  0  0  0
 18 20  1  0  0  0  0
 19 18  1  0  0  0  0
 21 23  1  0  0  0  0
 21 19  2  0  0  0  0
 22 19  1  0  0  0  0
 22 25  1  0  0  0  0
 23 16  2  0  0  0  0
 24 23  1  0  0  0  0
 25 27  2  0  0  0  0
 25 28  1  0  0  0  0
 26 22  1  0  0  0  0
 28 29  1  6  0  0  0
 28 20  1  0  0  0  0
M  END
>  <Pose>
1

>  <Score>
-9.426

$$$$
