/Users/jonathanwahrer/Desktop/Msc/3_Semester/Drug_Design_Praktikum/waehrer_HTS_screening/HTS_experiment/out/docking_results/vina_output/4x21/2012_docked.pdbqt
 OpenBabel03212202503D

 25 28  0  0  1  0  0  0  0  0999 V2000
   19.4230   36.3800   69.4900 N   0  0  0  0  0  0  0  0  0  0  0  0
   18.5400   37.4050   69.0500 C   0  0  0  0  0  0  0  0  0  0  0  0
   18.7190   38.0990   68.0350 O   0  0  0  0  0  0  0  0  0  0  0  0
   17.4050   37.5020   69.9840 C   0  0  1  0  0  3  0  0  0  0  0  0
   16.1800   37.7930   69.4750 O   0  0  0  0  0  0  0  0  0  0  0  0
   15.3370   37.0460   70.2760 N   0  0  0  0  0  0  0  0  0  0  0  0
   15.9720   35.7930   70.5420 C   0  0  0  0  0  0  0  0  0  0  0  0
   17.2610   36.0560   70.3590 C   0  0  0  0  0  0  0  0  0  0  0  0
   18.6120   35.5150   70.3280 C   0  0  0  0  0  0  0  0  0  0  0  0
   18.9600   34.4750   70.9420 O   0  0  0  0  0  0  0  0  0  0  0  0
   14.4180   37.3780   70.6110 H   0  0  0  0  0  0  0  0  0  0  0  0
   20.8000   36.1480   69.2170 C   0  0  0  0  0  0  0  0  0  0  0  0
   21.2320   35.0520   68.5080 C   0  0  0  0  0  3  0  0  0  0  0  0
   22.5990   34.9090   68.2870 C   0  0  0  0  0  0  0  0  0  0  0  0
   23.2170   33.5250   67.3910 Cl  0  0  0  0  0  0  0  0  0  0  0  0
   23.4860   35.8480   68.7710 C   0  0  0  0  0  3  0  0  0  0  0  0
   23.0490   36.9530   69.4830 C   0  0  0  0  0  3  0  0  0  0  0  0
   21.7120   37.0980   69.7030 C   0  0  0  0  0  3  0  0  0  0  0  0
   15.3720   34.5430   70.9640 C   0  0  0  0  0  0  0  0  0  0  0  0
   15.9040   33.7910   72.0170 C   0  0  0  0  0  3  0  0  0  0  0  0
   15.1720   32.6820   72.1920 N   0  0  0  0  0  0  0  0  0  0  0  0
   14.1880   32.6910   71.2900 N   0  0  0  0  0  0  0  0  0  0  0  0
   15.3480   31.6070   73.1630 C   0  0  0  0  0  1  0  0  0  0  0  0
   14.3000   33.8120   70.5410 C   0  0  0  0  0  0  0  0  0  0  0  0
   13.4090   34.1900   69.4150 C   0  0  0  0  0  1  0  0  0  0  0  0
  1  9  1  0  0  0  0
  2  1  1  0  0  0  0
  3  2  2  0  0  0  0
  4  2  1  6  0  0  0
  4  8  1  0  0  0  0
  5  4  1  0  0  0  0
  5  6  1  0  0  0  0
  6  7  1  0  0  0  0
  6 11  1  0  0  0  0
  7 19  1  0  0  0  0
  8  7  2  0  0  0  0
  9  8  1  0  0  0  0
  9 10  2  0  0  0  0
 12  1  1  0  0  0  0
 12 18  1  0  0  0  0
 13 12  2  0  0  0  0
 14 13  1  0  0  0  0
 14 16  2  0  0  0  0
 15 14  1  0  0  0  0
 16 17  1  0  0  0  0
 17 18  2  0  0  0  0
 19 20  2  0  0  0  0
 20 21  1  0  0  0  0
 21 23  1  0  0  0  0
 22 21  1  0  0  0  0
 24 19  1  0  0  0  0
 24 22  2  0  0  0  0
 25 24  1  0  0  0  0
M  END
>  <Pose>
1

>  <Score>
-8.845

$$$$
