/Users/jonathanwahrer/Desktop/Msc/3_Semester/Drug_Design_Praktikum/waehrer_HTS_screening/HTS_experiment/out/docking_results/vina_output/4x21/2014_docked.pdbqt
 OpenBabel03212202503D

 26 29  0  0  0  0  0  0  0  0999 V2000
   19.2830   33.3990   70.5730 C   0  0  0  0  0  0  0  0  0  0  0  0
   17.9990   33.0900   70.7270 N   0  0  0  0  0  0  0  0  0  0  0  0
   17.8630   31.7440   70.9130 C   0  0  0  0  0  0  0  0  0  0  0  0
   19.1240   31.2530   70.8680 N   0  0  0  0  0  0  0  0  0  0  0  0
   19.9760   32.2210   70.6670 N   0  0  0  0  0  0  0  0  0  0  0  0
   16.5720   31.4170   71.0730 N   0  0  0  0  0  0  0  0  0  0  0  0
   15.8360   32.5190   71.0010 C   0  0  0  0  0  0  0  0  0  0  0  0
   16.7340   33.5780   70.7840 C   0  0  0  0  0  0  0  0  0  0  0  0
   16.2670   34.8290   70.6810 N   0  0  0  0  0  0  0  0  0  0  0  0
   14.9250   35.0200   70.7890 C   0  0  0  0  0  0  0  0  0  0  0  0
   14.5100   36.2170   70.6850 O   0  0  0  0  0  0  0  0  0  0  0  0
   14.0330   34.0540   70.9910 N   0  0  0  0  0  0  0  0  0  0  0  0
   14.4950   32.8060   71.0970 C   0  0  0  0  0  0  0  0  0  0  0  0
   13.6950   31.8540   71.2890 O   0  0  0  0  0  0  0  0  0  0  0  0
   12.5930   34.3460   71.0950 C   0  0  0  0  0  1  0  0  0  0  0  0
   17.1300   35.9590   70.4980 C   0  0  0  0  0  1  0  0  0  0  0  0
   16.0410   30.0870   71.2900 C   0  0  0  0  0  1  0  0  0  0  0  0
   19.9870   34.6590   70.3550 C   0  0  0  0  0  0  0  0  0  0  0  0
   20.0740   35.2120   69.0800 C   0  0  0  0  0  3  0  0  0  0  0  0
   20.6700   36.4310   68.9020 C   0  0  0  0  0  0  0  0  0  0  0  0
   20.7990   37.2070   67.1530 Br  0  0  0  0  0  0  0  0  0  0  0  0
   21.2080   37.1700   69.9410 C   0  0  0  0  0  3  0  0  0  0  0  0
   21.1140   36.6080   71.2030 C   0  0  0  0  0  3  0  0  0  0  0  0
   20.5220   35.3940   71.3920 C   0  0  0  0  0  0  0  0  0  0  0  0
   20.4200   34.8100   72.6740 O   0  0  0  0  0  0  0  0  0  0  0  0
   19.1690   34.7110   73.3290 C   0  0  0  0  0  1  0  0  0  0  0  0
  1  5  2  0  0  0  0
  1  2  1  0  0  0  0
  2  8  1  0  0  0  0
  2  3  1  0  0  0  0
  3  6  1  0  0  0  0
  4  3  2  0  0  0  0
  5  4  1  0  0  0  0
  6 17  1  0  0  0  0
  7  6  1  0  0  0  0
  7 13  1  0  0  0  0
  8  7  2  0  0  0  0
  9  8  1  0  0  0  0
  9 10  1  0  0  0  0
 10 12  1  0  0  0  0
 11 10  2  0  0  0  0
 12 15  1  0  0  0  0
 12 13  1  0  0  0  0
 13 14  2  0  0  0  0
 16  9  1  0  0  0  0
 18  1  1  0  0  0  0
 18 24  1  0  0  0  0
 19 18  2  0  0  0  0
 20 19  1  0  0  0  0
 20 22  2  0  0  0  0
 21 20  1  0  0  0  0
 22 23  1  0  0  0  0
 23 24  2  0  0  0  0
 24 25  1  0  0  0  0
 25 26  1  0  0  0  0
M  END
>  <Pose>
1

>  <Score>
-7.970

$$$$
