/Users/jonathanwahrer/Desktop/Msc/3_Semester/Drug_Design_Praktikum/waehrer_HTS_screening/HTS_experiment/out/docking_results/vina_output/4x21/2020_docked.pdbqt
 OpenBabel03212202513D

 22 24  0  0  1  0  0  0  0  0999 V2000
   16.8670   32.6600   72.8460 C   0  0  2  0  0  3  0  0  0  0  0  0
   17.9430   31.7110   72.2490 C   0  0  2  0  0  3  0  0  0  0  0  0
   17.4650   31.7550   70.7850 C   0  0  0  0  0  0  0  0  0  0  0  0
   18.2030   31.9490   69.8360 O   0  0  0  0  0  0  0  0  0  0  0  0
   16.0380   31.5350   70.7100 N   0  0  0  0  0  0  0  0  0  0  0  0
   15.4680   30.8890   71.9070 C   0  0  1  0  0  0  0  0  0  0  0  0
   16.4030   29.7860   72.1690 N   0  0  0  0  0  0  0  0  0  0  0  0
   17.6910   30.2770   72.5910 C   0  0  0  0  0  0  0  0  0  0  0  0
   18.5330   29.5810   73.1870 O   0  0  0  0  0  0  0  0  0  0  0  0
   15.6850   31.8820   73.0800 C   0  0  0  0  0  2  0  0  0  0  0  0
   14.0690   30.4680   71.7970 C   0  0  0  0  0  1  0  0  0  0  0  0
   15.4580   31.8140   69.9140 H   0  0  0  0  0  0  0  0  0  0  0  0
   16.1550   28.7970   72.0560 H   0  0  0  0  0  0  0  0  0  0  0  0
   16.9060   33.8000   71.9380 C   0  0  0  0  0  0  0  0  0  0  0  0
   18.1720   34.2910   71.5930 C   0  0  0  0  0  3  0  0  0  0  0  0
   18.3150   35.4330   70.8020 C   0  0  0  0  0  0  0  0  0  0  0  0
   20.0500   36.0770   70.3640 Br  0  0  0  0  0  0  0  0  0  0  0  0
   17.2320   36.1090   70.3360 C   0  0  0  0  0  3  0  0  0  0  0  0
   15.9900   35.6440   70.6630 C   0  0  0  0  0  3  0  0  0  0  0  0
   15.8270   34.5130   71.4450 C   0  0  0  0  0  0  0  0  0  0  0  0
   14.6000   34.0160   71.7810 O   0  0  0  0  0  0  0  0  0  0  0  0
   13.5090   34.2030   70.9200 C   0  0  0  0  0  1  0  0  0  0  0  0
  1 14  1  6  0  0  0
  1 10  1  0  0  0  0
  2  3  1  6  0  0  0
  2  8  1  0  0  0  0
  2  1  1  0  0  0  0
  4  3  2  0  0  0  0
  5  3  1  0  0  0  0
  5  6  1  0  0  0  0
  6 11  1  6  0  0  0
  6  7  1  0  0  0  0
  6 10  1  0  0  0  0
  7  8  1  0  0  0  0
  8  9  2  0  0  0  0
 12  5  1  0  0  0  0
 13  7  1  0  0  0  0
 15 14  1  0  0  0  0
 16 15  2  0  0  0  0
 17 16  1  0  0  0  0
 18 19  2  0  0  0  0
 18 16  1  0  0  0  0
 19 20  1  0  0  0  0
 20 21  1  0  0  0  0
 20 14  2  0  0  0  0
 22 21  1  0  0  0  0
M  END
>  <Pose>
1

>  <Score>
-7.264

$$$$
