/Users/jonathanwahrer/Desktop/Msc/3_Semester/Drug_Design_Praktikum/waehrer_HTS_screening/HTS_experiment/out/docking_results/vina_output/4x21/2028_docked.pdbqt
 OpenBabel03212202513D

 31 34  0  0  1  0  0  0  0  0999 V2000
   15.1840   32.3570   72.5880 Cl  0  0  0  0  0  0  0  0  0  0  0  0
   15.8400   33.7420   71.7180 C   0  0  0  0  0  0  0  0  0  0  0  0
   17.2320   33.9410   71.7450 C   0  0  0  0  0  0  0  0  0  0  0  0
   17.7360   35.0110   71.0660 C   0  0  0  0  0  0  0  0  0  0  0  0
   16.9180   35.8900   70.3710 C   0  0  0  0  0  3  0  0  0  0  0  0
   15.5590   35.6710   70.3650 C   0  0  0  0  0  0  0  0  0  0  0  0
   15.0090   34.6000   71.0330 C   0  0  0  0  0  3  0  0  0  0  0  0
   14.6950   36.6400   69.6040 C   0  0  0  0  0  1  0  0  0  0  0  0
   19.2270   34.9190   71.1460 C   0  0  2  0  0  0  0  0  0  0  0  0
   19.8960   36.1520   71.2730 N   0  0  0  0  0  0  0  0  0  0  0  0
   20.1490   36.6260   69.9420 C   0  0  2  0  0  3  0  0  0  0  0  0
   19.8480   35.5520   68.9780 C   0  0  2  0  0  3  0  0  0  0  0  0
   19.7920   34.3260   69.8940 C   0  0  1  0  0  3  0  0  0  0  0  0
   21.2010   33.9890   69.9880 C   0  0  0  0  0  0  0  0  0  0  0  0
   21.9250   33.5680   70.9170 O   0  0  0  0  0  0  0  0  0  0  0  0
   21.7310   34.2460   68.6610 N   0  0  0  0  0  0  0  0  0  0  0  0
   20.8850   35.1890   68.0200 C   0  0  0  0  0  0  0  0  0  0  0  0
   21.0280   35.6050   66.8630 O   0  0  0  0  0  0  0  0  0  0  0  0
   19.4480   33.9770   72.2400 C   0  0  0  0  0  0  0  0  0  0  0  0
   20.4800   33.7360   72.9420 O   0  0  0  0  0  0  0  0  0  0  0  0
   18.2520   33.2700   72.4740 N   0  0  0  0  0  0  0  0  0  0  0  0
   19.3610   36.8550   71.8380 H   0  0  0  0  0  0  0  0  0  0  0  0
   18.0810   32.4130   73.0590 H   0  0  0  0  0  0  0  0  0  0  0  0
   21.5200   37.2620   69.8110 C   0  0  2  0  0  3  0  0  0  0  0  0
   21.8960   37.8960   71.1090 C   0  0  0  0  0  1  0  0  0  0  0  0
   21.7050   38.0170   68.6910 O   0  0  0  0  0  0  0  0  0  0  0  0
   21.6690   38.9960   68.8420 H   0  0  0  0  0  0  0  0  0  0  0  0
   22.8970   33.6670   68.0460 C   0  0  0  0  0  2  0  0  0  0  0  0
   24.1730   34.3840   68.2830 C   0  0  0  0  0  2  0  0  0  0  0  0
   24.3270   35.6150   67.7190 O   0  0  0  0  0  0  0  0  0  0  0  0
   24.9410   36.5560   68.5190 C   0  0  0  0  0  1  0  0  0  0  0  0
  2  3  1  0  0  0  0
  2  1  1  0  0  0  0
  3 21  1  0  0  0  0
  4  3  2  0  0  0  0
  5  4  1  0  0  0  0
  6  5  2  0  0  0  0
  6  7  1  0  0  0  0
  7  2  2  0  0  0  0
  8  6  1  0  0  0  0
  9  4  1  6  0  0  0
  9 10  1  0  0  0  0
  9 19  1  0  0  0  0
 10 22  1  0  0  0  0
 11 24  1  1  0  0  0
 11 10  1  0  0  0  0
 12 17  1  6  0  0  0
 12 13  1  0  0  0  0
 12 11  1  0  0  0  0
 13 14  1  1  0  0  0
 13  9  1  0  0  0  0
 14 15  2  0  0  0  0
 16 14  1  0  0  0  0
 17 16  1  0  0  0  0
 18 17  2  0  0  0  0
 19 21  1  0  0  0  0
 19 20  2  0  0  0  0
 21 23  1  0  0  0  0
 24 25  1  1  0  0  0
 26 27  1  0  0  0  0
 26 24  1  0  0  0  0
 28 29  1  0  0  0  0
 28 16  1  0  0  0  0
 30 29  1  0  0  0  0
 30 31  1  0  0  0  0
M  END
>  <Pose>
1

>  <Score>
-7.325

$$$$
