/Users/jonathanwahrer/Desktop/Msc/3_Semester/Drug_Design_Praktikum/waehrer_HTS_screening/HTS_experiment/out/docking_results/vina_output/4x21/2032_docked.pdbqt
 OpenBabel03212202513D

 31 34  0  0  0  0  0  0  0  0999 V2000
   13.3050   31.9140   72.3630 C   0  0  0  0  0  3  0  0  0  0  0  0
   13.9330   32.9450   71.8980 C   0  0  0  0  0  0  0  0  0  0  0  0
   15.2560   33.2430   72.0720 O   0  0  0  0  0  0  0  0  0  0  0  0
   15.5450   34.4330   71.4070 C   0  0  0  0  0  0  0  0  0  0  0  0
   14.4530   34.9540   70.7900 C   0  0  0  0  0  0  0  0  0  0  0  0
   14.5350   36.1400   70.0510 C   0  0  0  0  0  3  0  0  0  0  0  0
   15.7080   36.8340   69.9140 C   0  0  0  0  0  3  0  0  0  0  0  0
   16.8090   36.2580   70.5740 C   0  0  0  0  0  0  0  0  0  0  0  0
   16.7640   35.1120   71.2910 C   0  0  0  0  0  0  0  0  0  0  0  0
   17.9860   37.0190   70.4170 O   0  0  0  0  0  1  0  0  0  0  0  0
   13.3620   34.0170   71.0810 C   0  0  0  0  0  0  0  0  0  0  0  0
   12.1620   34.1200   70.6940 O   0  0  0  0  0  0  0  0  0  0  0  0
   13.8610   30.8400   73.1740 C   0  0  0  0  0  0  0  0  0  0  0  0
   14.9590   30.1440   72.7410 C   0  0  0  0  0  3  0  0  0  0  0  0
   15.4790   29.0800   73.5000 C   0  0  0  0  0  0  0  0  0  0  0  0
   17.0010   28.0960   72.9390 Br  0  0  0  0  0  0  0  0  0  0  0  0
   14.8710   28.7400   74.6880 C   0  0  0  0  0  3  0  0  0  0  0  0
   13.7810   29.4270   75.1160 C   0  0  0  0  0  3  0  0  0  0  0  0
   13.2620   30.4890   74.3620 C   0  0  0  0  0  0  0  0  0  0  0  0
   12.1800   31.2100   74.7350 O   0  0  0  0  0  0  0  0  0  0  0  0
   11.1330   30.8040   75.5470 C   0  0  0  0  0  1  0  0  0  0  0  0
   17.9040   34.5330   72.0270 C   0  0  0  0  0  2  0  0  0  0  0  0
   18.9850   34.1810   71.1370 N   0  0  0  0  0  4  0  0  0  0  0  0
   18.8760   32.7770   70.7840 C   0  0  0  0  0  2  0  0  0  0  0  0
   20.1540   32.0540   70.7070 C   0  0  0  0  0  2  0  0  0  0  0  0
   21.2910   32.8210   70.3080 N   0  0  0  0  0  0  0  0  0  0  0  0
   21.1530   34.2030   70.2180 C   0  0  0  0  0  2  0  0  0  0  0  0
   20.2400   34.7140   71.3630 C   0  0  0  0  0  2  0  0  0  0  0  0
   18.6420   34.6840   70.1960 H   0  0  0  0  0  0  0  0  0  0  0  0
   22.5610   32.2950   70.6360 C   0  0  0  0  0  2  0  0  0  0  0  0
   23.7260   33.1280   70.2340 C   0  0  0  0  0  1  0  0  0  0  0  0
  1 13  1  0  0  0  0
  2  3  1  0  0  0  0
  2  1  2  0  0  0  0
  4  3  1  0  0  0  0
  5 11  1  0  0  0  0
  5  4  2  0  0  0  0
  6  5  1  0  0  0  0
  7  6  2  0  0  0  0
  7  8  1  0  0  0  0
  8  9  2  0  0  0  0
  9  4  1  0  0  0  0
  9 22  1  0  0  0  0
 10  8  1  0  0  0  0
 11  2  1  0  0  0  0
 12 11  2  0  0  0  0
 13 19  1  0  0  0  0
 14 13  2  0  0  0  0
 14 15  1  0  0  0  0
 15 17  2  0  0  0  0
 16 15  1  0  0  0  0
 17 18  1  0  0  0  0
 19 20  1  0  0  0  0
 19 18  2  0  0  0  0
 20 21  1  0  0  0  0
 23 28  1  0  0  0  0
 23 22  1  0  0  0  0
 24 23  1  0  0  0  0
 25 24  1  0  0  0  0
 26 30  1  0  0  0  0
 26 25  1  0  0  0  0
 27 26  1  0  0  0  0
 27 28  1  0  0  0  0
 29 23  1  0  0  0  0
 31 30  1  0  0  0  0
M  END
>  <Pose>
1

>  <Score>
-8.621

$$$$
