/Users/jonathanwahrer/Desktop/Msc/3_Semester/Drug_Design_Praktikum/waehrer_HTS_screening/HTS_experiment/out/docking_results/vina_output/4x21/2041_docked.pdbqt
 OpenBabel03212202523D

 30 33  0  0  0  0  0  0  0  0999 V2000
   16.0690   31.1590   72.0940 N   0  0  0  0  0  0  0  0  0  0  0  0
   16.6360   31.9640   73.1570 C   0  0  0  0  0  2  0  0  0  0  0  0
   18.1550   31.8500   73.1540 C   0  0  0  0  0  2  0  0  0  0  0  0
   18.6360   32.3410   71.8630 N   0  0  0  0  0  0  0  0  0  0  0  0
   17.6170   32.5460   70.8760 C   0  0  0  0  0  2  0  0  0  0  0  0
   16.7510   31.3150   70.8450 C   0  0  0  0  0  2  0  0  0  0  0  0
   20.0020   32.5810   71.6880 C   0  0  0  0  0  0  0  0  0  0  0  0
   20.8060   32.3660   72.6850 O   0  0  0  0  0  0  0  0  0  0  0  0
   20.6990   33.0660   70.4920 C   0  0  0  0  0  2  0  0  0  0  0  0
   21.4690   34.6690   70.6810 S   0  0  0  0  0  0  0  0  0  0  0  0
   20.9360   35.8810   69.4850 C   0  0  0  0  0  0  0  0  0  0  0  0
   21.7590   36.3320   68.5470 N   0  0  0  0  0  0  0  0  0  0  0  0
   21.4040   37.2240   67.6190 C   0  0  0  0  0  3  0  0  0  0  0  0
   20.1210   37.7000   67.6380 N   0  0  0  0  0  0  0  0  0  0  0  0
   19.2670   37.2660   68.5700 C   0  0  0  0  0  0  0  0  0  0  0  0
   17.9550   37.5680   68.8000 N   0  0  0  0  0  0  0  0  0  0  0  0
   19.6380   36.3420   69.5290 C   0  0  0  0  0  0  0  0  0  0  0  0
   17.5460   36.8710   69.8390 N   0  0  0  0  0  0  0  0  0  0  0  0
   17.1630   38.4820   68.0300 C   0  0  0  0  0  1  0  0  0  0  0  0
   18.5380   36.1130   70.3110 C   0  0  0  0  0  3  0  0  0  0  0  0
   14.3920   31.5000   71.9280 S   0  0  0  0  0  0  0  0  0  0  0  0
   13.8160   30.4340   71.0240 O   0  0  0  0  0  0  0  0  0  0  0  0
   13.6670   31.4100   73.2280 O   0  0  0  0  0  0  0  0  0  0  0  0
   14.1840   33.0780   71.2020 C   0  0  0  0  0  0  0  0  0  0  0  0
   14.6300   34.2530   71.7620 C   0  0  0  0  0  3  0  0  0  0  0  0
   14.4270   35.4640   71.1460 C   0  0  0  0  0  3  0  0  0  0  0  0
   13.7580   35.5240   69.9240 C   0  0  0  0  0  0  0  0  0  0  0  0
   13.2980   34.3370   69.3430 C   0  0  0  0  0  3  0  0  0  0  0  0
   13.5090   37.0680   69.1530 Cl  0  0  0  0  0  0  0  0  0  0  0  0
   13.5140   33.1340   69.9800 C   0  0  0  0  0  3  0  0  0  0  0  0
  1  2  1  0  0  0  0
  3  2  1  0  0  0  0
  4  3  1  0  0  0  0
  5  4  1  0  0  0  0
  6  5  1  0  0  0  0
  6  1  1  0  0  0  0
  7  4  1  0  0  0  0
  7  8  2  0  0  0  0
  9 10  1  0  0  0  0
  9  7  1  0  0  0  0
 11 17  1  0  0  0  0
 11 10  1  0  0  0  0
 12 11  2  0  0  0  0
 13 14  2  0  0  0  0
 13 12  1  0  0  0  0
 14 15  1  0  0  0  0
 15 16  1  0  0  0  0
 15 17  2  0  0  0  0
 16 18  1  0  0  0  0
 17 20  1  0  0  0  0
 18 20  2  0  0  0  0
 19 16  1  0  0  0  0
 21  1  1  0  0  0  0
 21 23  2  0  0  0  0
 22 21  2  0  0  0  0
 24 25  1  0  0  0  0
 24 21  1  0  0  0  0
 26 25  2  0  0  0  0
 27 26  1  0  0  0  0
 28 27  2  0  0  0  0
 28 30  1  0  0  0  0
 29 27  1  0  0  0  0
 30 24  2  0  0  0  0
M  END
>  <Pose>
1

>  <Score>
-9.098

$$$$
