/Users/jonathanwahrer/Desktop/Msc/3_Semester/Drug_Design_Praktikum/waehrer_HTS_screening/HTS_experiment/out/docking_results/vina_output/4x21/2043_docked.pdbqt
 OpenBabel03212202523D

 32 35  0  0  0  0  0  0  0  0999 V2000
   22.2790   35.8720   67.6440 N   0  0  0  0  0  0  0  0  0  0  0  0
   21.6620   34.5720   67.7410 C   0  0  0  0  0  2  0  0  0  0  0  0
   21.6260   34.1810   69.2170 C   0  0  0  0  0  2  0  0  0  0  0  0
   21.2650   35.3050   69.9960 N   0  0  0  0  0  0  0  0  0  0  0  0
   22.4410   36.2780   70.0920 C   0  0  0  0  0  2  0  0  0  0  0  0
   23.0770   36.2600   68.7480 C   0  0  0  0  0  2  0  0  0  0  0  0
   20.0960   35.6730   70.5960 C   0  0  0  0  0  0  0  0  0  0  0  0
   20.3120   36.7790   71.3880 O   0  0  0  0  0  0  0  0  0  0  0  0
   18.7390   35.3000   70.6820 C   0  0  0  0  0  3  0  0  0  0  0  0
   17.5490   35.7870   70.5470 C   0  0  0  0  0  0  0  0  0  0  0  0
   17.2840   37.1240   70.2130 N   0  0  0  0  0  0  0  0  0  0  0  0
   16.3640   34.8880   70.6870 C   0  0  0  0  0  0  0  0  0  0  0  0
   15.9940   37.6600   70.0020 N   0  0  0  0  0  0  0  0  0  0  0  0
   18.0410   37.8070   70.1420 H   0  0  0  0  0  0  0  0  0  0  0  0
   14.8830   36.8210   70.1310 C   0  0  0  0  0  0  0  0  0  0  0  0
   15.9190   38.6910   69.7510 H   0  0  0  0  0  0  0  0  0  0  0  0
   13.7270   37.2860   69.9470 O   0  0  0  0  0  0  0  0  0  0  0  0
   15.0990   35.4060   70.4830 C   0  0  0  0  0  0  0  0  0  0  0  0
   13.9610   34.6270   70.5960 C   0  0  0  0  0  3  0  0  0  0  0  0
   14.0670   33.2920   70.9200 C   0  0  0  0  0  3  0  0  0  0  0  0
   15.3250   32.7840   71.1210 C   0  0  0  0  0  3  0  0  0  0  0  0
   16.4740   33.5730   71.0070 C   0  0  0  0  0  3  0  0  0  0  0  0
   21.3520   37.0600   66.9030 S   0  0  0  0  0  0  0  0  0  0  0  0
   20.4250   36.3720   65.9090 O   0  0  0  0  0  0  0  0  0  0  0  0
   20.4170   37.6550   67.9490 O   0  0  0  0  0  0  0  0  0  0  0  0
   22.2260   38.3510   66.1800 C   0  0  0  0  0  0  0  0  0  0  0  0
   23.4930   38.1690   65.6830 C   0  0  0  0  0  3  0  0  0  0  0  0
   24.1770   39.2230   65.1050 C   0  0  0  0  0  3  0  0  0  0  0  0
   23.6270   40.4820   65.0060 C   0  0  0  0  0  0  0  0  0  0  0  0
   22.3490   40.6720   65.5070 C   0  0  0  0  0  3  0  0  0  0  0  0
   24.5360   41.7840   64.2660 Cl  0  0  0  0  0  0  0  0  0  0  0  0
   21.6710   39.6010   66.0860 C   0  0  0  0  0  3  0  0  0  0  0  0
  1  2  1  0  0  0  0
  1  6  1  0  0  0  0
  2  3  1  0  0  0  0
  3  4  1  0  0  0  0
  4  5  1  0  0  0  0
  4  7  1  0  0  0  0
  6  5  1  0  0  0  0
  7  9  1  0  0  0  0
  7  8  2  0  0  0  0
 10  9  2  0  0  0  0
 10 12  1  0  0  0  0
 11 10  1  0  0  0  0
 12 22  1  0  0  0  0
 13 15  1  0  0  0  0
 13 11  1  0  0  0  0
 14 11  1  0  0  0  0
 15 18  1  0  0  0  0
 16 13  1  0  0  0  0
 17 15  2  0  0  0  0
 18 19  1  0  0  0  0
 18 12  2  0  0  0  0
 19 20  2  0  0  0  0
 20 21  1  0  0  0  0
 22 21  2  0  0  0  0
 23  1  1  0  0  0  0
 23 25  2  0  0  0  0
 24 23  2  0  0  0  0
 26 23  1  0  0  0  0
 27 26  2  0  0  0  0
 28 27  1  0  0  0  0
 29 28  2  0  0  0  0
 29 30  1  0  0  0  0
 30 32  2  0  0  0  0
 31 29  1  0  0  0  0
 32 26  1  0  0  0  0
M  END
>  <Pose>
1

>  <Score>
-9.890

$$$$
