/Users/jonathanwahrer/Desktop/Msc/3_Semester/Drug_Design_Praktikum/waehrer_HTS_screening/HTS_experiment/out/docking_results/vina_output/4x21/2072_docked.pdbqt
 OpenBabel03212202533D

 27 30  0  0  0  0  0  0  0  0999 V2000
   20.5970   34.4730   71.2060 N   0  0  0  0  0  0  0  0  0  0  0  0
   20.3340   33.4290   70.2850 C   0  0  0  0  0  2  0  0  0  0  0  0
   19.4930   32.2790   70.7610 C   0  0  0  0  0  2  0  0  0  0  0  0
   18.5440   32.7550   71.7140 N   0  0  0  0  0  0  0  0  0  0  0  0
   19.3210   33.1920   72.8730 C   0  0  0  0  0  2  0  0  0  0  0  0
   20.0600   34.4230   72.5010 C   0  0  0  0  0  2  0  0  0  0  0  0
   17.5390   31.8200   72.0890 C   0  0  0  0  0  2  0  0  0  0  0  0
   16.4250   32.4680   72.8380 C   0  0  0  0  0  2  0  0  0  0  0  0
   15.6900   33.4140   72.0250 N   0  0  0  0  0  0  0  0  0  0  0  0
   15.9350   34.7160   71.8800 N   0  0  0  0  0  0  0  0  0  0  0  0
   15.0510   35.2660   71.0360 C   0  0  0  0  0  0  0  0  0  0  0  0
   14.2260   34.2910   70.6360 N   0  0  0  0  0  0  0  0  0  0  0  0
   14.8360   36.5370   70.5340 C   0  0  0  0  0  3  0  0  0  0  0  0
   13.2140   34.5370   69.7700 C   0  0  0  0  0  3  0  0  0  0  0  0
   14.6330   33.1450   71.2580 C   0  0  0  0  0  0  0  0  0  0  0  0
   12.9790   35.7930   69.2570 C   0  0  0  0  0  3  0  0  0  0  0  0
   13.8150   36.8190   69.6520 C   0  0  0  0  0  3  0  0  0  0  0  0
   14.0400   32.0560   71.0750 O   0  0  0  0  0  0  0  0  0  0  0  0
   20.2200   35.9860   70.4730 S   0  0  0  0  0  0  0  0  0  0  0  0
   18.7160   36.0970   70.3530 O   0  0  0  0  0  0  0  0  0  0  0  0
   20.6970   37.1290   71.2870 O   0  0  0  0  0  0  0  0  0  0  0  0
   20.9800   36.0970   68.8780 C   0  0  0  0  0  0  0  0  0  0  0  0
   22.5820   35.7430   68.4180 S   0  0  0  0  0  0  0  0  0  0  0  0
   22.4800   36.1070   66.7580 C   0  0  0  0  0  0  0  0  0  0  0  0
   21.1770   36.5010   66.6070 C   0  0  0  0  0  3  0  0  0  0  0  0
   23.8400   36.0010   65.3970 Br  0  0  0  0  0  0  0  0  0  0  0  0
   20.4040   36.4960   67.6990 C   0  0  0  0  0  3  0  0  0  0  0  0
  1  6  1  0  0  0  0
  2  3  1  0  0  0  0
  2  1  1  0  0  0  0
  3  4  1  0  0  0  0
  4  7  1  0  0  0  0
  4  5  1  0  0  0  0
  6  5  1  0  0  0  0
  7  8  1  0  0  0  0
  9  8  1  0  0  0  0
 10  9  1  0  0  0  0
 11 10  2  0  0  0  0
 12 11  1  0  0  0  0
 12 15  1  0  0  0  0
 13 11  1  0  0  0  0
 14 12  1  0  0  0  0
 15  9  1  0  0  0  0
 16 17  1  0  0  0  0
 16 14  2  0  0  0  0
 17 13  2  0  0  0  0
 18 15  2  0  0  0  0
 19  1  1  0  0  0  0
 19 21  2  0  0  0  0
 20 19  2  0  0  0  0
 22 19  1  0  0  0  0
 23 22  1  0  0  0  0
 24 23  1  0  0  0  0
 25 24  2  0  0  0  0
 25 27  1  0  0  0  0
 26 24  1  0  0  0  0
 27 22  2  0  0  0  0
M  END
>  <Pose>
1

>  <Score>
-8.222

$$$$
