/Users/jonathanwahrer/Desktop/Msc/3_Semester/Drug_Design_Praktikum/waehrer_HTS_screening/HTS_experiment/out/docking_results/vina_output/4x21/2079_docked.pdbqt
 OpenBabel03212202533D

 31 34  0  0  0  0  0  0  0  0999 V2000
   20.7880   36.3750   68.6890 C   0  0  0  0  0  0  0  0  0  0  0  0
   19.7180   37.2180   68.4980 C   0  0  0  0  0  3  0  0  0  0  0  0
   18.5230   36.9570   69.1840 C   0  0  0  0  0  0  0  0  0  0  0  0
   18.4030   35.8780   70.0320 C   0  0  0  0  0  0  0  0  0  0  0  0
   17.2600   35.5390   70.7570 C   0  0  0  0  0  0  0  0  0  0  0  0
   16.1810   36.4360   70.5560 C   0  0  0  0  0  0  0  0  0  0  0  0
   16.2640   37.5390   69.7120 C   0  0  0  0  0  3  0  0  0  0  0  0
   17.4450   37.7910   69.0320 C   0  0  0  0  0  3  0  0  0  0  0  0
   14.9590   36.2880   71.1810 O   0  0  0  0  0  1  0  0  0  0  0  0
   19.4170   35.1250   70.1770 O   0  0  0  0  0  0  0  0  0  0  0  0
   20.5960   35.2920   69.5720 C   0  0  0  0  0  0  0  0  0  0  0  0
   21.5390   34.5140   69.7560 O   0  0  0  0  0  0  0  0  0  0  0  0
   17.1140   34.5480   71.7640 C   0  0  0  0  0  2  0  0  0  0  0  0
   16.0530   33.5740   71.8110 N   0  0  0  0  0  4  0  0  0  0  0  0
   16.1790   32.5730   70.7150 C   0  0  0  0  0  2  0  0  0  0  0  0
   17.6070   32.2030   70.5290 C   0  0  0  0  0  2  0  0  0  0  0  0
   18.2470   31.6090   71.6800 N   0  0  0  0  0  0  0  0  0  0  0  0
   17.6880   32.0440   72.9150 C   0  0  0  0  0  2  0  0  0  0  0  0
   16.3690   32.6580   72.9540 C   0  0  0  0  0  2  0  0  0  0  0  0
   15.1130   33.8580   71.9630 H   0  0  0  0  0  0  0  0  0  0  0  0
   19.6930   31.8770   71.6530 C   0  0  0  0  0  2  0  0  0  0  0  0
   20.1660   32.5740   72.9080 C   0  0  0  0  0  2  0  0  0  0  0  0
   20.7850   33.7870   72.6450 O   0  0  0  0  0  0  0  0  0  0  0  0
   21.0790   34.1860   73.5250 H   0  0  0  0  0  0  0  0  0  0  0  0
   22.1110   36.6540   68.0950 C   0  0  0  0  0  0  0  0  0  0  0  0
   22.1680   36.7390   66.6910 C   0  0  0  0  0  3  0  0  0  0  0  0
   23.3630   37.0500   66.0660 C   0  0  0  0  0  3  0  0  0  0  0  0
   24.5310   37.2820   66.7820 C   0  0  0  0  0  0  0  0  0  0  0  0
   26.0550   37.7730   66.0030 Cl  0  0  0  0  0  0  0  0  0  0  0  0
   24.4670   37.1910   68.1610 C   0  0  0  0  0  3  0  0  0  0  0  0
   23.2610   36.8770   68.7630 C   0  0  0  0  0  3  0  0  0  0  0  0
  1 11  1  0  0  0  0
  2  1  2  0  0  0  0
  2  3  1  0  0  0  0
  3  4  1  0  0  0  0
  4 10  1  0  0  0  0
  4  5  2  0  0  0  0
  5 13  1  0  0  0  0
  6  5  1  0  0  0  0
  6  9  1  0  0  0  0
  7  6  2  0  0  0  0
  8  3  2  0  0  0  0
  8  7  1  0  0  0  0
 11 12  2  0  0  0  0
 11 10  1  0  0  0  0
 13 14  1  0  0  0  0
 14 20  1  0  0  0  0
 14 19  1  0  0  0  0
 15 14  1  0  0  0  0
 16 15  1  0  0  0  0
 16 17  1  0  0  0  0
 17 18  1  0  0  0  0
 18 19  1  0  0  0  0
 21 17  1  0  0  0  0
 21 22  1  0  0  0  0
 23 22  1  0  0  0  0
 23 24  1  0  0  0  0
 25  1  1  0  0  0  0
 25 31  1  0  0  0  0
 26 25  2  0  0  0  0
 27 26  1  0  0  0  0
 27 28  2  0  0  0  0
 28 30  1  0  0  0  0
 29 28  1  0  0  0  0
 30 31  2  0  0  0  0
M  END
>  <Pose>
1

>  <Score>
-8.145

$$$$
