/Users/jonathanwahrer/Desktop/Msc/3_Semester/Drug_Design_Praktikum/waehrer_HTS_screening/HTS_experiment/out/docking_results/vina_output/4x21/2087_docked.pdbqt
 OpenBabel03212202533D

 32 35  0  0  0  0  0  0  0  0999 V2000
   20.0760   34.7740   70.5950 N   0  0  0  0  0  0  0  0  0  0  0  0
   21.0520   35.4760   69.9340 C   0  0  0  0  0  0  0  0  0  0  0  0
   21.6700   34.6530   69.0140 C   0  0  0  0  0  0  0  0  0  0  0  0
   21.0600   33.4700   69.1350 N   0  0  0  0  0  0  0  0  0  0  0  0
   20.0890   33.5360   70.1000 C   0  0  0  0  0  0  0  0  0  0  0  0
   22.6740   35.1070   68.2390 N   0  0  0  0  0  0  0  0  0  0  0  0
   23.0600   36.3830   68.3850 C   0  0  0  0  0  0  0  0  0  0  0  0
   23.9980   36.7960   67.6570 O   0  0  0  0  0  0  0  0  0  0  0  0
   22.4880   37.2100   69.2670 N   0  0  0  0  0  0  0  0  0  0  0  0
   21.4670   36.7840   70.0690 C   0  0  0  0  0  0  0  0  0  0  0  0
   20.9530   37.5840   70.8880 O   0  0  0  0  0  0  0  0  0  0  0  0
   23.2910   34.2100   67.2800 C   0  0  0  0  0  1  0  0  0  0  0  0
   22.8060   38.2070   69.3700 H   0  0  0  0  0  0  0  0  0  0  0  0
   19.3630   32.4010   70.4950 N   0  0  0  0  0  0  0  0  0  0  0  0
   18.1570   31.8630   69.9750 C   0  0  0  0  0  2  0  0  0  0  0  0
   17.3620   31.0920   71.0350 C   0  0  0  0  0  2  0  0  0  0  0  0
   17.6100   31.4580   72.3680 N   0  0  0  0  0  0  0  0  0  0  0  0
   18.9560   31.5850   72.7680 C   0  0  0  0  0  2  0  0  0  0  0  0
   19.9370   31.6090   71.6180 C   0  0  0  0  0  2  0  0  0  0  0  0
   16.6100   32.0860   73.1270 C   0  0  0  0  0  2  0  0  0  0  0  0
   15.2560   31.5130   73.0730 C   0  0  0  0  0  0  0  0  0  0  0  0
   14.9420   30.4520   73.6750 O   0  0  0  0  0  0  0  0  0  0  0  0
   14.2750   32.1440   72.3390 O   0  0  0  0  0  0  0  0  0  0  0  0
   13.7500   31.6050   71.1570 C   0  0  0  0  0  1  0  0  0  0  0  0
   19.2170   35.3440   71.6020 C   0  0  0  0  0  2  0  0  0  0  0  0
   17.8500   35.6770   71.0330 C   0  0  0  0  0  0  0  0  0  0  0  0
   16.8050   34.8960   71.4300 C   0  0  0  0  0  3  0  0  0  0  0  0
   15.5240   35.1880   70.9590 C   0  0  0  0  0  3  0  0  0  0  0  0
   15.3230   36.2510   70.1060 C   0  0  0  0  0  0  0  0  0  0  0  0
   13.5830   36.6710   69.4500 Br  0  0  0  0  0  0  0  0  0  0  0  0
   16.4080   37.0220   69.7240 C   0  0  0  0  0  3  0  0  0  0  0  0
   17.6680   36.7340   70.1890 C   0  0  0  0  0  3  0  0  0  0  0  0
  1 25  1  0  0  0  0
  2 10  1  0  0  0  0
  2  1  1  0  0  0  0
  3  4  1  0  0  0  0
  3  2  2  0  0  0  0
  4  5  2  0  0  0  0
  5 14  1  0  0  0  0
  5  1  1  0  0  0  0
  6  7  1  0  0  0  0
  6  3  1  0  0  0  0
  7  9  1  0  0  0  0
  8  7  2  0  0  0  0
  9 13  1  0  0  0  0
  9 10  1  0  0  0  0
 10 11  2  0  0  0  0
 12  6  1  0  0  0  0
 14 19  1  0  0  0  0
 15 14  1  0  0  0  0
 15 16  1  0  0  0  0
 16 17  1  0  0  0  0
 17 18  1  0  0  0  0
 17 20  1  0  0  0  0
 19 18  1  0  0  0  0
 21 20  1  0  0  0  0
 21 22  2  0  0  0  0
 23 21  1  0  0  0  0
 24 23  1  0  0  0  0
 26 27  1  0  0  0  0
 26 25  1  0  0  0  0
 28 27  2  0  0  0  0
 29 28  1  0  0  0  0
 30 29  1  0  0  0  0
 31 29  2  0  0  0  0
 31 32  1  0  0  0  0
 32 26  2  0  0  0  0
M  END
>  <Pose>
1

>  <Score>
-7.983

$$$$
