/Users/jonathanwahrer/Desktop/Msc/3_Semester/Drug_Design_Praktikum/waehrer_HTS_screening/HTS_experiment/out/docking_results/vina_output/4x21/2091_docked.pdbqt
 OpenBabel03212202533D

 28 31  0  0  0  0  0  0  0  0999 V2000
   17.3010   35.6970   70.7140 N   0  0  0  0  0  0  0  0  0  0  0  0
   15.9820   35.6660   70.4750 C   0  0  0  0  0  0  0  0  0  0  0  0
   15.5360   34.3690   70.5980 C   0  0  0  0  0  0  0  0  0  0  0  0
   16.6020   33.6480   70.9100 N   0  0  0  0  0  0  0  0  0  0  0  0
   17.6900   34.4270   70.9890 C   0  0  0  0  0  0  0  0  0  0  0  0
   14.2420   34.0000   70.4280 N   0  0  0  0  0  0  0  0  0  0  0  0
   13.3690   34.9750   70.1250 C   0  0  0  0  0  0  0  0  0  0  0  0
   12.1740   34.6150   69.9690 O   0  0  0  0  0  0  0  0  0  0  0  0
   13.7410   36.2600   69.9950 N   0  0  0  0  0  0  0  0  0  0  0  0
   15.0230   36.6360   70.1610 C   0  0  0  0  0  0  0  0  0  0  0  0
   15.3990   37.8110   70.0500 O   0  0  0  0  0  0  0  0  0  0  0  0
   13.8670   32.6100   70.5750 C   0  0  0  0  0  1  0  0  0  0  0  0
   13.0550   37.0100   69.7620 H   0  0  0  0  0  0  0  0  0  0  0  0
   18.1580   36.8570   70.6780 C   0  0  0  0  0  2  0  0  0  0  0  0
   19.0750   36.9910   69.5630 C   0  0  0  0  0  0  0  0  0  0  0  0
   18.7460   37.2710   68.2740 C   0  0  0  0  0  3  0  0  0  0  0  0
   19.6860   37.4260   67.2560 C   0  0  0  0  0  3  0  0  0  0  0  0
   21.0370   37.2900   67.5570 C   0  0  0  0  0  0  0  0  0  0  0  0
   22.3900   37.5000   66.2310 Br  0  0  0  0  0  0  0  0  0  0  0  0
   21.4160   37.0080   68.8490 C   0  0  0  0  0  3  0  0  0  0  0  0
   20.4530   36.8630   69.8200 C   0  0  0  0  0  3  0  0  0  0  0  0
   19.0260   34.0100   71.3000 N   0  0  0  0  0  0  0  0  0  0  0  0
   19.7780   33.3320   70.2680 C   0  0  0  0  0  2  0  0  0  0  0  0
   20.0400   31.9100   70.7420 C   0  0  0  0  0  2  0  0  0  0  0  0
   19.9930   31.7800   72.1600 N   0  0  0  0  0  0  0  0  0  0  0  0
   20.3980   32.9230   72.9090 C   0  0  0  0  0  2  0  0  0  0  0  0
   18.9670   30.9790   72.7110 C   0  0  0  0  0  1  0  0  0  0  0  0
   19.6740   34.2010   72.5700 C   0  0  0  0  0  2  0  0  0  0  0  0
  1  5  1  0  0  0  0
  2  3  2  0  0  0  0
  2  1  1  0  0  0  0
  3  4  1  0  0  0  0
  4  5  2  0  0  0  0
  5 22  1  0  0  0  0
  6 12  1  0  0  0  0
  6  3  1  0  0  0  0
  7  6  1  0  0  0  0
  8  7  2  0  0  0  0
  9  7  1  0  0  0  0
  9 10  1  0  0  0  0
 10  2  1  0  0  0  0
 11 10  2  0  0  0  0
 13  9  1  0  0  0  0
 14  1  1  0  0  0  0
 15 21  1  0  0  0  0
 15 14  1  0  0  0  0
 16 15  2  0  0  0  0
 17 18  2  0  0  0  0
 17 16  1  0  0  0  0
 18 20  1  0  0  0  0
 19 18  1  0  0  0  0
 20 21  2  0  0  0  0
 22 28  1  0  0  0  0
 23 24  1  0  0  0  0
 23 22  1  0  0  0  0
 24 25  1  0  0  0  0
 25 27  1  0  0  0  0
 25 26  1  0  0  0  0
 28 26  1  0  0  0  0
M  END
>  <Pose>
1

>  <Score>
-8.331

$$$$
