/Users/jonathanwahrer/Desktop/Msc/3_Semester/Drug_Design_Praktikum/waehrer_HTS_screening/HTS_experiment/out/docking_results/vina_output/4x21/2121_docked.pdbqt
 OpenBabel03212202543D

 31 34  0  0  1  0  0  0  0  0999 V2000
   20.2500   35.8120   70.8230 C   0  0  0  0  0  0  0  0  0  0  0  0
   21.1740   35.7060   71.7880 O   0  0  0  0  0  0  0  0  0  0  0  0
   20.4790   36.8660   69.9650 N   0  0  0  0  0  0  0  0  0  0  0  0
   21.7330   37.5900   70.3160 C   0  0  0  0  0  2  0  0  0  0  0  0
   22.8920   36.9610   69.5680 C   0  0  0  0  0  2  0  0  0  0  0  0
   22.3400   36.2430   68.3960 C   0  0  1  0  0  3  0  0  0  0  0  0
   21.5940   37.1710   67.4940 C   0  0  2  0  0  3  0  0  0  0  0  0
   20.1260   36.7120   67.5320 C   0  0  0  0  0  2  0  0  0  0  0  0
   19.6190   37.2280   68.8920 C   0  0  0  0  0  2  0  0  0  0  0  0
   19.2320   34.8000   70.9060 C   0  0  0  0  0  0  0  0  0  0  0  0
   19.3190   33.4720   70.8110 N   0  0  0  0  0  0  0  0  0  0  0  0
   18.0840   32.8940   70.9150 C   0  0  0  0  0  0  0  0  0  0  0  0
   20.1600   32.8920   70.6930 H   0  0  0  0  0  0  0  0  0  0  0  0
   17.1900   33.8940   71.0830 C   0  0  0  0  0  0  0  0  0  0  0  0
   17.6530   31.5950   70.8750 C   0  0  0  0  0  3  0  0  0  0  0  0
   15.8180   33.6570   71.2200 C   0  0  0  0  0  3  0  0  0  0  0  0
   17.8800   35.0900   71.0810 C   0  0  0  0  0  3  0  0  0  0  0  0
   15.4060   32.3640   71.1770 C   0  0  0  0  0  0  0  0  0  0  0  0
   13.6810   32.0260   71.3440 Cl  0  0  0  0  0  0  0  0  0  0  0  0
   16.2990   31.3260   71.0070 C   0  0  0  0  0  3  0  0  0  0  0  0
   23.2200   35.4130   67.6380 N   0  0  0  0  0  0  0  0  0  0  0  0
   22.7500   34.0690   67.4160 C   0  0  0  0  0  2  0  0  0  0  0  0
   22.6270   33.3090   68.6820 C   0  0  0  0  0  2  0  0  0  0  0  0
   23.9420   33.3600   69.3290 N   0  0  0  0  0  0  0  0  0  0  0  0
   24.9700   34.0630   68.6050 C   0  0  0  0  0  2  0  0  0  0  0  0
   24.1430   32.7200   70.5900 C   0  0  0  0  0  0  0  0  0  0  0  0
   24.5770   35.4240   68.1130 C   0  0  0  0  0  2  0  0  0  0  0  0
   25.2540   32.7810   71.1340 O   0  0  0  0  0  0  0  0  0  0  0  0
   22.9930   31.9900   71.2100 C   0  0  0  0  0  1  0  0  0  0  0  0
   22.0770   37.2020   66.1870 O   0  0  0  0  0  0  0  0  0  0  0  0
   21.8750   36.2880   65.8030 H   0  0  0  0  0  0  0  0  0  0  0  0
  1 10  1  0  0  0  0
  1  2  2  0  0  0  0
  3  4  1  0  0  0  0
  3  1  1  0  0  0  0
  5  4  1  0  0  0  0
  6 21  1  6  0  0  0
  6  5  1  0  0  0  0
  7 30  1  6  0  0  0
  7  8  1  0  0  0  0
  7  6  1  0  0  0  0
  8  9  1  0  0  0  0
  9  3  1  0  0  0  0
 10 17  2  0  0  0  0
 11 10  1  0  0  0  0
 11 12  1  0  0  0  0
 12 14  1  0  0  0  0
 13 11  1  0  0  0  0
 14 16  2  0  0  0  0
 15 12  2  0  0  0  0
 15 20  1  0  0  0  0
 17 14  1  0  0  0  0
 18 16  1  0  0  0  0
 18 19  1  0  0  0  0
 20 18  2  0  0  0  0
 21 27  1  0  0  0  0
 22 21  1  0  0  0  0
 22 23  1  0  0  0  0
 23 24  1  0  0  0  0
 24 26  1  0  0  0  0
 25 24  1  0  0  0  0
 26 28  2  0  0  0  0
 26 29  1  0  0  0  0
 27 25  1  0  0  0  0
 31 30  1  0  0  0  0
M  END
>  <Pose>
1

>  <Score>
-8.365

$$$$
