/Users/jonathanwahrer/Desktop/Msc/3_Semester/Drug_Design_Praktikum/waehrer_HTS_screening/HTS_experiment/out/docking_results/vina_output/4x21/2122_docked.pdbqt
 OpenBabel03212202543D

 29 32  0  0  0  0  0  0  0  0999 V2000
   17.0910   32.0410   71.8150 C   0  0  0  0  0  0  0  0  0  0  0  0
   17.2070   31.2760   70.7160 N   0  0  0  0  0  0  0  0  0  0  0  0
   18.4480   31.2260   70.3230 O   0  0  0  0  0  0  0  0  0  0  0  0
   19.1500   31.9600   71.1620 C   0  0  0  0  0  0  0  0  0  0  0  0
   18.3310   32.4690   72.0870 N   0  0  0  0  0  0  0  0  0  0  0  0
   15.8270   32.2970   72.5580 C   0  0  0  0  0  2  0  0  0  0  0  0
   14.8060   32.7610   71.6640 N   0  0  0  0  0  0  0  0  0  0  0  0
   14.5970   33.9770   71.1500 C   0  0  0  0  0  0  0  0  0  0  0  0
   15.2710   35.1810   71.2920 C   0  0  0  0  0  3  0  0  0  0  0  0
   13.4710   33.9420   70.3230 C   0  0  0  0  0  0  0  0  0  0  0  0
   14.7910   36.2930   70.6050 C   0  0  0  0  0  0  0  0  0  0  0  0
   15.6390   37.8210   70.7830 Cl  0  0  0  0  0  0  0  0  0  0  0  0
   13.6730   36.2240   69.7930 C   0  0  0  0  0  3  0  0  0  0  0  0
   13.0140   35.0410   69.6560 C   0  0  0  0  0  3  0  0  0  0  0  0
   13.0670   32.7100   70.3870 O   0  0  0  0  0  0  0  0  0  0  0  0
   13.8280   31.9850   71.1650 C   0  0  0  0  0  0  0  0  0  0  0  0
   13.6370   30.7580   71.3850 O   0  0  0  0  0  0  0  0  0  0  0  0
   20.6350   32.1220   71.0070 C   0  0  0  0  0  0  0  0  0  0  0  0
   21.2240   30.9910   71.1110 O   0  0  0  0  0  0  0  0  0  0  0  0
   21.1680   33.3370   70.7870 N   0  0  0  0  0  0  0  0  0  0  0  0
   22.4100   32.7640   70.6850 H   0  0  0  0  0  0  0  0  0  0  0  0
   21.7330   34.5780   70.5610 C   0  0  0  0  0  2  0  0  0  0  0  0
   20.7990   35.7450   70.9050 C   0  0  0  0  0  2  0  0  0  0  0  0
   20.4270   36.5520   69.8120 N   0  0  0  0  0  0  0  0  0  0  0  0
   19.1250   37.0700   69.9750 C   0  0  0  0  0  2  0  0  0  0  0  0
   18.4460   37.3770   68.6830 C   0  0  0  0  0  2  0  0  0  0  0  0
   19.3500   37.9550   67.8290 O   0  0  0  0  0  0  0  0  0  0  0  0
   20.3620   37.1060   67.4240 C   0  0  0  0  0  2  0  0  0  0  0  0
   20.8830   36.2280   68.5230 C   0  0  0  0  0  2  0  0  0  0  0  0
  1  5  1  0  0  0  0
  1  6  1  0  0  0  0
  2  1  2  0  0  0  0
  3  2  1  0  0  0  0
  3  4  1  0  0  0  0
  4  5  2  0  0  0  0
  7  6  1  0  0  0  0
  8  9  1  0  0  0  0
  8  7  1  0  0  0  0
 10 15  1  0  0  0  0
 10  8  2  0  0  0  0
 11 12  1  0  0  0  0
 11  9  2  0  0  0  0
 13 11  1  0  0  0  0
 14 13  2  0  0  0  0
 14 10  1  0  0  0  0
 15 16  1  0  0  0  0
 16 17  2  0  0  0  0
 16  7  1  0  0  0  0
 18 19  2  0  0  0  0
 18  4  1  0  0  0  0
 20 18  1  0  0  0  0
 21 20  1  0  0  0  0
 22 20  1  0  0  0  0
 22 23  1  0  0  0  0
 24 25  1  0  0  0  0
 24 23  1  0  0  0  0
 26 25  1  0  0  0  0
 27 26  1  0  0  0  0
 28 27  1  0  0  0  0
 28 29  1  0  0  0  0
 29 24  1  0  0  0  0
M  END
>  <Pose>
1

>  <Score>
-8.660

$$$$
