/Users/jonathanwahrer/Desktop/Msc/3_Semester/Drug_Design_Praktikum/waehrer_HTS_screening/HTS_experiment/out/docking_results/vina_output/4x21/2136_docked.pdbqt
 OpenBabel03212202553D

 33 37  0  0  1  0  0  0  0  0999 V2000
   22.4410   34.7170   68.1840 Cl  0  0  0  0  0  0  0  0  0  0  0  0
   21.0830   35.2260   69.1640 C   0  0  0  0  0  0  0  0  0  0  0  0
   20.1610   34.3380   69.6800 C   0  0  0  0  0  0  0  0  0  0  0  0
   19.0930   34.7770   70.4540 C   0  0  0  0  0  0  0  0  0  0  0  0
   19.0070   36.1240   70.6760 C   0  0  0  0  0  3  0  0  0  0  0  0
   19.9150   37.0230   70.1710 C   0  0  0  0  0  3  0  0  0  0  0  0
   20.9610   36.5890   69.4120 C   0  0  0  0  0  3  0  0  0  0  0  0
   18.3030   33.6030   70.8470 C   0  0  2  0  0  0  0  0  0  0  0  0
   16.9240   33.6860   70.4000 N   0  0  0  0  0  0  0  0  0  0  0  0
   16.2820   32.6460   71.2080 C   0  0  1  0  0  3  0  0  0  0  0  0
   16.9480   32.6600   72.5310 C   0  0  2  0  0  3  0  0  0  0  0  0
   18.1480   33.5310   72.3430 C   0  0  1  0  0  3  0  0  0  0  0  0
   19.2910   32.9020   73.0110 C   0  0  0  0  0  0  0  0  0  0  0  0
   20.3700   33.4950   73.2620 O   0  0  0  0  0  0  0  0  0  0  0  0
   18.9150   31.5590   73.2880 N   0  0  0  0  0  0  0  0  0  0  0  0
   17.5810   31.3280   72.8550 C   0  0  0  0  0  0  0  0  0  0  0  0
   16.9660   30.2340   72.7370 O   0  0  0  0  0  0  0  0  0  0  0  0
   18.9660   32.4310   70.2520 C   0  0  0  0  0  0  0  0  0  0  0  0
   18.6430   31.2370   70.3220 O   0  0  0  0  0  0  0  0  0  0  0  0
   20.0970   32.9260   69.5490 N   0  0  0  0  0  0  0  0  0  0  0  0
   16.8310   33.4740   69.3690 H   0  0  0  0  0  0  0  0  0  0  0  0
   20.8000   32.3560   69.0050 H   0  0  0  0  0  0  0  0  0  0  0  0
   14.8080   32.8890   71.3330 C   0  0  0  0  0  2  0  0  0  0  0  0
   14.3340   34.1280   70.6950 C   0  0  0  0  0  0  0  0  0  0  0  0
   13.4130   34.0080   69.6560 C   0  0  0  0  0  3  0  0  0  0  0  0
   12.9360   35.1450   69.0560 C   0  0  0  0  0  3  0  0  0  0  0  0
   13.3270   36.4080   69.4310 C   0  0  0  0  0  3  0  0  0  0  0  0
   14.2390   36.4850   70.4610 C   0  0  0  0  0  3  0  0  0  0  0  0
   14.7500   35.3740   71.1000 C   0  0  0  0  0  3  0  0  0  0  0  0
   19.7830   30.5720   73.9250 C   0  0  0  0  0  2  0  0  0  0  0  0
   20.8490   30.1670   72.9170 C   0  0  0  0  0  2  0  0  0  0  0  0
   21.0360   28.7940   72.9210 O   0  0  0  0  0  0  0  0  0  0  0  0
   20.1590   28.2120   73.8150 C   0  0  0  0  0  1  0  0  0  0  0  0
  1  2  1  0  0  0  0
  2  7  2  0  0  0  0
  2  3  1  0  0  0  0
  3  4  2  0  0  0  0
  4  5  1  0  0  0  0
  4  8  1  0  0  0  0
  6  5  2  0  0  0  0
  7  6  1  0  0  0  0
  8 18  1  6  0  0  0
  8 12  1  0  0  0  0
  9  8  1  0  0  0  0
  9 10  1  0  0  0  0
 10 23  1  1  0  0  0
 10 11  1  0  0  0  0
 11 16  1  6  0  0  0
 12 11  1  0  0  0  0
 12 13  1  1  0  0  0
 13 14  2  0  0  0  0
 13 15  1  0  0  0  0
 15 30  1  0  0  0  0
 16 15  1  0  0  0  0
 17 16  2  0  0  0  0
 18 19  2  0  0  0  0
 20  3  1  0  0  0  0
 20 18  1  0  0  0  0
 21  9  1  0  0  0  0
 22 20  1  0  0  0  0
 24 29  1  0  0  0  0
 24 23  1  0  0  0  0
 25 24  2  0  0  0  0
 26 27  2  0  0  0  0
 26 25  1  0  0  0  0
 27 28  1  0  0  0  0
 28 29  2  0  0  0  0
 31 32  1  0  0  0  0
 31 30  1  0  0  0  0
 32 33  1  0  0  0  0
M  END
>  <Pose>
1

>  <Score>
-9.415

$$$$
