/Users/jonathanwahrer/Desktop/Msc/3_Semester/Drug_Design_Praktikum/waehrer_HTS_screening/HTS_experiment/out/docking_results/vina_output/4x21/2149_docked.pdbqt
 OpenBabel03212202553D

 24 27  0  0  0  0  0  0  0  0999 V2000
   17.3650   37.8470   69.3330 N   0  0  0  0  0  0  0  0  0  0  0  0
   17.2530   38.1400   68.0500 N   0  0  0  0  0  0  0  0  0  0  0  0
   18.4000   37.9670   67.4200 N   0  0  0  0  0  0  0  0  0  0  0  0
   19.3090   37.5470   68.3000 C   0  0  0  0  0  0  0  0  0  0  0  0
   18.6560   37.4710   69.5110 C   0  0  0  0  0  0  0  0  0  0  0  0
   19.3610   37.0670   70.5780 N   0  0  0  0  0  0  0  0  0  0  0  0
   20.6620   36.7460   70.4660 C   0  0  0  0  0  3  0  0  0  0  0  0
   21.2770   36.8290   69.2740 N   0  0  0  0  0  0  0  0  0  0  0  0
   20.6510   37.2280   68.1360 C   0  0  0  0  0  0  0  0  0  0  0  0
   16.3420   37.9030   70.3760 C   0  0  0  0  0  2  0  0  0  0  0  0
   15.6520   36.5890   70.4000 C   0  0  0  0  0  0  0  0  0  0  0  0
   14.3590   36.5400   69.9550 C   0  0  0  0  0  3  0  0  0  0  0  0
   13.6410   35.3560   69.9440 C   0  0  0  0  0  3  0  0  0  0  0  0
   14.2410   34.2040   70.3880 C   0  0  0  0  0  0  0  0  0  0  0  0
   13.3470   32.6880   70.3830 Cl  0  0  0  0  0  0  0  0  0  0  0  0
   15.5450   34.2630   70.8360 C   0  0  0  0  0  3  0  0  0  0  0  0
   16.2550   35.4370   70.8470 C   0  0  0  0  0  3  0  0  0  0  0  0
   21.2910   37.3150   66.8860 N   0  0  0  0  0  0  0  0  0  0  0  0
   21.6560   38.5190   66.1880 C   0  0  0  0  0  2  0  0  0  0  0  0
   23.1250   38.5100   65.9790 C   0  0  0  0  0  2  0  0  0  0  0  0
   23.8060   37.2910   66.1070 N   0  0  0  0  0  0  0  0  0  0  0  0
   23.1150   36.0760   66.0180 C   0  0  0  0  0  2  0  0  0  0  0  0
   24.5950   37.3080   67.3260 C   0  0  0  0  0  1  0  0  0  0  0  0
   21.6410   36.1070   66.1810 C   0  0  0  0  0  2  0  0  0  0  0  0
  1  5  1  0  0  0  0
  1 10  1  0  0  0  0
  2  1  1  0  0  0  0
  3  2  2  0  0  0  0
  3  4  1  0  0  0  0
  4  5  1  0  0  0  0
  5  6  2  0  0  0  0
  7  6  1  0  0  0  0
  8  7  2  0  0  0  0
  9  4  2  0  0  0  0
  9  8  1  0  0  0  0
 10 11  1  0  0  0  0
 11 17  1  0  0  0  0
 12 11  2  0  0  0  0
 13 12  1  0  0  0  0
 13 14  2  0  0  0  0
 14 16  1  0  0  0  0
 15 14  1  0  0  0  0
 16 17  2  0  0  0  0
 18  9  1  0  0  0  0
 19 18  1  0  0  0  0
 20 21  1  0  0  0  0
 20 19  1  0  0  0  0
 21 23  1  0  0  0  0
 22 21  1  0  0  0  0
 22 24  1  0  0  0  0
 24 18  1  0  0  0  0
M  END
>  <Pose>
1

>  <Score>
-8.164

$$$$
