/Users/jonathanwahrer/Desktop/Msc/3_Semester/Drug_Design_Praktikum/waehrer_HTS_screening/HTS_experiment/out/docking_results/vina_output/4x21/2164_docked.pdbqt
 OpenBabel03212202563D

 25 28  0  0  1  0  0  0  0  0999 V2000
   13.3030   32.3170   71.2220 C   0  0  2  0  0  3  0  0  0  0  0  0
   13.8790   31.9190   72.5560 C   0  0  0  0  0  2  0  0  0  0  0  0
   14.7490   30.9210   71.9150 N   0  0  0  0  0  0  0  0  0  0  0  0
   13.8650   31.0010   70.7670 C   0  0  0  0  0  2  0  0  0  0  0  0
   13.9620   33.5220   70.6090 C   0  0  0  0  0  0  0  0  0  0  0  0
   14.9420   34.2100   71.3400 N   0  0  0  0  0  0  0  0  0  0  0  0
   15.1980   33.8500   72.3320 H   0  0  0  0  0  0  0  0  0  0  0  0
   13.5670   33.8160   69.4710 O   0  0  0  0  0  0  0  0  0  0  0  0
   15.6400   35.3510   70.8960 C   0  0  0  0  0  0  0  0  0  0  0  0
   17.0190   35.2570   70.6580 C   0  0  0  0  0  3  0  0  0  0  0  0
   17.7760   36.3200   70.2230 C   0  0  0  0  0  0  0  0  0  0  0  0
   19.6480   36.1490   69.9120 Br  0  0  0  0  0  0  0  0  0  0  0  0
   17.1820   37.5280   70.0080 C   0  0  0  0  0  3  0  0  0  0  0  0
   15.8480   37.6470   70.2310 C   0  0  0  0  0  3  0  0  0  0  0  0
   15.0710   36.5730   70.6710 C   0  0  0  0  0  3  0  0  0  0  0  0
   15.9240   30.2330   72.3250 C   0  0  0  0  0  0  0  0  0  0  0  0
   15.9630   28.8810   72.4490 N   0  0  0  0  0  0  0  0  0  0  0  0
   17.1050   28.2440   72.8440 C   0  0  0  0  0  3  0  0  0  0  0  0
   18.2190   28.9290   73.1200 N   0  0  0  0  0  0  0  0  0  0  0  0
   18.2510   30.2590   73.0190 C   0  0  0  0  0  0  0  0  0  0  0  0
   19.2290   31.1600   73.2370 N   0  0  0  0  0  0  0  0  0  0  0  0
   17.0960   30.9000   72.6200 C   0  0  0  0  0  0  0  0  0  0  0  0
   18.7080   32.3410   72.9830 N   0  0  0  0  0  0  0  0  0  0  0  0
   20.6030   30.9140   73.6680 C   0  0  0  0  0  1  0  0  0  0  0  0
   17.4290   32.2190   72.6100 N   0  0  0  0  0  0  0  0  0  0  0  0
  1  5  1  6  0  0  0
  1  2  1  0  0  0  0
  3 16  1  0  0  0  0
  3  2  1  0  0  0  0
  4  1  1  0  0  0  0
  4  3  1  0  0  0  0
  5  6  1  0  0  0  0
  6  7  1  0  0  0  0
  8  5  2  0  0  0  0
  9  6  1  0  0  0  0
 10  9  2  0  0  0  0
 11 10  1  0  0  0  0
 12 11  1  0  0  0  0
 13 11  2  0  0  0  0
 13 14  1  0  0  0  0
 14 15  2  0  0  0  0
 15  9  1  0  0  0  0
 16 17  2  0  0  0  0
 16 22  1  0  0  0  0
 17 18  1  0  0  0  0
 18 19  2  0  0  0  0
 20 19  1  0  0  0  0
 20 21  1  0  0  0  0
 21 24  1  0  0  0  0
 22 20  2  0  0  0  0
 23 21  1  0  0  0  0
 25 22  1  0  0  0  0
 25 23  2  0  0  0  0
M  END
>  <Pose>
1

>  <Score>
-8.292

$$$$
