/Users/jonathanwahrer/Desktop/Msc/3_Semester/Drug_Design_Praktikum/waehrer_HTS_screening/HTS_experiment/out/docking_results/vina_output/4x21/2184_docked.pdbqt
 OpenBabel03212202563D

 29 32  0  0  0  0  0  0  0  0999 V2000
   20.4650   32.5290   71.4550 N   0  0  0  0  0  4  0  0  0  0  0  0
   19.3970   32.0370   70.7300 C   0  0  0  0  0  2  0  0  0  0  0  0
   18.2260   31.6250   71.6870 C   0  0  0  0  0  2  0  0  0  0  0  0
   17.7860   33.0420   72.1040 N   0  0  0  0  0  0  0  0  0  0  0  0
   18.7340   33.6610   72.8950 C   0  0  0  0  0  2  0  0  0  0  0  0
   19.9920   32.7650   72.8500 C   0  0  0  0  0  2  0  0  0  0  0  0
   21.1480   31.7180   71.6060 H   0  0  0  0  0  0  0  0  0  0  0  0
   21.2530   33.6270   71.1010 C   0  0  0  0  0  2  0  0  0  0  0  0
   21.7380   33.8430   69.7280 C   0  0  0  0  0  0  0  0  0  0  0  0
   21.1330   34.9770   69.0990 C   0  0  0  0  0  0  0  0  0  0  0  0
   20.1400   35.6410   69.7320 C   0  0  0  0  0  3  0  0  0  0  0  0
   21.5520   35.3530   67.8530 C   0  0  0  0  0  0  0  0  0  0  0  0
   19.5220   36.7130   69.1460 C   0  0  0  0  0  0  0  0  0  0  0  0
   18.1760   37.5900   69.8820 Cl  0  0  0  0  0  0  0  0  0  0  0  0
   19.9150   37.1470   67.8760 C   0  0  0  0  0  0  0  0  0  0  0  0
   20.9170   36.4630   67.2460 C   0  0  0  0  0  3  0  0  0  0  0  0
   19.3180   38.2650   67.2520 O   0  0  0  0  0  1  0  0  0  0  0  0
   22.4870   34.7220   67.2020 O   0  0  0  0  0  0  0  0  0  0  0  0
   23.0780   33.6630   67.7440 C   0  0  0  0  0  0  0  0  0  0  0  0
   23.9640   33.0790   67.1080 O   0  0  0  0  0  0  0  0  0  0  0  0
   22.7030   33.2090   69.0250 C   0  0  0  0  0  3  0  0  0  0  0  0
   16.5520   33.4150   71.5280 C   0  0  0  0  0  0  0  0  0  0  0  0
   15.3360   32.9100   71.8310 C   0  0  0  0  0  3  0  0  0  0  0  0
   14.1340   33.5240   71.3760 C   0  0  0  0  0  3  0  0  0  0  0  0
   14.1540   34.6580   70.6090 C   0  0  0  0  0  0  0  0  0  0  0  0
   15.4020   35.1810   70.2840 C   0  0  0  0  0  3  0  0  0  0  0  0
   16.5670   34.5740   70.7280 C   0  0  0  0  0  3  0  0  0  0  0  0
   12.9550   35.2190   70.1890 O   0  0  0  0  0  0  0  0  0  0  0  0
   12.9370   36.4240   69.4080 C   0  0  0  0  0  1  0  0  0  0  0  0
  1  7  1  0  0  0  0
  1  6  1  0  0  0  0
  2  1  1  0  0  0  0
  2  3  1  0  0  0  0
  3  4  1  0  0  0  0
  4  5  1  0  0  0  0
  6  5  1  0  0  0  0
  8  1  1  0  0  0  0
  9  8  1  0  0  0  0
 10  9  1  0  0  0  0
 10 11  1  0  0  0  0
 12 10  2  0  0  0  0
 13 11  2  0  0  0  0
 13 14  1  0  0  0  0
 15 13  1  0  0  0  0
 16 12  1  0  0  0  0
 16 15  2  0  0  0  0
 17 15  1  0  0  0  0
 18 19  1  0  0  0  0
 18 12  1  0  0  0  0
 19 21  1  0  0  0  0
 20 19  2  0  0  0  0
 21  9  2  0  0  0  0
 22 23  1  0  0  0  0
 22  4  1  0  0  0  0
 24 23  2  0  0  0  0
 25 24  1  0  0  0  0
 26 25  2  0  0  0  0
 26 27  1  0  0  0  0
 27 22  2  0  0  0  0
 28 25  1  0  0  0  0
 29 28  1  0  0  0  0
M  END
>  <Pose>
1

>  <Score>
-8.940

$$$$
