/Users/jonathanwahrer/Desktop/Msc/3_Semester/Drug_Design_Praktikum/waehrer_HTS_screening/HTS_experiment/out/docking_results/vina_output/4x21/2195_docked.pdbqt
 OpenBabel03212202573D

 29 32  0  0  1  0  0  0  0  0999 V2000
   19.6000   34.9070   70.9140 C   0  0  0  0  0  0  0  0  0  0  0  0
   18.3580   34.6750   71.3330 N   0  0  0  0  0  0  0  0  0  0  0  0
   17.8400   33.4350   71.3690 C   0  0  0  0  0  0  0  0  0  0  0  0
   16.6330   32.9300   71.7430 N   0  0  0  0  0  0  0  0  0  0  0  0
   16.7020   31.6280   71.5600 N   0  0  0  0  0  0  0  0  0  0  0  0
   17.8830   31.2680   71.0920 N   0  0  0  0  0  0  0  0  0  0  0  0
   18.6290   32.3700   70.9560 C   0  0  0  0  0  0  0  0  0  0  0  0
   19.9230   32.5960   70.5180 C   0  0  0  0  0  0  0  0  0  0  0  0
   20.3430   33.8680   70.5200 N   0  0  0  0  0  0  0  0  0  0  0  0
   20.2090   36.2650   70.8670 C   0  0  1  0  0  3  0  0  0  0  0  0
   21.5970   36.3100   70.4050 C   0  0  0  0  0  2  0  0  0  0  0  0
   21.9220   36.8230   69.1510 N   0  0  0  0  0  0  0  0  0  0  0  0
   20.9460   37.0850   68.2000 C   0  0  0  0  0  2  0  0  0  0  0  0
   19.5240   36.8090   68.5980 C   0  0  0  0  0  2  0  0  0  0  0  0
   19.3270   37.1550   70.0310 C   0  0  0  0  0  2  0  0  0  0  0  0
   23.4720   36.4170   68.6000 S   0  0  0  0  0  0  0  0  0  0  0  0
   24.5540   37.2100   69.2470 O   0  0  0  0  0  0  0  0  0  0  0  0
   23.5010   36.6060   67.0970 O   0  0  0  0  0  0  0  0  0  0  0  0
   23.8130   34.6700   68.8640 C   0  0  0  0  0  1  0  0  0  0  0  0
   20.7270   31.5440   70.1010 O   0  0  0  0  0  0  0  0  0  0  0  0
   20.4150   30.9300   69.3640 H   0  0  0  0  0  0  0  0  0  0  0  0
   15.5170   33.6750   72.2350 C   0  0  0  0  0  2  0  0  0  0  0  0
   14.8120   34.4520   71.1870 C   0  0  0  0  0  0  0  0  0  0  0  0
   13.8400   33.8250   70.4500 C   0  0  0  0  0  0  0  0  0  0  0  0
   13.1300   34.4800   69.4460 C   0  0  0  0  0  3  0  0  0  0  0  0
   13.4530   32.1440   70.7520 Cl  0  0  0  0  0  0  0  0  0  0  0  0
   13.3970   35.8040   69.1680 C   0  0  0  0  0  3  0  0  0  0  0  0
   14.3700   36.4410   69.9050 C   0  0  0  0  0  3  0  0  0  0  0  0
   15.0740   35.7750   70.9060 C   0  0  0  0  0  3  0  0  0  0  0  0
  1  2  2  0  0  0  0
  2  3  1  0  0  0  0
  3  4  1  0  0  0  0
  4 22  1  0  0  0  0
  5  4  1  0  0  0  0
  6  5  2  0  0  0  0
  7  6  1  0  0  0  0
  7  3  2  0  0  0  0
  8  9  2  0  0  0  0
  8  7  1  0  0  0  0
  9  1  1  0  0  0  0
 10  1  1  6  0  0  0
 11 10  1  0  0  0  0
 12 11  1  0  0  0  0
 13 14  1  0  0  0  0
 13 12  1  0  0  0  0
 14 15  1  0  0  0  0
 15 10  1  0  0  0  0
 16 19  1  0  0  0  0
 16 12  1  0  0  0  0
 16 17  2  0  0  0  0
 18 16  2  0  0  0  0
 20  8  1  0  0  0  0
 21 20  1  0  0  0  0
 23 22  1  0  0  0  0
 24 26  1  0  0  0  0
 24 23  2  0  0  0  0
 25 24  1  0  0  0  0
 27 25  2  0  0  0  0
 27 28  1  0  0  0  0
 28 29  2  0  0  0  0
 29 23  1  0  0  0  0
M  END
>  <Pose>
1

>  <Score>
-9.236

$$$$
