/Users/jonathanwahrer/Desktop/Msc/3_Semester/Drug_Design_Praktikum/waehrer_HTS_screening/HTS_experiment/out/docking_results/vina_output/4x21/2197_docked.pdbqt
 OpenBabel03212202573D

 28 31  0  0  1  0  0  0  0  0999 V2000
   21.9860   35.9600   69.5250 N   0  0  0  0  0  0  0  0  0  0  0  0
   21.5510   35.0400   70.5960 C   0  0  0  0  0  2  0  0  0  0  0  0
   20.0700   34.9680   70.5390 C   0  0  2  0  0  3  0  0  0  0  0  0
   19.3670   36.1120   70.4520 O   0  0  0  0  0  0  0  0  0  0  0  0
   19.9700   37.2520   70.0840 C   0  0  0  0  0  2  0  0  0  0  0  0
   21.4470   37.2170   69.8920 C   0  0  0  0  0  2  0  0  0  0  0  0
   19.6230   34.2120   71.7450 C   0  0  0  0  0  0  0  0  0  0  0  0
   20.1360   34.5360   72.8490 O   0  0  0  0  0  0  0  0  0  0  0  0
   18.6760   33.1710   71.7360 N   0  0  0  0  0  0  0  0  0  0  0  0
   18.0030   32.6900   70.5440 C   0  0  0  0  0  2  0  0  0  0  0  0
   18.2850   32.4740   72.9710 C   0  0  0  0  0  2  0  0  0  0  0  0
   17.1660   31.4940   70.9540 C   0  0  0  0  0  2  0  0  0  0  0  0
   16.1550   31.8300   71.9390 N   0  0  0  0  0  0  0  0  0  0  0  0
   16.7550   32.5700   73.0030 C   0  0  0  0  0  2  0  0  0  0  0  0
   15.0770   32.4850   71.2710 C   0  0  0  0  0  2  0  0  0  0  0  0
   14.8600   33.9060   71.7140 C   0  0  0  0  0  3  0  0  0  0  0  0
   13.6640   34.5710   71.0330 C   0  0  0  0  0  2  0  0  0  0  0  0
   15.0660   35.0510   70.8250 C   0  0  0  0  0  2  0  0  0  0  0  0
   21.6560   35.3320   67.9980 S   0  0  0  0  0  0  0  0  0  0  0  0
   21.0810   33.9230   68.1970 O   0  0  0  0  0  0  0  0  0  0  0  0
   20.5630   36.0720   67.2660 O   0  0  0  0  0  0  0  0  0  0  0  0
   23.0630   35.1240   67.0050 C   0  0  0  0  0  0  0  0  0  0  0  0
   23.6040   36.1650   66.2820 C   0  0  0  0  0  0  0  0  0  0  0  0
   24.6890   35.9950   65.4440 C   0  0  0  0  0  3  0  0  0  0  0  0
   22.9760   37.8140   66.4640 Cl  0  0  0  0  0  0  0  0  0  0  0  0
   25.2590   34.7530   65.3180 C   0  0  0  0  0  3  0  0  0  0  0  0
   24.7290   33.6940   66.0400 C   0  0  0  0  0  3  0  0  0  0  0  0
   23.6550   33.8680   66.8660 C   0  0  0  0  0  3  0  0  0  0  0  0
  1  6  1  0  0  0  0
  1  2  1  0  0  0  0
  3  2  1  0  0  0  0
  3  7  1  1  0  0  0
  4  3  1  0  0  0  0
  5  4  1  0  0  0  0
  6  5  1  0  0  0  0
  7  8  2  0  0  0  0
  9  7  1  0  0  0  0
  9 11  1  0  0  0  0
 10 12  1  0  0  0  0
 10  9  1  0  0  0  0
 11 14  1  0  0  0  0
 12 13  1  0  0  0  0
 13 14  1  0  0  0  0
 15 16  1  0  0  0  0
 15 13  1  0  0  0  0
 17 16  1  0  0  0  0
 18 17  1  0  0  0  0
 18 16  1  0  0  0  0
 19 20  2  0  0  0  0
 19  1  1  0  0  0  0
 21 19  2  0  0  0  0
 22 19  1  0  0  0  0
 23 25  1  0  0  0  0
 23 22  2  0  0  0  0
 24 23  1  0  0  0  0
 26 24  2  0  0  0  0
 26 27  1  0  0  0  0
 27 28  2  0  0  0  0
 28 22  1  0  0  0  0
M  END
>  <Pose>
1

>  <Score>
-7.865

$$$$
