/Users/jonathanwahrer/Desktop/Msc/3_Semester/Drug_Design_Praktikum/waehrer_HTS_screening/HTS_experiment/out/docking_results/vina_output/4x21/2210_docked.pdbqt
 OpenBabel03212202573D

 33 36  0  0  0  0  0  0  0  0999 V2000
   13.1600   31.5370   72.2520 C   0  0  0  0  0  3  0  0  0  0  0  0
   13.9430   32.5520   71.8630 C   0  0  0  0  0  0  0  0  0  0  0  0
   15.2640   32.7120   72.2640 O   0  0  0  0  0  0  0  0  0  0  0  0
   15.7850   33.8570   71.6450 C   0  0  0  0  0  0  0  0  0  0  0  0
   14.8720   34.4790   70.8500 C   0  0  0  0  0  0  0  0  0  0  0  0
   15.1830   35.6100   70.1320 C   0  0  0  0  0  3  0  0  0  0  0  0
   16.4630   36.1480   70.2080 C   0  0  0  0  0  3  0  0  0  0  0  0
   17.3940   35.5060   71.0270 C   0  0  0  0  0  0  0  0  0  0  0  0
   17.0820   34.3920   71.7360 C   0  0  0  0  0  0  0  0  0  0  0  0
   18.6520   36.1070   71.0490 O   0  0  0  0  0  1  0  0  0  0  0  0
   13.6370   33.6500   70.9710 C   0  0  0  0  0  0  0  0  0  0  0  0
   12.5500   33.8610   70.4170 O   0  0  0  0  0  0  0  0  0  0  0  0
   17.9500   33.7760   72.7630 C   0  0  0  0  0  2  0  0  0  0  0  0
   19.0390   33.0930   72.2410 N   0  0  0  0  0  4  0  0  0  0  0  0
   18.6240   31.9440   71.3760 C   0  0  0  0  0  2  0  0  0  0  0  0
   19.4710   32.1190   70.0910 C   0  0  0  0  0  2  0  0  0  0  0  0
   20.5400   33.0310   70.3510 N   0  0  0  0  0  0  0  0  0  0  0  0
   21.2720   32.7940   71.5320 C   0  0  0  0  0  2  0  0  0  0  0  0
   20.2820   32.7950   72.7780 C   0  0  0  0  0  2  0  0  0  0  0  0
   19.2760   33.8220   71.3880 H   0  0  0  0  0  0  0  0  0  0  0  0
   20.7730   34.0630   69.4690 C   0  0  0  0  0  2  0  0  0  0  0  0
   21.8820   35.0360   69.7150 C   0  0  0  0  0  2  0  0  0  0  0  0
   21.4320   36.1330   70.4660 O   0  0  0  0  0  0  0  0  0  0  0  0
   22.2370   36.6150   70.8500 H   0  0  0  0  0  0  0  0  0  0  0  0
   13.8040   30.5610   73.1480 C   0  0  0  0  0  0  0  0  0  0  0  0
   14.8320   29.8180   72.6870 C   0  0  0  0  0  3  0  0  0  0  0  0
   15.3740   28.8260   73.5210 C   0  0  0  0  0  0  0  0  0  0  0  0
   16.8270   27.7610   72.9000 Br  0  0  0  0  0  0  0  0  0  0  0  0
   14.8850   28.5940   74.7830 C   0  0  0  0  0  3  0  0  0  0  0  0
   13.8290   29.3700   75.2190 C   0  0  0  0  0  3  0  0  0  0  0  0
   13.2750   30.3680   74.4050 C   0  0  0  0  0  0  0  0  0  0  0  0
   12.2140   31.1480   74.8400 O   0  0  0  0  0  0  0  0  0  0  0  0
   11.1230   30.7170   75.5770 C   0  0  0  0  0  1  0  0  0  0  0  0
  1 25  1  0  0  0  0
  2  1  2  0  0  0  0
  2  3  1  0  0  0  0
  4  9  1  0  0  0  0
  4  3  1  0  0  0  0
  5 11  1  0  0  0  0
  5  4  2  0  0  0  0
  6  7  2  0  0  0  0
  6  5  1  0  0  0  0
  7  8  1  0  0  0  0
  8 10  1  0  0  0  0
  8  9  2  0  0  0  0
  9 13  1  0  0  0  0
 11  2  1  0  0  0  0
 12 11  2  0  0  0  0
 14 13  1  0  0  0  0
 14 19  1  0  0  0  0
 15 14  1  0  0  0  0
 16 17  1  0  0  0  0
 16 15  1  0  0  0  0
 17 18  1  0  0  0  0
 18 19  1  0  0  0  0
 20 14  1  0  0  0  0
 21 22  1  0  0  0  0
 21 17  1  0  0  0  0
 22 23  1  0  0  0  0
 23 24  1  0  0  0  0
 25 31  1  0  0  0  0
 26 25  2  0  0  0  0
 26 27  1  0  0  0  0
 27 29  2  0  0  0  0
 28 27  1  0  0  0  0
 29 30  1  0  0  0  0
 31 32  1  0  0  0  0
 31 30  2  0  0  0  0
 32 33  1  0  0  0  0
M  END
>  <Pose>
1

>  <Score>
-7.673

$$$$
