/Users/jonathanwahrer/Desktop/Msc/3_Semester/Drug_Design_Praktikum/waehrer_HTS_screening/HTS_experiment/out/docking_results/vina_output/4x21/2214_docked.pdbqt
 OpenBabel03212202583D

 34 38  0  0  1  0  0  0  0  0999 V2000
   13.2660   30.1110   74.7390 Cl  0  0  0  0  0  0  0  0  0  0  0  0
   14.6070   30.3300   73.6360 C   0  0  0  0  0  0  0  0  0  0  0  0
   14.9210   31.5490   73.0990 C   0  0  0  0  0  3  0  0  0  0  0  0
   16.0000   31.6790   72.2220 C   0  0  0  0  0  0  0  0  0  0  0  0
   16.7210   30.5610   71.9240 C   0  0  0  0  0  0  0  0  0  0  0  0
   16.4010   29.3080   72.4740 C   0  0  0  0  0  3  0  0  0  0  0  0
   15.3460   29.1810   73.3310 C   0  0  0  0  0  3  0  0  0  0  0  0
   17.7620   30.9170   71.0200 N   0  0  0  0  0  0  0  0  0  0  0  0
   17.6940   32.2950   70.7430 C   0  0  0  0  0  0  0  0  0  0  0  0
   18.4940   32.9040   69.9650 O   0  0  0  0  0  0  0  0  0  0  0  0
   16.5650   32.8360   71.5060 C   0  0  1  0  0  0  0  0  0  0  0  0
   15.5160   33.3490   70.6530 N   0  0  0  0  0  0  0  0  0  0  0  0
   15.3760   34.7580   70.8420 C   0  0  2  0  0  3  0  0  0  0  0  0
   16.5270   35.1620   71.6760 C   0  0  1  0  0  3  0  0  0  0  0  0
   16.9730   33.9480   72.4430 C   0  0  2  0  0  3  0  0  0  0  0  0
   18.4400   34.1290   72.5100 C   0  0  0  0  0  0  0  0  0  0  0  0
   19.2580   33.5940   73.2990 O   0  0  0  0  0  0  0  0  0  0  0  0
   18.8630   35.0600   71.4910 N   0  0  0  0  0  0  0  0  0  0  0  0
   17.6950   35.4320   70.7680 C   0  0  0  0  0  0  0  0  0  0  0  0
   17.6880   35.8930   69.6020 O   0  0  0  0  0  0  0  0  0  0  0  0
   18.4910   30.2610   70.6060 H   0  0  0  0  0  0  0  0  0  0  0  0
   14.5870   32.9090   70.8380 H   0  0  0  0  0  0  0  0  0  0  0  0
   14.0330   35.1430   71.4020 C   0  0  0  0  0  2  0  0  0  0  0  0
   12.9000   34.4800   70.7840 C   0  0  0  0  0  0  0  0  0  0  0  0
   12.4860   33.3900   71.2340 O   0  0  0  0  0  0  0  0  0  0  0  0
   12.2450   35.0460   69.6680 N   0  0  0  0  0  0  0  0  0  0  0  0
   11.2060   35.1760   69.6940 H   0  0  0  0  0  0  0  0  0  0  0  0
   12.7250   35.3520   68.8010 H   0  0  0  0  0  0  0  0  0  0  0  0
   20.2200   35.5110   71.2650 C   0  0  0  0  0  2  0  0  0  0  0  0
   20.5690   35.6340   69.8070 C   0  0  1  0  0  3  0  0  0  0  0  0
   21.0240   36.9230   69.5440 O   0  0  0  0  0  0  0  0  0  0  0  0
   22.3920   36.9100   69.6920 C   0  0  0  0  0  2  0  0  0  0  0  0
   22.8850   35.5130   69.3860 C   0  0  0  0  0  2  0  0  0  0  0  0
   21.6150   34.6860   69.3370 C   0  0  0  0  0  2  0  0  0  0  0  0
  2  1  1  0  0  0  0
  3  2  2  0  0  0  0
  4  3  1  0  0  0  0
  5  4  2  0  0  0  0
  5  6  1  0  0  0  0
  6  7  2  0  0  0  0
  7  2  1  0  0  0  0
  8  5  1  0  0  0  0
  9  8  1  0  0  0  0
 10  9  2  0  0  0  0
 11  9  1  6  0  0  0
 11  4  1  0  0  0  0
 11 15  1  0  0  0  0
 12 22  1  0  0  0  0
 12 13  1  0  0  0  0
 12 11  1  0  0  0  0
 13 23  1  1  0  0  0
 13 14  1  0  0  0  0
 14 19  1  6  0  0  0
 14 15  1  0  0  0  0
 15 16  1  6  0  0  0
 16 17  2  0  0  0  0
 18 16  1  0  0  0  0
 19 18  1  0  0  0  0
 20 19  2  0  0  0  0
 21  8  1  0  0  0  0
 24 25  2  0  0  0  0
 24 23  1  0  0  0  0
 26 27  1  0  0  0  0
 26 24  1  0  0  0  0
 28 26  1  0  0  0  0
 29 18  1  0  0  0  0
 30 29  1  1  0  0  0
 31 32  1  0  0  0  0
 31 30  1  0  0  0  0
 33 32  1  0  0  0  0
 34 33  1  0  0  0  0
 34 30  1  0  0  0  0
M  END
>  <Pose>
1

>  <Score>
-8.782

$$$$
