/Users/jonathanwahrer/Desktop/Msc/3_Semester/Drug_Design_Praktikum/waehrer_HTS_screening/HTS_experiment/out/docking_results/vina_output/4x21/2231_docked.pdbqt
 OpenBabel03212202583D

 27 31  0  0  0  0  0  0  0  0999 V2000
   21.3570   37.9280   66.8920 N   0  0  0  0  0  0  0  0  0  0  0  0
   20.1170   38.1760   66.5060 N   0  0  0  0  0  0  0  0  0  0  0  0
   19.2370   37.7630   67.3970 N   0  0  0  0  0  0  0  0  0  0  0  0
   19.8860   37.2100   68.4360 C   0  0  0  0  0  0  0  0  0  0  0  0
   21.2200   37.3230   68.0990 C   0  0  0  0  0  0  0  0  0  0  0  0
   22.1320   36.8420   68.9730 N   0  0  0  0  0  0  0  0  0  0  0  0
   21.7130   36.2800   70.1220 C   0  0  0  0  0  3  0  0  0  0  0  0
   20.4010   36.1710   70.4470 N   0  0  0  0  0  0  0  0  0  0  0  0
   19.4520   36.6330   69.6130 C   0  0  0  0  0  0  0  0  0  0  0  0
   18.0670   36.5280   69.9390 N   0  0  0  0  0  0  0  0  0  0  0  0
   17.6450   35.2990   70.5830 C   0  0  0  0  0  2  0  0  0  0  0  0
   16.3700   35.5180   71.3930 C   0  0  0  0  0  2  0  0  0  0  0  0
   15.5010   36.4400   70.7540 N   0  0  0  0  0  0  0  0  0  0  0  0
   16.0950   37.8050   70.6220 C   0  0  0  0  0  2  0  0  0  0  0  0
   14.2300   36.1800   70.2690 C   0  0  0  0  0  0  0  0  0  0  0  0
   17.2130   37.6270   69.6120 C   0  0  0  0  0  2  0  0  0  0  0  0
   13.6380   37.2260   69.7190 O   0  0  0  0  0  0  0  0  0  0  0  0
   13.4070   34.9800   70.2400 C   0  0  0  0  0  3  0  0  0  0  0  0
   12.9000   34.4960   68.9340 C   0  0  0  0  0  2  0  0  0  0  0  0
   13.7960   33.6440   69.8030 C   0  0  0  0  0  2  0  0  0  0  0  0
   22.5560   38.2300   66.1940 C   0  0  0  0  0  0  0  0  0  0  0  0
   23.5440   37.3140   65.9170 C   0  0  0  0  0  3  0  0  0  0  0  0
   24.6890   37.6640   65.2370 C   0  0  0  0  0  3  0  0  0  0  0  0
   24.8680   38.9570   64.8140 C   0  0  0  0  0  0  0  0  0  0  0  0
   26.3130   39.3930   63.9560 Cl  0  0  0  0  0  0  0  0  0  0  0  0
   23.9060   39.8900   65.0730 C   0  0  0  0  0  3  0  0  0  0  0  0
   22.7640   39.5190   65.7570 C   0  0  0  0  0  3  0  0  0  0  0  0
  1  5  1  0  0  0  0
  2  1  1  0  0  0  0
  2  3  2  0  0  0  0
  3  4  1  0  0  0  0
  4  9  1  0  0  0  0
  5  4  2  0  0  0  0
  5  6  1  0  0  0  0
  6  7  2  0  0  0  0
  7  8  1  0  0  0  0
  9 10  1  0  0  0  0
  9  8  2  0  0  0  0
 10 11  1  0  0  0  0
 11 12  1  0  0  0  0
 13 12  1  0  0  0  0
 14 13  1  0  0  0  0
 15 13  1  0  0  0  0
 16 10  1  0  0  0  0
 16 14  1  0  0  0  0
 17 15  2  0  0  0  0
 18 15  1  0  0  0  0
 19 20  1  0  0  0  0
 19 18  1  0  0  0  0
 20 18  1  0  0  0  0
 21  1  1  0  0  0  0
 22 21  1  0  0  0  0
 23 22  2  0  0  0  0
 24 26  2  0  0  0  0
 24 23  1  0  0  0  0
 25 24  1  0  0  0  0
 26 27  1  0  0  0  0
 27 21  2  0  0  0  0
M  END
>  <Pose>
1

>  <Score>
-8.981

$$$$
