/Users/jonathanwahrer/Desktop/Msc/3_Semester/Drug_Design_Praktikum/waehrer_HTS_screening/HTS_experiment/out/docking_results/vina_output/4x21/2266_docked.pdbqt
 OpenBabel03212202583D

 27 30  0  0  1  0  0  0  0  0999 V2000
   14.7580   35.2310   71.0770 N   0  0  0  0  0  0  0  0  0  0  0  0
   14.5900   36.2930   70.1690 C   0  0  0  0  0  2  0  0  0  0  0  0
   15.5990   37.4120   70.3380 C   0  0  0  0  0  2  0  0  0  0  0  0
   16.9430   36.7620   70.3080 C   0  0  1  0  0  3  0  0  0  0  0  0
   17.0990   35.6320   71.0840 C   0  0  0  0  0  0  0  0  0  0  0  0
   18.2760   35.0040   71.1010 N   0  0  0  0  0  0  0  0  0  0  0  0
   19.2790   35.5040   70.3510 C   0  0  2  0  0  3  0  0  0  0  0  0
   19.1520   36.6020   69.5860 N   0  0  0  0  0  0  0  0  0  0  0  0
   20.3120   36.8620   68.9540 N   0  0  0  0  0  0  0  0  0  0  0  0
   21.2310   35.9430   69.2840 C   0  0  0  0  0  3  0  0  0  0  0  0
   20.6030   35.0860   70.1560 C   0  0  0  0  0  3  0  0  0  0  0  0
   17.9740   37.2630   69.5450 C   0  0  0  0  0  0  0  0  0  0  0  0
   17.7950   38.2960   68.8490 O   0  0  0  0  0  0  0  0  0  0  0  0
   15.9210   35.1840   71.8640 C   0  0  0  0  0  2  0  0  0  0  0  0
   20.4470   37.6700   68.3040 H   0  0  0  0  0  0  0  0  0  0  0  0
   13.8870   33.8230   70.8140 S   0  0  0  0  0  0  0  0  0  0  0  0
   12.4000   34.0170   71.0730 O   0  0  0  0  0  0  0  0  0  0  0  0
   13.9690   33.4930   69.3260 O   0  0  0  0  0  0  0  0  0  0  0  0
   14.3790   32.4320   71.7010 C   0  0  0  0  0  0  0  0  0  0  0  0
   15.5890   31.7990   71.4230 C   0  0  0  0  0  0  0  0  0  0  0  0
   15.9500   30.6870   72.1500 C   0  0  0  0  0  3  0  0  0  0  0  0
   15.1680   30.1790   73.1350 C   0  0  0  0  0  3  0  0  0  0  0  0
   13.9750   30.7760   73.4320 C   0  0  0  0  0  0  0  0  0  0  0  0
   13.6120   31.8900   72.7050 C   0  0  0  0  0  3  0  0  0  0  0  0
   12.9360   30.1360   74.7100 Cl  0  0  0  0  0  0  0  0  0  0  0  0
   16.4400   32.2490   70.4420 O   0  0  0  0  0  0  0  0  0  0  0  0
   17.7290   31.6880   70.3420 C   0  0  0  0  0  1  0  0  0  0  0  0
  1 14  1  0  0  0  0
  2  3  1  0  0  0  0
  2  1  1  0  0  0  0
  4  3  1  6  0  0  0
  4  5  1  0  0  0  0
  5  6  2  0  0  0  0
  5 14  1  0  0  0  0
  7 11  1  6  0  0  0
  7  6  1  0  0  0  0
  8  7  1  0  0  0  0
  9 10  1  0  0  0  0
  9  8  1  0  0  0  0
 10 11  2  0  0  0  0
 12  8  1  0  0  0  0
 12  4  1  0  0  0  0
 13 12  2  0  0  0  0
 15  9  1  0  0  0  0
 16 17  2  0  0  0  0
 16  1  1  0  0  0  0
 16 19  1  0  0  0  0
 18 16  2  0  0  0  0
 19 24  1  0  0  0  0
 20 19  2  0  0  0  0
 20 21  1  0  0  0  0
 21 22  2  0  0  0  0
 22 23  1  0  0  0  0
 23 25  1  0  0  0  0
 24 23  2  0  0  0  0
 26 20  1  0  0  0  0
 27 26  1  0  0  0  0
M  END
>  <Pose>
1

>  <Score>
-8.567

$$$$
