/Users/jonathanwahrer/Desktop/Msc/3_Semester/Drug_Design_Praktikum/waehrer_HTS_screening/HTS_experiment/out/docking_results/vina_output/4x21/2267_docked.pdbqt
 OpenBabel03212202593D

 27 30  0  0  1  0  0  0  0  0999 V2000
   20.8360   36.0990   68.0570 N   0  0  0  0  0  0  0  0  0  0  0  0
   21.8980   35.2380   67.7880 C   0  0  0  0  0  2  0  0  0  0  0  0
   22.7120   35.6360   66.5790 C   0  0  0  0  0  2  0  0  0  0  0  0
   22.6900   37.0920   66.3030 C   0  0  2  0  0  3  0  0  0  0  0  0
   21.5100   37.7530   66.5430 C   0  0  0  0  0  0  0  0  0  0  0  0
   21.3960   39.0680   66.3210 N   0  0  0  0  0  0  0  0  0  0  0  0
   22.4790   39.7660   65.8460 C   0  0  2  0  0  3  0  0  0  0  0  0
   23.6290   39.1000   65.6170 N   0  0  0  0  0  0  0  0  0  0  0  0
   24.5150   39.9920   65.1660 N   0  0  0  0  0  0  0  0  0  0  0  0
   23.9620   41.1970   65.1030 C   0  0  0  0  0  3  0  0  0  0  0  0
   22.6410   41.0990   65.5360 C   0  0  0  0  0  3  0  0  0  0  0  0
   23.7990   37.7870   65.8210 C   0  0  0  0  0  0  0  0  0  0  0  0
   24.8700   37.1690   65.6080 O   0  0  0  0  0  0  0  0  0  0  0  0
   20.3660   36.9810   67.0550 C   0  0  0  0  0  2  0  0  0  0  0  0
   25.5040   39.7870   64.8970 H   0  0  0  0  0  0  0  0  0  0  0  0
   20.4260   36.4250   69.6410 S   0  0  0  0  0  0  0  0  0  0  0  0
   20.9970   35.3510   70.5400 O   0  0  0  0  0  0  0  0  0  0  0  0
   21.0100   37.7280   70.1010 O   0  0  0  0  0  0  0  0  0  0  0  0
   18.7050   36.4740   69.9510 C   0  0  0  0  0  0  0  0  0  0  0  0
   18.0390   35.4820   70.6500 C   0  0  0  0  0  3  0  0  0  0  0  0
   16.6720   35.5720   70.8660 C   0  0  0  0  0  0  0  0  0  0  0  0
   15.9240   36.6310   70.4060 C   0  0  0  0  0  0  0  0  0  0  0  0
   15.8460   34.3070   71.7540 Cl  0  0  0  0  0  0  0  0  0  0  0  0
   16.5860   37.6190   69.7100 C   0  0  0  0  0  3  0  0  0  0  0  0
   17.9430   37.5300   69.4950 C   0  0  0  0  0  3  0  0  0  0  0  0
   14.5410   36.7030   70.6370 O   0  0  0  0  0  0  0  0  0  0  0  0
   13.6510   36.7790   69.5390 C   0  0  0  0  0  1  0  0  0  0  0  0
  1 16  1  0  0  0  0
  2  1  1  0  0  0  0
  3  2  1  0  0  0  0
  4  5  1  0  0  0  0
  4  3  1  6  0  0  0
  5 14  1  0  0  0  0
  6  5  2  0  0  0  0
  7 11  1  1  0  0  0
  7  6  1  0  0  0  0
  8 12  1  0  0  0  0
  8  7  1  0  0  0  0
  9  8  1  0  0  0  0
 10  9  1  0  0  0  0
 10 11  2  0  0  0  0
 12  4  1  0  0  0  0
 13 12  2  0  0  0  0
 14  1  1  0  0  0  0
 15  9  1  0  0  0  0
 16 19  1  0  0  0  0
 16 18  2  0  0  0  0
 16 17  2  0  0  0  0
 19 20  1  0  0  0  0
 20 21  2  0  0  0  0
 21 23  1  0  0  0  0
 22 26  1  0  0  0  0
 22 21  1  0  0  0  0
 24 22  2  0  0  0  0
 25 24  1  0  0  0  0
 25 19  2  0  0  0  0
 27 26  1  0  0  0  0
M  END
>  <Pose>
1

>  <Score>
-8.835

$$$$
