/Users/jonathanwahrer/Desktop/Msc/3_Semester/Drug_Design_Praktikum/waehrer_HTS_screening/HTS_experiment/out/docking_results/vina_output/4x21/2270_docked.pdbqt
 OpenBabel03212202593D

 22 24  0  0  1  0  0  0  0  0999 V2000
   18.8750   36.8280   69.9990 C   0  0  0  0  0  0  0  0  0  0  0  0
   18.8480   37.6060   69.0040 O   0  0  0  0  0  0  0  0  0  0  0  0
   20.0780   36.6090   70.7390 N   0  0  0  0  0  0  0  0  0  0  0  0
   20.0500   35.9720   71.5340 H   0  0  0  0  0  0  0  0  0  0  0  0
   17.6670   36.1490   70.3910 C   0  0  0  0  0  0  0  0  0  0  0  0
   16.4550   36.8240   70.2090 C   0  0  0  0  0  3  0  0  0  0  0  0
   15.2350   36.2830   70.5460 C   0  0  0  0  0  0  0  0  0  0  0  0
   15.2030   35.0160   71.0880 C   0  0  0  0  0  0  0  0  0  0  0  0
   13.6540   34.3020   71.5270 Cl  0  0  0  0  0  0  0  0  0  0  0  0
   16.3940   34.3290   71.2760 C   0  0  0  0  0  3  0  0  0  0  0  0
   17.6250   34.8950   70.9280 C   0  0  0  0  0  3  0  0  0  0  0  0
   14.0490   36.9780   70.3540 O   0  0  0  0  0  0  0  0  0  0  0  0
   13.2790   36.8130   69.1790 C   0  0  0  0  0  1  0  0  0  0  0  0
   21.2590   37.3040   70.3180 C   0  0  0  0  0  2  0  0  0  0  0  0
   22.2450   36.5420   69.5260 C   0  0  2  0  0  3  0  0  0  0  0  0
   22.1630   36.6400   68.1020 N   0  0  1  0  0  0  0  0  0  0  0  0
   23.5700   36.6390   67.6330 C   0  0  0  0  0  2  0  0  0  0  0  0
   21.5930   35.4830   67.4410 C   0  0  0  0  0  2  0  0  0  0  0  0
   24.2140   35.4830   68.4080 C   0  0  0  0  0  2  0  0  0  0  0  0
   23.2350   34.5090   68.8490 N   0  0  1  0  0  0  0  0  0  0  0  0
   22.3280   35.0610   69.8580 C   0  0  0  0  0  2  0  0  0  0  0  0
   22.3930   34.2130   67.7030 C   0  0  0  0  0  2  0  0  0  0  0  0
  1  5  1  0  0  0  0
  1  3  1  0  0  0  0
  2  1  2  0  0  0  0
  3  4  1  0  0  0  0
  5 11  1  0  0  0  0
  6  5  2  0  0  0  0
  6  7  1  0  0  0  0
  7  8  2  0  0  0  0
  8 10  1  0  0  0  0
  8  9  1  0  0  0  0
 11 10  2  0  0  0  0
 12  7  1  0  0  0  0
 13 12  1  0  0  0  0
 14  3  1  0  0  0  0
 15 21  1  0  0  0  0
 15 14  1  1  0  0  0
 16 18  1  6  0  0  0
 16 15  1  0  0  0  0
 17 16  1  0  0  0  0
 17 19  1  0  0  0  0
 18 22  1  0  0  0  0
 19 20  1  0  0  0  0
 20 22  1  6  0  0  0
 20 21  1  0  0  0  0
M  END
>  <Pose>
1

>  <Score>
-6.951

$$$$
