/Users/jonathanwahrer/Desktop/Msc/3_Semester/Drug_Design_Praktikum/waehrer_HTS_screening/HTS_experiment/out/docking_results/vina_output/4x21/2271_docked.pdbqt
 OpenBabel03212202593D

 27 30  0  0  1  0  0  0  0  0999 V2000
   21.0920   36.3660   70.6990 C   0  0  2  0  0  0  0  0  0  0  0  0
   20.0790   36.9300   69.9560 N   0  0  0  0  0  4  0  0  0  0  0  0
   20.5300   36.8480   68.5820 C   0  0  0  0  0  0  0  0  0  0  0  0
   19.9960   36.5360   67.4460 C   0  0  0  0  0  3  0  0  0  0  0  0
   20.7220   36.5440   66.1640 C   0  0  0  0  0  2  0  0  0  0  0  0
   22.1590   36.9200   66.2380 C   0  0  0  0  0  2  0  0  0  0  0  0
   22.5330   37.7090   67.4470 C   0  0  0  0  0  2  0  0  0  0  0  0
   21.8940   37.2230   68.6510 N   0  0  0  0  0  0  0  0  0  0  0  0
   22.3400   37.0050   70.0250 C   0  0  0  0  0  2  0  0  0  0  0  0
   20.1420   38.0000   70.1260 H   0  0  0  0  0  0  0  0  0  0  0  0
   21.3720   34.9450   70.7430 C   0  0  0  0  0  0  0  0  0  0  0  0
   20.7630   34.1680   71.7090 C   0  0  0  0  0  3  0  0  0  0  0  0
   21.0220   32.8320   71.7900 C   0  0  0  0  0  3  0  0  0  0  0  0
   21.8970   32.1960   70.9190 C   0  0  0  0  0  0  0  0  0  0  0  0
   22.2460   30.4880   71.0010 Cl  0  0  0  0  0  0  0  0  0  0  0  0
   22.5000   32.9670   69.9630 C   0  0  0  0  0  3  0  0  0  0  0  0
   22.2390   34.3240   69.8790 C   0  0  0  0  0  3  0  0  0  0  0  0
   21.1470   36.9050   72.0150 O   0  0  0  0  0  0  0  0  0  0  0  0
   21.9790   36.5430   72.4150 H   0  0  0  0  0  0  0  0  0  0  0  0
   18.7340   36.6270   70.1050 C   0  0  0  0  0  0  0  0  0  0  0  0
   18.2030   35.4660   70.5550 C   0  0  0  0  0  3  0  0  0  0  0  0
   16.8220   35.3160   70.6620 C   0  0  0  0  0  3  0  0  0  0  0  0
   15.9350   36.3240   70.3230 C   0  0  0  0  0  0  0  0  0  0  0  0
   16.5050   37.4940   69.8690 C   0  0  0  0  0  3  0  0  0  0  0  0
   17.8580   37.6730   69.7520 C   0  0  0  0  0  3  0  0  0  0  0  0
   14.5680   36.1320   70.4450 O   0  0  0  0  0  0  0  0  0  0  0  0
   13.6950   36.8530   69.6140 C   0  0  0  0  0  1  0  0  0  0  0  0
  1 11  1  0  0  0  0
  1 18  1  1  0  0  0
  2 20  1  0  0  0  0
  2 10  1  0  0  0  0
  2  1  1  0  0  0  0
  3  8  1  0  0  0  0
  3  2  1  0  0  0  0
  4  3  2  0  0  0  0
  5  6  1  0  0  0  0
  5  4  1  0  0  0  0
  6  7  1  0  0  0  0
  7  8  1  0  0  0  0
  8  9  1  0  0  0  0
  9  1  1  0  0  0  0
 11 12  1  0  0  0  0
 12 13  2  0  0  0  0
 14 15  1  0  0  0  0
 14 13  1  0  0  0  0
 16 14  2  0  0  0  0
 17 16  1  0  0  0  0
 17 11  2  0  0  0  0
 18 19  1  0  0  0  0
 20 21  1  0  0  0  0
 21 22  2  0  0  0  0
 23 26  1  0  0  0  0
 23 22  1  0  0  0  0
 24 23  2  0  0  0  0
 25 24  1  0  0  0  0
 25 20  2  0  0  0  0
 27 26  1  0  0  0  0
M  END
>  <Pose>
1

>  <Score>
-8.190

$$$$
