/Users/jonathanwahrer/Desktop/Msc/3_Semester/Drug_Design_Praktikum/waehrer_HTS_screening/HTS_experiment/out/docking_results/vina_output/4x21/2276_docked.pdbqt
 OpenBabel03212202593D

 21 24  0  0  1  0  0  0  0  0999 V2000
   13.6830   36.2340   69.6910 Cl  0  0  0  0  0  0  0  0  0  0  0  0
   14.6150   34.9930   70.5050 C   0  0  0  0  0  0  0  0  0  0  0  0
   15.9030   35.2990   70.8890 C   0  0  0  0  0  0  0  0  0  0  0  0
   16.5910   34.2590   71.5290 C   0  0  0  0  0  0  0  0  0  0  0  0
   17.7600   34.4810   71.8970 O   0  0  0  0  0  0  0  0  0  0  0  0
   16.0140   33.0700   71.7380 N   0  0  0  0  0  0  0  0  0  0  0  0
   14.7760   32.7830   71.3670 N   0  0  0  0  0  0  0  0  0  0  0  0
   14.3000   31.4420   71.6770 C   0  0  1  0  0  3  0  0  0  0  0  0
   15.2740   30.4780   71.0260 C   0  0  1  0  0  3  0  0  0  0  0  0
   16.6570   30.8110   71.3890 C   0  0  1  0  0  3  0  0  0  0  0  0
   16.7150   31.9660   72.3980 C   0  0  2  0  0  3  0  0  0  0  0  0
   15.8000   31.5700   73.5230 C   0  0  0  0  0  2  0  0  0  0  0  0
   14.5580   31.3000   73.1590 C   0  0  0  0  0  2  0  0  0  0  0  0
   16.0150   29.4970   71.8560 C   0  0  0  0  0  2  0  0  0  0  0  0
   14.0770   33.7330   70.7540 C   0  0  0  0  0  0  0  0  0  0  0  0
   12.9000   33.4710   70.3970 O   0  0  0  0  0  0  0  0  0  0  0  0
   16.5290   36.5610   70.6770 N   0  0  0  0  0  0  0  0  0  0  0  0
   16.3610   37.2700   71.4220 H   0  0  0  0  0  0  0  0  0  0  0  0
   17.3320   36.9040   69.5610 C   0  0  0  0  0  3  0  0  0  0  0  0
   16.8520   38.1030   68.7840 C   0  0  0  0  0  1  0  0  0  0  0  0
   18.7830   37.1810   69.9290 C   0  0  0  0  0  1  0  0  0  0  0  0
  1  2  1  0  0  0  0
  2 15  1  0  0  0  0
  2  3  2  0  0  0  0
  3  4  1  0  0  0  0
  4  6  1  0  0  0  0
  4  5  2  0  0  0  0
  6 11  1  0  0  0  0
  7  8  1  0  0  0  0
  7  6  1  0  0  0  0
  8 13  1  1  0  0  0
  9 10  1  0  0  0  0
  9  8  1  0  0  0  0
  9 14  1  1  0  0  0
 10 14  1  1  0  0  0
 10 11  1  0  0  0  0
 11 12  1  1  0  0  0
 13 12  1  0  0  0  0
 15  7  1  0  0  0  0
 16 15  2  0  0  0  0
 17  3  1  0  0  0  0
 17 18  1  0  0  0  0
 19 21  1  0  0  0  0
 19 17  1  0  0  0  0
 20 19  1  0  0  0  0
M  END
>  <Pose>
1

>  <Score>
-7.430

$$$$
