/Users/jonathanwahrer/Desktop/Msc/3_Semester/Drug_Design_Praktikum/waehrer_HTS_screening/HTS_experiment/out/docking_results/vina_output/4x21/2284_docked.pdbqt
 OpenBabel03212203003D

 33 37  0  0  0  0  0  0  0  0999 V2000
   23.3340   33.4430   70.2620 C   0  0  0  0  0  0  0  0  0  0  0  0
   22.7880   32.1950   70.4860 C   0  0  0  0  0  3  0  0  0  0  0  0
   21.4510   31.9500   70.6730 C   0  0  0  0  0  0  0  0  0  0  0  0
   21.0660   30.7520   70.8710 O   0  0  0  0  0  0  0  0  0  0  0  0
   20.5660   32.9900   70.6400 N   0  0  0  0  0  0  0  0  0  0  0  0
   19.3060   32.8990   70.7980 N   0  0  0  0  0  0  0  0  0  0  0  0
   18.5180   33.9330   70.7550 C   0  0  0  0  0  0  0  0  0  0  0  0
   19.6850   35.1730   70.4600 S   0  0  0  0  0  0  0  0  0  0  0  0
   21.0960   34.1960   70.4240 C   0  0  0  0  0  0  0  0  0  0  0  0
   22.4140   34.4320   70.2410 N   0  0  0  0  0  0  0  0  0  0  0  0
   24.7880   33.6530   70.0680 C   0  0  0  0  0  2  0  0  0  0  0  0
   25.0100   34.1340   68.7410 N   0  0  0  0  0  0  0  0  0  0  0  0
   25.5430   33.2170   67.8160 C   0  0  0  0  0  2  0  0  0  0  0  0
   25.2990   33.7490   66.4000 C   0  0  0  0  0  2  0  0  0  0  0  0
   25.7320   35.0730   66.2870 N   0  0  0  0  0  0  0  0  0  0  0  0
   26.4090   35.5600   67.4150 C   0  0  0  0  0  2  0  0  0  0  0  0
   25.5330   35.4430   68.6420 C   0  0  0  0  0  2  0  0  0  0  0  0
   25.0560   36.1140   65.1860 S   0  0  0  0  0  0  0  0  0  0  0  0
   24.6690   35.3210   63.9420 O   0  0  0  0  0  0  0  0  0  0  0  0
   25.9860   37.2360   64.8020 O   0  0  0  0  0  0  0  0  0  0  0  0
   23.5600   36.7910   65.7890 C   0  0  0  0  0  0  0  0  0  0  0  0
   22.4420   36.1040   66.1540 N   0  0  0  0  0  0  0  0  0  0  0  0
   21.4930   36.9480   66.5610 C   0  0  0  0  0  3  0  0  0  0  0  0
   21.9490   38.2060   66.4810 N   0  0  0  0  0  0  0  0  0  0  0  0
   23.2200   38.1050   66.0060 C   0  0  0  0  0  3  0  0  0  0  0  0
   21.4380   39.0690   66.7290 H   0  0  0  0  0  0  0  0  0  0  0  0
   17.0640   34.0670   70.9050 C   0  0  0  0  0  0  0  0  0  0  0  0
   16.3000   32.9230   70.9890 C   0  0  0  0  0  3  0  0  0  0  0  0
   14.9210   32.9820   71.1320 C   0  0  0  0  0  3  0  0  0  0  0  0
   14.2910   34.2080   71.1950 C   0  0  0  0  0  0  0  0  0  0  0  0
   15.0380   35.3710   71.1140 C   0  0  0  0  0  3  0  0  0  0  0  0
   12.5690   34.2980   71.3750 Cl  0  0  0  0  0  0  0  0  0  0  0  0
   16.4020   35.2610   70.9710 C   0  0  0  0  0  3  0  0  0  0  0  0
  1  2  2  0  0  0  0
  2  3  1  0  0  0  0
  3  4  2  0  0  0  0
  5  3  1  0  0  0  0
  5  6  1  0  0  0  0
  7  6  2  0  0  0  0
  7 27  1  0  0  0  0
  8  7  1  0  0  0  0
  9  8  1  0  0  0  0
  9  5  1  0  0  0  0
 10  1  1  0  0  0  0
 10  9  2  0  0  0  0
 11  1  1  0  0  0  0
 12 11  1  0  0  0  0
 13 12  1  0  0  0  0
 14 13  1  0  0  0  0
 15 14  1  0  0  0  0
 15 16  1  0  0  0  0
 16 17  1  0  0  0  0
 17 12  1  0  0  0  0
 18 21  1  0  0  0  0
 18 15  1  0  0  0  0
 19 18  2  0  0  0  0
 20 18  2  0  0  0  0
 21 25  2  0  0  0  0
 21 22  1  0  0  0  0
 22 23  2  0  0  0  0
 24 23  1  0  0  0  0
 24 26  1  0  0  0  0
 25 24  1  0  0  0  0
 27 33  2  0  0  0  0
 27 28  1  0  0  0  0
 28 29  2  0  0  0  0
 29 30  1  0  0  0  0
 30 32  1  0  0  0  0
 31 30  2  0  0  0  0
 33 31  1  0  0  0  0
M  END
>  <Pose>
1

>  <Score>
-8.756

$$$$
