/Users/jonathanwahrer/Desktop/Msc/3_Semester/Drug_Design_Praktikum/waehrer_HTS_screening/HTS_experiment/out/docking_results/vina_output/4x21/2298_docked.pdbqt
 OpenBabel03212203023D

 34 37  0  0  0  0  0  0  0  0999 V2000
   19.4630   33.9250   71.1330 C   0  0  0  0  0  2  0  0  0  0  0  0
   19.5800   32.5790   71.6160 N   0  0  0  0  0  0  0  0  0  0  0  0
   18.9630   32.3570   72.8740 C   0  0  0  0  0  2  0  0  0  0  0  0
   17.8650   31.3270   72.8920 C   0  0  0  0  0  2  0  0  0  0  0  0
   17.0300   31.4840   71.8060 N   0  0  0  0  0  0  0  0  0  0  0  0
   17.6370   31.5960   70.5510 C   0  0  0  0  0  2  0  0  0  0  0  0
   19.1600   31.6170   70.6480 C   0  0  0  0  0  2  0  0  0  0  0  0
   15.3730   31.5500   71.9230 S   0  0  0  0  0  0  0  0  0  0  0  0
   14.6660   30.4590   71.1580 O   0  0  0  0  0  0  0  0  0  0  0  0
   14.8480   31.4550   73.3390 O   0  0  0  0  0  0  0  0  0  0  0  0
   14.7860   33.0660   71.2470 C   0  0  0  0  0  0  0  0  0  0  0  0
   13.7080   33.0980   70.4060 C   0  0  0  0  0  3  0  0  0  0  0  0
   13.2460   34.2740   69.8770 C   0  0  0  0  0  3  0  0  0  0  0  0
   13.8890   35.4490   70.2030 C   0  0  0  0  0  0  0  0  0  0  0  0
   14.9790   35.4200   71.0520 C   0  0  0  0  0  3  0  0  0  0  0  0
   13.2750   36.9390   69.5090 Cl  0  0  0  0  0  0  0  0  0  0  0  0
   15.4320   34.2360   71.5760 C   0  0  0  0  0  3  0  0  0  0  0  0
   20.7590   34.4040   70.5460 C   0  0  0  0  0  0  0  0  0  0  0  0
   21.4160   35.2270   71.2200 O   0  0  0  0  0  0  0  0  0  0  0  0
   21.2140   33.9400   69.2850 N   0  0  0  0  0  0  0  0  0  0  0  0
   20.6120   33.2440   68.7690 H   0  0  0  0  0  0  0  0  0  0  0  0
   22.4630   34.4520   68.8010 C   0  0  0  0  0  2  0  0  0  0  0  0
   22.4010   35.3670   67.6390 C   0  0  0  0  0  0  0  0  0  0  0  0
   22.5620   36.7910   68.1110 C   0  0  0  0  0  2  0  0  0  0  0  0
   21.2160   37.4560   68.4150 C   0  0  0  0  0  2  0  0  0  0  0  0
   20.4280   37.6510   67.1350 C   0  0  0  0  0  2  0  0  0  0  0  0
   20.7850   36.5050   66.2060 C   0  0  0  0  0  2  0  0  0  0  0  0
   20.9630   35.2890   67.0900 C   0  0  0  0  0  2  0  0  0  0  0  0
   23.2560   35.1110   66.5440 N   0  0  0  0  0  0  0  0  0  0  0  0
   24.3030   36.0310   66.2750 C   0  0  0  0  0  2  0  0  0  0  0  0
   24.7530   35.7470   64.8300 C   0  0  0  0  0  2  0  0  0  0  0  0
   25.2640   34.4750   64.7370 O   0  0  0  0  0  0  0  0  0  0  0  0
   25.2140   33.7560   65.9040 C   0  0  0  0  0  2  0  0  0  0  0  0
   23.8220   33.7790   66.5360 C   0  0  0  0  0  2  0  0  0  0  0  0
  1  2  1  0  0  0  0
  2  3  1  0  0  0  0
  3  4  1  0  0  0  0
  5  8  1  0  0  0  0
  5  4  1  0  0  0  0
  6  7  1  0  0  0  0
  6  5  1  0  0  0  0
  7  2  1  0  0  0  0
  8 10  2  0  0  0  0
  9  8  2  0  0  0  0
 11 17  1  0  0  0  0
 11  8  1  0  0  0  0
 12 11  2  0  0  0  0
 13 14  2  0  0  0  0
 13 12  1  0  0  0  0
 14 15  1  0  0  0  0
 15 17  2  0  0  0  0
 16 14  1  0  0  0  0
 18  1  1  0  0  0  0
 18 19  2  0  0  0  0
 20 18  1  0  0  0  0
 21 20  1  0  0  0  0
 22 20  1  0  0  0  0
 23 24  1  0  0  0  0
 23 22  1  0  0  0  0
 24 25  1  0  0  0  0
 26 25  1  0  0  0  0
 27 28  1  0  0  0  0
 27 26  1  0  0  0  0
 28 23  1  0  0  0  0
 29 23  1  0  0  0  0
 30 29  1  0  0  0  0
 31 30  1  0  0  0  0
 32 31  1  0  0  0  0
 32 33  1  0  0  0  0
 33 34  1  0  0  0  0
 34 29  1  0  0  0  0
M  END
>  <Pose>
1

>  <Score>
-8.923

$$$$
