/Users/jonathanwahrer/Desktop/Msc/3_Semester/Drug_Design_Praktikum/waehrer_HTS_screening/HTS_experiment/out/docking_results/vina_output/4x21/2304_docked.pdbqt
 OpenBabel03212203023D

 28 31  0  0  1  0  0  0  0  0999 V2000
   20.7100   33.5790   71.5530 N   0  0  0  0  0  0  0  0  0  0  0  0
   20.3750   34.9350   71.7670 C   0  0  0  0  0  2  0  0  0  0  0  0
   21.1680   35.9220   70.9510 C   0  0  0  0  0  2  0  0  0  0  0  0
   21.3490   35.5110   69.5870 N   0  0  0  0  0  0  0  0  0  0  0  0
   21.0090   34.1470   69.2660 C   0  0  0  0  0  2  0  0  0  0  0  0
   21.5140   33.2850   70.4190 C   0  0  0  0  0  2  0  0  0  0  0  0
   21.8420   36.4190   68.6360 C   0  0  0  0  0  0  0  0  0  0  0  0
   22.1190   37.5840   69.0390 O   0  0  0  0  0  0  0  0  0  0  0  0
   22.0560   36.0930   67.1990 C   0  0  2  0  0  3  0  0  0  0  0  0
   23.3220   35.4970   66.9760 N   0  0  0  0  0  0  0  0  0  0  0  0
   24.4040   36.3830   66.6930 C   0  0  2  0  0  0  0  0  0  0  0  0
   23.9100   34.1760   66.9470 C   0  0  0  0  0  0  0  0  0  0  0  0
   23.5880   37.7470   65.8380 S   0  0  0  0  0  0  0  0  0  0  0  0
   25.2000   35.6170   65.6540 C   0  0  0  0  0  2  0  0  0  0  0  0
   25.2290   36.8000   67.8440 C   0  0  0  0  0  1  0  0  0  0  0  0
   21.8740   37.2860   66.3090 C   0  0  0  0  0  2  0  0  0  0  0  0
   25.2400   34.2480   66.3460 C   0  0  0  0  0  2  0  0  0  0  0  0
   23.3880   33.0990   67.3660 O   0  0  0  0  0  0  0  0  0  0  0  0
   19.4890   32.4530   71.9010 S   0  0  0  0  0  0  0  0  0  0  0  0
   19.6590   31.2090   71.0880 O   0  0  0  0  0  0  0  0  0  0  0  0
   19.6170   32.0460   73.3480 O   0  0  0  0  0  0  0  0  0  0  0  0
   17.8680   33.1140   71.7080 C   0  0  0  0  0  0  0  0  0  0  0  0
   17.2230   33.0410   70.4930 C   0  0  0  0  0  3  0  0  0  0  0  0
   15.9580   33.5480   70.3080 C   0  0  0  0  0  3  0  0  0  0  0  0
   15.2710   34.1590   71.3410 C   0  0  0  0  0  0  0  0  0  0  0  0
   15.9450   34.2170   72.5490 C   0  0  0  0  0  3  0  0  0  0  0  0
   13.6600   34.8160   71.1400 Cl  0  0  0  0  0  0  0  0  0  0  0  0
   17.2070   33.7150   72.7490 C   0  0  0  0  0  3  0  0  0  0  0  0
  1  2  1  0  0  0  0
  1 19  1  0  0  0  0
  3  2  1  0  0  0  0
  4  3  1  0  0  0  0
  5  4  1  0  0  0  0
  5  6  1  0  0  0  0
  6  1  1  0  0  0  0
  7  8  2  0  0  0  0
  7  4  1  0  0  0  0
  9  7  1  1  0  0  0
 10  9  1  0  0  0  0
 11 10  1  0  0  0  0
 11 15  1  1  0  0  0
 12 10  1  0  0  0  0
 12 18  2  0  0  0  0
 13 16  1  0  0  0  0
 13 11  1  0  0  0  0
 14 17  1  0  0  0  0
 14 11  1  0  0  0  0
 16  9  1  0  0  0  0
 17 12  1  0  0  0  0
 19 21  2  0  0  0  0
 20 19  2  0  0  0  0
 22 19  1  0  0  0  0
 22 28  1  0  0  0  0
 23 22  2  0  0  0  0
 24 23  1  0  0  0  0
 24 25  2  0  0  0  0
 25 26  1  0  0  0  0
 26 28  2  0  0  0  0
 27 25  1  0  0  0  0
M  END
>  <Pose>
1

>  <Score>
-8.393

$$$$
