/Users/jonathanwahrer/Desktop/Msc/3_Semester/Drug_Design_Praktikum/waehrer_HTS_screening/HTS_experiment/out/docking_results/vina_output/4x21/2335_docked.pdbqt
 OpenBabel03212203033D

 35 38  0  0  1  0  0  0  0  0999 V2000
   18.7250   32.1230   72.1230 N   0  0  0  0  0  0  0  0  0  0  0  0
   19.4810   32.7910   71.1400 C   0  0  0  0  0  2  0  0  0  0  0  0
   20.7680   32.0820   70.7790 C   0  0  2  0  0  3  0  0  0  0  0  0
   21.3290   31.2490   71.8670 C   0  0  0  0  0  2  0  0  0  0  0  0
   20.8150   31.4940   73.2380 C   0  0  0  0  0  3  0  0  0  0  0  0
   19.3470   31.8220   73.3360 C   0  0  0  0  0  3  0  0  0  0  0  0
   17.1640   31.6540   71.7960 S   0  0  0  0  0  0  0  0  0  0  0  0
   16.5900   30.9700   73.0350 O   0  0  0  0  0  0  0  0  0  0  0  0
   17.2030   30.5380   70.7600 O   0  0  0  0  0  0  0  0  0  0  0  0
   16.0840   32.8760   71.2340 C   0  0  0  0  0  0  0  0  0  0  0  0
   16.5560   34.1490   70.9530 C   0  0  0  0  0  3  0  0  0  0  0  0
   15.7410   35.1540   70.4910 C   0  0  0  0  0  0  0  0  0  0  0  0
   14.3820   34.8830   70.2960 C   0  0  0  0  0  0  0  0  0  0  0  0
   15.9160   36.5120   70.1140 N   0  0  0  0  0  0  0  0  0  0  0  0
   13.9290   33.6350   70.5740 C   0  0  0  0  0  3  0  0  0  0  0  0
   13.6790   36.0960   69.7960 C   0  0  0  0  0  2  0  0  0  0  0  0
   14.7530   32.6240   71.0390 C   0  0  0  0  0  0  0  0  0  0  0  0
   13.9940   30.8870   71.4050 Br  0  0  0  0  0  0  0  0  0  0  0  0
   14.6240   37.1970   70.2340 C   0  0  0  0  0  2  0  0  0  0  0  0
   17.0820   37.1470   69.6910 C   0  0  0  0  0  0  0  0  0  0  0  0
   17.0420   38.3770   69.3420 O   0  0  0  0  0  0  0  0  0  0  0  0
   18.3870   36.4940   69.6110 C   0  0  0  0  0  2  0  0  0  0  0  0
   19.4590   37.2630   70.3790 C   0  0  0  0  0  1  0  0  0  0  0  0
   21.7890   33.0480   70.2970 C   0  0  0  0  0  0  0  0  0  0  0  0
   21.8550   34.1660   70.8630 O   0  0  0  0  0  0  0  0  0  0  0  0
   22.6730   32.6970   69.2090 N   0  0  0  0  0  0  0  0  0  0  0  0
   22.5300   31.7650   68.8120 H   0  0  0  0  0  0  0  0  0  0  0  0
   23.6240   33.6670   68.8030 C   0  0  0  0  0  2  0  0  0  0  0  0
   23.3100   34.5420   67.6500 C   0  0  0  0  0  2  0  0  0  0  0  0
   22.4850   35.6760   67.8470 N   0  0  0  0  0  0  0  0  0  0  0  0
   21.1720   35.6260   67.3930 C   0  0  0  0  0  2  0  0  0  0  0  0
   20.8100   36.5600   66.2750 C   0  0  0  0  0  2  0  0  0  0  0  0
   21.3990   37.8080   66.4110 O   0  0  0  0  0  0  0  0  0  0  0  0
   22.7770   37.6060   66.3340 C   0  0  0  0  0  2  0  0  0  0  0  0
   23.1900   36.9150   67.6120 C   0  0  0  0  0  2  0  0  0  0  0  0
  1  6  1  0  0  0  0
  2  1  1  0  0  0  0
  3 24  1  1  0  0  0
  3  2  1  0  0  0  0
  3  4  1  0  0  0  0
  4  5  1  0  0  0  0
  5  6  2  0  0  0  0
  7  1  1  0  0  0  0
  7  8  2  0  0  0  0
  9  7  2  0  0  0  0
 10  7  1  0  0  0  0
 11 10  2  0  0  0  0
 12 11  1  0  0  0  0
 13 12  2  0  0  0  0
 13 15  1  0  0  0  0
 14 19  1  0  0  0  0
 14 12  1  0  0  0  0
 15 17  2  0  0  0  0
 16 19  1  0  0  0  0
 16 13  1  0  0  0  0
 17 10  1  0  0  0  0
 17 18  1  0  0  0  0
 20 14  1  0  0  0  0
 21 20  2  0  0  0  0
 22 20  1  0  0  0  0
 22 23  1  0  0  0  0
 24 25  2  0  0  0  0
 26 24  1  0  0  0  0
 27 26  1  0  0  0  0
 28 26  1  0  0  0  0
 29 30  1  0  0  0  0
 29 28  1  0  0  0  0
 31 30  1  0  0  0  0
 32 33  1  0  0  0  0
 32 31  1  0  0  0  0
 34 33  1  0  0  0  0
 34 35  1  0  0  0  0
 35 30  1  0  0  0  0
M  END
>  <Pose>
1

>  <Score>
-8.844

$$$$
