/Users/jonathanwahrer/Desktop/Msc/3_Semester/Drug_Design_Praktikum/waehrer_HTS_screening/HTS_experiment/out/docking_results/vina_output/4x21/2349_docked.pdbqt
 OpenBabel03212203043D

 28 31  0  0  1  0  0  0  0  0999 V2000
   21.3910   35.2890   69.0210 N   0  0  0  0  0  0  0  0  0  0  0  0
   21.1610   36.6690   68.7030 C   0  0  0  0  0  0  0  0  0  0  0  0
   22.0000   37.2740   67.9780 O   0  0  0  0  0  0  0  0  0  0  0  0
   19.9890   37.2600   69.2360 N   0  0  0  0  0  2  0  0  0  0  0  0
   19.1470   36.6760   69.9670 C   0  0  0  0  0  0  0  0  0  0  0  0
   19.2230   35.2450   70.4220 C   0  0  1  0  0  0  0  0  0  0  0  0
   19.4040   35.3320   71.9110 C   0  0  0  0  0  2  0  0  0  0  0  0
   18.9990   34.2210   72.6820 N   0  0  0  0  0  4  0  0  0  0  0  0
   17.7940   33.5920   72.2870 C   0  0  0  0  0  0  0  0  0  0  0  0
   17.3170   33.7650   71.0270 C   0  0  0  0  0  0  0  0  0  0  0  0
   16.1300   33.1290   70.6750 C   0  0  0  0  0  3  0  0  0  0  0  0
   15.4670   32.3460   71.5980 C   0  0  0  0  0  0  0  0  0  0  0  0
   15.9550   32.1710   72.8840 C   0  0  0  0  0  3  0  0  0  0  0  0
   17.1450   32.8130   73.2240 C   0  0  0  0  0  3  0  0  0  0  0  0
   14.1830   31.6580   71.2530 C   0  0  0  0  0  1  0  0  0  0  0  0
   17.9730   34.5840   69.9850 C   0  0  0  0  0  2  0  0  0  0  0  0
   20.0230   33.2140   72.9150 C   0  0  0  0  0  1  0  0  0  0  0  0
   20.4320   34.6260   69.8260 C   0  0  0  0  0  0  0  0  0  0  0  0
   20.6860   33.3830   70.0180 O   0  0  0  0  0  0  0  0  0  0  0  0
   18.0120   37.3660   70.4330 O   0  0  0  0  0  0  0  0  0  0  0  0
   18.7870   34.5930   73.6630 H   0  0  0  0  0  0  0  0  0  0  0  0
   22.5790   34.7010   68.5300 C   0  0  0  0  0  0  0  0  0  0  0  0
   23.7660   34.7250   69.2650 C   0  0  0  0  0  3  0  0  0  0  0  0
   24.9270   34.1580   68.8140 C   0  0  0  0  0  3  0  0  0  0  0  0
   24.9930   33.5160   67.5770 C   0  0  0  0  0  0  0  0  0  0  0  0
   26.4900   32.7880   67.0230 Cl  0  0  0  0  0  0  0  0  0  0  0  0
   23.8200   33.4930   66.8470 C   0  0  0  0  0  3  0  0  0  0  0  0
   22.6560   34.0630   67.3030 C   0  0  0  0  0  3  0  0  0  0  0  0
  1 18  1  0  0  0  0
  2  1  1  0  0  0  0
  2  4  1  0  0  0  0
  3  2  2  0  0  0  0
  4  5  1  0  0  0  0
  5  6  1  0  0  0  0
  5 20  2  0  0  0  0
  6 16  1  6  0  0  0
  6  7  1  0  0  0  0
  7  8  1  0  0  0  0
  8 17  1  0  0  0  0
  8 21  1  0  0  0  0
  9  8  1  0  0  0  0
  9 14  1  0  0  0  0
 10  9  2  0  0  0  0
 11 10  1  0  0  0  0
 11 12  2  0  0  0  0
 12 13  1  0  0  0  0
 13 14  2  0  0  0  0
 15 12  1  0  0  0  0
 16 10  1  0  0  0  0
 18 19  2  0  0  0  0
 18  6  1  0  0  0  0
 22  1  1  0  0  0  0
 22 23  1  0  0  0  0
 24 23  2  0  0  0  0
 25 24  1  0  0  0  0
 26 25  1  0  0  0  0
 27 28  1  0  0  0  0
 27 25  2  0  0  0  0
 28 22  2  0  0  0  0
M  END
>  <Pose>
1

>  <Score>
-8.086

$$$$
