/Users/jonathanwahrer/Desktop/Msc/3_Semester/Drug_Design_Praktikum/waehrer_HTS_screening/HTS_experiment/out/docking_results/vina_output/4x21/2358_docked.pdbqt
 OpenBabel03212203043D

 34 37  0  0  1  0  0  0  0  0999 V2000
   16.5260   32.2740   71.8050 N   0  0  0  0  0  0  0  0  0  0  0  0
   15.5600   31.4570   71.1590 C   0  0  0  0  0  0  0  0  0  0  0  0
   15.9370   30.3450   70.6860 O   0  0  0  0  0  0  0  0  0  0  0  0
   14.2100   31.8590   71.0400 N   0  0  0  0  0  0  0  0  0  0  0  0
   13.7810   33.1000   71.5670 C   0  0  0  0  0  0  0  0  0  0  0  0
   12.5390   33.4040   71.6300 O   0  0  0  0  0  0  0  0  0  0  0  0
   14.7350   34.0920   72.0630 C   0  0  1  0  0  3  0  0  0  0  0  0
   16.0600   33.5130   72.3210 C   0  0  0  0  0  0  0  0  0  0  0  0
   16.8840   34.1470   73.0650 O   0  0  0  0  0  0  0  0  0  0  0  0
   13.5100   31.2390   70.5570 H   0  0  0  0  0  0  0  0  0  0  0  0
   14.8000   35.2570   71.1320 C   0  0  1  0  0  3  0  0  0  0  0  0
   15.1700   36.4820   71.3950 C   0  0  0  0  0  2  0  0  0  0  0  0
   15.0570   37.2550   70.1330 C   0  0  2  0  0  3  0  0  0  0  0  0
   14.1870   36.4460   69.3060 N   0  0  0  0  0  0  0  0  0  0  0  0
   14.4410   35.1470   69.7590 N   0  0  0  0  0  0  0  0  0  0  0  0
   13.1810   36.7100   69.4340 H   0  0  0  0  0  0  0  0  0  0  0  0
   14.3640   34.2900   69.1520 H   0  0  0  0  0  0  0  0  0  0  0  0
   16.3900   37.4040   69.4880 C   0  0  0  0  0  0  0  0  0  0  0  0
   16.5830   38.1820   68.3690 C   0  0  0  0  0  3  0  0  0  0  0  0
   17.8160   38.3260   67.7610 C   0  0  0  0  0  0  0  0  0  0  0  0
   18.9160   37.6770   68.2750 C   0  0  0  0  0  0  0  0  0  0  0  0
   18.7450   36.8970   69.3920 C   0  0  0  0  0  3  0  0  0  0  0  0
   17.5120   36.7590   69.9890 C   0  0  0  0  0  3  0  0  0  0  0  0
   17.9470   39.1220   66.6390 O   0  0  0  0  0  0  0  0  0  0  0  0
   17.7320   40.0980   66.6660 H   0  0  0  0  0  0  0  0  0  0  0  0
   20.1570   37.8070   67.6840 O   0  0  0  0  0  0  0  0  0  0  0  0
   20.5910   36.8410   66.7550 C   0  0  0  0  0  1  0  0  0  0  0  0
   17.8890   31.8940   71.9420 C   0  0  0  0  0  0  0  0  0  0  0  0
   18.3330   31.1110   73.0000 C   0  0  0  0  0  3  0  0  0  0  0  0
   19.6380   30.7440   73.1360 C   0  0  0  0  0  3  0  0  0  0  0  0
   20.5690   31.1570   72.1950 C   0  0  0  0  0  0  0  0  0  0  0  0
   22.2580   30.7050   72.3340 Cl  0  0  0  0  0  0  0  0  0  0  0  0
   20.1600   31.9400   71.1270 C   0  0  0  0  0  3  0  0  0  0  0  0
   18.8160   32.3030   71.0100 C   0  0  0  0  0  3  0  0  0  0  0  0
  1 28  1  0  0  0  0
  1  8  1  0  0  0  0
  2  1  1  0  0  0  0
  3  2  2  0  0  0  0
  4  2  1  0  0  0  0
  4  5  1  0  0  0  0
  5  6  2  0  0  0  0
  7  5  1  6  0  0  0
  7  8  1  0  0  0  0
  8  9  2  0  0  0  0
 10  4  1  0  0  0  0
 11 12  1  6  0  0  0
 11  7  1  0  0  0  0
 13 18  1  6  0  0  0
 13 12  1  0  0  0  0
 14 16  1  0  0  0  0
 14 15  1  0  0  0  0
 14 13  1  0  0  0  0
 15 11  1  0  0  0  0
 17 15  1  0  0  0  0
 18 23  1  0  0  0  0
 19 18  2  0  0  0  0
 20 21  2  0  0  0  0
 20 19  1  0  0  0  0
 21 22  1  0  0  0  0
 22 23  2  0  0  0  0
 24 25  1  0  0  0  0
 24 20  1  0  0  0  0
 26 21  1  0  0  0  0
 27 26  1  0  0  0  0
 28 29  1  0  0  0  0
 29 30  2  0  0  0  0
 31 32  1  0  0  0  0
 31 30  1  0  0  0  0
 33 31  2  0  0  0  0
 34 33  1  0  0  0  0
 34 28  2  0  0  0  0
M  END
>  <Pose>
1

>  <Score>
-8.892

$$$$
