/Users/jonathanwahrer/Desktop/Msc/3_Semester/Drug_Design_Praktikum/waehrer_HTS_screening/HTS_experiment/out/docking_results/vina_output/4x21/2359_docked.pdbqt
 OpenBabel03212203043D

 32 35  0  0  1  0  0  0  0  0999 V2000
   22.1050   34.4710   69.0710 N   0  0  0  0  0  0  0  0  0  0  0  0
   22.7410   33.1840   69.1240 C   0  0  0  0  0  0  0  0  0  0  0  0
   23.8180   32.9510   68.4930 O   0  0  0  0  0  0  0  0  0  0  0  0
   22.1070   32.1900   69.9150 N   0  0  0  0  0  0  0  0  0  0  0  0
   20.8810   32.4830   70.6230 C   0  0  0  0  0  0  0  0  0  0  0  0
   20.6270   31.7810   71.6100 O   0  0  0  0  0  0  0  0  0  0  0  0
   20.0280   33.5580   70.1540 C   0  0  2  0  0  3  0  0  0  0  0  0
   20.9030   34.7100   69.7840 C   0  0  0  0  0  0  0  0  0  0  0  0
   20.6410   35.9070   70.0680 O   0  0  0  0  0  0  0  0  0  0  0  0
   22.5500   31.2560   69.9660 H   0  0  0  0  0  0  0  0  0  0  0  0
   18.9060   33.9420   70.9800 C   0  0  2  0  0  3  0  0  0  0  0  0
   17.7140   34.3590   70.6200 C   0  0  0  0  0  2  0  0  0  0  0  0
   16.8630   34.6440   71.8020 C   0  0  2  0  0  3  0  0  0  0  0  0
   17.6300   34.0820   72.8890 N   0  0  0  0  0  0  0  0  0  0  0  0
   18.9340   33.9320   72.4230 N   0  0  0  0  0  0  0  0  0  0  0  0
   17.2200   33.1970   73.2600 H   0  0  0  0  0  0  0  0  0  0  0  0
   19.7530   33.8370   73.0600 H   0  0  0  0  0  0  0  0  0  0  0  0
   15.5680   33.9550   71.7620 C   0  0  0  0  0  0  0  0  0  0  0  0
   14.4800   34.6370   71.2380 C   0  0  0  0  0  3  0  0  0  0  0  0
   13.2530   34.0190   71.1860 C   0  0  0  0  0  0  0  0  0  0  0  0
   13.0710   32.7340   71.6400 C   0  0  0  0  0  3  0  0  0  0  0  0
   14.1400   32.0440   72.1620 C   0  0  0  0  0  3  0  0  0  0  0  0
   15.3830   32.6750   72.2150 C   0  0  0  0  0  3  0  0  0  0  0  0
   12.1460   34.6970   70.6580 O   0  0  0  0  0  0  0  0  0  0  0  0
   11.5060   34.2010   70.0630 H   0  0  0  0  0  0  0  0  0  0  0  0
   22.7460   35.4860   68.2660 C   0  0  0  0  0  0  0  0  0  0  0  0
   22.3350   35.7530   66.9740 C   0  0  0  0  0  3  0  0  0  0  0  0
   22.9290   36.7140   66.1790 C   0  0  0  0  0  3  0  0  0  0  0  0
   23.9870   37.4550   66.6870 C   0  0  0  0  0  0  0  0  0  0  0  0
   24.7150   38.6580   65.6620 Cl  0  0  0  0  0  0  0  0  0  0  0  0
   24.4190   37.2050   67.9870 C   0  0  0  0  0  3  0  0  0  0  0  0
   23.8010   36.2340   68.7530 C   0  0  0  0  0  3  0  0  0  0  0  0
  1  2  1  0  0  0  0
  1  8  1  0  0  0  0
  2  4  1  0  0  0  0
  3  2  2  0  0  0  0
  4 10  1  0  0  0  0
  4  5  1  0  0  0  0
  5  6  2  0  0  0  0
  7  8  1  1  0  0  0
  7  5  1  0  0  0  0
  7 11  1  0  0  0  0
  8  9  2  0  0  0  0
 11 12  1  1  0  0  0
 11 15  1  0  0  0  0
 12 13  1  0  0  0  0
 13 18  1  6  0  0  0
 13 14  1  0  0  0  0
 14 16  1  0  0  0  0
 15 14  1  0  0  0  0
 15 17  1  0  0  0  0
 18 23  1  0  0  0  0
 19 18  2  0  0  0  0
 20 19  1  0  0  0  0
 20 21  2  0  0  0  0
 21 22  1  0  0  0  0
 22 23  2  0  0  0  0
 24 20  1  0  0  0  0
 25 24  1  0  0  0  0
 26 32  1  0  0  0  0
 26  1  1  0  0  0  0
 27 26  2  0  0  0  0
 28 29  2  0  0  0  0
 28 27  1  0  0  0  0
 29 31  1  0  0  0  0
 30 29  1  0  0  0  0
 31 32  2  0  0  0  0
M  END
>  <Pose>
1

>  <Score>
-8.993

$$$$
