/Users/jonathanwahrer/Desktop/Msc/3_Semester/Drug_Design_Praktikum/waehrer_HTS_screening/HTS_experiment/out/docking_results/vina_output/4x21/2361_docked.pdbqt
 OpenBabel03212203053D

 30 33  0  0  1  0  0  0  0  0999 V2000
   18.3790   32.9570   71.3410 N   0  0  0  0  0  0  0  0  0  0  0  0
   18.9130   31.9890   70.4560 C   0  0  0  0  0  0  0  0  0  0  0  0
   18.1600   31.3810   69.6540 O   0  0  0  0  0  0  0  0  0  0  0  0
   20.3250   31.7190   70.4910 N   0  0  0  0  0  0  0  0  0  0  0  0
   21.1790   32.4050   71.3970 C   0  0  0  0  0  0  0  0  0  0  0  0
   22.3150   31.9340   71.6530 O   0  0  0  0  0  0  0  0  0  0  0  0
   20.7170   33.6560   72.0190 C   0  0  2  0  0  3  0  0  0  0  0  0
   19.2590   33.6210   72.2310 C   0  0  0  0  0  0  0  0  0  0  0  0
   18.7540   34.2080   73.2490 O   0  0  0  0  0  0  0  0  0  0  0  0
   20.7610   31.0140   69.8580 H   0  0  0  0  0  0  0  0  0  0  0  0
   21.0860   34.8420   71.1740 C   0  0  1  0  0  3  0  0  0  0  0  0
   20.7820   36.0990   71.3620 C   0  0  0  0  0  2  0  0  0  0  0  0
   21.3600   36.9050   70.2750 C   0  0  1  0  0  3  0  0  0  0  0  0
   22.3120   36.0250   69.6580 N   0  0  0  0  0  0  0  0  0  0  0  0
   21.8670   34.7370   69.9950 N   0  0  0  0  0  0  0  0  0  0  0  0
   23.2700   36.1920   69.9790 H   0  0  0  0  0  0  0  0  0  0  0  0
   22.1120   33.8950   69.4250 H   0  0  0  0  0  0  0  0  0  0  0  0
   20.2580   37.2120   69.3280 C   0  0  0  0  0  0  0  0  0  0  0  0
   20.5310   37.4610   68.0040 C   0  0  0  0  0  3  0  0  0  0  0  0
   19.5250   37.7430   67.1310 N   0  0  0  0  0  0  0  0  0  0  0  0
   18.2370   37.7950   67.5060 C   0  0  0  0  0  3  0  0  0  0  0  0
   17.9280   37.5510   68.8250 C   0  0  0  0  0  3  0  0  0  0  0  0
   18.9510   37.2580   69.7370 C   0  0  0  0  0  3  0  0  0  0  0  0
   16.9630   33.2560   71.3420 C   0  0  0  0  0  0  0  0  0  0  0  0
   16.0460   32.4490   71.9790 C   0  0  0  0  0  3  0  0  0  0  0  0
   14.6880   32.7490   71.9710 C   0  0  0  0  0  3  0  0  0  0  0  0
   14.2110   33.8690   71.3230 C   0  0  0  0  0  0  0  0  0  0  0  0
   12.4990   34.2530   71.3110 Cl  0  0  0  0  0  0  0  0  0  0  0  0
   15.1320   34.6730   70.6870 C   0  0  0  0  0  3  0  0  0  0  0  0
   16.4820   34.3740   70.6960 C   0  0  0  0  0  3  0  0  0  0  0  0
  1 24  1  0  0  0  0
  1  8  1  0  0  0  0
  2  4  1  0  0  0  0
  2  1  1  0  0  0  0
  3  2  2  0  0  0  0
  4  5  1  0  0  0  0
  5  6  2  0  0  0  0
  7  5  1  6  0  0  0
  7  8  1  0  0  0  0
  8  9  2  0  0  0  0
 10  4  1  0  0  0  0
 11 12  1  1  0  0  0
 11  7  1  0  0  0  0
 13 18  1  6  0  0  0
 13 12  1  0  0  0  0
 14 16  1  0  0  0  0
 14 15  1  0  0  0  0
 14 13  1  0  0  0  0
 15 11  1  0  0  0  0
 17 15  1  0  0  0  0
 18 23  1  0  0  0  0
 19 18  2  0  0  0  0
 20 21  2  0  0  0  0
 20 19  1  0  0  0  0
 21 22  1  0  0  0  0
 22 23  2  0  0  0  0
 24 25  1  0  0  0  0
 26 25  2  0  0  0  0
 27 26  1  0  0  0  0
 28 27  1  0  0  0  0
 29 30  1  0  0  0  0
 29 27  2  0  0  0  0
 30 24  2  0  0  0  0
M  END
>  <Pose>
1

>  <Score>
-9.107

$$$$
