/Users/jonathanwahrer/Desktop/Msc/3_Semester/Drug_Design_Praktikum/waehrer_HTS_screening/HTS_experiment/out/docking_results/vina_output/4x21/2363_docked.pdbqt
 OpenBabel03212203053D

 33 36  0  0  1  0  0  0  0  0999 V2000
   15.0250   32.9200   71.6440 N   0  0  0  0  0  0  0  0  0  0  0  0
   16.2410   33.5660   71.2990 C   0  0  2  0  0  0  0  0  0  0  0  0
   16.0900   34.9380   70.8370 C   0  0  0  0  0  0  0  0  0  0  0  0
   14.8750   35.5260   70.6550 C   0  0  0  0  0  0  0  0  0  0  0  0
   14.8040   36.8500   70.1830 C   0  0  0  0  0  3  0  0  0  0  0  0
   15.9170   37.5970   69.8920 C   0  0  0  0  0  3  0  0  0  0  0  0
   17.1450   36.9830   70.0840 C   0  0  0  0  0  3  0  0  0  0  0  0
   17.2200   35.7060   70.5380 C   0  0  0  0  0  3  0  0  0  0  0  0
   13.6450   34.8450   70.9530 N   0  0  0  0  0  0  0  0  0  0  0  0
   13.7760   33.5280   71.4500 C   0  0  0  0  0  0  0  0  0  0  0  0
   12.7320   32.8560   71.7360 O   0  0  0  0  0  0  0  0  0  0  0  0
   12.7400   35.3220   70.7990 H   0  0  0  0  0  0  0  0  0  0  0  0
   16.7440   32.8040   70.1860 O   0  0  0  0  0  0  0  0  0  0  0  0
   16.0120   32.2500   69.8090 H   0  0  0  0  0  0  0  0  0  0  0  0
   17.2740   33.4330   72.3590 C   0  0  0  0  0  0  0  0  0  0  0  0
   17.1360   34.0190   73.4350 O   0  0  0  0  0  0  0  0  0  0  0  0
   18.3940   32.6250   72.0890 N   0  0  0  0  0  0  0  0  0  0  0  0
   18.5210   32.1190   71.1690 H   0  0  0  0  0  0  0  0  0  0  0  0
   19.4700   32.4230   73.0600 C   0  0  0  0  0  2  0  0  0  0  0  0
   20.7850   32.8820   72.5570 C   0  0  0  0  0  2  0  0  0  0  0  0
   20.7900   33.8280   71.5100 N   0  0  0  0  0  0  0  0  0  0  0  0
   20.6860   35.1920   71.8280 C   0  0  0  0  0  2  0  0  0  0  0  0
   20.9900   36.0100   70.5690 C   0  0  0  0  0  2  0  0  0  0  0  0
   20.5260   35.3350   69.4260 O   0  0  0  0  0  0  0  0  0  0  0  0
   21.3090   34.2170   69.1480 C   0  0  0  0  0  2  0  0  0  0  0  0
   21.7100   33.5820   70.4520 C   0  0  0  0  0  2  0  0  0  0  0  0
   15.0630   31.5730   72.2280 C   0  0  0  0  0  0  0  0  0  0  0  0
   15.5950   30.5100   71.5470 C   0  0  0  0  0  3  0  0  0  0  0  0
   15.6240   29.2390   72.1130 C   0  0  0  0  0  3  0  0  0  0  0  0
   15.1110   29.0510   73.3760 C   0  0  0  0  0  0  0  0  0  0  0  0
   15.1530   27.4330   74.0880 Cl  0  0  0  0  0  0  0  0  0  0  0  0
   14.5710   30.1020   74.0840 C   0  0  0  0  0  3  0  0  0  0  0  0
   14.5580   31.3530   73.4910 C   0  0  0  0  0  3  0  0  0  0  0  0
  1 27  1  0  0  0  0
  2 13  1  6  0  0  0
  2  1  1  0  0  0  0
  2 15  1  0  0  0  0
  3  2  1  0  0  0  0
  4  3  1  0  0  0  0
  4  9  1  0  0  0  0
  5  4  2  0  0  0  0
  6  7  2  0  0  0  0
  6  5  1  0  0  0  0
  7  8  1  0  0  0  0
  8  3  2  0  0  0  0
  9 10  1  0  0  0  0
 10  1  1  0  0  0  0
 10 11  2  0  0  0  0
 12  9  1  0  0  0  0
 14 13  1  0  0  0  0
 15 16  2  0  0  0  0
 17 15  1  0  0  0  0
 17 19  1  0  0  0  0
 18 17  1  0  0  0  0
 20 19  1  0  0  0  0
 21 22  1  0  0  0  0
 21 20  1  0  0  0  0
 23 22  1  0  0  0  0
 24 23  1  0  0  0  0
 25 24  1  0  0  0  0
 25 26  1  0  0  0  0
 26 21  1  0  0  0  0
 27 33  1  0  0  0  0
 28 29  1  0  0  0  0
 28 27  2  0  0  0  0
 29 30  2  0  0  0  0
 30 32  1  0  0  0  0
 30 31  1  0  0  0  0
 33 32  2  0  0  0  0
M  END
>  <Pose>
1

>  <Score>
-8.583

$$$$
