/Users/jonathanwahrer/Desktop/Msc/3_Semester/Drug_Design_Praktikum/waehrer_HTS_screening/HTS_experiment/out/docking_results/vina_output/4x21/2364_docked.pdbqt
 OpenBabel03212203053D

 33 37  0  0  1  0  0  0  0  0999 V2000
   24.1780   36.8760   66.5230 N   0  0  0  0  0  0  0  0  0  0  0  0
   25.1440   36.5670   67.5210 C   0  0  0  0  0  0  0  0  0  0  0  0
   26.3660   36.8590   67.3180 O   0  0  0  0  0  0  0  0  0  0  0  0
   24.8090   35.9230   68.7950 C   0  0  1  0  0  3  0  0  0  0  0  0
   23.4830   35.4080   68.8790 N   0  0  1  0  0  0  0  0  0  0  0  0
   22.4760   36.1220   68.1630 C   0  0  2  0  0  0  0  0  0  0  0  0
   21.8170   37.2580   68.9070 C   0  0  0  0  0  2  0  0  0  0  0  0
   20.6000   36.5140   68.9560 N   0  0  0  0  0  0  0  0  0  0  0  0
   21.1470   35.3960   68.2960 C   0  0  0  0  0  2  0  0  0  0  0  0
   22.8450   36.4400   66.7600 C   0  0  0  0  0  0  0  0  0  0  0  0
   22.0430   36.3420   65.7960 O   0  0  0  0  0  0  0  0  0  0  0  0
   23.5030   34.0410   68.4430 C   0  0  0  0  0  2  0  0  0  0  0  0
   24.9260   33.6710   68.1350 C   0  0  1  0  0  3  0  0  0  0  0  0
   25.7120   34.6870   68.9140 C   0  0  0  0  0  2  0  0  0  0  0  0
   19.9200   36.3730   70.1920 C   0  0  0  0  0  2  0  0  0  0  0  0
   18.4570   36.4820   70.1410 C   0  0  0  0  0  0  0  0  0  0  0  0
   17.6750   35.4900   70.6790 C   0  0  0  0  0  3  0  0  0  0  0  0
   16.2800   35.5690   70.6450 C   0  0  0  0  0  0  0  0  0  0  0  0
   15.6860   36.6620   70.0580 C   0  0  0  0  0  3  0  0  0  0  0  0
   16.4450   37.6690   69.5120 C   0  0  0  0  0  3  0  0  0  0  0  0
   17.8330   37.5600   69.5640 C   0  0  0  0  0  3  0  0  0  0  0  0
   15.4900   34.5730   71.1850 O   0  0  0  0  0  0  0  0  0  0  0  0
   14.0880   34.7650   71.2140 C   0  0  0  0  0  1  0  0  0  0  0  0
   24.5220   37.5990   65.3110 C   0  0  0  0  0  2  0  0  0  0  0  0
   24.2820   39.0700   65.5090 C   0  0  0  0  0  0  0  0  0  0  0  0
   25.2780   39.8920   65.9860 C   0  0  0  0  0  3  0  0  0  0  0  0
   25.0830   41.2440   66.1770 C   0  0  0  0  0  0  0  0  0  0  0  0
   26.3730   42.2580   66.7850 Cl  0  0  0  0  0  0  0  0  0  0  0  0
   23.8630   41.8090   65.8890 C   0  0  0  0  0  3  0  0  0  0  0  0
   22.8810   40.9700   65.4140 C   0  0  0  0  0  3  0  0  0  0  0  0
   23.0600   39.6370   65.2210 C   0  0  0  0  0  3  0  0  0  0  0  0
   25.2370   32.3670   68.4950 O   0  0  0  0  0  0  0  0  0  0  0  0
   26.1900   32.3520   68.7530 H   0  0  0  0  0  0  0  0  0  0  0  0
  1 10  1  0  0  0  0
  1  2  1  0  0  0  0
  2  4  1  0  0  0  0
  3  2  2  0  0  0  0
  4  5  1  0  0  0  0
  4 14  1  6  0  0  0
  5 12  1  6  0  0  0
  6  9  1  6  0  0  0
  6  5  1  0  0  0  0
  6  7  1  0  0  0  0
  7  8  1  0  0  0  0
  8 15  1  0  0  0  0
  9  8  1  0  0  0  0
 10  6  1  0  0  0  0
 11 10  2  0  0  0  0
 13 12  1  0  0  0  0
 13 32  1  1  0  0  0
 13 14  1  0  0  0  0
 16 15  1  0  0  0  0
 16 17  1  0  0  0  0
 18 17  2  0  0  0  0
 18 22  1  0  0  0  0
 19 18  1  0  0  0  0
 20 21  1  0  0  0  0
 20 19  2  0  0  0  0
 21 16  2  0  0  0  0
 22 23  1  0  0  0  0
 24 25  1  0  0  0  0
 24  1  1  0  0  0  0
 25 26  1  0  0  0  0
 26 27  2  0  0  0  0
 27 28  1  0  0  0  0
 29 27  1  0  0  0  0
 30 29  2  0  0  0  0
 31 30  1  0  0  0  0
 31 25  2  0  0  0  0
 32 33  1  0  0  0  0
M  END
>  <Pose>
1

>  <Score>
-8.728

$$$$
