/Users/jonathanwahrer/Desktop/Msc/3_Semester/Drug_Design_Praktikum/waehrer_HTS_screening/HTS_experiment/out/docking_results/vina_output/4x21/2373_docked.pdbqt
 OpenBabel03212203063D

 28 31  0  0  1  0  0  0  0  0999 V2000
   16.4470   36.5010   70.6510 N   0  0  0  0  0  0  0  0  0  0  0  0
   15.1420   36.2940   70.6690 C   0  0  2  0  0  3  0  0  0  0  0  0
   14.8590   35.0060   71.0030 N   0  0  0  0  0  0  0  0  0  0  0  0
   16.0000   34.3820   71.1960 C   0  0  0  0  0  0  0  0  0  0  0  0
   17.0120   35.3400   70.9730 C   0  0  0  0  0  3  0  0  0  0  0  0
   13.5250   34.4950   71.1520 C   0  0  0  0  0  2  0  0  0  0  0  0
   12.8760   34.2940   69.7840 C   0  0  0  0  0  2  0  0  0  0  0  0
   13.4040   35.4520   68.9290 C   0  0  0  0  0  2  0  0  0  0  0  0
   12.9670   36.7390   69.5730 C   0  0  0  0  0  2  0  0  0  0  0  0
   14.1500   37.3610   70.3320 C   0  0  0  0  0  2  0  0  0  0  0  0
   17.2310   37.7030   70.3490 C   0  0  0  0  0  2  0  0  0  0  0  0
   17.5920   37.6690   68.9160 C   0  0  0  0  0  0  0  0  0  0  0  0
   16.6740   37.9600   68.0780 O   0  0  0  0  0  0  0  0  0  0  0  0
   18.9080   37.3290   68.4210 C   0  0  0  0  0  0  0  0  0  0  0  0
   19.2260   37.6330   67.0920 C   0  0  0  0  0  3  0  0  0  0  0  0
   20.4560   37.3300   66.5640 C   0  0  0  0  0  3  0  0  0  0  0  0
   21.4290   36.7160   67.3120 C   0  0  0  0  0  0  0  0  0  0  0  0
   23.0120   36.3040   66.7030 Cl  0  0  0  0  0  0  0  0  0  0  0  0
   21.1050   36.4190   68.6260 C   0  0  0  0  0  3  0  0  0  0  0  0
   19.8740   36.7180   69.1650 C   0  0  0  0  0  3  0  0  0  0  0  0
   16.2790   32.9990   71.5920 C   0  0  0  0  0  0  0  0  0  0  0  0
   15.9410   32.4190   72.7720 C   0  0  0  0  0  3  0  0  0  0  0  0
   16.2980   31.1160   73.1160 C   0  0  0  0  0  3  0  0  0  0  0  0
   17.0230   30.3450   72.2490 C   0  0  0  0  0  0  0  0  0  0  0  0
   17.3780   30.9020   71.0440 C   0  0  0  0  0  3  0  0  0  0  0  0
   17.0190   32.1920   70.7210 C   0  0  0  0  0  3  0  0  0  0  0  0
   17.3960   29.0290   72.5690 O   0  0  0  0  0  0  0  0  0  0  0  0
   16.4670   28.0480   72.9460 C   0  0  0  0  0  1  0  0  0  0  0  0
  1  2  1  0  0  0  0
  1  5  1  0  0  0  0
  2 10  1  6  0  0  0
  2  3  1  0  0  0  0
  3  6  1  0  0  0  0
  3  4  1  0  0  0  0
  4 21  1  0  0  0  0
  5  4  2  0  0  0  0
  7  6  1  0  0  0  0
  8  9  1  0  0  0  0
  8  7  1  0  0  0  0
  9 10  1  0  0  0  0
 11  1  1  0  0  0  0
 12 11  1  0  0  0  0
 13 12  2  0  0  0  0
 14 12  1  0  0  0  0
 14 20  1  0  0  0  0
 15 14  2  0  0  0  0
 16 15  1  0  0  0  0
 16 17  2  0  0  0  0
 17 19  1  0  0  0  0
 18 17  1  0  0  0  0
 19 20  2  0  0  0  0
 21 22  1  0  0  0  0
 22 23  2  0  0  0  0
 24 27  1  0  0  0  0
 24 23  1  0  0  0  0
 25 24  2  0  0  0  0
 26 25  1  0  0  0  0
 26 21  2  0  0  0  0
 27 28  1  0  0  0  0
M  END
>  <Pose>
1

>  <Score>
-9.087

$$$$
