/Users/jonathanwahrer/Desktop/Msc/3_Semester/Drug_Design_Praktikum/waehrer_HTS_screening/HTS_experiment/out/docking_results/vina_output/4x21/2375_docked.pdbqt
 OpenBabel03212203063D

 37 40  0  0  1  0  0  0  0  0999 V2000
   23.6210   33.8440   69.8640 C   0  0  0  0  0  0  0  0  0  0  0  0
   24.6130   33.3550   70.7760 C   0  0  0  0  0  1  0  0  0  0  0  0
   23.8790   33.6950   68.3710 C   0  0  0  0  0  0  0  0  0  0  0  0
   23.9430   34.8420   67.5440 N   0  0  0  0  0  0  0  0  0  0  0  0
   23.8280   34.8750   66.1230 C   0  0  0  0  0  3  0  0  0  0  0  0
   24.4640   36.0920   68.1330 C   0  0  0  0  0  2  0  0  0  0  0  0
   23.1880   36.1120   65.5450 C   0  0  0  0  0  3  0  0  0  0  0  0
   22.9030   37.2220   66.4670 C   0  0  1  0  0  0  0  0  0  0  0  0
   23.7100   37.2650   67.7410 C   0  0  0  0  0  2  0  0  0  0  0  0
   24.0340   32.5680   67.9080 O   0  0  0  0  0  0  0  0  0  0  0  0
   23.0630   38.5660   65.8670 C   0  0  0  0  0  0  0  0  0  0  0  0
   21.9830   39.4270   65.9940 C   0  0  0  0  0  3  0  0  0  0  0  0
   22.0200   40.7380   65.4950 C   0  0  0  0  0  3  0  0  0  0  0  0
   23.1520   41.1990   64.8630 C   0  0  0  0  0  0  0  0  0  0  0  0
   23.2240   42.8650   64.2410 Cl  0  0  0  0  0  0  0  0  0  0  0  0
   24.2300   40.3400   64.7370 C   0  0  0  0  0  3  0  0  0  0  0  0
   24.1650   39.0450   65.2370 C   0  0  0  0  0  3  0  0  0  0  0  0
   21.5300   37.1070   66.8420 O   0  0  0  0  0  0  0  0  0  0  0  0
   20.9460   37.5290   66.1890 H   0  0  0  0  0  0  0  0  0  0  0  0
   22.2050   33.7280   70.1220 N   0  0  0  0  0  4  0  0  0  0  0  0
   21.3660   34.7810   70.4810 C   0  0  0  0  0  0  0  0  0  0  0  0
   22.1130   35.9350   70.6160 O   0  0  0  0  0  0  0  0  0  0  0  0
   20.0230   35.0320   70.7160 C   0  0  0  0  0  2  0  0  0  0  0  0
   21.8960   32.6990   70.0620 H   0  0  0  0  0  0  0  0  0  0  0  0
   18.7840   34.6370   70.6890 C   0  0  1  0  0  3  0  0  0  0  0  0
   18.4770   33.2280   70.9650 N   0  0  0  0  0  0  0  0  0  0  0  0
   17.1900   32.7350   71.0500 N   0  0  0  0  0  0  0  0  0  0  0  0
   19.3140   32.5980   71.1020 H   0  0  0  0  0  0  0  0  0  0  0  0
   16.0780   33.5440   70.8780 C   0  0  0  0  0  0  0  0  0  0  0  0
   17.0430   31.7080   71.2520 H   0  0  0  0  0  0  0  0  0  0  0  0
   14.8900   33.1380   70.9390 O   0  0  0  0  0  0  0  0  0  0  0  0
   16.2870   34.9840   70.5940 C   0  0  0  0  0  0  0  0  0  0  0  0
   17.5840   35.4340   70.5210 C   0  0  0  0  0  0  0  0  0  0  0  0
   15.1850   35.7980   70.4990 C   0  0  0  0  0  3  0  0  0  0  0  0
   17.7310   36.8150   70.3530 C   0  0  0  0  0  3  0  0  0  0  0  0
   16.6270   37.6500   70.2560 C   0  0  0  0  0  3  0  0  0  0  0  0
   15.3510   37.1550   70.3240 C   0  0  0  0  0  3  0  0  0  0  0  0
  1 20  2  3  0  0  0
  1  2  1  0  0  0  0
  3  1  1  0  0  0  0
  4  6  1  0  0  0  0
  4  3  1  0  0  0  0
  5  4  1  0  0  0  0
  7  5  2  0  0  0  0
  7  8  1  0  0  0  0
  8 18  1  1  0  0  0
  8  9  1  0  0  0  0
  9  6  1  0  0  0  0
 10  3  2  0  0  0  0
 11 12  1  0  0  0  0
 11  8  1  0  0  0  0
 13 12  2  0  0  0  0
 14 13  1  0  0  0  0
 15 14  1  0  0  0  0
 16 14  2  0  0  0  0
 16 17  1  0  0  0  0
 17 11  2  0  0  0  0
 19 18  1  0  0  0  0
 20 21  1  0  0  0  0
 21 22  2  0  0  0  0
 21 23  1  0  0  0  0
 24 20  1  0  0  0  0
 25 23  1  1  0  0  0
 25 26  1  0  0  0  0
 26 27  1  0  0  0  0
 26 28  1  0  0  0  0
 27 30  1  0  0  0  0
 29 31  2  0  0  0  0
 29 27  1  0  0  0  0
 32 29  1  0  0  0  0
 33 32  1  0  0  0  0
 33 25  1  0  0  0  0
 34 32  2  0  0  0  0
 35 33  2  0  0  0  0
 36 37  2  0  0  0  0
 36 35  1  0  0  0  0
 37 34  1  0  0  0  0
M  END
>  <Pose>
1

>  <Score>
-9.494

$$$$
