/Users/jonathanwahrer/Desktop/Msc/3_Semester/Drug_Design_Praktikum/waehrer_HTS_screening/HTS_experiment/out/docking_results/vina_output/4x21/2377_docked.pdbqt
 OpenBabel03212203073D

 33 36  0  0  0  0  0  0  0  0999 V2000
   19.4810   36.7150   69.8620 N   0  0  0  0  0  0  0  0  0  0  0  0
   20.5290   37.2270   70.7400 C   0  0  0  0  0  2  0  0  0  0  0  0
   21.9120   36.9220   70.2100 C   0  0  0  0  0  2  0  0  0  0  0  0
   21.7900   36.6020   68.8090 N   0  0  0  0  0  0  0  0  0  0  0  0
   20.9190   37.4710   68.0370 C   0  0  0  0  0  2  0  0  0  0  0  0
   19.4870   37.1450   68.4570 C   0  0  0  0  0  2  0  0  0  0  0  0
   22.4520   35.5280   68.1790 C   0  0  0  0  0  0  0  0  0  0  0  0
   22.2760   35.3390   66.9560 O   0  0  0  0  0  0  0  0  0  0  0  0
   18.5260   35.8080   70.3570 C   0  0  0  0  0  0  0  0  0  0  0  0
   17.2060   36.1330   70.5850 C   0  0  0  0  0  0  0  0  0  0  0  0
   16.7070   37.7820   70.3030 Cl  0  0  0  0  0  0  0  0  0  0  0  0
   16.3010   35.1730   71.0450 C   0  0  0  0  0  0  0  0  0  0  0  0
   16.6530   33.9040   71.2880 N   0  0  0  0  0  0  0  0  0  0  0  0
   15.1150   35.5440   71.2300 O   0  0  0  0  0  0  0  0  0  0  0  0
   17.9140   33.6010   71.0680 N   0  0  0  0  0  0  0  0  0  0  0  0
   18.8430   34.4690   70.6260 C   0  0  0  0  0  3  0  0  0  0  0  0
   15.7350   32.9210   71.7570 C   0  0  0  0  0  0  0  0  0  0  0  0
   15.9590   32.1980   72.9190 C   0  0  0  0  0  3  0  0  0  0  0  0
   15.0810   31.2420   73.3880 C   0  0  0  0  0  3  0  0  0  0  0  0
   13.9320   31.0020   72.6630 C   0  0  0  0  0  3  0  0  0  0  0  0
   13.6770   31.7040   71.4990 C   0  0  0  0  0  3  0  0  0  0  0  0
   14.5880   32.6680   71.0500 C   0  0  0  0  0  3  0  0  0  0  0  0
   23.3570   34.5960   68.8940 C   0  0  0  0  0  2  0  0  0  0  0  0
   23.8340   33.4980   67.9720 C   0  0  0  0  0  2  0  0  0  0  0  0
   25.3110   33.5620   67.7200 C   0  0  0  0  0  2  0  0  0  0  0  0
   25.7380   34.7630   67.0360 N   0  0  0  0  0  0  0  0  0  0  0  0
   25.5610   35.0480   65.6600 C   0  0  0  0  0  0  0  0  0  0  0  0
   24.9980   34.2960   64.7950 O   0  0  0  0  0  0  0  0  0  0  0  0
   26.0940   36.3110   65.3250 N   0  0  0  0  0  0  0  0  0  0  0  0
   26.6640   36.8930   66.5190 C   0  0  0  0  0  2  0  0  0  0  0  0
   26.0800   36.9310   64.0160 C   0  0  0  0  0  1  0  0  0  0  0  0
   26.4130   35.8990   67.5860 C   0  0  0  0  0  0  0  0  0  0  0  0
   26.7370   36.0200   68.7860 O   0  0  0  0  0  0  0  0  0  0  0  0
  1  9  1  0  0  0  0
  1  2  1  0  0  0  0
  3  2  1  0  0  0  0
  4  3  1  0  0  0  0
  5  6  1  0  0  0  0
  5  4  1  0  0  0  0
  6  1  1  0  0  0  0
  7  4  1  0  0  0  0
  7 23  1  0  0  0  0
  8  7  2  0  0  0  0
  9 10  2  0  0  0  0
  9 16  1  0  0  0  0
 10 12  1  0  0  0  0
 11 10  1  0  0  0  0
 12 14  2  0  0  0  0
 12 13  1  0  0  0  0
 13 17  1  0  0  0  0
 15 13  1  0  0  0  0
 16 15  2  0  0  0  0
 17 18  1  0  0  0  0
 18 19  2  0  0  0  0
 20 19  1  0  0  0  0
 21 20  2  0  0  0  0
 22 21  1  0  0  0  0
 22 17  2  0  0  0  0
 24 23  1  0  0  0  0
 25 24  1  0  0  0  0
 26 32  1  0  0  0  0
 26 25  1  0  0  0  0
 27 26  1  0  0  0  0
 28 27  2  0  0  0  0
 29 27  1  0  0  0  0
 29 30  1  0  0  0  0
 30 32  1  0  0  0  0
 31 29  1  0  0  0  0
 32 33  2  0  0  0  0
M  END
>  <Pose>
1

>  <Score>
-8.537

$$$$
