/Users/jonathanwahrer/Desktop/Msc/3_Semester/Drug_Design_Praktikum/waehrer_HTS_screening/HTS_experiment/out/docking_results/vina_output/4x21/2380_docked.pdbqt
 OpenBabel03212203073D

 27 30  0  0  1  0  0  0  0  0999 V2000
   20.6220   33.3830   70.1360 Cl  0  0  0  0  0  0  0  0  0  0  0  0
   19.0090   33.8160   70.6930 C   0  0  0  0  0  0  0  0  0  0  0  0
   18.6830   35.1510   70.7330 C   0  0  0  0  0  0  0  0  0  0  0  0
   17.4070   35.4580   71.1770 C   0  0  0  0  0  3  0  0  0  0  0  0
   16.5640   34.4750   71.5400 N   0  0  0  0  0  0  0  0  0  0  0  0
   16.8650   33.1870   71.5060 N   0  0  0  0  0  0  0  0  0  0  0  0
   18.0960   32.8540   71.0800 C   0  0  0  0  0  0  0  0  0  0  0  0
   18.4540   31.6440   71.0210 O   0  0  0  0  0  0  0  0  0  0  0  0
   19.6300   36.1180   70.3340 N   0  0  0  0  0  0  0  0  0  0  0  0
   19.4970   36.8500   69.0790 C   0  0  0  0  0  2  0  0  0  0  0  0
   20.6640   36.3510   68.2050 C   0  0  0  0  0  2  0  0  0  0  0  0
   21.9020   36.4760   68.9100 N   0  0  0  0  0  0  0  0  0  0  0  0
   21.8550   37.1230   70.2380 C   0  0  0  0  0  2  0  0  0  0  0  0
   23.1460   36.0180   68.4020 C   0  0  0  0  0  0  0  0  0  0  0  0
   20.8030   36.4720   71.1130 C   0  0  0  0  0  2  0  0  0  0  0  0
   24.2180   36.1510   69.0650 O   0  0  0  0  0  0  0  0  0  0  0  0
   23.2800   35.3670   67.0880 C   0  0  1  0  0  3  0  0  0  0  0  0
   24.3840   35.8140   66.4280 O   0  0  0  0  0  0  0  0  0  0  0  0
   24.8730   34.7780   65.6420 C   0  0  0  0  0  2  0  0  0  0  0  0
   24.7480   33.6000   66.5980 C   0  0  0  0  0  2  0  0  0  0  0  0
   23.3840   33.8630   67.2010 C   0  0  0  0  0  2  0  0  0  0  0  0
   15.9200   32.1840   71.9070 C   0  0  0  0  0  0  0  0  0  0  0  0
   15.9230   31.7030   73.2000 C   0  0  0  0  0  3  0  0  0  0  0  0
   15.0080   30.7260   73.6050 C   0  0  0  0  0  3  0  0  0  0  0  0
   14.0890   30.2280   72.7160 C   0  0  0  0  0  3  0  0  0  0  0  0
   14.0750   30.6960   71.4270 C   0  0  0  0  0  3  0  0  0  0  0  0
   14.9800   31.6570   71.0460 C   0  0  0  0  0  3  0  0  0  0  0  0
  1  2  1  0  0  0  0
  2  3  2  0  0  0  0
  2  7  1  0  0  0  0
  3  4  1  0  0  0  0
  4  5  2  0  0  0  0
  6  5  1  0  0  0  0
  6 22  1  0  0  0  0
  7  6  1  0  0  0  0
  8  7  2  0  0  0  0
  9  3  1  0  0  0  0
  9 15  1  0  0  0  0
 10  9  1  0  0  0  0
 11 12  1  0  0  0  0
 11 10  1  0  0  0  0
 12 13  1  0  0  0  0
 13 15  1  0  0  0  0
 14 12  1  0  0  0  0
 14 16  2  0  0  0  0
 17 21  1  0  0  0  0
 17 14  1  1  0  0  0
 18 17  1  0  0  0  0
 19 18  1  0  0  0  0
 19 20  1  0  0  0  0
 20 21  1  0  0  0  0
 22 23  1  0  0  0  0
 23 24  2  0  0  0  0
 25 24  1  0  0  0  0
 26 25  2  0  0  0  0
 27 26  1  0  0  0  0
 27 22  2  0  0  0  0
M  END
>  <Pose>
1

>  <Score>
-8.065

$$$$
