/Users/jonathanwahrer/Desktop/Msc/3_Semester/Drug_Design_Praktikum/waehrer_HTS_screening/HTS_experiment/out/docking_results/vina_output/4x21/2381_docked.pdbqt
 OpenBabel03212203073D

 30 33  0  0  0  0  0  0  0  0999 V2000
   18.9020   34.4110   71.7370 N   0  0  0  0  0  0  0  0  0  0  0  0
   19.4270   33.6940   72.8660 C   0  0  0  0  0  2  0  0  0  0  0  0
   18.5850   32.4810   73.1930 C   0  0  0  0  0  2  0  0  0  0  0  0
   17.1870   32.7070   72.9240 N   0  0  0  0  0  0  0  0  0  0  0  0
   16.7360   34.0570   72.6890 C   0  0  0  0  0  2  0  0  0  0  0  0
   17.4840   34.5890   71.4940 C   0  0  0  0  0  2  0  0  0  0  0  0
   16.2810   31.6160   72.8930 C   0  0  0  0  0  0  0  0  0  0  0  0
   16.6730   30.4230   73.0990 O   0  0  0  0  0  0  0  0  0  0  0  0
   19.8230   34.9790   70.8040 C   0  0  0  0  0  0  0  0  0  0  0  0
   20.5570   34.2060   69.9270 C   0  0  0  0  0  0  0  0  0  0  0  0
   20.3550   32.4700   69.9520 Cl  0  0  0  0  0  0  0  0  0  0  0  0
   21.4320   34.8320   69.0520 C   0  0  0  0  0  0  0  0  0  0  0  0
   21.6060   36.1650   69.0090 N   0  0  0  0  0  0  0  0  0  0  0  0
   22.1010   34.1400   68.2560 O   0  0  0  0  0  0  0  0  0  0  0  0
   20.8940   36.8900   69.8560 N   0  0  0  0  0  0  0  0  0  0  0  0
   20.0280   36.3450   70.7310 C   0  0  0  0  0  3  0  0  0  0  0  0
   22.5250   36.7530   68.0830 C   0  0  0  0  0  0  0  0  0  0  0  0
   23.8630   36.8780   68.3970 C   0  0  0  0  0  3  0  0  0  0  0  0
   24.7560   37.4440   67.5100 C   0  0  0  0  0  3  0  0  0  0  0  0
   24.3570   37.9110   66.2750 C   0  0  0  0  0  3  0  0  0  0  0  0
   23.0210   37.7890   65.9550 C   0  0  0  0  0  3  0  0  0  0  0  0
   22.1350   37.2240   66.8430 C   0  0  0  0  0  3  0  0  0  0  0  0
   14.8310   31.7940   72.6210 C   0  0  0  0  0  2  0  0  0  0  0  0
   14.5810   32.0720   71.2700 O   0  0  0  0  0  0  0  0  0  0  0  0
   13.8020   33.1540   70.9070 C   0  0  0  0  0  0  0  0  0  0  0  0
   12.5500   33.4660   71.2610 N   0  0  0  0  0  0  0  0  0  0  0  0
   12.1860   34.5710   70.6970 O   0  0  0  0  0  0  0  0  0  0  0  0
   13.1470   35.0660   69.9440 C   0  0  0  0  0  0  0  0  0  0  0  0
   14.1980   34.1780   70.0590 C   0  0  0  0  0  3  0  0  0  0  0  0
   13.0230   36.3190   69.1780 C   0  0  0  0  0  1  0  0  0  0  0  0
  1  2  1  0  0  0  0
  2  3  1  0  0  0  0
  4  3  1  0  0  0  0
  5  4  1  0  0  0  0
  6  1  1  0  0  0  0
  6  5  1  0  0  0  0
  7  4  1  0  0  0  0
  7  8  2  0  0  0  0
  9  1  1  0  0  0  0
 10 11  1  0  0  0  0
 10  9  2  0  0  0  0
 12 10  1  0  0  0  0
 13 12  1  0  0  0  0
 13 15  1  0  0  0  0
 14 12  2  0  0  0  0
 15 16  2  0  0  0  0
 16  9  1  0  0  0  0
 17 18  1  0  0  0  0
 17 13  1  0  0  0  0
 19 18  2  0  0  0  0
 20 19  1  0  0  0  0
 21 20  2  0  0  0  0
 21 22  1  0  0  0  0
 22 17  2  0  0  0  0
 23  7  1  0  0  0  0
 24 23  1  0  0  0  0
 25 26  2  0  0  0  0
 25 24  1  0  0  0  0
 27 26  1  0  0  0  0
 28 29  2  0  0  0  0
 28 27  1  0  0  0  0
 29 25  1  0  0  0  0
 30 28  1  0  0  0  0
M  END
>  <Pose>
1

>  <Score>
-8.659

$$$$
