/Users/jonathanwahrer/Desktop/Msc/3_Semester/Drug_Design_Praktikum/waehrer_HTS_screening/HTS_experiment/out/docking_results/vina_output/4x21/2386_docked.pdbqt
 OpenBabel03212203073D

 30 33  0  0  0  0  0  0  0  0999 V2000
   13.9970   37.3510   70.3170 Cl  0  0  0  0  0  0  0  0  0  0  0  0
   15.6900   36.8960   70.1540 C   0  0  0  0  0  0  0  0  0  0  0  0
   16.1530   35.8700   70.9740 C   0  0  0  0  0  3  0  0  0  0  0  0
   17.4750   35.5030   70.8590 C   0  0  0  0  0  0  0  0  0  0  0  0
   18.3040   36.1450   69.9490 C   0  0  0  0  0  0  0  0  0  0  0  0
   17.8340   37.1680   69.1350 C   0  0  0  0  0  3  0  0  0  0  0  0
   16.5060   37.5370   69.2520 C   0  0  0  0  0  3  0  0  0  0  0  0
   19.6420   35.8340   69.7750 O   0  0  0  0  0  0  0  0  0  0  0  0
   20.5680   35.3050   70.6830 C   0  0  0  0  0  0  0  0  0  0  0  0
   20.2440   33.9690   71.2450 C   0  0  0  0  0  2  0  0  0  0  0  0
   18.8690   33.5880   71.2440 N   0  0  0  0  0  0  0  0  0  0  0  0
   17.7810   34.3990   71.8070 C   0  0  0  0  0  2  0  0  0  0  0  0
   18.5030   32.3390   70.6720 C   0  0  0  0  0  0  0  0  0  0  0  0
   19.4290   31.6380   70.2040 O   0  0  0  0  0  0  0  0  0  0  0  0
   21.9340   35.2240   69.9750 C   0  0  0  0  0  2  0  0  0  0  0  0
   22.1760   36.5770   69.3630 C   0  0  0  0  0  2  0  0  0  0  0  0
   21.2130   37.5040   69.7210 O   0  0  0  0  0  0  0  0  0  0  0  0
   21.0970   37.6540   71.0910 C   0  0  0  0  0  2  0  0  0  0  0  0
   20.8090   36.3430   71.7910 C   0  0  0  0  0  2  0  0  0  0  0  0
   17.1260   31.8730   70.6270 C   0  0  0  0  0  2  0  0  0  0  0  0
   16.7640   30.6790   71.4120 C   0  0  0  0  0  2  0  0  0  0  0  0
   16.4700   30.8070   72.8480 C   0  0  0  0  0  2  0  0  0  0  0  0
   15.2690   30.2840   73.3850 N   0  0  0  0  0  0  0  0  0  0  0  0
   15.1370   29.0440   74.0550 C   0  0  0  0  0  0  0  0  0  0  0  0
   16.0320   28.1850   74.3110 O   0  0  0  0  0  0  0  0  0  0  0  0
   13.7740   28.9100   74.4170 N   0  0  0  0  0  0  0  0  0  0  0  0
   13.1290   30.2160   74.3090 C   0  0  0  0  0  2  0  0  0  0  0  0
   13.2760   28.0470   74.7140 H   0  0  0  0  0  0  0  0  0  0  0  0
   14.0000   30.9050   73.3330 C   0  0  0  0  0  0  0  0  0  0  0  0
   13.6410   31.8860   72.5880 O   0  0  0  0  0  0  0  0  0  0  0  0
  2  1  1  0  0  0  0
  2  3  1  0  0  0  0
  4  3  2  0  0  0  0
  4 12  1  0  0  0  0
  5  4  1  0  0  0  0
  6  7  1  0  0  0  0
  6  5  2  0  0  0  0
  7  2  2  0  0  0  0
  8  5  1  0  0  0  0
  8  9  1  0  0  0  0
  9 10  1  0  0  0  0
  9 19  1  0  0  0  0
 11 10  1  0  0  0  0
 11 12  1  0  0  0  0
 13 11  1  0  0  0  0
 14 13  2  0  0  0  0
 15  9  1  0  0  0  0
 16 17  1  0  0  0  0
 16 15  1  0  0  0  0
 17 18  1  0  0  0  0
 18 19  1  0  0  0  0
 20 13  1  0  0  0  0
 20 21  1  0  0  0  0
 21 22  1  0  0  0  0
 22 23  1  0  0  0  0
 23 24  1  0  0  0  0
 24 25  2  0  0  0  0
 24 26  1  0  0  0  0
 26 28  1  0  0  0  0
 27 26  1  0  0  0  0
 29 23  1  0  0  0  0
 29 27  1  0  0  0  0
 30 29  2  0  0  0  0
M  END
>  <Pose>
1

>  <Score>
-8.587

$$$$
