/Users/jonathanwahrer/Desktop/Msc/3_Semester/Drug_Design_Praktikum/waehrer_HTS_screening/HTS_experiment/out/docking_results/vina_output/4x21/2402_docked.pdbqt
 OpenBabel03212203083D

 33 36  0  0  1  0  0  0  0  0999 V2000
   24.3900   35.9760   68.2070 C   0  0  2  0  0  3  0  0  0  0  0  0
   24.7300   34.7190   67.6090 N   0  0  0  0  0  0  0  0  0  0  0  0
   23.5590   33.9740   67.3100 C   0  0  0  0  0  0  0  0  0  0  0  0
   23.4080   32.9270   66.6350 O   0  0  0  0  0  0  0  0  0  0  0  0
   22.4080   34.6450   67.9570 C   0  0  0  0  0  0  0  0  0  0  0  0
   21.2050   34.2820   67.9190 O   0  0  0  0  0  0  0  0  0  0  0  0
   22.9750   35.7980   68.6310 C   0  0  0  0  0  0  0  0  0  0  0  0
   22.2730   36.5610   69.4790 C   0  0  0  0  0  0  0  0  0  0  0  0
   22.9870   37.6460   70.0040 O   0  0  0  0  0  1  0  0  0  0  0  0
   24.6440   37.1440   67.3800 C   0  0  0  0  0  0  0  0  0  0  0  0
   25.7470   37.9340   67.6410 C   0  0  0  0  0  3  0  0  0  0  0  0
   26.0730   39.0460   66.9220 C   0  0  0  0  0  3  0  0  0  0  0  0
   25.2840   39.4280   65.8760 C   0  0  0  0  0  0  0  0  0  0  0  0
   25.7870   40.9930   64.8990 Br  0  0  0  0  0  0  0  0  0  0  0  0
   24.1720   38.6830   65.5650 C   0  0  0  0  0  3  0  0  0  0  0  0
   23.8640   37.5520   66.3190 C   0  0  0  0  0  3  0  0  0  0  0  0
   20.8850   36.2950   69.8400 C   0  0  0  0  0  0  0  0  0  0  0  0
   20.3670   35.3820   70.5860 O   0  0  0  0  0  0  0  0  0  0  0  0
   19.0730   35.4370   70.6920 C   0  0  0  0  0  0  0  0  0  0  0  0
   18.6350   36.5110   69.9330 C   0  0  0  0  0  0  0  0  0  0  0  0
   18.1330   34.6800   71.3690 C   0  0  0  0  0  0  0  0  0  0  0  0
   19.8110   37.0420   69.4000 C   0  0  0  0  0  3  0  0  0  0  0  0
   17.2920   36.7980   69.8680 C   0  0  0  0  0  3  0  0  0  0  0  0
   16.3730   36.0320   70.5480 C   0  0  0  0  0  3  0  0  0  0  0  0
   16.8030   34.9540   71.3110 C   0  0  0  0  0  3  0  0  0  0  0  0
   18.5920   33.6170   72.1180 O   0  0  0  0  0  0  0  0  0  0  0  0
   17.8800   33.0200   73.1930 C   0  0  0  0  0  1  0  0  0  0  0  0
   26.0590   34.2440   67.3340 C   0  0  0  0  0  2  0  0  0  0  0  0
   26.5930   33.3930   68.4720 C   0  0  0  0  0  2  0  0  0  0  0  0
   26.1240   32.0510   68.4490 N   0  0  0  0  0  4  0  0  0  0  0  0
   27.1120   31.0460   68.1990 C   0  0  0  0  0  1  0  0  0  0  0  0
   25.3720   31.7410   69.6570 C   0  0  0  0  0  1  0  0  0  0  0  0
   25.4220   31.9770   67.6530 H   0  0  0  0  0  0  0  0  0  0  0  0
  1 10  1  6  0  0  0
  1  7  1  0  0  0  0
  2  1  1  0  0  0  0
  3  2  1  0  0  0  0
  3  5  1  0  0  0  0
  4  3  2  0  0  0  0
  5  7  1  0  0  0  0
  6  5  2  0  0  0  0
  7  8  2  0  0  0  0
  8 17  1  0  0  0  0
  8  9  1  0  0  0  0
 10 11  1  0  0  0  0
 12 11  2  0  0  0  0
 13 12  1  0  0  0  0
 14 13  1  0  0  0  0
 15 13  2  0  0  0  0
 15 16  1  0  0  0  0
 16 10  2  0  0  0  0
 17 18  1  0  0  0  0
 18 19  1  0  0  0  0
 19 21  1  0  0  0  0
 20 19  2  0  0  0  0
 21 26  1  0  0  0  0
 22 17  2  0  0  0  0
 22 20  1  0  0  0  0
 23 20  1  0  0  0  0
 23 24  2  0  0  0  0
 24 25  1  0  0  0  0
 25 21  2  0  0  0  0
 26 27  1  0  0  0  0
 28  2  1  0  0  0  0
 28 29  1  0  0  0  0
 30 29  1  0  0  0  0
 30 32  1  0  0  0  0
 31 30  1  0  0  0  0
 33 30  1  0  0  0  0
M  END
>  <Pose>
1

>  <Score>
-8.237

$$$$
