/Users/jonathanwahrer/Desktop/Msc/3_Semester/Drug_Design_Praktikum/waehrer_HTS_screening/HTS_experiment/out/docking_results/vina_output/4x21/2403_docked.pdbqt
 OpenBabel03212203083D

 26 29  0  0  0  0  0  0  0  0999 V2000
   21.6340   35.5540   69.9120 N   0  0  0  0  0  0  0  0  0  0  0  0
   22.1390   35.8110   68.6960 C   0  0  0  0  0  0  0  0  0  0  0  0
   22.7730   34.6890   68.1750 C   0  0  0  0  0  0  0  0  0  0  0  0
   22.6330   33.7340   69.1240 N   0  0  0  0  0  0  0  0  0  0  0  0
   21.9580   34.2440   70.1580 C   0  0  0  0  0  3  0  0  0  0  0  0
   23.3730   34.6660   66.9670 N   0  0  0  0  0  0  0  0  0  0  0  0
   23.3360   35.8110   66.2610 C   0  0  0  0  0  0  0  0  0  0  0  0
   23.8930   35.8080   65.1280 O   0  0  0  0  0  0  0  0  0  0  0  0
   22.7390   36.9220   66.7180 N   0  0  0  0  0  0  0  0  0  0  0  0
   22.1370   36.9480   67.9250 C   0  0  0  0  0  0  0  0  0  0  0  0
   21.5790   37.9710   68.3680 O   0  0  0  0  0  0  0  0  0  0  0  0
   22.7020   38.1560   65.9530 C   0  0  0  0  0  1  0  0  0  0  0  0
   24.0160   33.4600   66.4800 C   0  0  0  0  0  1  0  0  0  0  0  0
   20.8820   36.4030   70.8140 C   0  0  0  0  0  2  0  0  0  0  0  0
   19.3990   36.2360   70.6480 C   0  0  0  0  0  0  0  0  0  0  0  0
   18.7950   35.1880   71.2350 N   0  0  0  0  0  0  0  0  0  0  0  0
   17.4480   34.9960   71.1220 C   0  0  0  0  0  0  0  0  0  0  0  0
   16.6880   35.8500   70.4200 N   0  0  0  0  0  0  0  0  0  0  0  0
   16.8760   33.8990   71.7470 C   0  0  0  0  0  3  0  0  0  0  0  0
   15.3570   35.6620   70.3080 C   0  0  0  0  0  3  0  0  0  0  0  0
   17.2420   36.9340   69.8020 C   0  0  0  0  0  0  0  0  0  0  0  0
   14.7840   34.5810   70.9210 C   0  0  0  0  0  0  0  0  0  0  0  0
   12.9020   34.3420   70.7450 Br  0  0  0  0  0  0  0  0  0  0  0  0
   15.5250   33.6800   71.6510 C   0  0  0  0  0  3  0  0  0  0  0  0
   18.6030   37.0980   69.9350 C   0  0  0  0  0  3  0  0  0  0  0  0
   16.5030   37.6990   69.1630 O   0  0  0  0  0  0  0  0  0  0  0  0
  1  5  1  0  0  0  0
  1 14  1  0  0  0  0
  2  1  1  0  0  0  0
  3  2  2  0  0  0  0
  3  4  1  0  0  0  0
  4  5  2  0  0  0  0
  6  3  1  0  0  0  0
  7  9  1  0  0  0  0
  7  6  1  0  0  0  0
  8  7  2  0  0  0  0
  9 10  1  0  0  0  0
 10 11  2  0  0  0  0
 10  2  1  0  0  0  0
 12  9  1  0  0  0  0
 13  6  1  0  0  0  0
 15 14  1  0  0  0  0
 15 16  1  0  0  0  0
 17 16  2  0  0  0  0
 17 19  1  0  0  0  0
 18 17  1  0  0  0  0
 20 18  1  0  0  0  0
 20 22  2  0  0  0  0
 21 25  1  0  0  0  0
 21 18  1  0  0  0  0
 22 24  1  0  0  0  0
 23 22  1  0  0  0  0
 24 19  2  0  0  0  0
 25 15  2  0  0  0  0
 26 21  2  0  0  0  0
M  END
>  <Pose>
1

>  <Score>
-8.742

$$$$
