/Users/jonathanwahrer/Desktop/Msc/3_Semester/Drug_Design_Praktikum/waehrer_HTS_screening/HTS_experiment/out/docking_results/vina_output/4x21/2417_docked.pdbqt
 OpenBabel03212203083D

 27 30  0  0  1  0  0  0  0  0999 V2000
   19.1830   33.7850   71.6300 N   0  0  0  0  0  0  0  0  0  0  0  0
   17.8350   33.8160   71.0170 C   0  0  0  0  0  2  0  0  0  0  0  0
   16.9980   34.3040   72.1080 C   0  0  2  0  0  3  0  0  0  0  0  0
   17.4030   33.3520   73.2230 C   0  0  2  0  0  3  0  0  0  0  0  0
   18.9670   33.4790   72.9790 C   0  0  0  0  0  2  0  0  0  0  0  0
   19.8140   35.0690   71.2880 C   0  0  0  0  0  2  0  0  0  0  0  0
   20.5440   35.1290   70.0470 C   0  0  0  0  0  0  0  0  0  0  0  0
   20.3280   35.8690   68.9060 C   0  0  0  0  0  0  0  0  0  0  0  0
   19.4830   36.9260   68.6650 C   0  0  0  0  0  0  0  0  0  0  0  0
   21.1910   35.5050   67.8990 C   0  0  0  0  0  0  0  0  0  0  0  0
   18.2910   37.3150   69.9000 Cl  0  0  0  0  0  0  0  0  0  0  0  0
   19.4960   37.6110   67.4800 C   0  0  0  0  0  3  0  0  0  0  0  0
   20.3790   37.2280   66.4760 C   0  0  0  0  0  3  0  0  0  0  0  0
   21.2420   36.1510   66.7020 C   0  0  0  0  0  3  0  0  0  0  0  0
   21.9400   34.5110   68.4250 N   0  0  0  0  0  0  0  0  0  0  0  0
   21.5780   34.2950   69.6620 N   0  0  0  0  0  0  0  0  0  0  0  0
   22.9220   33.7230   67.6590 C   0  0  0  0  0  1  0  0  0  0  0  0
   15.5090   34.2350   71.8770 C   0  0  0  0  0  2  0  0  0  0  0  0
   15.2020   34.9670   70.6890 N   0  0  0  0  0  0  0  0  0  0  0  0
   14.2020   34.3170   69.8670 C   0  0  0  0  0  2  0  0  0  0  0  0
   12.9770   35.1660   69.6190 C   0  0  0  0  0  2  0  0  0  0  0  0
   13.2540   36.4130   69.1090 O   0  0  0  0  0  0  0  0  0  0  0  0
   14.4290   36.9570   69.6190 C   0  0  0  0  0  2  0  0  0  0  0  0
   14.7430   36.3140   70.9350 C   0  0  0  0  0  2  0  0  0  0  0  0
   17.1050   31.9250   72.8630 C   0  0  0  0  0  2  0  0  0  0  0  0
   16.1350   31.4110   73.7620 O   0  0  0  0  0  0  0  0  0  0  0  0
   16.4860   30.4770   74.0330 H   0  0  0  0  0  0  0  0  0  0  0  0
  1  5  1  0  0  0  0
  2  1  1  0  0  0  0
  2  3  1  0  0  0  0
  3 18  1  6  0  0  0
  3  4  1  0  0  0  0
  4 25  1  6  0  0  0
  5  4  1  0  0  0  0
  6  1  1  0  0  0  0
  7  6  1  0  0  0  0
  8  7  1  0  0  0  0
  9  8  1  0  0  0  0
  9 11  1  0  0  0  0
 10 15  1  0  0  0  0
 10  8  2  0  0  0  0
 12  9  2  0  0  0  0
 13 14  2  0  0  0  0
 13 12  1  0  0  0  0
 14 10  1  0  0  0  0
 15 16  1  0  0  0  0
 16  7  2  0  0  0  0
 17 15  1  0  0  0  0
 19 24  1  0  0  0  0
 19 18  1  0  0  0  0
 20 19  1  0  0  0  0
 21 20  1  0  0  0  0
 22 23  1  0  0  0  0
 22 21  1  0  0  0  0
 23 24  1  0  0  0  0
 25 26  1  0  0  0  0
 26 27  1  0  0  0  0
M  END
>  <Pose>
1

>  <Score>
-8.000

$$$$
