/Users/jonathanwahrer/Desktop/Msc/3_Semester/Drug_Design_Praktikum/waehrer_HTS_screening/HTS_experiment/out/docking_results/vina_output/4x21/2420_docked.pdbqt
 OpenBabel03212203093D

 29 32  0  0  1  0  0  0  0  0999 V2000
   14.8700   31.3910   71.9130 N   0  0  0  0  0  0  0  0  0  0  0  0
   15.7090   30.5410   71.0700 C   0  0  0  0  0  2  0  0  0  0  0  0
   16.7750   30.0590   72.0280 C   0  0  2  0  0  3  0  0  0  0  0  0
   15.9620   29.7380   73.2770 C   0  0  0  0  0  2  0  0  0  0  0  0
   14.8060   30.6950   73.1610 C   0  0  0  0  0  0  0  0  0  0  0  0
   13.9040   30.8670   74.0340 O   0  0  0  0  0  0  0  0  0  0  0  0
   17.7730   31.1160   72.3220 C   0  0  0  0  0  0  0  0  0  0  0  0
   17.7600   31.6430   73.4620 O   0  0  0  0  0  0  0  0  0  0  0  0
   18.7280   31.5460   71.3730 N   0  0  0  0  0  0  0  0  0  0  0  0
   18.7070   31.0830   70.4290 H   0  0  0  0  0  0  0  0  0  0  0  0
   19.7010   32.5710   71.6520 C   0  0  0  0  0  2  0  0  0  0  0  0
   19.9430   33.3910   70.4020 C   0  0  0  0  0  2  0  0  0  0  0  0
   20.9420   34.4150   70.5870 N   0  0  0  0  0  0  0  0  0  0  0  0
   21.0130   35.1830   69.3490 C   0  0  0  0  0  2  0  0  0  0  0  0
   19.9340   36.2620   69.3320 C   0  0  0  0  0  2  0  0  0  0  0  0
   20.1520   37.2450   70.2690 O   0  0  0  0  0  0  0  0  0  0  0  0
   20.9570   36.7540   71.2700 C   0  0  0  0  0  2  0  0  0  0  0  0
   20.5980   35.3330   71.6500 C   0  0  0  0  0  2  0  0  0  0  0  0
   14.2630   32.6220   71.5560 C   0  0  0  0  0  0  0  0  0  0  0  0
   12.9700   32.9480   71.4280 N   0  0  0  0  0  0  0  0  0  0  0  0
   12.8460   34.2170   71.0700 N   0  0  0  0  0  0  0  0  0  0  0  0
   14.0820   34.7780   70.9480 C   0  0  0  0  0  0  0  0  0  0  0  0
   11.9870   34.7930   70.8840 H   0  0  0  0  0  0  0  0  0  0  0  0
   14.5530   36.0130   70.6160 C   0  0  0  0  0  3  0  0  0  0  0  0
   14.9720   33.7780   71.2530 C   0  0  0  0  0  0  0  0  0  0  0  0
   15.9030   36.2850   70.5780 C   0  0  0  0  0  0  0  0  0  0  0  0
   16.5370   38.0180   70.1110 Br  0  0  0  0  0  0  0  0  0  0  0  0
   16.8130   35.2730   70.8870 C   0  0  0  0  0  3  0  0  0  0  0  0
   16.3390   34.0250   71.2230 C   0  0  0  0  0  3  0  0  0  0  0  0
  1  5  1  0  0  0  0
  2  1  1  0  0  0  0
  2  3  1  0  0  0  0
  3  7  1  1  0  0  0
  3  4  1  0  0  0  0
  5  4  1  0  0  0  0
  5  6  2  0  0  0  0
  7  8  2  0  0  0  0
  9 11  1  0  0  0  0
  9  7  1  0  0  0  0
 10  9  1  0  0  0  0
 12 13  1  0  0  0  0
 12 11  1  0  0  0  0
 13 18  1  0  0  0  0
 14 13  1  0  0  0  0
 15 14  1  0  0  0  0
 15 16  1  0  0  0  0
 16 17  1  0  0  0  0
 17 18  1  0  0  0  0
 19  1  1  0  0  0  0
 20 19  2  0  0  0  0
 21 20  1  0  0  0  0
 22 21  1  0  0  0  0
 22 25  1  0  0  0  0
 23 21  1  0  0  0  0
 24 22  2  0  0  0  0
 25 19  1  0  0  0  0
 26 24  1  0  0  0  0
 26 28  2  0  0  0  0
 27 26  1  0  0  0  0
 28 29  1  0  0  0  0
 29 25  2  0  0  0  0
M  END
>  <Pose>
1

>  <Score>
-8.051

$$$$
