/Users/jonathanwahrer/Desktop/Msc/3_Semester/Drug_Design_Praktikum/waehrer_HTS_screening/HTS_experiment/out/docking_results/vina_output/4x21/2439_docked.pdbqt
 OpenBabel03212203093D

 30 34  0  0  1  0  0  0  0  0999 V2000
   19.0020   34.5640   70.5330 C   0  0  0  0  0  0  0  0  0  0  0  0
   20.0960   34.0190   69.8380 C   0  0  0  0  0  3  0  0  0  0  0  0
   20.7320   34.9960   69.1950 N   0  0  0  0  0  0  0  0  0  0  0  0
   21.7870   35.2390   68.3750 C   0  0  0  0  0  0  0  0  0  0  0  0
   21.7860   36.5690   68.1240 C   0  0  0  0  0  0  0  0  0  0  0  0
   20.7470   37.0960   68.7880 N   0  0  0  0  0  0  0  0  0  0  0  0
   20.0810   36.1310   69.4600 C   0  0  1  0  0  3  0  0  0  0  0  0
   19.0120   35.8810   70.2850 N   0  0  0  0  0  0  0  0  0  0  0  0
   22.7520   37.1320   67.3090 C   0  0  0  0  0  3  0  0  0  0  0  0
   23.7370   36.3470   66.7330 C   0  0  0  0  0  3  0  0  0  0  0  0
   23.7380   34.9820   66.9910 C   0  0  0  0  0  3  0  0  0  0  0  0
   22.7620   34.4560   67.8070 C   0  0  0  0  0  3  0  0  0  0  0  0
   20.4730   38.1130   68.7840 H   0  0  0  0  0  0  0  0  0  0  0  0
   18.1030   36.8830   70.7320 C   0  0  0  0  0  2  0  0  0  0  0  0
   16.9760   37.2100   69.7860 C   0  0  0  0  0  2  0  0  0  0  0  0
   15.9170   36.2110   69.6430 C   0  0  0  0  0  2  0  0  0  0  0  0
   14.7280   36.3170   70.4360 N   0  0  0  0  0  4  0  0  0  0  0  0
   13.5260   36.4040   69.6270 C   0  0  0  0  0  3  0  0  0  0  0  0
   12.9040   35.1280   69.2440 C   0  0  0  0  0  3  0  0  0  0  0  0
   13.3980   33.9100   69.9320 C   0  0  0  0  0  2  0  0  0  0  0  0
   13.7950   34.2060   71.3350 C   0  0  0  0  0  3  0  0  0  0  0  0
   14.6420   35.4090   71.5240 C   0  0  0  0  0  3  0  0  0  0  0  0
   14.7780   37.2740   70.8520 H   0  0  0  0  0  0  0  0  0  0  0  0
   18.0940   33.7230   71.3220 C   0  0  0  0  0  0  0  0  0  0  0  0
   17.4060   32.7010   70.6700 C   0  0  0  0  0  3  0  0  0  0  0  0
   16.5340   31.8380   71.3040 C   0  0  0  0  0  3  0  0  0  0  0  0
   16.3030   31.9560   72.6430 C   0  0  0  0  0  0  0  0  0  0  0  0
   15.1150   30.7950   73.5590 Br  0  0  0  0  0  0  0  0  0  0  0  0
   16.9640   32.9490   73.3130 C   0  0  0  0  0  3  0  0  0  0  0  0
   17.8560   33.8320   72.6570 C   0  0  0  0  0  3  0  0  0  0  0  0
  1 24  1  0  0  0  0
  2  1  2  0  0  0  0
  3  7  1  0  0  0  0
  3  2  1  0  0  0  0
  4  3  1  0  0  0  0
  5  4  1  0  0  0  0
  5  6  1  0  0  0  0
  7  6  1  6  0  0  0
  7  8  1  0  0  0  0
  8  1  1  0  0  0  0
  8 14  1  0  0  0  0
  9  5  2  0  0  0  0
 10 11  2  0  0  0  0
 10  9  1  0  0  0  0
 11 12  1  0  0  0  0
 12  4  2  0  0  0  0
 13  6  1  0  0  0  0
 15 14  1  0  0  0  0
 16 15  1  0  0  0  0
 16 17  1  0  0  0  0
 17 23  1  0  0  0  0
 17 22  1  0  0  0  0
 18 17  1  0  0  0  0
 19 18  2  0  0  0  0
 19 20  1  0  0  0  0
 20 21  1  0  0  0  0
 21 22  2  0  0  0  0
 24 30  1  0  0  0  0
 25 26  1  0  0  0  0
 25 24  2  0  0  0  0
 26 27  2  0  0  0  0
 27 29  1  0  0  0  0
 27 28  1  0  0  0  0
 30 29  2  0  0  0  0
M  END
>  <Pose>
1

>  <Score>
-8.364

$$$$
