/Users/jonathanwahrer/Desktop/Msc/3_Semester/Drug_Design_Praktikum/waehrer_HTS_screening/HTS_experiment/out/docking_results/vina_output/4x21/2440_docked.pdbqt
 OpenBabel03212203103D

 33 36  0  0  1  0  0  0  0  0999 V2000
   15.1640   29.6550   74.5950 Cl  0  0  0  0  0  0  0  0  0  0  0  0
   14.8950   30.5960   73.1310 C   0  0  0  0  0  0  0  0  0  0  0  0
   15.7300   31.7030   72.9190 C   0  0  0  0  0  0  0  0  0  0  0  0
   15.5170   32.4310   71.7800 C   0  0  0  0  0  0  0  0  0  0  0  0
   14.5040   32.0830   70.8620 C   0  0  0  0  0  3  0  0  0  0  0  0
   13.6940   30.9980   71.0810 C   0  0  0  0  0  3  0  0  0  0  0  0
   13.9120   30.2680   72.2290 C   0  0  0  0  0  3  0  0  0  0  0  0
   16.5000   33.5230   71.7550 C   0  0  2  0  0  0  0  0  0  0  0  0
   15.9440   34.8150   71.5640 N   0  0  0  0  0  0  0  0  0  0  0  0
   16.8400   35.6710   70.9200 C   0  0  1  0  0  3  0  0  0  0  0  0
   17.8730   34.7600   70.2940 C   0  0  2  0  0  3  0  0  0  0  0  0
   17.4630   33.3530   70.5810 C   0  0  1  0  0  3  0  0  0  0  0  0
   18.6850   32.5970   70.9630 C   0  0  0  0  0  0  0  0  0  0  0  0
   18.7090   31.3610   71.1670 O   0  0  0  0  0  0  0  0  0  0  0  0
   19.7670   33.5260   71.0430 N   0  0  0  0  0  0  0  0  0  0  0  0
   19.1920   34.8380   70.9600 C   0  0  0  0  0  0  0  0  0  0  0  0
   19.7340   35.8690   71.3870 O   0  0  0  0  0  0  0  0  0  0  0  0
   17.2680   33.3850   72.9950 C   0  0  0  0  0  0  0  0  0  0  0  0
   18.2110   34.1140   73.4360 O   0  0  0  0  0  0  0  0  0  0  0  0
   16.7910   32.2490   73.6920 N   0  0  0  0  0  0  0  0  0  0  0  0
   15.3940   35.1940   72.3530 H   0  0  0  0  0  0  0  0  0  0  0  0
   17.1230   31.8490   74.6010 H   0  0  0  0  0  0  0  0  0  0  0  0
   16.3210   36.6950   69.9880 C   0  0  0  0  0  2  0  0  0  0  0  0
   17.1670   37.8670   69.6890 C   0  0  0  0  0  2  0  0  0  0  0  0
   17.7800   37.9400   68.3590 C   0  0  0  0  0  0  0  0  0  0  0  0
   18.9820   37.6590   68.1990 O   0  0  0  0  0  0  0  0  0  0  0  0
   17.0550   38.3260   67.1940 N   0  0  0  0  0  0  0  0  0  0  0  0
   16.3040   37.7520   66.7720 H   0  0  0  0  0  0  0  0  0  0  0  0
   17.2880   39.2260   66.7420 H   0  0  0  0  0  0  0  0  0  0  0  0
   21.1640   33.2440   71.1740 C   0  0  0  0  0  2  0  0  0  0  0  0
   21.8930   32.9540   69.9120 C   0  0  0  0  0  2  0  0  0  0  0  0
   22.4000   34.1270   69.1510 C   0  0  0  0  0  2  0  0  0  0  0  0
   21.4250   34.5610   68.0620 C   0  0  0  0  0  1  0  0  0  0  0  0
  2  1  1  0  0  0  0
  3  2  1  0  0  0  0
  3 20  1  0  0  0  0
  4  3  2  0  0  0  0
  5  6  2  0  0  0  0
  5  4  1  0  0  0  0
  6  7  1  0  0  0  0
  7  2  2  0  0  0  0
  8  4  1  6  0  0  0
  8 18  1  0  0  0  0
  9  8  1  0  0  0  0
  9 21  1  0  0  0  0
 10 23  1  6  0  0  0
 10  9  1  0  0  0  0
 11 12  1  0  0  0  0
 11 10  1  0  0  0  0
 11 16  1  1  0  0  0
 12 13  1  1  0  0  0
 12  8  1  0  0  0  0
 13 15  1  0  0  0  0
 13 14  2  0  0  0  0
 15 30  1  0  0  0  0
 16 15  1  0  0  0  0
 16 17  2  0  0  0  0
 18 19  2  0  0  0  0
 18 20  1  0  0  0  0
 20 22  1  0  0  0  0
 24 23  1  0  0  0  0
 25 24  1  0  0  0  0
 26 25  2  0  0  0  0
 27 25  1  0  0  0  0
 28 27  1  0  0  0  0
 29 27  1  0  0  0  0
 31 30  1  0  0  0  0
 32 31  1  0  0  0  0
 33 32  1  0  0  0  0
M  END
>  <Pose>
1

>  <Score>
-8.353

$$$$
