/Users/jonathanwahrer/Desktop/Msc/3_Semester/Drug_Design_Praktikum/waehrer_HTS_screening/HTS_experiment/out/docking_results/vina_output/5l4q/0002_docked.pdbqt
 OpenBabel03212217363D

 38 41  0  0  0  0  0  0  0  0999 V2000
  -22.1210   -1.5030  -35.1400 C   0  0  0  0  0  0  0  0  0  0  0  0
  -23.1650   -2.2660  -35.6170 N   0  0  0  0  0  0  0  0  0  0  0  0
  -23.4770   -1.8210  -36.7910 N   0  0  0  0  0  0  0  0  0  0  0  0
  -22.6630   -0.7760  -37.1080 N   0  0  0  0  0  0  0  0  0  0  0  0
  -21.8130   -0.5550  -36.1070 C   0  0  0  0  0  0  0  0  0  0  0  0
  -21.5150   -1.7340  -33.8510 C   0  0  0  0  0  0  0  0  0  0  0  0
  -20.8440   -0.8540  -32.9930 N   0  0  0  0  0  0  0  0  0  0  0  0
  -20.6870    0.1250  -33.1640 H   0  0  0  0  0  0  0  0  0  0  0  0
  -21.6180   -2.9640  -33.4250 O   0  0  0  0  0  0  0  0  0  0  0  0
  -20.3520   -1.4110  -31.7630 N   0  0  0  0  0  0  0  0  0  0  0  0
  -20.6460   -0.8690  -30.6420 C   0  0  0  0  0  3  0  0  0  0  0  0
  -20.1680   -1.4010  -29.3590 C   0  0  0  0  0  0  0  0  0  0  0  0
  -19.5530   -0.6090  -28.4120 C   0  0  0  0  0  3  0  0  0  0  0  0
  -19.1050   -1.1180  -27.2040 C   0  0  0  0  0  0  0  0  0  0  0  0
  -19.2620   -2.4540  -26.9050 C   0  0  0  0  0  0  0  0  0  0  0  0
  -18.2530   -0.0180  -25.8920 Br  0  0  0  0  0  0  0  0  0  0  0  0
  -19.8780   -3.2510  -27.8510 C   0  0  0  0  0  0  0  0  0  0  0  0
  -18.8230   -3.0020  -25.6990 O   0  0  0  0  0  1  0  0  0  0  0  0
  -20.1100   -5.1170  -27.4630 Br  0  0  0  0  0  0  0  0  0  0  0  0
  -20.3220   -2.7370  -29.0530 C   0  0  0  0  0  0  0  0  0  0  0  0
  -20.9500   -3.5420  -30.0210 O   0  0  0  0  0  0  0  0  0  0  0  0
  -20.4040   -3.9150  -30.7820 H   0  0  0  0  0  0  0  0  0  0  0  0
  -20.7580    0.4520  -35.9990 C   0  0  0  0  0  2  0  0  0  0  0  0
  -19.4150    0.0920  -36.2550 N   0  0  0  0  0  4  0  0  0  0  0  0
  -18.4490    1.0240  -35.6910 C   0  0  0  0  0  2  0  0  0  0  0  0
  -18.7510    2.4140  -36.0850 C   0  0  0  0  0  2  0  0  0  0  0  0
  -19.2980    2.6820  -37.2730 O   0  0  0  0  0  0  0  0  0  0  0  0
  -19.6320    1.6630  -38.1050 C   0  0  0  0  0  2  0  0  0  0  0  0
  -19.1950    0.3080  -37.7230 C   0  0  0  0  0  2  0  0  0  0  0  0
  -19.2090   -0.8730  -36.0420 H   0  0  0  0  0  0  0  0  0  0  0  0
  -22.8280   -0.1110  -38.3630 C   0  0  0  0  0  0  0  0  0  0  0  0
  -23.4330    1.0230  -38.6930 N   0  0  0  0  0  0  0  0  0  0  0  0
  -23.2670    1.1990  -39.9630 O   0  0  0  0  0  0  0  0  0  0  0  0
  -22.5810    0.2380  -40.4970 N   0  0  0  0  0  0  0  0  0  0  0  0
  -22.2680   -0.6280  -39.5420 C   0  0  0  0  0  0  0  0  0  0  0  0
  -21.5300   -1.8360  -39.6270 N   0  0  0  0  0  0  0  0  0  0  0  0
  -21.8530   -2.6720  -39.0970 H   0  0  0  0  0  0  0  0  0  0  0  0
  -20.6510   -1.9280  -40.2140 H   0  0  0  0  0  0  0  0  0  0  0  0
  1  6  1  0  0  0  0
  2  1  1  0  0  0  0
  3  2  2  0  0  0  0
  4  3  1  0  0  0  0
  4  5  1  0  0  0  0
  5 23  1  0  0  0  0
  5  1  2  0  0  0  0
  6  9  2  0  0  0  0
  6  7  1  0  0  0  0
  7 10  1  0  0  0  0
  8  7  1  0  0  0  0
 10 11  2  0  0  0  0
 11 12  1  0  0  0  0
 12 20  2  0  0  0  0
 12 13  1  0  0  0  0
 13 14  2  0  0  0  0
 14 15  1  0  0  0  0
 14 16  1  0  0  0  0
 15 18  1  0  0  0  0
 17 19  1  0  0  0  0
 17 15  2  0  0  0  0
 20 17  1  0  0  0  0
 21 20  1  0  0  0  0
 22 21  1  0  0  0  0
 24 30  1  0  0  0  0
 24 23  1  0  0  0  0
 24 25  1  0  0  0  0
 26 25  1  0  0  0  0
 27 26  1  0  0  0  0
 28 29  1  0  0  0  0
 28 27  1  0  0  0  0
 29 24  1  0  0  0  0
 31  4  1  0  0  0  0
 32 31  2  0  0  0  0
 33 32  1  0  0  0  0
 34 33  1  0  0  0  0
 34 35  2  0  0  0  0
 35 31  1  0  0  0  0
 36 35  1  0  0  0  0
 36 37  1  0  0  0  0
 38 36  1  0  0  0  0
M  END
>  <Pose>
1

>  <Score>
-9.248

$$$$
