/Users/jonathanwahrer/Desktop/Msc/3_Semester/Drug_Design_Praktikum/waehrer_HTS_screening/HTS_experiment/out/docking_results/vina_output/5l4q/0004_docked.pdbqt
 OpenBabel03212217373D

 34 37  0  0  0  0  0  0  0  0999 V2000
  -18.8710    0.7650  -33.3540 C   0  0  0  0  0  0  0  0  0  0  0  0
  -20.0850    0.6330  -33.8840 N   0  0  0  0  0  4  0  0  0  0  0  0
  -20.8560    1.7040  -34.2330 C   0  0  0  0  0  0  0  0  0  0  0  0
  -20.3250    2.9040  -34.0130 N   0  0  0  0  0  0  0  0  0  0  0  0
  -19.1020    3.1280  -33.4810 C   0  0  0  0  0  0  0  0  0  0  0  0
  -18.3980    2.0020  -33.1600 N   0  0  0  0  0  2  0  0  0  0  0  0
  -18.0990   -0.3760  -33.0030 N   0  0  0  0  0  0  0  0  0  0  0  0
  -17.5110   -0.9000  -33.6600 H   0  0  0  0  0  0  0  0  0  0  0  0
  -18.1240   -0.8390  -31.6730 N   0  0  0  0  0  0  0  0  0  0  0  0
  -19.2020   -1.0940  -31.0440 C   0  0  0  0  0  3  0  0  0  0  0  0
  -19.2540   -1.5710  -29.6720 C   0  0  0  0  0  0  0  0  0  0  0  0
  -19.7320   -2.8320  -29.4020 C   0  0  0  0  0  3  0  0  0  0  0  0
  -19.7910   -3.3110  -28.1060 C   0  0  0  0  0  0  0  0  0  0  0  0
  -19.3770   -2.5460  -27.0370 C   0  0  0  0  0  0  0  0  0  0  0  0
  -20.4610   -5.0710  -27.7570 Br  0  0  0  0  0  0  0  0  0  0  0  0
  -18.8940   -1.2780  -27.2980 C   0  0  0  0  0  0  0  0  0  0  0  0
  -18.3210   -0.2240  -25.8120 Br  0  0  0  0  0  0  0  0  0  0  0  0
  -18.8390   -0.8070  -28.6010 C   0  0  0  0  0  0  0  0  0  0  0  0
  -19.4290   -3.0120  -25.7250 O   0  0  0  0  0  0  0  0  0  0  0  0
  -18.8050   -2.6250  -25.0370 H   0  0  0  0  0  0  0  0  0  0  0  0
  -18.3580    0.4570  -28.8470 O   0  0  0  0  0  0  0  0  0  0  0  0
  -18.1890    0.7760  -29.8050 H   0  0  0  0  0  0  0  0  0  0  0  0
  -22.1400    1.5420  -34.7940 N   0  0  0  0  0  0  0  0  0  0  0  0
  -23.2790    1.3220  -33.9470 C   0  0  0  0  0  2  0  0  0  0  0  0
  -24.0650    0.1630  -34.5400 C   0  0  0  0  0  2  0  0  0  0  0  0
  -24.2450    0.3040  -35.9110 O   0  0  0  0  0  0  0  0  0  0  0  0
  -23.0660    0.3250  -36.6200 C   0  0  0  0  0  2  0  0  0  0  0  0
  -22.3110    1.5990  -36.2180 C   0  0  0  0  0  2  0  0  0  0  0  0
  -18.5820    4.4170  -33.2670 N   0  0  0  0  0  0  0  0  0  0  0  0
  -17.3770    4.8370  -33.9110 C   0  0  0  0  0  2  0  0  0  0  0  0
  -16.4540    5.3950  -32.8240 C   0  0  0  0  0  2  0  0  0  0  0  0
  -17.0000    5.2630  -31.5650 O   0  0  0  0  0  0  0  0  0  0  0  0
  -18.2250    5.8640  -31.4100 C   0  0  0  0  0  2  0  0  0  0  0  0
  -19.2570    5.3300  -32.3960 C   0  0  0  0  0  2  0  0  0  0  0  0
  1  6  1  0  0  0  0
  1  7  1  0  0  0  0
  2  1  2  0  0  0  0
  3  4  1  0  0  0  0
  3  2  2  0  0  0  0
  4  5  2  0  0  0  0
  5 29  1  0  0  0  0
  5  6  1  0  0  0  0
  7  9  1  0  0  0  0
  8  7  1  0  0  0  0
  9 10  2  0  0  0  0
 10 11  1  0  0  0  0
 11 12  2  0  0  0  0
 11 18  1  0  0  0  0
 12 13  1  0  0  0  0
 13 15  1  0  0  0  0
 13 14  2  0  0  0  0
 14 19  1  0  0  0  0
 16 14  1  0  0  0  0
 16 17  1  0  0  0  0
 18 16  2  0  0  0  0
 19 20  1  0  0  0  0
 21 18  1  0  0  0  0
 22 21  1  0  0  0  0
 23  3  1  0  0  0  0
 23 24  1  0  0  0  0
 25 24  1  0  0  0  0
 26 25  1  0  0  0  0
 27 28  1  0  0  0  0
 27 26  1  0  0  0  0
 28 23  1  0  0  0  0
 29 34  1  0  0  0  0
 30 29  1  0  0  0  0
 30 31  1  0  0  0  0
 31 32  1  0  0  0  0
 32 33  1  0  0  0  0
 34 33  1  0  0  0  0
M  END
>  <Pose>
1

>  <Score>
-8.776

$$$$
