/Users/jonathanwahrer/Desktop/Msc/3_Semester/Drug_Design_Praktikum/waehrer_HTS_screening/HTS_experiment/out/docking_results/vina_output/5l4q/0005_docked.pdbqt
 OpenBabel03212217383D

 38 41  0  0  1  0  0  0  0  0999 V2000
  -21.6520    0.2230  -36.9190 N   0  0  0  0  0  0  0  0  0  0  0  0
  -22.2230   -0.6030  -37.8350 C   0  0  0  0  0  0  0  0  0  0  0  0
  -21.7850   -0.2670  -39.0880 C   0  0  0  0  0  0  0  0  0  0  0  0
  -20.9610    0.7440  -38.9100 N   0  0  0  0  0  0  0  0  0  0  0  0
  -20.8520    1.0700  -37.5930 C   0  0  0  0  0  0  0  0  0  0  0  0
  -22.1580   -0.9140  -40.2360 N   0  0  0  0  0  0  0  0  0  0  0  0
  -23.0060   -1.9400  -40.0950 C   0  0  0  0  0  0  0  0  0  0  0  0
  -23.3490   -2.5350  -41.1560 O   0  0  0  0  0  0  0  0  0  0  0  0
  -23.4630   -2.3130  -38.8840 N   0  0  0  0  0  2  0  0  0  0  0  0
  -23.1060   -1.6870  -37.7500 C   0  0  0  0  0  0  0  0  0  0  0  0
  -23.5830   -2.0920  -36.5250 O   0  0  0  0  0  0  0  0  0  0  0  0
  -21.6350   -0.4630  -41.5180 C   0  0  0  0  0  1  0  0  0  0  0  0
  -21.8660    0.1800  -35.5160 C   0  0  0  0  0  2  0  0  0  0  0  0
  -21.0600   -0.6390  -34.6260 C   0  0  1  0  0  3  0  0  0  0  0  0
  -21.5780   -1.6290  -33.6710 C   0  0  0  0  0  2  0  0  0  0  0  0
  -20.5040   -2.2830  -32.9980 O   0  0  0  0  0  0  0  0  0  0  0  0
  -20.3840   -2.4670  -31.6650 C   0  0  0  0  0  0  0  0  0  0  0  0
  -19.4870   -1.6640  -30.9430 C   0  0  0  0  0  0  0  0  0  0  0  0
  -18.4920   -0.3500  -31.9150 Br  0  0  0  0  0  0  0  0  0  0  0  0
  -19.3240   -1.8070  -29.5890 C   0  0  0  0  0  3  0  0  0  0  0  0
  -20.0440   -2.7550  -28.8930 C   0  0  0  0  0  0  0  0  0  0  0  0
  -20.9290   -3.5540  -29.5790 C   0  0  0  0  0  3  0  0  0  0  0  0
  -19.7510   -2.8820  -27.0150 Br  0  0  0  0  0  0  0  0  0  0  0  0
  -21.0820   -3.3940  -30.9610 C   0  0  0  0  0  0  0  0  0  0  0  0
  -22.3010   -4.5460  -31.8180 Br  0  0  0  0  0  0  0  0  0  0  0  0
  -19.8400   -1.1520  -35.1000 O   0  0  0  0  0  0  0  0  0  0  0  0
  -19.8300   -2.1260  -35.1070 H   0  0  0  0  0  0  0  0  0  0  0  0
  -19.9220    2.0650  -37.1250 N   0  0  0  0  0  0  0  0  0  0  0  0
  -18.6420    1.8550  -36.5680 C   0  0  0  0  0  2  0  0  0  0  0  0
  -18.0050    3.2480  -36.3120 C   0  0  0  0  0  2  0  0  0  0  0  0
  -18.8790    3.8780  -35.3410 N   0  0  0  0  0  4  0  0  0  0  0  0
  -19.9970    4.3690  -36.1670 C   0  0  0  0  0  2  0  0  0  0  0  0
  -19.3050    3.2100  -34.6640 H   0  0  0  0  0  0  0  0  0  0  0  0
  -20.3350    3.4660  -37.2850 C   0  0  0  0  0  2  0  0  0  0  0  0
  -18.2310    4.9950  -34.6840 C   0  0  0  0  0  2  0  0  0  0  0  0
  -17.6950    4.5310  -33.3480 C   0  0  0  0  0  2  0  0  0  0  0  0
  -18.4000    3.3910  -32.9430 O   0  0  0  0  0  0  0  0  0  0  0  0
  -18.0730    2.5830  -33.4270 H   0  0  0  0  0  0  0  0  0  0  0  0
  1 13  1  0  0  0  0
  2 10  1  0  0  0  0
  2  1  1  0  0  0  0
  3  4  1  0  0  0  0
  3  2  2  0  0  0  0
  4  5  2  0  0  0  0
  5 28  1  0  0  0  0
  5  1  1  0  0  0  0
  6  7  1  0  0  0  0
  6  3  1  0  0  0  0
  7  9  1  0  0  0  0
  8  7  2  0  0  0  0
  9 10  1  0  0  0  0
 10 11  2  0  0  0  0
 12  6  1  0  0  0  0
 14 13  1  6  0  0  0
 14 15  1  0  0  0  0
 15 16  1  0  0  0  0
 16 17  1  0  0  0  0
 17 24  2  0  0  0  0
 17 18  1  0  0  0  0
 18 20  2  0  0  0  0
 19 18  1  0  0  0  0
 20 21  1  0  0  0  0
 21 23  1  0  0  0  0
 22 21  2  0  0  0  0
 24 22  1  0  0  0  0
 25 24  1  0  0  0  0
 26 14  1  0  0  0  0
 27 26  1  0  0  0  0
 28 29  1  0  0  0  0
 29 30  1  0  0  0  0
 30 31  1  0  0  0  0
 31 35  1  0  0  0  0
 31 33  1  0  0  0  0
 32 31  1  0  0  0  0
 34 28  1  0  0  0  0
 34 32  1  0  0  0  0
 35 36  1  0  0  0  0
 36 37  1  0  0  0  0
 38 37  1  0  0  0  0
M  END
>  <Pose>
1

>  <Score>
-8.490

$$$$
