/Users/jonathanwahrer/Desktop/Msc/3_Semester/Drug_Design_Praktikum/waehrer_HTS_screening/HTS_experiment/out/docking_results/vina_output/5l4q/0011_docked.pdbqt
 OpenBabel03212217393D

 36 39  0  0  0  0  0  0  0  0999 V2000
  -22.9780   -0.2040  -36.0440 N   0  0  0  0  0  0  0  0  0  0  0  0
  -22.5170    1.0900  -35.8510 C   0  0  0  0  0  0  0  0  0  0  0  0
  -22.0810    1.5360  -37.0420 C   0  0  0  0  0  0  0  0  0  0  0  0
  -22.2720    0.5590  -37.9150 N   0  0  0  0  0  0  0  0  0  0  0  0
  -22.8370   -0.5470  -37.2960 C   0  0  0  0  0  0  0  0  0  0  0  0
  -21.5520    2.8050  -37.2200 C   0  0  0  0  0  3  0  0  0  0  0  0
  -21.4900    3.6030  -36.1030 C   0  0  0  0  0  3  0  0  0  0  0  0
  -21.9200    3.1940  -34.8550 C   0  0  0  0  0  3  0  0  0  0  0  0
  -22.4440    1.9090  -34.7350 C   0  0  0  0  0  3  0  0  0  0  0  0
  -23.5220   -0.9180  -34.9640 C   0  0  0  0  0  2  0  0  0  0  0  0
  -22.5280   -1.9530  -34.3910 C   0  0  0  0  0  0  0  0  0  0  0  0
  -21.7970   -1.4170  -33.3820 N   0  0  0  0  0  0  0  0  0  0  0  0
  -21.1640   -2.6640  -33.2400 H   0  0  0  0  0  0  0  0  0  0  0  0
  -22.5960   -3.0410  -34.9570 O   0  0  0  0  0  0  0  0  0  0  0  0
  -21.1310   -0.9320  -32.4640 N   0  0  0  0  0  2  0  0  0  0  0  0
  -20.5420   -0.5160  -31.5290 C   0  0  0  0  0  2  0  0  0  0  0  0
  -20.0920   -1.0760  -30.3010 C   0  0  0  0  0  0  0  0  0  0  0  0
  -19.3210   -0.3070  -29.4170 C   0  0  0  0  0  3  0  0  0  0  0  0
  -18.8510   -0.7340  -28.2090 C   0  0  0  0  0  0  0  0  0  0  0  0
  -19.1650   -2.0580  -27.8160 C   0  0  0  0  0  0  0  0  0  0  0  0
  -19.9180   -2.8480  -28.6560 C   0  0  0  0  0  0  0  0  0  0  0  0
  -18.6960   -2.4780  -26.6050 O   0  0  0  0  0  1  0  0  0  0  0  0
  -20.3800   -4.6170  -28.1450 Br  0  0  0  0  0  0  0  0  0  0  0  0
  -20.3640   -2.3540  -29.8660 C   0  0  0  0  0  3  0  0  0  0  0  0
  -18.0960    0.0370  -27.3460 O   0  0  0  0  0  0  0  0  0  0  0  0
  -18.6560    0.8850  -26.4030 C   0  0  0  0  0  2  0  0  0  0  0  0
  -18.2130    0.6820  -24.9810 C   0  0  0  0  0  1  0  0  0  0  0  0
  -23.1160   -1.6870  -38.1500 C   0  0  0  0  0  0  0  0  0  0  0  0
  -24.2320   -2.5010  -37.9650 N   0  0  0  0  0  0  0  0  0  0  0  0
  -24.2700   -3.4140  -38.8490 O   0  0  0  0  0  0  0  0  0  0  0  0
  -23.2760   -3.3120  -39.6370 N   0  0  0  0  0  0  0  0  0  0  0  0
  -22.5240   -2.2330  -39.2310 C   0  0  0  0  0  0  0  0  0  0  0  0
  -21.3580   -1.8360  -39.9180 N   0  0  0  0  0  4  0  0  0  0  0  0
  -21.6360   -1.5880  -40.9410 H   0  0  0  0  0  0  0  0  0  0  0  0
  -20.7260   -2.6380  -40.0340 H   0  0  0  0  0  0  0  0  0  0  0  0
  -20.9960   -0.9520  -39.5700 H   0  0  0  0  0  0  0  0  0  0  0  0
  1  2  1  0  0  0  0
  1 10  1  0  0  0  0
  2  9  1  0  0  0  0
  3  2  2  0  0  0  0
  4  5  2  0  0  0  0
  4  3  1  0  0  0  0
  5  1  1  0  0  0  0
  6  3  1  0  0  0  0
  6  7  2  0  0  0  0
  7  8  1  0  0  0  0
  8  9  2  0  0  0  0
 10 11  1  0  0  0  0
 11 12  1  0  0  0  0
 12 13  1  0  0  0  0
 12 15  1  0  0  0  0
 14 11  2  0  0  0  0
 15 16  1  0  0  0  0
 16 17  1  0  0  0  0
 17 24  2  0  0  0  0
 17 18  1  0  0  0  0
 18 19  2  0  0  0  0
 19 20  1  0  0  0  0
 19 25  1  0  0  0  0
 20 22  1  0  0  0  0
 21 23  1  0  0  0  0
 21 20  2  0  0  0  0
 24 21  1  0  0  0  0
 25 26  1  0  0  0  0
 26 27  1  0  0  0  0
 28 29  2  0  0  0  0
 28  5  1  0  0  0  0
 30 29  1  0  0  0  0
 31 32  2  0  0  0  0
 31 30  1  0  0  0  0
 32 28  1  0  0  0  0
 33 36  1  0  0  0  0
 33 32  1  0  0  0  0
 34 33  1  0  0  0  0
 35 33  1  0  0  0  0
M  END
>  <Pose>
1

>  <Score>
-9.015

$$$$
