/Users/jonathanwahrer/Desktop/Msc/3_Semester/Drug_Design_Praktikum/waehrer_HTS_screening/HTS_experiment/out/docking_results/vina_output/5l4q/0020_docked.pdbqt
 OpenBabel03212217403D

 34 37  0  0  0  0  0  0  0  0999 V2000
  -18.6100    0.6210  -33.3810 C   0  0  0  0  0  0  0  0  0  0  0  0
  -18.4800    1.9280  -33.2550 N   0  0  0  0  0  4  0  0  0  0  0  0
  -19.4090    2.7790  -33.7780 C   0  0  0  0  0  0  0  0  0  0  0  0
  -20.4490    2.1950  -34.4190 N   0  0  0  0  0  0  0  0  0  0  0  0
  -20.6330    0.8710  -34.5800 C   0  0  0  0  0  0  0  0  0  0  0  0
  -19.6730    0.0860  -34.0410 N   0  0  0  0  0  2  0  0  0  0  0  0
  -17.7730   -0.3740  -32.6710 N   0  0  0  0  0  0  0  0  0  0  0  0
  -17.0310   -0.7740  -33.2110 H   0  0  0  0  0  0  0  0  0  0  0  0
  -18.1890   -0.5090  -31.4370 N   0  0  0  0  0  2  0  0  0  0  0  0
  -18.5770   -0.6320  -30.3500 C   0  0  0  0  0  2  0  0  0  0  0  0
  -19.2790   -1.7640  -29.7110 C   0  0  0  0  0  0  0  0  0  0  0  0
  -19.8940   -2.7800  -30.3830 C   0  0  0  0  0  3  0  0  0  0  0  0
  -20.3380   -3.9130  -29.7160 C   0  0  0  0  0  0  0  0  0  0  0  0
  -20.1660   -4.0260  -28.3380 C   0  0  0  0  0  0  0  0  0  0  0  0
  -19.5600   -3.0100  -27.6520 C   0  0  0  0  0  0  0  0  0  0  0  0
  -19.3000   -3.1730  -25.7580 Br  0  0  0  0  0  0  0  0  0  0  0  0
  -19.1280   -1.9030  -28.3500 C   0  0  0  0  0  3  0  0  0  0  0  0
  -20.9570   -4.9650  -30.3170 O   0  0  0  0  0  0  0  0  0  0  0  0
  -21.1690   -5.2160  -31.6600 C   0  0  0  0  0  2  0  0  0  0  0  0
  -22.4880   -4.6510  -32.1660 C   0  0  0  0  0  1  0  0  0  0  0  0
  -20.5860   -5.1340  -27.6330 O   0  0  0  0  0  0  0  0  0  0  0  0
  -20.2230   -5.4030  -26.7500 H   0  0  0  0  0  0  0  0  0  0  0  0
  -19.3530    4.1800  -33.5910 N   0  0  0  0  0  0  0  0  0  0  0  0
  -18.1780    4.7780  -32.9360 C   0  0  0  0  0  2  0  0  0  0  0  0
  -18.7640    5.7650  -31.8940 C   0  0  0  0  0  2  0  0  0  0  0  0
  -19.3410    6.7490  -32.6440 O   0  0  0  0  0  0  0  0  0  0  0  0
  -20.4660    6.3530  -33.3110 C   0  0  0  0  0  2  0  0  0  0  0  0
  -20.4160    5.0220  -33.9850 C   0  0  0  0  0  2  0  0  0  0  0  0
  -21.7950    0.3430  -35.1150 N   0  0  0  0  0  0  0  0  0  0  0  0
  -22.9810    0.9900  -35.5250 C   0  0  0  0  0  2  0  0  0  0  0  0
  -24.1050    0.4440  -34.6390 C   0  0  0  0  0  2  0  0  0  0  0  0
  -24.1020   -0.9280  -34.7590 O   0  0  0  0  0  0  0  0  0  0  0  0
  -22.9510   -1.5600  -34.3480 C   0  0  0  0  0  2  0  0  0  0  0  0
  -21.7870   -1.1400  -35.2920 C   0  0  0  0  0  2  0  0  0  0  0  0
  1  2  2  0  0  0  0
  1  7  1  0  0  0  0
  3 23  1  0  0  0  0
  3  2  2  0  0  0  0
  4  3  1  0  0  0  0
  5  4  2  0  0  0  0
  5  6  1  0  0  0  0
  6  1  1  0  0  0  0
  7  9  1  0  0  0  0
  8  7  1  0  0  0  0
  9 10  1  0  0  0  0
 10 11  1  0  0  0  0
 11 17  1  0  0  0  0
 12 13  1  0  0  0  0
 12 11  2  0  0  0  0
 13 14  2  0  0  0  0
 14 15  1  0  0  0  0
 14 21  1  0  0  0  0
 15 16  1  0  0  0  0
 17 15  2  0  0  0  0
 18 13  1  0  0  0  0
 19 18  1  0  0  0  0
 20 19  1  0  0  0  0
 21 22  1  0  0  0  0
 23 24  1  0  0  0  0
 24 25  1  0  0  0  0
 26 25  1  0  0  0  0
 27 26  1  0  0  0  0
 28 23  1  0  0  0  0
 28 27  1  0  0  0  0
 29  5  1  0  0  0  0
 30 29  1  0  0  0  0
 30 31  1  0  0  0  0
 32 31  1  0  0  0  0
 32 33  1  0  0  0  0
 34 29  1  0  0  0  0
 34 33  1  0  0  0  0
M  END
>  <Pose>
1

>  <Score>
-8.056

$$$$
