/Users/jonathanwahrer/Desktop/Msc/3_Semester/Drug_Design_Praktikum/waehrer_HTS_screening/HTS_experiment/out/docking_results/vina_output/5l4q/0031_docked.pdbqt
 OpenBabel03212217413D

 24 27  0  0  1  0  0  0  0  0999 V2000
  -20.4570   -4.9290  -28.0120 Br  0  0  0  0  0  0  0  0  0  0  0  0
  -20.0290   -3.1520  -28.6050 C   0  0  0  0  0  0  0  0  0  0  0  0
  -20.0380   -2.8300  -29.9160 C   0  0  0  0  0  0  0  0  0  0  0  0
  -19.6570   -1.5260  -30.3470 C   0  0  0  0  0  0  0  0  0  0  0  0
  -19.2820   -0.6350  -29.4020 C   0  0  0  0  0  3  0  0  0  0  0  0
  -19.2690   -0.9890  -28.0670 C   0  0  0  0  0  3  0  0  0  0  0  0
  -19.6390   -2.2330  -27.6560 C   0  0  0  0  0  3  0  0  0  0  0  0
  -19.3340   -1.4640  -31.7860 C   0  0  0  0  0  2  0  0  0  0  0  0
  -20.1730   -0.8070  -32.7020 N   0  0  2  0  0  4  0  0  0  0  0  0
  -21.3800   -0.2600  -32.3310 C   0  0  0  0  0  2  0  0  0  0  0  0
  -22.0060    0.4850  -33.4200 N   0  0  2  0  0  0  0  0  0  0  0  0
  -22.1890   -0.4350  -34.5310 C   0  0  0  0  0  2  0  0  0  0  0  0
  -21.1990    1.5770  -33.9060 C   0  0  0  0  0  2  0  0  0  0  0  0
  -20.9460   -1.0620  -34.9310 N   0  0  2  0  0  0  0  0  0  0  0  0
  -20.2850   -1.7310  -33.8820 C   0  0  0  0  0  2  0  0  0  0  0  0
  -20.0870   -0.0370  -35.4880 C   0  0  0  0  0  2  0  0  0  0  0  0
  -19.8810    0.9810  -34.3950 C   0  0  2  0  0  3  0  0  0  0  0  0
  -19.2800    0.2810  -33.2330 C   0  0  0  0  0  2  0  0  0  0  0  0
  -20.4050   -3.7260  -30.8550 O   0  0  0  0  0  0  0  0  0  0  0  0
  -21.7760   -4.0160  -31.1950 C   0  0  0  0  0  2  0  0  0  0  0  0
  -22.0190   -4.7230  -32.4490 C   0  0  0  0  0  0  0  0  0  0  0  0
  -22.3640   -4.2000  -33.4990 O   0  0  0  0  0  0  0  0  0  0  0  0
  -21.8090   -6.1070  -32.4560 O   0  0  0  0  0  0  0  0  0  0  0  0
  -22.6820   -7.0120  -33.0770 C   0  0  0  0  0  1  0  0  0  0  0  0
  2  1  1  0  0  0  0
  2  7  1  0  0  0  0
  3  2  2  0  0  0  0
  4  3  1  0  0  0  0
  4  5  2  0  0  0  0
  5  6  1  0  0  0  0
  6  7  2  0  0  0  0
  8  4  1  0  0  0  0
  9 10  1  0  0  0  0
  9  8  1  1  0  0  0
 11 12  1  6  0  0  0
 11 10  1  0  0  0  0
 13 11  1  0  0  0  0
 14 16  1  1  0  0  0
 14 12  1  0  0  0  0
 14 15  1  0  0  0  0
 15  9  1  0  0  0  0
 17 16  1  6  0  0  0
 17 13  1  0  0  0  0
 17 18  1  0  0  0  0
 18  9  1  0  0  0  0
 19  3  1  0  0  0  0
 20 19  1  0  0  0  0
 21 20  1  0  0  0  0
 22 21  2  0  0  0  0
 23 21  1  0  0  0  0
 24 23  1  0  0  0  0
M  END
>  <Pose>
1

>  <Score>
-7.190

$$$$
