/Users/jonathanwahrer/Desktop/Msc/3_Semester/Drug_Design_Praktikum/waehrer_HTS_screening/HTS_experiment/out/docking_results/vina_output/5l4q/0033_docked.pdbqt
 OpenBabel03212217413D

 33 36  0  0  0  0  0  0  0  0999 V2000
  -18.9630    0.1530  -33.0500 C   0  0  0  0  0  0  0  0  0  0  0  0
  -18.6730    1.4410  -33.1350 N   0  0  0  0  0  4  0  0  0  0  0  0
  -19.4980    2.3720  -33.6470 C   0  0  0  0  0  0  0  0  0  0  0  0
  -20.6960    1.9370  -34.0950 N   0  0  0  0  0  0  0  0  0  0  0  0
  -21.0520    0.6260  -34.0340 C   0  0  0  0  0  0  0  0  0  0  0  0
  -20.1670   -0.2540  -33.5040 N   0  0  0  0  0  2  0  0  0  0  0  0
  -18.0120   -0.7640  -32.5220 N   0  0  0  0  0  0  0  0  0  0  0  0
  -17.2540   -1.1060  -33.1240 H   0  0  0  0  0  0  0  0  0  0  0  0
  -18.1040   -1.1950  -31.2100 N   0  0  0  0  0  0  0  0  0  0  0  0
  -18.9120   -0.6960  -30.3390 C   0  0  0  0  0  3  0  0  0  0  0  0
  -18.9690   -1.1800  -28.9750 C   0  0  0  0  0  0  0  0  0  0  0  0
  -19.4580   -2.4580  -28.7090 C   0  0  0  0  0  0  0  0  0  0  0  0
  -19.5570   -2.9650  -27.4400 C   0  0  0  0  0  3  0  0  0  0  0  0
  -19.1670   -2.2240  -26.3410 C   0  0  0  0  0  0  0  0  0  0  0  0
  -18.6750   -0.9510  -26.5800 C   0  0  0  0  0  0  0  0  0  0  0  0
  -18.1220    0.0930  -25.0910 Br  0  0  0  0  0  0  0  0  0  0  0  0
  -18.5840   -0.4560  -27.8670 C   0  0  0  0  0  3  0  0  0  0  0  0
  -19.8540   -3.2150  -29.8180 O   0  0  0  0  0  0  0  0  0  0  0  0
  -19.4170   -4.1200  -29.9620 H   0  0  0  0  0  0  0  0  0  0  0  0
  -19.2700   -2.7500  -25.0550 O   0  0  0  0  0  0  0  0  0  0  0  0
  -19.5410   -3.7020  -24.8590 H   0  0  0  0  0  0  0  0  0  0  0  0
  -19.1370    3.7610  -33.7230 N   0  0  0  0  0  0  0  0  0  0  0  0
  -20.1290    4.7820  -33.9010 C   0  0  0  0  0  2  0  0  0  0  0  0
  -19.6850    6.1800  -33.7120 C   0  0  0  0  0  2  0  0  0  0  0  0
  -18.3090    6.3590  -33.7480 O   0  0  0  0  0  0  0  0  0  0  0  0
  -17.6420    5.4500  -32.9380 C   0  0  0  0  0  2  0  0  0  0  0  0
  -17.7490    4.1050  -33.6150 C   0  0  0  0  0  2  0  0  0  0  0  0
  -22.2990    0.1850  -34.5200 N   0  0  0  0  0  0  0  0  0  0  0  0
  -23.1930    1.0770  -35.2120 C   0  0  0  0  0  2  0  0  0  0  0  0
  -23.5270    0.3720  -36.5340 C   0  0  0  0  0  2  0  0  0  0  0  0
  -23.9820   -0.9020  -36.2600 O   0  0  0  0  0  0  0  0  0  0  0  0
  -22.9420   -1.7010  -35.7870 C   0  0  0  0  0  2  0  0  0  0  0  0
  -22.6940   -1.1910  -34.3510 C   0  0  0  0  0  2  0  0  0  0  0  0
  1  7  1  0  0  0  0
  2  1  2  0  0  0  0
  3  2  2  0  0  0  0
  4  5  2  0  0  0  0
  4  3  1  0  0  0  0
  5  6  1  0  0  0  0
  6  1  1  0  0  0  0
  7  9  1  0  0  0  0
  8  7  1  0  0  0  0
  9 10  2  0  0  0  0
 10 11  1  0  0  0  0
 11 12  2  0  0  0  0
 11 17  1  0  0  0  0
 12 13  1  0  0  0  0
 13 14  2  0  0  0  0
 14 20  1  0  0  0  0
 15 14  1  0  0  0  0
 15 16  1  0  0  0  0
 17 15  2  0  0  0  0
 18 12  1  0  0  0  0
 19 18  1  0  0  0  0
 20 21  1  0  0  0  0
 22  3  1  0  0  0  0
 22 27  1  0  0  0  0
 23 22  1  0  0  0  0
 23 24  1  0  0  0  0
 25 24  1  0  0  0  0
 25 26  1  0  0  0  0
 27 26  1  0  0  0  0
 28 33  1  0  0  0  0
 28  5  1  0  0  0  0
 29 28  1  0  0  0  0
 30 31  1  0  0  0  0
 30 29  1  0  0  0  0
 31 32  1  0  0  0  0
 32 33  1  0  0  0  0
M  END
>  <Pose>
1

>  <Score>
-8.345

$$$$
