/Users/jonathanwahrer/Desktop/Msc/3_Semester/Drug_Design_Praktikum/waehrer_HTS_screening/HTS_experiment/out/docking_results/vina_output/5l4q/0037_docked.pdbqt
 OpenBabel03212217423D

 27 30  0  0  1  0  0  0  0  0999 V2000
  -21.0960   -2.0330  -33.1780 N   0  0  0  0  0  0  0  0  0  0  0  0
  -22.1900   -2.2810  -34.0870 C   0  0  0  0  0  2  0  0  0  0  0  0
  -22.4320   -0.9030  -34.6650 C   0  0  1  0  0  3  0  0  0  0  0  0
  -21.0110   -0.4560  -34.9610 C   0  0  0  0  0  2  0  0  0  0  0  0
  -20.3310   -0.9870  -33.7500 C   0  0  0  0  0  0  0  0  0  0  0  0
  -19.2410   -0.5620  -33.3100 O   0  0  0  0  0  0  0  0  0  0  0  0
  -23.2610   -0.9490  -35.8870 C   0  0  0  0  0  0  0  0  0  0  0  0
  -24.1490   -0.0890  -36.1030 O   0  0  0  0  0  0  0  0  0  0  0  0
  -23.0440   -1.9810  -36.8230 N   0  0  0  0  0  0  0  0  0  0  0  0
  -22.3150   -2.6960  -36.6520 H   0  0  0  0  0  0  0  0  0  0  0  0
  -23.8290   -2.0620  -38.0300 C   0  0  0  0  0  2  0  0  0  0  0  0
  -23.0540   -1.5830  -39.2090 C   0  0  0  0  0  0  0  0  0  0  0  0
  -22.9680   -0.3170  -39.6890 N   0  0  0  0  0  0  0  0  0  0  0  0
  -22.1660   -0.3020  -40.7670 C   0  0  0  0  0  0  0  0  0  0  0  0
  -23.4810    1.0070  -39.3870 C   0  0  0  0  0  2  0  0  0  0  0  0
  -21.7650   -1.5880  -40.9330 N   0  0  0  0  0  0  0  0  0  0  0  0
  -22.0480    1.0860  -41.3240 C   0  0  0  0  0  2  0  0  0  0  0  0
  -22.2960   -2.3560  -40.0030 N   0  0  0  0  0  0  0  0  0  0  0  0
  -23.1940    1.8010  -40.6440 C   0  0  0  0  0  2  0  0  0  0  0  0
  -20.8920   -2.7490  -31.9670 C   0  0  0  0  0  0  0  0  0  0  0  0
  -20.4950   -2.1670  -30.7830 C   0  0  0  0  0  3  0  0  0  0  0  0
  -20.2960   -2.8400  -29.6080 C   0  0  0  0  0  0  0  0  0  0  0  0
  -20.5090   -4.2130  -29.6130 C   0  0  0  0  0  0  0  0  0  0  0  0
  -19.8690   -2.1780  -28.3450 C   0  0  0  0  0  1  0  0  0  0  0  0
  -20.2390   -5.1820  -27.9940 Br  0  0  0  0  0  0  0  0  0  0  0  0
  -20.9070   -4.8540  -30.7680 C   0  0  0  0  0  3  0  0  0  0  0  0
  -21.0950   -4.1300  -31.9290 C   0  0  0  0  0  3  0  0  0  0  0  0
  1 20  1  0  0  0  0
  2  1  1  0  0  0  0
  3  7  1  6  0  0  0
  3  2  1  0  0  0  0
  4  3  1  0  0  0  0
  4  5  1  0  0  0  0
  5  6  2  0  0  0  0
  5  1  1  0  0  0  0
  8  7  2  0  0  0  0
  9 10  1  0  0  0  0
  9  7  1  0  0  0  0
 11  9  1  0  0  0  0
 12 11  1  0  0  0  0
 13 15  1  0  0  0  0
 13 12  1  0  0  0  0
 14 13  1  0  0  0  0
 16 14  2  0  0  0  0
 16 18  1  0  0  0  0
 17 14  1  0  0  0  0
 17 19  1  0  0  0  0
 18 12  2  0  0  0  0
 19 15  1  0  0  0  0
 20 27  2  0  0  0  0
 20 21  1  0  0  0  0
 21 22  2  0  0  0  0
 22 24  1  0  0  0  0
 23 22  1  0  0  0  0
 23 25  1  0  0  0  0
 26 23  2  0  0  0  0
 27 26  1  0  0  0  0
M  END
>  <Pose>
1

>  <Score>
-9.456

$$$$
