/Users/jonathanwahrer/Desktop/Msc/3_Semester/Drug_Design_Praktikum/waehrer_HTS_screening/HTS_experiment/out/docking_results/vina_output/5l4q/0081_docked.pdbqt
 OpenBabel03212217423D

 22 25  0  0  0  0  0  0  0  0999 V2000
  -22.2350   -1.3680  -34.4550 C   0  0  0  0  0  0  0  0  0  0  0  0
  -22.5930   -2.6640  -34.4620 N   0  0  0  0  0  0  0  0  0  0  0  0
  -22.1170   -3.2630  -33.3680 N   0  0  0  0  0  0  0  0  0  0  0  0
  -21.4410   -2.3550  -32.6350 C   0  0  0  0  0  0  0  0  0  0  0  0
  -21.5280   -1.2020  -33.3230 N   0  0  0  0  0  0  0  0  0  0  0  0
  -20.8540   -2.7510  -31.4480 C   0  0  0  0  0  0  0  0  0  0  0  0
  -20.9350   -4.0470  -30.9810 C   0  0  0  0  0  0  0  0  0  0  0  0
  -20.2800   -4.1590  -29.8080 N   0  0  0  0  0  0  0  0  0  0  0  0
  -19.7880   -2.9690  -29.5210 N   0  0  0  0  0  0  0  0  0  0  0  0
  -20.1150   -2.0730  -30.5000 C   0  0  0  0  0  3  0  0  0  0  0  0
  -20.1180   -5.3420  -28.9790 C   0  0  0  0  0  1  0  0  0  0  0  0
  -21.6180   -4.9200  -31.7430 N   0  0  0  0  0  0  0  0  0  0  0  0
  -22.1930   -4.5240  -32.9100 C   0  0  0  0  0  3  0  0  0  0  0  0
  -22.5580   -0.3270  -35.4920 C   0  0  0  0  0  2  0  0  0  0  0  0
  -22.7740   -0.9250  -36.7890 N   0  0  0  0  0  0  0  0  0  0  0  0
  -22.2690   -0.4540  -37.9380 C   0  0  0  0  0  0  0  0  0  0  0  0
  -22.7030   -1.2970  -38.9280 C   0  0  0  0  0  0  0  0  0  0  0  0
  -21.4000    0.7470  -38.1470 C   0  0  0  0  0  1  0  0  0  0  0  0
  -22.3230   -1.1610  -40.7830 Br  0  0  0  0  0  0  0  0  0  0  0  0
  -23.4740   -2.2780  -38.3590 C   0  0  0  0  0  0  0  0  0  0  0  0
  -23.4890   -2.0060  -37.0350 N   0  0  0  0  0  0  0  0  0  0  0  0
  -24.1670   -3.4270  -39.0450 C   0  0  0  0  0  1  0  0  0  0  0  0
  1  5  1  0  0  0  0
  2  1  2  0  0  0  0
  2  3  1  0  0  0  0
  3 13  1  0  0  0  0
  3  4  1  0  0  0  0
  4  6  1  0  0  0  0
  5  4  2  0  0  0  0
  6  7  2  0  0  0  0
  6 10  1  0  0  0  0
  7  8  1  0  0  0  0
  8  9  1  0  0  0  0
  8 11  1  0  0  0  0
 10  9  2  0  0  0  0
 12  7  1  0  0  0  0
 13 12  2  0  0  0  0
 14  1  1  0  0  0  0
 15 14  1  0  0  0  0
 16 15  1  0  0  0  0
 17 20  1  0  0  0  0
 17 16  2  0  0  0  0
 18 16  1  0  0  0  0
 19 17  1  0  0  0  0
 20 21  2  0  0  0  0
 21 15  1  0  0  0  0
 22 20  1  0  0  0  0
M  END
>  <Pose>
1

>  <Score>
-8.361

$$$$
