/Users/jonathanwahrer/Desktop/Msc/3_Semester/Drug_Design_Praktikum/waehrer_HTS_screening/HTS_experiment/out/docking_results/vina_output/5l4q/0085_docked.pdbqt
 OpenBabel03212217423D

 26 29  0  0  0  0  0  0  0  0999 V2000
  -20.3370   -1.8240  -31.3330 C   0  0  0  0  0  0  0  0  0  0  0  0
  -21.0460   -2.8010  -32.0610 C   0  0  0  0  0  0  0  0  0  0  0  0
  -21.2750   -4.1150  -31.7920 N   0  0  0  0  0  0  0  0  0  0  0  0
  -21.9840   -4.5870  -32.7720 O   0  0  0  0  0  0  0  0  0  0  0  0
  -22.2230   -3.6630  -33.6490 N   0  0  0  0  0  0  0  0  0  0  0  0
  -21.6560   -2.5160  -33.2540 C   0  0  0  0  0  0  0  0  0  0  0  0
  -21.6180   -1.2580  -33.8220 C   0  0  0  0  0  0  0  0  0  0  0  0
  -20.9210   -0.3030  -33.1050 C   0  0  0  0  0  3  0  0  0  0  0  0
  -20.2970   -0.5820  -31.8910 C   0  0  0  0  0  3  0  0  0  0  0  0
  -19.7460   -2.2350  -30.1110 N   0  0  0  0  0  0  0  0  0  0  0  0
  -19.9300   -1.6160  -28.8780 C   0  0  0  0  0  0  0  0  0  0  0  0
  -20.6940   -0.5840  -28.7860 O   0  0  0  0  0  0  0  0  0  0  0  0
  -19.1150   -3.0910  -30.1000 H   0  0  0  0  0  0  0  0  0  0  0  0
  -19.2910   -2.0710  -27.6250 C   0  0  0  0  0  0  0  0  0  0  0  0
  -18.4170   -1.4140  -26.8230 C   0  0  0  0  0  0  0  0  0  0  0  0
  -17.7280    0.3590  -26.9870 Br  0  0  0  0  0  0  0  0  0  0  0  0
  -18.0900   -2.2940  -25.7720 C   0  0  0  0  0  3  0  0  0  0  0  0
  -18.7810   -3.4030  -26.0120 N   0  0  0  0  0  0  0  0  0  0  0  0
  -19.5080   -3.3230  -27.0950 N   0  0  0  0  0  0  0  0  0  0  0  0
  -20.3670   -4.3440  -27.6340 C   0  0  0  0  0  1  0  0  0  0  0  0
  -22.2380   -0.9500  -35.0460 N   0  0  0  0  0  0  0  0  0  0  0  0
  -21.4210   -0.3830  -36.1150 C   0  0  0  0  0  2  0  0  0  0  0  0
  -22.2610    0.0480  -37.2860 C   0  0  0  0  0  2  0  0  0  0  0  0
  -23.4470    0.6320  -36.9860 O   0  0  0  0  0  0  0  0  0  0  0  0
  -24.0900    0.2530  -35.8440 C   0  0  0  0  0  2  0  0  0  0  0  0
  -23.6110   -1.1180  -35.4150 C   0  0  0  0  0  2  0  0  0  0  0  0
  1 10  1  0  0  0  0
  2  3  2  0  0  0  0
  2  1  1  0  0  0  0
  4  3  1  0  0  0  0
  5  6  2  0  0  0  0
  5  4  1  0  0  0  0
  6  2  1  0  0  0  0
  7  6  1  0  0  0  0
  7  8  2  0  0  0  0
  8  9  1  0  0  0  0
  9  1  2  0  0  0  0
 10 13  1  0  0  0  0
 10 11  1  0  0  0  0
 11 12  2  0  0  0  0
 11 14  1  0  0  0  0
 14 19  1  0  0  0  0
 14 15  2  0  0  0  0
 15 17  1  0  0  0  0
 16 15  1  0  0  0  0
 18 17  2  0  0  0  0
 19 18  1  0  0  0  0
 20 19  1  0  0  0  0
 21  7  1  0  0  0  0
 22 21  1  0  0  0  0
 23 24  1  0  0  0  0
 23 22  1  0  0  0  0
 24 25  1  0  0  0  0
 25 26  1  0  0  0  0
 26 21  1  0  0  0  0
M  END
>  <Pose>
1

>  <Score>
-8.277

$$$$
