/Users/jonathanwahrer/Desktop/Msc/3_Semester/Drug_Design_Praktikum/waehrer_HTS_screening/HTS_experiment/out/docking_results/vina_output/5l4q/0095_docked.pdbqt
 OpenBabel03212217433D

 26 29  0  0  0  0  0  0  0  0999 V2000
  -23.0310   -1.3850  -34.7450 C   0  0  0  0  0  0  0  0  0  0  0  0
  -24.1520   -1.2170  -34.1640 O   0  0  0  0  0  0  0  0  0  0  0  0
  -21.8510   -1.7460  -34.1410 N   0  0  0  0  0  0  0  0  0  0  0  0
  -22.4660   -1.7770  -32.9270 H   0  0  0  0  0  0  0  0  0  0  0  0
  -23.0370   -1.1580  -36.2390 C   0  0  0  0  0  0  0  0  0  0  0  0
  -23.4000   -2.1530  -37.1100 C   0  0  0  0  0  3  0  0  0  0  0  0
  -23.3750   -1.8860  -38.4850 C   0  0  0  0  0  0  0  0  0  0  0  0
  -23.8690   -3.2430  -39.7080 Br  0  0  0  0  0  0  0  0  0  0  0  0
  -22.9950   -0.6510  -38.9500 C   0  0  0  0  0  3  0  0  0  0  0  0
  -22.6310    0.3500  -38.0720 C   0  0  0  0  0  3  0  0  0  0  0  0
  -22.6580    0.0780  -36.6940 C   0  0  0  0  0  0  0  0  0  0  0  0
  -22.3050    1.0590  -35.7360 N   0  0  0  0  0  0  0  0  0  0  0  0
  -23.1840    1.7670  -35.0530 N   0  0  0  0  0  0  0  0  0  0  0  0
  -22.5790    2.6020  -34.2360 N   0  0  0  0  0  0  0  0  0  0  0  0
  -21.2730    2.4450  -34.3790 N   0  0  0  0  0  0  0  0  0  0  0  0
  -21.1110    1.4940  -35.3050 C   0  0  0  0  0  3  0  0  0  0  0  0
  -20.6780   -2.1050  -33.5390 C   0  0  0  0  0  2  0  0  0  0  0  0
  -20.8350   -3.1650  -32.4620 C   0  0  0  0  0  0  0  0  0  0  0  0
  -20.6030   -2.9720  -31.1450 N   0  0  0  0  0  0  0  0  0  0  0  0
  -20.8340   -4.1020  -30.4640 C   0  0  0  0  0  0  0  0  0  0  0  0
  -20.1970   -1.8580  -30.4740 C   0  0  0  0  0  3  0  0  0  0  0  0
  -21.2160   -5.0070  -31.3790 N   0  0  0  0  0  0  0  0  0  0  0  0
  -20.6620   -4.1460  -29.0740 C   0  0  0  0  0  3  0  0  0  0  0  0
  -21.2170   -4.4400  -32.5940 N   0  0  0  0  0  0  0  0  0  0  0  0
  -20.2550   -3.0310  -28.3960 C   0  0  0  0  0  3  0  0  0  0  0  0
  -20.0170   -1.8660  -29.0980 C   0  0  0  0  0  3  0  0  0  0  0  0
  1  2  2  0  0  0  0
  1  3  1  0  0  0  0
  3 17  1  0  0  0  0
  3  4  1  0  0  0  0
  5  1  1  0  0  0  0
  6  5  2  0  0  0  0
  7  6  1  0  0  0  0
  8  7  1  0  0  0  0
  9  7  2  0  0  0  0
  9 10  1  0  0  0  0
 10 11  2  0  0  0  0
 11  5  1  0  0  0  0
 11 12  1  0  0  0  0
 12 16  1  0  0  0  0
 12 13  1  0  0  0  0
 13 14  2  0  0  0  0
 15 14  1  0  0  0  0
 16 15  2  0  0  0  0
 17 18  1  0  0  0  0
 18 19  1  0  0  0  0
 19 21  1  0  0  0  0
 19 20  1  0  0  0  0
 20 23  1  0  0  0  0
 21 26  2  0  0  0  0
 22 20  2  0  0  0  0
 23 25  2  0  0  0  0
 24 18  2  0  0  0  0
 24 22  1  0  0  0  0
 26 25  1  0  0  0  0
M  END
>  <Pose>
1

>  <Score>
-8.382

$$$$
