/Users/jonathanwahrer/Desktop/Msc/3_Semester/Drug_Design_Praktikum/waehrer_HTS_screening/HTS_experiment/out/docking_results/vina_output/5l4q/0111_docked.pdbqt
 OpenBabel03212217433D

 29 32  0  0  0  0  0  0  0  0999 V2000
  -20.3660    0.0740  -33.1180 C   0  0  0  0  0  0  0  0  0  0  0  0
  -20.3860   -0.9680  -32.3150 N   0  0  0  0  0  0  0  0  0  0  0  0
  -19.6620   -0.7140  -31.1800 C   0  0  0  0  0  0  0  0  0  0  0  0
  -19.1770    0.5420  -31.3110 N   0  0  0  0  0  0  0  0  0  0  0  0
  -19.5790    1.0160  -32.4410 N   0  0  0  0  0  0  0  0  0  0  0  0
  -19.6930   -1.7800  -30.3780 N   0  0  0  0  0  0  0  0  0  0  0  0
  -20.4290   -2.7170  -30.9980 C   0  0  0  0  0  0  0  0  0  0  0  0
  -20.8740   -2.2320  -32.2220 C   0  0  0  0  0  0  0  0  0  0  0  0
  -21.6020   -2.9530  -33.0530 N   0  0  0  0  0  0  0  0  0  0  0  0
  -21.9170   -4.2240  -32.6530 C   0  0  0  0  0  0  0  0  0  0  0  0
  -22.6070   -4.9970  -33.3650 O   0  0  0  0  0  0  0  0  0  0  0  0
  -21.5060   -4.7270  -31.4690 N   0  0  0  0  0  0  0  0  0  0  0  0
  -20.7700   -4.0050  -30.6330 C   0  0  0  0  0  0  0  0  0  0  0  0
  -20.3570   -4.4160  -29.5190 O   0  0  0  0  0  0  0  0  0  0  0  0
  -22.0630   -2.6220  -34.3680 C   0  0  0  0  0  1  0  0  0  0  0  0
  -21.7560   -5.6960  -31.1790 H   0  0  0  0  0  0  0  0  0  0  0  0
  -20.8860    0.4730  -34.3940 C   0  0  0  0  0  0  0  0  0  0  0  0
  -20.2640    0.4960  -35.6060 C   0  0  0  0  0  3  0  0  0  0  0  0
  -20.8090    0.9030  -36.7890 C   0  0  0  0  0  0  0  0  0  0  0  0
  -19.7580    0.8560  -38.3790 Br  0  0  0  0  0  0  0  0  0  0  0  0
  -22.1010    1.3400  -36.8120 C   0  0  0  0  0  3  0  0  0  0  0  0
  -22.8130    1.3510  -35.6220 C   0  0  0  0  0  3  0  0  0  0  0  0
  -22.2230    0.9310  -34.4540 C   0  0  0  0  0  0  0  0  0  0  0  0
  -22.9690    0.9580  -33.2880 O   0  0  0  0  0  0  0  0  0  0  0  0
  -24.3620    0.9500  -33.2430 C   0  0  0  0  0  1  0  0  0  0  0  0
  -19.0700   -1.9260  -29.0950 C   0  0  0  0  0  2  0  0  0  0  0  0
  -19.9020   -1.2180  -28.0470 C   0  0  0  0  0  2  0  0  0  0  0  0
  -20.3480   -2.1590  -27.1400 O   0  0  0  0  0  0  0  0  0  0  0  0
  -19.2790   -2.7800  -26.4700 C   0  0  0  0  0  1  0  0  0  0  0  0
  1  5  2  0  0  0  0
  1  2  1  0  0  0  0
  2  8  1  0  0  0  0
  2  3  1  0  0  0  0
  3  6  1  0  0  0  0
  4  3  2  0  0  0  0
  5  4  1  0  0  0  0
  6 26  1  0  0  0  0
  7 13  1  0  0  0  0
  7  6  1  0  0  0  0
  8  7  2  0  0  0  0
  9 10  1  0  0  0  0
  9  8  1  0  0  0  0
 10 12  1  0  0  0  0
 11 10  2  0  0  0  0
 12 16  1  0  0  0  0
 12 13  1  0  0  0  0
 13 14  2  0  0  0  0
 15  9  1  0  0  0  0
 17  1  1  0  0  0  0
 18 17  2  0  0  0  0
 19 18  1  0  0  0  0
 20 19  1  0  0  0  0
 21 19  2  0  0  0  0
 21 22  1  0  0  0  0
 22 23  2  0  0  0  0
 23 17  1  0  0  0  0
 23 24  1  0  0  0  0
 24 25  1  0  0  0  0
 26 27  1  0  0  0  0
 27 28  1  0  0  0  0
 28 29  1  0  0  0  0
M  END
>  <Pose>
1

>  <Score>
-7.787

$$$$
