/Users/jonathanwahrer/Desktop/Msc/3_Semester/Drug_Design_Praktikum/waehrer_HTS_screening/HTS_experiment/out/docking_results/vina_output/5l4q/0131_docked.pdbqt
 OpenBabel03212217443D

 30 33  0  0  1  0  0  0  0  0999 V2000
  -20.2640   -0.2050  -32.1540 C   0  0  0  0  0  0  0  0  0  0  0  0
  -19.2530    0.4380  -31.7790 O   0  0  0  0  0  0  0  0  0  0  0  0
  -20.9410    0.1950  -33.3170 N   0  0  0  0  0  0  0  0  0  0  0  0
  -22.1090   -0.4930  -33.8090 C   0  0  0  0  0  2  0  0  0  0  0  0
  -21.7360   -1.0850  -35.1510 C   0  0  0  0  0  2  0  0  0  0  0  0
  -21.1170   -0.0190  -36.0230 C   0  0  1  0  0  0  0  0  0  0  0  0
  -19.7540   -0.4120  -36.3090 N   0  0  0  0  0  0  0  0  0  0  0  0
  -19.0680    0.4290  -37.2270 C   0  0  0  0  0  2  0  0  0  0  0  0
  -19.8440    0.9430  -38.3840 C   0  0  0  0  0  2  0  0  0  0  0  0
  -21.2230    0.4220  -38.4830 C   0  0  0  0  0  0  0  0  0  0  0  0
  -22.0880    0.2910  -39.5350 N   0  0  0  0  0  0  0  0  0  0  0  0
  -23.2130   -0.2420  -39.0430 C   0  0  0  0  0  3  0  0  0  0  0  0
  -23.0650   -0.4430  -37.7230 N   0  0  0  0  0  0  0  0  0  0  0  0
  -21.8300   -0.0380  -37.3360 C   0  0  0  0  0  0  0  0  0  0  0  0
  -21.1600    1.3570  -35.4410 C   0  0  0  0  0  2  0  0  0  0  0  0
  -20.4760    1.3310  -34.0710 C   0  0  0  0  0  2  0  0  0  0  0  0
  -19.2150   -0.4140  -35.4030 H   0  0  0  0  0  0  0  0  0  0  0  0
  -21.8620    0.5740  -40.5340 H   0  0  0  0  0  0  0  0  0  0  0  0
  -20.6740   -1.3640  -31.3170 C   0  0  0  0  0  2  0  0  0  0  0  0
  -20.2740   -1.1940  -29.9370 N   0  0  0  0  0  0  0  0  0  0  0  0
  -19.8970   -2.2890  -29.1270 C   0  0  0  0  0  0  0  0  0  0  0  0
  -19.9200   -3.4330  -29.6510 O   0  0  0  0  0  0  0  0  0  0  0  0
  -20.2620   -0.2400  -29.5270 H   0  0  0  0  0  0  0  0  0  0  0  0
  -19.4900   -2.1460  -27.7370 C   0  0  0  0  0  0  0  0  0  0  0  0
  -19.0250   -0.9600  -27.2000 C   0  0  0  0  0  3  0  0  0  0  0  0
  -18.6460   -0.8530  -25.8750 C   0  0  0  0  0  0  0  0  0  0  0  0
  -18.0200    0.8120  -25.2240 Br  0  0  0  0  0  0  0  0  0  0  0  0
  -18.7240   -1.9620  -25.0310 C   0  0  0  0  0  3  0  0  0  0  0  0
  -19.1900   -3.1360  -25.5820 C   0  0  0  0  0  3  0  0  0  0  0  0
  -19.5680   -3.2490  -26.8990 C   0  0  0  0  0  3  0  0  0  0  0  0
  1  2  2  0  0  0  0
  1 19  1  0  0  0  0
  3  1  1  0  0  0  0
  4  3  1  0  0  0  0
  5  4  1  0  0  0  0
  6 15  1  1  0  0  0
  6  5  1  0  0  0  0
  7  6  1  0  0  0  0
  7 17  1  0  0  0  0
  8  7  1  0  0  0  0
  9  8  1  0  0  0  0
 10  9  1  0  0  0  0
 10 14  2  0  0  0  0
 11 12  1  0  0  0  0
 11 10  1  0  0  0  0
 12 13  2  0  0  0  0
 13 14  1  0  0  0  0
 14  6  1  0  0  0  0
 15 16  1  0  0  0  0
 16  3  1  0  0  0  0
 18 11  1  0  0  0  0
 19 20  1  0  0  0  0
 20 23  1  0  0  0  0
 20 21  1  0  0  0  0
 21 24  1  0  0  0  0
 22 21  2  0  0  0  0
 24 25  2  0  0  0  0
 24 30  1  0  0  0  0
 25 26  1  0  0  0  0
 26 27  1  0  0  0  0
 26 28  2  0  0  0  0
 29 28  1  0  0  0  0
 30 29  2  0  0  0  0
M  END
>  <Pose>
1

>  <Score>
-9.504

$$$$
