/Users/jonathanwahrer/Desktop/Msc/3_Semester/Drug_Design_Praktikum/waehrer_HTS_screening/HTS_experiment/out/docking_results/vina_output/5l4q/0137_docked.pdbqt
 OpenBabel03212217443D

 25 28  0  0  1  0  0  0  0  0999 V2000
  -21.3300   -0.3600  -32.8920 C   0  0  2  0  0  3  0  0  0  0  0  0
  -21.2940   -1.3700  -34.0980 C   0  0  0  0  0  2  0  0  0  0  0  0
  -22.0590   -0.7140  -35.1040 N   0  0  0  0  0  0  0  0  0  0  0  0
  -22.1080    0.7110  -34.8130 C   0  0  1  0  0  3  0  0  0  0  0  0
  -21.0980    0.9150  -33.7600 C   0  0  0  0  0  2  0  0  0  0  0  0
  -21.9600    1.4890  -36.0540 C   0  0  0  0  0  0  0  0  0  0  0  0
  -21.2710    2.5240  -36.0470 O   0  0  0  0  0  0  0  0  0  0  0  0
  -22.5960    1.0660  -37.2420 N   0  0  0  0  0  0  0  0  0  0  0  0
  -22.7850   -0.3470  -37.4880 C   0  0  2  0  0  3  0  0  0  0  0  0
  -24.0800   -0.4550  -38.2670 C   0  0  0  0  0  2  0  0  0  0  0  0
  -24.4960    0.9520  -38.5190 C   0  0  0  0  0  2  0  0  0  0  0  0
  -23.1780    1.7330  -38.4020 C   0  0  0  0  0  2  0  0  0  0  0  0
  -22.7420   -1.1530  -36.2730 C   0  0  0  0  0  0  0  0  0  0  0  0
  -23.3320   -2.2890  -36.2390 O   0  0  0  0  0  0  0  0  0  0  0  0
  -20.4330   -0.6350  -31.9520 N   0  0  0  0  0  0  0  0  0  0  0  0
  -19.5010   -0.9160  -30.9840 C   0  0  0  0  0  0  0  0  0  0  0  0
  -18.3610   -0.3970  -30.7740 O   0  0  0  0  0  0  0  0  0  0  0  0
  -19.5890    0.3290  -32.4560 H   0  0  0  0  0  0  0  0  0  0  0  0
  -19.7970   -1.9980  -29.9680 C   0  0  0  0  0  0  0  0  0  0  0  0
  -19.4350   -1.8530  -28.6510 C   0  0  0  0  0  3  0  0  0  0  0  0
  -19.6920   -2.8150  -27.7060 C   0  0  0  0  0  0  0  0  0  0  0  0
  -19.2170   -2.6020  -25.8780 Br  0  0  0  0  0  0  0  0  0  0  0  0
  -20.3440   -3.9670  -28.1340 C   0  0  0  0  0  3  0  0  0  0  0  0
  -20.7190   -4.1430  -29.4370 C   0  0  0  0  0  3  0  0  0  0  0  0
  -20.4390   -3.1440  -30.3610 C   0  0  0  0  0  3  0  0  0  0  0  0
  1 15  1  1  0  0  0
  2  1  1  0  0  0  0
  3  4  1  0  0  0  0
  3  2  1  0  0  0  0
  4  5  1  1  0  0  0
  5  1  1  0  0  0  0
  6  7  2  0  0  0  0
  6  4  1  0  0  0  0
  8  6  1  0  0  0  0
  9 10  1  1  0  0  0
  9  8  1  0  0  0  0
  9 13  1  0  0  0  0
 11 12  1  0  0  0  0
 11 10  1  0  0  0  0
 12  8  1  0  0  0  0
 13 14  2  0  0  0  0
 13  3  1  0  0  0  0
 15 16  1  0  0  0  0
 16 17  2  0  0  0  0
 16 19  1  0  0  0  0
 18 15  1  0  0  0  0
 19 20  1  0  0  0  0
 20 21  2  0  0  0  0
 21 22  1  0  0  0  0
 23 21  1  0  0  0  0
 24 23  2  0  0  0  0
 25 19  2  0  0  0  0
 25 24  1  0  0  0  0
M  END
>  <Pose>
1

>  <Score>
-9.241

$$$$
