/Users/jonathanwahrer/Desktop/Msc/3_Semester/Drug_Design_Praktikum/waehrer_HTS_screening/HTS_experiment/out/docking_results/vina_output/5l4q/0138_docked.pdbqt
 OpenBabel03212217443D

 25 28  0  0  1  0  0  0  0  0999 V2000
  -20.1500   -1.3900  -31.4450 C   0  0  2  0  0  3  0  0  0  0  0  0
  -20.8530   -0.1520  -31.8930 C   0  0  0  0  0  2  0  0  0  0  0  0
  -21.1650   -0.4440  -33.3030 N   0  0  0  0  0  0  0  0  0  0  0  0
  -20.9620   -1.8640  -33.5530 C   0  0  1  0  0  3  0  0  0  0  0  0
  -20.9660   -2.4640  -32.1810 C   0  0  0  0  0  2  0  0  0  0  0  0
  -22.0430   -2.3270  -34.4180 C   0  0  0  0  0  0  0  0  0  0  0  0
  -22.5240   -3.4590  -34.2880 O   0  0  0  0  0  0  0  0  0  0  0  0
  -22.5590   -1.4580  -35.4350 N   0  0  0  0  0  0  0  0  0  0  0  0
  -21.7900   -0.2660  -35.7020 C   0  0  1  0  0  3  0  0  0  0  0  0
  -22.4800    0.5810  -36.6900 C   0  0  0  0  0  2  0  0  0  0  0  0
  -23.4750   -0.3830  -37.3060 C   0  0  0  0  0  2  0  0  0  0  0  0
  -23.6970   -1.4620  -36.3020 C   0  0  0  0  0  2  0  0  0  0  0  0
  -21.6030    0.3980  -34.3650 C   0  0  0  0  0  0  0  0  0  0  0  0
  -21.8210    1.6190  -34.2000 O   0  0  0  0  0  0  0  0  0  0  0  0
  -20.1130   -1.5940  -30.0450 N   0  0  0  0  0  0  0  0  0  0  0  0
  -19.0580   -1.0580  -29.2740 C   0  0  0  0  0  0  0  0  0  0  0  0
  -18.1360   -0.3850  -29.8550 O   0  0  0  0  0  0  0  0  0  0  0  0
  -20.8570   -2.1370  -29.5710 H   0  0  0  0  0  0  0  0  0  0  0  0
  -18.9140   -1.1990  -27.8360 C   0  0  0  0  0  0  0  0  0  0  0  0
  -18.5210   -0.1690  -27.0190 C   0  0  0  0  0  3  0  0  0  0  0  0
  -18.3800   -0.2890  -25.6600 C   0  0  0  0  0  0  0  0  0  0  0  0
  -17.8330    1.1610  -24.5600 Br  0  0  0  0  0  0  0  0  0  0  0  0
  -18.6430   -1.5020  -25.0610 C   0  0  0  0  0  3  0  0  0  0  0  0
  -19.0440   -2.5720  -25.8450 C   0  0  0  0  0  3  0  0  0  0  0  0
  -19.1750   -2.4060  -27.2320 C   0  0  0  0  0  3  0  0  0  0  0  0
  1 15  1  1  0  0  0
  2  1  1  0  0  0  0
  3  2  1  0  0  0  0
  4  3  1  0  0  0  0
  4  5  1  1  0  0  0
  5  1  1  0  0  0  0
  6  7  2  0  0  0  0
  6  4  1  0  0  0  0
  8  6  1  0  0  0  0
  9 10  1  6  0  0  0
  9  8  1  0  0  0  0
  9 13  1  0  0  0  0
 11 10  1  0  0  0  0
 11 12  1  0  0  0  0
 12  8  1  0  0  0  0
 13 14  2  0  0  0  0
 13  3  1  0  0  0  0
 15 18  1  0  0  0  0
 15 16  1  0  0  0  0
 16 19  1  0  0  0  0
 17 16  2  0  0  0  0
 19 25  2  0  0  0  0
 19 20  1  0  0  0  0
 20 21  2  0  0  0  0
 21 23  1  0  0  0  0
 21 22  1  0  0  0  0
 24 23  2  0  0  0  0
 25 24  1  0  0  0  0
M  END
>  <Pose>
1

>  <Score>
-9.333

$$$$
