/Users/jonathanwahrer/Desktop/Msc/3_Semester/Drug_Design_Praktikum/waehrer_HTS_screening/HTS_experiment/out/docking_results/vina_output/5l4q/0141_docked.pdbqt
 OpenBabel03212217453D

 23 26  0  0  1  0  0  0  0  0999 V2000
  -23.3990   -1.1390  -36.2420 N   0  0  0  0  0  0  0  0  0  0  0  0
  -23.6550   -1.7850  -37.5040 C   0  0  0  0  0  0  0  0  0  0  0  0
  -23.6680   -3.0320  -37.7560 O   0  0  0  0  0  0  0  0  0  0  0  0
  -23.9080   -0.7600  -38.4990 C   0  0  1  0  0  3  0  0  0  0  0  0
  -24.2690    0.5190  -37.7180 C   0  0  2  0  0  3  0  0  0  0  0  0
  -23.6060    1.6420  -38.4480 C   0  0  2  0  0  3  0  0  0  0  0  0
  -23.3300    1.0070  -39.8250 C   0  0  0  0  0  2  0  0  0  0  0  0
  -22.6650   -0.2420  -39.2090 C   0  0  1  0  0  3  0  0  0  0  0  0
  -21.7510    0.4330  -38.2430 C   0  0  0  0  0  2  0  0  0  0  0  0
  -22.1730    1.6760  -37.9790 C   0  0  0  0  0  2  0  0  0  0  0  0
  -23.4860    0.2430  -36.4490 C   0  0  0  0  0  0  0  0  0  0  0  0
  -23.0020    1.1380  -35.7190 O   0  0  0  0  0  0  0  0  0  0  0  0
  -23.1190   -1.8920  -35.0850 N   0  0  0  0  0  0  0  0  0  0  0  0
  -21.8900   -1.9190  -34.4040 C   0  0  0  0  0  0  0  0  0  0  0  0
  -20.9220   -1.2440  -34.7970 O   0  0  0  0  0  0  0  0  0  0  0  0
  -23.8850   -2.5090  -34.6650 H   0  0  0  0  0  0  0  0  0  0  0  0
  -21.7010   -2.7330  -33.2190 C   0  0  0  0  0  0  0  0  0  0  0  0
  -20.9620   -2.2160  -32.1580 C   0  0  0  0  0  3  0  0  0  0  0  0
  -20.7620   -2.9500  -31.0150 C   0  0  0  0  0  0  0  0  0  0  0  0
  -19.7370   -2.1840  -29.6050 Br  0  0  0  0  0  0  0  0  0  0  0  0
  -21.2920   -4.2280  -30.8830 C   0  0  0  0  0  3  0  0  0  0  0  0
  -22.0160   -4.7150  -31.9430 C   0  0  0  0  0  3  0  0  0  0  0  0
  -22.2200   -3.9840  -33.0920 C   0  0  0  0  0  3  0  0  0  0  0  0
  1 13  1  0  0  0  0
  2  1  1  0  0  0  0
  3  2  2  0  0  0  0
  4  5  1  0  0  0  0
  4  2  1  1  0  0  0
  5 11  1  1  0  0  0
  6  7  1  6  0  0  0
  6 10  1  0  0  0  0
  6  5  1  0  0  0  0
  8  7  1  6  0  0  0
  8  4  1  0  0  0  0
  8  9  1  0  0  0  0
  9 10  1  0  0  0  0
 11  1  1  0  0  0  0
 11 12  2  0  0  0  0
 13 16  1  0  0  0  0
 13 14  1  0  0  0  0
 14 17  1  0  0  0  0
 15 14  2  0  0  0  0
 17 23  2  0  0  0  0
 17 18  1  0  0  0  0
 18 19  2  0  0  0  0
 19 21  1  0  0  0  0
 19 20  1  0  0  0  0
 22 21  2  0  0  0  0
 23 22  1  0  0  0  0
M  END
>  <Pose>
1

>  <Score>
-8.354

$$$$
