/Users/jonathanwahrer/Desktop/Msc/3_Semester/Drug_Design_Praktikum/waehrer_HTS_screening/HTS_experiment/out/docking_results/vina_output/5l4q/0167_docked.pdbqt
 OpenBabel03212217463D

 35 38  0  0  1  0  0  0  0  0999 V2000
  -21.8260    0.0950  -34.4480 C   0  0  1  0  0  3  0  0  0  0  0  0
  -22.6140   -1.0320  -34.7820 N   0  0  0  0  0  0  0  0  0  0  0  0
  -22.1180   -2.1780  -34.1090 C   0  0  0  0  0  0  0  0  0  0  0  0
  -22.5500   -3.3620  -34.2720 O   0  0  0  0  0  0  0  0  0  0  0  0
  -21.0580   -1.7650  -33.2160 C   0  0  0  0  0  0  0  0  0  0  0  0
  -20.4380   -2.5930  -32.4960 O   0  0  0  0  0  0  0  0  0  0  0  0
  -20.9100   -0.3290  -33.3580 C   0  0  0  0  0  0  0  0  0  0  0  0
  -20.0690    0.4060  -32.6660 C   0  0  0  0  0  0  0  0  0  0  0  0
  -19.9730    1.7510  -32.9380 O   0  0  0  0  0  1  0  0  0  0  0  0
  -21.0970    0.5910  -35.6200 C   0  0  0  0  0  0  0  0  0  0  0  0
  -21.4760    1.8060  -36.1640 C   0  0  0  0  0  3  0  0  0  0  0  0
  -20.8920    2.4130  -37.2340 C   0  0  0  0  0  0  0  0  0  0  0  0
  -21.4560    4.0930  -37.9440 Br  0  0  0  0  0  0  0  0  0  0  0  0
  -19.8140    1.7370  -37.8270 C   0  0  0  0  0  3  0  0  0  0  0  0
  -19.4100    0.5190  -37.3070 C   0  0  0  0  0  3  0  0  0  0  0  0
  -20.0260   -0.0680  -36.2180 C   0  0  0  0  0  3  0  0  0  0  0  0
  -19.2540   -0.1700  -31.6250 C   0  0  0  0  0  0  0  0  0  0  0  0
  -19.6300   -0.2220  -30.2710 C   0  0  0  0  0  0  0  0  0  0  0  0
  -18.6750   -0.8490  -29.5750 N   0  0  0  0  0  0  0  0  0  0  0  0
  -20.9050    0.3430  -29.7420 C   0  0  0  0  0  1  0  0  0  0  0  0
  -17.7280   -1.1850  -30.4320 N   0  0  0  0  0  0  0  0  0  0  0  0
  -18.0390   -0.7960  -31.6770 C   0  0  0  0  0  3  0  0  0  0  0  0
  -18.6660   -1.1240  -28.1810 C   0  0  0  0  0  0  0  0  0  0  0  0
  -19.2920   -2.2770  -27.7240 C   0  0  0  0  0  3  0  0  0  0  0  0
  -19.3130   -2.6120  -26.3850 C   0  0  0  0  0  3  0  0  0  0  0  0
  -18.7010   -1.7990  -25.4310 C   0  0  0  0  0  3  0  0  0  0  0  0
  -18.0770   -0.6510  -25.8860 C   0  0  0  0  0  3  0  0  0  0  0  0
  -18.0700   -0.3390  -27.2210 C   0  0  0  0  0  3  0  0  0  0  0  0
  -23.8060   -1.0570  -35.6750 C   0  0  0  0  0  2  0  0  0  0  0  0
  -23.4220   -1.6290  -37.0150 C   0  0  0  0  0  2  0  0  0  0  0  0
  -23.7270   -0.7190  -38.1630 C   0  0  0  0  0  2  0  0  0  0  0  0
  -22.6090   -0.2640  -38.9220 N   0  0  0  0  0  4  0  0  0  0  0  0
  -21.9120   -1.2500  -39.6790 C   0  0  0  0  0  1  0  0  0  0  0  0
  -23.0270    0.7980  -39.8520 C   0  0  0  0  0  1  0  0  0  0  0  0
  -21.9130    0.2180  -38.2760 H   0  0  0  0  0  0  0  0  0  0  0  0
  1 10  1  6  0  0  0
  1  7  1  0  0  0  0
  2  1  1  0  0  0  0
  2  3  1  0  0  0  0
  3  5  1  0  0  0  0
  4  3  2  0  0  0  0
  5  6  2  0  0  0  0
  7  5  1  0  0  0  0
  7  8  2  0  0  0  0
  8 17  1  0  0  0  0
  9  8  1  0  0  0  0
 11 10  1  0  0  0  0
 12 11  2  0  0  0  0
 13 12  1  0  0  0  0
 14 15  2  0  0  0  0
 14 12  1  0  0  0  0
 15 16  1  0  0  0  0
 16 10  2  0  0  0  0
 17 18  2  0  0  0  0
 18 20  1  0  0  0  0
 18 19  1  0  0  0  0
 19 23  1  0  0  0  0
 21 19  1  0  0  0  0
 22 17  1  0  0  0  0
 22 21  2  0  0  0  0
 23 24  2  0  0  0  0
 23 28  1  0  0  0  0
 24 25  1  0  0  0  0
 25 26  2  0  0  0  0
 27 26  1  0  0  0  0
 28 27  2  0  0  0  0
 29  2  1  0  0  0  0
 30 29  1  0  0  0  0
 31 30  1  0  0  0  0
 32 35  1  0  0  0  0
 32 31  1  0  0  0  0
 33 32  1  0  0  0  0
 34 32  1  0  0  0  0
M  END
>  <Pose>
1

>  <Score>
-8.452

$$$$
