/Users/jonathanwahrer/Desktop/Msc/3_Semester/Drug_Design_Praktikum/waehrer_HTS_screening/HTS_experiment/out/docking_results/vina_output/5l4q/0170_docked.pdbqt
 OpenBabel03212217473D

 35 38  0  0  1  0  0  0  0  0999 V2000
  -21.6960   -1.1070  -32.4570 C   0  0  1  0  0  3  0  0  0  0  0  0
  -20.4860   -0.4220  -32.0460 N   0  0  0  0  0  0  0  0  0  0  0  0
  -19.5930   -0.2900  -33.1310 C   0  0  0  0  0  0  0  0  0  0  0  0
  -18.3590   -0.0530  -33.1610 O   0  0  0  0  0  0  0  0  0  0  0  0
  -20.4120   -0.4960  -34.3520 C   0  0  0  0  0  0  0  0  0  0  0  0
  -19.9500   -0.4460  -35.5090 O   0  0  0  0  0  0  0  0  0  0  0  0
  -21.7740   -0.7470  -33.9150 C   0  0  0  0  0  0  0  0  0  0  0  0
  -22.8500   -0.6250  -34.6490 C   0  0  0  0  0  0  0  0  0  0  0  0
  -24.1090   -0.8360  -34.0610 O   0  0  0  0  0  1  0  0  0  0  0  0
  -21.6330   -2.5650  -32.2560 C   0  0  0  0  0  0  0  0  0  0  0  0
  -21.0640   -3.1250  -31.1350 C   0  0  0  0  0  3  0  0  0  0  0  0
  -21.0150   -4.5040  -30.9650 C   0  0  0  0  0  0  0  0  0  0  0  0
  -20.2190   -5.2570  -29.4070 Br  0  0  0  0  0  0  0  0  0  0  0  0
  -21.5470   -5.3380  -31.9360 C   0  0  0  0  0  3  0  0  0  0  0  0
  -22.1150   -4.7680  -33.0550 C   0  0  0  0  0  3  0  0  0  0  0  0
  -22.1620   -3.3980  -33.2180 C   0  0  0  0  0  3  0  0  0  0  0  0
  -22.7950   -0.2880  -36.0460 C   0  0  0  0  0  0  0  0  0  0  0  0
  -22.9280   -1.3470  -36.9570 C   0  0  0  0  0  3  0  0  0  0  0  0
  -22.8470   -1.1250  -38.3030 C   0  0  0  0  0  0  0  0  0  0  0  0
  -22.6330    0.1440  -38.8270 C   0  0  0  0  0  0  0  0  0  0  0  0
  -22.9910   -2.2680  -39.2610 C   0  0  0  0  0  1  0  0  0  0  0  0
  -22.5060    1.1550  -37.9270 C   0  0  0  0  0  3  0  0  0  0  0  0
  -22.5840    0.9490  -36.5640 C   0  0  0  0  0  3  0  0  0  0  0  0
  -22.5650    0.2840  -40.1980 O   0  0  0  0  0  0  0  0  0  0  0  0
  -22.9400    1.5020  -40.8250 C   0  0  0  0  0  1  0  0  0  0  0  0
  -20.2000    0.0880  -30.6960 C   0  0  0  0  0  2  0  0  0  0  0  0
  -19.1280   -0.7470  -30.0520 C   0  0  0  0  0  2  0  0  0  0  0  0
  -18.7540   -0.3380  -28.6680 C   0  0  0  0  0  2  0  0  0  0  0  0
  -18.4510   -1.4510  -27.7950 N   0  0  0  0  0  4  0  0  0  0  0  0
  -17.6860   -1.0340  -26.6370 C   0  0  0  0  0  2  0  0  0  0  0  0
  -18.4730   -1.2430  -25.3710 C   0  0  0  0  0  2  0  0  0  0  0  0
  -18.7420   -2.6220  -25.2570 O   0  0  0  0  0  0  0  0  0  0  0  0
  -19.5630   -3.0470  -26.2990 C   0  0  0  0  0  2  0  0  0  0  0  0
  -19.7320   -2.0370  -27.3880 C   0  0  0  0  0  2  0  0  0  0  0  0
  -17.9400   -2.2240  -28.2710 H   0  0  0  0  0  0  0  0  0  0  0  0
  1 10  1  6  0  0  0
  1  2  1  0  0  0  0
  2 26  1  0  0  0  0
  3  2  1  0  0  0  0
  4  3  2  0  0  0  0
  5  7  1  0  0  0  0
  5  3  1  0  0  0  0
  6  5  2  0  0  0  0
  7  1  1  0  0  0  0
  8  9  1  0  0  0  0
  8  7  2  0  0  0  0
 10 11  1  0  0  0  0
 11 12  2  0  0  0  0
 12 13  1  0  0  0  0
 14 12  1  0  0  0  0
 15 14  2  0  0  0  0
 16 15  1  0  0  0  0
 16 10  2  0  0  0  0
 17  8  1  0  0  0  0
 18 17  2  0  0  0  0
 19 18  1  0  0  0  0
 20 19  2  0  0  0  0
 20 22  1  0  0  0  0
 21 19  1  0  0  0  0
 22 23  2  0  0  0  0
 23 17  1  0  0  0  0
 24 20  1  0  0  0  0
 25 24  1  0  0  0  0
 26 27  1  0  0  0  0
 27 28  1  0  0  0  0
 28 29  1  0  0  0  0
 29 34  1  0  0  0  0
 29 30  1  0  0  0  0
 30 31  1  0  0  0  0
 31 32  1  0  0  0  0
 33 32  1  0  0  0  0
 34 33  1  0  0  0  0
 35 29  1  0  0  0  0
M  END
>  <Pose>
1

>  <Score>
-8.871

$$$$
