/Users/jonathanwahrer/Desktop/Msc/3_Semester/Drug_Design_Praktikum/waehrer_HTS_screening/HTS_experiment/out/docking_results/vina_output/5l4q/0176_docked.pdbqt
 OpenBabel03212217473D

 33 36  0  0  1  0  0  0  0  0999 V2000
  -21.1080   -0.5650  -32.1680 C   0  0  1  0  0  3  0  0  0  0  0  0
  -19.7770   -0.1600  -31.7450 N   0  0  0  0  0  0  0  0  0  0  0  0
  -18.9710   -0.0560  -32.9370 C   0  0  0  0  0  0  0  0  0  0  0  0
  -17.7160   -0.0530  -32.9540 O   0  0  0  0  0  0  0  0  0  0  0  0
  -19.8830    0.0410  -34.0570 C   0  0  0  0  0  0  0  0  0  0  0  0
  -19.6010    0.1460  -35.2920 O   0  0  0  0  0  0  0  0  0  0  0  0
  -21.2380   -0.0030  -33.5260 C   0  0  0  0  0  0  0  0  0  0  0  0
  -22.3310    0.3600  -34.1810 C   0  0  0  0  0  0  0  0  0  0  0  0
  -23.5270    0.1670  -33.4570 O   0  0  0  0  0  1  0  0  0  0  0  0
  -19.3440   -0.0070  -30.3940 C   0  0  0  0  0  2  0  0  0  0  0  0
  -20.3480    0.0800  -29.3190 C   0  0  0  0  0  2  0  0  0  0  0  0
  -19.9660   -0.2160  -27.9160 C   0  0  0  0  0  2  0  0  0  0  0  0
  -19.2440   -1.4140  -27.6510 N   0  0  0  0  0  4  0  0  0  0  0  0
  -18.1310   -1.1600  -26.7710 C   0  0  0  0  0  2  0  0  0  0  0  0
  -18.4640   -1.3690  -25.3090 C   0  0  0  0  0  2  0  0  0  0  0  0
  -18.7460   -2.7160  -25.0700 O   0  0  0  0  0  0  0  0  0  0  0  0
  -19.1970   -3.3440  -26.2330 C   0  0  0  0  0  2  0  0  0  0  0  0
  -20.1220   -2.3820  -26.9240 C   0  0  0  0  0  2  0  0  0  0  0  0
  -18.9890   -1.9220  -28.4950 H   0  0  0  0  0  0  0  0  0  0  0  0
  -21.2420   -2.0430  -32.1350 C   0  0  0  0  0  0  0  0  0  0  0  0
  -20.7960   -2.7540  -31.0440 C   0  0  0  0  0  3  0  0  0  0  0  0
  -20.8970   -4.1360  -30.9670 C   0  0  0  0  0  0  0  0  0  0  0  0
  -20.2900   -5.1270  -29.4640 Br  0  0  0  0  0  0  0  0  0  0  0  0
  -21.4610   -4.8420  -32.0080 C   0  0  0  0  0  3  0  0  0  0  0  0
  -21.9070   -4.1340  -33.1010 C   0  0  0  0  0  3  0  0  0  0  0  0
  -21.8000   -2.7380  -33.1660 C   0  0  0  0  0  3  0  0  0  0  0  0
  -22.3490    0.9180  -35.5230 C   0  0  0  0  0  0  0  0  0  0  0  0
  -22.0600    2.2220  -35.8470 C   0  0  0  0  0  3  0  0  0  0  0  0
  -22.0600    2.6870  -37.1470 C   0  0  0  0  0  3  0  0  0  0  0  0
  -22.3580    1.8430  -38.1930 C   0  0  0  0  0  0  0  0  0  0  0  0
  -22.6520    0.5290  -37.8860 C   0  0  0  0  0  3  0  0  0  0  0  0
  -22.3640    2.4140  -39.8640 Cl  0  0  0  0  0  0  0  0  0  0  0  0
  -22.6490    0.0730  -36.5820 C   0  0  0  0  0  3  0  0  0  0  0  0
  1 20  1  6  0  0  0
  1  2  1  0  0  0  0
  2 10  1  0  0  0  0
  3  2  1  0  0  0  0
  4  3  2  0  0  0  0
  5  7  1  0  0  0  0
  5  3  1  0  0  0  0
  6  5  2  0  0  0  0
  7  1  1  0  0  0  0
  8  7  2  0  0  0  0
  8  9  1  0  0  0  0
 10 11  1  0  0  0  0
 11 12  1  0  0  0  0
 12 13  1  0  0  0  0
 13 18  1  0  0  0  0
 13 14  1  0  0  0  0
 14 15  1  0  0  0  0
 15 16  1  0  0  0  0
 17 16  1  0  0  0  0
 18 17  1  0  0  0  0
 19 13  1  0  0  0  0
 20 21  1  0  0  0  0
 21 22  2  0  0  0  0
 22 23  1  0  0  0  0
 24 22  1  0  0  0  0
 25 24  2  0  0  0  0
 26 25  1  0  0  0  0
 26 20  2  0  0  0  0
 27  8  1  0  0  0  0
 28 27  1  0  0  0  0
 29 28  2  0  0  0  0
 30 31  2  0  0  0  0
 30 29  1  0  0  0  0
 31 33  1  0  0  0  0
 32 30  1  0  0  0  0
 33 27  2  0  0  0  0
M  END
>  <Pose>
1

>  <Score>
-8.515

$$$$
