/Users/jonathanwahrer/Desktop/Msc/3_Semester/Drug_Design_Praktikum/waehrer_HTS_screening/HTS_experiment/out/docking_results/vina_output/5l4q/0182_docked.pdbqt
 OpenBabel03212217483D

 36 40  0  0  1  0  0  0  0  0999 V2000
  -22.0110    0.1330  -33.6080 C   0  0  2  0  0  3  0  0  0  0  0  0
  -22.9190   -0.1830  -34.6550 N   0  0  0  0  0  0  0  0  0  0  0  0
  -23.1500    1.1110  -35.3040 C   0  0  0  0  0  0  0  0  0  0  0  0
  -24.1710    1.4480  -35.9250 O   0  0  0  0  0  0  0  0  0  0  0  0
  -21.9370    1.9110  -35.0680 C   0  0  0  0  0  0  0  0  0  0  0  0
  -21.6950    3.0790  -35.4480 O   0  0  0  0  0  0  0  0  0  0  0  0
  -21.0500    1.0510  -34.2880 C   0  0  0  0  0  0  0  0  0  0  0  0
  -19.7430    1.0860  -34.2630 C   0  0  0  0  0  0  0  0  0  0  0  0
  -19.0900    0.1090  -33.4800 O   0  0  0  0  0  1  0  0  0  0  0  0
  -21.4530   -0.8940  -32.7810 C   0  0  0  0  0  0  0  0  0  0  0  0
  -21.0440   -0.5770  -31.4690 C   0  0  0  0  0  3  0  0  0  0  0  0
  -20.4890   -1.4930  -30.6150 C   0  0  0  0  0  0  0  0  0  0  0  0
  -19.9580   -0.9900  -28.8440 Br  0  0  0  0  0  0  0  0  0  0  0  0
  -20.2970   -2.7930  -30.9990 C   0  0  0  0  0  3  0  0  0  0  0  0
  -20.6800   -3.1510  -32.2710 C   0  0  0  0  0  3  0  0  0  0  0  0
  -21.2360   -2.2120  -33.1150 C   0  0  0  0  0  3  0  0  0  0  0  0
  -18.9610    2.0760  -34.9880 C   0  0  0  0  0  0  0  0  0  0  0  0
  -18.5080    3.2880  -34.6380 N   0  0  0  0  0  0  0  0  0  0  0  0
  -17.8680    3.8440  -35.6710 C   0  0  0  0  0  0  0  0  0  0  0  0
  -18.6250    3.9110  -33.4330 C   0  0  0  0  0  3  0  0  0  0  0  0
  -17.9180    2.9580  -36.7000 N   0  0  0  0  0  0  0  0  0  0  0  0
  -17.2820    5.1040  -35.5770 C   0  0  0  0  0  0  0  0  0  0  0  0
  -18.5810    1.8580  -36.3210 C   0  0  0  0  0  0  0  0  0  0  0  0
  -18.8590    0.6480  -37.1470 C   0  0  0  0  0  1  0  0  0  0  0  0
  -17.3860    5.7590  -34.3650 C   0  0  0  0  0  3  0  0  0  0  0  0
  -16.5860    5.6730  -36.7570 C   0  0  0  0  0  1  0  0  0  0  0  0
  -18.0540    5.1550  -33.3150 C   0  0  0  0  0  3  0  0  0  0  0  0
  -23.5950   -1.3940  -35.0890 C   0  0  0  0  0  2  0  0  0  0  0  0
  -23.1640   -1.9230  -36.4130 C   0  0  0  0  0  2  0  0  0  0  0  0
  -24.0300   -1.5050  -37.4970 N   0  0  0  0  0  4  0  0  0  0  0  0
  -23.3140   -0.7120  -38.4720 C   0  0  0  0  0  2  0  0  0  0  0  0
  -22.3820   -1.6160  -39.2850 C   0  0  0  0  0  2  0  0  0  0  0  0
  -23.2200   -2.4710  -40.0100 O   0  0  0  0  0  0  0  0  0  0  0  0
  -23.7720   -3.3560  -39.0610 C   0  0  0  0  0  2  0  0  0  0  0  0
  -24.6990   -2.6360  -38.1100 C   0  0  0  0  0  2  0  0  0  0  0  0
  -24.7850   -0.8870  -37.1100 H   0  0  0  0  0  0  0  0  0  0  0  0
  1 10  1  6  0  0  0
  2  1  1  0  0  0  0
  3  5  1  0  0  0  0
  3  2  1  0  0  0  0
  4  3  2  0  0  0  0
  5  7  1  0  0  0  0
  6  5  2  0  0  0  0
  7  8  2  0  0  0  0
  7  1  1  0  0  0  0
  8  9  1  0  0  0  0
 10 11  1  0  0  0  0
 11 12  2  0  0  0  0
 12 13  1  0  0  0  0
 14 12  1  0  0  0  0
 15 14  2  0  0  0  0
 16 10  2  0  0  0  0
 16 15  1  0  0  0  0
 17 18  1  0  0  0  0
 17  8  1  0  0  0  0
 18 20  1  0  0  0  0
 19 22  1  0  0  0  0
 19 18  1  0  0  0  0
 20 27  2  0  0  0  0
 21 23  1  0  0  0  0
 21 19  2  0  0  0  0
 22 25  2  0  0  0  0
 23 17  2  0  0  0  0
 24 23  1  0  0  0  0
 25 27  1  0  0  0  0
 26 22  1  0  0  0  0
 28  2  1  0  0  0  0
 29 28  1  0  0  0  0
 30 36  1  0  0  0  0
 30 29  1  0  0  0  0
 31 30  1  0  0  0  0
 32 31  1  0  0  0  0
 33 32  1  0  0  0  0
 33 34  1  0  0  0  0
 34 35  1  0  0  0  0
 35 30  1  0  0  0  0
M  END
>  <Pose>
1

>  <Score>
-8.348

$$$$
