/Users/jonathanwahrer/Desktop/Msc/3_Semester/Drug_Design_Praktikum/waehrer_HTS_screening/HTS_experiment/out/docking_results/vina_output/5l4q/0188_docked.pdbqt
 OpenBabel03212217483D

 31 34  0  0  1  0  0  0  0  0999 V2000
  -22.0400    0.0700  -36.0240 C   0  0  2  0  0  3  0  0  0  0  0  0
  -22.8820   -0.2100  -34.8710 N   0  0  0  0  0  0  0  0  0  0  0  0
  -23.1150    1.1020  -34.3080 C   0  0  0  0  0  0  0  0  0  0  0  0
  -24.0830    1.4460  -33.5960 O   0  0  0  0  0  0  0  0  0  0  0  0
  -22.0250    1.9820  -34.7070 C   0  0  0  0  0  0  0  0  0  0  0  0
  -21.8090    3.1970  -34.4590 O   0  0  0  0  0  0  0  0  0  0  0  0
  -21.1300    1.1640  -35.5240 C   0  0  0  0  0  0  0  0  0  0  0  0
  -19.8660    1.3300  -35.7890 C   0  0  0  0  0  0  0  0  0  0  0  0
  -19.2410    0.4000  -36.6470 O   0  0  0  0  0  1  0  0  0  0  0  0
  -23.4160   -1.4440  -34.3560 C   0  0  0  0  0  2  0  0  0  0  0  0
  -22.4450   -2.6010  -34.4120 C   0  0  0  0  0  2  0  0  0  0  0  0
  -22.1890   -3.1000  -33.0460 C   0  0  0  0  0  2  0  0  0  0  0  0
  -20.8090   -3.0390  -32.6180 N   0  0  0  0  0  4  0  0  0  0  0  0
  -20.0680   -1.9950  -33.2860 C   0  0  0  0  0  2  0  0  0  0  0  0
  -19.9700   -0.7160  -32.5340 C   0  0  0  0  0  2  0  0  0  0  0  0
  -19.7390   -0.8390  -31.1800 O   0  0  0  0  0  0  0  0  0  0  0  0
  -20.5940   -1.7290  -30.5460 C   0  0  0  0  0  2  0  0  0  0  0  0
  -20.6000   -3.0820  -31.2110 C   0  0  0  0  0  2  0  0  0  0  0  0
  -20.3850   -3.9440  -32.9990 H   0  0  0  0  0  0  0  0  0  0  0  0
  -22.8300    0.6750  -37.1370 C   0  0  0  0  0  0  0  0  0  0  0  0
  -22.2420    1.5660  -38.0070 C   0  0  0  0  0  3  0  0  0  0  0  0
  -22.9290    2.1580  -39.0570 C   0  0  0  0  0  0  0  0  0  0  0  0
  -22.0690    3.3920  -40.2460 Br  0  0  0  0  0  0  0  0  0  0  0  0
  -24.2600    1.8510  -39.2540 C   0  0  0  0  0  3  0  0  0  0  0  0
  -24.8690    0.9580  -38.3920 C   0  0  0  0  0  3  0  0  0  0  0  0
  -24.1620    0.3720  -37.3400 C   0  0  0  0  0  3  0  0  0  0  0  0
  -19.1270    2.4400  -35.2160 C   0  0  0  0  0  0  0  0  0  0  0  0
  -19.0000    3.6000  -35.8030 O   0  0  0  0  0  0  0  0  0  0  0  0
  -18.2880    4.4200  -35.0810 C   0  0  0  0  0  3  0  0  0  0  0  0
  -17.9170    3.7700  -33.9430 C   0  0  0  0  0  3  0  0  0  0  0  0
  -18.4570    2.4820  -34.0240 C   0  0  0  0  0  3  0  0  0  0  0  0
  1 20  1  6  0  0  0
  1  7  1  0  0  0  0
  1  2  1  0  0  0  0
  2 10  1  0  0  0  0
  2  3  1  0  0  0  0
  3  4  2  0  0  0  0
  5  6  2  0  0  0  0
  5  3  1  0  0  0  0
  7  5  1  0  0  0  0
  8  7  2  0  0  0  0
  8 27  1  0  0  0  0
  9  8  1  0  0  0  0
 11 10  1  0  0  0  0
 11 12  1  0  0  0  0
 12 13  1  0  0  0  0
 13 18  1  0  0  0  0
 14 13  1  0  0  0  0
 14 15  1  0  0  0  0
 15 16  1  0  0  0  0
 16 17  1  0  0  0  0
 18 17  1  0  0  0  0
 19 13  1  0  0  0  0
 21 20  2  0  0  0  0
 22 21  1  0  0  0  0
 23 22  1  0  0  0  0
 24 22  2  0  0  0  0
 24 25  1  0  0  0  0
 25 26  2  0  0  0  0
 26 20  1  0  0  0  0
 27 31  2  0  0  0  0
 28 27  1  0  0  0  0
 28 29  1  0  0  0  0
 29 30  2  0  0  0  0
 31 30  1  0  0  0  0
M  END
>  <Pose>
1

>  <Score>
-7.497

$$$$
