/Users/jonathanwahrer/Desktop/Msc/3_Semester/Drug_Design_Praktikum/waehrer_HTS_screening/HTS_experiment/out/docking_results/vina_output/5l4q/0191_docked.pdbqt
 OpenBabel03212217493D

 34 37  0  0  1  0  0  0  0  0999 V2000
  -21.0780   -0.4870  -34.8520 C   0  0  2  0  0  3  0  0  0  0  0  0
  -22.4690   -0.0840  -34.8970 N   0  0  0  0  0  0  0  0  0  0  0  0
  -22.7080    0.6340  -33.6670 C   0  0  0  0  0  0  0  0  0  0  0  0
  -23.6220    1.4720  -33.4780 O   0  0  0  0  0  0  0  0  0  0  0  0
  -21.6860    0.1870  -32.7150 C   0  0  0  0  0  0  0  0  0  0  0  0
  -21.5160    0.5490  -31.5230 O   0  0  0  0  0  0  0  0  0  0  0  0
  -20.8450   -0.7950  -33.3920 C   0  0  0  0  0  0  0  0  0  0  0  0
  -20.0670   -1.7100  -32.8410 C   0  0  0  0  0  0  0  0  0  0  0  0
  -19.3300   -2.5390  -33.6490 O   0  0  0  0  0  1  0  0  0  0  0  0
  -20.1420    0.5670  -35.3210 C   0  0  0  0  0  0  0  0  0  0  0  0
  -20.3820    1.2820  -36.4970 C   0  0  0  0  0  3  0  0  0  0  0  0
  -19.5480    2.2540  -36.9660 C   0  0  0  0  0  0  0  0  0  0  0  0
  -19.9620    3.1880  -38.5980 Br  0  0  0  0  0  0  0  0  0  0  0  0
  -18.4150    2.5700  -36.2770 C   0  0  0  0  0  3  0  0  0  0  0  0
  -18.1310    1.9020  -35.1200 C   0  0  0  0  0  3  0  0  0  0  0  0
  -18.9890    0.9110  -34.6510 C   0  0  0  0  0  3  0  0  0  0  0  0
  -19.9760   -1.8620  -31.3770 C   0  0  0  0  0  0  0  0  0  0  0  0
  -19.2550   -1.1200  -30.5810 O   0  0  0  0  0  0  0  0  0  0  0  0
  -19.3460   -1.4540  -29.3370 C   0  0  0  0  0  0  0  0  0  0  0  0
  -20.2080   -2.5230  -29.2760 C   0  0  0  0  0  0  0  0  0  0  0  0
  -18.7420   -0.9180  -28.2070 C   0  0  0  0  0  0  0  0  0  0  0  0
  -20.6060   -2.7800  -30.5710 C   0  0  0  0  0  3  0  0  0  0  0  0
  -20.4750   -3.0740  -28.0420 C   0  0  0  0  0  3  0  0  0  0  0  0
  -19.9020   -2.5820  -26.8870 C   0  0  0  0  0  3  0  0  0  0  0  0
  -19.0320   -1.4930  -26.9960 C   0  0  0  0  0  3  0  0  0  0  0  0
  -17.8850    0.1510  -28.2700 O   0  0  0  0  0  0  0  0  0  0  0  0
  -17.6820    1.1180  -27.2910 C   0  0  0  0  0  1  0  0  0  0  0  0
  -23.4380   -0.3090  -35.9420 C   0  0  0  0  0  2  0  0  0  0  0  0
  -23.3510   -1.7150  -36.4840 C   0  0  0  0  0  2  0  0  0  0  0  0
  -23.9030   -1.9010  -37.8510 C   0  0  0  0  0  2  0  0  0  0  0  0
  -23.0320   -2.5630  -38.7720 N   0  0  0  0  0  4  0  0  0  0  0  0
  -22.2360   -1.5880  -39.5230 C   0  0  0  0  0  1  0  0  0  0  0  0
  -23.7290   -3.4140  -39.6850 C   0  0  0  0  0  1  0  0  0  0  0  0
  -22.3060   -3.1600  -38.2810 H   0  0  0  0  0  0  0  0  0  0  0  0
  1 10  1  1  0  0  0
  1  7  1  0  0  0  0
  2  1  1  0  0  0  0
  2  3  1  0  0  0  0
  3  4  2  0  0  0  0
  3  5  1  0  0  0  0
  5  6  2  0  0  0  0
  7  8  2  0  0  0  0
  7  5  1  0  0  0  0
  8 17  1  0  0  0  0
  9  8  1  0  0  0  0
 10 16  1  0  0  0  0
 11 10  2  0  0  0  0
 12 11  1  0  0  0  0
 12 14  2  0  0  0  0
 13 12  1  0  0  0  0
 14 15  1  0  0  0  0
 15 16  2  0  0  0  0
 17 18  1  0  0  0  0
 17 22  2  0  0  0  0
 18 19  1  0  0  0  0
 19 20  2  0  0  0  0
 19 21  1  0  0  0  0
 20 23  1  0  0  0  0
 21 25  2  0  0  0  0
 22 20  1  0  0  0  0
 23 24  2  0  0  0  0
 25 24  1  0  0  0  0
 26 21  1  0  0  0  0
 26 27  1  0  0  0  0
 28  2  1  0  0  0  0
 29 28  1  0  0  0  0
 30 29  1  0  0  0  0
 31 34  1  0  0  0  0
 31 30  1  0  0  0  0
 32 31  1  0  0  0  0
 33 31  1  0  0  0  0
M  END
>  <Pose>
1

>  <Score>
-8.365

$$$$
