/Users/jonathanwahrer/Desktop/Msc/3_Semester/Drug_Design_Praktikum/waehrer_HTS_screening/HTS_experiment/out/docking_results/vina_output/5l4q/0199_docked.pdbqt
 OpenBabel03212217493D

 25 28  0  0  1  0  0  0  0  0999 V2000
  -21.1560    1.3330  -35.0580 C   0  0  2  0  0  3  0  0  0  0  0  0
  -22.1550    1.5440  -36.1650 C   0  0  0  0  0  2  0  0  0  0  0  0
  -21.4050    0.6440  -37.0530 N   0  0  0  0  0  0  0  0  0  0  0  0
  -20.2730    0.8390  -36.1660 C   0  0  0  0  0  2  0  0  0  0  0  0
  -21.5600    0.2780  -34.0640 C   0  0  0  0  0  0  0  0  0  0  0  0
  -20.9320   -0.9760  -34.1060 N   0  0  0  0  0  0  0  0  0  0  0  0
  -20.1680   -1.1490  -34.8570 H   0  0  0  0  0  0  0  0  0  0  0  0
  -22.4460    0.6190  -33.2670 O   0  0  0  0  0  0  0  0  0  0  0  0
  -21.2080   -2.0550  -33.2430 C   0  0  0  0  0  0  0  0  0  0  0  0
  -20.6160   -2.0810  -31.9720 C   0  0  0  0  0  3  0  0  0  0  0  0
  -20.8310   -3.0950  -31.0680 C   0  0  0  0  0  0  0  0  0  0  0  0
  -20.0060   -3.0900  -29.3510 Br  0  0  0  0  0  0  0  0  0  0  0  0
  -21.6520   -4.1320  -31.3990 C   0  0  0  0  0  3  0  0  0  0  0  0
  -22.2380   -4.1310  -32.6240 C   0  0  0  0  0  3  0  0  0  0  0  0
  -22.0260   -3.1060  -33.5490 C   0  0  0  0  0  3  0  0  0  0  0  0
  -21.7330   -0.0610  -38.2440 C   0  0  0  0  0  0  0  0  0  0  0  0
  -21.1910    0.2620  -39.4470 N   0  0  0  0  0  0  0  0  0  0  0  0
  -21.5220   -0.4320  -40.5750 C   0  0  0  0  0  3  0  0  0  0  0  0
  -22.3890   -1.4490  -40.5340 N   0  0  0  0  0  0  0  0  0  0  0  0
  -22.9580   -1.8190  -39.3860 C   0  0  0  0  0  0  0  0  0  0  0  0
  -23.8450   -2.7900  -39.0860 N   0  0  0  0  0  0  0  0  0  0  0  0
  -22.6220   -1.1170  -38.2470 C   0  0  0  0  0  0  0  0  0  0  0  0
  -24.0640   -2.7050  -37.7920 N   0  0  0  0  0  0  0  0  0  0  0  0
  -24.4590   -3.7600  -39.9900 C   0  0  0  0  0  1  0  0  0  0  0  0
  -23.3450   -1.7100  -37.2590 N   0  0  0  0  0  0  0  0  0  0  0  0
  1  5  1  1  0  0  0
  2  1  1  0  0  0  0
  3  4  1  0  0  0  0
  3  2  1  0  0  0  0
  4  1  1  0  0  0  0
  5  8  2  0  0  0  0
  6  5  1  0  0  0  0
  6  9  1  0  0  0  0
  7  6  1  0  0  0  0
  9 10  1  0  0  0  0
 10 11  2  0  0  0  0
 11 12  1  0  0  0  0
 13 11  1  0  0  0  0
 14 13  2  0  0  0  0
 15  9  2  0  0  0  0
 15 14  1  0  0  0  0
 16  3  1  0  0  0  0
 17 16  2  0  0  0  0
 18 19  2  0  0  0  0
 18 17  1  0  0  0  0
 19 20  1  0  0  0  0
 20 21  1  0  0  0  0
 20 22  2  0  0  0  0
 21 23  1  0  0  0  0
 22 16  1  0  0  0  0
 22 25  1  0  0  0  0
 23 25  2  0  0  0  0
 24 21  1  0  0  0  0
M  END
>  <Pose>
1

>  <Score>
-8.097

$$$$
