/Users/jonathanwahrer/Desktop/Msc/3_Semester/Drug_Design_Praktikum/waehrer_HTS_screening/HTS_experiment/out/docking_results/vina_output/5l4q/0200_docked.pdbqt
 OpenBabel03212217493D

 21 24  0  0  1  0  0  0  0  0999 V2000
  -22.8050   -0.9430  -37.4170 C   0  0  1  0  0  3  0  0  0  0  0  0
  -22.0460   -0.1110  -38.1220 N   0  0  0  0  0  0  0  0  0  0  0  0
  -21.7770   -0.2290  -39.4330 C   0  0  0  0  0  0  0  0  0  0  0  0
  -21.0660    0.4550  -40.3460 N   0  0  0  0  0  2  0  0  0  0  0  0
  -21.1360   -0.1040  -41.5130 O   0  0  0  0  0  0  0  0  0  0  0  0
  -21.8790   -1.1470  -41.3990 N   0  0  0  0  0  0  0  0  0  0  0  0
  -22.3180   -1.2950  -40.1380 C   0  0  0  0  0  0  0  0  0  0  0  0
  -23.0910   -2.1640  -39.4690 N   0  0  0  0  0  0  0  0  0  0  0  0
  -23.7130   -3.2510  -39.9170 N   0  0  0  0  0  0  0  0  0  0  0  0
  -24.3620   -3.7930  -38.8750 N   0  0  0  0  0  0  0  0  0  0  0  0
  -24.1290   -3.0330  -37.8040 N   0  0  0  0  0  0  0  0  0  0  0  0
  -23.3390   -2.0150  -38.1580 C   0  0  0  0  0  0  0  0  0  0  0  0
  -23.1150   -0.8600  -36.0390 N   0  0  0  0  0  0  0  0  0  0  0  0
  -24.0110   -0.3840  -35.7330 H   0  0  0  0  0  0  0  0  0  0  0  0
  -22.3070   -1.3710  -35.0020 C   0  0  0  0  0  0  0  0  0  0  0  0
  -22.5600   -2.4760  -34.2350 C   0  0  0  0  0  3  0  0  0  0  0  0
  -21.7390   -2.9460  -33.2240 C   0  0  0  0  0  0  0  0  0  0  0  0
  -22.1840   -4.4990  -32.2110 Br  0  0  0  0  0  0  0  0  0  0  0  0
  -20.5780   -2.2680  -32.9520 C   0  0  0  0  0  3  0  0  0  0  0  0
  -20.2640   -1.1480  -33.6880 C   0  0  0  0  0  3  0  0  0  0  0  0
  -21.1020   -0.7110  -34.6840 C   0  0  0  0  0  3  0  0  0  0  0  0
  1 13  1  1  0  0  0
  2  1  1  0  0  0  0
  3  2  2  0  0  0  0
  4  3  1  0  0  0  0
  5  6  1  0  0  0  0
  5  4  1  0  0  0  0
  6  7  2  0  0  0  0
  7  8  1  0  0  0  0
  7  3  1  0  0  0  0
  8 12  1  0  0  0  0
  9  8  1  0  0  0  0
  9 10  2  0  0  0  0
 10 11  1  0  0  0  0
 12 11  2  0  0  0  0
 12  1  1  0  0  0  0
 13 14  1  0  0  0  0
 13 15  1  0  0  0  0
 15 21  2  0  0  0  0
 15 16  1  0  0  0  0
 16 17  2  0  0  0  0
 17 19  1  0  0  0  0
 17 18  1  0  0  0  0
 20 19  2  0  0  0  0
 21 20  1  0  0  0  0
M  END
>  <Pose>
1

>  <Score>
-7.992

$$$$
