/Users/jonathanwahrer/Desktop/Msc/3_Semester/Drug_Design_Praktikum/waehrer_HTS_screening/HTS_experiment/out/docking_results/vina_output/5l4q/0201_docked.pdbqt
 OpenBabel03212217493D

 25 28  0  0  0  0  0  0  0  0999 V2000
  -20.1550   -4.3670  -28.0750 C   0  0  0  0  0  0  0  0  0  0  0  0
  -20.5540   -5.4850  -27.6640 O   0  0  0  0  0  0  0  0  0  0  0  0
  -20.2390   -4.0780  -29.4520 N   0  0  0  0  0  0  0  0  0  0  0  0
  -19.9030   -3.1430  -29.7750 H   0  0  0  0  0  0  0  0  0  0  0  0
  -19.6250   -3.4230  -27.0980 C   0  0  0  0  0  0  0  0  0  0  0  0
  -19.2020   -3.6800  -25.8370 N   0  0  0  0  0  0  0  0  0  0  0  0
  -18.7990   -2.5420  -25.2950 N   0  0  0  0  0  0  0  0  0  0  0  0
  -18.9370   -1.5550  -26.1400 N   0  0  0  0  0  0  0  0  0  0  0  0
  -19.4480   -2.0690  -27.2710 C   0  0  0  0  0  3  0  0  0  0  0  0
  -18.6280   -0.1640  -25.9730 C   0  0  0  0  0  0  0  0  0  0  0  0
  -18.1260    0.3540  -24.8040 C   0  0  0  0  0  3  0  0  0  0  0  0
  -17.8400    1.7190  -24.6910 C   0  0  0  0  0  0  0  0  0  0  0  0
  -17.1440    2.4410  -23.0710 Br  0  0  0  0  0  0  0  0  0  0  0  0
  -18.0560    2.5750  -25.7490 C   0  0  0  0  0  3  0  0  0  0  0  0
  -18.5580    2.0670  -26.9250 C   0  0  0  0  0  3  0  0  0  0  0  0
  -18.8400    0.7000  -27.0250 C   0  0  0  0  0  3  0  0  0  0  0  0
  -20.7580   -4.9870  -30.4480 C   0  0  0  0  0  2  0  0  0  0  0  0
  -21.2440   -4.2410  -31.6610 C   0  0  0  0  0  0  0  0  0  0  0  0
  -20.9400   -2.9780  -32.0460 N   0  0  0  0  0  0  0  0  0  0  0  0
  -21.5790   -2.6930  -33.1860 C   0  0  0  0  0  0  0  0  0  0  0  0
  -20.1410   -1.8530  -31.5940 C   0  0  0  0  0  2  0  0  0  0  0  0
  -22.2880   -3.8030  -33.5020 N   0  0  0  0  0  0  0  0  0  0  0  0
  -21.2660   -1.2920  -33.6470 C   0  0  0  0  0  2  0  0  0  0  0  0
  -22.0860   -4.7310  -32.5880 N   0  0  0  0  0  0  0  0  0  0  0  0
  -20.7220   -0.6860  -32.3710 C   0  0  0  0  0  2  0  0  0  0  0  0
  1  2  2  0  0  0  0
  1  5  1  0  0  0  0
  3  1  1  0  0  0  0
  4  3  1  0  0  0  0
  5  6  1  0  0  0  0
  6  7  2  0  0  0  0
  8 10  1  0  0  0  0
  8  7  1  0  0  0  0
  9  5  2  0  0  0  0
  9  8  1  0  0  0  0
 10 11  1  0  0  0  0
 11 12  2  0  0  0  0
 12 13  1  0  0  0  0
 14 12  1  0  0  0  0
 15 14  2  0  0  0  0
 16 15  1  0  0  0  0
 16 10  2  0  0  0  0
 17  3  1  0  0  0  0
 18 17  1  0  0  0  0
 19 18  1  0  0  0  0
 19 21  1  0  0  0  0
 20 19  1  0  0  0  0
 22 20  2  0  0  0  0
 22 24  1  0  0  0  0
 23 20  1  0  0  0  0
 23 25  1  0  0  0  0
 24 18  2  0  0  0  0
 25 21  1  0  0  0  0
M  END
>  <Pose>
1

>  <Score>
-9.191

$$$$
