/Users/jonathanwahrer/Desktop/Msc/3_Semester/Drug_Design_Praktikum/waehrer_HTS_screening/HTS_experiment/out/docking_results/vina_output/5l4q/0211_docked.pdbqt
 OpenBabel03212217493D

 22 25  0  0  1  0  0  0  0  0999 V2000
  -19.7800   -1.6010  -31.8340 N   0  0  0  0  0  0  0  0  0  0  0  0
  -20.3560   -2.3270  -32.9110 C   0  0  0  0  0  0  0  0  0  0  0  0
  -20.7310   -3.5560  -32.8480 O   0  0  0  0  0  0  0  0  0  0  0  0
  -20.4480   -1.4470  -34.0850 C   0  0  1  0  0  3  0  0  0  0  0  0
  -21.8030   -0.8090  -34.0910 C   0  0  1  0  0  0  0  0  0  0  0  0
  -21.6580    0.0670  -32.9840 O   0  0  0  0  0  0  0  0  0  0  0  0
  -20.5820    0.8210  -33.5230 C   0  0  1  0  0  3  0  0  0  0  0  0
  -19.5630   -0.2830  -33.7380 C   0  0  1  0  0  3  0  0  0  0  0  0
  -18.9830   -0.5820  -32.4140 C   0  0  0  0  0  0  0  0  0  0  0  0
  -17.9720   -0.0270  -31.9100 O   0  0  0  0  0  0  0  0  0  0  0  0
  -21.1840    1.2370  -34.8100 C   0  0  0  0  0  2  0  0  0  0  0  0
  -21.9790    0.2080  -35.1620 C   0  0  0  0  0  2  0  0  0  0  0  0
  -19.9700   -1.8550  -30.4230 C   0  0  0  0  0  0  0  0  0  0  0  0
  -20.0330   -3.1420  -29.9100 C   0  0  0  0  0  3  0  0  0  0  0  0
  -20.2080   -3.4420  -28.5970 C   0  0  0  0  0  0  0  0  0  0  0  0
  -20.2760   -5.2670  -28.0390 Br  0  0  0  0  0  0  0  0  0  0  0  0
  -20.3330   -2.4050  -27.6930 C   0  0  0  0  0  3  0  0  0  0  0  0
  -20.2770   -1.1060  -28.1540 C   0  0  0  0  0  3  0  0  0  0  0  0
  -20.0960   -0.8310  -29.5120 C   0  0  0  0  0  3  0  0  0  0  0  0
  -22.9460   -1.7410  -33.9540 C   0  0  0  0  0  2  0  0  0  0  0  0
  -22.9020   -2.6610  -35.0030 O   0  0  0  0  0  0  0  0  0  0  0  0
  -22.7410   -3.5730  -34.6530 H   0  0  0  0  0  0  0  0  0  0  0  0
  1 13  1  0  0  0  0
  2  3  2  0  0  0  0
  2  1  1  0  0  0  0
  4  8  1  0  0  0  0
  4  2  1  1  0  0  0
  5  4  1  0  0  0  0
  5 20  1  1  0  0  0
  5  6  1  0  0  0  0
  7 11  1  6  0  0  0
  7  6  1  0  0  0  0
  8  7  1  0  0  0  0
  8  9  1  1  0  0  0
  9 10  2  0  0  0  0
  9  1  1  0  0  0  0
 12 11  1  0  0  0  0
 12  5  1  0  0  0  0
 13 14  2  0  0  0  0
 13 19  1  0  0  0  0
 14 15  1  0  0  0  0
 15 16  1  0  0  0  0
 15 17  2  0  0  0  0
 18 17  1  0  0  0  0
 19 18  2  0  0  0  0
 21 22  1  0  0  0  0
 21 20  1  0  0  0  0
M  END
>  <Pose>
1

>  <Score>
-7.578

$$$$
