/Users/jonathanwahrer/Desktop/Msc/3_Semester/Drug_Design_Praktikum/waehrer_HTS_screening/HTS_experiment/out/docking_results/vina_output/5l4q/0213_docked.pdbqt
 OpenBabel03212217493D

 25 28  0  0  1  0  0  0  0  0999 V2000
  -19.7890   -1.9150  -29.0820 N   0  0  0  0  0  0  0  0  0  0  0  0
  -20.6670   -3.0480  -29.2610 C   0  0  0  0  0  0  0  0  0  0  0  0
  -21.4510   -3.5420  -28.4440 O   0  0  0  0  0  0  0  0  0  0  0  0
  -20.4720   -3.5490  -30.6530 C   0  0  1  0  0  3  0  0  0  0  0  0
  -21.6230   -4.0250  -31.2530 O   0  0  0  0  0  0  0  0  0  0  0  0
  -21.3840   -3.7360  -32.5760 N   0  0  0  0  0  0  0  0  0  0  0  0
  -20.8600   -2.3960  -32.5590 C   0  0  0  0  0  0  0  0  0  0  0  0
  -20.2900   -2.2380  -31.3900 C   0  0  0  0  0  0  0  0  0  0  0  0
  -19.5590   -1.4160  -30.4180 C   0  0  0  0  0  0  0  0  0  0  0  0
  -18.8640   -0.4500  -30.7510 O   0  0  0  0  0  0  0  0  0  0  0  0
  -21.5340   -4.3200  -33.4060 H   0  0  0  0  0  0  0  0  0  0  0  0
  -19.2910   -1.4370  -27.8480 C   0  0  0  0  0  0  0  0  0  0  0  0
  -19.1320   -0.0860  -27.6420 C   0  0  0  0  0  3  0  0  0  0  0  0
  -18.6350    0.4120  -26.4330 C   0  0  0  0  0  0  0  0  0  0  0  0
  -18.4240    2.2860  -26.1760 Br  0  0  0  0  0  0  0  0  0  0  0  0
  -18.2870   -0.4320  -25.4040 C   0  0  0  0  0  3  0  0  0  0  0  0
  -18.4460   -1.7860  -25.6090 C   0  0  0  0  0  3  0  0  0  0  0  0
  -18.9440   -2.2810  -26.8220 C   0  0  0  0  0  3  0  0  0  0  0  0
  -20.9320   -1.3920  -33.5860 C   0  0  0  0  0  0  0  0  0  0  0  0
  -19.8250   -0.6430  -33.9800 C   0  0  0  0  0  3  0  0  0  0  0  0
  -20.1810    0.2030  -34.9630 N   0  0  0  0  0  0  0  0  0  0  0  0
  -21.4690   -0.0120  -35.1730 N   0  0  0  0  0  0  0  0  0  0  0  0
  -19.3070    1.1670  -35.6510 C   0  0  0  0  0  1  0  0  0  0  0  0
  -21.9690   -0.9560  -34.3780 C   0  0  0  0  0  0  0  0  0  0  0  0
  -23.3770   -1.4770  -34.3290 C   0  0  0  0  0  1  0  0  0  0  0  0
  1 12  1  0  0  0  0
  2  1  1  0  0  0  0
  2  3  2  0  0  0  0
  4  8  1  6  0  0  0
  4  2  1  0  0  0  0
  5  4  1  0  0  0  0
  6  7  1  0  0  0  0
  6  5  1  0  0  0  0
  7  8  2  0  0  0  0
  8  9  1  0  0  0  0
  9  1  1  0  0  0  0
 10  9  2  0  0  0  0
 11  6  1  0  0  0  0
 12 13  2  0  0  0  0
 12 18  1  0  0  0  0
 13 14  1  0  0  0  0
 14 15  1  0  0  0  0
 14 16  2  0  0  0  0
 17 16  1  0  0  0  0
 18 17  2  0  0  0  0
 19  7  1  0  0  0  0
 20 19  2  0  0  0  0
 21 20  1  0  0  0  0
 22 21  1  0  0  0  0
 22 24  2  0  0  0  0
 23 21  1  0  0  0  0
 24 25  1  0  0  0  0
 24 19  1  0  0  0  0
M  END
>  <Pose>
1

>  <Score>
-8.855

$$$$
