/Users/jonathanwahrer/Desktop/Msc/3_Semester/Drug_Design_Praktikum/waehrer_HTS_screening/HTS_experiment/out/docking_results/vina_output/5l4q/0226_docked.pdbqt
 OpenBabel03212217503D

 30 33  0  0  0  0  0  0  0  0999 V2000
  -21.8040    0.2940  -35.4510 N   0  0  0  0  0  0  0  0  0  0  0  0
  -22.2650   -0.4850  -36.4440 C   0  0  0  0  0  0  0  0  0  0  0  0
  -22.0160    0.1160  -37.6620 C   0  0  0  0  0  0  0  0  0  0  0  0
  -21.3960    1.2640  -37.3620 N   0  0  0  0  0  0  0  0  0  0  0  0
  -21.2540    1.3980  -36.0310 C   0  0  0  0  0  0  0  0  0  0  0  0
  -22.3920   -0.4880  -38.8040 N   0  0  0  0  0  0  0  0  0  0  0  0
  -23.0130   -1.6800  -38.7770 C   0  0  0  0  0  0  0  0  0  0  0  0
  -23.3810   -2.2790  -39.8180 O   0  0  0  0  0  0  0  0  0  0  0  0
  -23.2650   -2.2840  -37.5830 N   0  0  0  0  0  0  0  0  0  0  0  0
  -22.9090   -1.7200  -36.4150 C   0  0  0  0  0  0  0  0  0  0  0  0
  -23.1640   -2.3160  -35.3180 O   0  0  0  0  0  0  0  0  0  0  0  0
  -22.1450    0.1170  -40.0970 C   0  0  0  0  0  1  0  0  0  0  0  0
  -23.7500   -3.2110  -37.6050 H   0  0  0  0  0  0  0  0  0  0  0  0
  -21.8580    0.0290  -34.0410 C   0  0  0  0  0  2  0  0  0  0  0  0
  -20.7370   -0.8390  -33.5620 C   0  0  0  0  0  0  0  0  0  0  0  0
  -19.9310   -1.3350  -34.3660 O   0  0  0  0  0  0  0  0  0  0  0  0
  -20.5660   -1.1220  -32.1390 C   0  0  0  0  0  0  0  0  0  0  0  0
  -20.2730   -0.1290  -31.2370 C   0  0  0  0  0  3  0  0  0  0  0  0
  -20.1090   -0.4010  -29.8890 C   0  0  0  0  0  3  0  0  0  0  0  0
  -20.2320   -1.6880  -29.3870 C   0  0  0  0  0  0  0  0  0  0  0  0
  -19.9990   -2.0190  -27.5290 Br  0  0  0  0  0  0  0  0  0  0  0  0
  -20.5250   -2.6860  -30.2900 C   0  0  0  0  0  3  0  0  0  0  0  0
  -20.6860   -2.4010  -31.6270 C   0  0  0  0  0  3  0  0  0  0  0  0
  -20.6540    2.4530  -35.3030 N   0  0  0  0  0  0  0  0  0  0  0  0
  -21.4320    3.6070  -34.9860 C   0  0  0  0  0  2  0  0  0  0  0  0
  -20.9010    4.5170  -33.9420 C   0  0  0  0  0  2  0  0  0  0  0  0
  -19.4810    4.4870  -33.7510 N   0  0  0  0  0  0  0  0  0  0  0  0
  -19.0820    3.1040  -33.5740 C   0  0  0  0  0  2  0  0  0  0  0  0
  -18.7450    5.1520  -34.7880 C   0  0  0  0  0  1  0  0  0  0  0  0
  -19.2880    2.3520  -34.8900 C   0  0  0  0  0  2  0  0  0  0  0  0
  1 14  1  0  0  0  0
  2 10  1  0  0  0  0
  2  1  1  0  0  0  0
  3  4  1  0  0  0  0
  3  2  2  0  0  0  0
  4  5  2  0  0  0  0
  5  1  1  0  0  0  0
  5 24  1  0  0  0  0
  6  7  1  0  0  0  0
  6  3  1  0  0  0  0
  7  9  1  0  0  0  0
  8  7  2  0  0  0  0
  9 10  1  0  0  0  0
 10 11  2  0  0  0  0
 12  6  1  0  0  0  0
 13  9  1  0  0  0  0
 14 15  1  0  0  0  0
 15 17  1  0  0  0  0
 16 15  2  0  0  0  0
 17 23  2  0  0  0  0
 17 18  1  0  0  0  0
 18 19  2  0  0  0  0
 19 20  1  0  0  0  0
 20 21  1  0  0  0  0
 22 20  2  0  0  0  0
 23 22  1  0  0  0  0
 24 25  1  0  0  0  0
 24 30  1  0  0  0  0
 25 26  1  0  0  0  0
 26 27  1  0  0  0  0
 27 28  1  0  0  0  0
 29 27  1  0  0  0  0
 30 28  1  0  0  0  0
M  END
>  <Pose>
1

>  <Score>
-8.320

$$$$
