/Users/jonathanwahrer/Desktop/Msc/3_Semester/Drug_Design_Praktikum/waehrer_HTS_screening/HTS_experiment/out/docking_results/vina_output/5l4q/0231_docked.pdbqt
 OpenBabel03212217513D

 34 37  0  0  1  0  0  0  0  0999 V2000
  -22.3990   -0.5470  -34.6870 C   0  0  2  0  0  3  0  0  0  0  0  0
  -21.6880   -0.6350  -36.0150 C   0  0  1  0  0  3  0  0  0  0  0  0
  -22.7880   -0.5980  -36.9520 N   0  0  0  0  0  0  0  0  0  0  0  0
  -23.7760    0.2500  -36.3750 C   0  0  0  0  0  0  0  0  0  0  0  0
  -24.8340    0.6540  -36.9490 O   0  0  0  0  0  0  0  0  0  0  0  0
  -23.3560    0.5770  -34.9990 C   0  0  0  0  0  0  0  0  0  0  0  0
  -23.7200    1.5420  -34.3080 O   0  0  0  0  0  0  0  0  0  0  0  0
  -21.5490   -0.2460  -33.5500 C   0  0  0  0  0  0  0  0  0  0  0  0
  -21.0760    0.8970  -33.3800 O   0  0  0  0  0  0  0  0  0  0  0  0
  -21.2350   -1.2820  -32.5830 C   0  0  0  0  0  0  0  0  0  0  0  0
  -21.4630   -2.6300  -32.8790 C   0  0  0  0  0  3  0  0  0  0  0  0
  -21.1800   -3.6260  -31.9800 C   0  0  0  0  0  3  0  0  0  0  0  0
  -20.6570   -3.2990  -30.7520 C   0  0  0  0  0  0  0  0  0  0  0  0
  -20.2710   -4.6910  -29.5210 Br  0  0  0  0  0  0  0  0  0  0  0  0
  -20.4100   -1.9980  -30.4020 C   0  0  0  0  0  3  0  0  0  0  0  0
  -20.7080   -1.0210  -31.3340 C   0  0  0  0  0  3  0  0  0  0  0  0
  -20.6820    0.3930  -36.2300 C   0  0  0  0  0  0  0  0  0  0  0  0
  -21.0150    1.6760  -36.6880 C   0  0  0  0  0  3  0  0  0  0  0  0
  -20.0560    2.6480  -36.8850 C   0  0  0  0  0  0  0  0  0  0  0  0
  -18.7200    2.3920  -36.6340 C   0  0  0  0  0  0  0  0  0  0  0  0
  -18.3710    1.1380  -36.1820 C   0  0  0  0  0  3  0  0  0  0  0  0
  -17.7350    3.3520  -36.8250 O   0  0  0  0  0  1  0  0  0  0  0  0
  -19.3460    0.1720  -35.9900 C   0  0  0  0  0  3  0  0  0  0  0  0
  -20.3780    3.9150  -37.3380 O   0  0  0  0  0  0  0  0  0  0  0  0
  -21.6290    4.5210  -37.1320 C   0  0  0  0  0  1  0  0  0  0  0  0
  -22.9400   -1.2530  -38.2270 C   0  0  0  0  0  2  0  0  0  0  0  0
  -22.0190   -0.7250  -39.2850 C   0  0  0  0  0  2  0  0  0  0  0  0
  -22.6420   -0.0350  -40.3470 N   0  0  0  0  0  4  0  0  0  0  0  0
  -21.7570   -0.1030  -41.5150 C   0  0  0  0  0  2  0  0  0  0  0  0
  -20.5290    0.7300  -41.3530 C   0  0  0  0  0  2  0  0  0  0  0  0
  -20.5780    1.6330  -40.3200 O   0  0  0  0  0  0  0  0  0  0  0  0
  -21.7920    2.2740  -40.2740 C   0  0  0  0  0  2  0  0  0  0  0  0
  -22.9560    1.3320  -40.1260 C   0  0  0  0  0  2  0  0  0  0  0  0
  -23.5260   -0.5270  -40.6560 H   0  0  0  0  0  0  0  0  0  0  0  0
  1  8  1  1  0  0  0
  2 17  1  6  0  0  0
  2  1  1  0  0  0  0
  3  4  1  0  0  0  0
  3  2  1  0  0  0  0
  4  6  1  0  0  0  0
  5  4  2  0  0  0  0
  6  1  1  0  0  0  0
  6  7  2  0  0  0  0
  8  9  2  0  0  0  0
  8 10  1  0  0  0  0
 10 16  1  0  0  0  0
 11 10  2  0  0  0  0
 11 12  1  0  0  0  0
 12 13  2  0  0  0  0
 13 15  1  0  0  0  0
 13 14  1  0  0  0  0
 16 15  2  0  0  0  0
 17 23  1  0  0  0  0
 18 17  2  0  0  0  0
 19 18  1  0  0  0  0
 19 20  2  0  0  0  0
 20 21  1  0  0  0  0
 21 23  2  0  0  0  0
 22 20  1  0  0  0  0
 24 25  1  0  0  0  0
 24 19  1  0  0  0  0
 26  3  1  0  0  0  0
 27 26  1  0  0  0  0
 28 33  1  0  0  0  0
 28 27  1  0  0  0  0
 29 30  1  0  0  0  0
 29 28  1  0  0  0  0
 30 31  1  0  0  0  0
 31 32  1  0  0  0  0
 32 33  1  0  0  0  0
 34 28  1  0  0  0  0
M  END
>  <Pose>
1

>  <Score>
-7.857

$$$$
