/Users/jonathanwahrer/Desktop/Msc/3_Semester/Drug_Design_Praktikum/waehrer_HTS_screening/HTS_experiment/out/docking_results/vina_output/5l4q/0235_docked.pdbqt
 OpenBabel03212217513D

 25 28  0  0  1  0  0  0  0  0999 V2000
  -21.8060   -0.1150  -33.5990 C   0  0  1  0  0  3  0  0  0  0  0  0
  -21.2960    0.7300  -34.6660 N   0  0  0  0  0  0  0  0  0  0  0  0
  -20.1630    0.7940  -35.4510 N   0  0  0  0  0  2  0  0  0  0  0  0
  -20.0210    1.6140  -36.4320 C   0  0  0  0  0  3  0  0  0  0  0  0
  -21.0840    2.5400  -36.7480 C   0  0  0  0  0  3  0  0  0  0  0  0
  -22.1820    2.5600  -36.0300 C   0  0  0  0  0  3  0  0  0  0  0  0
  -22.3820    1.6790  -34.8940 C   0  0  0  0  0  0  0  0  0  0  0  0
  -23.5540    0.7650  -34.9650 C   0  0  2  0  0  3  0  0  0  0  0  0
  -23.1620   -0.4810  -34.1620 C   0  0  1  0  0  3  0  0  0  0  0  0
  -23.0980   -1.5410  -35.1660 C   0  0  0  0  0  0  0  0  0  0  0  0
  -22.5610   -2.6720  -35.0050 O   0  0  0  0  0  0  0  0  0  0  0  0
  -23.7340   -1.0930  -36.3470 N   0  0  0  0  0  0  0  0  0  0  0  0
  -23.8800    0.3210  -36.3250 C   0  0  0  0  0  0  0  0  0  0  0  0
  -24.2220    1.0570  -37.2820 O   0  0  0  0  0  0  0  0  0  0  0  0
  -20.9430   -1.2840  -33.3810 C   0  0  0  0  0  0  0  0  0  0  0  0
  -20.2290   -1.6540  -34.3690 O   0  0  0  0  0  0  0  0  0  0  0  0
  -20.8430   -2.0360  -32.1500 C   0  0  0  0  0  0  0  0  0  0  0  0
  -21.1430   -3.3710  -32.0750 C   0  0  0  0  0  3  0  0  0  0  0  0
  -21.0250   -4.0370  -30.8760 C   0  0  0  0  0  3  0  0  0  0  0  0
  -20.6120   -3.4300  -29.7100 C   0  0  0  0  0  0  0  0  0  0  0  0
  -20.4690   -4.4130  -28.0800 Br  0  0  0  0  0  0  0  0  0  0  0  0
  -20.3110   -2.0880  -29.7900 C   0  0  0  0  0  3  0  0  0  0  0  0
  -20.4260   -1.4140  -30.9840 C   0  0  0  0  0  3  0  0  0  0  0  0
  -24.1820   -1.9320  -37.4340 C   0  0  0  0  0  2  0  0  0  0  0  0
  -23.2210   -1.9900  -38.5820 C   0  0  0  0  0  1  0  0  0  0  0  0
  1 15  1  6  0  0  0
  2  1  1  0  0  0  0
  3  2  1  0  0  0  0
  4  3  1  0  0  0  0
  5  4  2  0  0  0  0
  5  6  1  0  0  0  0
  6  7  2  0  0  0  0
  7  2  1  0  0  0  0
  8 13  1  6  0  0  0
  8  7  1  0  0  0  0
  8  9  1  0  0  0  0
  9 10  1  6  0  0  0
  9  1  1  0  0  0  0
 10 11  2  0  0  0  0
 12 13  1  0  0  0  0
 12 10  1  0  0  0  0
 14 13  2  0  0  0  0
 15 17  1  0  0  0  0
 16 15  2  0  0  0  0
 17 18  2  0  0  0  0
 17 23  1  0  0  0  0
 18 19  1  0  0  0  0
 19 20  2  0  0  0  0
 20 21  1  0  0  0  0
 22 20  1  0  0  0  0
 23 22  2  0  0  0  0
 24 12  1  0  0  0  0
 25 24  1  0  0  0  0
M  END
>  <Pose>
1

>  <Score>
-8.089

$$$$
