/Users/jonathanwahrer/Desktop/Msc/3_Semester/Drug_Design_Praktikum/waehrer_HTS_screening/HTS_experiment/out/docking_results/vina_output/5l4q/0243_docked.pdbqt
 OpenBabel03212217513D

 30 33  0  0  1  0  0  0  0  0999 V2000
  -19.5700   -0.1650  -33.4900 C   0  0  2  0  0  3  0  0  0  0  0  0
  -20.3930    1.0640  -33.7900 C   0  0  0  0  0  2  0  0  0  0  0  0
  -21.5490    0.5540  -34.4970 N   0  0  0  0  0  0  0  0  0  0  0  0
  -21.2700   -0.7760  -35.0120 C   0  0  1  0  0  3  0  0  0  0  0  0
  -19.9270   -1.1950  -34.5250 C   0  0  0  0  0  2  0  0  0  0  0  0
  -22.3700   -1.6400  -34.5300 C   0  0  0  0  0  0  0  0  0  0  0  0
  -22.0990   -2.7360  -33.9890 O   0  0  0  0  0  0  0  0  0  0  0  0
  -23.7000   -1.1860  -34.7030 N   0  0  0  0  0  0  0  0  0  0  0  0
  -24.0510    0.1920  -34.9560 C   0  0  1  0  0  3  0  0  0  0  0  0
  -22.8480    1.0550  -34.7850 C   0  0  0  0  0  0  0  0  0  0  0  0
  -22.9600    2.3290  -34.8960 O   0  0  0  0  0  0  0  0  0  0  0  0
  -24.4530   -1.9210  -34.6360 H   0  0  0  0  0  0  0  0  0  0  0  0
  -19.8610   -0.7180  -32.1920 N   0  0  0  0  0  0  0  0  0  0  0  0
  -18.8610   -0.8430  -31.2240 C   0  0  0  0  0  0  0  0  0  0  0  0
  -17.6650   -0.4680  -31.4670 O   0  0  0  0  0  0  0  0  0  0  0  0
  -20.8280   -1.0220  -31.9920 H   0  0  0  0  0  0  0  0  0  0  0  0
  -19.0960   -1.3990  -29.8840 C   0  0  0  0  0  0  0  0  0  0  0  0
  -19.7740   -2.5860  -29.6990 C   0  0  0  0  0  3  0  0  0  0  0  0
  -19.9940   -3.1090  -28.4410 C   0  0  0  0  0  3  0  0  0  0  0  0
  -19.5490   -2.4730  -27.3000 C   0  0  0  0  0  0  0  0  0  0  0  0
  -19.8280   -3.1550  -25.5490 Br  0  0  0  0  0  0  0  0  0  0  0  0
  -18.8650   -1.2770  -27.4890 C   0  0  0  0  0  3  0  0  0  0  0  0
  -18.6520   -0.7650  -28.7460 C   0  0  0  0  0  3  0  0  0  0  0  0
  -24.6880    0.3540  -36.3150 C   0  0  0  0  0  2  0  0  0  0  0  0
  -23.9920   -0.4680  -37.3440 C   0  0  0  0  0  0  0  0  0  0  0  0
  -24.4000   -1.7770  -37.6000 C   0  0  0  0  0  3  0  0  0  0  0  0
  -23.7210   -2.4910  -38.5630 C   0  0  0  0  0  3  0  0  0  0  0  0
  -22.6600   -1.9670  -39.2820 C   0  0  0  0  0  3  0  0  0  0  0  0
  -22.2950   -0.6730  -38.9950 C   0  0  0  0  0  3  0  0  0  0  0  0
  -22.9360    0.0890  -38.0430 C   0  0  0  0  0  3  0  0  0  0  0  0
  1 13  1  1  0  0  0
  2  1  1  0  0  0  0
  3  2  1  0  0  0  0
  4  6  1  0  0  0  0
  4  5  1  1  0  0  0
  4  3  1  0  0  0  0
  5  1  1  0  0  0  0
  6  7  2  0  0  0  0
  8 12  1  0  0  0  0
  8  6  1  0  0  0  0
  9 24  1  6  0  0  0
  9 10  1  0  0  0  0
  9  8  1  0  0  0  0
 10  3  1  0  0  0  0
 11 10  2  0  0  0  0
 13 16  1  0  0  0  0
 13 14  1  0  0  0  0
 14 17  1  0  0  0  0
 15 14  2  0  0  0  0
 17 18  2  0  0  0  0
 17 23  1  0  0  0  0
 18 19  1  0  0  0  0
 19 20  2  0  0  0  0
 20 21  1  0  0  0  0
 22 20  1  0  0  0  0
 23 22  2  0  0  0  0
 25 24  1  0  0  0  0
 26 25  1  0  0  0  0
 27 26  2  0  0  0  0
 28 29  2  0  0  0  0
 28 27  1  0  0  0  0
 29 30  1  0  0  0  0
 30 25  2  0  0  0  0
M  END
>  <Pose>
1

>  <Score>
-8.887

$$$$
