/Users/jonathanwahrer/Desktop/Msc/3_Semester/Drug_Design_Praktikum/waehrer_HTS_screening/HTS_experiment/out/docking_results/vina_output/5l4q/0247_docked.pdbqt
 OpenBabel03212217513D

 23 26  0  0  1  0  0  0  0  0999 V2000
  -20.2410   -1.4130  -30.9970 N   0  0  0  0  0  0  0  0  0  0  0  0
  -18.9570   -0.9310  -30.6160 C   0  0  0  0  0  0  0  0  0  0  0  0
  -18.3370   -0.0600  -31.3160 O   0  0  0  0  0  0  0  0  0  0  0  0
  -18.5090   -1.5770  -29.3550 C   0  0  2  0  0  3  0  0  0  0  0  0
  -19.7400   -2.3660  -28.9520 C   0  0  1  0  0  3  0  0  0  0  0  0
  -20.3470   -1.4340  -27.9240 C   0  0  1  0  0  3  0  0  0  0  0  0
  -19.0710   -1.2140  -27.0840 C   0  0  0  0  0  2  0  0  0  0  0  0
  -18.3190   -0.5650  -28.2610 C   0  0  2  0  0  3  0  0  0  0  0  0
  -19.3040    0.5390  -28.5440 C   0  0  0  0  0  2  0  0  0  0  0  0
  -20.4900   -0.0540  -28.4680 C   0  0  0  0  0  2  0  0  0  0  0  0
  -20.5800   -2.4970  -30.1550 C   0  0  0  0  0  0  0  0  0  0  0  0
  -21.4180   -3.4010  -30.3650 O   0  0  0  0  0  0  0  0  0  0  0  0
  -21.1010   -0.9490  -32.0250 N   0  0  0  0  0  0  0  0  0  0  0  0
  -20.9880   -1.4240  -33.3490 C   0  0  0  0  0  0  0  0  0  0  0  0
  -20.1140   -2.2900  -33.6770 O   0  0  0  0  0  0  0  0  0  0  0  0
  -21.8280   -0.2510  -31.7850 H   0  0  0  0  0  0  0  0  0  0  0  0
  -21.8710   -0.9390  -34.3820 C   0  0  0  0  0  0  0  0  0  0  0  0
  -22.5890   -1.8580  -35.1420 C   0  0  0  0  0  3  0  0  0  0  0  0
  -23.4360   -1.4420  -36.1480 C   0  0  0  0  0  3  0  0  0  0  0  0
  -23.5880   -0.1130  -36.4200 C   0  0  0  0  0  0  0  0  0  0  0  0
  -24.7650    0.4390  -37.8230 Br  0  0  0  0  0  0  0  0  0  0  0  0
  -22.8760    0.8210  -35.6680 C   0  0  0  0  0  3  0  0  0  0  0  0
  -22.0370    0.3960  -34.6710 C   0  0  0  0  0  3  0  0  0  0  0  0
  1  2  1  0  0  0  0
  1 11  1  0  0  0  0
  3  2  2  0  0  0  0
  4  2  1  6  0  0  0
  4  5  1  0  0  0  0
  4  8  1  0  0  0  0
  5 11  1  6  0  0  0
  5  6  1  0  0  0  0
  6 10  1  6  0  0  0
  6  7  1  0  0  0  0
  8  9  1  6  0  0  0
  8  7  1  0  0  0  0
  9 10  1  0  0  0  0
 12 11  2  0  0  0  0
 13 16  1  0  0  0  0
 13  1  1  0  0  0  0
 14 13  1  0  0  0  0
 15 14  2  0  0  0  0
 17 14  1  0  0  0  0
 18 17  2  0  0  0  0
 19 18  1  0  0  0  0
 20 19  2  0  0  0  0
 20 22  1  0  0  0  0
 21 20  1  0  0  0  0
 22 23  2  0  0  0  0
 23 17  1  0  0  0  0
M  END
>  <Pose>
1

>  <Score>
-8.347

$$$$
