/Users/jonathanwahrer/Desktop/Msc/3_Semester/Drug_Design_Praktikum/waehrer_HTS_screening/HTS_experiment/out/docking_results/vina_output/5l4q/0265_docked.pdbqt
 OpenBabel03212217523D

 35 38  0  0  1  0  0  0  0  0999 V2000
  -19.0290    1.3940  -34.0190 C   0  0  0  0  0  0  0  0  0  0  0  0
  -20.2330    0.9550  -34.3110 C   0  0  0  0  0  0  0  0  0  0  0  0
  -20.6690   -0.4880  -34.3240 C   0  0  2  0  0  3  0  0  0  0  0  0
  -22.0170   -0.4900  -34.7750 N   0  0  0  0  0  0  0  0  0  0  0  0
  -22.5180    0.8560  -34.9210 C   0  0  0  0  0  0  0  0  0  0  0  0
  -23.6590    1.2280  -35.2290 O   0  0  0  0  0  0  0  0  0  0  0  0
  -21.3880    1.7650  -34.6250 C   0  0  0  0  0  0  0  0  0  0  0  0
  -21.4520    3.0360  -34.6470 O   0  0  0  0  0  0  0  0  0  0  0  0
  -18.0800    0.4000  -33.6830 O   0  0  0  0  0  1  0  0  0  0  0  0
  -20.5670   -0.9210  -32.8960 C   0  0  0  0  0  0  0  0  0  0  0  0
  -20.2730   -2.2220  -32.6380 C   0  0  0  0  0  3  0  0  0  0  0  0
  -20.1710   -2.6770  -31.3390 C   0  0  0  0  0  3  0  0  0  0  0  0
  -20.3670   -1.8130  -30.2960 C   0  0  0  0  0  0  0  0  0  0  0  0
  -20.6620   -0.5000  -30.5590 C   0  0  0  0  0  3  0  0  0  0  0  0
  -20.7650   -0.0380  -31.8610 C   0  0  0  0  0  3  0  0  0  0  0  0
  -20.2660   -2.2840  -28.9130 C   0  0  0  0  0  0  0  0  0  0  0  0
  -20.4990   -3.4920  -28.6520 O   0  0  0  0  0  0  0  0  0  0  0  0
  -19.9270   -1.4680  -27.8680 O   0  0  0  0  0  0  0  0  0  0  0  0
  -19.0230   -1.8510  -26.8560 C   0  0  0  0  0  1  0  0  0  0  0  0
  -22.8530   -1.6230  -35.0650 C   0  0  0  0  0  2  0  0  0  0  0  0
  -23.7340   -1.4770  -36.2570 C   0  0  0  0  0  2  0  0  0  0  0  0
  -23.1920   -1.9720  -37.4870 N   0  0  0  0  0  4  0  0  0  0  0  0
  -22.7480   -0.9340  -38.3960 C   0  0  0  0  0  2  0  0  0  0  0  0
  -22.0330   -1.6210  -39.5410 C   0  0  0  0  0  2  0  0  0  0  0  0
  -23.0320   -2.3350  -40.2440 O   0  0  0  0  0  0  0  0  0  0  0  0
  -23.4220   -3.3740  -39.3930 C   0  0  0  0  0  2  0  0  0  0  0  0
  -24.1930   -2.7560  -38.2380 C   0  0  0  0  0  2  0  0  0  0  0  0
  -22.4210   -2.6730  -37.3250 H   0  0  0  0  0  0  0  0  0  0  0  0
  -18.6560    2.8010  -34.0270 C   0  0  0  0  0  0  0  0  0  0  0  0
  -18.1320    3.3850  -35.1870 C   0  0  0  0  0  3  0  0  0  0  0  0
  -17.7930    4.7190  -35.2660 C   0  0  0  0  0  3  0  0  0  0  0  0
  -17.9610    5.5490  -34.1780 C   0  0  0  0  0  0  0  0  0  0  0  0
  -17.4790    7.3960  -34.3120 Br  0  0  0  0  0  0  0  0  0  0  0  0
  -18.4730    5.0010  -33.0270 C   0  0  0  0  0  3  0  0  0  0  0  0
  -18.8170    3.6440  -32.9530 C   0  0  0  0  0  3  0  0  0  0  0  0
  1  9  1  0  0  0  0
  2  1  2  0  0  0  0
  3  2  1  0  0  0  0
  3 10  1  1  0  0  0
  4  3  1  0  0  0  0
  5  4  1  0  0  0  0
  5  7  1  0  0  0  0
  6  5  2  0  0  0  0
  7  2  1  0  0  0  0
  8  7  2  0  0  0  0
 10 11  2  0  0  0  0
 10 15  1  0  0  0  0
 11 12  1  0  0  0  0
 12 13  2  0  0  0  0
 13 16  1  0  0  0  0
 14 13  1  0  0  0  0
 15 14  2  0  0  0  0
 16 17  2  0  0  0  0
 16 18  1  0  0  0  0
 18 19  1  0  0  0  0
 20  4  1  0  0  0  0
 21 20  1  0  0  0  0
 22 28  1  0  0  0  0
 22 21  1  0  0  0  0
 23 22  1  0  0  0  0
 24 23  1  0  0  0  0
 25 24  1  0  0  0  0
 25 26  1  0  0  0  0
 26 27  1  0  0  0  0
 27 22  1  0  0  0  0
 29  1  1  0  0  0  0
 29 35  1  0  0  0  0
 30 29  2  0  0  0  0
 31 30  1  0  0  0  0
 31 32  2  0  0  0  0
 32 34  1  0  0  0  0
 33 32  1  0  0  0  0
 34 35  2  0  0  0  0
M  END
>  <Pose>
1

>  <Score>
-8.452

$$$$
