/Users/jonathanwahrer/Desktop/Msc/3_Semester/Drug_Design_Praktikum/waehrer_HTS_screening/HTS_experiment/out/docking_results/vina_output/5l4q/0278_docked.pdbqt
 OpenBabel03212217533D

 30 33  0  0  1  0  0  0  0  0999 V2000
  -19.2020   -1.0140  -30.3160 N   0  0  0  0  0  0  0  0  0  0  0  0
  -19.7950   -2.2300  -30.2560 C   0  0  0  0  0  0  0  0  0  0  0  0
  -20.3020   -2.4760  -31.5220 C   0  0  0  0  0  0  0  0  0  0  0  0
  -20.9760   -3.6620  -31.7480 C   0  0  0  0  0  3  0  0  0  0  0  0
  -21.1570   -4.6140  -30.7380 C   0  0  0  0  0  3  0  0  0  0  0  0
  -20.6310   -4.3220  -29.4860 C   0  0  0  0  0  3  0  0  0  0  0  0
  -19.9580   -3.1530  -29.2340 C   0  0  0  0  0  3  0  0  0  0  0  0
  -20.0210   -1.4250  -32.3480 N   0  0  0  0  0  0  0  0  0  0  0  0
  -19.3420   -0.5410  -31.5690 C   0  0  1  0  0  3  0  0  0  0  0  0
  -18.5570   -0.4250  -29.1790 C   0  0  0  0  0  2  0  0  0  0  0  0
  -19.4130    0.5740  -28.4600 C   0  0  1  0  0  3  0  0  0  0  0  0
  -18.8600    0.8560  -27.0820 C   0  0  0  0  0  0  0  0  0  0  0  0
  -18.6240   -0.1750  -26.2080 C   0  0  0  0  0  3  0  0  0  0  0  0
  -18.1190    0.0780  -24.9610 C   0  0  0  0  0  3  0  0  0  0  0  0
  -17.8540    1.3800  -24.6010 C   0  0  0  0  0  0  0  0  0  0  0  0
  -17.1480    1.7450  -22.8590 Br  0  0  0  0  0  0  0  0  0  0  0  0
  -18.0700    2.4500  -25.4370 C   0  0  0  0  0  3  0  0  0  0  0  0
  -18.5820    2.1430  -26.6880 C   0  0  0  0  0  3  0  0  0  0  0  0
  -19.5310    1.7890  -29.1060 O   0  0  0  0  0  0  0  0  0  0  0  0
  -18.9000    1.9050  -29.8420 H   0  0  0  0  0  0  0  0  0  0  0  0
  -18.9040    0.5930  -32.0030 N   0  0  0  0  0  0  0  0  0  0  0  0
  -19.5780    1.4140  -32.0620 H   0  0  0  0  0  0  0  0  0  0  0  0
  -17.9530    0.8020  -32.3140 H   0  0  0  0  0  0  0  0  0  0  0  0
  -20.3920   -1.3690  -33.7300 C   0  0  0  0  0  2  0  0  0  0  0  0
  -21.7740   -0.8230  -33.9600 C   0  0  0  0  0  0  0  0  0  0  0  0
  -22.0170    0.5160  -33.7030 C   0  0  0  0  0  3  0  0  0  0  0  0
  -23.2590    1.0920  -33.8910 C   0  0  0  0  0  3  0  0  0  0  0  0
  -24.2680    0.2840  -34.3510 C   0  0  0  0  0  3  0  0  0  0  0  0
  -24.0550   -1.0440  -34.6130 C   0  0  0  0  0  3  0  0  0  0  0  0
  -22.8130   -1.5850  -34.4160 C   0  0  0  0  0  3  0  0  0  0  0  0
  1  2  1  0  0  0  0
  1 10  1  0  0  0  0
  2  7  1  0  0  0  0
  3  2  2  0  0  0  0
  4  3  1  0  0  0  0
  4  5  2  0  0  0  0
  5  6  1  0  0  0  0
  6  7  2  0  0  0  0
  8  9  1  0  0  0  0
  8  3  1  0  0  0  0
  9 21  1  1  0  0  0
  9  1  1  0  0  0  0
 11 10  1  6  0  0  0
 11 12  1  0  0  0  0
 12 18  2  0  0  0  0
 12 13  1  0  0  0  0
 13 14  2  0  0  0  0
 14 15  1  0  0  0  0
 15 16  1  0  0  0  0
 17 15  2  0  0  0  0
 18 17  1  0  0  0  0
 19 11  1  0  0  0  0
 20 19  1  0  0  0  0
 22 21  1  0  0  0  0
 23 21  1  0  0  0  0
 24  8  1  0  0  0  0
 25 24  1  0  0  0  0
 25 26  1  0  0  0  0
 27 26  2  0  0  0  0
 28 27  1  0  0  0  0
 29 30  1  0  0  0  0
 29 28  2  0  0  0  0
 30 25  2  0  0  0  0
M  END
>  <Pose>
1

>  <Score>
-8.591

$$$$
