/Users/jonathanwahrer/Desktop/Msc/3_Semester/Drug_Design_Praktikum/waehrer_HTS_screening/HTS_experiment/out/docking_results/vina_output/5l4q/0305_docked.pdbqt
 OpenBabel03212217543D

 27 30  0  0  0  0  0  0  0  0999 V2000
  -20.2950   -0.0640  -32.6260 C   0  0  0  0  0  0  0  0  0  0  0  0
  -20.3250   -1.1890  -31.9240 N   0  0  0  0  0  0  0  0  0  0  0  0
  -19.6850   -1.0330  -30.7390 C   0  0  0  0  0  0  0  0  0  0  0  0
  -19.2540    0.2420  -30.7110 N   0  0  0  0  0  0  0  0  0  0  0  0
  -19.6030    0.8320  -31.8070 N   0  0  0  0  0  0  0  0  0  0  0  0
  -19.7040   -2.1530  -30.0080 N   0  0  0  0  0  0  0  0  0  0  0  0
  -20.3800   -3.0420  -30.7430 C   0  0  0  0  0  0  0  0  0  0  0  0
  -20.7920   -2.4690  -31.9540 C   0  0  0  0  0  0  0  0  0  0  0  0
  -21.5120   -3.1550  -32.8270 N   0  0  0  0  0  0  0  0  0  0  0  0
  -21.8280   -4.4480  -32.5070 C   0  0  0  0  0  0  0  0  0  0  0  0
  -22.5050   -5.1340  -33.3080 O   0  0  0  0  0  0  0  0  0  0  0  0
  -21.4430   -5.0270  -31.3630 N   0  0  0  0  0  0  0  0  0  0  0  0
  -20.7180   -4.3450  -30.4600 C   0  0  0  0  0  0  0  0  0  0  0  0
  -20.3390   -4.8550  -29.3740 O   0  0  0  0  0  0  0  0  0  0  0  0
  -22.1040   -2.6600  -34.0420 C   0  0  0  0  0  1  0  0  0  0  0  0
  -21.6810   -6.0100  -31.1200 H   0  0  0  0  0  0  0  0  0  0  0  0
  -20.7760    0.3910  -33.9170 C   0  0  0  0  0  0  0  0  0  0  0  0
  -20.0150    0.0660  -35.0410 C   0  0  0  0  0  3  0  0  0  0  0  0
  -20.4440    0.3120  -36.3080 C   0  0  0  0  0  3  0  0  0  0  0  0
  -21.6730    0.9030  -36.5120 C   0  0  0  0  0  0  0  0  0  0  0  0
  -22.2690    1.2450  -38.2770 Br  0  0  0  0  0  0  0  0  0  0  0  0
  -22.4720    1.2450  -35.4440 C   0  0  0  0  0  3  0  0  0  0  0  0
  -21.9870    0.9730  -34.1900 C   0  0  0  0  0  3  0  0  0  0  0  0
  -19.1160   -2.3630  -28.7040 C   0  0  0  0  0  2  0  0  0  0  0  0
  -19.9920   -1.8520  -27.5810 C   0  0  0  0  0  2  0  0  0  0  0  0
  -19.9010   -2.6510  -26.4470 O   0  0  0  0  0  0  0  0  0  0  0  0
  -18.7420   -2.2770  -25.7670 C   0  0  0  0  0  1  0  0  0  0  0  0
  1  2  1  0  0  0  0
  1  5  2  0  0  0  0
  2  3  1  0  0  0  0
  3  4  2  0  0  0  0
  3  6  1  0  0  0  0
  5  4  1  0  0  0  0
  6 24  1  0  0  0  0
  7 13  1  0  0  0  0
  7  6  1  0  0  0  0
  8  2  1  0  0  0  0
  8  7  2  0  0  0  0
  9 10  1  0  0  0  0
  9  8  1  0  0  0  0
 10 12  1  0  0  0  0
 11 10  2  0  0  0  0
 12 16  1  0  0  0  0
 12 13  1  0  0  0  0
 13 14  2  0  0  0  0
 15  9  1  0  0  0  0
 17  1  1  0  0  0  0
 18 17  2  0  0  0  0
 19 18  1  0  0  0  0
 20 19  2  0  0  0  0
 20 22  1  0  0  0  0
 21 20  1  0  0  0  0
 22 23  2  0  0  0  0
 23 17  1  0  0  0  0
 24 25  1  0  0  0  0
 25 26  1  0  0  0  0
 26 27  1  0  0  0  0
M  END
>  <Pose>
1

>  <Score>
-8.026

$$$$
