/Users/jonathanwahrer/Desktop/Msc/3_Semester/Drug_Design_Praktikum/waehrer_HTS_screening/HTS_experiment/out/docking_results/vina_output/5l4q/0309_docked.pdbqt
 OpenBabel03212217543D

 33 36  0  0  0  0  0  0  0  0999 V2000
  -21.6590   -0.8490  -34.7500 C   0  0  0  0  0  0  0  0  0  0  0  0
  -20.7410   -0.2690  -33.9080 C   0  0  0  0  0  0  0  0  0  0  0  0
  -20.3300   -0.8430  -32.7930 O   0  0  0  0  0  0  0  0  0  0  0  0
  -20.7760   -2.0150  -32.4200 C   0  0  0  0  0  0  0  0  0  0  0  0
  -21.6810   -2.6360  -33.2050 C   0  0  0  0  0  0  0  0  0  0  0  0
  -22.1670   -3.8720  -32.8400 C   0  0  0  0  0  3  0  0  0  0  0  0
  -21.7100   -4.4370  -31.6780 C   0  0  0  0  0  3  0  0  0  0  0  0
  -20.7660   -3.7810  -30.8660 C   0  0  0  0  0  0  0  0  0  0  0  0
  -20.2710   -2.5570  -31.2060 C   0  0  0  0  0  0  0  0  0  0  0  0
  -20.4220   -4.5030  -29.7350 O   0  0  0  0  0  1  0  0  0  0  0  0
  -22.1600   -2.0990  -34.3850 C   0  0  0  0  0  0  0  0  0  0  0  0
  -22.9880   -2.6700  -35.1020 O   0  0  0  0  0  0  0  0  0  0  0  0
  -19.3220   -1.7560  -30.4710 C   0  0  0  0  0  2  0  0  0  0  0  0
  -19.6080   -1.1580  -29.2310 N   0  0  0  0  0  4  0  0  0  0  0  0
  -19.7750    0.2480  -29.3310 C   0  0  0  0  0  2  0  0  0  0  0  0
  -19.4720    1.0950  -28.1580 C   0  0  0  0  0  2  0  0  0  0  0  0
  -18.6590    0.4720  -27.2060 N   0  0  0  0  0  0  0  0  0  0  0  0
  -18.9340   -0.8520  -26.8520 C   0  0  0  0  0  2  0  0  0  0  0  0
  -17.5830    1.1600  -26.6280 C   0  0  0  0  0  1  0  0  0  0  0  0
  -19.0390   -1.7250  -28.0620 C   0  0  0  0  0  2  0  0  0  0  0  0
  -20.6920   -1.4790  -29.0970 H   0  0  0  0  0  0  0  0  0  0  0  0
  -20.2010    1.0500  -34.2730 C   0  0  0  0  0  0  0  0  0  0  0  0
  -19.0440    1.0970  -34.7610 O   0  0  0  0  0  0  0  0  0  0  0  0
  -20.8830    2.2160  -34.1110 O   0  0  0  0  0  0  0  0  0  0  0  0
  -20.5020    3.3730  -34.8150 C   0  0  0  0  0  2  0  0  0  0  0  0
  -21.5590    3.7000  -35.8330 C   0  0  0  0  0  1  0  0  0  0  0  0
  -22.0530   -0.1950  -35.9690 C   0  0  0  0  0  0  0  0  0  0  0  0
  -21.2390   -0.1280  -37.0970 C   0  0  0  0  0  3  0  0  0  0  0  0
  -21.6190    0.4860  -38.2700 C   0  0  0  0  0  3  0  0  0  0  0  0
  -22.8530    1.0630  -38.3490 C   0  0  0  0  0  0  0  0  0  0  0  0
  -23.3660    1.9060  -39.9870 Br  0  0  0  0  0  0  0  0  0  0  0  0
  -23.6970    1.0250  -37.2590 C   0  0  0  0  0  3  0  0  0  0  0  0
  -23.2860    0.3930  -36.0740 C   0  0  0  0  0  3  0  0  0  0  0  0
  1 11  1  0  0  0  0
  1  2  2  0  0  0  0
  2  3  1  0  0  0  0
  3  4  1  0  0  0  0
  4  9  1  0  0  0  0
  5  6  1  0  0  0  0
  5  4  2  0  0  0  0
  6  7  2  0  0  0  0
  7  8  1  0  0  0  0
  8 10  1  0  0  0  0
  9  8  2  0  0  0  0
  9 13  1  0  0  0  0
 11  5  1  0  0  0  0
 12 11  2  0  0  0  0
 13 14  1  0  0  0  0
 14 21  1  0  0  0  0
 14 20  1  0  0  0  0
 15 14  1  0  0  0  0
 15 16  1  0  0  0  0
 16 17  1  0  0  0  0
 17 18  1  0  0  0  0
 17 19  1  0  0  0  0
 20 18  1  0  0  0  0
 22 24  1  0  0  0  0
 22  2  1  0  0  0  0
 23 22  2  0  0  0  0
 25 24  1  0  0  0  0
 26 25  1  0  0  0  0
 27  1  1  0  0  0  0
 28 27  2  0  0  0  0
 29 28  1  0  0  0  0
 30 29  2  0  0  0  0
 30 32  1  0  0  0  0
 31 30  1  0  0  0  0
 32 33  2  0  0  0  0
 33 27  1  0  0  0  0
M  END
>  <Pose>
1

>  <Score>
-8.213

$$$$
