/Users/jonathanwahrer/Desktop/Msc/3_Semester/Drug_Design_Praktikum/waehrer_HTS_screening/HTS_experiment/out/docking_results/vina_output/5l4q/0324_docked.pdbqt
 OpenBabel03212217553D

 34 38  0  0  1  0  0  0  0  0999 V2000
  -19.9350    0.0430  -32.7870 C   0  0  0  0  0  0  0  0  0  0  0  0
  -19.6830   -0.0030  -31.4030 C   0  0  0  0  0  3  0  0  0  0  0  0
  -19.9790   -1.2080  -30.9060 N   0  0  0  0  0  0  0  0  0  0  0  0
  -20.0040   -1.9520  -29.7730 C   0  0  0  0  0  0  0  0  0  0  0  0
  -20.4770   -3.1890  -30.1380 C   0  0  0  0  0  0  0  0  0  0  0  0
  -20.7250   -3.1660  -31.4760 N   0  0  0  0  0  0  0  0  0  0  0  0
  -20.4120   -1.9380  -31.9300 C   0  0  1  0  0  3  0  0  0  0  0  0
  -20.3870   -1.1770  -33.0830 N   0  0  0  0  0  0  0  0  0  0  0  0
  -20.6020   -4.1510  -29.1570 C   0  0  0  0  0  3  0  0  0  0  0  0
  -20.2670   -3.8940  -27.8330 C   0  0  0  0  0  3  0  0  0  0  0  0
  -19.7960   -2.6570  -27.4700 C   0  0  0  0  0  3  0  0  0  0  0  0
  -19.6690   -1.6820  -28.4670 C   0  0  0  0  0  3  0  0  0  0  0  0
  -21.0930   -3.9750  -32.0240 H   0  0  0  0  0  0  0  0  0  0  0  0
  -20.8230   -1.6880  -34.3650 C   0  0  0  0  0  2  0  0  0  0  0  0
  -22.2850   -2.0650  -34.4120 C   0  0  0  0  0  2  0  0  0  0  0  0
  -23.1610   -0.8420  -34.5200 C   0  0  0  0  0  2  0  0  0  0  0  0
  -23.8560   -0.7030  -35.7700 N   0  0  0  0  0  0  0  0  0  0  0  0
  -23.2960   -1.7160  -36.6500 C   0  0  0  0  0  2  0  0  0  0  0  0
  -22.9720   -1.2410  -38.0170 C   0  0  0  0  0  2  0  0  0  0  0  0
  -22.2910    0.0220  -38.1010 N   0  0  0  0  0  4  0  0  0  0  0  0
  -22.4610    0.8520  -36.9270 C   0  0  0  0  0  2  0  0  0  0  0  0
  -22.7850    0.5630  -38.8790 H   0  0  0  0  0  0  0  0  0  0  0  0
  -23.8420    0.5950  -36.3590 C   0  0  0  0  0  2  0  0  0  0  0  0
  -20.9400   -0.1230  -38.5420 C   0  0  0  0  0  2  0  0  0  0  0  0
  -19.8900    0.3840  -37.6140 C   0  0  0  0  0  2  0  0  0  0  0  0
  -18.8760   -0.5380  -37.3570 O   0  0  0  0  0  0  0  0  0  0  0  0
  -19.2640   -1.4030  -37.1410 H   0  0  0  0  0  0  0  0  0  0  0  0
  -19.7420    1.2410  -33.6040 C   0  0  0  0  0  0  0  0  0  0  0  0
  -20.7160    2.0790  -34.0410 C   0  0  0  0  0  3  0  0  0  0  0  0
  -20.4480    3.2390  -34.7860 C   0  0  0  0  0  3  0  0  0  0  0  0
  -19.1620    3.5830  -35.1130 C   0  0  0  0  0  0  0  0  0  0  0  0
  -18.7930    5.1670  -36.1300 Br  0  0  0  0  0  0  0  0  0  0  0  0
  -18.1660    2.7520  -34.6840 C   0  0  0  0  0  3  0  0  0  0  0  0
  -18.4400    1.6090  -33.9490 C   0  0  0  0  0  3  0  0  0  0  0  0
  1  2  2  0  0  0  0
  2  3  1  0  0  0  0
  3  4  1  0  0  0  0
  4 12  1  0  0  0  0
  5  4  2  0  0  0  0
  5  9  1  0  0  0  0
  6  5  1  0  0  0  0
  7  8  1  1  0  0  0
  7  6  1  0  0  0  0
  7  3  1  0  0  0  0
  8  1  1  0  0  0  0
  9 10  2  0  0  0  0
 10 11  1  0  0  0  0
 12 11  2  0  0  0  0
 13  6  1  0  0  0  0
 14  8  1  0  0  0  0
 15 14  1  0  0  0  0
 16 15  1  0  0  0  0
 17 16  1  0  0  0  0
 18 17  1  0  0  0  0
 19 18  1  0  0  0  0
 20 19  1  0  0  0  0
 20 21  1  0  0  0  0
 21 23  1  0  0  0  0
 22 20  1  0  0  0  0
 23 17  1  0  0  0  0
 24 20  1  0  0  0  0
 24 25  1  0  0  0  0
 25 26  1  0  0  0  0
 26 27  1  0  0  0  0
 28  1  1  0  0  0  0
 29 28  2  0  0  0  0
 30 29  1  0  0  0  0
 31 30  2  0  0  0  0
 31 33  1  0  0  0  0
 32 31  1  0  0  0  0
 33 34  2  0  0  0  0
 34 28  1  0  0  0  0
M  END
>  <Pose>
1

>  <Score>
-8.352

$$$$
