/Users/jonathanwahrer/Desktop/Msc/3_Semester/Drug_Design_Praktikum/waehrer_HTS_screening/HTS_experiment/out/docking_results/vina_output/5l4q/0347_docked.pdbqt
 OpenBabel03212217563D

 34 37  0  0  1  0  0  0  0  0999 V2000
  -19.7870    1.0330  -34.8510 C   0  0  2  0  0  3  0  0  0  0  0  0
  -20.3010    2.3020  -34.3770 N   0  0  0  0  0  0  0  0  0  0  0  0
  -21.6950    2.3140  -34.6930 C   0  0  0  0  0  0  0  0  0  0  0  0
  -22.5950    2.9680  -34.1090 O   0  0  0  0  0  0  0  0  0  0  0  0
  -21.8530    1.4140  -35.8310 C   0  0  0  0  0  0  0  0  0  0  0  0
  -22.8930    1.0990  -36.4600 O   0  0  0  0  0  0  0  0  0  0  0  0
  -20.5300    0.8900  -36.1570 C   0  0  0  0  0  0  0  0  0  0  0  0
  -20.1380    0.3890  -37.3020 C   0  0  0  0  0  0  0  0  0  0  0  0
  -18.8210   -0.1010  -37.3440 O   0  0  0  0  0  1  0  0  0  0  0  0
  -19.5570    3.3800  -33.7030 C   0  0  0  0  0  2  0  0  0  0  0  0
  -18.1080    3.4240  -34.2100 C   0  0  0  0  0  2  0  0  0  0  0  0
  -17.9530    4.5770  -35.1600 C   0  0  0  0  0  2  0  0  0  0  0  0
  -17.6570    4.0660  -36.4770 N   0  0  0  0  0  4  0  0  0  0  0  0
  -16.7200    4.8540  -37.2130 C   0  0  0  0  0  2  0  0  0  0  0  0
  -17.2860    6.1470  -37.6920 C   0  0  0  0  0  2  0  0  0  0  0  0
  -18.4260    5.9380  -38.4490 O   0  0  0  0  0  0  0  0  0  0  0  0
  -19.3710    5.3190  -37.6290 C   0  0  0  0  0  2  0  0  0  0  0  0
  -18.8520    3.9350  -37.2910 C   0  0  0  0  0  2  0  0  0  0  0  0
  -17.2700    3.1000  -36.3710 H   0  0  0  0  0  0  0  0  0  0  0  0
  -20.1090   -0.0470  -33.9280 C   0  0  0  0  0  0  0  0  0  0  0  0
  -19.9280    0.1110  -32.5760 C   0  0  0  0  0  3  0  0  0  0  0  0
  -20.2210   -0.9210  -31.6800 C   0  0  0  0  0  3  0  0  0  0  0  0
  -20.6990   -2.1240  -32.1430 C   0  0  0  0  0  0  0  0  0  0  0  0
  -21.0950   -3.5300  -30.9160 Br  0  0  0  0  0  0  0  0  0  0  0  0
  -20.8840   -2.2940  -33.4890 C   0  0  0  0  0  3  0  0  0  0  0  0
  -20.5890   -1.2620  -34.3620 C   0  0  0  0  0  3  0  0  0  0  0  0
  -20.9860    0.3340  -38.4890 C   0  0  0  0  0  0  0  0  0  0  0  0
  -21.6090   -0.8070  -38.9400 C   0  0  0  0  0  3  0  0  0  0  0  0
  -22.3970   -0.8720  -40.0750 C   0  0  0  0  0  0  0  0  0  0  0  0
  -22.5780    0.2670  -40.8070 C   0  0  0  0  0  3  0  0  0  0  0  0
  -21.9670    1.4450  -40.3870 C   0  0  0  0  0  3  0  0  0  0  0  0
  -21.1880    1.4720  -39.2500 C   0  0  0  0  0  3  0  0  0  0  0  0
  -22.9440   -2.0990  -40.3790 O   0  0  0  0  0  0  0  0  0  0  0  0
  -23.4860   -3.0280  -39.5050 C   0  0  0  0  0  1  0  0  0  0  0  0
  1  2  1  0  0  0  0
  1 20  1  1  0  0  0
  2 10  1  0  0  0  0
  3  2  1  0  0  0  0
  3  4  2  0  0  0  0
  5  3  1  0  0  0  0
  6  5  2  0  0  0  0
  7  5  1  0  0  0  0
  7  1  1  0  0  0  0
  8  7  2  0  0  0  0
  9  8  1  0  0  0  0
 11 10  1  0  0  0  0
 12 11  1  0  0  0  0
 13 19  1  0  0  0  0
 13 12  1  0  0  0  0
 14 13  1  0  0  0  0
 15 14  1  0  0  0  0
 16 15  1  0  0  0  0
 16 17  1  0  0  0  0
 17 18  1  0  0  0  0
 18 13  1  0  0  0  0
 20 21  1  0  0  0  0
 21 22  2  0  0  0  0
 23 22  1  0  0  0  0
 23 24  1  0  0  0  0
 25 23  2  0  0  0  0
 26 20  2  0  0  0  0
 26 25  1  0  0  0  0
 27  8  1  0  0  0  0
 28 27  1  0  0  0  0
 29 28  2  0  0  0  0
 30 31  2  0  0  0  0
 30 29  1  0  0  0  0
 31 32  1  0  0  0  0
 32 27  2  0  0  0  0
 33 29  1  0  0  0  0
 33 34  1  0  0  0  0
M  END
>  <Pose>
1

>  <Score>
-7.276

$$$$
