/Users/jonathanwahrer/Desktop/Msc/3_Semester/Drug_Design_Praktikum/waehrer_HTS_screening/HTS_experiment/out/docking_results/vina_output/5l4q/0349_docked.pdbqt
 OpenBabel03212217563D

 32 35  0  0  1  0  0  0  0  0999 V2000
  -20.8290    2.2340  -35.0210 C   0  0  1  0  0  3  0  0  0  0  0  0
  -21.4470    1.6120  -36.1110 N   0  0  0  0  0  0  0  0  0  0  0  0
  -22.6440    0.9830  -35.5150 C   0  0  0  0  0  0  0  0  0  0  0  0
  -23.7540    0.7720  -36.0790 O   0  0  0  0  0  0  0  0  0  0  0  0
  -22.2430    0.6670  -34.1410 C   0  0  0  0  0  0  0  0  0  0  0  0
  -22.9270    0.1050  -33.2320 O   0  0  0  0  0  0  0  0  0  0  0  0
  -20.8500    1.1360  -34.0140 C   0  0  0  0  0  0  0  0  0  0  0  0
  -19.9040    0.6470  -33.2450 C   0  0  0  0  0  0  0  0  0  0  0  0
  -18.6150    1.1640  -33.2990 O   0  0  0  0  0  1  0  0  0  0  0  0
  -21.2470    1.4760  -37.5460 C   0  0  0  0  0  2  0  0  0  0  0  0
  -20.3410    0.3370  -37.9340 C   0  0  0  0  0  2  0  0  0  0  0  0
  -20.7640   -0.3660  -39.1010 N   0  0  0  0  0  4  0  0  0  0  0  0
  -20.8640    0.5450  -40.2260 C   0  0  0  0  0  2  0  0  0  0  0  0
  -21.2700   -0.2400  -41.4460 C   0  0  0  0  0  2  0  0  0  0  0  0
  -22.6000   -0.6390  -41.2330 O   0  0  0  0  0  0  0  0  0  0  0  0
  -22.6130   -1.4980  -40.1590 C   0  0  0  0  0  2  0  0  0  0  0  0
  -22.1420   -0.8500  -38.8830 C   0  0  0  0  0  2  0  0  0  0  0  0
  -20.1680   -1.1750  -39.3290 H   0  0  0  0  0  0  0  0  0  0  0  0
  -19.7490    3.1440  -35.0280 C   0  0  0  0  0  0  0  0  0  0  0  0
  -19.7730    4.1800  -34.0820 C   0  0  0  0  0  3  0  0  0  0  0  0
  -18.7870    5.1220  -34.0060 C   0  0  0  0  0  3  0  0  0  0  0  0
  -17.7140    5.0900  -34.8700 C   0  0  0  0  0  0  0  0  0  0  0  0
  -16.3160    6.3960  -34.7880 Br  0  0  0  0  0  0  0  0  0  0  0  0
  -17.6860    4.0780  -35.7990 C   0  0  0  0  0  3  0  0  0  0  0  0
  -18.6960    3.1180  -35.8730 C   0  0  0  0  0  3  0  0  0  0  0  0
  -20.1300   -0.4350  -32.2990 C   0  0  0  0  0  0  0  0  0  0  0  0
  -20.2280   -1.7570  -32.6010 C   0  0  0  0  0  3  0  0  0  0  0  0
  -20.4010   -2.6960  -31.5940 C   0  0  0  0  0  3  0  0  0  0  0  0
  -20.4760   -2.3030  -30.2780 C   0  0  0  0  0  0  0  0  0  0  0  0
  -20.3820   -0.9760  -29.9310 C   0  0  0  0  0  3  0  0  0  0  0  0
  -20.6610   -3.2850  -29.1680 C   0  0  0  0  0  1  0  0  0  0  0  0
  -20.2090   -0.0550  -30.9540 C   0  0  0  0  0  3  0  0  0  0  0  0
  1 19  1  6  0  0  0
  1  7  1  0  0  0  0
  2  3  1  0  0  0  0
  2  1  1  0  0  0  0
  3  5  1  0  0  0  0
  4  3  2  0  0  0  0
  5  7  1  0  0  0  0
  5  6  2  0  0  0  0
  7  8  2  0  0  0  0
  8 26  1  0  0  0  0
  9  8  1  0  0  0  0
 10  2  1  0  0  0  0
 11 10  1  0  0  0  0
 12 17  1  0  0  0  0
 12 11  1  0  0  0  0
 13 12  1  0  0  0  0
 14 15  1  0  0  0  0
 14 13  1  0  0  0  0
 15 16  1  0  0  0  0
 16 17  1  0  0  0  0
 18 12  1  0  0  0  0
 19 20  1  0  0  0  0
 20 21  2  0  0  0  0
 22 23  1  0  0  0  0
 22 21  1  0  0  0  0
 24 22  2  0  0  0  0
 25 24  1  0  0  0  0
 25 19  2  0  0  0  0
 26 32  1  0  0  0  0
 27 26  2  0  0  0  0
 27 28  1  0  0  0  0
 28 29  2  0  0  0  0
 29 30  1  0  0  0  0
 29 31  1  0  0  0  0
 32 30  2  0  0  0  0
M  END
>  <Pose>
1

>  <Score>
-7.752

$$$$
