/Users/jonathanwahrer/Desktop/Msc/3_Semester/Drug_Design_Praktikum/waehrer_HTS_screening/HTS_experiment/out/docking_results/vina_output/5l4q/0362_docked.pdbqt
 OpenBabel03212217583D

 36 40  0  0  1  0  0  0  0  0999 V2000
  -21.8760    1.6760  -34.7260 C   0  0  2  0  0  3  0  0  0  0  0  0
  -22.1010    0.3670  -34.2760 N   0  0  0  0  0  0  0  0  0  0  0  0
  -23.3440    0.0100  -34.9380 C   0  0  0  0  0  0  0  0  0  0  0  0
  -24.2210   -0.8390  -34.5600 O   0  0  0  0  0  0  0  0  0  0  0  0
  -23.4380    0.8070  -36.1560 C   0  0  0  0  0  0  0  0  0  0  0  0
  -24.3380    0.8480  -37.0560 O   0  0  0  0  0  0  0  0  0  0  0  0
  -22.2230    1.6190  -36.1690 C   0  0  0  0  0  0  0  0  0  0  0  0
  -21.6260    2.1860  -37.2000 C   0  0  0  0  0  0  0  0  0  0  0  0
  -20.5000    2.9730  -37.0030 O   0  0  0  0  0  1  0  0  0  0  0  0
  -20.7030    2.4280  -34.4020 C   0  0  0  0  0  0  0  0  0  0  0  0
  -19.4580    1.8690  -34.3580 C   0  0  0  0  0  3  0  0  0  0  0  0
  -18.3640    2.6390  -34.0240 C   0  0  0  0  0  3  0  0  0  0  0  0
  -18.4740    3.9840  -33.7240 C   0  0  0  0  0  0  0  0  0  0  0  0
  -16.9600    5.0480  -33.2610 Br  0  0  0  0  0  0  0  0  0  0  0  0
  -19.7380    4.5410  -33.7710 C   0  0  0  0  0  3  0  0  0  0  0  0
  -20.8170    3.7570  -34.1070 C   0  0  0  0  0  3  0  0  0  0  0  0
  -22.0950    2.0230  -38.5680 C   0  0  0  0  0  0  0  0  0  0  0  0
  -22.0510    0.9170  -39.3300 N   0  0  0  0  0  0  0  0  0  0  0  0
  -22.6230    1.1590  -40.5330 C   0  0  0  0  0  0  0  0  0  0  0  0
  -21.5580   -0.3450  -39.1630 C   0  0  0  0  0  3  0  0  0  0  0  0
  -23.0260    2.4400  -40.5080 N   0  0  0  0  0  0  0  0  0  0  0  0
  -22.7060    0.2000  -41.5190 C   0  0  0  0  0  3  0  0  0  0  0  0
  -22.7260    3.0010  -39.3390 C   0  0  0  0  0  0  0  0  0  0  0  0
  -22.9750    4.3850  -38.8550 C   0  0  0  0  0  1  0  0  0  0  0  0
  -22.2010   -1.0630  -41.3200 C   0  0  0  0  0  3  0  0  0  0  0  0
  -21.6140   -1.3260  -40.1030 C   0  0  0  0  0  3  0  0  0  0  0  0
  -21.5160   -0.6000  -33.4050 C   0  0  0  0  0  2  0  0  0  0  0  0
  -20.5320   -1.5690  -33.8370 C   0  0  0  0  0  2  0  0  0  0  0  0
  -20.4530   -2.8780  -33.0880 C   0  0  0  0  0  2  0  0  0  0  0  0
  -21.4840   -2.9650  -32.0590 N   0  0  0  0  0  4  0  0  0  0  0  0
  -20.9750   -3.2130  -30.7420 C   0  0  0  0  0  2  0  0  0  0  0  0
  -20.8010   -4.6630  -30.3980 C   0  0  0  0  0  2  0  0  0  0  0  0
  -20.8600   -5.4980  -31.4820 O   0  0  0  0  0  0  0  0  0  0  0  0
  -21.9630   -5.3490  -32.2800 C   0  0  0  0  0  2  0  0  0  0  0  0
  -22.4760   -3.9500  -32.3680 C   0  0  0  0  0  2  0  0  0  0  0  0
  -21.9480   -2.0240  -32.0330 H   0  0  0  0  0  0  0  0  0  0  0  0
  1 10  1  6  0  0  0
  1  2  1  0  0  0  0
  2 27  1  0  0  0  0
  3  4  2  0  0  0  0
  3  2  1  0  0  0  0
  5  3  1  0  0  0  0
  6  5  2  0  0  0  0
  7  5  1  0  0  0  0
  7  1  1  0  0  0  0
  8  9  1  0  0  0  0
  8  7  2  0  0  0  0
 10 11  2  0  0  0  0
 10 16  1  0  0  0  0
 11 12  1  0  0  0  0
 12 13  2  0  0  0  0
 13 14  1  0  0  0  0
 15 13  1  0  0  0  0
 16 15  2  0  0  0  0
 17  8  1  0  0  0  0
 18 20  1  0  0  0  0
 18 17  1  0  0  0  0
 19 21  2  0  0  0  0
 19 18  1  0  0  0  0
 21 23  1  0  0  0  0
 22 25  2  0  0  0  0
 22 19  1  0  0  0  0
 23 24  1  0  0  0  0
 23 17  2  0  0  0  0
 25 26  1  0  0  0  0
 26 20  2  0  0  0  0
 28 27  1  0  0  0  0
 28 29  1  0  0  0  0
 29 30  1  0  0  0  0
 30 36  1  0  0  0  0
 30 31  1  0  0  0  0
 31 32  1  0  0  0  0
 33 32  1  0  0  0  0
 34 33  1  0  0  0  0
 35 34  1  0  0  0  0
 35 30  1  0  0  0  0
M  END
>  <Pose>
1

>  <Score>
-7.993

$$$$
