/Users/jonathanwahrer/Desktop/Msc/3_Semester/Drug_Design_Praktikum/waehrer_HTS_screening/HTS_experiment/out/docking_results/vina_output/5l4q/0381_docked.pdbqt
 OpenBabel03212217583D

 29 32  0  0  0  0  0  0  0  0999 V2000
  -21.7510   -3.2200  -32.7450 N   0  0  0  0  0  0  0  0  0  0  0  0
  -21.2600   -2.6330  -31.6570 N   0  0  0  0  0  0  0  0  0  0  0  0
  -20.8010   -3.3570  -30.5970 C   0  0  0  0  0  0  0  0  0  0  0  0
  -20.8470   -4.6970  -30.6490 N   0  0  0  0  0  0  0  0  0  0  0  0
  -20.3380   -5.2690  -29.4210 C   0  0  0  0  0  3  0  0  0  0  0  0
  -19.9340   -4.1240  -28.5410 C   0  0  0  0  0  3  0  0  0  0  0  0
  -20.2070   -2.9620  -29.3660 N   0  0  0  0  0  0  0  0  0  0  0  0
  -21.3300   -5.3450  -31.7170 C   0  0  0  0  0  0  0  0  0  0  0  0
  -21.3720   -6.5980  -31.7630 O   0  0  0  0  0  0  0  0  0  0  0  0
  -21.7800   -4.5640  -32.7620 C   0  0  0  0  0  0  0  0  0  0  0  0
  -22.2440   -5.1270  -33.7860 O   0  0  0  0  0  0  0  0  0  0  0  0
  -22.2200   -2.4520  -33.9110 C   0  0  0  0  0  2  0  0  0  0  0  0
  -21.5240   -1.1700  -34.0000 C   0  0  0  0  0  0  0  0  0  0  0  0
  -20.1460   -0.9430  -34.0960 N   0  0  0  0  0  0  0  0  0  0  0  0
  -19.5260   -1.8030  -34.0960 H   0  0  0  0  0  0  0  0  0  0  0  0
  -22.3260   -0.1530  -33.9840 O   0  0  0  0  0  0  0  0  0  0  0  0
  -19.5280    0.3070  -34.1860 C   0  0  0  0  0  0  0  0  0  0  0  0
  -19.0340    0.9110  -35.3150 C   0  0  0  0  0  3  0  0  0  0  0  0
  -18.4530    2.1870  -35.3050 C   0  0  0  0  0  3  0  0  0  0  0  0
  -18.3470    2.9130  -34.1480 C   0  0  0  0  0  0  0  0  0  0  0  0
  -17.5630    4.6550  -34.1170 Br  0  0  0  0  0  0  0  0  0  0  0  0
  -18.8370    2.3260  -32.9980 C   0  0  0  0  0  3  0  0  0  0  0  0
  -19.4010    1.0800  -33.0150 C   0  0  0  0  0  3  0  0  0  0  0  0
  -19.9020   -1.6430  -28.9550 C   0  0  0  0  0  0  0  0  0  0  0  0
  -20.3020   -0.5220  -29.6320 C   0  0  0  0  0  3  0  0  0  0  0  0
  -19.9740    0.7550  -29.2130 C   0  0  0  0  0  3  0  0  0  0  0  0
  -19.2170    0.9240  -28.0690 C   0  0  0  0  0  3  0  0  0  0  0  0
  -18.8100   -0.1760  -27.3820 C   0  0  0  0  0  3  0  0  0  0  0  0
  -19.1400   -1.4450  -27.8080 C   0  0  0  0  0  3  0  0  0  0  0  0
  1  2  1  0  0  0  0
  2  3  2  0  0  0  0
  3  7  1  0  0  0  0
  4  3  1  0  0  0  0
  4  5  1  0  0  0  0
  5  6  2  0  0  0  0
  7 24  1  0  0  0  0
  7  6  1  0  0  0  0
  8  4  1  0  0  0  0
  9  8  2  0  0  0  0
 10  1  1  0  0  0  0
 10  8  1  0  0  0  0
 11 10  2  0  0  0  0
 12  1  1  0  0  0  0
 13 16  2  0  0  0  0
 13 12  1  0  0  0  0
 14 13  1  0  0  0  0
 15 14  1  0  0  0  0
 17 14  1  0  0  0  0
 17 23  1  0  0  0  0
 18 19  1  0  0  0  0
 18 17  2  0  0  0  0
 19 20  2  0  0  0  0
 20 21  1  0  0  0  0
 20 22  1  0  0  0  0
 23 22  2  0  0  0  0
 24 29  1  0  0  0  0
 25 26  1  0  0  0  0
 25 24  2  0  0  0  0
 26 27  2  0  0  0  0
 27 28  1  0  0  0  0
 29 28  2  0  0  0  0
M  END
>  <Pose>
1

>  <Score>
-8.370

$$$$
