/Users/jonathanwahrer/Desktop/Msc/3_Semester/Drug_Design_Praktikum/waehrer_HTS_screening/HTS_experiment/out/docking_results/vina_output/5l4q/0382_docked.pdbqt
 OpenBabel03212217583D

 31 34  0  0  0  0  0  0  0  0999 V2000
  -19.9870   -2.2920  -31.5750 N   0  0  0  0  0  0  0  0  0  0  0  0
  -20.7660   -3.3710  -31.5030 N   0  0  0  0  0  0  0  0  0  0  0  0
  -21.0140   -3.6470  -30.2430 N   0  0  0  0  0  0  0  0  0  0  0  0
  -20.3860   -2.7280  -29.4720 C   0  0  0  0  0  0  0  0  0  0  0  0
  -19.7560   -1.8980  -30.3110 C   0  0  0  0  0  0  0  0  0  0  0  0
  -19.1310   -0.9820  -29.4900 C   0  0  0  0  0  0  0  0  0  0  0  0
  -18.4290   -0.0290  -29.9420 O   0  0  0  0  0  0  0  0  0  0  0  0
  -19.3620   -1.2300  -28.1920 N   0  0  0  0  0  0  0  0  0  0  0  0
  -20.1570   -2.3370  -28.1730 C   0  0  0  0  0  0  0  0  0  0  0  0
  -20.5750   -2.8600  -27.1050 O   0  0  0  0  0  0  0  0  0  0  0  0
  -21.1030   -3.8860  -32.3430 H   0  0  0  0  0  0  0  0  0  0  0  0
  -21.5920   -4.4290  -29.8460 H   0  0  0  0  0  0  0  0  0  0  0  0
  -19.5130   -1.7040  -32.8120 C   0  0  0  0  0  2  0  0  0  0  0  0
  -20.7030   -1.1260  -33.5600 C   0  0  0  0  0  0  0  0  0  0  0  0
  -20.7620   -1.2170  -34.9570 N   0  0  0  0  0  0  0  0  0  0  0  0
  -19.9550   -1.6950  -35.4700 H   0  0  0  0  0  0  0  0  0  0  0  0
  -21.6140   -0.5720  -32.9110 O   0  0  0  0  0  0  0  0  0  0  0  0
  -21.8060   -0.7330  -35.7780 C   0  0  0  0  0  0  0  0  0  0  0  0
  -22.9500   -1.4270  -36.1080 C   0  0  0  0  0  3  0  0  0  0  0  0
  -23.9600   -0.8950  -36.9000 C   0  0  0  0  0  3  0  0  0  0  0  0
  -23.8530    0.3790  -37.3970 C   0  0  0  0  0  0  0  0  0  0  0  0
  -25.1960    1.1700  -38.4850 Br  0  0  0  0  0  0  0  0  0  0  0  0
  -22.7180    1.0920  -37.0810 C   0  0  0  0  0  3  0  0  0  0  0  0
  -21.7310    0.5690  -36.3070 C   0  0  0  0  0  3  0  0  0  0  0  0
  -18.8950   -0.5110  -27.0410 C   0  0  0  0  0  0  0  0  0  0  0  0
  -18.4190   -1.1790  -25.9330 C   0  0  0  0  0  3  0  0  0  0  0  0
  -17.9580   -0.4950  -24.8260 C   0  0  0  0  0  3  0  0  0  0  0  0
  -17.9500    0.8870  -24.7690 C   0  0  0  0  0  0  0  0  0  0  0  0
  -18.4250    1.5580  -25.8750 C   0  0  0  0  0  3  0  0  0  0  0  0
  -17.4410    1.5930  -23.5620 C   0  0  0  0  0  1  0  0  0  0  0  0
  -18.8860    0.8660  -26.9840 C   0  0  0  0  0  3  0  0  0  0  0  0
  1  2  1  0  0  0  0
  1  5  1  0  0  0  0
  2  3  1  0  0  0  0
  3 12  1  0  0  0  0
  3  4  1  0  0  0  0
  4  9  1  0  0  0  0
  5  6  1  0  0  0  0
  5  4  2  0  0  0  0
  6  8  1  0  0  0  0
  7  6  2  0  0  0  0
  8  9  1  0  0  0  0
  8 25  1  0  0  0  0
  9 10  2  0  0  0  0
 11  2  1  0  0  0  0
 13  1  1  0  0  0  0
 14 17  2  0  0  0  0
 14 13  1  0  0  0  0
 15 14  1  0  0  0  0
 16 15  1  0  0  0  0
 18 15  1  0  0  0  0
 19 18  1  0  0  0  0
 20 19  2  0  0  0  0
 21 23  2  0  0  0  0
 21 20  1  0  0  0  0
 22 21  1  0  0  0  0
 23 24  1  0  0  0  0
 24 18  2  0  0  0  0
 25 31  2  0  0  0  0
 25 26  1  0  0  0  0
 26 27  2  0  0  0  0
 27 28  1  0  0  0  0
 28 30  1  0  0  0  0
 29 28  2  0  0  0  0
 31 29  1  0  0  0  0
M  END
>  <Pose>
1

>  <Score>
-9.364

$$$$
