/Users/jonathanwahrer/Desktop/Msc/3_Semester/Drug_Design_Praktikum/waehrer_HTS_screening/HTS_experiment/out/docking_results/vina_output/5l4q/0385_docked.pdbqt
 OpenBabel03212217593D

 32 35  0  0  1  0  0  0  0  0999 V2000
  -20.0780   -0.3240  -33.6460 C   0  0  2  0  0  3  0  0  0  0  0  0
  -18.8190    0.4220  -33.3160 C   0  0  0  0  0  2  0  0  0  0  0  0
  -18.7320    1.7640  -33.9050 C   0  0  0  0  0  0  0  0  0  0  0  0
  -18.0880    2.6450  -33.2730 O   0  0  0  0  0  0  0  0  0  0  0  0
  -19.3620    2.0420  -35.1420 N   0  0  0  0  0  0  0  0  0  0  0  0
  -20.3370    1.1580  -35.6540 C   0  0  0  0  0  0  0  0  0  0  0  0
  -20.9230    1.4400  -36.8590 N   0  0  0  0  0  0  0  0  0  0  0  0
  -21.8400    0.6420  -37.4070 C   0  0  0  0  0  0  0  0  0  0  0  0
  -22.1830   -0.4650  -36.7360 N   0  0  0  0  0  0  0  0  0  0  0  0
  -21.6310   -0.7920  -35.5310 C   0  0  0  0  0  0  0  0  0  0  0  0
  -20.6790    0.0170  -34.9420 C   0  0  0  0  0  0  0  0  0  0  0  0
  -19.1220    2.9070  -35.7080 H   0  0  0  0  0  0  0  0  0  0  0  0
  -21.0390   -0.0350  -32.4730 C   0  0  0  0  0  0  0  0  0  0  0  0
  -20.7140   -0.4160  -31.2490 N   0  0  0  0  0  0  0  0  0  0  0  0
  -21.9540   -0.0650  -30.8070 H   0  0  0  0  0  0  0  0  0  0  0  0
  -22.0880    0.5810  -32.9170 O   0  0  0  0  0  0  0  0  0  0  0  0
  -20.3800   -0.8110  -29.9780 C   0  0  0  0  0  0  0  0  0  0  0  0
  -20.3380   -2.2220  -29.7420 C   0  0  0  0  0  3  0  0  0  0  0  0
  -19.9520   -2.7280  -28.5540 C   0  0  0  0  0  3  0  0  0  0  0  0
  -19.5810   -1.9140  -27.5130 C   0  0  0  0  0  0  0  0  0  0  0  0
  -19.0270   -2.6520  -25.8290 Br  0  0  0  0  0  0  0  0  0  0  0  0
  -19.6090   -0.5490  -27.6980 C   0  0  0  0  0  3  0  0  0  0  0  0
  -20.0000   -0.0320  -28.9080 C   0  0  0  0  0  3  0  0  0  0  0  0
  -22.0380   -1.9740  -34.8490 N   0  0  0  0  0  0  0  0  0  0  0  0
  -23.0090   -2.1640  -34.5840 H   0  0  0  0  0  0  0  0  0  0  0  0
  -21.3040   -2.6860  -34.6000 H   0  0  0  0  0  0  0  0  0  0  0  0
  -22.4470    0.9630  -38.6800 N   0  0  0  0  0  0  0  0  0  0  0  0
  -23.7100    1.6130  -38.6500 C   0  0  0  0  0  2  0  0  0  0  0  0
  -24.0770    2.3110  -39.9280 C   0  0  0  0  0  2  0  0  0  0  0  0
  -23.0580    2.2610  -40.8730 O   0  0  0  0  0  0  0  0  0  0  0  0
  -22.5960    0.9670  -41.0670 C   0  0  0  0  0  2  0  0  0  0  0  0
  -21.7300    0.6070  -39.8870 C   0  0  0  0  0  2  0  0  0  0  0  0
  1  2  1  0  0  0  0
  1 13  1  1  0  0  0
  3  2  1  0  0  0  0
  3  4  2  0  0  0  0
  5  3  1  0  0  0  0
  6  5  1  0  0  0  0
  6 11  2  0  0  0  0
  7  6  1  0  0  0  0
  8  7  2  0  0  0  0
  8  9  1  0  0  0  0
  9 10  2  0  0  0  0
 10 11  1  0  0  0  0
 10 24  1  0  0  0  0
 11  1  1  0  0  0  0
 12  5  1  0  0  0  0
 13 14  1  0  0  0  0
 14 15  1  0  0  0  0
 14 17  1  0  0  0  0
 16 13  2  0  0  0  0
 17 18  2  0  0  0  0
 17 23  1  0  0  0  0
 18 19  1  0  0  0  0
 19 20  2  0  0  0  0
 20 21  1  0  0  0  0
 22 20  1  0  0  0  0
 23 22  2  0  0  0  0
 24 26  1  0  0  0  0
 24 25  1  0  0  0  0
 27 28  1  0  0  0  0
 27  8  1  0  0  0  0
 29 28  1  0  0  0  0
 30 29  1  0  0  0  0
 31 30  1  0  0  0  0
 31 32  1  0  0  0  0
 32 27  1  0  0  0  0
M  END
>  <Pose>
1

>  <Score>
-8.674

$$$$
