/Users/jonathanwahrer/Desktop/Msc/3_Semester/Drug_Design_Praktikum/waehrer_HTS_screening/HTS_experiment/out/docking_results/vina_output/5l4q/0386_docked.pdbqt
 OpenBabel03212217593D

 36 39  0  0  1  0  0  0  0  0999 V2000
  -20.9970   -0.3170  -33.0800 C   0  0  2  0  0  3  0  0  0  0  0  0
  -22.1560   -0.5080  -34.0400 C   0  0  0  0  0  2  0  0  0  0  0  0
  -22.9020    0.7850  -34.1180 C   0  0  0  0  0  0  0  0  0  0  0  0
  -24.1140    0.8150  -33.9960 O   0  0  0  0  0  0  0  0  0  0  0  0
  -22.1340    1.9370  -34.3400 N   0  0  0  0  0  0  0  0  0  0  0  0
  -20.7540    1.9570  -34.0350 C   0  0  0  0  0  0  0  0  0  0  0  0
  -19.9840    3.0230  -34.3340 N   0  0  0  0  0  0  0  0  0  0  0  0
  -18.6630    3.0920  -34.1670 C   0  0  0  0  0  0  0  0  0  0  0  0
  -18.0890    1.9730  -33.6520 N   0  0  0  0  0  0  0  0  0  0  0  0
  -18.8020    0.8650  -33.3260 C   0  0  0  0  0  0  0  0  0  0  0  0
  -20.1510    0.7970  -33.4920 C   0  0  0  0  0  0  0  0  0  0  0  0
  -22.5370    2.8260  -34.7400 H   0  0  0  0  0  0  0  0  0  0  0  0
  -20.3720   -1.5860  -32.6210 C   0  0  0  0  0  0  0  0  0  0  0  0
  -20.2580   -1.9040  -31.3170 N   0  0  0  0  0  0  0  0  0  0  0  0
  -19.7940   -3.1250  -31.6450 H   0  0  0  0  0  0  0  0  0  0  0  0
  -19.9910   -2.2860  -33.6550 O   0  0  0  0  0  0  0  0  0  0  0  0
  -20.1400   -2.2280  -29.9880 C   0  0  0  0  0  0  0  0  0  0  0  0
  -19.3980   -1.2770  -29.2160 C   0  0  0  0  0  3  0  0  0  0  0  0
  -19.1810   -1.5620  -27.9100 C   0  0  0  0  0  3  0  0  0  0  0  0
  -19.6380   -2.7150  -27.2950 C   0  0  0  0  0  0  0  0  0  0  0  0
  -19.2750   -3.0110  -25.4610 Br  0  0  0  0  0  0  0  0  0  0  0  0
  -20.3460   -3.6310  -28.0180 C   0  0  0  0  0  3  0  0  0  0  0  0
  -20.5800   -3.3630  -29.3480 C   0  0  0  0  0  3  0  0  0  0  0  0
  -18.1330   -0.2410  -32.8060 O   0  0  0  0  0  0  0  0  0  0  0  0
  -17.3680   -0.6960  -33.3000 H   0  0  0  0  0  0  0  0  0  0  0  0
  -17.8850    4.2410  -34.4410 N   0  0  0  0  0  0  0  0  0  0  0  0
  -17.6100    4.8020  -35.7380 C   0  0  0  0  0  2  0  0  0  0  0  0
  -17.6380    6.3230  -35.6180 C   0  0  0  0  0  2  0  0  0  0  0  0
  -18.5660    6.7890  -34.5340 C   0  0  2  0  0  3  0  0  0  0  0  0
  -18.1680    6.2520  -33.2040 C   0  0  0  0  0  2  0  0  0  0  0  0
  -17.2960    4.9810  -33.3190 C   0  0  0  0  0  2  0  0  0  0  0  0
  -19.9850    6.5210  -34.8660 C   0  0  0  0  0  0  0  0  0  0  0  0
  -20.3740    6.7990  -36.0190 O   0  0  0  0  0  0  0  0  0  0  0  0
  -20.9180    5.9790  -33.9540 N   0  0  0  0  0  0  0  0  0  0  0  0
  -20.6600    5.2650  -33.2480 H   0  0  0  0  0  0  0  0  0  0  0  0
  -21.9040    6.3110  -33.9920 H   0  0  0  0  0  0  0  0  0  0  0  0
  1 13  1  6  0  0  0
  2  1  1  0  0  0  0
  3  2  1  0  0  0  0
  3  4  2  0  0  0  0
  5  3  1  0  0  0  0
  5  6  1  0  0  0  0
  6 11  2  0  0  0  0
  7  8  2  0  0  0  0
  7  6  1  0  0  0  0
  8  9  1  0  0  0  0
  9 10  2  0  0  0  0
 10 24  1  0  0  0  0
 11 10  1  0  0  0  0
 11  1  1  0  0  0  0
 12  5  1  0  0  0  0
 13 14  1  0  0  0  0
 14 17  1  0  0  0  0
 15 14  1  0  0  0  0
 16 13  2  0  0  0  0
 17 23  2  0  0  0  0
 17 18  1  0  0  0  0
 18 19  2  0  0  0  0
 19 20  1  0  0  0  0
 20 21  1  0  0  0  0
 22 20  2  0  0  0  0
 23 22  1  0  0  0  0
 25 24  1  0  0  0  0
 26  8  1  0  0  0  0
 26 31  1  0  0  0  0
 27 28  1  0  0  0  0
 27 26  1  0  0  0  0
 28 29  1  0  0  0  0
 29 32  1  6  0  0  0
 29 30  1  0  0  0  0
 31 30  1  0  0  0  0
 32 34  1  0  0  0  0
 33 32  2  0  0  0  0
 34 35  1  0  0  0  0
 36 34  1  0  0  0  0
M  END
>  <Pose>
1

>  <Score>
-8.390

$$$$
