/Users/jonathanwahrer/Desktop/Msc/3_Semester/Drug_Design_Praktikum/waehrer_HTS_screening/HTS_experiment/out/docking_results/vina_output/5l4q/0399_docked.pdbqt
 OpenBabel03212217593D

 28 31  0  0  1  0  0  0  0  0999 V2000
  -18.9460   -0.4330  -26.9920 N   0  0  0  0  0  0  0  0  0  0  0  0
  -19.9680   -0.4300  -27.9830 C   0  0  0  0  0  0  0  0  0  0  0  0
  -20.5600    0.5890  -28.3990 O   0  0  0  0  0  0  0  0  0  0  0  0
  -20.2490   -1.7910  -28.4640 C   0  0  2  0  0  3  0  0  0  0  0  0
  -19.7700   -2.6460  -27.2960 C   0  0  0  0  0  2  0  0  0  0  0  0
  -18.6600   -1.8190  -26.7250 C   0  0  0  0  0  0  0  0  0  0  0  0
  -17.6990   -2.3510  -26.1380 O   0  0  0  0  0  0  0  0  0  0  0  0
  -19.5610   -2.1690  -29.6780 N   0  0  1  0  0  4  0  0  0  0  0  0
  -20.1160   -3.3590  -30.2770 C   0  0  0  0  0  2  0  0  0  0  0  0
  -21.0910   -3.0940  -31.4030 C   0  0  0  0  0  2  0  0  0  0  0  0
  -20.6370   -2.0200  -32.2490 N   0  0  0  0  0  0  0  0  0  0  0  0
  -19.2770   -1.6000  -32.0040 C   0  0  0  0  0  2  0  0  0  0  0  0
  -19.3020   -1.0840  -30.5530 C   0  0  0  0  0  2  0  0  0  0  0  0
  -18.5970   -2.4940  -29.3260 H   0  0  0  0  0  0  0  0  0  0  0  0
  -21.4310   -1.4030  -33.2210 C   0  0  0  0  0  0  0  0  0  0  0  0
  -21.5490   -0.0410  -33.4120 C   0  0  0  0  0  3  0  0  0  0  0  0
  -22.3710    0.5190  -34.3770 C   0  0  0  0  0  3  0  0  0  0  0  0
  -23.1160   -0.2870  -35.1960 C   0  0  0  0  0  0  0  0  0  0  0  0
  -23.0360   -1.6570  -35.0480 C   0  0  0  0  0  3  0  0  0  0  0  0
  -23.9620    0.2130  -36.1870 O   0  0  0  0  0  1  0  0  0  0  0  0
  -22.2080   -2.1920  -34.0780 C   0  0  0  0  0  3  0  0  0  0  0  0
  -18.2980    0.6750  -26.3630 C   0  0  0  0  0  0  0  0  0  0  0  0
  -17.6120    1.6080  -27.0860 C   0  0  0  0  0  3  0  0  0  0  0  0
  -16.9790    2.6900  -26.4660 C   0  0  0  0  0  3  0  0  0  0  0  0
  -17.0220    2.8590  -25.1090 C   0  0  0  0  0  0  0  0  0  0  0  0
  -16.1580    4.3370  -24.2510 Br  0  0  0  0  0  0  0  0  0  0  0  0
  -17.7130    1.9220  -24.3760 C   0  0  0  0  0  3  0  0  0  0  0  0
  -18.3450    0.8400  -25.0090 C   0  0  0  0  0  3  0  0  0  0  0  0
  1  6  1  0  0  0  0
  1 22  1  0  0  0  0
  2  1  1  0  0  0  0
  3  2  2  0  0  0  0
  4  2  1  0  0  0  0
  4  5  1  1  0  0  0
  5  6  1  0  0  0  0
  6  7  2  0  0  0  0
  8 14  1  1  0  0  0
  8  4  1  0  0  0  0
  9  8  1  0  0  0  0
 10  9  1  0  0  0  0
 11 12  1  0  0  0  0
 11 10  1  0  0  0  0
 12 13  1  0  0  0  0
 13  8  1  0  0  0  0
 15 11  1  0  0  0  0
 16 15  1  0  0  0  0
 17 16  2  0  0  0  0
 18 19  2  0  0  0  0
 18 17  1  0  0  0  0
 19 21  1  0  0  0  0
 20 18  1  0  0  0  0
 21 15  2  0  0  0  0
 22 28  1  0  0  0  0
 23 24  1  0  0  0  0
 23 22  2  0  0  0  0
 24 25  2  0  0  0  0
 25 27  1  0  0  0  0
 25 26  1  0  0  0  0
 28 27  2  0  0  0  0
M  END
>  <Pose>
1

>  <Score>
-8.877

$$$$
