/Users/jonathanwahrer/Desktop/Msc/3_Semester/Drug_Design_Praktikum/waehrer_HTS_screening/HTS_experiment/out/docking_results/vina_output/5l4q/0408_docked.pdbqt
 OpenBabel03212218003D

 31 34  0  0  0  0  0  0  0  0999 V2000
  -22.2670   -0.3170  -36.1840 N   0  0  0  0  0  0  0  0  0  0  0  0
  -21.5710    0.1500  -35.1330 C   0  0  0  0  0  0  0  0  0  0  0  0
  -21.0410    1.3030  -35.0950 O   0  0  0  0  0  0  0  0  0  0  0  0
  -21.5160   -0.7960  -34.1090 C   0  0  0  0  0  0  0  0  0  0  0  0
  -22.1940   -1.8460  -34.5620 C   0  0  0  0  0  0  0  0  0  0  0  0
  -22.1280   -2.7440  -33.5620 N   0  0  0  0  0  0  0  0  0  0  0  0
  -21.4370   -2.2510  -32.5470 N   0  0  0  0  0  0  0  0  0  0  0  0
  -21.0530   -1.0420  -32.8770 N   0  0  0  0  0  0  0  0  0  0  0  0
  -22.6570   -1.5620  -35.8310 C   0  0  0  0  0  0  0  0  0  0  0  0
  -23.3340   -2.3080  -36.5720 O   0  0  0  0  0  0  0  0  0  0  0  0
  -22.5860   -3.6870  -33.6430 H   0  0  0  0  0  0  0  0  0  0  0  0
  -21.2630   -2.7830  -31.6630 H   0  0  0  0  0  0  0  0  0  0  0  0
  -20.2760   -0.1250  -32.0830 C   0  0  0  0  0  2  0  0  0  0  0  0
  -19.7240   -0.7810  -30.8500 C   0  0  0  0  0  0  0  0  0  0  0  0
  -18.7100   -1.4910  -31.0510 O   0  0  0  0  0  0  0  0  0  0  0  0
  -20.2980   -0.6110  -29.5870 N   0  0  0  0  0  0  0  0  0  0  0  0
  -21.1630    0.0270  -29.5760 H   0  0  0  0  0  0  0  0  0  0  0  0
  -19.8680   -1.1720  -28.3790 C   0  0  0  0  0  0  0  0  0  0  0  0
  -19.1760   -0.3320  -27.4920 C   0  0  0  0  0  0  0  0  0  0  0  0
  -18.7370   -0.8410  -26.2950 C   0  0  0  0  0  3  0  0  0  0  0  0
  -18.9110    1.0820  -27.8200 C   0  0  0  0  0  1  0  0  0  0  0  0
  -18.9450   -2.1500  -25.9160 C   0  0  0  0  0  3  0  0  0  0  0  0
  -19.6160   -2.9710  -26.7730 C   0  0  0  0  0  3  0  0  0  0  0  0
  -20.0620   -2.4710  -27.9780 C   0  0  0  0  0  3  0  0  0  0  0  0
  -22.5380    0.3550  -37.4110 C   0  0  0  0  0  0  0  0  0  0  0  0
  -21.5880    0.3930  -38.4170 C   0  0  0  0  0  3  0  0  0  0  0  0
  -21.8280    1.0390  -39.6150 C   0  0  0  0  0  3  0  0  0  0  0  0
  -23.0280    1.6730  -39.8540 C   0  0  0  0  0  0  0  0  0  0  0  0
  -23.3600    2.5700  -41.5200 Br  0  0  0  0  0  0  0  0  0  0  0  0
  -23.9800    1.6430  -38.8600 C   0  0  0  0  0  3  0  0  0  0  0  0
  -23.7320    0.9970  -37.6710 C   0  0  0  0  0  3  0  0  0  0  0  0
  1  9  1  0  0  0  0
  1  2  1  0  0  0  0
  2  3  2  0  0  0  0
  2  4  1  0  0  0  0
  4  8  1  0  0  0  0
  5  4  2  0  0  0  0
  5  6  1  0  0  0  0
  6  7  1  0  0  0  0
  7 12  1  0  0  0  0
  8  7  1  0  0  0  0
  8 13  1  0  0  0  0
  9  5  1  0  0  0  0
 10  9  2  0  0  0  0
 11  6  1  0  0  0  0
 13 14  1  0  0  0  0
 14 16  1  0  0  0  0
 15 14  2  0  0  0  0
 16 17  1  0  0  0  0
 16 18  1  0  0  0  0
 18 24  2  0  0  0  0
 18 19  1  0  0  0  0
 19 20  2  0  0  0  0
 20 22  1  0  0  0  0
 21 19  1  0  0  0  0
 23 22  2  0  0  0  0
 24 23  1  0  0  0  0
 25  1  1  0  0  0  0
 26 25  2  0  0  0  0
 27 26  1  0  0  0  0
 28 27  2  0  0  0  0
 28 30  1  0  0  0  0
 29 28  1  0  0  0  0
 30 31  2  0  0  0  0
 31 25  1  0  0  0  0
M  END
>  <Pose>
1

>  <Score>
-9.015

$$$$
