/Users/jonathanwahrer/Desktop/Msc/3_Semester/Drug_Design_Praktikum/waehrer_HTS_screening/HTS_experiment/out/docking_results/vina_output/5l4q/0421_docked.pdbqt
 OpenBabel03212218013D

 28 31  0  0  0  0  0  0  0  0999 V2000
  -21.6120   -2.4020  -32.9910 N   0  0  0  0  0  0  0  0  0  0  0  0
  -21.0150   -1.9220  -31.8780 C   0  0  0  0  0  0  0  0  0  0  0  0
  -20.7240   -0.7110  -31.6140 O   0  0  0  0  0  0  0  0  0  0  0  0
  -20.7300   -2.9460  -30.9930 C   0  0  0  0  0  0  0  0  0  0  0  0
  -21.1680   -4.0550  -31.5930 C   0  0  0  0  0  0  0  0  0  0  0  0
  -20.8910   -5.0600  -30.7270 N   0  0  0  0  0  0  0  0  0  0  0  0
  -20.3090   -4.5450  -29.6570 N   0  0  0  0  0  0  0  0  0  0  0  0
  -20.1960   -3.2340  -29.7930 N   0  0  0  0  0  0  0  0  0  0  0  0
  -21.7100   -3.7310  -32.8180 C   0  0  0  0  0  0  0  0  0  0  0  0
  -22.2210   -4.5010  -33.6690 O   0  0  0  0  0  0  0  0  0  0  0  0
  -21.1130   -6.0740  -30.9040 H   0  0  0  0  0  0  0  0  0  0  0  0
  -19.9700   -5.0600  -28.8030 H   0  0  0  0  0  0  0  0  0  0  0  0
  -19.6220   -2.3200  -28.8500 C   0  0  0  0  0  0  0  0  0  0  0  0
  -19.8290   -2.4710  -27.4950 C   0  0  0  0  0  3  0  0  0  0  0  0
  -19.2850   -1.6020  -26.5570 C   0  0  0  0  0  3  0  0  0  0  0  0
  -18.5060   -0.5420  -26.9690 C   0  0  0  0  0  0  0  0  0  0  0  0
  -18.2980   -0.3880  -28.3230 C   0  0  0  0  0  3  0  0  0  0  0  0
  -18.8410   -1.2580  -29.2560 C   0  0  0  0  0  3  0  0  0  0  0  0
  -17.9350    0.3670  -26.0320 N   0  0  0  0  0  0  0  0  0  0  0  0
  -18.1090    0.2500  -24.8040 O   0  0  0  0  0  0  0  0  0  0  0  0
  -17.1740    1.3970  -26.4850 O   0  0  0  0  0  0  0  0  0  0  0  0
  -22.0450   -1.6260  -34.1160 C   0  0  0  0  0  0  0  0  0  0  0  0
  -21.1600   -0.9960  -34.9660 C   0  0  0  0  0  3  0  0  0  0  0  0
  -21.6110   -0.2490  -36.0500 C   0  0  0  0  0  3  0  0  0  0  0  0
  -22.9600   -0.1160  -36.3100 C   0  0  0  0  0  0  0  0  0  0  0  0
  -23.6010    0.9060  -37.7970 Br  0  0  0  0  0  0  0  0  0  0  0  0
  -23.8480   -0.7460  -35.4630 C   0  0  0  0  0  3  0  0  0  0  0  0
  -23.3900   -1.4850  -34.3880 C   0  0  0  0  0  3  0  0  0  0  0  0
  1  9  1  0  0  0  0
  1  2  1  0  0  0  0
  2  3  2  0  0  0  0
  2  4  1  0  0  0  0
  4  8  1  0  0  0  0
  5  4  2  0  0  0  0
  5  6  1  0  0  0  0
  6  7  1  0  0  0  0
  7 12  1  0  0  0  0
  8  7  1  0  0  0  0
  8 13  1  0  0  0  0
  9  5  1  0  0  0  0
 10  9  2  0  0  0  0
 11  6  1  0  0  0  0
 13 14  1  0  0  0  0
 14 15  2  0  0  0  0
 16 15  1  0  0  0  0
 16 19  1  0  0  0  0
 17 16  2  0  0  0  0
 18 13  2  0  0  0  0
 18 17  1  0  0  0  0
 19 20  2  0  0  0  0
 21 19  2  0  0  0  0
 22  1  1  0  0  0  0
 23 22  2  0  0  0  0
 24 23  1  0  0  0  0
 25 24  2  0  0  0  0
 25 27  1  0  0  0  0
 26 25  1  0  0  0  0
 27 28  2  0  0  0  0
 28 22  1  0  0  0  0
M  END
>  <Pose>
1

>  <Score>
-9.207

$$$$
