/Users/jonathanwahrer/Desktop/Msc/3_Semester/Drug_Design_Praktikum/waehrer_HTS_screening/HTS_experiment/out/docking_results/vina_output/5l4q/0426_docked.pdbqt
 OpenBabel03212218023D

 29 32  0  0  1  0  0  0  0  0999 V2000
  -20.6360   -1.7420  -31.0340 N   0  0  0  0  0  0  0  0  0  0  0  0
  -21.2660   -2.9720  -31.4410 C   0  0  0  0  0  0  0  0  0  0  0  0
  -21.8380   -3.8040  -30.6810 O   0  0  0  0  0  0  0  0  0  0  0  0
  -21.1130   -3.0670  -32.9110 C   0  0  1  0  0  3  0  0  0  0  0  0
  -22.2240   -3.7050  -33.5900 N   0  0  0  0  0  0  0  0  0  0  0  0
  -22.2350   -2.9100  -34.7780 N   0  0  0  0  0  0  0  0  0  0  0  0
  -22.0060   -1.5480  -34.4160 C   0  0  0  0  0  0  0  0  0  0  0  0
  -21.3230   -1.6150  -33.2780 C   0  0  0  0  0  0  0  0  0  0  0  0
  -20.6750   -0.8950  -32.1890 C   0  0  0  0  0  0  0  0  0  0  0  0
  -20.2490    0.2840  -32.3380 O   0  0  0  0  0  0  0  0  0  0  0  0
  -23.0850   -3.3960  -33.0570 H   0  0  0  0  0  0  0  0  0  0  0  0
  -22.3850   -3.2540  -35.7460 H   0  0  0  0  0  0  0  0  0  0  0  0
  -22.4170   -0.3420  -35.1260 C   0  0  0  0  0  0  0  0  0  0  0  0
  -21.6030    0.5710  -35.4000 O   0  0  0  0  0  0  0  0  0  0  0  0
  -23.7250   -0.1370  -35.5380 O   0  0  0  0  0  0  0  0  0  0  0  0
  -24.0340    0.3050  -36.8530 C   0  0  0  0  0  2  0  0  0  0  0  0
  -23.8160   -0.8240  -37.8180 C   0  0  0  0  0  0  0  0  0  0  0  0
  -22.9120   -0.6860  -38.8700 C   0  0  0  0  0  3  0  0  0  0  0  0
  -22.6800   -1.6920  -39.7690 C   0  0  0  0  0  3  0  0  0  0  0  0
  -23.3710   -2.8930  -39.6310 C   0  0  0  0  0  3  0  0  0  0  0  0
  -24.2640   -3.0240  -38.5900 C   0  0  0  0  0  3  0  0  0  0  0  0
  -24.4910   -1.9920  -37.6770 C   0  0  0  0  0  3  0  0  0  0  0  0
  -20.0920   -1.4070  -29.7750 C   0  0  0  0  0  0  0  0  0  0  0  0
  -20.3050   -0.1350  -29.2290 C   0  0  0  0  0  3  0  0  0  0  0  0
  -19.8180    0.2670  -28.0280 C   0  0  0  0  0  3  0  0  0  0  0  0
  -19.0680   -0.6140  -27.2910 C   0  0  0  0  0  0  0  0  0  0  0  0
  -18.3660   -0.0690  -25.5810 Br  0  0  0  0  0  0  0  0  0  0  0  0
  -18.8350   -1.8800  -27.7940 C   0  0  0  0  0  3  0  0  0  0  0  0
  -19.3410   -2.2680  -29.0200 C   0  0  0  0  0  3  0  0  0  0  0  0
  1 23  1  0  0  0  0
  2  1  1  0  0  0  0
  2  3  2  0  0  0  0
  4  8  1  6  0  0  0
  4  2  1  0  0  0  0
  5 11  1  0  0  0  0
  5  4  1  0  0  0  0
  6  7  1  0  0  0  0
  6  5  1  0  0  0  0
  7  8  2  0  0  0  0
  8  9  1  0  0  0  0
  9  1  1  0  0  0  0
 10  9  2  0  0  0  0
 12  6  1  0  0  0  0
 13  7  1  0  0  0  0
 14 13  2  0  0  0  0
 15 13  1  0  0  0  0
 16 15  1  0  0  0  0
 17 22  1  0  0  0  0
 17 16  1  0  0  0  0
 18 17  2  0  0  0  0
 19 20  2  0  0  0  0
 19 18  1  0  0  0  0
 20 21  1  0  0  0  0
 21 22  2  0  0  0  0
 23 24  2  0  0  0  0
 23 29  1  0  0  0  0
 24 25  1  0  0  0  0
 25 26  2  0  0  0  0
 26 27  1  0  0  0  0
 28 26  1  0  0  0  0
 29 28  2  0  0  0  0
M  END
>  <Pose>
1

>  <Score>
-8.987

$$$$
