/Users/jonathanwahrer/Desktop/Msc/3_Semester/Drug_Design_Praktikum/waehrer_HTS_screening/HTS_experiment/out/docking_results/vina_output/5l4q/0429_docked.pdbqt
 OpenBabel03212218023D

 36 39  0  0  0  0  0  0  0  0999 V2000
  -20.4040   -3.3150  -30.0120 N   0  0  0  0  0  0  0  0  0  0  0  0
  -20.3180   -4.7100  -29.7160 C   0  0  0  0  0  0  0  0  0  0  0  0
  -19.7480   -5.0450  -28.6290 O   0  0  0  0  0  0  0  0  0  0  0  0
  -20.8580   -5.6560  -30.6220 N   0  0  0  0  0  0  0  0  0  0  0  0
  -21.5000   -5.3040  -31.8440 C   0  0  0  0  0  0  0  0  0  0  0  0
  -21.9720   -6.1700  -32.6320 O   0  0  0  0  0  0  0  0  0  0  0  0
  -21.6070   -3.8730  -32.1810 C   0  0  0  0  0  0  0  0  0  0  0  0
  -22.1910   -3.4830  -33.3040 C   0  0  0  0  0  3  0  0  0  0  0  0
  -21.0410   -2.9260  -31.2280 C   0  0  0  0  0  0  0  0  0  0  0  0
  -21.1080   -1.6940  -31.4730 O   0  0  0  0  0  0  0  0  0  0  0  0
  -20.7740   -6.6670  -30.3670 H   0  0  0  0  0  0  0  0  0  0  0  0
  -22.2780   -2.0970  -33.6010 N   0  0  0  0  0  0  0  0  0  0  0  0
  -21.5810   -1.4820  -33.0990 H   0  0  0  0  0  0  0  0  0  0  0  0
  -23.1870   -1.5200  -34.4730 N   0  0  0  0  0  0  0  0  0  0  0  0
  -24.0830   -1.1760  -34.0200 H   0  0  0  0  0  0  0  0  0  0  0  0
  -22.9840   -1.3790  -35.8740 C   0  0  0  0  0  0  0  0  0  0  0  0
  -22.3300   -0.3700  -36.4600 N   0  0  0  0  0  0  0  0  0  0  0  0
  -22.3240   -0.5520  -37.7900 C   0  0  0  0  0  0  0  0  0  0  0  0
  -21.6850    0.7960  -35.8450 C   0  0  0  0  0  1  0  0  0  0  0  0
  -23.0080   -1.7320  -38.0470 C   0  0  0  0  0  0  0  0  0  0  0  0
  -21.8270    0.1250  -38.8720 C   0  0  0  0  0  0  0  0  0  0  0  0
  -23.3850   -2.1890  -36.8540 N   0  0  0  0  0  0  0  0  0  0  0  0
  -23.1760   -2.1930  -39.3000 N   0  0  0  0  0  0  0  0  0  0  0  0
  -22.6710   -1.4940  -40.3160 C   0  0  0  0  0  0  0  0  0  0  0  0
  -23.8940   -3.4190  -39.4860 C   0  0  0  0  0  1  0  0  0  0  0  0
  -22.8070   -1.8940  -41.5130 O   0  0  0  0  0  0  0  0  0  0  0  0
  -21.9900   -0.3300  -40.1360 N   0  0  0  0  0  0  0  0  0  0  0  0
  -21.4610    0.3880  -41.2680 C   0  0  0  0  0  1  0  0  0  0  0  0
  -21.2030    1.1930  -38.7020 O   0  0  0  0  0  0  0  0  0  0  0  0
  -19.8680   -2.3830  -29.1170 C   0  0  0  0  0  0  0  0  0  0  0  0
  -20.3320   -2.3300  -27.8180 C   0  0  0  0  0  3  0  0  0  0  0  0
  -19.8320   -1.4280  -26.8990 C   0  0  0  0  0  3  0  0  0  0  0  0
  -18.8370   -0.5360  -27.2620 C   0  0  0  0  0  0  0  0  0  0  0  0
  -18.1360    0.7200  -25.9980 Br  0  0  0  0  0  0  0  0  0  0  0  0
  -18.3900   -0.6060  -28.5640 C   0  0  0  0  0  3  0  0  0  0  0  0
  -18.8770   -1.5010  -29.4950 C   0  0  0  0  0  3  0  0  0  0  0  0
  1  2  1  0  0  0  0
  1 30  1  0  0  0  0
  2  3  2  0  0  0  0
  4 11  1  0  0  0  0
  4  2  1  0  0  0  0
  5  4  1  0  0  0  0
  6  5  2  0  0  0  0
  7  5  1  0  0  0  0
  7  9  1  0  0  0  0
  8  7  2  0  0  0  0
  9  1  1  0  0  0  0
 10  9  2  0  0  0  0
 12  8  1  0  0  0  0
 12 13  1  0  0  0  0
 14 15  1  0  0  0  0
 14 12  1  0  0  0  0
 16 14  1  0  0  0  0
 17 16  1  0  0  0  0
 17 19  1  0  0  0  0
 18 17  1  0  0  0  0
 20 18  2  0  0  0  0
 20 22  1  0  0  0  0
 21 29  2  0  0  0  0
 21 18  1  0  0  0  0
 22 16  2  0  0  0  0
 23 20  1  0  0  0  0
 24 27  1  0  0  0  0
 24 23  1  0  0  0  0
 25 23  1  0  0  0  0
 26 24  2  0  0  0  0
 27 21  1  0  0  0  0
 28 27  1  0  0  0  0
 30 31  1  0  0  0  0
 31 32  2  0  0  0  0
 33 32  1  0  0  0  0
 33 34  1  0  0  0  0
 35 33  2  0  0  0  0
 36 30  2  0  0  0  0
 36 35  1  0  0  0  0
M  END
>  <Pose>
1

>  <Score>
-10.918

$$$$
