/Users/jonathanwahrer/Desktop/Msc/3_Semester/Drug_Design_Praktikum/waehrer_HTS_screening/HTS_experiment/out/docking_results/vina_output/5l4q/0436_docked.pdbqt
 OpenBabel03212218023D

 29 32  0  0  0  0  0  0  0  0999 V2000
  -21.4310    0.6300  -35.6740 N   0  0  0  0  0  0  0  0  0  0  0  0
  -21.3050    2.0520  -35.4230 C   0  0  0  0  0  2  0  0  0  0  0  0
  -20.8730    2.3650  -34.0100 C   0  0  0  0  0  2  0  0  0  0  0  0
  -19.7310    1.3960  -33.6690 C   0  0  0  0  0  2  0  0  0  0  0  0
  -20.3590    0.1050  -33.5570 N   0  0  0  0  0  0  0  0  0  0  0  0
  -21.2010   -0.2440  -34.5760 C   0  0  0  0  0  0  0  0  0  0  0  0
  -21.6990   -1.4640  -34.3160 N   0  0  0  0  0  0  0  0  0  0  0  0
  -21.1570   -1.8590  -33.1370 C   0  0  0  0  0  0  0  0  0  0  0  0
  -20.3100   -0.8750  -32.6510 C   0  0  0  0  0  0  0  0  0  0  0  0
  -19.6390   -1.0490  -31.4560 C   0  0  0  0  0  0  0  0  0  0  0  0
  -18.8680   -0.1190  -31.0440 O   0  0  0  0  0  0  0  0  0  0  0  0
  -19.8130   -2.1880  -30.7620 N   0  0  0  0  0  0  0  0  0  0  0  0
  -20.6400   -3.1260  -31.2560 C   0  0  0  0  0  0  0  0  0  0  0  0
  -20.7740   -4.1770  -30.5740 O   0  0  0  0  0  0  0  0  0  0  0  0
  -21.2980   -2.9800  -32.4060 N   0  0  0  0  0  0  0  0  0  0  0  0
  -22.1860   -4.0160  -32.9110 C   0  0  0  0  0  1  0  0  0  0  0  0
  -21.7700    0.1870  -36.9730 C   0  0  0  0  0  0  0  0  0  0  0  0
  -22.9590   -0.4280  -37.2910 C   0  0  0  0  0  3  0  0  0  0  0  0
  -23.2040   -0.8300  -38.6060 C   0  0  0  0  0  3  0  0  0  0  0  0
  -22.2720   -0.6220  -39.6010 C   0  0  0  0  0  0  0  0  0  0  0  0
  -22.5710   -1.1530  -41.3860 Br  0  0  0  0  0  0  0  0  0  0  0  0
  -21.0770   -0.0070  -39.2880 C   0  0  0  0  0  3  0  0  0  0  0  0
  -20.8650    0.3770  -37.9910 C   0  0  0  0  0  3  0  0  0  0  0  0
  -19.1120   -2.3810  -29.5050 C   0  0  0  0  0  2  0  0  0  0  0  0
  -19.9550   -1.8230  -28.3980 C   0  0  0  0  0  0  0  0  0  0  0  0
  -20.6730   -2.5770  -27.7010 O   0  0  0  0  0  0  0  0  0  0  0  0
  -19.9660   -0.4390  -28.1070 N   0  0  0  0  0  0  0  0  0  0  0  0
  -20.0390   -0.0670  -27.1330 H   0  0  0  0  0  0  0  0  0  0  0  0
  -19.9000    0.2790  -28.8690 H   0  0  0  0  0  0  0  0  0  0  0  0
  1  2  1  0  0  0  0
  1  6  1  0  0  0  0
  2  3  1  0  0  0  0
  3  4  1  0  0  0  0
  4  5  1  0  0  0  0
  5  9  1  0  0  0  0
  6  7  2  0  0  0  0
  6  5  1  0  0  0  0
  7  8  1  0  0  0  0
  8  9  2  0  0  0  0
  8 15  1  0  0  0  0
  9 10  1  0  0  0  0
 10 11  2  0  0  0  0
 10 12  1  0  0  0  0
 12 24  1  0  0  0  0
 13 12  1  0  0  0  0
 13 14  2  0  0  0  0
 15 13  1  0  0  0  0
 16 15  1  0  0  0  0
 17  1  1  0  0  0  0
 18 17  1  0  0  0  0
 19 18  2  0  0  0  0
 20 22  2  0  0  0  0
 20 19  1  0  0  0  0
 21 20  1  0  0  0  0
 22 23  1  0  0  0  0
 23 17  2  0  0  0  0
 24 25  1  0  0  0  0
 25 27  1  0  0  0  0
 25 26  2  0  0  0  0
 27 28  1  0  0  0  0
 29 27  1  0  0  0  0
M  END
>  <Pose>
1

>  <Score>
-7.988

$$$$
