/Users/jonathanwahrer/Desktop/Msc/3_Semester/Drug_Design_Praktikum/waehrer_HTS_screening/HTS_experiment/out/docking_results/vina_output/5l4q/0439_docked.pdbqt
 OpenBabel03212218023D

 28 32  0  0  1  0  0  0  0  0999 V2000
  -19.7360   -1.6720  -29.2850 N   0  0  0  0  0  0  0  0  0  0  0  0
  -20.5480   -2.7210  -29.3580 N   0  0  0  0  0  0  0  0  0  0  0  0
  -20.7550   -3.0670  -30.6420 C   0  0  0  0  0  0  0  0  0  0  0  0
  -21.5120   -4.0680  -31.0740 C   0  0  0  0  0  1  0  0  0  0  0  0
  -20.0440   -2.2030  -31.4500 C   0  0  0  0  0  0  0  0  0  0  0  0
  -19.4200   -1.3450  -30.5560 C   0  0  0  0  0  0  0  0  0  0  0  0
  -18.6720   -0.4020  -30.9000 O   0  0  0  0  0  0  0  0  0  0  0  0
  -20.9650   -3.2060  -28.5390 H   0  0  0  0  0  0  0  0  0  0  0  0
  -19.9640   -2.1820  -32.7830 C   0  0  0  0  0  2  0  0  0  0  0  0
  -20.1580   -0.9360  -33.4420 N   0  0  0  0  0  0  0  0  0  0  0  0
  -19.4430   -0.2060  -33.3130 H   0  0  0  0  0  0  0  0  0  0  0  0
  -21.3040   -0.6770  -34.2650 C   0  0  1  0  0  0  0  0  0  0  0  0
  -22.1300   -1.9130  -34.4320 C   0  0  0  0  0  2  0  0  0  0  0  0
  -23.3300   -1.5850  -35.1890 N   0  0  1  0  0  0  0  0  0  0  0  0
  -24.0680   -0.5780  -34.4360 C   0  0  0  0  0  2  0  0  0  0  0  0
  -22.9480   -1.0830  -36.4840 C   0  0  0  0  0  2  0  0  0  0  0  0
  -23.3240    0.6520  -34.3170 N   0  0  2  0  0  0  0  0  0  0  0  0
  -22.9310    1.1150  -35.6450 C   0  0  0  0  0  2  0  0  0  0  0  0
  -22.1200    0.4130  -33.5640 C   0  0  0  0  0  2  0  0  0  0  0  0
  -22.1580    0.1190  -36.3520 N   0  0  1  0  0  0  0  0  0  0  0  0
  -20.9360   -0.1680  -35.6390 C   0  0  0  0  0  2  0  0  0  0  0  0
  -19.2750   -1.0060  -28.1150 C   0  0  0  0  0  0  0  0  0  0  0  0
  -18.8380   -1.7350  -27.0290 C   0  0  0  0  0  3  0  0  0  0  0  0
  -18.3810   -1.1160  -25.8690 C   0  0  0  0  0  3  0  0  0  0  0  0
  -18.3580    0.2440  -25.7840 C   0  0  0  0  0  0  0  0  0  0  0  0
  -17.7370    1.1510  -24.2050 Br  0  0  0  0  0  0  0  0  0  0  0  0
  -18.7900    1.0040  -26.8580 C   0  0  0  0  0  3  0  0  0  0  0  0
  -19.2370    0.3660  -27.9930 C   0  0  0  0  0  3  0  0  0  0  0  0
  1 22  1  0  0  0  0
  2  1  1  0  0  0  0
  2  8  1  0  0  0  0
  3  2  1  0  0  0  0
  4  3  1  0  0  0  0
  5  3  2  0  0  0  0
  5  6  1  0  0  0  0
  6  1  1  0  0  0  0
  7  6  2  0  0  0  0
  9  5  1  0  0  0  0
 10 11  1  0  0  0  0
 10  9  1  0  0  0  0
 12 19  1  0  0  0  0
 12 10  1  1  0  0  0
 13 12  1  0  0  0  0
 14 16  1  6  0  0  0
 14 15  1  0  0  0  0
 14 13  1  0  0  0  0
 15 17  1  0  0  0  0
 17 18  1  6  0  0  0
 17 19  1  0  0  0  0
 20 16  1  1  0  0  0
 20 18  1  0  0  0  0
 20 21  1  0  0  0  0
 21 12  1  0  0  0  0
 22 28  2  0  0  0  0
 22 23  1  0  0  0  0
 23 24  2  0  0  0  0
 24 25  1  0  0  0  0
 25 26  1  0  0  0  0
 27 25  2  0  0  0  0
 28 27  1  0  0  0  0
M  END
>  <Pose>
1

>  <Score>
-8.618

$$$$
