/Users/jonathanwahrer/Desktop/Msc/3_Semester/Drug_Design_Praktikum/waehrer_HTS_screening/HTS_experiment/out/docking_results/vina_output/5l4q/0441_docked.pdbqt
 OpenBabel03212218033D

 36 39  0  0  1  0  0  0  0  0999 V2000
  -21.3480    0.0790  -33.7240 C   0  0  0  0  0  0  0  0  0  0  0  0
  -21.3180   -0.2300  -35.0340 N   0  0  0  0  0  0  0  0  0  0  0  0
  -22.3730    0.0230  -35.7910 C   0  0  0  0  0  0  0  0  0  0  0  0
  -22.5810   -0.1900  -37.0970 N   0  0  0  0  0  0  0  0  0  0  0  0
  -23.8330    0.2570  -37.3450 C   0  0  0  0  0  3  0  0  0  0  0  0
  -24.3830    0.7320  -36.2240 N   0  0  0  0  0  0  0  0  0  0  0  0
  -23.5100    0.6100  -35.2220 C   0  0  0  0  0  0  0  0  0  0  0  0
  -23.5490    0.9300  -33.8770 C   0  0  0  0  0  0  0  0  0  0  0  0
  -22.4540    0.6520  -33.1640 N   0  0  0  0  0  0  0  0  0  0  0  0
  -20.2330   -0.1820  -32.8760 N   0  0  0  0  0  0  0  0  0  0  0  0
  -20.1720   -1.3000  -32.0190 C   0  0  0  0  0  0  0  0  0  0  0  0
  -21.1160   -2.1090  -31.9760 O   0  0  0  0  0  0  0  0  0  0  0  0
  -19.4280    0.5080  -32.9130 H   0  0  0  0  0  0  0  0  0  0  0  0
  -18.9840   -1.5060  -31.1700 C   0  0  0  0  0  2  0  0  0  0  0  0
  -19.2750   -2.1480  -29.9620 O   0  0  0  0  0  0  0  0  0  0  0  0
  -19.0020   -1.5130  -28.7710 C   0  0  0  0  0  0  0  0  0  0  0  0
  -19.1610   -2.1730  -27.5750 C   0  0  0  0  0  3  0  0  0  0  0  0
  -18.8880   -1.5370  -26.3610 C   0  0  0  0  0  3  0  0  0  0  0  0
  -18.4500   -0.2310  -26.3580 C   0  0  0  0  0  0  0  0  0  0  0  0
  -18.0740    0.6430  -24.6900 Br  0  0  0  0  0  0  0  0  0  0  0  0
  -18.2920    0.4270  -27.5600 C   0  0  0  0  0  3  0  0  0  0  0  0
  -18.5660   -0.2120  -28.7470 C   0  0  0  0  0  3  0  0  0  0  0  0
  -24.7010    1.5090  -33.3670 O   0  0  0  0  0  0  0  0  0  0  0  0
  -25.5500    1.3760  -33.9270 H   0  0  0  0  0  0  0  0  0  0  0  0
  -21.7510   -0.7490  -38.0940 C   0  0  2  0  0  3  0  0  0  0  0  0
  -20.7720    0.1550  -38.5260 O   0  0  0  0  0  0  0  0  0  0  0  0
  -21.3250    0.6670  -39.6970 C   0  0  2  0  0  3  0  0  0  0  0  0
  -21.6810   -0.6260  -40.4160 C   0  0  1  0  0  3  0  0  0  0  0  0
  -22.3990   -1.3400  -39.2730 C   0  0  1  0  0  3  0  0  0  0  0  0
  -20.3500    1.4990  -40.4790 C   0  0  0  0  0  2  0  0  0  0  0  0
  -19.0560    1.0650  -40.3930 O   0  0  0  0  0  0  0  0  0  0  0  0
  -19.0610    0.0800  -40.2710 H   0  0  0  0  0  0  0  0  0  0  0  0
  -22.4650   -0.4420  -41.5200 O   0  0  0  0  0  0  0  0  0  0  0  0
  -22.0720    0.2110  -42.1830 H   0  0  0  0  0  0  0  0  0  0  0  0
  -22.1740   -2.7330  -39.3610 O   0  0  0  0  0  0  0  0  0  0  0  0
  -21.8810   -2.8930  -40.2930 H   0  0  0  0  0  0  0  0  0  0  0  0
  1  9  1  0  0  0  0
  1 10  1  0  0  0  0
  2  1  2  0  0  0  0
  3  7  2  0  0  0  0
  3  2  1  0  0  0  0
  4  3  1  0  0  0  0
  5  4  1  0  0  0  0
  5  6  2  0  0  0  0
  6  7  1  0  0  0  0
  7  8  1  0  0  0  0
  8 23  1  0  0  0  0
  8  9  2  0  0  0  0
 10 11  1  0  0  0  0
 11 12  2  0  0  0  0
 11 14  1  0  0  0  0
 13 10  1  0  0  0  0
 14 15  1  0  0  0  0
 15 16  1  0  0  0  0
 16 22  2  0  0  0  0
 16 17  1  0  0  0  0
 17 18  2  0  0  0  0
 18 19  1  0  0  0  0
 19 20  1  0  0  0  0
 21 19  2  0  0  0  0
 22 21  1  0  0  0  0
 24 23  1  0  0  0  0
 25  4  1  1  0  0  0
 26 25  1  0  0  0  0
 27 30  1  6  0  0  0
 27 26  1  0  0  0  0
 28 33  1  6  0  0  0
 28 27  1  0  0  0  0
 28 29  1  0  0  0  0
 29 35  1  6  0  0  0
 29 25  1  0  0  0  0
 30 31  1  0  0  0  0
 31 32  1  0  0  0  0
 34 33  1  0  0  0  0
 36 35  1  0  0  0  0
M  END
>  <Pose>
1

>  <Score>
-8.801

$$$$
