/Users/jonathanwahrer/Desktop/Msc/3_Semester/Drug_Design_Praktikum/waehrer_HTS_screening/HTS_experiment/out/docking_results/vina_output/5l4q/0444_docked.pdbqt
 OpenBabel03212218033D

 33 36  0  0  1  0  0  0  0  0999 V2000
  -21.8480    0.2150  -36.2860 N   0  0  0  0  0  0  0  0  0  0  0  0
  -22.3560   -0.6840  -37.1600 C   0  0  0  0  0  0  0  0  0  0  0  0
  -21.8670   -0.3940  -38.4130 C   0  0  0  0  0  0  0  0  0  0  0  0
  -21.0930    0.6590  -38.2500 N   0  0  0  0  0  0  0  0  0  0  0  0
  -21.0540    1.0730  -36.9450 C   0  0  0  0  0  0  0  0  0  0  0  0
  -22.1780   -1.1050  -39.5370 N   0  0  0  0  0  0  0  0  0  0  0  0
  -23.0080   -2.1400  -39.3970 C   0  0  0  0  0  0  0  0  0  0  0  0
  -23.3060   -2.8080  -40.4240 O   0  0  0  0  0  0  0  0  0  0  0  0
  -23.5010   -2.4450  -38.1890 N   0  0  0  0  0  0  0  0  0  0  0  0
  -23.2110   -1.7600  -37.0590 C   0  0  0  0  0  0  0  0  0  0  0  0
  -23.6840   -2.0650  -35.9540 O   0  0  0  0  0  0  0  0  0  0  0  0
  -21.5990   -0.7230  -40.8250 C   0  0  0  0  0  1  0  0  0  0  0  0
  -24.1460   -3.2590  -38.1200 H   0  0  0  0  0  0  0  0  0  0  0  0
  -22.0660    0.2270  -34.8560 C   0  0  0  0  0  2  0  0  0  0  0  0
  -21.0800   -0.5610  -34.0440 C   0  0  1  0  0  3  0  0  0  0  0  0
  -20.7290   -0.0180  -32.6950 C   0  0  0  0  0  2  0  0  0  0  0  0
  -20.7550   -0.8880  -31.7070 O   0  0  0  0  0  0  0  0  0  0  0  0
  -20.4720   -1.3630  -30.5190 C   0  0  0  0  0  0  0  0  0  0  0  0
  -20.3080   -2.7010  -30.2200 C   0  0  0  0  0  3  0  0  0  0  0  0
  -20.0120   -3.1410  -28.9490 C   0  0  0  0  0  3  0  0  0  0  0  0
  -19.8750   -2.2250  -27.9410 C   0  0  0  0  0  0  0  0  0  0  0  0
  -19.4670   -2.8390  -26.1900 Br  0  0  0  0  0  0  0  0  0  0  0  0
  -20.0310   -0.8800  -28.2080 C   0  0  0  0  0  3  0  0  0  0  0  0
  -20.3220   -0.4420  -29.4570 C   0  0  0  0  0  3  0  0  0  0  0  0
  -21.4830   -1.8930  -33.8700 O   0  0  0  0  0  0  0  0  0  0  0  0
  -22.4590   -1.9710  -34.1200 H   0  0  0  0  0  0  0  0  0  0  0  0
  -20.3410    2.2440  -36.5010 N   0  0  0  0  0  0  0  0  0  0  0  0
  -18.9090    1.9910  -36.2270 C   0  0  0  0  0  2  0  0  0  0  0  0
  -18.0890    3.2070  -36.0670 C   0  0  0  0  0  2  0  0  0  0  0  0
  -18.7920    4.2950  -35.4330 N   0  0  0  0  0  0  0  0  0  0  0  0
  -19.8610    4.6430  -36.3150 C   0  0  0  0  0  2  0  0  0  0  0  0
  -19.1740    3.9980  -34.0920 C   0  0  0  0  0  1  0  0  0  0  0  0
  -20.9140    3.5380  -36.3850 C   0  0  0  0  0  2  0  0  0  0  0  0
  1 14  1  0  0  0  0
  2 10  1  0  0  0  0
  2  1  1  0  0  0  0
  3  4  1  0  0  0  0
  3  2  2  0  0  0  0
  4  5  2  0  0  0  0
  5 27  1  0  0  0  0
  5  1  1  0  0  0  0
  6  7  1  0  0  0  0
  6  3  1  0  0  0  0
  7  9  1  0  0  0  0
  8  7  2  0  0  0  0
  9 13  1  0  0  0  0
  9 10  1  0  0  0  0
 10 11  2  0  0  0  0
 12  6  1  0  0  0  0
 15 14  1  1  0  0  0
 15 25  1  0  0  0  0
 15 16  1  0  0  0  0
 16 17  1  0  0  0  0
 17 18  1  0  0  0  0
 18 19  2  0  0  0  0
 18 24  1  0  0  0  0
 19 20  1  0  0  0  0
 20 21  2  0  0  0  0
 21 22  1  0  0  0  0
 23 21  1  0  0  0  0
 24 23  2  0  0  0  0
 26 25  1  0  0  0  0
 27 33  1  0  0  0  0
 27 28  1  0  0  0  0
 28 29  1  0  0  0  0
 29 30  1  0  0  0  0
 30 32  1  0  0  0  0
 31 30  1  0  0  0  0
 33 31  1  0  0  0  0
M  END
>  <Pose>
1

>  <Score>
-8.380

$$$$
