/Users/jonathanwahrer/Desktop/Msc/3_Semester/Drug_Design_Praktikum/waehrer_HTS_screening/HTS_experiment/out/docking_results/vina_output/5l4q/0454_docked.pdbqt
 OpenBabel03212218033D

 21 25  0  0  1  0  0  0  0  0999 V2000
  -20.5810   -2.1230  -33.5250 C   0  0  0  0  0  2  0  0  0  0  0  0
  -20.1310   -2.1030  -32.1330 C   0  0  0  0  0  0  0  0  0  0  0  0
  -20.7280   -3.0130  -31.2430 C   0  0  0  0  0  0  0  0  0  0  0  0
  -21.9590   -4.3680  -31.7980 Br  0  0  0  0  0  0  0  0  0  0  0  0
  -20.3920   -2.8790  -29.9090 C   0  0  0  0  0  3  0  0  0  0  0  0
  -19.5100   -1.9030  -29.4920 C   0  0  0  0  0  0  0  0  0  0  0  0
  -18.9090   -0.9970  -30.3340 C   0  0  0  0  0  0  0  0  0  0  0  0
  -19.0560   -1.6220  -28.1670 O   0  0  0  0  0  0  0  0  0  0  0  0
  -19.2470   -1.1330  -31.6530 C   0  0  0  0  0  3  0  0  0  0  0  0
  -18.1250   -0.2040  -29.5120 O   0  0  0  0  0  0  0  0  0  0  0  0
  -18.7350   -0.1980  -28.1920 C   0  0  0  0  0  2  0  0  0  0  0  0
  -21.3980   -1.0970  -34.0210 N   0  0  2  0  0  4  0  0  0  0  0  0
  -22.5970   -1.8880  -34.4770 C   0  0  0  0  0  2  0  0  0  0  0  0
  -23.4860   -1.1830  -35.3000 N   0  0  2  0  0  0  0  0  0  0  0  0
  -22.7290   -0.6960  -36.4390 C   0  0  0  0  0  2  0  0  0  0  0  0
  -24.0360   -0.1020  -34.4730 C   0  0  0  0  0  2  0  0  0  0  0  0
  -21.7620    0.2490  -35.9370 N   0  0  2  0  0  0  0  0  0  0  0  0
  -20.7700   -0.3960  -35.1400 C   0  0  0  0  0  2  0  0  0  0  0  0
  -22.3560    1.3340  -35.1460 C   0  0  0  0  0  2  0  0  0  0  0  0
  -22.9610    0.7210  -33.9740 N   0  0  2  0  0  0  0  0  0  0  0  0
  -21.9750   -0.0710  -33.2090 C   0  0  0  0  0  2  0  0  0  0  0  0
  1  2  1  0  0  0  0
  2  9  2  0  0  0  0
  2  3  1  0  0  0  0
  3  5  2  0  0  0  0
  4  3  1  0  0  0  0
  5  6  1  0  0  0  0
  6  8  1  0  0  0  0
  7 10  1  0  0  0  0
  7  6  2  0  0  0  0
  9  7  1  0  0  0  0
 10 11  1  0  0  0  0
 11  8  1  0  0  0  0
 12  1  1  1  0  0  0
 12 21  1  0  0  0  0
 13 12  1  0  0  0  0
 14 15  1  6  0  0  0
 14 13  1  0  0  0  0
 14 16  1  0  0  0  0
 16 20  1  0  0  0  0
 17 15  1  1  0  0  0
 17 19  1  0  0  0  0
 17 18  1  0  0  0  0
 18 12  1  0  0  0  0
 20 19  1  6  0  0  0
 20 21  1  0  0  0  0
M  END
>  <Pose>
1

>  <Score>
-7.335

$$$$
