/Users/jonathanwahrer/Desktop/Msc/3_Semester/Drug_Design_Praktikum/waehrer_HTS_screening/HTS_experiment/out/docking_results/vina_output/5l4q/0455_docked.pdbqt
 OpenBabel03212218043D

 26 29  0  0  0  0  0  0  0  0999 V2000
  -21.1240   -2.5020  -32.3760 N   0  0  0  0  0  0  0  0  0  0  0  0
  -19.9640   -2.3830  -33.2980 C   0  0  0  0  0  2  0  0  0  0  0  0
  -20.4010   -1.2850  -34.2630 C   0  0  0  0  0  2  0  0  0  0  0  0
  -21.7730   -0.9440  -34.1640 N   0  0  0  0  0  0  0  0  0  0  0  0
  -22.6410   -2.0930  -34.1730 C   0  0  0  0  0  2  0  0  0  0  0  0
  -22.1310   -3.1400  -33.2270 C   0  0  0  0  0  2  0  0  0  0  0  0
  -20.7680   -3.3690  -31.2690 C   0  0  0  0  0  2  0  0  0  0  0  0
  -20.2960   -2.5670  -30.1130 C   0  0  0  0  0  0  0  0  0  0  0  0
  -20.0080   -3.1670  -28.8890 C   0  0  0  0  0  0  0  0  0  0  0  0
  -20.2740   -5.0540  -28.7590 Br  0  0  0  0  0  0  0  0  0  0  0  0
  -19.5480   -2.4510  -27.8070 C   0  0  0  0  0  3  0  0  0  0  0  0
  -19.3510   -1.0950  -27.8860 C   0  0  0  0  0  0  0  0  0  0  0  0
  -19.6250   -0.4760  -29.0720 C   0  0  0  0  0  0  0  0  0  0  0  0
  -18.8880   -0.3380  -26.8180 O   0  0  0  0  0  0  0  0  0  0  0  0
  -20.0900   -1.2040  -30.1660 C   0  0  0  0  0  3  0  0  0  0  0  0
  -19.4320    0.8930  -29.1720 O   0  0  0  0  0  0  0  0  0  0  0  0
  -19.2240    1.7320  -28.0650 C   0  0  0  0  0  2  0  0  0  0  0  0
  -18.5240    1.0120  -26.9570 C   0  0  0  0  0  2  0  0  0  0  0  0
  -22.1380    0.1000  -33.2840 C   0  0  0  0  0  2  0  0  0  0  0  0
  -22.4730    1.3730  -33.8960 C   0  0  0  0  0  0  0  0  0  0  0  0
  -23.6480    1.7950  -33.9060 O   0  0  0  0  0  0  0  0  0  0  0  0
  -21.4770    2.1750  -34.4990 N   0  0  0  0  0  0  0  0  0  0  0  0
  -20.4560    1.8880  -34.5300 H   0  0  0  0  0  0  0  0  0  0  0  0
  -21.7760    3.4580  -35.1240 C   0  0  0  0  0  3  0  0  0  0  0  0
  -20.8920    4.0080  -36.1640 C   0  0  0  0  0  2  0  0  0  0  0  0
  -20.7970    4.5780  -34.7810 C   0  0  0  0  0  2  0  0  0  0  0  0
  1  7  1  0  0  0  0
  2  1  1  0  0  0  0
  3  4  1  0  0  0  0
  3  2  1  0  0  0  0
  4 19  1  0  0  0  0
  5  4  1  0  0  0  0
  5  6  1  0  0  0  0
  6  1  1  0  0  0  0
  7  8  1  0  0  0  0
  8  9  1  0  0  0  0
  9 10  1  0  0  0  0
  9 11  2  0  0  0  0
 12 11  1  0  0  0  0
 12 14  1  0  0  0  0
 13 12  2  0  0  0  0
 15  8  2  0  0  0  0
 15 13  1  0  0  0  0
 16 13  1  0  0  0  0
 16 17  1  0  0  0  0
 17 18  1  0  0  0  0
 18 14  1  0  0  0  0
 20 19  1  0  0  0  0
 21 20  2  0  0  0  0
 22 20  1  0  0  0  0
 23 22  1  0  0  0  0
 24 26  1  0  0  0  0
 24 22  1  0  0  0  0
 25 24  1  0  0  0  0
 25 26  1  0  0  0  0
M  END
>  <Pose>
1

>  <Score>
-7.382

$$$$
