/Users/jonathanwahrer/Desktop/Msc/3_Semester/Drug_Design_Praktikum/waehrer_HTS_screening/HTS_experiment/out/docking_results/vina_output/5l4q/0459_docked.pdbqt
 OpenBabel03212218043D

 29 32  0  0  0  0  0  0  0  0999 V2000
  -20.4100   -2.5460  -30.9230 C   0  0  0  0  0  0  0  0  0  0  0  0
  -20.3570   -1.2530  -31.4620 C   0  0  0  0  0  3  0  0  0  0  0  0
  -20.8760   -0.9360  -32.6960 C   0  0  0  0  0  3  0  0  0  0  0  0
  -21.4820   -1.9020  -33.4690 C   0  0  0  0  0  0  0  0  0  0  0  0
  -21.5420   -3.1800  -32.9560 C   0  0  0  0  0  3  0  0  0  0  0  0
  -21.0170   -3.5040  -31.7040 C   0  0  0  0  0  3  0  0  0  0  0  0
  -19.8690   -2.8110  -29.6770 O   0  0  0  0  0  0  0  0  0  0  0  0
  -20.4500   -2.4100  -28.4730 C   0  0  0  0  0  2  0  0  0  0  0  0
  -19.6810   -1.3880  -27.7420 C   0  0  0  0  0  0  0  0  0  0  0  0
  -19.0230   -1.7160  -26.5490 C   0  0  0  0  0  0  0  0  0  0  0  0
  -19.2190   -3.5100  -25.9080 Br  0  0  0  0  0  0  0  0  0  0  0  0
  -18.2710   -0.7880  -25.8720 C   0  0  0  0  0  3  0  0  0  0  0  0
  -18.1410    0.5010  -26.3490 C   0  0  0  0  0  0  0  0  0  0  0  0
  -18.7780    0.8500  -27.5210 C   0  0  0  0  0  0  0  0  0  0  0  0
  -17.4640    1.6360  -25.8980 O   0  0  0  0  0  0  0  0  0  0  0  0
  -19.5390   -0.0990  -28.2020 C   0  0  0  0  0  3  0  0  0  0  0  0
  -18.4820    2.1770  -27.7600 O   0  0  0  0  0  0  0  0  0  0  0  0
  -17.4210    2.6050  -26.9230 C   0  0  0  0  0  2  0  0  0  0  0  0
  -22.0390   -1.5790  -34.7850 C   0  0  0  0  0  0  0  0  0  0  0  0
  -23.0840   -2.1390  -35.4170 N   0  0  0  0  0  0  0  0  0  0  0  0
  -23.2430   -1.5350  -36.5990 N   0  0  0  0  0  0  0  0  0  0  0  0
  -22.3090   -0.6030  -36.7220 N   0  0  0  0  0  0  0  0  0  0  0  0
  -21.5800   -0.6320  -35.6190 N   0  0  0  0  0  0  0  0  0  0  0  0
  -24.2390   -1.8040  -37.6160 C   0  0  0  0  0  2  0  0  0  0  0  0
  -23.7740   -2.8840  -38.5130 C   0  0  0  0  0  0  0  0  0  0  0  0
  -24.4650   -3.9050  -38.6560 O   0  0  0  0  0  0  0  0  0  0  0  0
  -22.5460   -2.7350  -39.1940 N   0  0  0  0  0  0  0  0  0  0  0  0
  -21.7380   -2.1780  -38.8000 H   0  0  0  0  0  0  0  0  0  0  0  0
  -22.4090   -3.1840  -40.1250 H   0  0  0  0  0  0  0  0  0  0  0  0
  1  7  1  0  0  0  0
  2  1  1  0  0  0  0
  3  2  2  0  0  0  0
  4  5  2  0  0  0  0
  4  3  1  0  0  0  0
  5  6  1  0  0  0  0
  6  1  2  0  0  0  0
  7  8  1  0  0  0  0
  8  9  1  0  0  0  0
  9 10  1  0  0  0  0
 10 11  1  0  0  0  0
 10 12  2  0  0  0  0
 13 15  1  0  0  0  0
 13 12  1  0  0  0  0
 14 13  2  0  0  0  0
 16  9  2  0  0  0  0
 16 14  1  0  0  0  0
 17 14  1  0  0  0  0
 17 18  1  0  0  0  0
 18 15  1  0  0  0  0
 19  4  1  0  0  0  0
 20 19  2  0  0  0  0
 21 20  1  0  0  0  0
 22 21  1  0  0  0  0
 22 23  2  0  0  0  0
 23 19  1  0  0  0  0
 24 21  1  0  0  0  0
 25 24  1  0  0  0  0
 26 25  2  0  0  0  0
 27 28  1  0  0  0  0
 27 25  1  0  0  0  0
 29 27  1  0  0  0  0
M  END
>  <Pose>
1

>  <Score>
-9.262

$$$$
