/Users/jonathanwahrer/Desktop/Msc/3_Semester/Drug_Design_Praktikum/waehrer_HTS_screening/HTS_experiment/out/docking_results/vina_output/5l4q/0471_docked.pdbqt
 OpenBabel03212218043D

 27 30  0  0  0  0  0  0  0  0999 V2000
  -20.7260   -0.4350  -33.9710 C   0  0  0  0  0  0  0  0  0  0  0  0
  -19.6180    0.0930  -34.2790 O   0  0  0  0  0  0  0  0  0  0  0  0
  -21.8960   -0.0280  -34.6440 N   0  0  0  0  0  0  0  0  0  0  0  0
  -21.7960    0.9820  -35.6660 C   0  0  0  0  0  2  0  0  0  0  0  0
  -22.3810    0.5390  -36.9900 C   0  0  0  0  0  2  0  0  0  0  0  0
  -23.4400   -0.3650  -36.7330 N   0  0  0  0  0  0  0  0  0  0  0  0
  -24.1280   -0.0810  -35.5350 C   0  0  0  0  0  2  0  0  0  0  0  0
  -23.2150   -0.5520  -34.3880 C   0  0  0  0  0  2  0  0  0  0  0  0
  -20.7300   -1.4560  -32.9160 C   0  0  0  0  0  0  0  0  0  0  0  0
  -21.1070   -2.7460  -33.2100 C   0  0  0  0  0  3  0  0  0  0  0  0
  -21.1260   -3.7370  -32.2520 C   0  0  0  0  0  0  0  0  0  0  0  0
  -20.7540   -3.4240  -30.9570 C   0  0  0  0  0  0  0  0  0  0  0  0
  -21.4760   -4.9310  -32.5350 O   0  0  0  0  0  0  0  0  0  0  0  0
  -20.3880   -2.1120  -30.7250 C   0  0  0  0  0  0  0  0  0  0  0  0
  -20.7650   -4.3910  -29.9820 C   0  0  0  0  0  3  0  0  0  0  0  0
  -20.0170   -1.8030  -29.4240 C   0  0  0  0  0  3  0  0  0  0  0  0
  -20.3880   -1.2110  -31.6760 O   0  0  0  0  0  0  0  0  0  0  0  0
  -20.0170   -2.7580  -28.4220 C   0  0  0  0  0  0  0  0  0  0  0  0
  -19.5000   -2.2920  -26.6460 Br  0  0  0  0  0  0  0  0  0  0  0  0
  -20.3920   -4.0580  -28.7030 C   0  0  0  0  0  3  0  0  0  0  0  0
  -23.2280   -1.7160  -37.0640 C   0  0  0  0  0  2  0  0  0  0  0  0
  -23.0640   -2.0020  -38.4870 C   0  0  0  0  0  0  0  0  0  0  0  0
  -22.1610   -1.4270  -39.2980 N   0  0  0  0  0  0  0  0  0  0  0  0
  -22.3230   -1.9320  -40.4690 O   0  0  0  0  0  0  0  0  0  0  0  0
  -23.2890   -2.8150  -40.4780 N   0  0  0  0  0  0  0  0  0  0  0  0
  -23.7930   -2.8920  -39.2270 C   0  0  0  0  0  0  0  0  0  0  0  0
  -24.9110   -3.7660  -38.7600 C   0  0  0  0  0  1  0  0  0  0  0  0
  1  9  1  0  0  0  0
  2  1  2  0  0  0  0
  3  8  1  0  0  0  0
  3  1  1  0  0  0  0
  4  3  1  0  0  0  0
  5  6  1  0  0  0  0
  5  4  1  0  0  0  0
  6  7  1  0  0  0  0
  7  8  1  0  0  0  0
  9 17  1  0  0  0  0
 10  9  2  0  0  0  0
 10 11  1  0  0  0  0
 11 12  1  0  0  0  0
 12 14  2  0  0  0  0
 12 15  1  0  0  0  0
 13 11  2  0  0  0  0
 14 16  1  0  0  0  0
 15 20  2  0  0  0  0
 16 18  2  0  0  0  0
 17 14  1  0  0  0  0
 18 19  1  0  0  0  0
 20 18  1  0  0  0  0
 21  6  1  0  0  0  0
 22 21  1  0  0  0  0
 23 22  2  0  0  0  0
 24 23  1  0  0  0  0
 25 24  1  0  0  0  0
 25 26  2  0  0  0  0
 26 27  1  0  0  0  0
 26 22  1  0  0  0  0
M  END
>  <Pose>
1

>  <Score>
-9.742

$$$$
