/Users/jonathanwahrer/Desktop/Msc/3_Semester/Drug_Design_Praktikum/waehrer_HTS_screening/HTS_experiment/out/docking_results/vina_output/5l4q/0483_docked.pdbqt
 OpenBabel03212218053D

 31 34  0  0  0  0  0  0  0  0999 V2000
  -23.9600    0.6700  -37.9200 C   0  0  0  0  0  2  0  0  0  0  0  0
  -23.2380    0.6470  -39.1830 C   0  0  0  0  0  0  0  0  0  0  0  0
  -22.6560    0.6270  -40.2360 C   0  0  0  0  0  3  0  0  0  0  0  0
  -23.2020   -0.0130  -36.8910 N   0  0  0  0  0  0  0  0  0  0  0  0
  -22.0110    0.3880  -36.2220 C   0  0  0  0  0  0  0  0  0  0  0  0
  -21.6210   -0.5840  -35.2930 C   0  0  0  0  0  0  0  0  0  0  0  0
  -21.2330    1.5290  -36.3500 C   0  0  0  0  0  3  0  0  0  0  0  0
  -20.4840   -0.3750  -34.5420 C   0  0  0  0  0  3  0  0  0  0  0  0
  -22.5800   -1.6780  -35.3340 C   0  0  0  0  0  0  0  0  0  0  0  0
  -19.7060    0.7800  -34.6800 C   0  0  0  0  0  0  0  0  0  0  0  0
  -18.1390    1.0600  -33.6410 Br  0  0  0  0  0  0  0  0  0  0  0  0
  -20.1010    1.7180  -35.5920 C   0  0  0  0  0  3  0  0  0  0  0  0
  -23.5670   -1.2780  -36.3610 C   0  0  0  0  0  0  0  0  0  0  0  0
  -22.5810   -2.7620  -34.6380 N   0  0  0  0  0  0  0  0  0  0  0  0
  -24.5460   -2.0220  -36.6440 O   0  0  0  0  0  0  0  0  0  0  0  0
  -21.5930   -3.0400  -33.6900 N   0  0  0  0  0  0  0  0  0  0  0  0
  -21.8470   -3.8070  -32.5260 C   0  0  0  0  0  0  0  0  0  0  0  0
  -23.0000   -4.2570  -32.3320 O   0  0  0  0  0  0  0  0  0  0  0  0
  -20.6390   -2.6590  -33.8480 H   0  0  0  0  0  0  0  0  0  0  0  0
  -20.7800   -4.0670  -31.5700 C   0  0  0  0  0  2  0  0  0  0  0  0
  -20.4890   -2.9290  -30.7200 N   0  0  0  0  0  0  0  0  0  0  0  0
  -20.6790   -1.6510  -31.0020 N   0  0  0  0  0  2  0  0  0  0  0  0
  -20.2980   -0.8940  -29.9860 N   0  0  0  0  0  0  0  0  0  0  0  0
  -19.8460   -1.7030  -29.0130 C   0  0  0  0  0  0  0  0  0  0  0  0
  -19.9780   -2.9450  -29.4970 N   0  0  0  0  0  2  0  0  0  0  0  0
  -19.3300   -1.2660  -27.7190 C   0  0  0  0  0  0  0  0  0  0  0  0
  -19.0550   -2.1920  -26.7360 C   0  0  0  0  0  3  0  0  0  0  0  0
  -18.5610   -1.7780  -25.4970 C   0  0  0  0  0  3  0  0  0  0  0  0
  -18.3350   -0.4490  -25.2180 C   0  0  0  0  0  3  0  0  0  0  0  0
  -18.6090    0.4830  -26.2040 C   0  0  0  0  0  3  0  0  0  0  0  0
  -19.1000    0.0620  -27.4320 C   0  0  0  0  0  3  0  0  0  0  0  0
  1  4  1  0  0  0  0
  2  1  1  0  0  0  0
  3  2  3  0  0  0  0
  4 13  1  0  0  0  0
  4  5  1  0  0  0  0
  5  6  1  0  0  0  0
  6  8  2  0  0  0  0
  7  5  2  0  0  0  0
  7 12  1  0  0  0  0
  9  6  1  0  0  0  0
  9 14  2  0  0  0  0
 10  8  1  0  0  0  0
 10 11  1  0  0  0  0
 12 10  2  0  0  0  0
 13  9  1  0  0  0  0
 14 16  1  0  0  0  0
 15 13  2  0  0  0  0
 16 17  1  0  0  0  0
 17 18  2  0  0  0  0
 17 20  1  0  0  0  0
 19 16  1  0  0  0  0
 20 21  1  0  0  0  0
 21 25  1  0  0  0  0
 22 21  1  0  0  0  0
 22 23  1  0  0  0  0
 23 24  2  0  0  0  0
 24 26  1  0  0  0  0
 25 24  1  0  0  0  0
 26 31  2  0  0  0  0
 26 27  1  0  0  0  0
 27 28  2  0  0  0  0
 28 29  1  0  0  0  0
 30 29  2  0  0  0  0
 31 30  1  0  0  0  0
M  END
>  <Pose>
1

>  <Score>
-9.520

$$$$
