/Users/jonathanwahrer/Desktop/Msc/3_Semester/Drug_Design_Praktikum/waehrer_HTS_screening/HTS_experiment/out/docking_results/vina_output/5l4q/0485_docked.pdbqt
 OpenBabel03212218063D

 34 37  0  0  0  0  0  0  0  0999 V2000
  -24.3220   -1.5750  -37.7660 Br  0  0  0  0  0  0  0  0  0  0  0  0
  -22.8100   -1.0120  -36.7200 C   0  0  0  0  0  0  0  0  0  0  0  0
  -22.5590   -1.5430  -35.4760 C   0  0  0  0  0  3  0  0  0  0  0  0
  -21.4810   -1.1660  -34.6830 C   0  0  0  0  0  0  0  0  0  0  0  0
  -20.6050   -0.1960  -35.1790 C   0  0  0  0  0  0  0  0  0  0  0  0
  -20.8560    0.3360  -36.4270 C   0  0  0  0  0  3  0  0  0  0  0  0
  -21.9430   -0.0550  -37.2040 C   0  0  0  0  0  3  0  0  0  0  0  0
  -19.5620    0.0550  -34.2260 N   0  0  0  0  0  0  0  0  0  0  0  0
  -19.8150   -0.7910  -33.1120 C   0  0  0  0  0  0  0  0  0  0  0  0
  -19.1160   -0.8540  -32.0770 O   0  0  0  0  0  0  0  0  0  0  0  0
  -21.0120   -1.5700  -33.3700 C   0  0  0  0  0  0  0  0  0  0  0  0
  -21.5550   -2.4430  -32.5990 N   0  0  0  0  0  0  0  0  0  0  0  0
  -21.0460   -2.7770  -31.3500 N   0  0  0  0  0  0  0  0  0  0  0  0
  -20.9140   -4.1330  -30.9870 C   0  0  0  0  0  0  0  0  0  0  0  0
  -21.2530   -5.0760  -31.7830 O   0  0  0  0  0  0  0  0  0  0  0  0
  -20.7680   -2.0300  -30.6980 H   0  0  0  0  0  0  0  0  0  0  0  0
  -20.3790   -4.5790  -29.6750 C   0  0  0  0  0  2  0  0  0  0  0  0
  -20.9710   -3.8220  -28.6210 O   0  0  0  0  0  0  0  0  0  0  0  0
  -20.1650   -3.1500  -27.7170 C   0  0  0  0  0  0  0  0  0  0  0  0
  -19.8820   -1.8130  -27.9030 C   0  0  0  0  0  0  0  0  0  0  0  0
  -19.0720   -1.1440  -26.9910 C   0  0  0  0  0  3  0  0  0  0  0  0
  -18.5460   -1.8100  -25.9000 C   0  0  0  0  0  3  0  0  0  0  0  0
  -18.8340   -3.1310  -25.7310 C   0  0  0  0  0  3  0  0  0  0  0  0
  -19.6420   -3.7960  -26.6390 C   0  0  0  0  0  3  0  0  0  0  0  0
  -20.3880   -1.1240  -28.9760 O   0  0  0  0  0  0  0  0  0  0  0  0
  -20.3160    0.2790  -29.0220 C   0  0  0  0  0  1  0  0  0  0  0  0
  -18.4770    1.0030  -34.4120 C   0  0  0  0  0  2  0  0  0  0  0  0
  -18.8850    2.3280  -34.7110 N   0  0  0  0  0  0  0  0  0  0  0  0
  -19.1160    3.1760  -33.5920 C   0  0  0  0  0  2  0  0  0  0  0  0
  -19.6270    4.5570  -34.0140 C   0  0  0  0  0  2  0  0  0  0  0  0
  -20.0060    4.4550  -35.3940 N   0  0  0  0  0  0  0  0  0  0  0  0
  -18.8960    4.2240  -36.2650 C   0  0  0  0  0  2  0  0  0  0  0  0
  -20.9010    5.4880  -35.8300 C   0  0  0  0  0  1  0  0  0  0  0  0
  -18.2020    2.9540  -35.8060 C   0  0  0  0  0  2  0  0  0  0  0  0
  1  2  1  0  0  0  0
  2  3  1  0  0  0  0
  3  4  2  0  0  0  0
  4 11  1  0  0  0  0
  5  4  1  0  0  0  0
  5  8  1  0  0  0  0
  6  5  2  0  0  0  0
  7  2  2  0  0  0  0
  7  6  1  0  0  0  0
  8  9  1  0  0  0  0
  9 10  2  0  0  0  0
 11  9  1  0  0  0  0
 11 12  2  0  0  0  0
 12 13  1  0  0  0  0
 13 14  1  0  0  0  0
 13 16  1  0  0  0  0
 14 17  1  0  0  0  0
 15 14  2  0  0  0  0
 17 18  1  0  0  0  0
 18 19  1  0  0  0  0
 19 24  1  0  0  0  0
 20 19  2  0  0  0  0
 20 21  1  0  0  0  0
 21 22  2  0  0  0  0
 22 23  1  0  0  0  0
 24 23  2  0  0  0  0
 25 20  1  0  0  0  0
 26 25  1  0  0  0  0
 27  8  1  0  0  0  0
 28 27  1  0  0  0  0
 28 29  1  0  0  0  0
 30 29  1  0  0  0  0
 31 30  1  0  0  0  0
 32 34  1  0  0  0  0
 32 31  1  0  0  0  0
 33 31  1  0  0  0  0
 34 28  1  0  0  0  0
M  END
>  <Pose>
1

>  <Score>
-8.557

$$$$
