/Users/jonathanwahrer/Desktop/Msc/3_Semester/Drug_Design_Praktikum/waehrer_HTS_screening/HTS_experiment/out/docking_results/vina_output/5l4q/0500_docked.pdbqt
 OpenBabel03212218063D

 32 35  0  0  1  0  0  0  0  0999 V2000
  -23.2840    4.9980  -39.7520 Br  0  0  0  0  0  0  0  0  0  0  0  0
  -22.1840    3.7640  -38.7660 C   0  0  0  0  0  0  0  0  0  0  0  0
  -22.6880    2.7830  -37.9620 C   0  0  0  0  0  3  0  0  0  0  0  0
  -21.8690    1.9430  -37.2520 C   0  0  0  0  0  0  0  0  0  0  0  0
  -20.5210    2.1240  -37.3820 C   0  0  0  0  0  0  0  0  0  0  0  0
  -19.9780    3.1210  -38.2020 C   0  0  0  0  0  3  0  0  0  0  0  0
  -20.8120    3.9610  -38.9110 C   0  0  0  0  0  3  0  0  0  0  0  0
  -19.8000    1.2200  -36.5670 N   0  0  0  0  0  0  0  0  0  0  0  0
  -20.7320    0.4350  -35.8920 C   0  0  0  0  0  0  0  0  0  0  0  0
  -20.4210   -0.4620  -35.0650 O   0  0  0  0  0  0  0  0  0  0  0  0
  -22.1240    0.8360  -36.3120 C   0  0  2  0  0  0  0  0  0  0  0  0
  -22.7090   -0.3740  -36.8670 C   0  0  0  0  0  0  0  0  0  0  0  0
  -23.7570   -0.9770  -36.2420 C   0  0  0  0  0  0  0  0  0  0  0  0
  -24.0720   -2.0760  -36.9830 N   0  0  0  0  0  0  0  0  0  0  0  0
  -23.2650   -2.1520  -38.0100 N   0  0  0  0  0  0  0  0  0  0  0  0
  -22.3840   -1.1260  -38.0080 C   0  0  0  0  0  0  0  0  0  0  0  0
  -24.3290   -0.4780  -35.0540 O   0  0  0  0  0  0  0  0  0  0  0  0
  -23.7700    0.6730  -34.5330 C   0  0  0  0  0  0  0  0  0  0  0  0
  -22.7650    1.2900  -35.0870 C   0  0  0  0  0  0  0  0  0  0  0  0
  -22.2390    2.5020  -34.4510 C   0  0  0  0  0  0  0  0  0  0  0  0
  -21.8390    3.4610  -33.9670 N   0  0  0  0  0  0  0  0  0  0  0  0
  -18.3300    1.1250  -36.4570 C   0  0  0  0  0  1  0  0  0  0  0  0
  -23.2620   -2.8960  -38.7670 H   0  0  0  0  0  0  0  0  0  0  0  0
  -24.3550    1.1880  -33.3130 N   0  0  0  0  0  0  0  0  0  0  0  0
  -23.9520    1.9730  -32.7730 H   0  0  0  0  0  0  0  0  0  0  0  0
  -25.2210    0.7410  -32.9710 H   0  0  0  0  0  0  0  0  0  0  0  0
  -21.3410   -0.8950  -39.0400 C   0  0  0  0  0  2  0  0  0  0  0  0
  -21.8760   -1.0950  -40.4050 C   0  0  0  0  0  0  0  0  0  0  0  0
  -22.7140   -1.9720  -40.7380 O   0  0  0  0  0  0  0  0  0  0  0  0
  -21.4200   -0.2500  -41.3910 O   0  0  0  0  0  0  0  0  0  0  0  0
  -21.4790    1.1520  -41.3780 C   0  0  0  0  0  2  0  0  0  0  0  0
  -22.9140    1.6020  -41.5200 C   0  0  0  0  0  1  0  0  0  0  0  0
  1  2  1  0  0  0  0
  2  3  1  0  0  0  0
  3  4  2  0  0  0  0
  5  4  1  0  0  0  0
  5  8  1  0  0  0  0
  6  5  2  0  0  0  0
  7  2  2  0  0  0  0
  7  6  1  0  0  0  0
  8 22  1  0  0  0  0
  8  9  1  0  0  0  0
  9 10  2  0  0  0  0
 11  4  1  6  0  0  0
 11  9  1  0  0  0  0
 11 19  1  0  0  0  0
 12 11  1  0  0  0  0
 12 13  1  0  0  0  0
 13 17  1  0  0  0  0
 14 13  2  0  0  0  0
 15 16  1  0  0  0  0
 15 14  1  0  0  0  0
 16 12  2  0  0  0  0
 17 18  1  0  0  0  0
 18 24  1  0  0  0  0
 19 18  2  0  0  0  0
 19 20  1  0  0  0  0
 20 21  3  0  0  0  0
 23 15  1  0  0  0  0
 24 26  1  0  0  0  0
 24 25  1  0  0  0  0
 27 16  1  0  0  0  0
 28 27  1  0  0  0  0
 29 28  2  0  0  0  0
 30 31  1  0  0  0  0
 30 28  1  0  0  0  0
 32 31  1  0  0  0  0
M  END
>  <Pose>
1

>  <Score>
-7.269

$$$$
