/Users/jonathanwahrer/Desktop/Msc/3_Semester/Drug_Design_Praktikum/waehrer_HTS_screening/HTS_experiment/out/docking_results/vina_output/5l4q/0513_docked.pdbqt
 OpenBabel03212218073D

 33 36  0  0  0  0  0  0  0  0999 V2000
  -20.7080   -0.2600  -31.5790 N   0  0  0  0  0  0  0  0  0  0  0  0
  -20.4990   -0.2200  -32.9840 C   0  0  0  0  0  0  0  0  0  0  0  0
  -19.5090   -0.8230  -33.4260 O   0  0  0  0  0  0  0  0  0  0  0  0
  -21.5330    0.2590  -31.2080 H   0  0  0  0  0  0  0  0  0  0  0  0
  -19.8830   -0.9360  -30.6990 N   0  0  0  0  0  0  0  0  0  0  0  0
  -18.9840   -0.4860  -30.3740 H   0  0  0  0  0  0  0  0  0  0  0  0
  -20.1530   -2.2120  -30.1850 C   0  0  0  0  0  3  0  0  0  0  0  0
  -19.9320   -2.5950  -28.9470 C   0  0  0  0  0  0  0  0  0  0  0  0
  -19.3730   -1.8310  -27.8260 C   0  0  0  0  0  0  0  0  0  0  0  0
  -20.2080   -3.9300  -28.3920 C   0  0  0  0  0  0  0  0  0  0  0  0
  -18.9250   -0.5330  -27.7130 C   0  0  0  0  0  3  0  0  0  0  0  0
  -19.3100   -2.6100  -26.6950 C   0  0  0  0  0  0  0  0  0  0  0  0
  -18.4270    0.0020  -26.5260 C   0  0  0  0  0  0  0  0  0  0  0  0
  -17.8290    1.8190  -26.4530 Br  0  0  0  0  0  0  0  0  0  0  0  0
  -18.3800   -0.8070  -25.4200 C   0  0  0  0  0  3  0  0  0  0  0  0
  -18.8140   -2.1060  -25.4840 C   0  0  0  0  0  3  0  0  0  0  0  0
  -19.8180   -3.8940  -27.0310 N   0  0  0  0  0  0  0  0  0  0  0  0
  -19.8980   -4.7070  -26.3770 H   0  0  0  0  0  0  0  0  0  0  0  0
  -20.6960   -4.8850  -29.0430 O   0  0  0  0  0  0  0  0  0  0  0  0
  -21.3990    0.4930  -33.9170 C   0  0  0  0  0  2  0  0  0  0  0  0
  -22.1410   -0.3740  -34.7060 N   0  0  0  0  0  0  0  0  0  0  0  0
  -22.2000   -0.5540  -36.0250 C   0  0  0  0  0  0  0  0  0  0  0  0
  -23.1610   -1.5170  -36.3040 C   0  0  0  0  0  0  0  0  0  0  0  0
  -21.4850    0.0350  -37.0050 N   0  0  0  0  0  0  0  0  0  0  0  0
  -23.6710   -1.9070  -35.1210 N   0  0  0  0  0  0  0  0  0  0  0  0
  -23.4050   -1.8900  -37.6110 C   0  0  0  0  0  0  0  0  0  0  0  0
  -23.0670   -1.2310  -34.1710 C   0  0  0  0  0  3  0  0  0  0  0  0
  -24.2830   -2.7630  -37.8320 O   0  0  0  0  0  0  0  0  0  0  0  0
  -22.6950   -1.2980  -38.5590 N   0  0  0  0  0  0  0  0  0  0  0  0
  -21.7650   -0.3680  -38.2770 C   0  0  0  0  0  0  0  0  0  0  0  0
  -22.9170   -1.6570  -39.9690 C   0  0  0  0  0  1  0  0  0  0  0  0
  -21.1130    0.1660  -39.2050 O   0  0  0  0  0  0  0  0  0  0  0  0
  -20.4620    1.0030  -36.7340 C   0  0  0  0  0  1  0  0  0  0  0  0
  1  4  1  0  0  0  0
  1  5  1  0  0  0  0
  2  1  1  0  0  0  0
  3  2  2  0  0  0  0
  5  6  1  0  0  0  0
  5  7  1  0  0  0  0
  7  8  2  0  0  0  0
  8 10  1  0  0  0  0
  8  9  1  0  0  0  0
  9 11  2  0  0  0  0
  9 12  1  0  0  0  0
 10 17  1  0  0  0  0
 11 13  1  0  0  0  0
 12 16  2  0  0  0  0
 13 14  1  0  0  0  0
 13 15  2  0  0  0  0
 16 15  1  0  0  0  0
 17 12  1  0  0  0  0
 17 18  1  0  0  0  0
 19 10  2  0  0  0  0
 20  2  1  0  0  0  0
 21 27  1  0  0  0  0
 21 20  1  0  0  0  0
 22 21  1  0  0  0  0
 23 22  2  0  0  0  0
 23 25  1  0  0  0  0
 24 33  1  0  0  0  0
 24 22  1  0  0  0  0
 25 27  2  0  0  0  0
 26 23  1  0  0  0  0
 28 26  2  0  0  0  0
 29 30  1  0  0  0  0
 29 26  1  0  0  0  0
 30 24  1  0  0  0  0
 31 29  1  0  0  0  0
 32 30  2  0  0  0  0
M  END
>  <Pose>
1

>  <Score>
-10.058

$$$$
