/Users/jonathanwahrer/Desktop/Msc/3_Semester/Drug_Design_Praktikum/waehrer_HTS_screening/HTS_experiment/out/docking_results/vina_output/5l4q/0526_docked.pdbqt
 OpenBabel03212218073D

 31 34  0  0  0  0  0  0  0  0999 V2000
  -21.4470   -2.5370  -32.7440 N   0  0  0  0  0  0  0  0  0  0  0  0
  -21.5550   -3.8350  -32.2130 C   0  0  0  0  0  0  0  0  0  0  0  0
  -22.2120   -4.7090  -32.8820 O   0  0  0  0  0  0  0  0  0  0  0  0
  -20.9190   -1.8020  -32.1980 H   0  0  0  0  0  0  0  0  0  0  0  0
  -20.9880   -4.3350  -30.9570 C   0  0  0  0  0  2  0  0  0  0  0  0
  -20.3630   -3.3610  -30.1090 N   0  0  0  0  0  0  0  0  0  0  0  0
  -20.2310   -3.5650  -28.7060 C   0  0  0  0  0  0  0  0  0  0  0  0
  -20.7120   -4.6770  -28.2560 O   0  0  0  0  0  0  0  0  0  0  0  0
  -20.0000   -2.4670  -30.4740 H   0  0  0  0  0  0  0  0  0  0  0  0
  -19.6270   -2.6680  -27.7690 C   0  0  0  0  0  0  0  0  0  0  0  0
  -19.2170   -1.3720  -28.0460 C   0  0  0  0  0  3  0  0  0  0  0  0
  -18.6590   -0.5710  -27.1090 C   0  0  0  0  0  0  0  0  0  0  0  0
  -18.4700   -1.0120  -25.8150 C   0  0  0  0  0  0  0  0  0  0  0  0
  -18.1580    0.7840  -27.0990 O   0  0  0  0  0  0  0  0  0  0  0  0
  -18.8530   -2.2770  -25.4990 C   0  0  0  0  0  3  0  0  0  0  0  0
  -17.8860    0.0270  -25.0720 O   0  0  0  0  0  0  0  0  0  0  0  0
  -19.4360   -3.1210  -26.4560 C   0  0  0  0  0  3  0  0  0  0  0  0
  -18.4340    1.2030  -25.7140 C   0  0  0  0  0  2  0  0  0  0  0  0
  -22.0100   -2.2350  -33.9330 N   0  0  0  0  0  0  0  0  0  0  0  0
  -22.4240   -1.3200  -34.5720 C   0  0  0  0  0  0  0  0  0  0  0  0
  -23.0210   -1.2470  -35.9120 C   0  0  0  0  0  0  0  0  0  0  0  0
  -22.3660    0.0730  -34.0360 C   0  0  0  0  0  0  0  0  0  0  0  0
  -23.2990   -2.2410  -36.8250 C   0  0  0  0  0  3  0  0  0  0  0  0
  -23.2980    0.0610  -36.1540 C   0  0  0  0  0  0  0  0  0  0  0  0
  -23.8730   -1.9600  -38.0320 C   0  0  0  0  0  0  0  0  0  0  0  0
  -24.2660   -3.3170  -39.3000 Br  0  0  0  0  0  0  0  0  0  0  0  0
  -24.1640   -0.6280  -38.3010 C   0  0  0  0  0  3  0  0  0  0  0  0
  -23.8860    0.3580  -37.3880 C   0  0  0  0  0  3  0  0  0  0  0  0
  -22.9250    0.8860  -35.0710 N   0  0  0  0  0  0  0  0  0  0  0  0
  -23.0290    1.9260  -34.9940 H   0  0  0  0  0  0  0  0  0  0  0  0
  -21.9170    0.3720  -32.9280 O   0  0  0  0  0  0  0  0  0  0  0  0
  1  2  1  0  0  0  0
  1  4  1  0  0  0  0
  2  5  1  0  0  0  0
  3  2  2  0  0  0  0
  5  6  1  0  0  0  0
  6  7  1  0  0  0  0
  7  8  2  0  0  0  0
  7 10  1  0  0  0  0
  9  6  1  0  0  0  0
 10 17  1  0  0  0  0
 11 10  2  0  0  0  0
 11 12  1  0  0  0  0
 12 14  1  0  0  0  0
 12 13  2  0  0  0  0
 13 15  1  0  0  0  0
 13 16  1  0  0  0  0
 14 18  1  0  0  0  0
 17 15  2  0  0  0  0
 18 16  1  0  0  0  0
 19  1  1  0  0  0  0
 20 22  1  0  0  0  0
 20 19  2  0  0  0  0
 21 20  1  0  0  0  0
 22 31  2  0  0  0  0
 23 21  2  0  0  0  0
 24 21  1  0  0  0  0
 24 29  1  0  0  0  0
 25 23  1  0  0  0  0
 26 25  1  0  0  0  0
 27 25  2  0  0  0  0
 27 28  1  0  0  0  0
 28 24  2  0  0  0  0
 29 30  1  0  0  0  0
 29 22  1  0  0  0  0
M  END
>  <Pose>
1

>  <Score>
-9.551

$$$$
