/Users/jonathanwahrer/Desktop/Msc/3_Semester/Drug_Design_Praktikum/waehrer_HTS_screening/HTS_experiment/out/docking_results/vina_output/5l4q/0550_docked.pdbqt
 OpenBabel03212218073D

 30 35  0  0  1  0  0  0  0  0999 V2000
  -24.0770   -3.0690  -39.0610 Br  0  0  0  0  0  0  0  0  0  0  0  0
  -23.8330   -1.7290  -37.7260 C   0  0  0  0  0  0  0  0  0  0  0  0
  -22.9710   -1.9070  -36.6500 C   0  0  0  0  0  3  0  0  0  0  0  0
  -22.8000   -0.9410  -35.6950 C   0  0  0  0  0  0  0  0  0  0  0  0
  -23.5250    0.2320  -35.8420 C   0  0  0  0  0  0  0  0  0  0  0  0
  -24.3820    0.4150  -36.9060 C   0  0  0  0  0  3  0  0  0  0  0  0
  -24.5460   -0.5630  -37.8600 C   0  0  0  0  0  3  0  0  0  0  0  0
  -23.2290    1.1310  -34.7700 N   0  0  0  0  0  0  0  0  0  0  0  0
  -22.2900    0.5180  -33.9120 C   0  0  0  0  0  0  0  0  0  0  0  0
  -21.8280    1.0450  -32.8910 O   0  0  0  0  0  0  0  0  0  0  0  0
  -22.0010   -0.8170  -34.4790 C   0  0  1  0  0  0  0  0  0  0  0  0
  -22.2640   -1.7790  -33.4510 N   0  0  2  0  0  0  0  0  0  0  0  0
  -21.1190   -1.6590  -32.5510 C   0  0  2  0  0  3  0  0  0  0  0  0
  -19.9480   -1.3000  -33.4050 C   0  0  1  0  0  3  0  0  0  0  0  0
  -20.5310   -1.0240  -34.7470 C   0  0  2  0  0  3  0  0  0  0  0  0
  -19.8480    0.1770  -35.2160 C   0  0  0  0  0  0  0  0  0  0  0  0
  -19.9280    0.6770  -36.3610 O   0  0  0  0  0  0  0  0  0  0  0  0
  -19.0690    0.7080  -34.1730 N   0  0  0  0  0  0  0  0  0  0  0  0
  -19.2870   -0.0310  -32.9610 C   0  0  0  0  0  0  0  0  0  0  0  0
  -19.0020    0.2870  -31.7790 O   0  0  0  0  0  0  0  0  0  0  0  0
  -20.8910   -3.0570  -31.9960 C   0  0  0  0  0  2  0  0  0  0  0  0
  -21.9770   -3.9270  -32.5950 C   0  0  0  0  0  2  0  0  0  0  0  0
  -22.2550   -3.1580  -33.8940 C   0  0  0  0  0  2  0  0  0  0  0  0
  -23.6580    2.0960  -34.6570 H   0  0  0  0  0  0  0  0  0  0  0  0
  -18.1770    1.8210  -34.2700 C   0  0  0  0  0  2  0  0  0  0  0  0
  -18.6650    3.0800  -33.6520 C   0  0  2  0  0  3  0  0  0  0  0  0
  -19.8430    3.5620  -34.2110 O   0  0  0  0  0  0  0  0  0  0  0  0
  -19.9710    4.8310  -33.6630 C   0  0  0  0  0  2  0  0  0  0  0  0
  -18.6040    5.4280  -33.5430 C   0  0  0  0  0  2  0  0  0  0  0  0
  -17.6890    4.2070  -33.6310 C   0  0  0  0  0  2  0  0  0  0  0  0
  1  2  1  0  0  0  0
  2  3  1  0  0  0  0
  3  4  2  0  0  0  0
  5  4  1  0  0  0  0
  5  8  1  0  0  0  0
  6  5  2  0  0  0  0
  7  2  2  0  0  0  0
  7  6  1  0  0  0  0
  8 24  1  0  0  0  0
  8  9  1  0  0  0  0
  9 10  2  0  0  0  0
 11  4  1  6  0  0  0
 11  9  1  0  0  0  0
 11 12  1  0  0  0  0
 12 23  1  6  0  0  0
 12 13  1  0  0  0  0
 13 21  1  6  0  0  0
 14 19  1  1  0  0  0
 14 13  1  0  0  0  0
 15 16  1  1  0  0  0
 15 11  1  0  0  0  0
 15 14  1  0  0  0  0
 16 18  1  0  0  0  0
 17 16  2  0  0  0  0
 18 19  1  0  0  0  0
 19 20  2  0  0  0  0
 22 21  1  0  0  0  0
 23 22  1  0  0  0  0
 25 18  1  0  0  0  0
 26 25  1  6  0  0  0
 26 30  1  0  0  0  0
 27 28  1  0  0  0  0
 27 26  1  0  0  0  0
 28 29  1  0  0  0  0
 30 29  1  0  0  0  0
M  END
>  <Pose>
1

>  <Score>
-8.463

$$$$
