/Users/jonathanwahrer/Desktop/Msc/3_Semester/Drug_Design_Praktikum/waehrer_HTS_screening/HTS_experiment/out/docking_results/vina_output/5l4q/0556_docked.pdbqt
 OpenBabel03212218073D

 30 33  0  0  1  0  0  0  0  0999 V2000
  -20.3590   -1.8040  -33.6420 Br  0  0  0  0  0  0  0  0  0  0  0  0
  -21.7780   -0.9640  -34.5990 C   0  0  0  0  0  0  0  0  0  0  0  0
  -21.5390   -0.6310  -35.9100 C   0  0  0  0  0  3  0  0  0  0  0  0
  -22.5500   -0.0130  -36.6540 C   0  0  0  0  0  0  0  0  0  0  0  0
  -23.7440    0.2450  -36.0640 C   0  0  0  0  0  0  0  0  0  0  0  0
  -24.0090   -0.0880  -34.7220 C   0  0  0  0  0  3  0  0  0  0  0  0
  -22.9980   -0.6940  -34.0150 C   0  0  0  0  0  3  0  0  0  0  0  0
  -24.6260    0.8750  -36.9740 N   0  0  0  0  0  0  0  0  0  0  0  0
  -23.9500    1.0180  -38.1870 C   0  0  0  0  0  0  0  0  0  0  0  0
  -24.4010    1.5520  -39.2730 O   0  0  0  0  0  0  0  0  0  0  0  0
  -22.5820    0.4390  -38.0360 C   0  0  2  0  0  0  0  0  0  0  0  0
  -22.4610   -0.5690  -39.0570 C   0  0  0  0  0  0  0  0  0  0  0  0
  -21.6130   -0.4230  -40.0900 C   0  0  0  0  0  0  0  0  0  0  0  0
  -21.7390   -1.5460  -40.8710 N   0  0  0  0  0  0  0  0  0  0  0  0
  -22.6340   -2.3390  -40.3220 N   0  0  0  0  0  0  0  0  0  0  0  0
  -23.1230   -1.8060  -39.2020 C   0  0  0  0  0  0  0  0  0  0  0  0
  -24.1500   -2.3650  -38.2760 C   0  0  0  0  0  1  0  0  0  0  0  0
  -20.7880    0.7040  -40.2600 O   0  0  0  0  0  0  0  0  0  0  0  0
  -20.8900    1.6890  -39.2850 C   0  0  0  0  0  0  0  0  0  0  0  0
  -21.6910    1.6010  -38.2670 C   0  0  0  0  0  0  0  0  0  0  0  0
  -25.6220    1.1950  -36.8030 H   0  0  0  0  0  0  0  0  0  0  0  0
  -21.2110   -1.7340  -41.7540 H   0  0  0  0  0  0  0  0  0  0  0  0
  -21.7220    2.7160  -37.2760 C   0  0  0  0  0  0  0  0  0  0  0  0
  -22.5870    3.5980  -37.4210 O   0  0  0  0  0  0  0  0  0  0  0  0
  -20.8520    2.8090  -36.2240 O   0  0  0  0  0  0  0  0  0  0  0  0
  -21.2340    2.9430  -34.8760 C   0  0  0  0  0  2  0  0  0  0  0  0
  -20.1460    2.2750  -34.0280 C   0  0  0  0  0  1  0  0  0  0  0  0
  -20.0740    2.8770  -39.3900 N   0  0  0  0  0  0  0  0  0  0  0  0
  -19.0910    2.8120  -39.1150 H   0  0  0  0  0  0  0  0  0  0  0  0
  -20.4930    3.7420  -39.7330 H   0  0  0  0  0  0  0  0  0  0  0  0
  2  7  1  0  0  0  0
  2  1  1  0  0  0  0
  3  2  2  0  0  0  0
  4  5  2  0  0  0  0
  4  3  1  0  0  0  0
  5  6  1  0  0  0  0
  6  7  2  0  0  0  0
  8 21  1  0  0  0  0
  8  5  1  0  0  0  0
  9 11  1  0  0  0  0
  9  8  1  0  0  0  0
 10  9  2  0  0  0  0
 11 12  1  6  0  0  0
 11  4  1  0  0  0  0
 13 12  2  0  0  0  0
 14 15  1  0  0  0  0
 14 13  1  0  0  0  0
 15 16  2  0  0  0  0
 16 12  1  0  0  0  0
 16 17  1  0  0  0  0
 18 13  1  0  0  0  0
 18 19  1  0  0  0  0
 19 20  2  0  0  0  0
 20 11  1  0  0  0  0
 20 23  1  0  0  0  0
 22 14  1  0  0  0  0
 23 25  1  0  0  0  0
 24 23  2  0  0  0  0
 25 26  1  0  0  0  0
 26 27  1  0  0  0  0
 28 19  1  0  0  0  0
 28 29  1  0  0  0  0
 30 28  1  0  0  0  0
M  END
>  <Pose>
1

>  <Score>
-6.895

$$$$
