/Users/jonathanwahrer/Desktop/Msc/3_Semester/Drug_Design_Praktikum/waehrer_HTS_screening/HTS_experiment/out/docking_results/vina_output/5l4q/0558_docked.pdbqt
 OpenBabel03212218073D

 29 32  0  0  1  0  0  0  0  0999 V2000
  -24.2030    3.3370  -40.8190 Br  0  0  0  0  0  0  0  0  0  0  0  0
  -22.9580    2.1660  -39.9940 C   0  0  0  0  0  0  0  0  0  0  0  0
  -22.7090    2.1950  -38.6180 C   0  0  0  0  0  3  0  0  0  0  0  0
  -21.8100    1.3460  -38.0300 C   0  0  0  0  0  0  0  0  0  0  0  0
  -21.1350    0.4480  -38.8030 C   0  0  0  0  0  0  0  0  0  0  0  0
  -21.3480    0.3800  -40.1870 C   0  0  0  0  0  3  0  0  0  0  0  0
  -22.2570    1.2430  -40.7490 C   0  0  0  0  0  3  0  0  0  0  0  0
  -20.2550   -0.3360  -38.0160 N   0  0  0  0  0  0  0  0  0  0  0  0
  -20.3860    0.0940  -36.6840 C   0  0  0  0  0  0  0  0  0  0  0  0
  -19.7830   -0.3390  -35.6670 O   0  0  0  0  0  0  0  0  0  0  0  0
  -21.3820    1.1860  -36.6280 C   0  0  1  0  0  0  0  0  0  0  0  0
  -20.7250    2.4360  -36.1260 C   0  0  0  0  0  0  0  0  0  0  0  0
  -21.1140    3.1340  -35.0920 C   0  0  0  0  0  0  0  0  0  0  0  0
  -22.2480    2.6890  -34.3730 N   0  0  0  0  0  0  0  0  0  0  0  0
  -22.9360    1.5150  -34.7730 C   0  0  0  0  0  0  0  0  0  0  0  0
  -22.5490    0.8130  -35.8100 C   0  0  0  0  0  0  0  0  0  0  0  0
  -23.3150   -0.3880  -36.1570 C   0  0  0  0  0  0  0  0  0  0  0  0
  -23.9030   -1.3420  -36.4420 N   0  0  0  0  0  0  0  0  0  0  0  0
  -20.1990    4.2910  -34.9340 C   0  0  0  0  0  0  0  0  0  0  0  0
  -19.2470    4.2080  -35.9620 O   0  0  0  0  0  0  0  0  0  0  0  0
  -19.5380    3.0840  -36.7110 C   0  0  0  0  0  0  0  0  0  0  0  0
  -18.8780    2.6910  -37.7340 O   0  0  0  0  0  0  0  0  0  0  0  0
  -19.4210    4.1920  -33.6200 C   0  0  0  0  0  1  0  0  0  0  0  0
  -20.9650    5.6060  -34.9860 C   0  0  0  0  0  1  0  0  0  0  0  0
  -19.6170   -1.1080  -38.3870 H   0  0  0  0  0  0  0  0  0  0  0  0
  -22.6070    3.2110  -33.5320 H   0  0  0  0  0  0  0  0  0  0  0  0
  -24.0990    1.0770  -34.0190 N   0  0  0  0  0  0  0  0  0  0  0  0
  -24.3420    1.4450  -33.0850 H   0  0  0  0  0  0  0  0  0  0  0  0
  -24.7070    0.3610  -34.4480 H   0  0  0  0  0  0  0  0  0  0  0  0
  1  2  1  0  0  0  0
  2  3  1  0  0  0  0
  3  4  2  0  0  0  0
  5  4  1  0  0  0  0
  5  8  1  0  0  0  0
  6  5  2  0  0  0  0
  7  6  1  0  0  0  0
  7  2  2  0  0  0  0
  8  9  1  0  0  0  0
  9 11  1  0  0  0  0
  9 10  2  0  0  0  0
 11  4  1  6  0  0  0
 11 12  1  0  0  0  0
 11 16  1  0  0  0  0
 12 13  2  0  0  0  0
 13 19  1  0  0  0  0
 13 14  1  0  0  0  0
 14 26  1  0  0  0  0
 15 14  1  0  0  0  0
 15 27  1  0  0  0  0
 16 15  2  0  0  0  0
 17 16  1  0  0  0  0
 18 17  3  0  0  0  0
 19 23  1  0  0  0  0
 20 19  1  0  0  0  0
 21 12  1  0  0  0  0
 21 20  1  0  0  0  0
 22 21  2  0  0  0  0
 24 19  1  0  0  0  0
 25  8  1  0  0  0  0
 27 28  1  0  0  0  0
 29 27  1  0  0  0  0
M  END
>  <Pose>
1

>  <Score>
-7.083

$$$$
