/Users/jonathanwahrer/Desktop/Msc/3_Semester/Drug_Design_Praktikum/waehrer_HTS_screening/HTS_experiment/out/docking_results/vina_output/5l4q/0566_docked.pdbqt
 OpenBabel03212218083D

 30 33  0  0  1  0  0  0  0  0999 V2000
  -21.4990   -0.4030  -41.2610 Br  0  0  0  0  0  0  0  0  0  0  0  0
  -22.2390   -0.8150  -39.5520 C   0  0  0  0  0  0  0  0  0  0  0  0
  -21.8110   -0.1590  -38.4250 C   0  0  0  0  0  3  0  0  0  0  0  0
  -22.3490   -0.4550  -37.1600 C   0  0  0  0  0  0  0  0  0  0  0  0
  -23.3180   -1.4070  -37.0080 C   0  0  0  0  0  0  0  0  0  0  0  0
  -23.7560   -2.0770  -38.1600 C   0  0  0  0  0  3  0  0  0  0  0  0
  -23.2160   -1.7720  -39.3870 C   0  0  0  0  0  3  0  0  0  0  0  0
  -23.7030   -1.5280  -35.6460 N   0  0  0  0  0  0  0  0  0  0  0  0
  -22.9330   -0.6010  -34.9070 C   0  0  0  0  0  0  0  0  0  0  0  0
  -23.0540   -0.4740  -33.6430 O   0  0  0  0  0  0  0  0  0  0  0  0
  -22.0550    0.1060  -35.8230 C   0  0  2  0  0  0  0  0  0  0  0  0
  -22.2200    1.5460  -35.7890 N   0  0  0  0  0  0  0  0  0  0  0  0
  -21.3030    2.0240  -34.7700 C   0  0  1  0  0  3  0  0  0  0  0  0
  -20.0850    1.1850  -35.0290 C   0  0  2  0  0  3  0  0  0  0  0  0
  -20.6130   -0.1490  -35.4340 C   0  0  1  0  0  3  0  0  0  0  0  0
  -20.4810   -1.0090  -34.2480 C   0  0  0  0  0  0  0  0  0  0  0  0
  -21.0380   -2.1310  -34.0100 O   0  0  0  0  0  0  0  0  0  0  0  0
  -19.5920   -0.4030  -33.3190 N   0  0  0  0  0  0  0  0  0  0  0  0
  -19.3190    0.8990  -33.7960 C   0  0  0  0  0  0  0  0  0  0  0  0
  -18.5310    1.7420  -33.2700 O   0  0  0  0  0  0  0  0  0  0  0  0
  -24.4360   -2.2020  -35.3070 H   0  0  0  0  0  0  0  0  0  0  0  0
  -23.2000    1.8340  -35.6190 H   0  0  0  0  0  0  0  0  0  0  0  0
  -21.0690    3.4890  -34.9650 C   0  0  1  0  0  3  0  0  0  0  0  0
  -21.5520    3.9150  -36.3300 C   0  0  0  0  0  1  0  0  0  0  0  0
  -21.8410    4.1750  -34.0200 O   0  0  0  0  0  0  0  0  0  0  0  0
  -22.6890    3.6930  -33.8390 H   0  0  0  0  0  0  0  0  0  0  0  0
  -19.0600   -1.0000  -32.1090 C   0  0  0  0  0  2  0  0  0  0  0  0
  -19.9440   -0.7760  -30.9250 C   0  0  0  0  0  2  0  0  0  0  0  0
  -20.3410   -2.1620  -30.4010 C   0  0  0  0  0  2  0  0  0  0  0  0
  -19.9620   -2.3040  -28.9530 C   0  0  0  0  0  1  0  0  0  0  0  0
  1  2  1  0  0  0  0
  2  7  2  0  0  0  0
  2  3  1  0  0  0  0
  3  4  2  0  0  0  0
  4  5  1  0  0  0  0
  5  8  1  0  0  0  0
  6  5  2  0  0  0  0
  7  6  1  0  0  0  0
  8 21  1  0  0  0  0
  8  9  1  0  0  0  0
  9 10  2  0  0  0  0
 11  4  1  6  0  0  0
 11 12  1  0  0  0  0
 11 15  1  0  0  0  0
 11  9  1  0  0  0  0
 12 22  1  0  0  0  0
 12 13  1  0  0  0  0
 13 23  1  6  0  0  0
 14 13  1  0  0  0  0
 14 19  1  1  0  0  0
 15 14  1  0  0  0  0
 15 16  1  1  0  0  0
 16 17  2  0  0  0  0
 16 18  1  0  0  0  0
 18 27  1  0  0  0  0
 19 18  1  0  0  0  0
 19 20  2  0  0  0  0
 23 24  1  6  0  0  0
 23 25  1  0  0  0  0
 25 26  1  0  0  0  0
 27 28  1  0  0  0  0
 28 29  1  0  0  0  0
 29 30  1  0  0  0  0
M  END
>  <Pose>
1

>  <Score>
-7.803

$$$$
