/Users/jonathanwahrer/Desktop/Msc/3_Semester/Drug_Design_Praktikum/waehrer_HTS_screening/HTS_experiment/out/docking_results/vina_output/5l4q/0571_docked.pdbqt
 OpenBabel03212218083D

 34 38  0  0  1  0  0  0  0  0999 V2000
  -24.0930    1.1330  -33.6150 Br  0  0  0  0  0  0  0  0  0  0  0  0
  -23.6040    0.0950  -35.1410 C   0  0  0  0  0  0  0  0  0  0  0  0
  -23.2490    0.6650  -36.3430 C   0  0  0  0  0  3  0  0  0  0  0  0
  -22.8970   -0.1030  -37.4640 C   0  0  0  0  0  0  0  0  0  0  0  0
  -22.9160   -1.4690  -37.3220 C   0  0  0  0  0  0  0  0  0  0  0  0
  -23.2710   -2.0500  -36.1130 C   0  0  0  0  0  3  0  0  0  0  0  0
  -23.6160   -1.2860  -35.0200 C   0  0  0  0  0  3  0  0  0  0  0  0
  -22.5540   -2.1080  -38.5310 N   0  0  0  0  0  0  0  0  0  0  0  0
  -22.2960   -1.1000  -39.4820 C   0  0  0  0  0  0  0  0  0  0  0  0
  -21.9490   -1.3590  -40.6690 O   0  0  0  0  0  0  0  0  0  0  0  0
  -22.5040    0.2130  -38.8370 C   0  0  1  0  0  0  0  0  0  0  0  0
  -23.5610    0.9590  -39.5260 N   0  0  0  0  0  0  0  0  0  0  0  0
  -23.1900    2.3520  -39.4110 C   0  0  1  0  0  3  0  0  0  0  0  0
  -21.7230    2.4270  -39.2510 C   0  0  2  0  0  3  0  0  0  0  0  0
  -21.2600    1.0010  -39.0110 C   0  0  1  0  0  3  0  0  0  0  0  0
  -20.3350    1.0750  -37.8860 C   0  0  0  0  0  0  0  0  0  0  0  0
  -19.8160    0.1030  -37.2820 O   0  0  0  0  0  0  0  0  0  0  0  0
  -20.0800    2.4530  -37.5410 N   0  0  0  0  0  0  0  0  0  0  0  0
  -21.2300    3.1510  -38.0620 C   0  0  0  0  0  0  0  0  0  0  0  0
  -21.7080    4.1870  -37.5770 O   0  0  0  0  0  0  0  0  0  0  0  0
  -22.4900   -3.1520  -38.6870 H   0  0  0  0  0  0  0  0  0  0  0  0
  -24.4980    0.7780  -39.0990 H   0  0  0  0  0  0  0  0  0  0  0  0
  -23.7160    3.1320  -40.5930 C   0  0  2  0  0  3  0  0  0  0  0  0
  -22.6140    3.5840  -41.5200 C   0  0  0  0  0  1  0  0  0  0  0  0
  -24.5010    4.1810  -40.1540 O   0  0  0  0  0  0  0  0  0  0  0  0
  -24.8780    4.7010  -40.8900 H   0  0  0  0  0  0  0  0  0  0  0  0
  -18.9550    3.0270  -36.8740 C   0  0  0  0  0  2  0  0  0  0  0  0
  -19.1480    3.3660  -35.4250 C   0  0  0  0  0  2  0  0  0  0  0  0
  -19.1870    2.2080  -34.5150 C   0  0  0  0  0  0  0  0  0  0  0  0
  -20.4150    1.7160  -34.0910 C   0  0  0  0  0  3  0  0  0  0  0  0
  -20.4660    0.6360  -33.2750 C   0  0  0  0  0  3  0  0  0  0  0  0
  -19.3450   -0.0090  -32.8390 C   0  0  0  0  0  3  0  0  0  0  0  0
  -18.1250    0.4900  -33.2680 C   0  0  0  0  0  3  0  0  0  0  0  0
  -18.0480    1.5770  -34.0890 C   0  0  0  0  0  3  0  0  0  0  0  0
  2  7  1  0  0  0  0
  2  1  1  0  0  0  0
  3  2  2  0  0  0  0
  4  5  2  0  0  0  0
  4  3  1  0  0  0  0
  5  6  1  0  0  0  0
  6  7  2  0  0  0  0
  8  5  1  0  0  0  0
  9  8  1  0  0  0  0
 10  9  2  0  0  0  0
 11  9  1  6  0  0  0
 11  4  1  0  0  0  0
 12 13  1  0  0  0  0
 12 22  1  0  0  0  0
 12 11  1  0  0  0  0
 13 23  1  6  0  0  0
 13 14  1  0  0  0  0
 14 15  1  0  0  0  0
 14 19  1  1  0  0  0
 15 11  1  0  0  0  0
 15 16  1  1  0  0  0
 16 18  1  0  0  0  0
 16 17  2  0  0  0  0
 18 27  1  0  0  0  0
 19 20  2  0  0  0  0
 19 18  1  0  0  0  0
 21  8  1  0  0  0  0
 23 24  1  1  0  0  0
 23 25  1  0  0  0  0
 26 25  1  0  0  0  0
 27 28  1  0  0  0  0
 28 29  1  0  0  0  0
 29 30  2  0  0  0  0
 29 34  1  0  0  0  0
 30 31  1  0  0  0  0
 31 32  2  0  0  0  0
 33 32  1  0  0  0  0
 34 33  2  0  0  0  0
M  END
>  <Pose>
1

>  <Score>
-7.697

$$$$
