/Users/jonathanwahrer/Desktop/Msc/3_Semester/Drug_Design_Praktikum/waehrer_HTS_screening/HTS_experiment/out/docking_results/vina_output/5l4q/0578_docked.pdbqt
 OpenBabel03212218083D

 27 30  0  0  1  0  0  0  0  0999 V2000
  -19.6540    2.5490  -38.0900 Br  0  0  0  0  0  0  0  0  0  0  0  0
  -19.5590    1.9310  -36.2850 C   0  0  0  0  0  0  0  0  0  0  0  0
  -20.3950    0.9570  -35.8000 C   0  0  0  0  0  3  0  0  0  0  0  0
  -20.3540    0.4770  -34.4790 C   0  0  0  0  0  0  0  0  0  0  0  0
  -19.4190    1.0300  -33.6560 C   0  0  0  0  0  0  0  0  0  0  0  0
  -18.5540    2.0310  -34.1360 C   0  0  0  0  0  3  0  0  0  0  0  0
  -18.6200    2.4790  -35.4340 C   0  0  0  0  0  3  0  0  0  0  0  0
  -19.4810    0.4490  -32.3600 N   0  0  0  0  0  0  0  0  0  0  0  0
  -20.5090   -0.5150  -32.3830 C   0  0  0  0  0  0  0  0  0  0  0  0
  -20.8570   -1.2610  -31.3960 O   0  0  0  0  0  0  0  0  0  0  0  0
  -21.1040   -0.5110  -33.7320 C   0  0  2  0  0  0  0  0  0  0  0  0
  -20.8130   -1.8640  -34.2400 N   0  0  0  0  0  0  0  0  0  0  0  0
  -21.9950   -2.6590  -34.1180 C   0  0  2  0  0  3  0  0  0  0  0  0
  -23.1090   -1.6830  -34.2130 C   0  0  1  0  0  3  0  0  0  0  0  0
  -22.5800   -0.3630  -33.7200 C   0  0  2  0  0  3  0  0  0  0  0  0
  -23.1830    0.6020  -34.6110 C   0  0  0  0  0  0  0  0  0  0  0  0
  -23.2280    1.8500  -34.4070 O   0  0  0  0  0  0  0  0  0  0  0  0
  -23.7110   -0.0760  -35.7420 N   0  0  0  0  0  0  0  0  0  0  0  0
  -23.4080   -1.4620  -35.6630 C   0  0  0  0  0  0  0  0  0  0  0  0
  -23.4110   -2.2530  -36.6260 O   0  0  0  0  0  0  0  0  0  0  0  0
  -22.0560   -3.5140  -32.8740 C   0  0  0  0  0  1  0  0  0  0  0  0
  -18.8770    0.6830  -31.5190 H   0  0  0  0  0  0  0  0  0  0  0  0
  -20.4670   -1.8240  -35.2240 H   0  0  0  0  0  0  0  0  0  0  0  0
  -24.4460    0.6060  -36.7990 C   0  0  0  0  0  2  0  0  0  0  0  0
  -23.5360    1.1430  -37.8610 C   0  0  0  0  0  2  0  0  0  0  0  0
  -23.4820    0.2760  -39.0900 C   0  0  0  0  0  2  0  0  0  0  0  0
  -22.0470   -0.2540  -39.1830 C   0  0  0  0  0  1  0  0  0  0  0  0
  1  2  1  0  0  0  0
  2  3  2  0  0  0  0
  2  7  1  0  0  0  0
  3  4  1  0  0  0  0
  4  5  2  0  0  0  0
  5  8  1  0  0  0  0
  6  5  1  0  0  0  0
  7  6  2  0  0  0  0
  8 22  1  0  0  0  0
  9  8  1  0  0  0  0
  9 10  2  0  0  0  0
 11  4  1  6  0  0  0
 11 15  1  0  0  0  0
 11  9  1  0  0  0  0
 12 13  1  0  0  0  0
 12 11  1  0  0  0  0
 13 21  1  1  0  0  0
 14 19  1  6  0  0  0
 14 13  1  0  0  0  0
 14 15  1  0  0  0  0
 15 16  1  6  0  0  0
 16 17  2  0  0  0  0
 18 19  1  0  0  0  0
 18 16  1  0  0  0  0
 20 19  2  0  0  0  0
 23 12  1  0  0  0  0
 24 18  1  0  0  0  0
 25 24  1  0  0  0  0
 26 25  1  0  0  0  0
 27 26  1  0  0  0  0
M  END
>  <Pose>
1

>  <Score>
-7.475

$$$$
