/Users/jonathanwahrer/Desktop/Msc/3_Semester/Drug_Design_Praktikum/waehrer_HTS_screening/HTS_experiment/out/docking_results/vina_output/5l4q/0579_docked.pdbqt
 OpenBabel03212218083D

 32 35  0  0  1  0  0  0  0  0999 V2000
  -19.1530   -0.6630  -28.8120 Br  0  0  0  0  0  0  0  0  0  0  0  0
  -20.1300   -1.5440  -30.1930 C   0  0  0  0  0  0  0  0  0  0  0  0
  -20.3060   -1.0020  -31.4460 C   0  0  0  0  0  3  0  0  0  0  0  0
  -21.0210   -1.6520  -32.4520 C   0  0  0  0  0  0  0  0  0  0  0  0
  -21.5770   -2.8790  -32.1920 C   0  0  0  0  0  0  0  0  0  0  0  0
  -21.4170   -3.4500  -30.9390 C   0  0  0  0  0  3  0  0  0  0  0  0
  -20.6930   -2.7760  -29.9480 C   0  0  0  0  0  3  0  0  0  0  0  0
  -22.2560   -3.3670  -33.3530 N   0  0  0  0  0  0  0  0  0  0  0  0
  -22.1210   -2.4030  -34.3830 C   0  0  0  0  0  0  0  0  0  0  0  0
  -22.5990   -2.5500  -35.5240 O   0  0  0  0  0  0  0  0  0  0  0  0
  -21.3540   -1.2850  -33.8590 C   0  0  2  0  0  0  0  0  0  0  0  0
  -20.1380   -1.1780  -34.6630 N   0  0  0  0  0  0  0  0  0  0  0  0
  -19.8950    0.2250  -34.8160 C   0  0  2  0  0  3  0  0  0  0  0  0
  -21.2540    0.8100  -34.9450 C   0  0  2  0  0  3  0  0  0  0  0  0
  -22.0410    0.0470  -33.9050 C   0  0  1  0  0  3  0  0  0  0  0  0
  -23.4080    0.0400  -34.4090 C   0  0  0  0  0  0  0  0  0  0  0  0
  -24.4350   -0.2050  -33.7400 O   0  0  0  0  0  0  0  0  0  0  0  0
  -23.3630    0.3610  -35.7940 N   0  0  0  0  0  0  0  0  0  0  0  0
  -21.9750    0.4610  -36.1940 C   0  0  0  0  0  0  0  0  0  0  0  0
  -21.6000    0.2740  -37.3630 O   0  0  0  0  0  0  0  0  0  0  0  0
  -22.7650   -4.2930  -33.4010 H   0  0  0  0  0  0  0  0  0  0  0  0
  -20.2960   -1.5820  -35.6170 H   0  0  0  0  0  0  0  0  0  0  0  0
  -18.9470    0.5570  -35.9170 C   0  0  0  0  0  2  0  0  0  0  0  0
  -18.3700    1.8870  -35.6940 C   0  0  0  0  0  0  0  0  0  0  0  0
  -18.1030    2.6260  -36.6830 O   0  0  0  0  0  0  0  0  0  0  0  0
  -18.1050    2.3580  -34.3740 N   0  0  0  0  0  0  0  0  0  0  0  0
  -18.1480    3.3760  -34.1620 H   0  0  0  0  0  0  0  0  0  0  0  0
  -17.8700    1.6760  -33.6240 H   0  0  0  0  0  0  0  0  0  0  0  0
  -24.5210    0.5480  -36.6190 C   0  0  0  0  0  2  0  0  0  0  0  0
  -24.4950   -0.1670  -37.9290 C   0  0  0  0  0  2  0  0  0  0  0  0
  -24.5640   -1.5450  -37.8020 O   0  0  0  0  0  0  0  0  0  0  0  0
  -23.7340   -2.1880  -38.7180 C   0  0  0  0  0  1  0  0  0  0  0  0
  2  7  1  0  0  0  0
  2  1  1  0  0  0  0
  3  2  2  0  0  0  0
  4  5  2  0  0  0  0
  4  3  1  0  0  0  0
  5  6  1  0  0  0  0
  6  7  2  0  0  0  0
  8  5  1  0  0  0  0
  9  8  1  0  0  0  0
 10  9  2  0  0  0  0
 11  9  1  6  0  0  0
 11  4  1  0  0  0  0
 12 11  1  0  0  0  0
 13 23  1  6  0  0  0
 13 12  1  0  0  0  0
 14 19  1  6  0  0  0
 14 13  1  0  0  0  0
 14 15  1  0  0  0  0
 15 16  1  6  0  0  0
 15 11  1  0  0  0  0
 16 17  2  0  0  0  0
 18 16  1  0  0  0  0
 19 18  1  0  0  0  0
 20 19  2  0  0  0  0
 21  8  1  0  0  0  0
 22 12  1  0  0  0  0
 23 24  1  0  0  0  0
 24 26  1  0  0  0  0
 25 24  2  0  0  0  0
 26 27  1  0  0  0  0
 26 28  1  0  0  0  0
 29 18  1  0  0  0  0
 30 31  1  0  0  0  0
 30 29  1  0  0  0  0
 32 31  1  0  0  0  0
M  END
>  <Pose>
1

>  <Score>
-7.746

$$$$
