/Users/jonathanwahrer/Desktop/Msc/3_Semester/Drug_Design_Praktikum/waehrer_HTS_screening/HTS_experiment/out/docking_results/vina_output/5l4q/0591_docked.pdbqt
 OpenBabel03212218083D

 23 26  0  0  0  0  0  0  0  0999 V2000
  -19.2150   -3.4990  -26.1480 Br  0  0  0  0  0  0  0  0  0  0  0  0
  -19.8650   -3.3130  -27.9450 C   0  0  0  0  0  0  0  0  0  0  0  0
  -20.0370   -2.0630  -28.4990 C   0  0  0  0  0  3  0  0  0  0  0  0
  -20.5040   -1.9350  -29.7900 C   0  0  0  0  0  0  0  0  0  0  0  0
  -20.8190   -3.0220  -30.5840 C   0  0  0  0  0  0  0  0  0  0  0  0
  -20.6400   -4.2770  -30.0080 C   0  0  0  0  0  3  0  0  0  0  0  0
  -20.1730   -4.4130  -28.7170 C   0  0  0  0  0  3  0  0  0  0  0  0
  -21.3020   -3.0660  -31.9060 N   0  0  0  0  0  0  0  0  0  0  0  0
  -21.8090   -4.1550  -32.4620 N   0  0  0  0  0  0  0  0  0  0  0  0
  -22.1600   -3.8480  -33.7010 N   0  0  0  0  0  0  0  0  0  0  0  0
  -21.8770   -2.5860  -33.9170 N   0  0  0  0  0  0  0  0  0  0  0  0
  -21.3290   -2.0530  -32.7970 C   0  0  0  0  0  0  0  0  0  0  0  0
  -20.9150   -0.6490  -32.7630 C   0  0  0  0  0  0  0  0  0  0  0  0
  -20.9410   -0.0050  -31.4960 N   0  0  0  0  0  0  0  0  0  0  0  0
  -20.6280   -0.5400  -30.2200 C   0  0  0  0  0  0  0  0  0  0  0  0
  -20.4110    0.2570  -29.2690 O   0  0  0  0  0  0  0  0  0  0  0  0
  -19.4910   -0.4690  -33.3110 C   0  0  0  0  0  2  0  0  0  0  0  0
  -19.4080    0.8640  -34.0120 C   0  0  0  0  0  2  0  0  0  0  0  0
  -20.0400    0.7160  -35.3030 N   0  0  0  0  0  0  0  0  0  0  0  0
  -21.3150    0.0710  -35.1310 C   0  0  0  0  0  2  0  0  0  0  0  0
  -21.8220    0.1280  -33.7110 C   0  0  0  0  0  2  0  0  0  0  0  0
  -19.1440   -0.0730  -36.1460 C   0  0  0  0  0  1  0  0  0  0  0  0
  -21.2290    0.9940  -31.5100 H   0  0  0  0  0  0  0  0  0  0  0  0
  2  1  1  0  0  0  0
  3  2  1  0  0  0  0
  4  3  2  0  0  0  0
  5  6  2  0  0  0  0
  5  4  1  0  0  0  0
  6  7  1  0  0  0  0
  7  2  2  0  0  0  0
  8  5  1  0  0  0  0
  9  8  1  0  0  0  0
 10  9  2  0  0  0  0
 11 10  1  0  0  0  0
 11 12  2  0  0  0  0
 12 13  1  0  0  0  0
 12  8  1  0  0  0  0
 13 14  1  0  0  0  0
 14 15  1  0  0  0  0
 15  4  1  0  0  0  0
 15 16  2  0  0  0  0
 17 13  1  0  0  0  0
 18 17  1  0  0  0  0
 19 20  1  0  0  0  0
 19 18  1  0  0  0  0
 20 21  1  0  0  0  0
 21 13  1  0  0  0  0
 22 19  1  0  0  0  0
 23 14  1  0  0  0  0
M  END
>  <Pose>
1

>  <Score>
-8.574

$$$$
