/Users/jonathanwahrer/Desktop/Msc/3_Semester/Drug_Design_Praktikum/waehrer_HTS_screening/HTS_experiment/out/docking_results/vina_output/5l4q/0616_docked.pdbqt
 OpenBabel03212218093D

 28 31  0  0  0  0  0  0  0  0999 V2000
  -21.6630   -2.1910  -33.2320 C   0  0  0  0  0  0  0  0  0  0  0  0
  -21.7720   -3.4140  -33.6260 O   0  0  0  0  0  0  0  0  0  0  0  0
  -22.2660   -1.2360  -34.0520 N   0  0  0  0  0  0  0  0  0  0  0  0
  -22.2730    0.1870  -33.8440 C   0  0  0  0  0  2  0  0  0  0  0  0
  -22.9820    0.9350  -34.9810 C   0  0  0  0  0  2  0  0  0  0  0  0
  -22.4740    0.4360  -36.2490 N   0  0  0  0  0  0  0  0  0  0  0  0
  -22.2890   -1.0030  -36.4440 C   0  0  0  0  0  2  0  0  0  0  0  0
  -22.9970   -1.6810  -35.2680 C   0  0  0  0  0  2  0  0  0  0  0  0
  -22.1490    1.3170  -37.3040 C   0  0  0  0  0  0  0  0  0  0  0  0
  -22.3150    2.5430  -37.0980 O   0  0  0  0  0  0  0  0  0  0  0  0
  -20.9400   -1.9230  -32.0040 C   0  0  0  0  0  0  0  0  0  0  0  0
  -20.0660   -0.9710  -31.6690 N   0  0  0  0  0  0  0  0  0  0  0  0
  -19.6310   -1.1300  -30.3810 C   0  0  0  0  0  0  0  0  0  0  0  0
  -19.7240   -0.1910  -32.2490 H   0  0  0  0  0  0  0  0  0  0  0  0
  -20.2460   -2.2310  -29.8510 C   0  0  0  0  0  0  0  0  0  0  0  0
  -18.7440   -0.4160  -29.5980 C   0  0  0  0  0  3  0  0  0  0  0  0
  -19.9710   -2.6150  -28.5360 C   0  0  0  0  0  3  0  0  0  0  0  0
  -21.0510   -2.7230  -30.8390 C   0  0  0  0  0  3  0  0  0  0  0  0
  -19.0920   -1.9120  -27.7530 C   0  0  0  0  0  0  0  0  0  0  0  0
  -18.7060   -2.4300  -25.9460 Br  0  0  0  0  0  0  0  0  0  0  0  0
  -18.4760   -0.8050  -28.2930 C   0  0  0  0  0  3  0  0  0  0  0  0
  -21.6450    0.7760  -38.5570 C   0  0  0  0  0  2  0  0  0  0  0  0
  -22.6530    0.5150  -39.5600 N   0  0  0  0  0  0  0  0  0  0  0  0
  -22.3280   -0.7390  -40.2450 C   0  0  0  0  0  2  0  0  0  0  0  0
  -21.6020   -0.4820  -41.5190 C   0  0  0  0  0  2  0  0  0  0  0  0
  -20.7570    0.6180  -41.3930 O   0  0  0  0  0  0  0  0  0  0  0  0
  -21.4840    1.8060  -41.2850 C   0  0  0  0  0  2  0  0  0  0  0  0
  -22.7770    1.5880  -40.5310 C   0  0  0  0  0  2  0  0  0  0  0  0
  1 11  1  0  0  0  0
  2  1  2  0  0  0  0
  3  4  1  0  0  0  0
  3  1  1  0  0  0  0
  5  4  1  0  0  0  0
  6  5  1  0  0  0  0
  7  6  1  0  0  0  0
  7  8  1  0  0  0  0
  8  3  1  0  0  0  0
  9 10  2  0  0  0  0
  9  6  1  0  0  0  0
 11 12  1  0  0  0  0
 11 18  2  0  0  0  0
 12 13  1  0  0  0  0
 13 15  2  0  0  0  0
 13 16  1  0  0  0  0
 14 12  1  0  0  0  0
 15 17  1  0  0  0  0
 16 21  2  0  0  0  0
 17 19  2  0  0  0  0
 18 15  1  0  0  0  0
 19 20  1  0  0  0  0
 21 19  1  0  0  0  0
 22  9  1  0  0  0  0
 23 22  1  0  0  0  0
 24 23  1  0  0  0  0
 25 26  1  0  0  0  0
 25 24  1  0  0  0  0
 26 27  1  0  0  0  0
 27 28  1  0  0  0  0
 28 23  1  0  0  0  0
M  END
>  <Pose>
1

>  <Score>
-8.361

$$$$
