/Users/jonathanwahrer/Desktop/Msc/3_Semester/Drug_Design_Praktikum/waehrer_HTS_screening/HTS_experiment/out/docking_results/vina_output/5l4q/0625_docked.pdbqt
 OpenBabel03212218103D

 31 34  0  0  0  0  0  0  0  0999 V2000
  -24.4710   -3.7780  -38.9170 Br  0  0  0  0  0  0  0  0  0  0  0  0
  -23.4910   -2.1710  -38.8250 C   0  0  0  0  0  0  0  0  0  0  0  0
  -23.3420   -1.4870  -37.6300 C   0  0  0  0  0  3  0  0  0  0  0  0
  -22.6520   -0.3130  -37.5400 C   0  0  0  0  0  0  0  0  0  0  0  0
  -22.3550    0.4600  -36.4520 N   0  0  0  0  0  0  0  0  0  0  0  0
  -21.5830    1.4730  -36.8830 C   0  0  0  0  0  0  0  0  0  0  0  0
  -21.4080    1.3590  -38.2880 C   0  0  0  0  0  0  0  0  0  0  0  0
  -22.0870    0.2210  -38.6440 C   0  0  0  0  0  0  0  0  0  0  0  0
  -22.2210   -0.4510  -39.8610 C   0  0  0  0  0  3  0  0  0  0  0  0
  -22.9180   -1.6460  -39.9670 C   0  0  0  0  0  0  0  0  0  0  0  0
  -23.0860    0.2990  -35.1800 C   0  0  0  0  0  2  0  0  0  0  0  0
  -22.0700   -0.3470  -34.2100 C   0  0  0  0  0  0  0  0  0  0  0  0
  -21.7900    0.3780  -33.0880 C   0  0  0  0  0  3  0  0  0  0  0  0
  -20.8840   -0.1500  -32.1530 C   0  0  0  0  0  3  0  0  0  0  0  0
  -20.2790   -1.3600  -32.3160 C   0  0  0  0  0  3  0  0  0  0  0  0
  -20.6000   -2.0660  -33.4760 C   0  0  0  0  0  3  0  0  0  0  0  0
  -21.4980   -1.5480  -34.4190 C   0  0  0  0  0  3  0  0  0  0  0  0
  -20.9150    2.5270  -36.1190 C   0  0  0  0  0  2  0  0  0  0  0  0
  -19.6370    2.2570  -35.5370 N   0  0  0  0  0  4  0  0  0  0  0  0
  -18.9180    1.1100  -35.4770 C   0  0  0  0  0  2  0  0  0  0  0  0
  -18.1360    1.1140  -34.1410 C   0  0  0  0  0  2  0  0  0  0  0  0
  -18.0330    2.6180  -33.8990 C   0  0  0  0  0  2  0  0  0  0  0  0
  -19.4530    3.0080  -34.2840 C   0  0  0  0  0  2  0  0  0  0  0  0
  -18.9920    2.9810  -36.2080 H   0  0  0  0  0  0  0  0  0  0  0  0
  -20.8050    2.3330  -39.2070 C   0  0  0  0  0  0  0  0  0  0  0  0
  -19.5510    2.3100  -39.3310 O   0  0  0  0  0  0  0  0  0  0  0  0
  -21.4810    3.2470  -39.9450 O   0  0  0  0  0  0  0  0  0  0  0  0
  -22.3910    3.1120  -40.9770 C   0  0  0  0  0  2  0  0  0  0  0  0
  -23.8390    2.9550  -40.5290 C   0  0  0  0  0  1  0  0  0  0  0  0
  -23.0630   -2.3510  -41.1760 O   0  0  0  0  0  0  0  0  0  0  0  0
  -23.8870   -2.1680  -41.7650 H   0  0  0  0  0  0  0  0  0  0  0  0
  1  2  1  0  0  0  0
  2  3  1  0  0  0  0
  3  4  2  0  0  0  0
  4  5  1  0  0  0  0
  5 11  1  0  0  0  0
  6  5  1  0  0  0  0
  6 18  1  0  0  0  0
  7  6  2  0  0  0  0
  8  7  1  0  0  0  0
  8  4  1  0  0  0  0
  9  8  2  0  0  0  0
 10  9  1  0  0  0  0
 10  2  2  0  0  0  0
 11 12  1  0  0  0  0
 12 13  1  0  0  0  0
 13 14  2  0  0  0  0
 15 14  1  0  0  0  0
 16 15  2  0  0  0  0
 17 12  2  0  0  0  0
 17 16  1  0  0  0  0
 18 19  1  0  0  0  0
 19 20  1  0  0  0  0
 19 23  1  0  0  0  0
 20 21  1  0  0  0  0
 21 22  1  0  0  0  0
 23 22  1  0  0  0  0
 24 19  1  0  0  0  0
 25  7  1  0  0  0  0
 26 25  2  0  0  0  0
 27 25  1  0  0  0  0
 28 29  1  0  0  0  0
 28 27  1  0  0  0  0
 30 10  1  0  0  0  0
 31 30  1  0  0  0  0
M  END
>  <Pose>
1

>  <Score>
-6.884

$$$$
