/Users/jonathanwahrer/Desktop/Msc/3_Semester/Drug_Design_Praktikum/waehrer_HTS_screening/HTS_experiment/out/docking_results/vina_output/5l4q/0626_docked.pdbqt
 OpenBabel03212218103D

 32 35  0  0  0  0  0  0  0  0999 V2000
  -20.3570   -0.6180  -31.7160 N   0  0  0  0  0  0  0  0  0  0  0  0
  -19.2780   -0.0390  -32.3970 C   0  0  0  0  0  0  0  0  0  0  0  0
  -18.1000   -0.3860  -32.1260 O   0  0  0  0  0  0  0  0  0  0  0  0
  -21.3160   -0.2740  -32.0270 H   0  0  0  0  0  0  0  0  0  0  0  0
  -19.4210    0.9810  -33.4420 C   0  0  0  0  0  2  0  0  0  0  0  0
  -20.5460    0.9150  -34.2860 N   0  0  0  0  0  0  0  0  0  0  0  0
  -21.2750    2.1070  -34.5290 C   0  0  0  0  0  2  0  0  0  0  0  0
  -22.6860    1.8260  -35.0490 C   0  0  0  0  0  2  0  0  0  0  0  0
  -22.5760    0.9970  -36.1720 N   0  0  0  0  0  0  0  0  0  0  0  0
  -21.3090    0.4800  -36.5140 C   0  0  0  0  0  2  0  0  0  0  0  0
  -20.4470    0.0110  -35.3810 C   0  0  0  0  0  2  0  0  0  0  0  0
  -23.7370    0.3550  -36.5950 C   0  0  0  0  0  2  0  0  0  0  0  0
  -23.6500   -1.0370  -37.0360 C   0  0  0  0  0  0  0  0  0  0  0  0
  -23.4660   -1.9000  -36.0920 O   0  0  0  0  0  0  0  0  0  0  0  0
  -23.7430   -1.5360  -38.3300 N   0  0  0  0  0  0  0  0  0  0  0  0
  -23.9010   -0.8930  -39.1320 H   0  0  0  0  0  0  0  0  0  0  0  0
  -23.6410   -2.9560  -38.6510 C   0  0  0  0  0  3  0  0  0  0  0  0
  -24.8400   -3.7470  -38.9710 C   0  0  0  0  0  2  0  0  0  0  0  0
  -23.8830   -3.3700  -40.0870 C   0  0  0  0  0  2  0  0  0  0  0  0
  -20.3080   -1.5980  -30.7010 C   0  0  0  0  0  0  0  0  0  0  0  0
  -20.7560   -2.8800  -30.9810 C   0  0  0  0  0  0  0  0  0  0  0  0
  -21.4420   -3.2140  -32.7410 Br  0  0  0  0  0  0  0  0  0  0  0  0
  -20.7410   -3.9090  -30.0680 C   0  0  0  0  0  3  0  0  0  0  0  0
  -20.2660   -3.7050  -28.7950 C   0  0  0  0  0  0  0  0  0  0  0  0
  -20.1090   -4.4560  -27.6890 N   0  0  0  0  0  0  0  0  0  0  0  0
  -19.8200   -2.4480  -28.4980 C   0  0  0  0  0  0  0  0  0  0  0  0
  -19.5780   -3.7220  -26.6940 C   0  0  0  0  0  0  0  0  0  0  0  0
  -19.4090   -2.4940  -27.2140 N   0  0  0  0  0  0  0  0  0  0  0  0
  -19.0080   -1.6640  -26.6950 H   0  0  0  0  0  0  0  0  0  0  0  0
  -19.8330   -1.3960  -29.4250 C   0  0  0  0  0  3  0  0  0  0  0  0
  -19.2700   -4.1640  -25.3920 O   0  0  0  0  0  0  0  0  0  0  0  0
  -18.5320   -4.8790  -25.3380 H   0  0  0  0  0  0  0  0  0  0  0  0
  1 20  1  0  0  0  0
  2  3  2  0  0  0  0
  2  1  1  0  0  0  0
  4  1  1  0  0  0  0
  5  2  1  0  0  0  0
  6  5  1  0  0  0  0
  7  6  1  0  0  0  0
  8  7  1  0  0  0  0
  9  8  1  0  0  0  0
 10  9  1  0  0  0  0
 10 11  1  0  0  0  0
 11  6  1  0  0  0  0
 12  9  1  0  0  0  0
 13 12  1  0  0  0  0
 13 14  2  0  0  0  0
 15 13  1  0  0  0  0
 16 15  1  0  0  0  0
 17 15  1  0  0  0  0
 18 17  1  0  0  0  0
 19 18  1  0  0  0  0
 19 17  1  0  0  0  0
 20 30  1  0  0  0  0
 21 20  2  0  0  0  0
 21 23  1  0  0  0  0
 22 21  1  0  0  0  0
 23 24  2  0  0  0  0
 24 26  1  0  0  0  0
 24 25  1  0  0  0  0
 25 27  2  0  0  0  0
 26 28  1  0  0  0  0
 27 31  1  0  0  0  0
 28 29  1  0  0  0  0
 28 27  1  0  0  0  0
 30 26  2  0  0  0  0
 31 32  1  0  0  0  0
M  END
>  <Pose>
1

>  <Score>
-8.549

$$$$
