/Users/jonathanwahrer/Desktop/Msc/3_Semester/Drug_Design_Praktikum/waehrer_HTS_screening/HTS_experiment/out/docking_results/vina_output/5l4q/0631_docked.pdbqt
 OpenBabel03212218103D

 29 32  0  0  1  0  0  0  0  0999 V2000
  -20.8720   -3.5130  -31.3740 N   0  0  0  0  0  0  0  0  0  0  0  0
  -20.6560   -2.3070  -32.2040 C   0  0  0  0  0  2  0  0  0  0  0  0
  -21.8750   -2.2970  -33.1130 C   0  0  2  0  0  3  0  0  0  0  0  0
  -22.1580   -3.7720  -33.3090 C   0  0  0  0  0  2  0  0  0  0  0  0
  -21.4420   -4.5000  -32.2300 C   0  0  0  0  0  0  0  0  0  0  0  0
  -21.3440   -5.7270  -32.0860 O   0  0  0  0  0  0  0  0  0  0  0  0
  -21.4500   -1.5900  -34.3310 C   0  0  0  0  0  0  0  0  0  0  0  0
  -20.2480   -1.2950  -34.5250 O   0  0  0  0  0  0  0  0  0  0  0  0
  -22.4440   -1.2480  -35.2880 N   0  0  0  0  0  0  0  0  0  0  0  0
  -23.4300   -1.5040  -35.0830 H   0  0  0  0  0  0  0  0  0  0  0  0
  -22.1120   -0.5600  -36.5160 C   0  0  0  0  0  2  0  0  0  0  0  0
  -23.3010   -0.4120  -37.4420 C   0  0  0  0  0  2  0  0  0  0  0  0
  -23.4260   -1.5870  -38.3270 C   0  0  0  0  0  0  0  0  0  0  0  0
  -24.1530   -2.6750  -38.0260 N   0  0  0  0  0  0  0  0  0  0  0  0
  -24.0780   -3.5640  -39.0170 C   0  0  0  0  0  3  0  0  0  0  0  0
  -23.2800   -3.0360  -39.9840 N   0  0  0  0  0  0  0  0  0  0  0  0
  -22.8900   -1.8330  -39.5530 C   0  0  0  0  0  3  0  0  0  0  0  0
  -23.0630   -3.5460  -40.8710 H   0  0  0  0  0  0  0  0  0  0  0  0
  -20.5510   -3.5320  -30.0040 C   0  0  0  0  0  0  0  0  0  0  0  0
  -20.6030   -4.5310  -29.1120 N   0  0  0  0  0  0  0  0  0  0  0  0
  -20.2040   -4.1220  -27.9110 N   0  0  0  0  0  0  0  0  0  0  0  0
  -20.9090   -5.5060  -29.2960 H   0  0  0  0  0  0  0  0  0  0  0  0
  -19.8680   -2.8210  -27.9660 C   0  0  0  0  0  0  0  0  0  0  0  0
  -19.4010   -1.9360  -27.0220 C   0  0  0  0  0  3  0  0  0  0  0  0
  -20.0770   -2.4330  -29.2610 C   0  0  0  0  0  0  0  0  0  0  0  0
  -19.1480   -0.6290  -27.4350 C   0  0  0  0  0  0  0  0  0  0  0  0
  -18.4960    0.6840  -26.2020 Br  0  0  0  0  0  0  0  0  0  0  0  0
  -19.3660   -0.2530  -28.7530 C   0  0  0  0  0  3  0  0  0  0  0  0
  -19.8330   -1.1540  -29.6770 C   0  0  0  0  0  3  0  0  0  0  0  0
  1 19  1  0  0  0  0
  2  1  1  0  0  0  0
  3  7  1  6  0  0  0
  3  2  1  0  0  0  0
  4  3  1  0  0  0  0
  4  5  1  0  0  0  0
  5  6  2  0  0  0  0
  5  1  1  0  0  0  0
  8  7  2  0  0  0  0
  9 10  1  0  0  0  0
  9  7  1  0  0  0  0
 11  9  1  0  0  0  0
 12 11  1  0  0  0  0
 13 14  1  0  0  0  0
 13 12  1  0  0  0  0
 15 14  2  0  0  0  0
 16 17  1  0  0  0  0
 16 15  1  0  0  0  0
 17 13  2  0  0  0  0
 18 16  1  0  0  0  0
 19 25  2  0  0  0  0
 19 20  1  0  0  0  0
 20 21  1  0  0  0  0
 22 20  1  0  0  0  0
 23 21  2  0  0  0  0
 23 24  1  0  0  0  0
 25 23  1  0  0  0  0
 26 24  2  0  0  0  0
 26 27  1  0  0  0  0
 28 26  1  0  0  0  0
 29 25  1  0  0  0  0
 29 28  2  0  0  0  0
M  END
>  <Pose>
1

>  <Score>
-9.458

$$$$
