/Users/jonathanwahrer/Desktop/Msc/3_Semester/Drug_Design_Praktikum/waehrer_HTS_screening/HTS_experiment/out/docking_results/vina_output/5l4q/0648_docked.pdbqt
 OpenBabel03212218113D

 32 35  0  0  0  0  0  0  0  0999 V2000
  -19.7470    0.4900  -37.1280 C   0  0  0  0  0  0  0  0  0  0  0  0
  -18.8520   -0.4200  -37.2660 O   0  0  0  0  0  0  0  0  0  0  0  0
  -19.6090    1.3630  -36.0820 N   0  0  0  0  0  0  0  0  0  0  0  0
  -20.5060    2.4280  -35.7550 C   0  0  0  0  0  2  0  0  0  0  0  0
  -21.2510    2.0640  -34.5130 C   0  0  0  0  0  2  0  0  0  0  0  0
  -20.4820    1.1530  -33.6770 N   0  0  0  0  0  0  0  0  0  0  0  0
  -19.0650    1.0240  -33.7530 C   0  0  0  0  0  2  0  0  0  0  0  0
  -18.4760    1.2690  -35.1390 C   0  0  0  0  0  2  0  0  0  0  0  0
  -21.2950    0.3480  -32.8080 C   0  0  0  0  0  0  0  0  0  0  0  0
  -22.5850    0.4670  -32.9390 O   0  0  0  0  0  0  0  0  0  0  0  0
  -20.7960   -0.5560  -31.8310 C   0  0  0  0  0  0  0  0  0  0  0  0
  -20.4820   -1.8790  -32.1130 N   0  0  0  0  0  0  0  0  0  0  0  0
  -20.1110   -2.4810  -31.0300 N   0  0  0  0  0  0  0  0  0  0  0  0
  -20.5490   -2.4980  -33.4150 C   0  0  0  0  0  1  0  0  0  0  0  0
  -20.1440   -1.6610  -29.9840 C   0  0  0  0  0  0  0  0  0  0  0  0
  -20.5860   -0.4260  -30.5030 C   0  0  0  0  0  3  0  0  0  0  0  0
  -19.7930   -1.9120  -28.5980 C   0  0  0  0  0  0  0  0  0  0  0  0
  -20.4580   -2.8320  -28.0010 O   0  0  0  0  0  0  0  0  0  0  0  0
  -18.8110   -1.2450  -27.8820 N   0  0  0  0  0  0  0  0  0  0  0  0
  -18.5760   -1.6500  -26.4920 C   0  0  0  0  0  2  0  0  0  0  0  0
  -18.0180   -0.1700  -28.3900 C   0  0  0  0  0  2  0  0  0  0  0  0
  -18.6730   -0.3810  -25.6710 C   0  0  0  0  0  2  0  0  0  0  0  0
  -17.5750    0.4030  -26.0690 O   0  0  0  0  0  0  0  0  0  0  0  0
  -17.7840    0.8950  -27.3270 C   0  0  0  0  0  2  0  0  0  0  0  0
  -20.8040    0.4760  -38.1070 C   0  0  0  0  0  0  0  0  0  0  0  0
  -22.0910   -0.0530  -37.9670 C   0  0  0  0  0  0  0  0  0  0  0  0
  -22.7400   -0.9060  -36.3700 Br  0  0  0  0  0  0  0  0  0  0  0  0
  -22.7770    0.1420  -39.1350 C   0  0  0  0  0  3  0  0  0  0  0  0
  -21.9500    0.7710  -39.9770 N   0  0  0  0  0  0  0  0  0  0  0  0
  -20.8030    0.9650  -39.3820 N   0  0  0  0  0  0  0  0  0  0  0  0
  -22.3570    1.1320  -41.3290 C   0  0  0  0  0  2  0  0  0  0  0  0
  -23.1070    2.4360  -41.3870 C   0  0  0  0  0  1  0  0  0  0  0  0
  1  3  1  0  0  0  0
  2  1  2  0  0  0  0
  3  4  1  0  0  0  0
  3  8  1  0  0  0  0
  4  5  1  0  0  0  0
  5  6  1  0  0  0  0
  6  9  1  0  0  0  0
  7  6  1  0  0  0  0
  8  7  1  0  0  0  0
  9 11  1  0  0  0  0
 10  9  2  0  0  0  0
 11 16  2  0  0  0  0
 12 11  1  0  0  0  0
 12 13  1  0  0  0  0
 13 15  2  0  0  0  0
 14 12  1  0  0  0  0
 15 17  1  0  0  0  0
 16 15  1  0  0  0  0
 17 18  2  0  0  0  0
 17 19  1  0  0  0  0
 19 20  1  0  0  0  0
 20 22  1  0  0  0  0
 21 19  1  0  0  0  0
 21 24  1  0  0  0  0
 23 22  1  0  0  0  0
 24 23  1  0  0  0  0
 25 26  1  0  0  0  0
 25  1  1  0  0  0  0
 26 27  1  0  0  0  0
 28 26  2  0  0  0  0
 29 30  1  0  0  0  0
 29 28  1  0  0  0  0
 30 25  2  0  0  0  0
 31 29  1  0  0  0  0
 32 31  1  0  0  0  0
M  END
>  <Pose>
1

>  <Score>
-8.489

$$$$
