/Users/jonathanwahrer/Desktop/Msc/3_Semester/Drug_Design_Praktikum/waehrer_HTS_screening/HTS_experiment/out/docking_results/vina_output/5l4q/0653_docked.pdbqt
 OpenBabel03212218113D

 29 32  0  0  0  0  0  0  0  0999 V2000
  -19.6520   -1.4020  -30.7470 C   0  0  0  0  0  0  0  0  0  0  0  0
  -20.3140   -2.5380  -31.1380 C   0  0  0  0  0  0  0  0  0  0  0  0
  -20.6800   -3.5070  -30.2220 C   0  0  0  0  0  0  0  0  0  0  0  0
  -20.3890   -3.3620  -28.8840 C   0  0  0  0  0  0  0  0  0  0  0  0
  -19.7080   -2.2020  -28.4680 C   0  0  0  0  0  0  0  0  0  0  0  0
  -19.3470   -1.2420  -29.3760 C   0  0  0  0  0  0  0  0  0  0  0  0
  -18.6480   -0.0340  -28.9300 C   0  0  0  0  0  2  0  0  0  0  0  0
  -17.9400   -0.0930  -27.6350 C   0  0  0  0  0  2  0  0  0  0  0  0
  -18.5920   -0.9370  -26.6420 N   0  0  0  0  0  0  0  0  0  0  0  0
  -19.3380   -2.0720  -27.0630 C   0  0  0  0  0  0  0  0  0  0  0  0
  -19.6660   -2.9470  -26.2060 O   0  0  0  0  0  0  0  0  0  0  0  0
  -18.4180   -0.5680  -25.2560 C   0  0  0  0  0  1  0  0  0  0  0  0
  -21.3220   -4.5000  -30.9370 O   0  0  0  0  0  0  0  0  0  0  0  0
  -21.5330   -4.0940  -32.2650 C   0  0  0  0  0  2  0  0  0  0  0  0
  -20.7280   -2.9300  -32.4320 O   0  0  0  0  0  0  0  0  0  0  0  0
  -19.2100   -0.3690  -31.7080 C   0  0  0  0  0  2  0  0  0  0  0  0
  -20.2930    0.1810  -32.5020 N   0  0  0  0  0  0  0  0  0  0  0  0
  -20.2460    0.8050  -33.7300 C   0  0  0  0  0  0  0  0  0  0  0  0
  -19.1480    0.9810  -34.3490 O   0  0  0  0  0  0  0  0  0  0  0  0
  -21.2490    0.0620  -32.0390 H   0  0  0  0  0  0  0  0  0  0  0  0
  -21.4860    1.3030  -34.3860 C   0  0  0  0  0  2  0  0  0  0  0  0
  -22.0780    0.1550  -35.0990 N   0  0  0  0  0  0  0  0  0  0  0  0
  -22.4210    0.0920  -36.3820 C   0  0  0  0  0  3  0  0  0  0  0  0
  -22.9310   -1.1620  -36.6270 C   0  0  0  0  0  0  0  0  0  0  0  0
  -23.5970   -1.8490  -38.2800 Br  0  0  0  0  0  0  0  0  0  0  0  0
  -22.8920   -1.8690  -35.4480 C   0  0  0  0  0  3  0  0  0  0  0  0
  -22.3640   -1.0230  -34.5510 N   0  0  0  0  0  0  0  0  0  0  0  0
  -20.7410   -4.3100  -27.9390 O   0  0  0  0  0  0  0  0  0  0  0  0
  -20.2860   -5.6430  -28.0350 C   0  0  0  0  0  1  0  0  0  0  0  0
  1  6  1  0  0  0  0
  2  1  2  0  0  0  0
  2  3  1  0  0  0  0
  3  4  2  0  0  0  0
  4  5  1  0  0  0  0
  4 28  1  0  0  0  0
  5 10  1  0  0  0  0
  6  7  1  0  0  0  0
  6  5  2  0  0  0  0
  7  8  1  0  0  0  0
  8  9  1  0  0  0  0
  9 12  1  0  0  0  0
 10  9  1  0  0  0  0
 10 11  2  0  0  0  0
 13  3  1  0  0  0  0
 14 13  1  0  0  0  0
 15 14  1  0  0  0  0
 15  2  1  0  0  0  0
 16  1  1  0  0  0  0
 17 20  1  0  0  0  0
 17 16  1  0  0  0  0
 18 17  1  0  0  0  0
 19 18  2  0  0  0  0
 21 18  1  0  0  0  0
 22 27  1  0  0  0  0
 22 21  1  0  0  0  0
 23 22  1  0  0  0  0
 24 23  2  0  0  0  0
 24 26  1  0  0  0  0
 25 24  1  0  0  0  0
 26 27  2  0  0  0  0
 29 28  1  0  0  0  0
M  END
>  <Pose>
1

>  <Score>
-8.401

$$$$
