/Users/jonathanwahrer/Desktop/Msc/3_Semester/Drug_Design_Praktikum/waehrer_HTS_screening/HTS_experiment/out/docking_results/vina_output/5l4q/0663_docked.pdbqt
 OpenBabel03212218113D

 28 31  0  0  1  0  0  0  0  0999 V2000
  -21.6690    1.3320  -35.2180 C   0  0  0  0  0  0  0  0  0  0  0  0
  -22.5850    2.1800  -34.8740 O   0  0  0  0  0  0  0  0  0  0  0  0
  -21.0160    1.6040  -36.4080 N   0  0  0  0  0  0  0  0  0  0  0  0
  -19.9300    0.9350  -37.0720 C   0  0  0  0  0  2  0  0  0  0  0  0
  -20.5360    0.0850  -38.1720 C   0  0  0  0  0  2  0  0  0  0  0  0
  -21.7020    0.8080  -38.8160 C   0  0  1  0  0  0  0  0  0  0  0  0
  -21.6460    0.5330  -40.2350 N   0  0  0  0  0  0  0  0  0  0  0  0
  -22.3060   -0.7020  -40.4660 C   0  0  0  0  0  0  0  0  0  0  0  0
  -22.1940   -1.4770  -41.4710 O   0  0  0  0  0  0  0  0  0  0  0  0
  -23.1540   -0.9330  -39.3290 N   0  0  0  0  0  0  0  0  0  0  0  0
  -22.9810    0.1820  -38.4300 C   0  0  0  0  0  0  0  0  0  0  0  0
  -23.7910    0.4940  -37.5310 O   0  0  0  0  0  0  0  0  0  0  0  0
  -21.6680    2.2900  -38.6190 C   0  0  0  0  0  2  0  0  0  0  0  0
  -21.5200    2.7610  -37.2120 C   0  0  0  0  0  2  0  0  0  0  0  0
  -21.2120    1.1050  -40.9850 H   0  0  0  0  0  0  0  0  0  0  0  0
  -23.7930   -1.7360  -39.1380 H   0  0  0  0  0  0  0  0  0  0  0  0
  -21.4910    0.2400  -34.2880 C   0  0  0  0  0  0  0  0  0  0  0  0
  -21.9470   -1.0480  -34.6400 C   0  0  0  0  0  3  0  0  0  0  0  0
  -21.7810   -2.1390  -33.8310 C   0  0  0  0  0  3  0  0  0  0  0  0
  -21.1510   -2.0520  -32.6130 C   0  0  0  0  0  0  0  0  0  0  0  0
  -20.6980   -0.8130  -32.2470 C   0  0  0  0  0  3  0  0  0  0  0  0
  -20.8610    0.3130  -33.0680 C   0  0  0  0  0  3  0  0  0  0  0  0
  -20.9920   -3.2010  -31.7940 N   0  0  0  0  0  0  0  0  0  0  0  0
  -20.7050   -3.2640  -30.4820 C   0  0  0  0  0  3  0  0  0  0  0  0
  -20.6430   -4.5830  -30.0900 C   0  0  0  0  0  0  0  0  0  0  0  0
  -20.2680   -5.2620  -28.3270 Br  0  0  0  0  0  0  0  0  0  0  0  0
  -20.9050   -5.3150  -31.2260 C   0  0  0  0  0  3  0  0  0  0  0  0
  -21.1060   -4.4440  -32.2130 N   0  0  0  0  0  0  0  0  0  0  0  0
  1  2  2  0  0  0  0
  1 17  1  0  0  0  0
  3  1  1  0  0  0  0
  4  3  1  0  0  0  0
  5  4  1  0  0  0  0
  6 13  1  1  0  0  0
  6 11  1  0  0  0  0
  6  5  1  0  0  0  0
  7  6  1  0  0  0  0
  8  7  1  0  0  0  0
  8 10  1  0  0  0  0
  9  8  2  0  0  0  0
 10 16  1  0  0  0  0
 10 11  1  0  0  0  0
 11 12  2  0  0  0  0
 13 14  1  0  0  0  0
 14  3  1  0  0  0  0
 15  7  1  0  0  0  0
 17 22  1  0  0  0  0
 18 17  2  0  0  0  0
 18 19  1  0  0  0  0
 19 20  2  0  0  0  0
 20 21  1  0  0  0  0
 20 23  1  0  0  0  0
 22 21  2  0  0  0  0
 23 24  1  0  0  0  0
 24 25  2  0  0  0  0
 25 26  1  0  0  0  0
 27 25  1  0  0  0  0
 28 23  1  0  0  0  0
 28 27  2  0  0  0  0
M  END
>  <Pose>
1

>  <Score>
-8.356

$$$$
