/Users/jonathanwahrer/Desktop/Msc/3_Semester/Drug_Design_Praktikum/waehrer_HTS_screening/HTS_experiment/out/docking_results/vina_output/5l4q/0666_docked.pdbqt
 OpenBabel03212218113D

 28 31  0  0  0  0  0  0  0  0999 V2000
  -19.9730   -0.8520  -33.7260 C   0  0  0  0  0  0  0  0  0  0  0  0
  -19.7280    0.2700  -33.1180 C   0  0  0  0  0  0  0  0  0  0  0  0
  -19.7220   -0.0240  -31.6840 C   0  0  0  0  0  0  0  0  0  0  0  0
  -19.5150    0.8480  -30.7830 O   0  0  0  0  0  0  0  0  0  0  0  0
  -19.9810   -1.4140  -31.4420 N   0  0  0  0  0  0  0  0  0  0  0  0
  -20.1430   -1.9570  -32.7510 C   0  0  0  0  0  0  0  0  0  0  0  0
  -20.3870   -3.1610  -33.0280 O   0  0  0  0  0  0  0  0  0  0  0  0
  -20.0840   -1.1070  -35.1130 N   0  0  0  0  0  0  0  0  0  0  0  0
  -19.3320   -1.5740  -35.6200 H   0  0  0  0  0  0  0  0  0  0  0  0
  -21.2630   -0.6940  -35.7750 C   0  0  0  0  0  0  0  0  0  0  0  0
  -21.2320    0.2410  -36.7620 N   0  0  0  0  0  0  0  0  0  0  0  0
  -22.3200    0.6770  -37.4070 C   0  0  0  0  0  3  0  0  0  0  0  0
  -23.5630    0.1910  -37.1000 C   0  0  0  0  0  0  0  0  0  0  0  0
  -25.1390    0.7990  -37.9950 Br  0  0  0  0  0  0  0  0  0  0  0  0
  -23.6690   -0.7600  -36.1110 C   0  0  0  0  0  3  0  0  0  0  0  0
  -22.5380   -1.1860  -35.4710 C   0  0  0  0  0  3  0  0  0  0  0  0
  -19.4920    1.5600  -33.6860 N   0  0  0  0  0  0  0  0  0  0  0  0
  -18.2320    1.9710  -33.9180 C   0  0  0  0  0  2  0  0  0  0  0  0
  -17.9650    3.2370  -34.4680 C   0  0  0  0  0  3  0  0  0  0  0  0
  -19.0110    4.0860  -34.7800 C   0  0  0  0  0  3  0  0  0  0  0  0
  -20.2920    3.6420  -34.5340 C   0  0  0  0  0  3  0  0  0  0  0  0
  -20.5090    2.4000  -33.9970 C   0  0  0  0  0  3  0  0  0  0  0  0
  -20.0640   -2.0750  -30.1890 C   0  0  0  0  0  0  0  0  0  0  0  0
  -20.9160   -3.1210  -29.9410 C   0  0  0  0  0  3  0  0  0  0  0  0
  -20.9590   -3.7650  -28.6870 C   0  0  0  0  0  3  0  0  0  0  0  0
  -20.1350   -3.3550  -27.6640 C   0  0  0  0  0  3  0  0  0  0  0  0
  -19.2810   -2.3090  -27.9070 C   0  0  0  0  0  3  0  0  0  0  0  0
  -19.2520   -1.6830  -29.1540 C   0  0  0  0  0  3  0  0  0  0  0  0
  1  2  2  0  0  0  0
  1  6  1  0  0  0  0
  2  3  1  0  0  0  0
  3  5  1  0  0  0  0
  3  4  2  0  0  0  0
  5 23  1  0  0  0  0
  6  5  1  0  0  0  0
  7  6  2  0  0  0  0
  8  1  1  0  0  0  0
  9  8  1  0  0  0  0
 10 16  1  0  0  0  0
 10  8  1  0  0  0  0
 11 10  2  0  0  0  0
 12 13  2  0  0  0  0
 12 11  1  0  0  0  0
 13 15  1  0  0  0  0
 14 13  1  0  0  0  0
 15 16  2  0  0  0  0
 17  2  1  0  0  0  0
 18 17  1  0  0  0  0
 19 18  1  0  0  0  0
 20 21  1  0  0  0  0
 20 19  2  0  0  0  0
 21 22  2  0  0  0  0
 22 17  1  0  0  0  0
 23 24  2  0  0  0  0
 23 28  1  0  0  0  0
 24 25  1  0  0  0  0
 25 26  2  0  0  0  0
 27 26  1  0  0  0  0
 28 27  2  0  0  0  0
M  END
>  <Pose>
1

>  <Score>
-8.345

$$$$
