/Users/jonathanwahrer/Desktop/Msc/3_Semester/Drug_Design_Praktikum/waehrer_HTS_screening/HTS_experiment/out/docking_results/vina_output/5l4q/0670_docked.pdbqt
 OpenBabel03212218123D

 23 27  0  0  1  0  0  0  0  0999 V2000
  -20.7100   -3.0470  -29.5130 C   0  0  0  0  0  2  0  0  0  0  0  0
  -20.0190   -2.1120  -30.4550 C   0  0  1  0  0  3  0  0  0  0  0  0
  -20.3540   -2.2880  -31.9230 C   0  0  2  0  0  3  0  0  0  0  0  0
  -20.1730   -0.8680  -32.0190 N   0  0  0  0  0  0  0  0  0  0  0  0
  -20.7440   -0.7940  -30.7040 C   0  0  2  0  0  3  0  0  0  0  0  0
  -19.6690    0.0240  -32.9710 C   0  0  0  0  0  0  0  0  0  0  0  0
  -18.4330    0.5650  -32.9190 N   0  0  0  0  0  0  0  0  0  0  0  0
  -17.9350    1.4110  -33.8110 C   0  0  0  0  0  3  0  0  0  0  0  0
  -18.7030    1.7920  -34.8880 C   0  0  0  0  0  0  0  0  0  0  0  0
  -18.0130    3.0110  -36.1900 Br  0  0  0  0  0  0  0  0  0  0  0  0
  -19.9720    1.2600  -34.9770 C   0  0  0  0  0  3  0  0  0  0  0  0
  -20.4260    0.4050  -34.0430 N   0  0  0  0  0  0  0  0  0  0  0  0
  -20.1060   -2.8960  -28.2160 N   0  0  0  0  0  0  0  0  0  0  0  0
  -19.6660   -1.6450  -27.7840 N   0  0  0  0  0  0  0  0  0  0  0  0
  -19.0640   -1.4470  -26.5120 C   0  0  0  0  0  0  0  0  0  0  0  0
  -19.8000   -0.8330  -28.4540 H   0  0  0  0  0  0  0  0  0  0  0  0
  -18.6650   -0.2420  -26.1530 C   0  0  0  0  0  0  0  0  0  0  0  0
  -18.8850   -2.5640  -25.6060 C   0  0  0  0  0  3  0  0  0  0  0  0
  -18.4470    1.2100  -26.3120 C   0  0  0  0  0  2  0  0  0  0  0  0
  -18.0190    0.5930  -25.0660 C   0  0  0  0  0  2  0  0  0  0  0  0
  -19.2940   -3.7610  -25.9940 C   0  0  0  0  0  3  0  0  0  0  0  0
  -19.9220   -3.9770  -27.3140 C   0  0  0  0  0  0  0  0  0  0  0  0
  -20.3030   -5.1270  -27.6600 O   0  0  0  0  0  0  0  0  0  0  0  0
  1 13  1  0  0  0  0
  2  1  1  1  0  0  0
  3  4  1  6  0  0  0
  3  5  1  0  0  0  0
  3  2  1  0  0  0  0
  5  4  1  6  0  0  0
  5  2  1  0  0  0  0
  6  7  2  0  0  0  0
  6  4  1  0  0  0  0
  8  7  1  0  0  0  0
  9  8  2  0  0  0  0
 10  9  1  0  0  0  0
 11  9  1  0  0  0  0
 11 12  2  0  0  0  0
 12  6  1  0  0  0  0
 13 14  1  0  0  0  0
 13 22  1  0  0  0  0
 14 15  1  0  0  0  0
 15 17  2  0  0  0  0
 15 18  1  0  0  0  0
 16 14  1  0  0  0  0
 17 20  1  0  0  0  0
 19 17  1  0  0  0  0
 19 20  1  0  0  0  0
 21 18  2  0  0  0  0
 22 21  1  0  0  0  0
 23 22  2  0  0  0  0
M  END
>  <Pose>
1

>  <Score>
-8.050

$$$$
