/Users/jonathanwahrer/Desktop/Msc/3_Semester/Drug_Design_Praktikum/waehrer_HTS_screening/HTS_experiment/out/docking_results/vina_output/5l4q/0677_docked.pdbqt
 OpenBabel03212218123D

 29 32  0  0  0  0  0  0  0  0999 V2000
  -19.4880   -1.3580  -29.6320 C   0  0  0  0  0  0  0  0  0  0  0  0
  -20.0190   -2.6800  -29.8470 C   0  0  0  0  0  0  0  0  0  0  0  0
  -20.0520   -3.5640  -28.8310 C   0  0  0  0  0  0  0  0  0  0  0  0
  -19.5750   -3.2200  -27.5530 C   0  0  0  0  0  0  0  0  0  0  0  0
  -19.0630   -1.9650  -27.3310 C   0  0  0  0  0  0  0  0  0  0  0  0
  -19.0210   -1.0360  -28.3830 C   0  0  0  0  0  0  0  0  0  0  0  0
  -18.3860    0.2920  -28.1860 C   0  0  0  0  0  2  0  0  0  0  0  0
  -17.4720    0.3580  -26.9670 C   0  0  0  0  0  2  0  0  0  0  0  0
  -18.0910   -0.2310  -25.8030 N   0  0  0  0  0  0  0  0  0  0  0  0
  -18.5900   -1.5600  -26.0110 C   0  0  0  0  0  0  0  0  0  0  0  0
  -18.5910   -2.3160  -25.0180 O   0  0  0  0  0  0  0  0  0  0  0  0
  -18.1990    0.4620  -24.5370 C   0  0  0  0  0  1  0  0  0  0  0  0
  -20.6120   -4.7490  -29.3320 O   0  0  0  0  0  0  0  0  0  0  0  0
  -21.1650   -4.5150  -30.6100 C   0  0  0  0  0  2  0  0  0  0  0  0
  -20.5550   -3.2950  -30.9820 O   0  0  0  0  0  0  0  0  0  0  0  0
  -19.5540   -0.5620  -30.8390 C   0  0  0  0  0  2  0  0  0  0  0  0
  -20.7170   -0.2430  -31.5440 N   0  0  0  0  0  0  0  0  0  0  0  0
  -20.6880   -0.5430  -32.9900 C   0  0  0  0  0  0  0  0  0  0  0  0
  -19.6590   -1.0480  -33.4690 O   0  0  0  0  0  0  0  0  0  0  0  0
  -21.6330    0.1340  -31.2590 H   0  0  0  0  0  0  0  0  0  0  0  0
  -21.8300   -0.2570  -33.8260 C   0  0  0  0  0  0  0  0  0  0  0  0
  -22.6560    0.7990  -33.4580 C   0  0  0  0  0  3  0  0  0  0  0  0
  -23.7390    1.1260  -34.1770 N   0  0  0  0  0  0  0  0  0  0  0  0
  -24.0390    0.4290  -35.2720 C   0  0  0  0  0  3  0  0  0  0  0  0
  -23.2670   -0.6130  -35.6780 C   0  0  0  0  0  0  0  0  0  0  0  0
  -23.7150   -1.5990  -37.2510 Br  0  0  0  0  0  0  0  0  0  0  0  0
  -22.1330   -0.9820  -34.9550 C   0  0  0  0  0  3  0  0  0  0  0  0
  -19.6430   -4.1580  -26.5920 O   0  0  0  0  0  0  0  0  0  0  0  0
  -20.3920   -4.5580  -26.1400 H   0  0  0  0  0  0  0  0  0  0  0  0
  1  6  1  0  0  0  0
  2  1  2  0  0  0  0
  2  3  1  0  0  0  0
  3  4  2  0  0  0  0
  4  5  1  0  0  0  0
  4 28  1  0  0  0  0
  5 10  1  0  0  0  0
  6  7  1  0  0  0  0
  6  5  2  0  0  0  0
  7  8  1  0  0  0  0
  8  9  1  0  0  0  0
  9 12  1  0  0  0  0
 10  9  1  0  0  0  0
 10 11  2  0  0  0  0
 13  3  1  0  0  0  0
 14 13  1  0  0  0  0
 15 14  1  0  0  0  0
 15  2  1  0  0  0  0
 16  1  1  0  0  0  0
 17 20  1  0  0  0  0
 17 16  1  0  0  0  0
 18 17  1  0  0  0  0
 19 18  2  0  0  0  0
 21 22  1  0  0  0  0
 21 18  1  0  0  0  0
 23 22  2  0  0  0  0
 24 23  1  0  0  0  0
 25 24  2  0  0  0  0
 25 27  1  0  0  0  0
 26 25  1  0  0  0  0
 27 21  2  0  0  0  0
 28 29  1  0  0  0  0
M  END
>  <Pose>
1

>  <Score>
-9.496

$$$$
