/Users/jonathanwahrer/Desktop/Msc/3_Semester/Drug_Design_Praktikum/waehrer_HTS_screening/HTS_experiment/out/docking_results/vina_output/5l4q/0683_docked.pdbqt
 OpenBabel03212218123D

 10 10  0  0  0  0  0  0  0  0999 V2000
  -20.7010   -3.7290  -28.6820 Br  0  0  0  0  0  0  0  0  0  0  0  0
  -19.7810   -2.7680  -27.3420 C   0  0  0  0  0  0  0  0  0  0  0  0
  -19.4330   -3.4000  -26.1590 C   0  0  0  0  0  3  0  0  0  0  0  0
  -18.7800   -2.6750  -25.2380 N   0  0  0  0  0  0  0  0  0  0  0  0
  -18.4480   -1.3850  -25.3960 C   0  0  0  0  0  3  0  0  0  0  0  0
  -18.7980   -0.7660  -26.5700 C   0  0  0  0  0  0  0  0  0  0  0  0
  -19.4730   -1.4440  -27.5720 C   0  0  0  0  0  3  0  0  0  0  0  0
  -18.4550    0.6320  -26.7790 C   0  0  0  0  0  0  0  0  0  0  0  0
  -18.4720    1.4480  -25.8140 O   0  0  0  0  0  1  0  0  0  0  0  0
  -18.1050    1.1090  -28.0290 O   0  0  0  0  0  0  0  0  0  0  0  0
  1  2  1  0  0  0  0
  2  3  1  0  0  0  0
  3  4  2  0  0  0  0
  5  4  1  0  0  0  0
  6  5  2  0  0  0  0
  7  2  2  0  0  0  0
  7  6  1  0  0  0  0
  8  6  1  0  0  0  0
  8  9  1  0  0  0  0
 10  8  2  0  0  0  0
M  END
>  <Pose>
1

>  <Score>
-5.088

$$$$
