/Users/jonathanwahrer/Desktop/Msc/3_Semester/Drug_Design_Praktikum/waehrer_HTS_screening/HTS_experiment/out/docking_results/vina_output/5l4q/0692_docked.pdbqt
 OpenBabel03212218123D

 29 32  0  0  0  0  0  0  0  0999 V2000
  -18.2100    4.6390  -37.5240 Br  0  0  0  0  0  0  0  0  0  0  0  0
  -19.4130    4.2990  -36.0940 C   0  0  0  0  0  0  0  0  0  0  0  0
  -19.9750    3.0430  -35.9620 C   0  0  0  0  0  0  0  0  0  0  0  0
  -20.8710    2.7270  -34.9300 C   0  0  0  0  0  0  0  0  0  0  0  0
  -21.2050    3.6950  -34.0150 C   0  0  0  0  0  3  0  0  0  0  0  0
  -20.6460    4.9520  -34.1420 C   0  0  0  0  0  0  0  0  0  0  0  0
  -19.7670    5.2640  -35.1550 C   0  0  0  0  0  3  0  0  0  0  0  0
  -21.0870    6.3180  -32.8920 Br  0  0  0  0  0  0  0  0  0  0  0  0
  -21.4480    1.3910  -34.8400 C   0  0  0  0  0  0  0  0  0  0  0  0
  -22.5340    1.3030  -34.2040 O   0  0  0  0  0  0  0  0  0  0  0  0
  -20.8180    0.2230  -35.4450 C   0  0  0  0  0  0  0  0  0  0  0  0
  -19.6040    0.6960  -36.2870 C   0  0  0  0  0  2  0  0  0  0  0  0
  -19.7340    1.9710  -36.8020 O   0  0  0  0  0  0  0  0  0  0  0  0
  -20.2560   -0.7870  -34.5530 C   0  0  0  0  0  2  0  0  0  0  0  0
  -20.3820   -0.8400  -33.1710 N   0  0  0  0  0  4  0  0  0  0  0  0
  -19.2990   -0.4590  -32.3200 C   0  0  0  0  0  2  0  0  0  0  0  0
  -19.9390   -0.0440  -30.9710 C   0  0  0  0  0  2  0  0  0  0  0  0
  -20.3780   -1.3420  -30.3260 C   0  0  0  0  0  2  0  0  0  0  0  0
  -20.4550   -2.4700  -31.3310 C   0  0  0  0  0  2  0  0  0  0  0  0
  -21.0590   -2.0160  -32.6430 C   0  0  0  0  0  2  0  0  0  0  0  0
  -21.1080   -0.0600  -32.9570 H   0  0  0  0  0  0  0  0  0  0  0  0
  -21.8310   -0.4210  -36.3790 C   0  0  0  0  0  2  0  0  0  0  0  0
  -22.5770    0.5420  -37.1500 N   0  0  0  0  0  4  0  0  0  0  0  0
  -23.9760    0.1390  -37.1320 C   0  0  0  0  0  2  0  0  0  0  0  0
  -24.0820   -1.2750  -37.5970 C   0  0  0  0  0  2  0  0  0  0  0  0
  -23.4450   -1.5600  -38.9070 C   0  0  0  0  0  2  0  0  0  0  0  0
  -22.1990   -0.7960  -39.1950 C   0  0  0  0  0  2  0  0  0  0  0  0
  -22.2320    0.5760  -38.5590 C   0  0  0  0  0  2  0  0  0  0  0  0
  -22.4450    1.5050  -36.7920 H   0  0  0  0  0  0  0  0  0  0  0  0
  1  2  1  0  0  0  0
  2  3  2  0  0  0  0
  2  7  1  0  0  0  0
  3  4  1  0  0  0  0
  4  9  1  0  0  0  0
  4  5  2  0  0  0  0
  6  5  1  0  0  0  0
  6  8  1  0  0  0  0
  7  6  2  0  0  0  0
  9 10  2  0  0  0  0
 11  9  1  0  0  0  0
 11 14  1  0  0  0  0
 12 11  1  0  0  0  0
 13 12  1  0  0  0  0
 13  3  1  0  0  0  0
 14 15  1  0  0  0  0
 15 21  1  0  0  0  0
 15 20  1  0  0  0  0
 15 16  1  0  0  0  0
 16 17  1  0  0  0  0
 17 18  1  0  0  0  0
 19 18  1  0  0  0  0
 20 19  1  0  0  0  0
 22 11  1  0  0  0  0
 23 24  1  0  0  0  0
 23 29  1  0  0  0  0
 23 22  1  0  0  0  0
 25 24  1  0  0  0  0
 26 25  1  0  0  0  0
 27 26  1  0  0  0  0
 27 28  1  0  0  0  0
 28 23  1  0  0  0  0
M  END
>  <Pose>
1

>  <Score>
-6.518

$$$$
