/Users/jonathanwahrer/Desktop/Msc/3_Semester/Drug_Design_Praktikum/waehrer_HTS_screening/HTS_experiment/out/docking_results/vina_output/5l4q/0693_docked.pdbqt
 OpenBabel03212218123D

 33 36  0  0  0  0  0  0  0  0999 V2000
  -20.8270    1.6870  -35.2450 N   0  0  0  0  0  0  0  0  0  0  0  0
  -19.6680    1.9810  -35.9980 C   0  0  0  0  0  0  0  0  0  0  0  0
  -18.5340    1.7530  -35.5290 O   0  0  0  0  0  0  0  0  0  0  0  0
  -21.8030    1.8510  -35.5720 H   0  0  0  0  0  0  0  0  0  0  0  0
  -19.7350    2.5710  -37.3720 C   0  0  0  0  0  2  0  0  0  0  0  0
  -20.8160    2.0200  -38.1420 N   0  0  0  0  0  0  0  0  0  0  0  0
  -20.6360    1.4590  -39.4350 C   0  0  0  0  0  0  0  0  0  0  0  0
  -19.4830    1.4460  -39.9210 O   0  0  0  0  0  0  0  0  0  0  0  0
  -21.7960    2.0090  -37.7730 H   0  0  0  0  0  0  0  0  0  0  0  0
  -21.7500    0.8850  -40.2480 C   0  0  0  0  0  0  0  0  0  0  0  0
  -22.8740    0.6060  -39.4690 O   0  0  0  0  0  0  0  0  0  0  0  0
  -23.3280   -0.6730  -39.1550 C   0  0  0  0  0  0  0  0  0  0  0  0
  -22.8800   -1.7020  -39.9400 C   0  0  0  0  0  0  0  0  0  0  0  0
  -24.1810   -0.9270  -38.1220 C   0  0  0  0  0  3  0  0  0  0  0  0
  -23.3190   -2.9940  -39.6500 C   0  0  0  0  0  3  0  0  0  0  0  0
  -22.0240   -1.4420  -40.9750 O   0  0  0  0  0  0  0  0  0  0  0  0
  -24.1800   -3.2660  -38.6110 C   0  0  0  0  0  3  0  0  0  0  0  0
  -24.6110   -2.2030  -37.8410 C   0  0  0  0  0  3  0  0  0  0  0  0
  -21.3060   -0.2470  -41.1080 C   0  0  0  0  0  3  0  0  0  0  0  0
  -20.6590    1.1400  -33.9690 N   0  0  0  0  0  0  0  0  0  0  0  0
  -20.8940   -0.0910  -33.7060 C   0  0  0  0  0  0  0  0  0  0  0  0
  -20.7780   -0.8230  -32.4540 C   0  0  0  0  0  0  0  0  0  0  0  0
  -21.3620   -1.0690  -34.6940 C   0  0  0  0  0  0  0  0  0  0  0  0
  -21.1360   -2.1500  -32.6170 C   0  0  0  0  0  0  0  0  0  0  0  0
  -20.3920   -0.4420  -31.1870 C   0  0  0  0  0  3  0  0  0  0  0  0
  -21.1120   -3.0520  -31.5730 C   0  0  0  0  0  0  0  0  0  0  0  0
  -21.4910   -2.2880  -33.9890 N   0  0  0  0  0  0  0  0  0  0  0  0
  -21.6140   -4.8830  -31.8150 Br  0  0  0  0  0  0  0  0  0  0  0  0
  -20.7170   -2.6380  -30.3020 C   0  0  0  0  0  3  0  0  0  0  0  0
  -20.3540   -1.3130  -30.1210 C   0  0  0  0  0  0  0  0  0  0  0  0
  -19.8090   -0.7200  -28.3880 Br  0  0  0  0  0  0  0  0  0  0  0  0
  -21.8050   -3.1760  -34.4160 H   0  0  0  0  0  0  0  0  0  0  0  0
  -21.5800   -0.7960  -35.9050 O   0  0  0  0  0  0  0  0  0  0  0  0
  1 20  1  0  0  0  0
  2  3  2  0  0  0  0
  2  1  1  0  0  0  0
  4  1  1  0  0  0  0
  5  2  1  0  0  0  0
  6  9  1  0  0  0  0
  6  5  1  0  0  0  0
  7  6  1  0  0  0  0
  8  7  2  0  0  0  0
 10 11  1  0  0  0  0
 10  7  1  0  0  0  0
 11 12  1  0  0  0  0
 12 14  1  0  0  0  0
 13 15  1  0  0  0  0
 13 12  2  0  0  0  0
 14 18  2  0  0  0  0
 15 17  2  0  0  0  0
 16 13  1  0  0  0  0
 17 18  1  0  0  0  0
 19 16  1  0  0  0  0
 19 10  2  0  0  0  0
 20 21  2  0  0  0  0
 21 22  1  0  0  0  0
 22 25  1  0  0  0  0
 23 27  1  0  0  0  0
 23 21  1  0  0  0  0
 24 22  2  0  0  0  0
 24 26  1  0  0  0  0
 25 30  2  0  0  0  0
 26 29  2  0  0  0  0
 27 24  1  0  0  0  0
 28 26  1  0  0  0  0
 29 30  1  0  0  0  0
 30 31  1  0  0  0  0
 32 27  1  0  0  0  0
 33 23  2  0  0  0  0
M  END
>  <Pose>
1

>  <Score>
-9.428

$$$$
