/Users/jonathanwahrer/Desktop/Msc/3_Semester/Drug_Design_Praktikum/waehrer_HTS_screening/HTS_experiment/out/docking_results/vina_output/5l4q/0695_docked.pdbqt
 OpenBabel03212218133D

 22 25  0  0  0  0  0  0  0  0999 V2000
  -19.7820   -0.2170  -30.8190 C   0  0  0  0  0  2  0  0  0  0  0  0
  -20.4470   -1.2970  -31.5910 C   0  0  0  0  0  0  0  0  0  0  0  0
  -20.4300   -2.6220  -31.2200 C   0  0  0  0  0  3  0  0  0  0  0  0
  -21.0620   -3.6190  -31.9660 C   0  0  0  0  0  0  0  0  0  0  0  0
  -21.7370   -3.3020  -33.1190 C   0  0  0  0  0  0  0  0  0  0  0  0
  -21.1860   -5.0000  -31.8050 O   0  0  0  0  0  0  0  0  0  0  0  0
  -21.7600   -1.9770  -33.5000 C   0  0  0  0  0  0  0  0  0  0  0  0
  -22.2600   -4.4900  -33.6450 O   0  0  0  0  0  0  0  0  0  0  0  0
  -22.7040   -1.5360  -35.1140 Br  0  0  0  0  0  0  0  0  0  0  0  0
  -21.1370   -0.9870  -32.7670 C   0  0  0  0  0  3  0  0  0  0  0  0
  -22.3440   -5.4100  -32.5480 C   0  0  0  0  0  2  0  0  0  0  0  0
  -20.3050   -0.1970  -29.4750 N   0  0  0  0  0  0  0  0  0  0  0  0
  -21.3210   -0.1940  -29.2820 H   0  0  0  0  0  0  0  0  0  0  0  0
  -19.3720   -0.1800  -28.3780 C   0  0  0  0  0  0  0  0  0  0  0  0
  -18.5470    0.8590  -28.1880 N   0  0  0  0  0  0  0  0  0  0  0  0
  -17.6790    0.8670  -27.1610 C   0  0  0  0  0  3  0  0  0  0  0  0
  -17.6080   -0.1960  -26.2660 C   0  0  0  0  0  3  0  0  0  0  0  0
  -18.4320   -1.2250  -26.4610 N   0  0  0  0  0  0  0  0  0  0  0  0
  -19.3100   -1.2370  -27.4980 C   0  0  0  0  0  0  0  0  0  0  0  0
  -18.6280   -2.3860  -25.8090 C   0  0  0  0  0  3  0  0  0  0  0  0
  -19.9980   -2.3890  -27.4370 N   0  0  0  0  0  0  0  0  0  0  0  0
  -19.5860   -3.1020  -26.4020 N   0  0  0  0  0  0  0  0  0  0  0  0
  1 12  1  0  0  0  0
  2  3  1  0  0  0  0
  2  1  1  0  0  0  0
  4  6  1  0  0  0  0
  4  3  2  0  0  0  0
  5  4  1  0  0  0  0
  7  5  2  0  0  0  0
  7 10  1  0  0  0  0
  8  5  1  0  0  0  0
  8 11  1  0  0  0  0
  9  7  1  0  0  0  0
 10  2  2  0  0  0  0
 11  6  1  0  0  0  0
 12 13  1  0  0  0  0
 12 14  1  0  0  0  0
 14 15  2  0  0  0  0
 14 19  1  0  0  0  0
 15 16  1  0  0  0  0
 16 17  2  0  0  0  0
 18 17  1  0  0  0  0
 18 20  1  0  0  0  0
 19 21  2  0  0  0  0
 19 18  1  0  0  0  0
 21 22  1  0  0  0  0
 22 20  2  0  0  0  0
M  END
>  <Pose>
1

>  <Score>
-7.740

$$$$
