/Users/jonathanwahrer/Desktop/Msc/3_Semester/Drug_Design_Praktikum/waehrer_HTS_screening/HTS_experiment/out/docking_results/vina_output/5l4q/0696_docked.pdbqt
 OpenBabel03212218133D

 28 31  0  0  1  0  0  0  0  0999 V2000
  -20.2020    0.3820  -28.7580 Br  0  0  0  0  0  0  0  0  0  0  0  0
  -20.3500   -1.2050  -29.7880 C   0  0  0  0  0  0  0  0  0  0  0  0
  -20.4540   -1.1090  -31.1820 C   0  0  0  0  0  0  0  0  0  0  0  0
  -20.5540   -2.2130  -31.9730 C   0  0  0  0  0  0  0  0  0  0  0  0
  -20.5540   -3.4590  -31.3730 C   0  0  0  0  0  3  0  0  0  0  0  0
  -20.4520   -3.5640  -29.9900 C   0  0  0  0  0  0  0  0  0  0  0  0
  -20.3500   -2.4480  -29.1940 C   0  0  0  0  0  3  0  0  0  0  0  0
  -20.4480   -4.8880  -29.3050 C   0  0  0  0  0  1  0  0  0  0  0  0
  -20.6210   -2.0870  -33.4550 C   0  0  1  0  0  3  0  0  0  0  0  0
  -21.2650   -0.8590  -33.9920 C   0  0  0  0  0  0  0  0  0  0  0  0
  -21.4560    0.2010  -32.8810 C   0  0  0  0  0  2  0  0  0  0  0  0
  -20.4670    0.0960  -31.8700 O   0  0  0  0  0  0  0  0  0  0  0  0
  -22.6850   -1.0970  -34.4700 C   0  0  0  0  0  2  0  0  0  0  0  0
  -22.9480   -0.6530  -35.8220 N   0  0  0  0  0  4  0  0  0  0  0  0
  -23.9810    0.3830  -35.8040 C   0  0  0  0  0  2  0  0  0  0  0  0
  -24.6300    0.3970  -37.1380 C   0  0  0  0  0  2  0  0  0  0  0  0
  -24.0860   -0.8120  -37.8210 C   0  0  0  0  0  2  0  0  0  0  0  0
  -23.6270   -1.6570  -36.6250 C   0  0  0  0  0  2  0  0  0  0  0  0
  -22.1220   -0.3540  -36.3600 H   0  0  0  0  0  0  0  0  0  0  0  0
  -20.4230   -0.1650  -34.9930 C   0  0  0  0  0  2  0  0  0  0  0  0
  -19.9910    1.1350  -35.0320 N   0  0  0  0  0  4  0  0  0  0  0  0
  -18.5110    1.1810  -35.0590 C   0  0  0  0  0  2  0  0  0  0  0  0
  -18.1400    2.3500  -35.8860 C   0  0  0  0  0  2  0  0  0  0  0  0
  -19.2870    2.6170  -36.7840 C   0  0  0  0  0  2  0  0  0  0  0  0
  -20.4640    1.9910  -36.0390 C   0  0  0  0  0  2  0  0  0  0  0  0
  -20.1450    1.6380  -34.0510 H   0  0  0  0  0  0  0  0  0  0  0  0
  -19.2560   -2.2230  -33.8330 O   0  0  0  0  0  0  0  0  0  0  0  0
  -19.0200   -3.1560  -33.9750 H   0  0  0  0  0  0  0  0  0  0  0  0
  2  7  1  0  0  0  0
  2  1  1  0  0  0  0
  3  2  2  0  0  0  0
  4  5  2  0  0  0  0
  4  3  1  0  0  0  0
  5  6  1  0  0  0  0
  6  8  1  0  0  0  0
  6  7  2  0  0  0  0
  9 27  1  6  0  0  0
  9  4  1  0  0  0  0
 10  9  1  0  0  0  0
 10 11  1  0  0  0  0
 11 12  1  0  0  0  0
 12  3  1  0  0  0  0
 13 10  1  0  0  0  0
 14 15  1  0  0  0  0
 14 13  1  0  0  0  0
 16 15  1  0  0  0  0
 17 16  1  0  0  0  0
 17 18  1  0  0  0  0
 18 14  1  0  0  0  0
 19 14  1  0  0  0  0
 20 10  1  0  0  0  0
 21 20  1  0  0  0  0
 21 26  1  0  0  0  0
 22 21  1  0  0  0  0
 23 22  1  0  0  0  0
 24 25  1  0  0  0  0
 24 23  1  0  0  0  0
 25 21  1  0  0  0  0
 28 27  1  0  0  0  0
M  END
>  <Pose>
1

>  <Score>
-7.545

$$$$
