/Users/jonathanwahrer/Desktop/Msc/3_Semester/Drug_Design_Praktikum/waehrer_HTS_screening/HTS_experiment/out/docking_results/vina_output/5l4q/0706_docked.pdbqt
 OpenBabel03212218133D

 30 33  0  0  0  0  0  0  0  0999 V2000
  -19.0620   -1.6380  -28.8180 C   0  0  0  0  0  3  0  0  0  0  0  0
  -19.8270   -2.2310  -29.8610 N   0  0  0  0  0  0  0  0  0  0  0  0
  -20.3970   -3.4470  -29.7540 C   0  0  0  0  0  0  0  0  0  0  0  0
  -20.3350   -4.6300  -28.2320 Br  0  0  0  0  0  0  0  0  0  0  0  0
  -21.0240   -3.6830  -30.9200 N   0  0  0  0  0  0  0  0  0  0  0  0
  -20.8590   -2.6460  -31.7520 C   0  0  0  0  0  0  0  0  0  0  0  0
  -20.0940   -1.7180  -31.0730 C   0  0  0  0  0  0  0  0  0  0  0  0
  -21.2570   -2.3630  -33.0090 N   0  0  0  0  0  0  0  0  0  0  0  0
  -19.7900   -0.5550  -31.7490 C   0  0  0  0  0  0  0  0  0  0  0  0
  -20.1930   -0.2820  -33.0030 N   0  0  0  0  0  0  0  0  0  0  0  0
  -19.0970    0.2960  -31.1550 O   0  0  0  0  0  0  0  0  0  0  0  0
  -20.9380   -1.2080  -33.6340 C   0  0  0  0  0  0  0  0  0  0  0  0
  -19.8620    0.9480  -33.6950 C   0  0  0  0  0  1  0  0  0  0  0  0
  -21.3320   -0.9810  -34.8170 O   0  0  0  0  0  0  0  0  0  0  0  0
  -22.0610   -3.3410  -33.7130 C   0  0  0  0  0  1  0  0  0  0  0  0
  -19.7500   -0.6540  -27.9440 C   0  0  0  0  0  3  0  0  0  0  0  0
  -19.0620   -0.2180  -26.7750 N   0  0  0  0  0  0  0  0  0  0  0  0
  -18.5460    1.0210  -26.5810 C   0  0  0  0  0  0  0  0  0  0  0  0
  -17.9490    1.0770  -25.3460 C   0  0  0  0  0  0  0  0  0  0  0  0
  -18.5030    2.1820  -27.3430 C   0  0  0  0  0  0  0  0  0  0  0  0
  -18.1230   -0.1460  -24.8160 N   0  0  0  0  0  0  0  0  0  0  0  0
  -17.3400    2.1930  -24.8620 N   0  0  0  0  0  0  0  0  0  0  0  0
  -18.7920   -0.9270  -25.6750 C   0  0  0  0  0  0  0  0  0  0  0  0
  -19.3040   -2.7690  -25.4270 Br  0  0  0  0  0  0  0  0  0  0  0  0
  -17.3410    3.2760  -25.6590 C   0  0  0  0  0  0  0  0  0  0  0  0
  -16.7170    2.2150  -23.5450 C   0  0  0  0  0  1  0  0  0  0  0  0
  -16.7800    4.3180  -25.2220 O   0  0  0  0  0  0  0  0  0  0  0  0
  -17.9100    3.2800  -26.8780 N   0  0  0  0  0  0  0  0  0  0  0  0
  -17.8830    4.4730  -27.6970 C   0  0  0  0  0  1  0  0  0  0  0  0
  -19.0540    2.1190  -28.4750 O   0  0  0  0  0  0  0  0  0  0  0  0
  1 16  2  0  0  0  0
  2  3  1  0  0  0  0
  2  1  1  0  0  0  0
  3  4  1  0  0  0  0
  5  3  2  0  0  0  0
  6  7  2  0  0  0  0
  6  5  1  0  0  0  0
  7  2  1  0  0  0  0
  8  6  1  0  0  0  0
  9 11  2  0  0  0  0
  9  7  1  0  0  0  0
 10  9  1  0  0  0  0
 12  8  1  0  0  0  0
 12 10  1  0  0  0  0
 13 10  1  0  0  0  0
 14 12  2  0  0  0  0
 15  8  1  0  0  0  0
 16 17  1  0  0  0  0
 17 18  1  0  0  0  0
 17 23  1  0  0  0  0
 18 19  2  0  0  0  0
 19 22  1  0  0  0  0
 19 21  1  0  0  0  0
 20 28  1  0  0  0  0
 20 18  1  0  0  0  0
 22 26  1  0  0  0  0
 23 24  1  0  0  0  0
 23 21  2  0  0  0  0
 25 27  2  0  0  0  0
 25 22  1  0  0  0  0
 28 25  1  0  0  0  0
 29 28  1  0  0  0  0
 30 20  2  0  0  0  0
M  END
>  <Pose>
1

>  <Score>
-9.445

$$$$
