/Users/jonathanwahrer/Desktop/Msc/3_Semester/Drug_Design_Praktikum/waehrer_HTS_screening/HTS_experiment/out/docking_results/vina_output/5l4q/0708_docked.pdbqt
 OpenBabel03142213543D

 31 34  0  0  0  0  0  0  0  0999 V2000
  -21.5350    0.0800  -33.2440 C   0  0  0  0  0  2  0  0  0  0  0  0
  -20.7350   -1.1890  -33.2630 C   0  0  0  0  0  2  0  0  0  0  0  0
  -20.6580   -1.8530  -31.9780 N   0  0  0  0  0  0  0  0  0  0  0  0
  -21.2570   -3.0460  -31.6780 C   0  0  0  0  0  0  0  0  0  0  0  0
  -22.2820   -4.0340  -32.9430 Br  0  0  0  0  0  0  0  0  0  0  0  0
  -21.0090   -3.3830  -30.4040 N   0  0  0  0  0  0  0  0  0  0  0  0
  -20.2460   -2.4230  -29.8390 C   0  0  0  0  0  0  0  0  0  0  0  0
  -20.0420   -1.4840  -30.8370 C   0  0  0  0  0  0  0  0  0  0  0  0
  -19.7560   -2.3180  -28.5920 N   0  0  0  0  0  0  0  0  0  0  0  0
  -19.2990   -0.3860  -30.5270 C   0  0  0  0  0  0  0  0  0  0  0  0
  -18.8040   -0.2830  -29.2620 N   0  0  0  0  0  0  0  0  0  0  0  0
  -19.0860    0.4930  -31.3870 O   0  0  0  0  0  0  0  0  0  0  0  0
  -19.0260   -1.2210  -28.3220 C   0  0  0  0  0  0  0  0  0  0  0  0
  -18.2410    0.5720  -29.0700 H   0  0  0  0  0  0  0  0  0  0  0  0
  -18.5370   -1.0760  -27.1520 O   0  0  0  0  0  0  0  0  0  0  0  0
  -19.9730   -3.3050  -27.5550 C   0  0  0  0  0  1  0  0  0  0  0  0
  -22.7970    0.0370  -34.0570 C   0  0  0  0  0  2  0  0  0  0  0  0
  -22.5160    0.4160  -35.4350 N   0  0  0  0  0  0  0  0  0  0  0  0
  -22.6060   -0.3440  -36.5500 C   0  0  0  0  0  0  0  0  0  0  0  0
  -22.2520    0.3910  -37.6580 C   0  0  0  0  0  0  0  0  0  0  0  0
  -22.9710   -1.6510  -36.7400 C   0  0  0  0  0  0  0  0  0  0  0  0
  -21.9440    1.6170  -37.1950 N   0  0  0  0  0  0  0  0  0  0  0  0
  -22.2460   -0.1020  -38.9100 N   0  0  0  0  0  0  0  0  0  0  0  0
  -22.1040    1.6230  -35.8540 C   0  0  0  0  0  0  0  0  0  0  0  0
  -21.8110    3.0960  -34.6750 Br  0  0  0  0  0  0  0  0  0  0  0  0
  -22.6150   -1.4000  -39.0510 C   0  0  0  0  0  0  0  0  0  0  0  0
  -21.8630    0.7170  -40.0570 C   0  0  0  0  0  1  0  0  0  0  0  0
  -22.6110   -1.8680  -40.2300 O   0  0  0  0  0  0  0  0  0  0  0  0
  -22.9690   -2.1560  -37.9910 N   0  0  0  0  0  0  0  0  0  0  0  0
  -23.2430   -3.1440  -38.1600 H   0  0  0  0  0  0  0  0  0  0  0  0
  -23.2950   -2.3270  -35.7340 O   0  0  0  0  0  0  0  0  0  0  0  0
  2  1  1  0  0  0  0
  2  3  1  0  0  0  0
  3  4  1  0  0  0  0
  3  8  1  0  0  0  0
  4  6  2  0  0  0  0
  5  4  1  0  0  0  0
  6  7  1  0  0  0  0
  7  9  1  0  0  0  0
  8 10  1  0  0  0  0
  8  7  2  0  0  0  0
  9 13  1  0  0  0  0
  9 16  1  0  0  0  0
 10 11  1  0  0  0  0
 11 14  1  0  0  0  0
 11 13  1  0  0  0  0
 12 10  2  0  0  0  0
 13 15  2  0  0  0  0
 17  1  1  0  0  0  0
 18 17  1  0  0  0  0
 19 18  1  0  0  0  0
 20 22  1  0  0  0  0
 20 19  2  0  0  0  0
 21 19  1  0  0  0  0
 21 31  2  0  0  0  0
 22 24  2  0  0  0  0
 23 20  1  0  0  0  0
 24 18  1  0  0  0  0
 24 25  1  0  0  0  0
 26 23  1  0  0  0  0
 26 29  1  0  0  0  0
 27 23  1  0  0  0  0
 28 26  2  0  0  0  0
 29 21  1  0  0  0  0
 30 29  1  0  0  0  0
M  END
>  <Pose>
1

>  <Score>
-9.000

$$$$
