/Users/jonathanwahrer/Desktop/Msc/3_Semester/Drug_Design_Praktikum/waehrer_HTS_screening/HTS_experiment/out/docking_results/vina_output/5l4q/0723_docked.pdbqt
 OpenBabel03212218143D

 23 26  0  0  1  0  0  0  0  0999 V2000
  -20.8900    0.7400  -38.1050 N   0  0  0  0  0  0  0  0  0  0  0  0
  -21.4090    2.0250  -37.7570 C   0  0  1  0  0  3  0  0  0  0  0  0
  -20.3610    3.0590  -37.6000 C   0  0  0  0  0  2  0  0  0  0  0  0
  -19.0590    2.6390  -37.5990 O   0  0  0  0  0  0  0  0  0  0  0  0
  -18.8830    1.4150  -36.9640 C   0  0  0  0  0  2  0  0  0  0  0  0
  -19.6030    0.3040  -37.6570 C   0  0  0  0  0  2  0  0  0  0  0  0
  -21.6370   -0.1910  -38.9030 C   0  0  0  0  0  0  0  0  0  0  0  0
  -21.3810   -0.2590  -40.2460 N   0  0  0  0  0  0  0  0  0  0  0  0
  -22.0120   -1.1490  -41.0310 C   0  0  0  0  0  3  0  0  0  0  0  0
  -22.9150   -2.0020  -40.5140 N   0  0  0  0  0  0  0  0  0  0  0  0
  -23.2170   -1.9940  -39.2120 C   0  0  0  0  0  0  0  0  0  0  0  0
  -24.0820   -2.7280  -38.4900 N   0  0  0  0  0  0  0  0  0  0  0  0
  -22.5590   -1.0640  -38.3970 C   0  0  0  0  0  0  0  0  0  0  0  0
  -23.9910   -2.2920  -37.2540 N   0  0  0  0  0  0  0  0  0  0  0  0
  -24.9500   -3.7920  -38.9590 C   0  0  0  0  0  1  0  0  0  0  0  0
  -23.0880   -1.2910  -37.1490 C   0  0  0  0  0  0  0  0  0  0  0  0
  -22.6290   -0.3120  -35.5830 Br  0  0  0  0  0  0  0  0  0  0  0  0
  -22.5130    2.4310  -38.6550 C   0  0  0  0  0  0  0  0  0  0  0  0
  -22.3910    3.1400  -39.7780 N   0  0  0  0  0  0  0  0  0  0  0  0
  -23.6500    3.2830  -40.2820 C   0  0  0  0  0  0  0  0  0  0  0  0
  -24.4760    2.6490  -39.4300 N   0  0  0  0  0  0  0  0  0  0  0  0
  -24.0460    3.9920  -41.5200 C   0  0  0  0  0  1  0  0  0  0  0  0
  -23.7680    2.1460  -38.4610 O   0  0  0  0  0  0  0  0  0  0  0  0
  1  2  1  0  0  0  0
  1  6  1  0  0  0  0
  2 18  1  6  0  0  0
  2  3  1  0  0  0  0
  3  4  1  0  0  0  0
  4  5  1  0  0  0  0
  6  5  1  0  0  0  0
  7 13  1  0  0  0  0
  7  1  1  0  0  0  0
  8  7  2  0  0  0  0
  9 10  2  0  0  0  0
  9  8  1  0  0  0  0
 10 11  1  0  0  0  0
 11 12  1  0  0  0  0
 11 13  2  0  0  0  0
 12 14  1  0  0  0  0
 13 16  1  0  0  0  0
 14 16  2  0  0  0  0
 15 12  1  0  0  0  0
 16 17  1  0  0  0  0
 18 23  1  0  0  0  0
 19 18  2  0  0  0  0
 20 19  1  0  0  0  0
 20 21  2  0  0  0  0
 21 23  1  0  0  0  0
 22 20  1  0  0  0  0
M  END
>  <Pose>
1

>  <Score>
14.522

$$$$
