/Users/jonathanwahrer/Desktop/Msc/3_Semester/Drug_Design_Praktikum/waehrer_HTS_screening/HTS_experiment/out/docking_results/vina_output/5l4q/0727_docked.pdbqt
 OpenBabel03212218143D

 21 24  0  0  0  0  0  0  0  0999 V2000
  -19.7840   -0.0270  -29.6000 Br  0  0  0  0  0  0  0  0  0  0  0  0
  -20.1270   -1.8990  -29.5940 C   0  0  0  0  0  0  0  0  0  0  0  0
  -19.9850   -2.7360  -28.5250 N   0  0  0  0  0  0  0  0  0  0  0  0
  -20.3320   -3.9470  -28.8900 N   0  0  0  0  0  0  0  0  0  0  0  0
  -20.7040   -3.9470  -30.1800 C   0  0  0  0  0  0  0  0  0  0  0  0
  -21.1470   -4.8960  -31.0200 N   0  0  0  0  0  0  0  0  0  0  0  0
  -21.4680   -4.6250  -32.2820 C   0  0  0  0  0  3  0  0  0  0  0  0
  -21.3500   -3.3820  -32.7400 N   0  0  0  0  0  0  0  0  0  0  0  0
  -20.9060   -2.3360  -31.9670 C   0  0  0  0  0  0  0  0  0  0  0  0
  -20.5820   -2.6350  -30.6670 C   0  0  0  0  0  0  0  0  0  0  0  0
  -20.3410   -5.1710  -28.0750 C   0  0  0  0  0  1  0  0  0  0  0  0
  -20.7600   -1.0570  -32.5040 N   0  0  0  0  0  0  0  0  0  0  0  0
  -19.5720   -0.6810  -33.2370 C   0  0  0  0  0  2  0  0  0  0  0  0
  -19.9660   -0.5790  -34.7250 C   0  0  0  0  0  2  0  0  0  0  0  0
  -21.3250   -0.0060  -34.8310 C   0  0  0  0  0  0  0  0  0  0  0  0
  -21.9660    0.3600  -35.9650 N   0  0  0  0  0  0  0  0  0  0  0  0
  -22.1820    0.2620  -33.8050 C   0  0  0  0  0  0  0  0  0  0  0  0
  -23.1750    0.8330  -35.6180 C   0  0  0  0  0  3  0  0  0  0  0  0
  -21.4920    0.2810  -37.3230 C   0  0  0  0  0  1  0  0  0  0  0  0
  -23.3280    0.7820  -34.2960 N   0  0  0  0  0  0  0  0  0  0  0  0
  -21.7690   -0.0330  -32.4110 C   0  0  0  0  0  2  0  0  0  0  0  0
  1  2  1  0  0  0  0
  2  3  2  0  0  0  0
  4  3  1  0  0  0  0
  4 11  1  0  0  0  0
  5  4  1  0  0  0  0
  6  5  2  0  0  0  0
  7  6  1  0  0  0  0
  8  7  2  0  0  0  0
  8  9  1  0  0  0  0
  9 10  2  0  0  0  0
 10  5  1  0  0  0  0
 10  2  1  0  0  0  0
 12 21  1  0  0  0  0
 12  9  1  0  0  0  0
 13 12  1  0  0  0  0
 14 13  1  0  0  0  0
 15 14  1  0  0  0  0
 15 17  2  0  0  0  0
 16 18  1  0  0  0  0
 16 15  1  0  0  0  0
 17 21  1  0  0  0  0
 18 20  2  0  0  0  0
 19 16  1  0  0  0  0
 20 17  1  0  0  0  0
M  END
>  <Pose>
1

>  <Score>
-7.093

$$$$
