/Users/jonathanwahrer/Desktop/Msc/3_Semester/Drug_Design_Praktikum/waehrer_HTS_screening/HTS_experiment/out/docking_results/vina_output/5l4q/0737_docked.pdbqt
 OpenBabel03212218143D

 21 24  0  0  1  0  0  0  0  0999 V2000
  -19.3010   -1.0380  -28.1750 C   0  0  2  0  0  3  0  0  0  0  0  0
  -19.0400    0.2370  -28.0020 C   0  0  0  0  0  3  0  0  0  0  0  0
  -18.6500    0.7780  -26.6910 C   0  0  0  0  0  0  0  0  0  0  0  0
  -18.3850    2.0580  -26.5030 C   0  0  0  0  0  1  0  0  0  0  0  0
  -18.5780   -0.1740  -25.6400 N   0  0  0  0  0  0  0  0  0  0  0  0
  -18.8660   -1.5630  -25.8480 C   0  0  0  0  0  0  0  0  0  0  0  0
  -19.2170   -1.9550  -27.1020 N   0  0  0  0  0  0  0  0  0  0  0  0
  -19.4280   -3.2740  -27.0210 N   0  0  0  0  0  0  0  0  0  0  0  0
  -19.2240   -3.7200  -25.7740 C   0  0  0  0  0  3  0  0  0  0  0  0
  -18.8730   -2.6450  -25.0490 N   0  0  0  0  0  0  0  0  0  0  0  0
  -18.3060    0.1460  -24.6860 H   0  0  0  0  0  0  0  0  0  0  0  0
  -19.6700   -1.5010  -29.4520 N   0  0  2  0  0  0  0  0  0  0  0  0
  -19.5640   -2.9150  -29.7150 C   0  0  0  0  0  2  0  0  0  0  0  0
  -20.5070   -3.3140  -30.8020 C   0  0  0  0  0  0  0  0  0  0  0  0
  -20.8380   -2.4540  -31.7630 N   0  0  0  0  0  0  0  0  0  0  0  0
  -21.1690   -4.4730  -31.0570 N   0  0  0  0  0  0  0  0  0  0  0  0
  -21.6880   -3.0410  -32.6140 C   0  0  0  0  0  0  0  0  0  0  0  0
  -20.3030   -1.1080  -31.7960 C   0  0  0  0  0  2  0  0  0  0  0  0
  -22.5010   -2.2950  -34.1820 Br  0  0  0  0  0  0  0  0  0  0  0  0
  -21.9070   -4.3290  -32.1720 C   0  0  0  0  0  3  0  0  0  0  0  0
  -20.1300   -0.5340  -30.4210 C   0  0  0  0  0  2  0  0  0  0  0  0
  1  2  1  6  0  0  0
  1  7  1  0  0  0  0
  2  3  2  0  0  0  0
  3  4  1  0  0  0  0
  3  5  1  0  0  0  0
  5 11  1  0  0  0  0
  6  5  1  0  0  0  0
  6 10  2  0  0  0  0
  7  8  1  0  0  0  0
  7  6  1  0  0  0  0
  8  9  2  0  0  0  0
  9 10  1  0  0  0  0
 12 21  1  6  0  0  0
 12  1  1  0  0  0  0
 13 12  1  0  0  0  0
 14 13  1  0  0  0  0
 15 14  1  0  0  0  0
 16 14  2  0  0  0  0
 17 20  2  0  0  0  0
 17 15  1  0  0  0  0
 18 15  1  0  0  0  0
 18 21  1  0  0  0  0
 19 17  1  0  0  0  0
 20 16  1  0  0  0  0
M  END
>  <Pose>
1

>  <Score>
-7.936

$$$$
