/Users/jonathanwahrer/Desktop/Msc/3_Semester/Drug_Design_Praktikum/waehrer_HTS_screening/HTS_experiment/out/docking_results/vina_output/5l4q/0743_docked.pdbqt
 OpenBabel03212218153D

 30 33  0  0  1  0  0  0  0  0999 V2000
  -21.3490   -1.4260  -34.4390 C   0  0  0  0  0  0  0  0  0  0  0  0
  -20.2140   -1.8130  -34.0030 O   0  0  0  0  0  0  0  0  0  0  0  0
  -21.4480   -0.2630  -35.2490 N   0  0  0  0  0  0  0  0  0  0  0  0
  -20.2620    0.4780  -35.5770 C   0  0  0  0  0  2  0  0  0  0  0  0
  -20.2970    1.1200  -36.9300 C   0  0  0  0  0  2  0  0  0  0  0  0
  -21.6850    1.3770  -37.4370 C   0  0  1  0  0  0  0  0  0  0  0  0
  -21.7060    2.5120  -38.3090 N   0  0  0  0  0  0  0  0  0  0  0  0
  -22.9970    2.8520  -38.8030 C   0  0  0  0  0  2  0  0  0  0  0  0
  -23.8310    1.7020  -39.2620 C   0  0  0  0  0  2  0  0  0  0  0  0
  -23.1510    0.3910  -39.1120 C   0  0  0  0  0  0  0  0  0  0  0  0
  -23.3510   -0.7850  -39.7100 N   0  0  0  0  0  0  0  0  0  0  0  0
  -22.4730   -1.6790  -39.2330 C   0  0  0  0  0  3  0  0  0  0  0  0
  -21.6980   -1.0800  -38.3200 N   0  0  0  0  0  0  0  0  0  0  0  0
  -22.1090    0.1920  -38.2400 C   0  0  0  0  0  0  0  0  0  0  0  0
  -22.6530    1.5040  -36.2720 C   0  0  0  0  0  2  0  0  0  0  0  0
  -22.7860    0.1070  -35.7030 C   0  0  0  0  0  2  0  0  0  0  0  0
  -21.3200    3.3290  -37.7870 H   0  0  0  0  0  0  0  0  0  0  0  0
  -20.9030   -1.5280  -37.7600 H   0  0  0  0  0  0  0  0  0  0  0  0
  -22.5140   -2.2400  -34.0560 C   0  0  0  0  0  2  0  0  0  0  0  0
  -22.1380   -3.5510  -33.4370 C   0  0  0  0  0  2  0  0  0  0  0  0
  -21.6970   -3.4360  -32.0820 N   0  0  0  0  0  0  0  0  0  0  0  0
  -21.1170   -4.5230  -31.3730 C   0  0  0  0  0  0  0  0  0  0  0  0
  -20.9960   -5.6270  -31.9820 O   0  0  0  0  0  0  0  0  0  0  0  0
  -21.7970   -2.5310  -31.5860 H   0  0  0  0  0  0  0  0  0  0  0  0
  -20.6640   -4.4310  -30.0080 C   0  0  0  0  0  0  0  0  0  0  0  0
  -20.5200   -3.3540  -29.3110 O   0  0  0  0  0  0  0  0  0  0  0  0
  -20.0930   -3.5940  -28.1070 C   0  0  0  0  0  0  0  0  0  0  0  0
  -19.7190   -2.3490  -26.6880 Br  0  0  0  0  0  0  0  0  0  0  0  0
  -19.9400   -4.9570  -27.9960 C   0  0  0  0  0  3  0  0  0  0  0  0
  -20.2990   -5.5180  -29.2030 C   0  0  0  0  0  3  0  0  0  0  0  0
  1 19  1  0  0  0  0
  1  2  2  0  0  0  0
  3  1  1  0  0  0  0
  4  3  1  0  0  0  0
  5  4  1  0  0  0  0
  6  5  1  1  0  0  0
  6 15  1  0  0  0  0
  7 17  1  0  0  0  0
  7  6  1  0  0  0  0
  8  7  1  0  0  0  0
  9 10  1  0  0  0  0
  9  8  1  0  0  0  0
 10 14  2  0  0  0  0
 11 12  2  0  0  0  0
 11 10  1  0  0  0  0
 12 13  1  0  0  0  0
 13 14  1  0  0  0  0
 13 18  1  0  0  0  0
 14  6  1  0  0  0  0
 15 16  1  0  0  0  0
 16  3  1  0  0  0  0
 19 20  1  0  0  0  0
 20 21  1  0  0  0  0
 21 24  1  0  0  0  0
 21 22  1  0  0  0  0
 22 25  1  0  0  0  0
 23 22  2  0  0  0  0
 25 26  1  0  0  0  0
 25 30  2  0  0  0  0
 26 27  1  0  0  0  0
 27 29  2  0  0  0  0
 27 28  1  0  0  0  0
 30 29  1  0  0  0  0
M  END
>  <Pose>
1

>  <Score>
-8.538

$$$$
