/Users/jonathanwahrer/Desktop/Msc/3_Semester/Drug_Design_Praktikum/waehrer_HTS_screening/HTS_experiment/out/docking_results/vina_output/5l4q/0754_docked.pdbqt
 OpenBabel03212218153D

 27 30  0  0  0  0  0  0  0  0999 V2000
  -20.5390    0.8210  -37.5000 C   0  0  0  0  0  0  0  0  0  0  0  0
  -19.3600    1.0080  -37.8330 O   0  0  0  0  0  0  0  0  0  0  0  0
  -21.0200    1.3600  -36.2810 N   0  0  0  0  0  0  0  0  0  0  0  0
  -20.1320    2.1280  -35.4330 C   0  0  0  0  0  2  0  0  0  0  0  0
  -19.9680    1.5070  -34.0670 C   0  0  0  0  0  2  0  0  0  0  0  0
  -21.2230    0.7900  -33.7840 N   0  0  0  0  0  0  0  0  0  0  0  0
  -22.4140    1.3960  -34.2720 C   0  0  0  0  0  2  0  0  0  0  0  0
  -22.3780    1.1980  -35.7990 C   0  0  0  0  0  2  0  0  0  0  0  0
  -21.1160   -0.4220  -33.0590 C   0  0  0  0  0  0  0  0  0  0  0  0
  -20.4610   -0.4830  -31.8670 N   0  0  0  0  0  0  0  0  0  0  0  0
  -20.3500   -1.6250  -31.1700 C   0  0  0  0  0  0  0  0  0  0  0  0
  -20.8980   -2.7640  -31.6450 N   0  0  0  0  0  0  0  0  0  0  0  0
  -21.5640   -2.7990  -32.8120 C   0  0  0  0  0  0  0  0  0  0  0  0
  -21.6590   -1.5880  -33.5140 C   0  0  0  0  0  3  0  0  0  0  0  0
  -22.1750   -4.0430  -33.3550 C   0  0  0  0  0  1  0  0  0  0  0  0
  -19.6580   -1.6360  -29.9330 N   0  0  0  0  0  0  0  0  0  0  0  0
  -18.6040   -0.7060  -29.6070 C   0  0  0  0  0  2  0  0  0  0  0  0
  -18.8930   -0.0390  -28.2960 C   0  0  0  0  0  2  0  0  0  0  0  0
  -19.9520   -0.6260  -27.6070 O   0  0  0  0  0  0  0  0  0  0  0  0
  -19.8080   -2.0100  -27.5690 C   0  0  0  0  0  2  0  0  0  0  0  0
  -20.0130   -2.6200  -28.9340 C   0  0  0  0  0  2  0  0  0  0  0  0
  -21.4110    0.0370  -38.3920 C   0  0  0  0  0  0  0  0  0  0  0  0
  -21.9650   -1.1160  -38.1680 O   0  0  0  0  0  0  0  0  0  0  0  0
  -22.6660   -1.5170  -39.1660 C   0  0  0  0  0  0  0  0  0  0  0  0
  -23.6830   -3.1540  -39.3320 Br  0  0  0  0  0  0  0  0  0  0  0  0
  -22.5890   -0.5670  -40.1550 C   0  0  0  0  0  3  0  0  0  0  0  0
  -21.7850    0.4260  -39.6580 C   0  0  0  0  0  3  0  0  0  0  0  0
  1  3  1  0  0  0  0
  2  1  2  0  0  0  0
  3  8  1  0  0  0  0
  3  4  1  0  0  0  0
  4  5  1  0  0  0  0
  5  6  1  0  0  0  0
  6  9  1  0  0  0  0
  7  6  1  0  0  0  0
  8  7  1  0  0  0  0
  9 10  1  0  0  0  0
 10 11  2  0  0  0  0
 11 16  1  0  0  0  0
 12 11  1  0  0  0  0
 13 12  2  0  0  0  0
 14  9  2  0  0  0  0
 14 13  1  0  0  0  0
 15 13  1  0  0  0  0
 16 17  1  0  0  0  0
 16 21  1  0  0  0  0
 17 18  1  0  0  0  0
 18 19  1  0  0  0  0
 19 20  1  0  0  0  0
 21 20  1  0  0  0  0
 22 23  1  0  0  0  0
 22  1  1  0  0  0  0
 24 23  1  0  0  0  0
 25 24  1  0  0  0  0
 26 27  1  0  0  0  0
 26 24  2  0  0  0  0
 27 22  2  0  0  0  0
M  END
>  <Pose>
1

>  <Score>
-8.090

$$$$
