/Users/jonathanwahrer/Desktop/Msc/3_Semester/Drug_Design_Praktikum/waehrer_HTS_screening/HTS_experiment/out/docking_results/vina_output/5l4q/0767_docked.pdbqt
 OpenBabel03212218163D

 32 35  0  0  0  0  0  0  0  0999 V2000
  -20.2670   -5.4210  -29.1690 C   0  0  0  0  0  2  0  0  0  0  0  0
  -20.6680   -4.4650  -30.1450 N   0  0  0  0  0  0  0  0  0  0  0  0
  -21.0490   -4.8490  -31.4600 C   0  0  0  0  0  0  0  0  0  0  0  0
  -21.0250   -6.0920  -31.7560 O   0  0  0  0  0  0  0  0  0  0  0  0
  -20.6860   -3.4580  -29.8970 H   0  0  0  0  0  0  0  0  0  0  0  0
  -21.4600   -3.8730  -32.4620 C   0  0  0  0  0  0  0  0  0  0  0  0
  -22.2950   -4.1390  -33.4340 O   0  0  0  0  0  0  0  0  0  0  0  0
  -22.4780   -3.0820  -34.1740 N   0  0  0  0  0  0  0  0  0  0  0  0
  -21.7410   -2.0580  -33.6890 C   0  0  0  0  0  0  0  0  0  0  0  0
  -21.1200   -2.5890  -32.6210 N   0  0  0  0  0  0  0  0  0  0  0  0
  -21.6490   -0.7000  -34.2110 C   0  0  0  0  0  0  0  0  0  0  0  0
  -22.0350   -0.2620  -35.3820 O   0  0  0  0  0  0  0  0  0  0  0  0
  -21.8100    1.0070  -35.5350 C   0  0  0  0  0  0  0  0  0  0  0  0
  -22.1800    2.1120  -37.0320 Br  0  0  0  0  0  0  0  0  0  0  0  0
  -21.2170    1.4960  -34.3690 C   0  0  0  0  0  3  0  0  0  0  0  0
  -21.1230    0.3890  -33.5390 C   0  0  0  0  0  3  0  0  0  0  0  0
  -20.1530   -4.8340  -27.7790 C   0  0  0  0  0  2  0  0  0  0  0  0
  -20.0220   -3.3840  -27.8260 N   0  0  0  0  0  0  0  0  0  0  0  0
  -19.3480   -2.7260  -26.7830 C   0  0  0  0  0  0  0  0  0  0  0  0
  -18.8950   -3.4890  -25.8560 O   0  0  0  0  0  0  0  0  0  0  0  0
  -20.4090   -2.8280  -28.6090 H   0  0  0  0  0  0  0  0  0  0  0  0
  -19.1080   -1.3130  -26.6350 C   0  0  0  0  0  0  0  0  0  0  0  0
  -18.5570   -0.8530  -25.4390 C   0  0  0  0  0  3  0  0  0  0  0  0
  -18.3090    0.4870  -25.2750 C   0  0  0  0  0  0  0  0  0  0  0  0
  -18.5990    1.3660  -26.2720 C   0  0  0  0  0  0  0  0  0  0  0  0
  -17.7570    0.9830  -24.0900 C   0  0  0  0  0  3  0  0  0  0  0  0
  -18.3450    2.7290  -26.1000 C   0  0  0  0  0  3  0  0  0  0  0  0
  -19.1120    0.9050  -27.3760 O   0  0  0  0  0  0  0  0  0  0  0  0
  -17.8020    3.2210  -24.9380 C   0  0  0  0  0  3  0  0  0  0  0  0
  -17.5130    2.3300  -23.9360 C   0  0  0  0  0  3  0  0  0  0  0  0
  -19.3770   -0.3770  -27.6010 C   0  0  0  0  0  0  0  0  0  0  0  0
  -19.8730   -0.6880  -28.7090 O   0  0  0  0  0  0  0  0  0  0  0  0
  1 17  1  0  0  0  0
  2  5  1  0  0  0  0
  2  1  1  0  0  0  0
  3  2  1  0  0  0  0
  4  3  2  0  0  0  0
  6  3  1  0  0  0  0
  7  6  1  0  0  0  0
  8  9  2  0  0  0  0
  8  7  1  0  0  0  0
  9 10  1  0  0  0  0
 10  6  2  0  0  0  0
 11  9  1  0  0  0  0
 11 16  2  0  0  0  0
 12 11  1  0  0  0  0
 13 12  1  0  0  0  0
 13 15  2  0  0  0  0
 14 13  1  0  0  0  0
 15 16  1  0  0  0  0
 18 17  1  0  0  0  0
 18 19  1  0  0  0  0
 19 22  1  0  0  0  0
 19 20  2  0  0  0  0
 21 18  1  0  0  0  0
 22 23  2  0  0  0  0
 23 24  1  0  0  0  0
 24 26  1  0  0  0  0
 25 27  1  0  0  0  0
 25 24  2  0  0  0  0
 26 30  2  0  0  0  0
 27 29  2  0  0  0  0
 28 25  1  0  0  0  0
 29 30  1  0  0  0  0
 31 28  1  0  0  0  0
 31 22  1  0  0  0  0
 32 31  2  0  0  0  0
M  END
>  <Pose>
1

>  <Score>
-9.836

$$$$
