/Users/jonathanwahrer/Desktop/Msc/3_Semester/Drug_Design_Praktikum/waehrer_HTS_screening/HTS_experiment/out/docking_results/vina_output/5l4q/0769_docked.pdbqt
 OpenBabel03212218163D

 26 29  0  0  0  0  0  0  0  0999 V2000
  -23.0000   -0.0920  -36.0800 C   0  0  0  0  0  0  0  0  0  0  0  0
  -24.1300    0.5350  -35.8130 O   0  0  0  0  0  0  0  0  0  0  0  0
  -21.9660    0.1320  -35.1830 N   0  0  0  0  0  0  0  0  0  0  0  0
  -22.2040    1.0310  -34.0250 C   0  0  0  0  0  2  0  0  0  0  0  0
  -21.8890    0.2790  -32.7550 C   0  0  0  0  0  2  0  0  0  0  0  0
  -20.5570   -0.1810  -32.7930 N   0  0  0  0  0  0  0  0  0  0  0  0
  -19.9020    0.1630  -34.0090 C   0  0  0  0  0  2  0  0  0  0  0  0
  -20.6630   -0.4100  -35.2290 C   0  0  0  0  0  2  0  0  0  0  0  0
  -23.0930   -0.8970  -37.2830 C   0  0  0  0  0  0  0  0  0  0  0  0
  -22.6440   -0.4850  -38.5080 C   0  0  0  0  0  3  0  0  0  0  0  0
  -22.7780   -1.3350  -39.6110 C   0  0  0  0  0  0  0  0  0  0  0  0
  -22.1810   -0.8300  -41.3250 Br  0  0  0  0  0  0  0  0  0  0  0  0
  -23.3590   -2.5660  -39.4300 C   0  0  0  0  0  0  0  0  0  0  0  0
  -23.7690   -2.9210  -38.2640 O   0  0  0  0  0  0  0  0  0  0  0  0
  -23.5010   -3.3680  -40.3900 O   0  0  0  0  0  0  0  0  0  0  0  0
  -23.6680   -2.1700  -37.2140 C   0  0  0  0  0  3  0  0  0  0  0  0
  -19.7580    0.0980  -31.6430 C   0  0  0  0  0  2  0  0  0  0  0  0
  -19.8370   -0.8940  -30.5560 C   0  0  0  0  0  0  0  0  0  0  0  0
  -19.8570   -2.2390  -30.7330 C   0  0  0  0  0  3  0  0  0  0  0  0
  -19.9360   -3.0850  -29.6550 C   0  0  0  0  0  0  0  0  0  0  0  0
  -19.9980   -2.5660  -28.3910 C   0  0  0  0  0  0  0  0  0  0  0  0
  -19.9750   -4.4810  -29.5160 O   0  0  0  0  0  0  0  0  0  0  0  0
  -19.9790   -1.2040  -28.1860 C   0  0  0  0  0  3  0  0  0  0  0  0
  -20.0730   -3.5970  -27.4700 O   0  0  0  0  0  0  0  0  0  0  0  0
  -19.9000   -0.3910  -29.2690 C   0  0  0  0  0  3  0  0  0  0  0  0
  -20.4300   -4.7580  -28.2060 C   0  0  0  0  0  2  0  0  0  0  0  0
  1  2  2  0  0  0  0
  1  3  1  0  0  0  0
  3  4  1  0  0  0  0
  4  5  1  0  0  0  0
  6  5  1  0  0  0  0
  6 17  1  0  0  0  0
  7  6  1  0  0  0  0
  8  3  1  0  0  0  0
  8  7  1  0  0  0  0
  9 16  2  0  0  0  0
  9  1  1  0  0  0  0
 10  9  1  0  0  0  0
 11 13  1  0  0  0  0
 11 10  2  0  0  0  0
 12 11  1  0  0  0  0
 13 14  1  0  0  0  0
 14 16  1  0  0  0  0
 15 13  2  0  0  0  0
 17 18  1  0  0  0  0
 18 25  1  0  0  0  0
 19 18  2  0  0  0  0
 19 20  1  0  0  0  0
 20 22  1  0  0  0  0
 20 21  2  0  0  0  0
 21 23  1  0  0  0  0
 21 24  1  0  0  0  0
 22 26  1  0  0  0  0
 25 23  2  0  0  0  0
 26 24  1  0  0  0  0
M  END
>  <Pose>
1

>  <Score>
-9.186

$$$$
