/Users/jonathanwahrer/Desktop/Msc/3_Semester/Drug_Design_Praktikum/waehrer_HTS_screening/HTS_experiment/out/docking_results/vina_output/5l4q/0783_docked.pdbqt
 OpenBabel03212218163D

 39 42  0  0  1  0  0  0  0  0999 V2000
  -21.6450    1.3520  -38.8440 C   0  0  1  0  0  3  0  0  0  0  0  0
  -20.9120    0.3910  -37.9970 C   0  0  2  0  0  0  0  0  0  0  0  0
  -21.7150   -0.1240  -36.7960 C   0  0  0  0  0  2  0  0  0  0  0  0
  -22.2400    1.0280  -35.9760 C   0  0  2  0  0  0  0  0  0  0  0  0
  -22.3100    2.1940  -36.7140 O   0  0  0  0  0  0  0  0  0  0  0  0
  -22.6880    2.0480  -38.0130 C   0  0  0  0  0  2  0  0  0  0  0  0
  -21.3300    1.1810  -34.7710 C   0  0  0  0  0  2  0  0  0  0  0  0
  -21.9030    0.4580  -33.5820 C   0  0  0  0  0  2  0  0  0  0  0  0
  -22.4710   -0.7890  -34.0280 N   0  0  0  0  0  0  0  0  0  0  0  0
  -23.6650   -0.6810  -34.8530 C   0  0  0  0  0  2  0  0  0  0  0  0
  -23.6350    0.6770  -35.5170 C   0  0  0  0  0  2  0  0  0  0  0  0
  -21.9050   -2.0130  -33.6630 C   0  0  0  0  0  0  0  0  0  0  0  0
  -22.4990   -3.0530  -34.1270 O   0  0  0  0  0  0  0  0  0  0  0  0
  -19.5560    0.8290  -37.5470 C   0  0  0  0  0  1  0  0  0  0  0  0
  -20.6990   -0.7730  -38.7790 O   0  0  0  0  0  0  0  0  0  0  0  0
  -20.6050   -1.5770  -38.2160 H   0  0  0  0  0  0  0  0  0  0  0  0
  -20.8070    2.3050  -39.5420 N   0  0  0  0  0  0  0  0  0  0  0  0
  -20.5390    3.4800  -38.9810 C   0  0  0  0  0  3  0  0  0  0  0  0
  -19.7520    4.4080  -39.6220 C   0  0  0  0  0  0  0  0  0  0  0  0
  -19.3780    6.0990  -38.7910 Br  0  0  0  0  0  0  0  0  0  0  0  0
  -19.2420    4.0990  -40.8650 C   0  0  0  0  0  0  0  0  0  0  0  0
  -19.5470    2.8940  -41.3820 N   0  0  0  0  0  0  0  0  0  0  0  0
  -18.5120    4.9190  -41.4950 O   0  0  0  0  0  0  0  0  0  0  0  0
  -20.3180    2.0020  -40.7420 C   0  0  0  0  0  0  0  0  0  0  0  0
  -19.1560    2.6510  -42.3420 H   0  0  0  0  0  0  0  0  0  0  0  0
  -20.5520    0.8860  -41.3130 O   0  0  0  0  0  0  0  0  0  0  0  0
  -20.7400   -2.2820  -32.8280 C   0  0  1  0  0  3  0  0  0  0  0  0
  -19.4870   -1.9890  -33.5250 N   0  0  0  0  0  0  0  0  0  0  0  0
  -19.4380   -2.4920  -34.4370 H   0  0  0  0  0  0  0  0  0  0  0  0
  -18.6910   -2.3560  -32.9460 H   0  0  0  0  0  0  0  0  0  0  0  0
  -20.6820   -1.5070  -31.5300 C   0  0  0  0  0  2  0  0  0  0  0  0
  -20.5410   -2.5400  -30.4370 C   0  0  0  0  0  0  0  0  0  0  0  0
  -20.6690   -3.8730  -30.7270 C   0  0  0  0  0  3  0  0  0  0  0  0
  -20.5320   -4.7910  -29.6900 C   0  0  0  0  0  3  0  0  0  0  0  0
  -20.2740   -4.3920  -28.3980 C   0  0  0  0  0  0  0  0  0  0  0  0
  -20.1520   -3.0410  -28.1460 C   0  0  0  0  0  3  0  0  0  0  0  0
  -20.2830   -2.1060  -29.1530 C   0  0  0  0  0  3  0  0  0  0  0  0
  -20.1480   -5.3480  -27.4080 O   0  0  0  0  0  0  0  0  0  0  0  0
  -19.2560   -5.7350  -27.0990 H   0  0  0  0  0  0  0  0  0  0  0  0
  1 17  1  1  0  0  0
  1  6  1  0  0  0  0
  1  2  1  0  0  0  0
  2 14  1  1  0  0  0
  2  3  1  0  0  0  0
  4  3  1  6  0  0  0
  4 11  1  0  0  0  0
  4  7  1  0  0  0  0
  5  4  1  0  0  0  0
  6  5  1  0  0  0  0
  7  8  1  0  0  0  0
  9 12  1  0  0  0  0
  9  8  1  0  0  0  0
 10  9  1  0  0  0  0
 11 10  1  0  0  0  0
 12 27  1  0  0  0  0
 13 12  2  0  0  0  0
 15 16  1  0  0  0  0
 15  2  1  0  0  0  0
 17 18  1  0  0  0  0
 19 18  2  0  0  0  0
 19 20  1  0  0  0  0
 21 19  1  0  0  0  0
 22 21  1  0  0  0  0
 22 24  1  0  0  0  0
 23 21  2  0  0  0  0
 24 17  1  0  0  0  0
 25 22  1  0  0  0  0
 26 24  2  0  0  0  0
 27 31  1  1  0  0  0
 28 30  1  0  0  0  0
 28 27  1  0  0  0  0
 29 28  1  0  0  0  0
 31 32  1  0  0  0  0
 32 37  1  0  0  0  0
 33 32  2  0  0  0  0
 33 34  1  0  0  0  0
 34 35  2  0  0  0  0
 35 36  1  0  0  0  0
 35 38  1  0  0  0  0
 37 36  2  0  0  0  0
 38 39  1  0  0  0  0
M  END
>  <Pose>
1

>  <Score>
-9.174

$$$$
