/Users/jonathanwahrer/Desktop/Msc/3_Semester/Drug_Design_Praktikum/waehrer_HTS_screening/HTS_experiment/out/docking_results/vina_output/5l4q/0784_docked.pdbqt
 OpenBabel03212218173D

 39 42  0  0  1  0  0  0  0  0999 V2000
  -19.4650   -0.8680  -32.3910 C   0  0  1  0  0  3  0  0  0  0  0  0
  -20.4210    0.3360  -32.4020 C   0  0  2  0  0  0  0  0  0  0  0  0
  -20.3210    0.8730  -33.8370 C   0  0  0  0  0  2  0  0  0  0  0  0
  -18.8850    1.1050  -34.2170 C   0  0  2  0  0  0  0  0  0  0  0  0
  -18.0920    0.9450  -33.1070 O   0  0  0  0  0  0  0  0  0  0  0  0
  -18.1020   -0.3340  -32.5580 C   0  0  0  0  0  2  0  0  0  0  0  0
  -18.7850    2.5690  -34.6220 C   0  0  0  0  0  2  0  0  0  0  0  0
  -19.1760    2.7250  -36.0700 C   0  0  0  0  0  2  0  0  0  0  0  0
  -20.0110    1.5910  -36.4990 N   0  0  0  0  0  0  0  0  0  0  0  0
  -19.3410    0.3260  -36.5620 C   0  0  0  0  0  2  0  0  0  0  0  0
  -18.4010    0.2850  -35.3600 C   0  0  0  0  0  2  0  0  0  0  0  0
  -21.3680    1.7290  -36.7880 C   0  0  0  0  0  0  0  0  0  0  0  0
  -21.9660    2.8650  -36.6390 O   0  0  0  0  0  0  0  0  0  0  0  0
  -20.0180    1.3600  -31.3890 C   0  0  0  0  0  1  0  0  0  0  0  0
  -21.7260   -0.0350  -32.1610 O   0  0  0  0  0  0  0  0  0  0  0  0
  -21.7880   -0.4350  -31.2560 H   0  0  0  0  0  0  0  0  0  0  0  0
  -19.7410   -1.7760  -31.3530 N   0  0  0  0  0  0  0  0  0  0  0  0
  -19.3990   -1.6210  -30.0720 C   0  0  0  0  0  3  0  0  0  0  0  0
  -19.7120   -2.5710  -29.1000 C   0  0  0  0  0  0  0  0  0  0  0  0
  -19.1790   -2.2510  -27.3110 Br  0  0  0  0  0  0  0  0  0  0  0  0
  -20.3960   -3.7120  -29.4560 C   0  0  0  0  0  0  0  0  0  0  0  0
  -20.7330   -3.8560  -30.7500 N   0  0  0  0  0  0  0  0  0  0  0  0
  -20.6930   -4.5960  -28.5880 O   0  0  0  0  0  0  0  0  0  0  0  0
  -20.4180   -2.9230  -31.6640 C   0  0  0  0  0  0  0  0  0  0  0  0
  -21.2570   -4.7120  -31.0730 H   0  0  0  0  0  0  0  0  0  0  0  0
  -20.7640   -3.1170  -32.8610 O   0  0  0  0  0  0  0  0  0  0  0  0
  -22.1980    0.6350  -37.2680 C   0  0  1  0  0  3  0  0  0  0  0  0
  -23.2440    0.3260  -36.3230 N   0  0  0  0  0  0  0  0  0  0  0  0
  -23.2520   -0.6330  -35.3170 C   0  0  0  0  0  0  0  0  0  0  0  0
  -22.3230   -1.4270  -35.0630 O   0  0  0  0  0  0  0  0  0  0  0  0
  -24.4580   -0.7900  -34.4080 C   0  0  0  0  0  1  0  0  0  0  0  0
  -24.1220    0.9230  -36.4300 H   0  0  0  0  0  0  0  0  0  0  0  0
  -22.8510    0.9690  -38.6450 C   0  0  0  0  0  2  0  0  0  0  0  0
  -22.0660    0.3610  -39.7340 C   0  0  0  0  0  0  0  0  0  0  0  0
  -21.3890    0.9360  -40.7150 N   0  0  0  0  0  0  0  0  0  0  0  0
  -20.7950    0.0120  -41.5200 C   0  0  0  0  0  3  0  0  0  0  0  0
  -21.1210   -1.1910  -41.0120 N   0  0  0  0  0  0  0  0  0  0  0  0
  -21.8960   -1.0010  -39.9230 C   0  0  0  0  0  3  0  0  0  0  0  0
  -20.8010   -2.0970  -41.4320 H   0  0  0  0  0  0  0  0  0  0  0  0
  1  6  1  1  0  0  0
  1 17  1  0  0  0  0
  2  1  1  0  0  0  0
  2 15  1  0  0  0  0
  2 14  1  1  0  0  0
  3  2  1  0  0  0  0
  4 11  1  6  0  0  0
  4  3  1  0  0  0  0
  4  5  1  0  0  0  0
  5  6  1  0  0  0  0
  7  4  1  0  0  0  0
  8  7  1  0  0  0  0
  9  8  1  0  0  0  0
 10  9  1  0  0  0  0
 10 11  1  0  0  0  0
 12 13  2  0  0  0  0
 12  9  1  0  0  0  0
 15 16  1  0  0  0  0
 17 18  1  0  0  0  0
 18 19  2  0  0  0  0
 19 20  1  0  0  0  0
 21 19  1  0  0  0  0
 21 23  2  0  0  0  0
 22 21  1  0  0  0  0
 24 17  1  0  0  0  0
 24 22  1  0  0  0  0
 25 22  1  0  0  0  0
 26 24  2  0  0  0  0
 27 33  1  6  0  0  0
 27 12  1  0  0  0  0
 27 28  1  0  0  0  0
 28 29  1  0  0  0  0
 29 30  2  0  0  0  0
 29 31  1  0  0  0  0
 32 28  1  0  0  0  0
 34 33  1  0  0  0  0
 35 34  1  0  0  0  0
 36 37  1  0  0  0  0
 36 35  2  0  0  0  0
 37 38  1  0  0  0  0
 38 34  2  0  0  0  0
 39 37  1  0  0  0  0
M  END
>  <Pose>
1

>  <Score>
-7.405

$$$$
