/Users/jonathanwahrer/Desktop/Msc/3_Semester/Drug_Design_Praktikum/waehrer_HTS_screening/HTS_experiment/out/docking_results/vina_output/5l4q/0790_docked.pdbqt
 OpenBabel03212218173D

 25 28  0  0  0  0  0  0  0  0999 V2000
  -20.6810   -2.0590  -32.6330 C   0  0  0  0  0  0  0  0  0  0  0  0
  -20.5650   -3.2700  -32.9780 O   0  0  0  0  0  0  0  0  0  0  0  0
  -21.5760   -1.1900  -33.3080 N   0  0  0  0  0  0  0  0  0  0  0  0
  -21.6490    0.2030  -32.8410 C   0  0  0  0  0  2  0  0  0  0  0  0
  -22.1100    0.9810  -34.0740 C   0  0  0  0  0  2  0  0  0  0  0  0
  -21.4380    0.3820  -35.1880 N   0  0  0  0  0  0  0  0  0  0  0  0
  -22.1500   -0.8290  -35.6930 C   0  0  0  0  0  2  0  0  0  0  0  0
  -22.3970   -1.6450  -34.4210 C   0  0  0  0  0  2  0  0  0  0  0  0
  -20.2450    0.7580  -35.7830 C   0  0  0  0  0  0  0  0  0  0  0  0
  -19.8610    0.0730  -36.8200 O   0  0  0  0  0  0  0  0  0  0  0  0
  -19.8760   -1.5900  -31.5310 C   0  0  0  0  0  0  0  0  0  0  0  0
  -18.9120   -0.6100  -31.5150 C   0  0  0  0  0  3  0  0  0  0  0  0
  -18.4130   -0.4980  -30.2730 N   0  0  0  0  0  0  0  0  0  0  0  0
  -19.0360   -1.3840  -29.4950 N   0  0  0  0  0  0  0  0  0  0  0  0
  -18.9110   -1.6690  -28.2050 C   0  0  0  0  0  3  0  0  0  0  0  0
  -19.9340   -2.0670  -30.2260 C   0  0  0  0  0  0  0  0  0  0  0  0
  -19.6710   -2.6330  -27.6210 C   0  0  0  0  0  0  0  0  0  0  0  0
  -19.4840   -3.0350  -25.7690 Br  0  0  0  0  0  0  0  0  0  0  0  0
  -20.5830   -3.3250  -28.3690 C   0  0  0  0  0  3  0  0  0  0  0  0
  -20.6920   -3.0220  -29.6650 N   0  0  0  0  0  0  0  0  0  0  0  0
  -19.3240    1.8240  -35.4260 C   0  0  0  0  0  0  0  0  0  0  0  0
  -18.7800    1.9830  -34.2120 O   0  0  0  0  0  0  0  0  0  0  0  0
  -18.0000    3.0070  -34.1610 C   0  0  0  0  0  3  0  0  0  0  0  0
  -17.9720    3.6210  -35.3880 C   0  0  0  0  0  3  0  0  0  0  0  0
  -18.8180    2.8570  -36.1770 C   0  0  0  0  0  3  0  0  0  0  0  0
  1 11  1  0  0  0  0
  2  1  2  0  0  0  0
  3  4  1  0  0  0  0
  3  1  1  0  0  0  0
  5  4  1  0  0  0  0
  6  5  1  0  0  0  0
  7  6  1  0  0  0  0
  7  8  1  0  0  0  0
  8  3  1  0  0  0  0
  9 21  1  0  0  0  0
  9  6  1  0  0  0  0
 10  9  2  0  0  0  0
 11 12  1  0  0  0  0
 11 16  2  0  0  0  0
 12 13  2  0  0  0  0
 13 14  1  0  0  0  0
 14 15  1  0  0  0  0
 15 17  2  0  0  0  0
 16 20  1  0  0  0  0
 16 14  1  0  0  0  0
 17 18  1  0  0  0  0
 19 17  1  0  0  0  0
 20 19  2  0  0  0  0
 21 22  1  0  0  0  0
 22 23  1  0  0  0  0
 24 23  2  0  0  0  0
 25 21  2  0  0  0  0
 25 24  1  0  0  0  0
M  END
>  <Pose>
1

>  <Score>
-7.968

$$$$
