/Users/jonathanwahrer/Desktop/Msc/3_Semester/Drug_Design_Praktikum/waehrer_HTS_screening/HTS_experiment/out/docking_results/vina_output/5l4q/0800_docked.pdbqt
 OpenBabel03212218183D

 29 32  0  0  1  0  0  0  0  0999 V2000
  -21.6140   -3.7760  -31.5030 C   0  0  0  0  0  0  0  0  0  0  0  0
  -22.5870   -4.5550  -31.6770 O   0  0  0  0  0  0  0  0  0  0  0  0
  -21.4310   -3.2340  -30.2540 O   0  0  0  0  0  0  0  0  0  0  0  0
  -20.7490   -3.9080  -29.2140 C   0  0  0  0  0  2  0  0  0  0  0  0
  -20.1420   -2.8990  -28.3110 C   0  0  0  0  0  0  0  0  0  0  0  0
  -20.0390   -1.6060  -28.6660 N   0  0  0  0  0  0  0  0  0  0  0  0
  -19.4870   -0.6760  -27.8500 C   0  0  1  0  0  3  0  0  0  0  0  0
  -19.0140   -1.0180  -26.6340 N   0  0  0  0  0  0  0  0  0  0  0  0
  -19.4050    0.6390  -28.2630 C   0  0  0  0  0  3  0  0  0  0  0  0
  -18.4630   -0.1110  -25.8090 C   0  0  0  0  0  3  0  0  0  0  0  0
  -19.0950   -2.3060  -26.2320 C   0  0  0  0  0  0  0  0  0  0  0  0
  -18.3780    1.2030  -26.2150 C   0  0  0  0  0  0  0  0  0  0  0  0
  -17.5940    2.4880  -25.0390 Br  0  0  0  0  0  0  0  0  0  0  0  0
  -18.8490    1.6060  -27.4560 C   0  0  0  0  0  3  0  0  0  0  0  0
  -19.6650   -3.2660  -27.0740 C   0  0  0  0  0  2  0  0  0  0  0  0
  -18.6620   -2.6270  -25.1130 O   0  0  0  0  0  0  0  0  0  0  0  0
  -20.7390   -3.5080  -32.6740 C   0  0  0  0  0  2  0  0  0  0  0  0
  -20.8910   -2.1770  -33.1810 N   0  0  0  0  0  0  0  0  0  0  0  0
  -20.1200   -1.0340  -32.8120 C   0  0  0  0  0  0  0  0  0  0  0  0
  -19.1760   -1.0380  -31.9700 O   0  0  0  0  0  0  0  0  0  0  0  0
  -20.6020    0.0810  -33.5530 N   0  0  0  0  0  0  0  0  0  0  0  0
  -21.7850   -0.3160  -34.2750 C   0  0  0  0  0  0  0  0  0  0  0  0
  -20.1510    1.0120  -33.5510 H   0  0  0  0  0  0  0  0  0  0  0  0
  -23.0440    0.2890  -33.7140 C   0  0  0  0  0  2  0  0  0  0  0  0
  -21.8010    0.1320  -35.6970 C   0  0  0  0  0  2  0  0  0  0  0  0
  -21.8560   -1.7710  -34.1540 C   0  0  0  0  0  0  0  0  0  0  0  0
  -24.0170    0.1660  -34.8440 C   0  0  0  0  0  2  0  0  0  0  0  0
  -23.2390   -0.1230  -36.0950 C   0  0  0  0  0  2  0  0  0  0  0  0
  -22.6050   -2.5680  -34.7660 O   0  0  0  0  0  0  0  0  0  0  0  0
  1  3  1  0  0  0  0
  2  1  2  0  0  0  0
  3  4  1  0  0  0  0
  4  5  1  0  0  0  0
  5 15  1  0  0  0  0
  6  5  2  0  0  0  0
  6  7  1  0  0  0  0
  7  9  1  6  0  0  0
  7  8  1  0  0  0  0
  8 11  1  0  0  0  0
  8 10  1  0  0  0  0
  9 14  2  0  0  0  0
 11 16  2  0  0  0  0
 12 10  2  0  0  0  0
 12 13  1  0  0  0  0
 14 12  1  0  0  0  0
 15 11  1  0  0  0  0
 17  1  1  0  0  0  0
 18 19  1  0  0  0  0
 18 17  1  0  0  0  0
 19 20  2  0  0  0  0
 21 23  1  0  0  0  0
 21 19  1  0  0  0  0
 22 26  1  0  0  0  0
 22 24  1  0  0  0  0
 22 21  1  0  0  0  0
 25 22  1  0  0  0  0
 26 18  1  0  0  0  0
 27 24  1  0  0  0  0
 28 25  1  0  0  0  0
 28 27  1  0  0  0  0
 29 26  2  0  0  0  0
M  END
>  <Pose>
1

>  <Score>
-8.953

$$$$
