/Users/jonathanwahrer/Desktop/Msc/3_Semester/Drug_Design_Praktikum/waehrer_HTS_screening/HTS_experiment/out/docking_results/vina_output/5l4q/0814_docked.pdbqt
 OpenBabel03212218183D

 31 34  0  0  1  0  0  0  0  0999 V2000
  -21.1700   -2.9310  -33.2970 N   0  0  0  0  0  0  0  0  0  0  0  0
  -22.2340   -3.0280  -34.0610 N   0  0  0  0  0  0  0  0  0  0  0  0
  -22.3720   -1.9300  -34.8200 C   0  0  0  0  0  0  0  0  0  0  0  0
  -21.3510   -1.1160  -34.5160 N   0  0  0  0  0  0  0  0  0  0  0  0
  -20.6050   -1.7490  -33.5640 C   0  0  2  0  0  3  0  0  0  0  0  0
  -19.3910   -1.2300  -32.9360 C   0  0  0  0  0  2  0  0  0  0  0  0
  -19.6050    0.0910  -32.2370 C   0  0  0  0  0  2  0  0  0  0  0  0
  -19.7890    1.2280  -33.2180 C   0  0  0  0  0  2  0  0  0  0  0  0
  -21.1020    1.1800  -33.9370 C   0  0  0  0  0  2  0  0  0  0  0  0
  -21.0920    0.1890  -35.0920 C   0  0  0  0  0  2  0  0  0  0  0  0
  -23.4230   -1.6400  -35.8040 C   0  0  0  0  0  2  0  0  0  0  0  0
  -23.1090   -2.1380  -37.1080 N   0  0  0  0  0  0  0  0  0  0  0  0
  -22.9750   -3.1490  -37.2580 H   0  0  0  0  0  0  0  0  0  0  0  0
  -22.9650   -1.2950  -38.2470 C   0  0  0  0  0  0  0  0  0  0  0  0
  -22.4370   -1.7470  -39.4350 C   0  0  0  0  0  3  0  0  0  0  0  0
  -22.3080   -0.9260  -40.5260 C   0  0  0  0  0  3  0  0  0  0  0  0
  -22.7070    0.3700  -40.4420 C   0  0  0  0  0  0  0  0  0  0  0  0
  -23.2350    0.8270  -39.2540 C   0  0  0  0  0  3  0  0  0  0  0  0
  -23.3710    0.0100  -38.1510 C   0  0  0  0  0  3  0  0  0  0  0  0
  -22.5890    1.2160  -41.5190 O   0  0  0  0  0  0  0  0  0  0  0  0
  -22.6260    2.6170  -41.4000 C   0  0  0  0  0  1  0  0  0  0  0  0
  -20.6980   -3.9020  -32.3560 C   0  0  0  0  0  2  0  0  0  0  0  0
  -21.4480   -3.8400  -31.0740 C   0  0  0  0  0  0  0  0  0  0  0  0
  -22.6790   -4.1090  -31.1060 O   0  0  0  0  0  0  0  0  0  0  0  0
  -20.8310   -3.4890  -29.8130 C   0  0  0  0  0  0  0  0  0  0  0  0
  -20.7150   -4.3930  -28.7820 C   0  0  0  0  0  3  0  0  0  0  0  0
  -20.1190   -4.0410  -27.5750 C   0  0  0  0  0  3  0  0  0  0  0  0
  -19.6270   -2.7610  -27.3890 C   0  0  0  0  0  0  0  0  0  0  0  0
  -18.8050   -2.2830  -25.7160 Br  0  0  0  0  0  0  0  0  0  0  0  0
  -19.7380   -1.8510  -28.4140 C   0  0  0  0  0  3  0  0  0  0  0  0
  -20.3310   -2.2250  -29.5950 C   0  0  0  0  0  3  0  0  0  0  0  0
  1 22  1  0  0  0  0
  2  1  1  0  0  0  0
  3  4  1  0  0  0  0
  3  2  2  0  0  0  0
  4  5  1  0  0  0  0
  5  1  1  0  0  0  0
  5  6  1  6  0  0  0
  6  7  1  0  0  0  0
  8  7  1  0  0  0  0
  9  8  1  0  0  0  0
 10  4  1  0  0  0  0
 10  9  1  0  0  0  0
 11  3  1  0  0  0  0
 12 11  1  0  0  0  0
 13 12  1  0  0  0  0
 14 19  1  0  0  0  0
 14 12  1  0  0  0  0
 15 14  2  0  0  0  0
 16 17  2  0  0  0  0
 16 15  1  0  0  0  0
 17 18  1  0  0  0  0
 18 19  2  0  0  0  0
 20 21  1  0  0  0  0
 20 17  1  0  0  0  0
 22 23  1  0  0  0  0
 23 25  1  0  0  0  0
 24 23  2  0  0  0  0
 25 31  2  0  0  0  0
 25 26  1  0  0  0  0
 26 27  2  0  0  0  0
 27 28  1  0  0  0  0
 28 29  1  0  0  0  0
 30 28  2  0  0  0  0
 31 30  1  0  0  0  0
M  END
>  <Pose>
1

>  <Score>
-9.057

$$$$
