/Users/jonathanwahrer/Desktop/Msc/3_Semester/Drug_Design_Praktikum/waehrer_HTS_screening/HTS_experiment/out/docking_results/vina_output/5l4q/0827_docked.pdbqt
 OpenBabel03212218193D

 29 32  0  0  1  0  0  0  0  0999 V2000
  -22.8350    0.6770  -34.7570 C   0  0  2  0  0  0  0  0  0  0  0  0
  -21.4920    0.7000  -34.1830 N   0  0  0  0  0  4  0  0  0  0  0  0
  -21.2930   -0.4270  -33.4240 C   0  0  0  0  0  0  0  0  0  0  0  0
  -20.3980   -0.6690  -32.4990 C   0  0  0  0  0  3  0  0  0  0  0  0
  -20.0890   -1.8400  -31.6290 C   0  0  0  0  0  2  0  0  0  0  0  0
  -21.1000   -2.9410  -31.7000 C   0  0  0  0  0  2  0  0  0  0  0  0
  -21.2750   -3.4470  -33.1120 C   0  0  0  0  0  2  0  0  0  0  0  0
  -22.4650   -2.7680  -33.7600 C   0  0  0  0  0  2  0  0  0  0  0  0
  -22.3700   -1.3440  -33.7290 N   0  0  0  0  0  0  0  0  0  0  0  0
  -23.5420   -0.5100  -34.0280 C   0  0  0  0  0  2  0  0  0  0  0  0
  -21.6800    1.4750  -33.3690 H   0  0  0  0  0  0  0  0  0  0  0  0
  -20.5270    1.3240  -34.9280 C   0  0  0  0  0  0  0  0  0  0  0  0
  -19.5500    0.7010  -35.6460 C   0  0  0  0  0  3  0  0  0  0  0  0
  -18.4850    1.3920  -36.2480 C   0  0  0  0  0  3  0  0  0  0  0  0
  -18.3810    2.7540  -36.1370 C   0  0  0  0  0  0  0  0  0  0  0  0
  -19.3730    3.3960  -35.4100 C   0  0  0  0  0  3  0  0  0  0  0  0
  -20.4150    2.7140  -34.8200 C   0  0  0  0  0  3  0  0  0  0  0  0
  -17.3320    3.4510  -36.7140 O   0  0  0  0  0  0  0  0  0  0  0  0
  -17.1740    4.8470  -36.6860 C   0  0  0  0  0  2  0  0  0  0  0  0
  -16.1910    5.1740  -37.8270 C   0  0  0  0  0  1  0  0  0  0  0  0
  -22.7960    0.2030  -36.1700 C   0  0  0  0  0  0  0  0  0  0  0  0
  -22.9560   -1.1190  -36.5140 C   0  0  0  0  0  3  0  0  0  0  0  0
  -22.9210   -1.5120  -37.8350 C   0  0  0  0  0  3  0  0  0  0  0  0
  -22.7230   -0.5790  -38.8360 C   0  0  0  0  0  0  0  0  0  0  0  0
  -22.6680   -1.1470  -40.6410 Br  0  0  0  0  0  0  0  0  0  0  0  0
  -22.5620    0.7440  -38.5080 C   0  0  0  0  0  3  0  0  0  0  0  0
  -22.6020    1.1200  -37.1580 C   0  0  0  0  0  3  0  0  0  0  0  0
  -23.5490    1.7840  -34.5050 O   0  0  0  0  0  0  0  0  0  0  0  0
  -23.1100    2.6150  -34.2690 H   0  0  0  0  0  0  0  0  0  0  0  0
  1 28  1  1  0  0  0
  1  2  1  0  0  0  0
  1 10  1  0  0  0  0
  2  3  1  0  0  0  0
  2 11  1  0  0  0  0
  3  4  2  0  0  0  0
  4  5  1  0  0  0  0
  6  5  1  0  0  0  0
  7  6  1  0  0  0  0
  8  9  1  0  0  0  0
  8  7  1  0  0  0  0
  9  3  1  0  0  0  0
 10  9  1  0  0  0  0
 12 17  1  0  0  0  0
 12  2  1  0  0  0  0
 13 12  2  0  0  0  0
 14 15  2  0  0  0  0
 14 13  1  0  0  0  0
 15 16  1  0  0  0  0
 16 17  2  0  0  0  0
 18 19  1  0  0  0  0
 18 15  1  0  0  0  0
 20 19  1  0  0  0  0
 21  1  1  0  0  0  0
 22 21  1  0  0  0  0
 23 22  2  0  0  0  0
 24 26  2  0  0  0  0
 24 23  1  0  0  0  0
 25 24  1  0  0  0  0
 26 27  1  0  0  0  0
 27 21  2  0  0  0  0
 28 29  1  0  0  0  0
M  END
>  <Pose>
1

>  <Score>
-6.876

$$$$
