/Users/jonathanwahrer/Desktop/Msc/3_Semester/Drug_Design_Praktikum/waehrer_HTS_screening/HTS_experiment/out/docking_results/vina_output/5l4q/0834_docked.pdbqt
 OpenBabel03212218193D

 28 31  0  0  1  0  0  0  0  0999 V2000
  -21.3390   -0.6240  -34.0350 C   0  0  2  0  0  0  0  0  0  0  0  0
  -20.7020    0.5030  -34.6370 N   0  0  0  0  0  0  0  0  0  0  0  0
  -19.3030    0.7140  -34.8480 C   0  0  0  0  0  3  0  0  0  0  0  0
  -18.7520    2.0400  -34.4890 C   0  0  0  0  0  3  0  0  0  0  0  0
  -19.7060    3.0600  -33.9840 C   0  0  0  0  0  2  0  0  0  0  0  0
  -20.6040    3.6110  -35.0920 C   0  0  0  0  0  2  0  0  0  0  0  0
  -21.7680    2.6780  -35.2000 C   0  0  0  0  0  3  0  0  0  0  0  0
  -21.8070    1.3710  -35.0070 C   0  0  0  0  0  0  0  0  0  0  0  0
  -22.9850    0.5820  -35.1220 N   0  0  0  0  0  4  0  0  0  0  0  0
  -22.8310   -0.2790  -33.9880 C   0  0  0  0  0  2  0  0  0  0  0  0
  -23.8110    1.2250  -35.0310 H   0  0  0  0  0  0  0  0  0  0  0  0
  -20.9900   -0.9510  -32.6540 C   0  0  0  0  0  0  0  0  0  0  0  0
  -20.6900   -0.1010  -31.6430 C   0  0  0  0  0  3  0  0  0  0  0  0
  -20.3760   -0.5490  -30.3660 C   0  0  0  0  0  3  0  0  0  0  0  0
  -20.3630   -1.9000  -30.0880 C   0  0  0  0  0  0  0  0  0  0  0  0
  -19.9390   -2.5450  -28.3380 Br  0  0  0  0  0  0  0  0  0  0  0  0
  -20.6670   -2.7650  -31.1120 C   0  0  0  0  0  3  0  0  0  0  0  0
  -20.9790   -2.3340  -32.3750 C   0  0  0  0  0  3  0  0  0  0  0  0
  -21.1420   -1.8080  -34.7720 O   0  0  0  0  0  0  0  0  0  0  0  0
  -21.9430   -2.3620  -34.5840 H   0  0  0  0  0  0  0  0  0  0  0  0
  -22.9670   -0.0960  -36.3510 C   0  0  0  0  0  0  0  0  0  0  0  0
  -23.7780   -1.2270  -36.5620 C   0  0  0  0  0  3  0  0  0  0  0  0
  -23.7800   -1.9120  -37.7470 C   0  0  0  0  0  3  0  0  0  0  0  0
  -22.9780   -1.5150  -38.7960 C   0  0  0  0  0  0  0  0  0  0  0  0
  -22.1800   -0.4150  -38.6150 C   0  0  0  0  0  3  0  0  0  0  0  0
  -22.1770    0.2750  -37.4200 C   0  0  0  0  0  3  0  0  0  0  0  0
  -22.9880   -2.2250  -40.0110 O   0  0  0  0  0  0  0  0  0  0  0  0
  -23.8130   -3.3500  -40.1600 C   0  0  0  0  0  1  0  0  0  0  0  0
  1 19  1  6  0  0  0
  1 10  1  0  0  0  0
  1 12  1  0  0  0  0
  2  1  1  0  0  0  0
  3  2  1  0  0  0  0
  3  4  2  0  0  0  0
  4  5  1  0  0  0  0
  6  5  1  0  0  0  0
  7  6  1  0  0  0  0
  7  8  2  0  0  0  0
  8  2  1  0  0  0  0
  9 11  1  0  0  0  0
  9  8  1  0  0  0  0
  9 10  1  0  0  0  0
 12 18  2  0  0  0  0
 12 13  1  0  0  0  0
 13 14  2  0  0  0  0
 14 15  1  0  0  0  0
 15 16  1  0  0  0  0
 17 15  2  0  0  0  0
 18 17  1  0  0  0  0
 19 20  1  0  0  0  0
 21  9  1  0  0  0  0
 22 21  1  0  0  0  0
 23 22  2  0  0  0  0
 24 25  2  0  0  0  0
 24 23  1  0  0  0  0
 25 26  1  0  0  0  0
 26 21  2  0  0  0  0
 27 24  1  0  0  0  0
 28 27  1  0  0  0  0
M  END
>  <Pose>
1

>  <Score>
-8.215

$$$$
