/Users/jonathanwahrer/Desktop/Msc/3_Semester/Drug_Design_Praktikum/waehrer_HTS_screening/HTS_experiment/out/docking_results/vina_output/5l4q/0835_docked.pdbqt
 OpenBabel03212218193D

 27 30  0  0  1  0  0  0  0  0999 V2000
  -20.2150   -1.0520  -30.8190 C   0  0  2  0  0  0  0  0  0  0  0  0
  -20.7540   -2.3810  -31.0140 N   0  0  0  0  0  0  0  0  0  0  0  0
  -21.3780   -3.4130  -30.2120 C   0  0  0  0  0  2  0  0  0  0  0  0
  -22.4360   -4.1750  -30.9830 C   0  0  0  0  0  2  0  0  0  0  0  0
  -21.7940   -4.7740  -32.1900 C   0  0  0  0  0  2  0  0  0  0  0  0
  -21.0330   -3.7670  -32.9590 C   0  0  0  0  0  3  0  0  0  0  0  0
  -20.5520   -2.6540  -32.3990 C   0  0  0  0  0  0  0  0  0  0  0  0
  -19.7940   -1.6350  -33.0130 N   0  0  0  0  0  4  0  0  0  0  0  0
  -19.1320   -0.9940  -31.8580 C   0  0  0  0  0  2  0  0  0  0  0  0
  -18.9590   -2.0480  -33.5460 H   0  0  0  0  0  0  0  0  0  0  0  0
  -19.6910   -0.8300  -29.4490 C   0  0  0  0  0  0  0  0  0  0  0  0
  -19.7300    0.4310  -28.8940 C   0  0  0  0  0  3  0  0  0  0  0  0
  -19.2620    0.7020  -27.6090 C   0  0  0  0  0  3  0  0  0  0  0  0
  -18.7390   -0.3310  -26.8630 C   0  0  0  0  0  0  0  0  0  0  0  0
  -18.0830    0.0280  -25.0940 Br  0  0  0  0  0  0  0  0  0  0  0  0
  -18.6920   -1.5970  -27.4050 C   0  0  0  0  0  3  0  0  0  0  0  0
  -19.1610   -1.8490  -28.6810 C   0  0  0  0  0  3  0  0  0  0  0  0
  -21.1380   -0.0510  -31.1020 O   0  0  0  0  0  0  0  0  0  0  0  0
  -22.0210   -0.3940  -30.8250 H   0  0  0  0  0  0  0  0  0  0  0  0
  -20.4840   -0.7020  -33.7790 C   0  0  0  0  0  0  0  0  0  0  0  0
  -19.9140    0.4400  -34.2840 C   0  0  0  0  0  0  0  0  0  0  0  0
  -20.6730    1.3440  -35.0300 C   0  0  0  0  0  3  0  0  0  0  0  0
  -22.0020    1.1140  -35.2740 C   0  0  0  0  0  3  0  0  0  0  0  0
  -22.5830   -0.0310  -34.7730 C   0  0  0  0  0  3  0  0  0  0  0  0
  -21.8320   -0.9160  -34.0410 C   0  0  0  0  0  3  0  0  0  0  0  0
  -18.5830    0.7500  -34.0880 O   0  0  0  0  0  0  0  0  0  0  0  0
  -18.1500    2.0680  -34.0340 C   0  0  0  0  0  1  0  0  0  0  0  0
  1 18  1  6  0  0  0
  1 11  1  0  0  0  0
  2  1  1  0  0  0  0
  2  3  1  0  0  0  0
  4  3  1  0  0  0  0
  5  4  1  0  0  0  0
  6  7  2  0  0  0  0
  6  5  1  0  0  0  0
  7  2  1  0  0  0  0
  8  7  1  0  0  0  0
  8  9  1  0  0  0  0
  9  1  1  0  0  0  0
 10  8  1  0  0  0  0
 11 12  2  0  0  0  0
 11 17  1  0  0  0  0
 12 13  1  0  0  0  0
 13 14  2  0  0  0  0
 14 15  1  0  0  0  0
 16 14  1  0  0  0  0
 17 16  2  0  0  0  0
 18 19  1  0  0  0  0
 20  8  1  0  0  0  0
 21 26  1  0  0  0  0
 21 20  2  0  0  0  0
 22 21  1  0  0  0  0
 23 22  2  0  0  0  0
 23 24  1  0  0  0  0
 24 25  2  0  0  0  0
 25 20  1  0  0  0  0
 26 27  1  0  0  0  0
M  END
>  <Pose>
1

>  <Score>
-7.759

$$$$
