/Users/jonathanwahrer/Desktop/Msc/3_Semester/Drug_Design_Praktikum/waehrer_HTS_screening/HTS_experiment/out/docking_results/vina_output/5l4q/0847_docked.pdbqt
 OpenBabel03212218203D

 31 34  0  0  1  0  0  0  0  0999 V2000
  -19.8800   -0.3510  -33.5600 C   0  0  0  0  0  0  0  0  0  0  0  0
  -21.1690   -0.1040  -33.8440 N   0  0  0  0  0  0  0  0  0  0  0  0
  -21.8420   -1.2680  -33.7730 C   0  0  1  0  0  3  0  0  0  0  0  0
  -20.9500   -2.2580  -33.4380 N   0  0  0  0  0  0  0  0  0  0  0  0
  -19.7750   -1.6630  -33.3170 N   0  0  0  0  0  0  0  0  0  0  0  0
  -23.2520   -1.6140  -33.9750 C   0  0  0  0  0  2  0  0  0  0  0  0
  -23.9660   -0.7920  -35.0140 C   0  0  0  0  0  2  0  0  0  0  0  0
  -24.0170    0.6670  -34.6970 C   0  0  0  0  0  2  0  0  0  0  0  0
  -22.7250    1.2740  -35.1920 C   0  0  0  0  0  2  0  0  0  0  0  0
  -21.6360    1.2090  -34.1500 C   0  0  0  0  0  2  0  0  0  0  0  0
  -21.1930   -3.6250  -33.2030 C   0  0  0  0  0  3  0  0  0  0  0  0
  -21.0330   -4.1330  -31.8660 C   0  0  0  0  0  0  0  0  0  0  0  0
  -21.2530   -5.4460  -31.7890 O   0  0  0  0  0  1  0  0  0  0  0  0
  -20.6920   -3.5470  -30.6010 C   0  0  0  0  0  0  0  0  0  0  0  0
  -20.4420   -4.3640  -29.4770 C   0  0  0  0  0  3  0  0  0  0  0  0
  -20.1180   -3.8580  -28.2460 C   0  0  0  0  0  3  0  0  0  0  0  0
  -20.0200   -2.5050  -28.0450 C   0  0  0  0  0  0  0  0  0  0  0  0
  -20.2540   -1.6760  -29.1080 C   0  0  0  0  0  3  0  0  0  0  0  0
  -20.5870   -2.2100  -30.3670 C   0  0  0  0  0  3  0  0  0  0  0  0
  -19.6900   -1.9910  -26.7920 O   0  0  0  0  0  0  0  0  0  0  0  0
  -19.3360   -2.8140  -25.7080 C   0  0  0  0  0  1  0  0  0  0  0  0
  -18.7140    0.5880  -33.5010 C   0  0  0  0  0  2  0  0  0  0  0  0
  -18.0170    0.6900  -34.7670 N   0  0  0  0  0  0  0  0  0  0  0  0
  -17.0180    0.4010  -34.8560 H   0  0  0  0  0  0  0  0  0  0  0  0
  -18.6420    1.1870  -35.9570 C   0  0  0  0  0  0  0  0  0  0  0  0
  -18.8060    2.5420  -36.1460 C   0  0  0  0  0  3  0  0  0  0  0  0
  -19.4000    3.0120  -37.2870 C   0  0  0  0  0  3  0  0  0  0  0  0
  -19.8430    2.1240  -38.2620 C   0  0  0  0  0  0  0  0  0  0  0  0
  -20.6660    2.7770  -39.8460 Br  0  0  0  0  0  0  0  0  0  0  0  0
  -19.6880    0.7600  -38.0910 C   0  0  0  0  0  3  0  0  0  0  0  0
  -19.0870    0.3210  -36.9340 C   0  0  0  0  0  3  0  0  0  0  0  0
  1 22  1  0  0  0  0
  1  5  2  0  0  0  0
  2  3  1  0  0  0  0
  2  1  1  0  0  0  0
  3  6  1  1  0  0  0
  3  4  1  0  0  0  0
  4  5  1  0  0  0  0
  4 11  1  0  0  0  0
  7  8  1  0  0  0  0
  7  6  1  0  0  0  0
  9  8  1  0  0  0  0
  9 10  1  0  0  0  0
 10  2  1  0  0  0  0
 11 12  2  0  0  0  0
 12 13  1  0  0  0  0
 12 14  1  0  0  0  0
 14 19  2  0  0  0  0
 14 15  1  0  0  0  0
 15 16  2  0  0  0  0
 16 17  1  0  0  0  0
 17 20  1  0  0  0  0
 18 17  2  0  0  0  0
 19 18  1  0  0  0  0
 20 21  1  0  0  0  0
 23 22  1  0  0  0  0
 24 23  1  0  0  0  0
 25 23  1  0  0  0  0
 26 25  1  0  0  0  0
 27 26  2  0  0  0  0
 28 30  2  0  0  0  0
 28 27  1  0  0  0  0
 29 28  1  0  0  0  0
 30 31  1  0  0  0  0
 31 25  2  0  0  0  0
M  END
>  <Pose>
1

>  <Score>
-8.636

$$$$
