/Users/jonathanwahrer/Desktop/Msc/3_Semester/Drug_Design_Praktikum/waehrer_HTS_screening/HTS_experiment/out/docking_results/vina_output/5l4q/0850_docked.pdbqt
 OpenBabel03212218203D

 29 32  0  0  1  0  0  0  0  0999 V2000
  -20.2940    1.1870  -33.5320 N   0  0  0  0  0  4  0  0  0  0  0  0
  -19.5210   -0.0100  -33.6750 C   0  0  1  0  0  0  0  0  0  0  0  0
  -19.9880   -0.4590  -35.0590 C   0  0  0  0  0  2  0  0  0  0  0  0
  -21.4260   -0.1480  -35.0370 N   0  0  0  0  0  0  0  0  0  0  0  0
  -22.3190   -0.7600  -35.9560 C   0  0  0  0  0  2  0  0  0  0  0  0
  -23.7610   -0.3940  -35.7760 C   0  0  0  0  0  2  0  0  0  0  0  0
  -24.1420   -0.5630  -34.3310 C   0  0  0  0  0  2  0  0  0  0  0  0
  -24.1000    0.8530  -33.7380 C   0  0  0  0  0  2  0  0  0  0  0  0
  -22.7000    1.1810  -33.4050 C   0  0  0  0  0  3  0  0  0  0  0  0
  -21.5810    0.7800  -33.9640 C   0  0  0  0  0  0  0  0  0  0  0  0
  -20.2700    1.4470  -32.4960 H   0  0  0  0  0  0  0  0  0  0  0  0
  -18.1750    0.0850  -33.5150 O   0  0  0  0  0  0  0  0  0  0  0  0
  -17.8840    0.9380  -33.1440 H   0  0  0  0  0  0  0  0  0  0  0  0
  -19.9790   -1.0830  -32.7460 C   0  0  0  0  0  0  0  0  0  0  0  0
  -20.3660   -2.3340  -33.1230 C   0  0  0  0  0  3  0  0  0  0  0  0
  -20.7830   -3.3080  -32.1910 C   0  0  0  0  0  3  0  0  0  0  0  0
  -20.8150   -3.0260  -30.8460 C   0  0  0  0  0  0  0  0  0  0  0  0
  -20.4270   -1.7670  -30.4540 C   0  0  0  0  0  3  0  0  0  0  0  0
  -20.0220   -0.8210  -31.3670 C   0  0  0  0  0  3  0  0  0  0  0  0
  -21.2240   -3.9890  -29.9090 O   0  0  0  0  0  0  0  0  0  0  0  0
  -20.3620   -5.0190  -29.4860 C   0  0  0  0  0  2  0  0  0  0  0  0
  -20.3590   -5.1910  -28.0000 C   0  0  0  0  0  1  0  0  0  0  0  0
  -19.8670    2.3170  -34.1970 C   0  0  0  0  0  0  0  0  0  0  0  0
  -18.8230    3.0700  -33.6650 C   0  0  0  0  0  3  0  0  0  0  0  0
  -18.3300    4.2020  -34.2970 C   0  0  0  0  0  3  0  0  0  0  0  0
  -18.8620    4.6290  -35.4930 C   0  0  0  0  0  0  0  0  0  0  0  0
  -18.1800    6.1780  -36.3930 Br  0  0  0  0  0  0  0  0  0  0  0  0
  -19.8830    3.9140  -36.0380 C   0  0  0  0  0  3  0  0  0  0  0  0
  -20.3590    2.7820  -35.3810 C   0  0  0  0  0  3  0  0  0  0  0  0
  1 11  1  0  0  0  0
  2  1  1  0  0  0  0
  2 12  1  1  0  0  0
  2 14  1  0  0  0  0
  3  4  1  0  0  0  0
  3  2  1  0  0  0  0
  4 10  1  0  0  0  0
  5  6  1  0  0  0  0
  5  4  1  0  0  0  0
  6  7  1  0  0  0  0
  7  8  1  0  0  0  0
  8  9  1  0  0  0  0
 10  1  1  0  0  0  0
 10  9  2  0  0  0  0
 12 13  1  0  0  0  0
 14 19  1  0  0  0  0
 15 14  2  0  0  0  0
 15 16  1  0  0  0  0
 16 17  2  0  0  0  0
 17 18  1  0  0  0  0
 17 20  1  0  0  0  0
 19 18  2  0  0  0  0
 20 21  1  0  0  0  0
 21 22  1  0  0  0  0
 23 24  1  0  0  0  0
 23  1  1  0  0  0  0
 25 24  2  0  0  0  0
 26 25  1  0  0  0  0
 27 26  1  0  0  0  0
 28 26  2  0  0  0  0
 28 29  1  0  0  0  0
 29 23  2  0  0  0  0
M  END
>  <Pose>
1

>  <Score>
-7.812

$$$$
