/Users/jonathanwahrer/Desktop/Msc/3_Semester/Drug_Design_Praktikum/waehrer_HTS_screening/HTS_experiment/out/docking_results/vina_output/5l4q/0860_docked.pdbqt
 OpenBabel03212218203D

 29 32  0  0  1  0  0  0  0  0999 V2000
  -16.6200    5.2480  -37.1620 Br  0  0  0  0  0  0  0  0  0  0  0  0
  -18.1350    4.3660  -36.3900 C   0  0  0  0  0  0  0  0  0  0  0  0
  -18.4110    3.0380  -36.6520 C   0  0  0  0  0  3  0  0  0  0  0  0
  -19.5010    2.4090  -36.0950 C   0  0  0  0  0  0  0  0  0  0  0  0
  -20.3020    3.1690  -35.2680 C   0  0  0  0  0  0  0  0  0  0  0  0
  -20.0320    4.4960  -35.0030 C   0  0  0  0  0  3  0  0  0  0  0  0
  -18.9390    5.1220  -35.5620 C   0  0  0  0  0  0  0  0  0  0  0  0
  -18.6570    6.5560  -35.2690 C   0  0  0  0  0  1  0  0  0  0  0  0
  -21.4000    2.5100  -34.7160 O   0  0  0  0  0  0  0  0  0  0  0  0
  -21.8900    1.2950  -35.1750 C   0  0  0  0  0  2  0  0  0  0  0  0
  -20.8720    0.3570  -35.7290 C   0  0  2  0  0  0  0  0  0  0  0  0
  -19.7230    0.9980  -36.4240 C   0  0  2  0  0  3  0  0  0  0  0  0
  -21.5810   -0.4390  -36.7360 N   0  0  0  0  0  4  0  0  0  0  0  0
  -21.7780    0.2510  -37.9640 C   0  0  0  0  0  2  0  0  0  0  0  0
  -22.1750   -0.8160  -38.9960 C   0  0  0  0  0  2  0  0  0  0  0  0
  -23.3900   -1.3290  -38.5760 O   0  0  0  0  0  0  0  0  0  0  0  0
  -23.3300   -1.9310  -37.3240 C   0  0  0  0  0  2  0  0  0  0  0  0
  -22.8370   -0.9360  -36.2630 C   0  0  0  0  0  2  0  0  0  0  0  0
  -20.9650   -1.2630  -36.9180 H   0  0  0  0  0  0  0  0  0  0  0  0
  -20.3560   -0.6250  -34.6950 C   0  0  0  0  0  2  0  0  0  0  0  0
  -20.6640   -0.2600  -33.3470 N   0  0  0  0  0  4  0  0  0  0  0  0
  -21.0360   -1.3990  -32.5280 C   0  0  0  0  0  2  0  0  0  0  0  0
  -20.3590   -1.3610  -31.1660 C   0  0  0  0  0  2  0  0  0  0  0  0
  -18.9800   -1.4480  -31.2600 O   0  0  0  0  0  0  0  0  0  0  0  0
  -18.5090   -0.8040  -32.4000 C   0  0  0  0  0  2  0  0  0  0  0  0
  -19.4770    0.3220  -32.6990 C   0  0  0  0  0  2  0  0  0  0  0  0
  -21.4090    0.4450  -33.2360 H   0  0  0  0  0  0  0  0  0  0  0  0
  -18.5150    0.3180  -36.1340 O   0  0  0  0  0  0  0  0  0  0  0  0
  -18.0290    0.7280  -35.3890 H   0  0  0  0  0  0  0  0  0  0  0  0
  1  2  1  0  0  0  0
  2  7  1  0  0  0  0
  3  2  2  0  0  0  0
  3  4  1  0  0  0  0
  4  5  2  0  0  0  0
  5  6  1  0  0  0  0
  5  9  1  0  0  0  0
  7  8  1  0  0  0  0
  7  6  2  0  0  0  0
 10  9  1  0  0  0  0
 11 10  1  0  0  0  0
 11 20  1  1  0  0  0
 12 28  1  1  0  0  0
 12  4  1  0  0  0  0
 12 11  1  0  0  0  0
 13 18  1  0  0  0  0
 13 11  1  0  0  0  0
 14 13  1  0  0  0  0
 15 16  1  0  0  0  0
 15 14  1  0  0  0  0
 16 17  1  0  0  0  0
 17 18  1  0  0  0  0
 19 13  1  0  0  0  0
 20 21  1  0  0  0  0
 21 27  1  0  0  0  0
 21 26  1  0  0  0  0
 21 22  1  0  0  0  0
 22 23  1  0  0  0  0
 24 23  1  0  0  0  0
 25 24  1  0  0  0  0
 26 25  1  0  0  0  0
 28 29  1  0  0  0  0
M  END
>  <Pose>
1

>  <Score>
-6.459

$$$$
