/Users/jonathanwahrer/Desktop/Msc/3_Semester/Drug_Design_Praktikum/waehrer_HTS_screening/HTS_experiment/out/docking_results/vina_output/5l4q/0862_docked.pdbqt
 OpenBabel03212218213D

 30 33  0  0  0  0  0  0  0  0999 V2000
  -24.0730   -0.0280  -34.4110 Br  0  0  0  0  0  0  0  0  0  0  0  0
  -22.2580    0.2960  -34.8150 C   0  0  0  0  0  0  0  0  0  0  0  0
  -21.3520    0.2570  -33.7830 C   0  0  0  0  0  0  0  0  0  0  0  0
  -19.9770    0.4810  -33.9610 C   0  0  0  0  0  0  0  0  0  0  0  0
  -19.5060    0.7580  -35.2500 C   0  0  0  0  0  3  0  0  0  0  0  0
  -20.4250    0.7940  -36.2750 C   0  0  0  0  0  0  0  0  0  0  0  0
  -21.7750    0.5710  -36.0780 C   0  0  0  0  0  0  0  0  0  0  0  0
  -22.7540    0.6180  -37.2170 C   0  0  0  0  0  1  0  0  0  0  0  0
  -19.7830    1.1700  -38.0300 Br  0  0  0  0  0  0  0  0  0  0  0  0
  -19.0680    0.4340  -32.8320 C   0  0  0  0  0  0  0  0  0  0  0  0
  -18.0670    1.1910  -32.8890 O   0  0  0  0  0  0  0  0  0  0  0  0
  -19.4030   -0.4900  -31.7320 C   0  0  0  0  0  0  0  0  0  0  0  0
  -20.8640    0.0400  -31.3740 C   0  0  0  0  0  2  0  0  0  0  0  0
  -21.7040   -0.0060  -32.4720 O   0  0  0  0  0  0  0  0  0  0  0  0
  -18.6370   -0.3680  -30.5080 C   0  0  0  0  0  2  0  0  0  0  0  0
  -19.0800   -0.0560  -29.2320 N   0  0  0  0  0  4  0  0  0  0  0  0
  -18.2120    0.3370  -28.1910 C   0  0  0  0  0  2  0  0  0  0  0  0
  -18.7270   -0.0110  -26.8000 C   0  0  0  0  0  2  0  0  0  0  0  0
  -18.7960   -1.4890  -26.5850 C   0  0  0  0  0  2  0  0  0  0  0  0
  -19.1570   -2.1370  -27.8870 C   0  0  0  0  0  2  0  0  0  0  0  0
  -19.9190   -1.1660  -28.7290 C   0  0  0  0  0  2  0  0  0  0  0  0
  -19.8520    0.7330  -29.2640 H   0  0  0  0  0  0  0  0  0  0  0  0
  -19.5560   -1.8670  -32.2570 C   0  0  0  0  0  2  0  0  0  0  0  0
  -20.7310   -2.6000  -32.0300 N   0  0  0  0  0  4  0  0  0  0  0  0
  -21.1000   -3.2740  -33.2820 C   0  0  0  0  0  2  0  0  0  0  0  0
  -22.5010   -3.8480  -33.2290 C   0  0  0  0  0  2  0  0  0  0  0  0
  -22.4530   -4.9520  -32.1600 C   0  0  0  0  0  2  0  0  0  0  0  0
  -22.0830   -4.2230  -30.8890 C   0  0  0  0  0  2  0  0  0  0  0  0
  -20.6530   -3.6830  -31.0640 C   0  0  0  0  0  2  0  0  0  0  0  0
  -21.5950   -2.0830  -31.7700 H   0  0  0  0  0  0  0  0  0  0  0  0
  2  1  1  0  0  0  0
  2  3  1  0  0  0  0
  3 14  1  0  0  0  0
  4  3  2  0  0  0  0
  4 10  1  0  0  0  0
  5  4  1  0  0  0  0
  6  7  1  0  0  0  0
  6  5  2  0  0  0  0
  7  2  2  0  0  0  0
  8  7  1  0  0  0  0
  9  6  1  0  0  0  0
 10 12  1  0  0  0  0
 11 10  2  0  0  0  0
 12 13  1  0  0  0  0
 12 15  1  0  0  0  0
 14 13  1  0  0  0  0
 15 16  1  0  0  0  0
 16 21  1  0  0  0  0
 16 17  1  0  0  0  0
 17 18  1  0  0  0  0
 18 19  1  0  0  0  0
 20 19  1  0  0  0  0
 21 20  1  0  0  0  0
 22 16  1  0  0  0  0
 23 24  1  0  0  0  0
 23 12  1  0  0  0  0
 24 30  1  0  0  0  0
 24 29  1  0  0  0  0
 25 26  1  0  0  0  0
 25 24  1  0  0  0  0
 26 27  1  0  0  0  0
 27 28  1  0  0  0  0
 29 28  1  0  0  0  0
M  END
>  <Pose>
1

>  <Score>
-7.552

$$$$
