/Users/jonathanwahrer/Desktop/Msc/3_Semester/Drug_Design_Praktikum/waehrer_HTS_screening/HTS_experiment/out/docking_results/vina_output/5l4q/0874_docked.pdbqt
 OpenBabel03212218213D

 31 34  0  0  0  0  0  0  0  0999 V2000
  -20.4240   -2.2820  -32.7270 N   0  0  0  0  0  0  0  0  0  0  0  0
  -21.1040   -3.4080  -32.7720 N   0  0  0  0  0  0  0  0  0  0  0  0
  -21.2940   -3.8800  -31.5480 N   0  0  0  0  0  0  0  0  0  0  0  0
  -20.7140   -3.0270  -30.6760 C   0  0  0  0  0  0  0  0  0  0  0  0
  -20.1910   -2.0630  -31.4050 C   0  0  0  0  0  0  0  0  0  0  0  0
  -19.5950   -1.1870  -30.5110 C   0  0  0  0  0  0  0  0  0  0  0  0
  -18.9930   -0.1430  -30.8450 O   0  0  0  0  0  0  0  0  0  0  0  0
  -19.7530   -1.6100  -29.2440 N   0  0  0  0  0  0  0  0  0  0  0  0
  -20.4510   -2.7570  -29.3460 C   0  0  0  0  0  0  0  0  0  0  0  0
  -20.8120   -3.4780  -28.3900 O   0  0  0  0  0  0  0  0  0  0  0  0
  -21.4360   -3.8450  -33.6700 H   0  0  0  0  0  0  0  0  0  0  0  0
  -21.8050   -4.7610  -31.2980 H   0  0  0  0  0  0  0  0  0  0  0  0
  -19.9970   -1.4340  -33.8240 C   0  0  0  0  0  2  0  0  0  0  0  0
  -21.1910   -0.8940  -34.5320 C   0  0  0  0  0  0  0  0  0  0  0  0
  -21.2020   -0.7350  -35.9150 N   0  0  0  0  0  0  0  0  0  0  0  0
  -20.3020   -1.0260  -36.4200 H   0  0  0  0  0  0  0  0  0  0  0  0
  -22.1640   -0.5990  -33.8190 O   0  0  0  0  0  0  0  0  0  0  0  0
  -22.2580   -0.2380  -36.7310 C   0  0  0  0  0  0  0  0  0  0  0  0
  -23.3260   -1.0840  -37.0670 C   0  0  0  0  0  0  0  0  0  0  0  0
  -23.3110   -2.3630  -36.5900 F   0  0  0  0  0  0  0  0  0  0  0  0
  -24.3730   -0.6680  -37.8490 C   0  0  0  0  0  3  0  0  0  0  0  0
  -24.4190    0.6140  -38.3460 C   0  0  0  0  0  3  0  0  0  0  0  0
  -23.3830    1.4400  -38.0230 C   0  0  0  0  0  3  0  0  0  0  0  0
  -22.3180    1.0360  -37.2330 C   0  0  0  0  0  3  0  0  0  0  0  0
  -19.2760   -0.9660  -28.0630 C   0  0  0  0  0  0  0  0  0  0  0  0
  -18.7670   -1.6960  -27.0070 C   0  0  0  0  0  3  0  0  0  0  0  0
  -18.3000   -1.0890  -25.8570 C   0  0  0  0  0  3  0  0  0  0  0  0
  -18.3260    0.2830  -25.7170 C   0  0  0  0  0  0  0  0  0  0  0  0
  -18.8300    1.0310  -26.7590 C   0  0  0  0  0  3  0  0  0  0  0  0
  -17.6870    1.1500  -24.1370 Br  0  0  0  0  0  0  0  0  0  0  0  0
  -19.2920    0.4050  -27.9000 C   0  0  0  0  0  3  0  0  0  0  0  0
  1  5  1  0  0  0  0
  2  1  1  0  0  0  0
  2  3  1  0  0  0  0
  3 12  1  0  0  0  0
  3  4  1  0  0  0  0
  4  9  1  0  0  0  0
  5  4  2  0  0  0  0
  5  6  1  0  0  0  0
  6  8  1  0  0  0  0
  7  6  2  0  0  0  0
  8 25  1  0  0  0  0
  9  8  1  0  0  0  0
  9 10  2  0  0  0  0
 11  2  1  0  0  0  0
 13  1  1  0  0  0  0
 14 13  1  0  0  0  0
 14 17  2  0  0  0  0
 15 14  1  0  0  0  0
 16 15  1  0  0  0  0
 18 15  1  0  0  0  0
 19 18  1  0  0  0  0
 19 20  1  0  0  0  0
 21 19  2  0  0  0  0
 22 23  2  0  0  0  0
 22 21  1  0  0  0  0
 23 24  1  0  0  0  0
 24 18  2  0  0  0  0
 25 31  2  0  0  0  0
 25 26  1  0  0  0  0
 26 27  2  0  0  0  0
 27 28  1  0  0  0  0
 28 30  1  0  0  0  0
 29 28  2  0  0  0  0
 31 29  1  0  0  0  0
M  END
>  <Pose>
1

>  <Score>
-9.545

$$$$
