/Users/jonathanwahrer/Desktop/Msc/3_Semester/Drug_Design_Praktikum/waehrer_HTS_screening/HTS_experiment/out/docking_results/vina_output/5l4q/0892_docked.pdbqt
 OpenBabel03212218223D

 27 30  0  0  1  0  0  0  0  0999 V2000
  -23.9720    1.4830  -37.3910 C   0  0  2  0  0  3  0  0  0  0  0  0
  -22.9420    2.2860  -36.7710 N   0  0  0  0  0  0  0  0  0  0  0  0
  -22.0520    1.6850  -35.8250 C   0  0  0  0  0  0  0  0  0  0  0  0
  -20.4400    2.0670  -35.2990 S   0  0  0  0  0  0  0  0  0  0  0  0
  -20.2140    0.8190  -34.1670 C   0  0  0  0  0  0  0  0  0  0  0  0
  -21.3830    0.1430  -34.2270 C   0  0  0  0  0  0  0  0  0  0  0  0
  -22.3300    0.5800  -35.0740 C   0  0  0  0  0  0  0  0  0  0  0  0
  -23.6980    0.0610  -35.3600 C   0  0  0  0  0  0  0  0  0  0  0  0
  -24.1450   -0.9490  -34.7670 O   0  0  0  0  0  0  0  0  0  0  0  0
  -24.5320    0.6940  -36.3080 N   0  0  0  0  0  0  0  0  0  0  0  0
  -21.4650   -1.0580  -33.2930 C   0  0  0  0  0  2  0  0  0  0  0  0
  -20.4800   -0.8590  -32.1870 C   0  0  0  0  0  2  0  0  0  0  0  0
  -19.1590   -0.8330  -32.8350 N   0  0  0  0  0  4  0  0  0  0  0  0
  -19.0370    0.5260  -33.3170 C   0  0  0  0  0  2  0  0  0  0  0  0
  -18.1120   -1.1870  -31.9060 C   0  0  0  0  0  1  0  0  0  0  0  0
  -22.8080    3.3010  -36.9760 H   0  0  0  0  0  0  0  0  0  0  0  0
  -25.5790    0.6060  -36.2480 H   0  0  0  0  0  0  0  0  0  0  0  0
  -19.1830   -1.4580  -33.6680 H   0  0  0  0  0  0  0  0  0  0  0  0
  -23.2880    0.6050  -38.3760 C   0  0  0  0  0  0  0  0  0  0  0  0
  -22.3370    1.0410  -39.2670 C   0  0  0  0  0  0  0  0  0  0  0  0
  -21.7330    0.1770  -40.1810 C   0  0  0  0  0  0  0  0  0  0  0  0
  -21.9660    2.3670  -39.2630 O   0  0  0  0  0  1  0  0  0  0  0  0
  -20.2850    0.9080  -41.5200 I   0  0  0  0  0  0  0  0  0  0  0  0
  -22.0630   -1.1430  -40.2250 C   0  0  0  0  0  3  0  0  0  0  0  0
  -23.0110   -1.6000  -39.3410 C   0  0  0  0  0  0  0  0  0  0  0  0
  -23.6110   -0.7580  -38.4410 C   0  0  0  0  0  3  0  0  0  0  0  0
  -23.4760   -3.4460  -39.3990 Br  0  0  0  0  0  0  0  0  0  0  0  0
  1 19  1  6  0  0  0
  1  2  1  0  0  0  0
  1 10  1  0  0  0  0
  2  3  1  0  0  0  0
  3  4  1  0  0  0  0
  3  7  2  0  0  0  0
  4  5  1  0  0  0  0
  5 14  1  0  0  0  0
  6  5  2  0  0  0  0
  6 11  1  0  0  0  0
  7  6  1  0  0  0  0
  8  7  1  0  0  0  0
  8  9  2  0  0  0  0
 10 17  1  0  0  0  0
 10  8  1  0  0  0  0
 11 12  1  0  0  0  0
 13 12  1  0  0  0  0
 13 15  1  0  0  0  0
 14 13  1  0  0  0  0
 16  2  1  0  0  0  0
 18 13  1  0  0  0  0
 20 22  1  0  0  0  0
 20 19  2  0  0  0  0
 21 20  1  0  0  0  0
 23 21  1  0  0  0  0
 24 21  2  0  0  0  0
 24 25  1  0  0  0  0
 25 26  2  0  0  0  0
 26 19  1  0  0  0  0
 27 25  1  0  0  0  0
M  END
>  <Pose>
1

>  <Score>
-6.482

$$$$
