/Users/jonathanwahrer/Desktop/Msc/3_Semester/Drug_Design_Praktikum/waehrer_HTS_screening/HTS_experiment/out/docking_results/vina_output/5l4q/0895_docked.pdbqt
 OpenBabel03212218223D

 28 31  0  0  1  0  0  0  0  0999 V2000
  -20.9270   -0.1010  -33.0450 C   0  0  2  0  0  3  0  0  0  0  0  0
  -22.2410   -0.3510  -33.6390 N   0  0  0  0  0  0  0  0  0  0  0  0
  -22.4670   -0.1540  -35.0570 C   0  0  0  0  0  0  0  0  0  0  0  0
  -23.8950   -0.0500  -36.0080 S   0  0  0  0  0  0  0  0  0  0  0  0
  -23.1860    0.1830  -37.5310 C   0  0  0  0  0  0  0  0  0  0  0  0
  -21.8440    0.1730  -37.2630 C   0  0  0  0  0  0  0  0  0  0  0  0
  -21.4780   -0.0020  -35.9750 C   0  0  0  0  0  0  0  0  0  0  0  0
  -20.0910   -0.0500  -35.4270 C   0  0  0  0  0  0  0  0  0  0  0  0
  -19.0770    0.0780  -36.1770 O   0  0  0  0  0  0  0  0  0  0  0  0
  -19.9040   -0.2440  -34.0440 N   0  0  0  0  0  0  0  0  0  0  0  0
  -21.0130    0.3710  -38.5260 C   0  0  0  0  0  2  0  0  0  0  0  0
  -21.4830   -0.5900  -39.5860 C   0  0  0  0  0  2  0  0  0  0  0  0
  -22.9000   -0.6750  -39.7060 N   0  0  0  0  0  4  0  0  0  0  0  0
  -23.5900    0.3790  -38.9710 C   0  0  0  0  0  2  0  0  0  0  0  0
  -23.3150   -1.9320  -39.0640 C   0  0  0  0  0  1  0  0  0  0  0  0
  -23.0450   -0.6740  -33.0710 H   0  0  0  0  0  0  0  0  0  0  0  0
  -18.9470   -0.5140  -33.6960 H   0  0  0  0  0  0  0  0  0  0  0  0
  -23.2420   -0.6910  -40.7030 H   0  0  0  0  0  0  0  0  0  0  0  0
  -20.7230   -1.1830  -32.0430 C   0  0  0  0  0  0  0  0  0  0  0  0
  -20.9290   -2.4960  -32.4460 C   0  0  0  0  0  3  0  0  0  0  0  0
  -20.7730   -3.5660  -31.6170 C   0  0  0  0  0  0  0  0  0  0  0  0
  -20.3850   -3.3130  -30.3020 C   0  0  0  0  0  0  0  0  0  0  0  0
  -20.1730   -2.0180  -29.8760 C   0  0  0  0  0  0  0  0  0  0  0  0
  -20.2160   -4.3730  -29.4320 O   0  0  0  0  0  1  0  0  0  0  0  0
  -19.5870   -1.6580  -27.8820 I   0  0  0  0  0  0  0  0  0  0  0  0
  -20.3430   -0.9550  -30.7490 C   0  0  0  0  0  3  0  0  0  0  0  0
  -20.9720   -4.8880  -31.9900 O   0  0  0  0  0  0  0  0  0  0  0  0
  -22.2460   -5.2690  -32.4740 C   0  0  0  0  0  1  0  0  0  0  0  0
  1 19  1  1  0  0  0
  2 16  1  0  0  0  0
  2  1  1  0  0  0  0
  3  2  1  0  0  0  0
  4  3  1  0  0  0  0
  5  6  2  0  0  0  0
  5  4  1  0  0  0  0
  6  7  1  0  0  0  0
  7  8  1  0  0  0  0
  7  3  2  0  0  0  0
  8 10  1  0  0  0  0
  9  8  2  0  0  0  0
 10 17  1  0  0  0  0
 10  1  1  0  0  0  0
 11  6  1  0  0  0  0
 12 11  1  0  0  0  0
 13 12  1  0  0  0  0
 13 15  1  0  0  0  0
 13 14  1  0  0  0  0
 14  5  1  0  0  0  0
 18 13  1  0  0  0  0
 19 26  1  0  0  0  0
 20 19  2  0  0  0  0
 20 21  1  0  0  0  0
 21 22  2  0  0  0  0
 22 23  1  0  0  0  0
 22 24  1  0  0  0  0
 23 25  1  0  0  0  0
 26 23  2  0  0  0  0
 27 21  1  0  0  0  0
 28 27  1  0  0  0  0
M  END
>  <Pose>
1

>  <Score>
-8.563

$$$$
