/Users/jonathanwahrer/Desktop/Msc/3_Semester/Drug_Design_Praktikum/waehrer_HTS_screening/HTS_experiment/out/docking_results/vina_output/5l4q/0908_docked.pdbqt
 OpenBabel03212218223D

 25 28  0  0  0  0  0  0  0  0999 V2000
  -21.1370   -0.8860  -32.2990 N   0  0  0  0  0  0  0  0  0  0  0  0
  -20.6680   -0.9500  -31.0410 C   0  0  0  0  0  0  0  0  0  0  0  0
  -20.4070    0.0500  -30.3070 O   0  0  0  0  0  0  0  0  0  0  0  0
  -20.4990   -2.2570  -30.6310 C   0  0  0  0  0  0  0  0  0  0  0  0
  -20.8740   -3.0010  -31.6590 C   0  0  0  0  0  0  0  0  0  0  0  0
  -20.7050   -4.2780  -31.2420 N   0  0  0  0  0  0  0  0  0  0  0  0
  -20.2440   -4.3060  -30.0050 N   0  0  0  0  0  0  0  0  0  0  0  0
  -20.1090   -3.0670  -29.6070 N   0  0  0  0  0  0  0  0  0  0  0  0
  -21.2690   -2.1670  -32.6920 C   0  0  0  0  0  0  0  0  0  0  0  0
  -21.6860   -2.5720  -33.8250 O   0  0  0  0  0  0  0  0  0  0  0  0
  -20.9030   -5.1350  -31.8010 H   0  0  0  0  0  0  0  0  0  0  0  0
  -20.0250   -5.1560  -29.4470 H   0  0  0  0  0  0  0  0  0  0  0  0
  -21.4430    0.2680  -33.0830 C   0  0  0  0  0  0  0  0  0  0  0  0
  -20.4520    1.0050  -33.6990 C   0  0  0  0  0  0  0  0  0  0  0  0
  -18.4540    0.3570  -33.4400 I   0  0  0  0  0  0  0  0  0  0  0  0
  -20.7240    2.1240  -34.4600 C   0  0  0  0  0  3  0  0  0  0  0  0
  -22.0220    2.5570  -34.6380 C   0  0  0  0  0  3  0  0  0  0  0  0
  -23.0200    1.8280  -34.0260 C   0  0  0  0  0  3  0  0  0  0  0  0
  -22.7380    0.7060  -33.2640 C   0  0  0  0  0  3  0  0  0  0  0  0
  -19.6480   -2.5890  -28.3510 C   0  0  0  0  0  0  0  0  0  0  0  0
  -18.8350   -1.4820  -28.2420 C   0  0  0  0  0  3  0  0  0  0  0  0
  -18.4020   -1.0410  -27.0020 C   0  0  0  0  0  3  0  0  0  0  0  0
  -18.7600   -1.6830  -25.8350 C   0  0  0  0  0  3  0  0  0  0  0  0
  -19.5730   -2.7920  -25.9420 C   0  0  0  0  0  3  0  0  0  0  0  0
  -20.0070   -3.2360  -27.1670 C   0  0  0  0  0  3  0  0  0  0  0  0
  1  2  1  0  0  0  0
  2  4  1  0  0  0  0
  2  3  2  0  0  0  0
  4  8  1  0  0  0  0
  5  6  1  0  0  0  0
  5  4  2  0  0  0  0
  6  7  1  0  0  0  0
  7  8  1  0  0  0  0
  7 12  1  0  0  0  0
  8 20  1  0  0  0  0
  9  1  1  0  0  0  0
  9  5  1  0  0  0  0
 10  9  2  0  0  0  0
 11  6  1  0  0  0  0
 13  1  1  0  0  0  0
 14 15  1  0  0  0  0
 14 13  2  0  0  0  0
 16 14  1  0  0  0  0
 17 16  2  0  0  0  0
 17 18  1  0  0  0  0
 18 19  2  0  0  0  0
 19 13  1  0  0  0  0
 20 21  2  0  0  0  0
 20 25  1  0  0  0  0
 21 22  1  0  0  0  0
 22 23  2  0  0  0  0
 24 23  1  0  0  0  0
 25 24  2  0  0  0  0
M  END
>  <Pose>
1

>  <Score>
-8.129

$$$$
