/Users/jonathanwahrer/Desktop/Msc/3_Semester/Drug_Design_Praktikum/waehrer_HTS_screening/HTS_experiment/out/docking_results/vina_output/5l4q/0910_docked.pdbqt
 OpenBabel03212218223D

 26 29  0  0  0  0  0  0  0  0999 V2000
  -21.8470   -0.6910  -34.5560 C   0  0  0  0  0  0  0  0  0  0  0  0
  -21.8730   -2.0030  -34.0270 C   0  0  0  0  0  0  0  0  0  0  0  0
  -22.5110   -3.0970  -34.4260 N   0  0  0  0  0  0  0  0  0  0  0  0
  -22.2200   -4.0600  -33.6050 O   0  0  0  0  0  0  0  0  0  0  0  0
  -21.4230   -3.6430  -32.6890 N   0  0  0  0  0  0  0  0  0  0  0  0
  -21.1760   -2.3460  -32.9150 C   0  0  0  0  0  0  0  0  0  0  0  0
  -20.4120   -1.4010  -32.2680 C   0  0  0  0  0  0  0  0  0  0  0  0
  -20.3660   -0.1200  -32.7540 C   0  0  0  0  0  3  0  0  0  0  0  0
  -21.0710    0.2430  -33.8850 C   0  0  0  0  0  3  0  0  0  0  0  0
  -22.5430   -0.5270  -35.7360 N   0  0  0  0  0  0  0  0  0  0  0  0
  -23.2150   -0.3670  -36.8760 C   0  0  0  0  0  0  0  0  0  0  0  0
  -24.3660    0.2280  -36.9640 O   0  0  0  0  0  0  0  0  0  0  0  0
  -23.6090   -0.0660  -35.0250 H   0  0  0  0  0  0  0  0  0  0  0  0
  -22.7810   -0.8340  -38.2210 C   0  0  0  0  0  0  0  0  0  0  0  0
  -21.8480   -0.2020  -39.0140 C   0  0  0  0  0  0  0  0  0  0  0  0
  -20.8350    1.6170  -38.5710 I   0  0  0  0  0  0  0  0  0  0  0  0
  -21.6840   -0.9630  -40.1450 C   0  0  0  0  0  3  0  0  0  0  0  0
  -22.4990   -2.0070  -40.0100 N   0  0  0  0  0  0  0  0  0  0  0  0
  -23.1610   -1.9420  -38.8610 N   0  0  0  0  0  0  0  0  0  0  0  0
  -24.1020   -2.9860  -38.4140 C   0  0  0  0  0  1  0  0  0  0  0  0
  -19.7120   -1.7950  -31.1170 N   0  0  0  0  0  0  0  0  0  0  0  0
  -20.1810   -2.8620  -30.2320 C   0  0  0  0  0  2  0  0  0  0  0  0
  -20.4290   -2.1740  -28.9050 C   0  0  0  0  0  2  0  0  0  0  0  0
  -20.1180   -0.8240  -28.9100 O   0  0  0  0  0  0  0  0  0  0  0  0
  -18.8460   -0.5150  -29.3410 C   0  0  0  0  0  2  0  0  0  0  0  0
  -18.4720   -1.2450  -30.6200 C   0  0  0  0  0  2  0  0  0  0  0  0
  1  2  1  0  0  0  0
  1  9  2  0  0  0  0
  2  6  1  0  0  0  0
  3  2  2  0  0  0  0
  3  4  1  0  0  0  0
  4  5  1  0  0  0  0
  6  5  2  0  0  0  0
  6  7  1  0  0  0  0
  7 21  1  0  0  0  0
  8  7  2  0  0  0  0
  9  8  1  0  0  0  0
 10 13  1  0  0  0  0
 10  1  1  0  0  0  0
 11 10  1  0  0  0  0
 12 11  2  0  0  0  0
 14 11  1  0  0  0  0
 15 16  1  0  0  0  0
 15 14  2  0  0  0  0
 17 18  2  0  0  0  0
 17 15  1  0  0  0  0
 18 19  1  0  0  0  0
 19 20  1  0  0  0  0
 19 14  1  0  0  0  0
 21 26  1  0  0  0  0
 21 22  1  0  0  0  0
 22 23  1  0  0  0  0
 24 23  1  0  0  0  0
 25 24  1  0  0  0  0
 26 25  1  0  0  0  0
M  END
>  <Pose>
1

>  <Score>
-8.040

$$$$
