/Users/jonathanwahrer/Desktop/Msc/3_Semester/Drug_Design_Praktikum/waehrer_HTS_screening/HTS_experiment/out/docking_results/vina_output/5l4q/0924_docked.pdbqt
 OpenBabel03212218233D

 29 32  0  0  0  0  0  0  0  0999 V2000
  -22.6270   -1.6680  -34.4020 C   0  0  0  0  0  0  0  0  0  0  0  0
  -22.0910   -0.4690  -34.1180 N   0  0  0  0  0  4  0  0  0  0  0  0
  -21.8000    0.4090  -35.0860 C   0  0  0  0  0  0  0  0  0  0  0  0
  -22.0700    0.0310  -36.3470 N   0  0  0  0  0  0  0  0  0  0  0  0
  -22.6070   -1.1630  -36.6710 C   0  0  0  0  0  0  0  0  0  0  0  0
  -22.8850   -2.0160  -35.6690 N   0  0  0  0  0  2  0  0  0  0  0  0
  -22.9330   -2.6000  -33.3380 N   0  0  0  0  0  0  0  0  0  0  0  0
  -23.5800   -2.3170  -32.5700 H   0  0  0  0  0  0  0  0  0  0  0  0
  -22.3510   -3.8240  -33.3400 N   0  0  0  0  0  0  0  0  0  0  0  0
  -21.4800   -4.1970  -32.5100 C   0  0  0  0  0  3  0  0  0  0  0  0
  -20.9210   -3.4560  -31.4130 C   0  0  0  0  0  0  0  0  0  0  0  0
  -20.2590   -2.2640  -31.4670 C   0  0  0  0  0  3  0  0  0  0  0  0
  -19.7490   -1.6190  -30.3310 C   0  0  0  0  0  3  0  0  0  0  0  0
  -19.9060   -2.1810  -29.1020 C   0  0  0  0  0  0  0  0  0  0  0  0
  -19.1820   -1.2960  -27.3500 I   0  0  0  0  0  0  0  0  0  0  0  0
  -20.5700   -3.3850  -29.0180 C   0  0  0  0  0  3  0  0  0  0  0  0
  -21.0680   -4.0130  -30.1340 C   0  0  0  0  0  3  0  0  0  0  0  0
  -21.2300    1.6870  -34.8080 N   0  0  0  0  0  0  0  0  0  0  0  0
  -21.8550    2.9230  -35.1710 C   0  0  0  0  0  2  0  0  0  0  0  0
  -20.8630    4.0490  -34.8720 C   0  0  0  0  0  2  0  0  0  0  0  0
  -19.6110    3.7770  -35.3980 O   0  0  0  0  0  0  0  0  0  0  0  0
  -19.0000    2.6910  -34.8230 C   0  0  0  0  0  2  0  0  0  0  0  0
  -19.9490    1.7530  -34.1220 C   0  0  0  0  0  2  0  0  0  0  0  0
  -22.8600   -1.4840  -38.0320 N   0  0  0  0  0  0  0  0  0  0  0  0
  -23.8740   -2.4600  -38.3590 C   0  0  0  0  0  2  0  0  0  0  0  0
  -23.3400   -3.2020  -39.5930 C   0  0  0  0  0  2  0  0  0  0  0  0
  -23.2980   -2.3040  -40.6270 O   0  0  0  0  0  0  0  0  0  0  0  0
  -22.4730   -1.2270  -40.4640 C   0  0  0  0  0  3  0  0  0  0  0  0
  -22.1220   -0.8530  -39.0700 C   0  0  0  0  0  3  0  0  0  0  0  0
  1  2  2  0  0  0  0
  1  7  1  0  0  0  0
  3 18  1  0  0  0  0
  3  2  2  0  0  0  0
  4  3  1  0  0  0  0
  5  4  2  0  0  0  0
  5  6  1  0  0  0  0
  6  1  1  0  0  0  0
  7  8  1  0  0  0  0
  9  7  1  0  0  0  0
  9 10  2  0  0  0  0
 10 11  1  0  0  0  0
 11 17  1  0  0  0  0
 12 11  2  0  0  0  0
 12 13  1  0  0  0  0
 13 14  2  0  0  0  0
 14 16  1  0  0  0  0
 14 15  1  0  0  0  0
 17 16  2  0  0  0  0
 18 23  1  0  0  0  0
 19 20  1  0  0  0  0
 19 18  1  0  0  0  0
 21 20  1  0  0  0  0
 21 22  1  0  0  0  0
 22 23  1  0  0  0  0
 24  5  1  0  0  0  0
 25 24  1  0  0  0  0
 26 25  1  0  0  0  0
 27 28  1  0  0  0  0
 27 26  1  0  0  0  0
 28 29  2  0  0  0  0
 29 24  1  0  0  0  0
M  END
>  <Pose>
1

>  <Score>
-8.376

$$$$
