/Users/jonathanwahrer/Desktop/Msc/3_Semester/Drug_Design_Praktikum/waehrer_HTS_screening/HTS_experiment/out/docking_results/vina_output/5l4q/0937_docked.pdbqt
 OpenBabel03212218233D

 26 29  0  0  1  0  0  0  0  0999 V2000
  -20.3510   -2.1240  -31.3280 N   0  0  0  0  0  0  0  0  0  0  0  0
  -19.9450   -1.7870  -32.6440 C   0  0  0  0  0  0  0  0  0  0  0  0
  -18.8680   -1.1940  -32.9120 O   0  0  0  0  0  0  0  0  0  0  0  0
  -20.9750   -2.2440  -33.6180 C   0  0  1  0  0  3  0  0  0  0  0  0
  -21.5630   -3.4430  -32.8940 C   0  0  0  0  0  2  0  0  0  0  0  0
  -21.2940   -3.1840  -31.4660 C   0  0  0  0  0  0  0  0  0  0  0  0
  -21.8070   -3.7930  -30.4820 O   0  0  0  0  0  0  0  0  0  0  0  0
  -21.8910   -1.1980  -33.8170 N   0  0  1  0  0  0  0  0  0  0  0  0
  -21.4610    0.0950  -34.1170 C   0  0  0  0  0  2  0  0  0  0  0  0
  -22.6140    0.7880  -34.8890 C   0  0  0  0  0  2  0  0  0  0  0  0
  -23.0410   -0.1070  -35.9540 N   0  0  0  0  0  0  0  0  0  0  0  0
  -23.5400   -1.3980  -35.5460 C   0  0  0  0  0  2  0  0  0  0  0  0
  -23.2310   -1.5520  -34.0600 C   0  0  0  0  0  2  0  0  0  0  0  0
  -22.9610    0.2760  -37.3080 C   0  0  0  0  0  0  0  0  0  0  0  0
  -22.7970   -0.6570  -38.2860 N   0  0  0  0  0  0  0  0  0  0  0  0
  -22.7250   -0.3580  -39.5810 C   0  0  0  0  0  3  0  0  0  0  0  0
  -22.8150    0.9630  -39.9980 C   0  0  0  0  0  3  0  0  0  0  0  0
  -22.9810    1.9070  -39.0000 C   0  0  0  0  0  3  0  0  0  0  0  0
  -23.0500    1.5610  -37.7070 N   0  0  0  0  0  0  0  0  0  0  0  0
  -19.9200   -1.5380  -30.0850 C   0  0  0  0  0  0  0  0  0  0  0  0
  -19.2310   -2.3080  -29.1710 C   0  0  0  0  0  3  0  0  0  0  0  0
  -18.8000   -1.7910  -27.9660 C   0  0  0  0  0  3  0  0  0  0  0  0
  -19.0470   -0.4760  -27.6320 C   0  0  0  0  0  0  0  0  0  0  0  0
  -18.4040    0.3550  -25.7990 I   0  0  0  0  0  0  0  0  0  0  0  0
  -19.7340    0.3080  -28.5320 C   0  0  0  0  0  3  0  0  0  0  0  0
  -20.1560   -0.2300  -29.7320 C   0  0  0  0  0  3  0  0  0  0  0  0
  1 20  1  0  0  0  0
  2  1  1  0  0  0  0
  3  2  2  0  0  0  0
  4  5  1  1  0  0  0
  4  2  1  0  0  0  0
  5  6  1  0  0  0  0
  6  1  1  0  0  0  0
  6  7  2  0  0  0  0
  8  9  1  6  0  0  0
  8  4  1  0  0  0  0
 10  9  1  0  0  0  0
 11 12  1  0  0  0  0
 11 10  1  0  0  0  0
 12 13  1  0  0  0  0
 13  8  1  0  0  0  0
 14 11  1  0  0  0  0
 15 14  2  0  0  0  0
 16 15  1  0  0  0  0
 17 16  2  0  0  0  0
 17 18  1  0  0  0  0
 18 19  2  0  0  0  0
 19 14  1  0  0  0  0
 20 26  2  0  0  0  0
 20 21  1  0  0  0  0
 21 22  2  0  0  0  0
 22 23  1  0  0  0  0
 23 24  1  0  0  0  0
 25 23  2  0  0  0  0
 26 25  1  0  0  0  0
M  END
>  <Pose>
1

>  <Score>
-8.134

$$$$
