/Users/jonathanwahrer/Desktop/Msc/3_Semester/Drug_Design_Praktikum/waehrer_HTS_screening/HTS_experiment/out/docking_results/vina_output/5l4q/0956_docked.pdbqt
 OpenBabel03212218233D

 30 33  0  0  1  0  0  0  0  0999 V2000
  -21.3140   -4.1280  -31.4050 I   0  0  0  0  0  0  0  0  0  0  0  0
  -21.4770   -2.5910  -32.8380 C   0  0  0  0  0  0  0  0  0  0  0  0
  -20.8330   -1.3900  -32.8120 C   0  0  0  0  0  0  0  0  0  0  0  0
  -21.2670   -0.7360  -33.9660 C   0  0  0  0  0  0  0  0  0  0  0  0
  -22.1250   -1.4810  -34.6640 N   0  0  0  0  0  0  0  0  0  0  0  0
  -22.2580   -2.6180  -33.9810 C   0  0  0  0  0  3  0  0  0  0  0  0
  -20.7840    0.4950  -34.2030 N   0  0  0  0  0  0  0  0  0  0  0  0
  -19.9150    1.0740  -33.3580 C   0  0  0  0  0  3  0  0  0  0  0  0
  -19.5010    0.4440  -32.2550 N   0  0  0  0  0  0  0  0  0  0  0  0
  -19.9430   -0.8120  -31.9360 C   0  0  0  0  0  0  0  0  0  0  0  0
  -22.7900   -1.1710  -35.8940 C   0  0  2  0  0  3  0  0  0  0  0  0
  -23.2980   -2.2860  -36.5500 O   0  0  0  0  0  0  0  0  0  0  0  0
  -23.7570   -1.7440  -37.7480 C   0  0  1  0  0  3  0  0  0  0  0  0
  -22.7380   -0.7190  -38.1870 C   0  0  2  0  0  3  0  0  0  0  0  0
  -21.8280   -0.6300  -36.9550 C   0  0  0  0  0  2  0  0  0  0  0  0
  -23.7750   -2.8260  -38.8370 C   0  0  0  0  0  2  0  0  0  0  0  0
  -22.4650   -3.0280  -39.2920 O   0  0  0  0  0  0  0  0  0  0  0  0
  -22.1310   -2.2160  -39.7890 H   0  0  0  0  0  0  0  0  0  0  0  0
  -23.3090    0.5450  -38.3390 O   0  0  0  0  0  0  0  0  0  0  0  0
  -22.8280    1.1350  -37.6800 H   0  0  0  0  0  0  0  0  0  0  0  0
  -19.4680   -1.4340  -30.7470 N   0  0  0  0  0  0  0  0  0  0  0  0
  -19.9600   -0.9720  -29.4920 C   0  0  0  0  0  0  0  0  0  0  0  0
  -20.7940   -0.0320  -29.5120 O   0  0  0  0  0  0  0  0  0  0  0  0
  -18.7910   -2.2010  -30.7040 H   0  0  0  0  0  0  0  0  0  0  0  0
  -19.5650   -1.5090  -28.2190 C   0  0  0  0  0  0  0  0  0  0  0  0
  -18.7450   -0.8110  -27.3770 C   0  0  0  0  0  3  0  0  0  0  0  0
  -18.3560   -1.3170  -26.1350 C   0  0  0  0  0  3  0  0  0  0  0  0
  -18.8030   -2.5450  -25.7420 C   0  0  0  0  0  3  0  0  0  0  0  0
  -19.6260   -3.2680  -26.5660 C   0  0  0  0  0  3  0  0  0  0  0  0
  -20.0040   -2.7410  -27.8060 C   0  0  0  0  0  3  0  0  0  0  0  0
  2  3  1  0  0  0  0
  2  1  1  0  0  0  0
  3 10  1  0  0  0  0
  4  3  2  0  0  0  0
  5  6  1  0  0  0  0
  5  4  1  0  0  0  0
  6  2  2  0  0  0  0
  7  4  1  0  0  0  0
  7  8  2  0  0  0  0
  8  9  1  0  0  0  0
  9 10  2  0  0  0  0
 10 21  1  0  0  0  0
 11 15  1  6  0  0  0
 11  5  1  0  0  0  0
 12 11  1  0  0  0  0
 13 16  1  6  0  0  0
 13 12  1  0  0  0  0
 14 19  1  1  0  0  0
 14 13  1  0  0  0  0
 14 15  1  0  0  0  0
 17 16  1  0  0  0  0
 18 17  1  0  0  0  0
 19 20  1  0  0  0  0
 21 24  1  0  0  0  0
 21 22  1  0  0  0  0
 22 25  1  0  0  0  0
 23 22  2  0  0  0  0
 25 30  2  0  0  0  0
 25 26  1  0  0  0  0
 26 27  2  0  0  0  0
 27 28  1  0  0  0  0
 29 28  2  0  0  0  0
 30 29  1  0  0  0  0
M  END
>  <Pose>
1

>  <Score>
-9.375

$$$$
