/Users/jonathanwahrer/Desktop/Msc/3_Semester/Drug_Design_Praktikum/waehrer_HTS_screening/HTS_experiment/out/docking_results/vina_output/5l4q/0969_docked.pdbqt
 OpenBabel03212218243D

 31 34  0  0  1  0  0  0  0  0999 V2000
  -20.0300    4.9340  -33.7210 Br  0  0  0  0  0  0  0  0  0  0  0  0
  -20.3900    3.2710  -34.5700 C   0  0  0  0  0  0  0  0  0  0  0  0
  -21.0930    3.1610  -35.7660 C   0  0  2  0  0  3  0  0  0  0  0  0
  -21.3310    1.9250  -36.3450 C   0  0  0  0  0  0  0  0  0  0  0  0
  -20.8690    0.7760  -35.7350 C   0  0  0  0  0  3  0  0  0  0  0  0
  -20.1780    0.8760  -34.5600 C   0  0  0  0  0  0  0  0  0  0  0  0
  -19.9460    2.1030  -33.9930 C   0  0  0  0  0  0  0  0  0  0  0  0
  -19.2270    2.1260  -32.7840 O   0  0  0  0  0  1  0  0  0  0  0  0
  -19.5620   -0.7610  -33.7660 Br  0  0  0  0  0  0  0  0  0  0  0  0
  -22.0230    1.7880  -37.5280 C   0  0  0  0  0  0  0  0  0  0  0  0
  -22.4810    2.9400  -38.1310 C   0  0  0  0  0  0  0  0  0  0  0  0
  -22.1840    4.2050  -37.4480 C   0  0  0  0  0  0  0  0  0  0  0  0
  -22.6550    5.3630  -38.0700 C   0  0  2  0  0  3  0  0  0  0  0  0
  -23.3520    5.2890  -39.2540 C   0  0  0  0  0  0  0  0  0  0  0  0
  -23.7560    6.3580  -39.7780 O   0  0  0  0  0  0  0  0  0  0  0  0
  -23.6170    4.0740  -39.8760 C   0  0  0  0  0  0  0  0  0  0  0  0
  -23.1860    2.9030  -39.3240 C   0  0  0  0  0  3  0  0  0  0  0  0
  -24.5930    4.0640  -41.5200 Br  0  0  0  0  0  0  0  0  0  0  0  0
  -22.3040    7.0550  -37.2310 Br  0  0  0  0  0  0  0  0  0  0  0  0
  -21.5180    4.2680  -36.3200 O   0  0  0  0  0  0  0  0  0  0  0  0
  -22.2800    0.4800  -38.1330 C   0  0  0  0  0  0  0  0  0  0  0  0
  -21.3780   -0.0740  -39.0230 C   0  0  0  0  0  0  0  0  0  0  0  0
  -21.6000   -1.3020  -39.6110 C   0  0  0  0  0  3  0  0  0  0  0  0
  -19.9050    0.8210  -39.4120 Cl  0  0  0  0  0  0  0  0  0  0  0  0
  -22.7550   -1.9860  -39.2930 C   0  0  0  0  0  3  0  0  0  0  0  0
  -23.6700   -1.4770  -38.4220 C   0  0  0  0  0  0  0  0  0  0  0  0
  -23.4320   -0.2490  -37.8450 C   0  0  0  0  0  0  0  0  0  0  0  0
  -25.1130   -2.4160  -38.0740 Cl  0  0  0  0  0  0  0  0  0  0  0  0
  -24.3980    0.3000  -36.9250 C   0  0  0  0  0  0  0  0  0  0  0  0
  -24.2630    0.2130  -35.6730 O   0  0  0  0  0  1  0  0  0  0  0  0
  -25.5320    0.9540  -37.4010 O   0  0  0  0  0  0  0  0  0  0  0  0
  2  7  2  0  0  0  0
  2  1  1  0  0  0  0
  3  4  1  6  0  0  0
  3  2  1  0  0  0  0
  4  5  1  0  0  0  0
  5  6  2  0  0  0  0
  6  7  1  0  0  0  0
  6  9  1  0  0  0  0
  7  8  1  0  0  0  0
 10  4  2  0  0  0  0
 11 10  1  0  0  0  0
 11 12  2  0  0  0  0
 12 20  1  0  0  0  0
 13 12  1  0  0  0  0
 13 19  1  6  0  0  0
 14 13  1  0  0  0  0
 15 14  2  0  0  0  0
 16 17  2  0  0  0  0
 16 14  1  0  0  0  0
 17 11  1  0  0  0  0
 18 16  1  0  0  0  0
 20  3  1  0  0  0  0
 21 27  1  0  0  0  0
 21 10  1  0  0  0  0
 22 21  2  0  0  0  0
 23 25  2  0  0  0  0
 23 22  1  0  0  0  0
 24 22  1  0  0  0  0
 25 26  1  0  0  0  0
 26 28  1  0  0  0  0
 26 27  2  0  0  0  0
 27 29  1  0  0  0  0
 29 30  1  0  0  0  0
 31 29  2  0  0  0  0
M  END
>  <Pose>
1

>  <Score>
-7.123

$$$$
