/Users/jonathanwahrer/Desktop/Msc/3_Semester/Drug_Design_Praktikum/waehrer_HTS_screening/HTS_experiment/out/docking_results/vina_output/5l4q/0971_docked.pdbqt
 OpenBabel03212218243D

 29 33  0  0  1  0  0  0  0  0999 V2000
  -21.3990    0.7530  -41.5190 Br  0  0  0  0  0  0  0  0  0  0  0  0
  -22.0300   -0.0400  -39.9030 C   0  0  0  0  0  0  0  0  0  0  0  0
  -21.8360    0.5820  -38.6560 C   0  0  0  0  0  0  0  0  0  0  0  0
  -22.2700    0.0480  -37.4790 C   0  0  0  0  0  0  0  0  0  0  0  0
  -22.9400   -1.1770  -37.5350 C   0  0  0  0  0  3  0  0  0  0  0  0
  -23.1270   -1.7790  -38.7430 C   0  0  0  0  0  0  0  0  0  0  0  0
  -22.6900   -1.2440  -39.9370 C   0  0  0  0  0  0  0  0  0  0  0  0
  -22.9200   -1.9210  -41.1470 O   0  0  0  0  0  1  0  0  0  0  0  0
  -24.0410   -3.4520  -38.8280 Br  0  0  0  0  0  0  0  0  0  0  0  0
  -22.0550    0.7160  -36.2030 C   0  0  1  0  0  0  0  0  0  0  0  0
  -23.3460    1.0240  -35.6810 O   0  0  0  0  0  0  0  0  0  0  0  0
  -23.5760    0.4110  -34.4800 C   0  0  0  0  0  0  0  0  0  0  0  0
  -24.6230    0.5080  -33.8010 O   0  0  0  0  0  0  0  0  0  0  0  0
  -22.3750   -0.3450  -34.1830 C   0  0  0  0  0  0  0  0  0  0  0  0
  -21.4460   -0.1890  -35.1860 C   0  0  0  0  0  0  0  0  0  0  0  0
  -20.2580   -0.8330  -35.0650 C   0  0  0  0  0  3  0  0  0  0  0  0
  -20.0090   -1.6180  -33.9590 C   0  0  0  0  0  3  0  0  0  0  0  0
  -20.9380   -1.7770  -32.9520 C   0  0  0  0  0  3  0  0  0  0  0  0
  -22.1420   -1.1330  -33.0590 C   0  0  0  0  0  3  0  0  0  0  0  0
  -21.3420    1.9840  -36.3150 C   0  0  0  0  0  0  0  0  0  0  0  0
  -20.9300    2.4680  -37.5250 C   0  0  0  0  0  0  0  0  0  0  0  0
  -20.2420    3.6960  -37.6150 C   0  0  0  0  0  0  0  0  0  0  0  0
  -19.9920    4.4000  -36.4600 C   0  0  0  0  0  0  0  0  0  0  0  0
  -20.4060    3.9150  -35.2280 C   0  0  0  0  0  0  0  0  0  0  0  0
  -21.0720    2.7240  -35.1490 C   0  0  0  0  0  3  0  0  0  0  0  0
  -20.0660    4.8790  -33.6210 Br  0  0  0  0  0  0  0  0  0  0  0  0
  -19.3150    5.6060  -36.5620 O   0  0  0  0  0  1  0  0  0  0  0  0
  -19.6830    4.3400  -39.3270 Br  0  0  0  0  0  0  0  0  0  0  0  0
  -21.1560    1.8010  -38.7210 O   0  0  0  0  0  0  0  0  0  0  0  0
  1  2  1  0  0  0  0
  2  3  1  0  0  0  0
  3  4  2  0  0  0  0
  5  4  1  0  0  0  0
  6  5  2  0  0  0  0
  7  2  2  0  0  0  0
  7  6  1  0  0  0  0
  8  7  1  0  0  0  0
  9  6  1  0  0  0  0
 10  4  1  6  0  0  0
 10 11  1  0  0  0  0
 10 15  1  0  0  0  0
 11 12  1  0  0  0  0
 12 14  1  0  0  0  0
 12 13  2  0  0  0  0
 14 19  1  0  0  0  0
 15 16  1  0  0  0  0
 15 14  2  0  0  0  0
 16 17  2  0  0  0  0
 17 18  1  0  0  0  0
 19 18  2  0  0  0  0
 20 10  1  0  0  0  0
 20 25  1  0  0  0  0
 21 20  2  0  0  0  0
 22 21  1  0  0  0  0
 22 23  2  0  0  0  0
 23 24  1  0  0  0  0
 24 25  2  0  0  0  0
 24 26  1  0  0  0  0
 27 23  1  0  0  0  0
 28 22  1  0  0  0  0
 29  3  1  0  0  0  0
 29 21  1  0  0  0  0
M  END
>  <Pose>
1

>  <Score>
-8.213

$$$$
