/Users/jonathanwahrer/Desktop/Msc/3_Semester/Drug_Design_Praktikum/waehrer_HTS_screening/HTS_experiment/out/docking_results/vina_output/5l4q/0980_docked.pdbqt
 OpenBabel03212218243D

 27 30  0  0  1  0  0  0  0  0999 V2000
  -21.1380    6.0150  -39.2920 I   0  0  0  0  0  0  0  0  0  0  0  0
  -22.0710    4.1570  -39.6370 C   0  0  0  0  0  0  0  0  0  0  0  0
  -21.8220    3.0450  -38.8580 C   0  0  0  0  0  0  0  0  0  0  0  0
  -22.4290    1.8280  -39.0810 C   0  0  0  0  0  0  0  0  0  0  0  0
  -23.3210    1.7430  -40.1350 C   0  0  0  0  0  2  0  0  0  0  0  0
  -23.5770    2.8550  -40.9220 C   0  0  0  0  0  3  0  0  0  0  0  0
  -22.9590    4.0780  -40.6910 C   0  0  0  0  0  0  0  0  0  0  0  0
  -23.2530    5.1630  -41.5130 O   0  0  0  0  0  1  0  0  0  0  0  0
  -22.1940    0.7050  -38.3140 C   0  0  0  0  0  0  0  0  0  0  0  0
  -21.2860    0.8650  -37.2720 C   0  0  0  0  0  0  0  0  0  0  0  0
  -20.6630    2.1700  -37.0680 C   0  0  0  0  0  0  0  0  0  0  0  0
  -19.7720    2.2650  -36.0200 C   0  0  2  0  0  3  0  0  0  0  0  0
  -19.4680    1.2040  -35.1940 C   0  0  0  0  0  0  0  0  0  0  0  0
  -18.6470    1.3120  -34.2360 O   0  0  0  0  0  0  0  0  0  0  0  0
  -20.0560   -0.0310  -35.3860 C   0  0  0  0  0  3  0  0  0  0  0  0
  -20.9540   -0.1590  -36.4280 C   0  0  0  0  0  3  0  0  0  0  0  0
  -18.8250    4.1040  -35.6480 I   0  0  0  0  0  0  0  0  0  0  0  0
  -20.9720    3.1600  -37.8690 O   0  0  0  0  0  0  0  0  0  0  0  0
  -22.8350   -0.5850  -38.5470 C   0  0  0  0  0  0  0  0  0  0  0  0
  -24.0720   -0.8260  -37.9560 C   0  0  0  0  0  0  0  0  0  0  0  0
  -24.7120   -2.0210  -38.1460 C   0  0  0  0  0  3  0  0  0  0  0  0
  -24.1250   -2.9910  -38.9280 C   0  0  0  0  0  3  0  0  0  0  0  0
  -22.9020   -2.7770  -39.5250 C   0  0  0  0  0  3  0  0  0  0  0  0
  -22.2760   -1.5680  -39.3200 C   0  0  0  0  0  3  0  0  0  0  0  0
  -24.7040    0.1950  -37.1250 C   0  0  0  0  0  0  0  0  0  0  0  0
  -24.4620    0.3230  -35.9040 O   0  0  0  0  0  1  0  0  0  0  0  0
  -25.6210    1.0810  -37.6720 O   0  0  0  0  0  0  0  0  0  0  0  0
  2  1  1  0  0  0  0
  2  3  2  0  0  0  0
  3 18  1  0  0  0  0
  4  3  1  0  0  0  0
  4  9  2  0  0  0  0
  5  4  1  0  0  0  0
  6  7  2  0  0  0  0
  6  5  1  0  0  0  0
  7  2  1  0  0  0  0
  8  7  1  0  0  0  0
  9 10  1  0  0  0  0
 10 11  2  0  0  0  0
 10 16  1  0  0  0  0
 11 12  1  0  0  0  0
 12 17  1  1  0  0  0
 12 13  1  0  0  0  0
 13 14  2  0  0  0  0
 15 13  1  0  0  0  0
 16 15  2  0  0  0  0
 18 11  1  0  0  0  0
 19  9  1  0  0  0  0
 19 20  1  0  0  0  0
 20 25  1  0  0  0  0
 21 20  2  0  0  0  0
 22 21  1  0  0  0  0
 23 24  1  0  0  0  0
 23 22  2  0  0  0  0
 24 19  2  0  0  0  0
 25 26  1  0  0  0  0
 27 25  2  0  0  0  0
M  END
>  <Pose>
1

>  <Score>
-6.892

$$$$
