/Users/jonathanwahrer/Desktop/Msc/3_Semester/Drug_Design_Praktikum/waehrer_HTS_screening/HTS_experiment/out/docking_results/vina_output/5l4q/0983_docked.pdbqt
 OpenBabel03212218253D

 34 37  0  0  0  0  0  0  0  0999 V2000
  -20.8570    0.6480  -34.4760 C   0  0  0  0  0  0  0  0  0  0  0  0
  -21.3810    0.8010  -35.7660 C   0  0  0  0  0  0  0  0  0  0  0  0
  -22.0550   -0.3750  -36.0130 C   0  0  0  0  0  0  0  0  0  0  0  0
  -21.9360   -1.1690  -34.9390 N   0  0  0  0  0  0  0  0  0  0  0  0
  -21.1980   -0.5720  -33.9540 C   0  0  0  0  0  0  0  0  0  0  0  0
  -22.6950   -0.5300  -37.2400 C   0  0  0  0  0  0  0  0  0  0  0  0
  -22.6410    0.4810  -38.1600 C   0  0  0  0  0  3  0  0  0  0  0  0
  -21.9580    1.6760  -37.9150 C   0  0  0  0  0  0  0  0  0  0  0  0
  -21.3160    1.8280  -36.6820 C   0  0  0  0  0  3  0  0  0  0  0  0
  -21.9190    3.0410  -39.2340 Br  0  0  0  0  0  0  0  0  0  0  0  0
  -23.6290   -2.1360  -37.6070 Br  0  0  0  0  0  0  0  0  0  0  0  0
  -22.3530   -2.1380  -34.8460 H   0  0  0  0  0  0  0  0  0  0  0  0
  -20.9170   -1.1490  -32.6450 C   0  0  0  0  0  0  0  0  0  0  0  0
  -20.6960   -0.3900  -31.5370 N   0  0  0  0  0  0  0  0  0  0  0  0
  -20.4470   -1.1660  -30.4710 C   0  0  0  0  0  0  0  0  0  0  0  0
  -20.7120    0.6520  -31.4870 H   0  0  0  0  0  0  0  0  0  0  0  0
  -20.4980   -2.4870  -30.8580 C   0  0  0  0  0  0  0  0  0  0  0  0
  -20.1670   -0.9160  -29.1350 C   0  0  0  0  0  0  0  0  0  0  0  0
  -20.7930   -2.4370  -32.2260 C   0  0  0  0  0  0  0  0  0  0  0  0
  -20.2830   -3.5230  -29.9730 C   0  0  0  0  0  3  0  0  0  0  0  0
  -20.0020   -3.2620  -28.6410 C   0  0  0  0  0  0  0  0  0  0  0  0
  -19.9480   -1.9380  -28.2350 C   0  0  0  0  0  3  0  0  0  0  0  0
  -19.6990   -4.6850  -27.3930 Br  0  0  0  0  0  0  0  0  0  0  0  0
  -20.0760    0.8830  -28.5090 Br  0  0  0  0  0  0  0  0  0  0  0  0
  -20.9230   -3.5780  -32.9960 O   0  0  0  0  0  0  0  0  0  0  0  0
  -21.9670   -4.8560  -32.5660 S   0  0  0  0  0  0  0  0  0  0  0  0
  -21.2090   -5.9660  -31.8980 O   0  0  0  0  0  1  0  0  0  0  0  0
  -22.6540   -5.4410  -33.7670 O   0  0  0  0  0  1  0  0  0  0  0  0
  -23.1980   -4.2630  -31.5580 O   0  0  0  0  0  1  0  0  0  0  0  0
  -20.0970    1.6320  -33.8530 O   0  0  0  0  0  0  0  0  0  0  0  0
  -18.3860    1.6050  -33.9160 S   0  0  0  0  0  0  0  0  0  0  0  0
  -17.9340    0.6020  -32.8910 O   0  0  0  0  0  1  0  0  0  0  0  0
  -17.9040    1.1680  -35.2770 O   0  0  0  0  0  1  0  0  0  0  0  0
  -17.7390    3.0990  -33.4970 O   0  0  0  0  0  1  0  0  0  0  0  0
  1  5  2  0  0  0  0
  1 30  1  0  0  0  0
  2  1  1  0  0  0  0
  3  2  1  0  0  0  0
  3  4  1  0  0  0  0
  4 12  1  0  0  0  0
  4  5  1  0  0  0  0
  5 13  1  0  0  0  0
  6  3  2  0  0  0  0
  7  8  2  0  0  0  0
  7  6  1  0  0  0  0
  8  9  1  0  0  0  0
  9  2  2  0  0  0  0
 10  8  1  0  0  0  0
 11  6  1  0  0  0  0
 13 19  2  0  0  0  0
 13 14  1  0  0  0  0
 14 16  1  0  0  0  0
 14 15  1  0  0  0  0
 15 18  1  0  0  0  0
 17 15  2  0  0  0  0
 17 20  1  0  0  0  0
 18 24  1  0  0  0  0
 18 22  2  0  0  0  0
 19 17  1  0  0  0  0
 20 21  2  0  0  0  0
 21 22  1  0  0  0  0
 21 23  1  0  0  0  0
 25 26  1  0  0  0  0
 25 19  1  0  0  0  0
 26 27  1  0  0  0  0
 26 29  1  0  0  0  0
 28 26  1  0  0  0  0
 31 30  1  0  0  0  0
 31 34  1  0  0  0  0
 31 32  1  0  0  0  0
 33 31  1  0  0  0  0
M  END
>  <Pose>
1

>  <Score>
-9.016

$$$$
