/Users/jonathanwahrer/Desktop/Msc/3_Semester/Drug_Design_Praktikum/waehrer_HTS_screening/HTS_experiment/out/docking_results/vina_output/5l4q/0991_docked.pdbqt
 OpenBabel03212218253D

 34 39  0  0  1  0  0  0  0  0999 V2000
  -20.9430   -3.0230  -31.9650 N   0  0  0  0  0  0  0  0  0  0  0  0
  -20.4990   -2.5060  -30.7920 C   0  0  0  0  0  0  0  0  0  0  0  0
  -20.6900   -3.4020  -29.7620 C   0  0  0  0  0  0  0  0  0  0  0  0
  -21.2630   -4.4810  -30.3350 N   0  0  0  0  0  0  0  0  0  0  0  0
  -21.4120   -4.2450  -31.6550 C   0  0  0  0  0  0  0  0  0  0  0  0
  -22.1650   -5.4220  -32.9610 Br  0  0  0  0  0  0  0  0  0  0  0  0
  -20.3020   -3.0610  -28.4820 C   0  0  0  0  0  0  0  0  0  0  0  0
  -20.4710   -3.8660  -27.5400 O   0  0  0  0  0  0  0  0  0  0  0  0
  -19.7340   -1.8680  -28.1950 N   0  0  0  0  0  0  0  0  0  0  0  0
  -19.5560   -1.0080  -29.2150 C   0  0  0  0  0  0  0  0  0  0  0  0
  -18.9850    0.0840  -28.6770 N   0  0  0  0  0  0  0  0  0  0  0  0
  -18.7930   -0.0540  -27.3520 C   0  0  0  0  0  0  0  0  0  0  0  0
  -19.2750   -1.3080  -27.0420 C   0  0  0  0  0  3  0  0  0  0  0  0
  -19.9330   -1.3260  -30.4860 N   0  0  0  0  0  0  0  0  0  0  0  0
  -19.7930   -0.6560  -31.2750 H   0  0  0  0  0  0  0  0  0  0  0  0
  -20.9230   -2.3980  -33.2850 C   0  0  2  0  0  3  0  0  0  0  0  0
  -19.8410   -1.5290  -33.4080 O   0  0  0  0  0  0  0  0  0  0  0  0
  -20.1560   -0.5910  -34.3520 C   0  0  1  0  0  3  0  0  0  0  0  0
  -21.6510   -0.3380  -34.1420 C   0  0  1  0  0  3  0  0  0  0  0  0
  -19.4690    0.7390  -34.1510 C   0  0  0  0  0  2  0  0  0  0  0  0
  -22.1700   -0.0380  -35.3980 O   0  0  0  0  0  0  0  0  0  0  0  0
  -22.1640   -1.6300  -33.5820 C   0  0  1  0  0  3  0  0  0  0  0  0
  -21.0670    1.0220  -36.1370 P   0  0  1  0  0  0  0  0  0  0  0  0
  -21.9670    2.3470  -36.8080 S   0  0  0  0  0  1  0  0  0  0  0  0
  -19.9910    1.6770  -35.0120 O   0  0  0  0  0  0  0  0  0  0  0  0
  -20.1520    0.2370  -37.3220 O   0  0  0  0  0  0  0  0  0  0  0  0
  -22.9570   -2.2940  -34.5280 O   0  0  0  0  0  0  0  0  0  0  0  0
  -23.3170   -3.1360  -34.1810 H   0  0  0  0  0  0  0  0  0  0  0  0
  -18.1990    0.9200  -26.4270 C   0  0  0  0  0  0  0  0  0  0  0  0
  -18.2080    0.6840  -25.0710 C   0  0  0  0  0  3  0  0  0  0  0  0
  -17.6530    1.5860  -24.1720 C   0  0  0  0  0  3  0  0  0  0  0  0
  -17.0850    2.7410  -24.6580 C   0  0  0  0  0  3  0  0  0  0  0  0
  -17.0570    3.0170  -26.0170 C   0  0  0  0  0  3  0  0  0  0  0  0
  -17.6200    2.0870  -26.8620 C   0  0  0  0  0  3  0  0  0  0  0  0
  1  5  1  0  0  0  0
  1  2  1  0  0  0  0
  2 14  1  0  0  0  0
  2  3  2  0  0  0  0
  3  7  1  0  0  0  0
  4  3  1  0  0  0  0
  5  4  2  0  0  0  0
  6  5  1  0  0  0  0
  7  9  1  0  0  0  0
  7  8  2  0  0  0  0
  9 13  1  0  0  0  0
 10 11  2  0  0  0  0
 10  9  1  0  0  0  0
 11 12  1  0  0  0  0
 12 13  2  0  0  0  0
 12 29  1  0  0  0  0
 14 10  1  0  0  0  0
 15 14  1  0  0  0  0
 16  1  1  1  0  0  0
 17 16  1  0  0  0  0
 18 20  1  1  0  0  0
 18 19  1  0  0  0  0
 18 17  1  0  0  0  0
 19 21  1  6  0  0  0
 19 22  1  0  0  0  0
 22 27  1  6  0  0  0
 22 16  1  0  0  0  0
 23 26  2  6  0  0  0
 23 21  1  0  0  0  0
 23 25  1  0  0  0  0
 24 23  1  0  0  0  0
 25 20  1  0  0  0  0
 27 28  1  0  0  0  0
 29 30  1  0  0  0  0
 30 31  2  0  0  0  0
 32 31  1  0  0  0  0
 33 32  2  0  0  0  0
 34 29  2  0  0  0  0
 34 33  1  0  0  0  0
M  END
>  <Pose>
1

>  <Score>
-9.922

$$$$
