/Users/jonathanwahrer/Desktop/Msc/3_Semester/Drug_Design_Praktikum/waehrer_HTS_screening/HTS_experiment/out/docking_results/vina_output/5l4q/0993_docked.pdbqt
 OpenBabel03212218253D

 26 29  0  0  1  0  0  0  0  0999 V2000
  -24.3820    0.6960  -37.9320 P   0  0  2  0  0  0  0  0  0  0  0  0
  -23.0430    1.7080  -38.4090 S   0  0  0  0  0  1  0  0  0  0  0  0
  -24.4550    0.6050  -36.2290 O   0  0  0  0  0  0  0  0  0  0  0  0
  -23.4040   -0.1820  -35.8280 C   0  0  2  0  0  3  0  0  0  0  0  0
  -23.5940   -1.5880  -36.4110 C   0  0  2  0  0  3  0  0  0  0  0  0
  -22.6780   -2.2990  -35.6380 O   0  0  0  0  0  0  0  0  0  0  0  0
  -22.9170   -1.9260  -34.3370 C   0  0  2  0  0  3  0  0  0  0  0  0
  -23.4380   -0.5110  -34.3470 C   0  0  2  0  0  3  0  0  0  0  0  0
  -23.2770   -1.6180  -37.8730 C   0  0  0  0  0  2  0  0  0  0  0  0
  -24.2150   -0.8510  -38.5400 O   0  0  0  0  0  0  0  0  0  0  0  0
  -25.7900    1.4100  -38.4750 O   0  0  0  0  0  0  0  0  0  0  0  0
  -21.7220   -1.9430  -33.5150 N   0  0  0  0  0  0  0  0  0  0  0  0
  -20.7660   -0.9810  -33.5430 C   0  0  0  0  0  0  0  0  0  0  0  0
  -20.6460    0.1620  -34.2670 N   0  0  0  0  0  0  0  0  0  0  0  0
  -19.7790   -1.3150  -32.6390 C   0  0  0  0  0  0  0  0  0  0  0  0
  -19.5820    0.9740  -34.1160 C   0  0  0  0  0  3  0  0  0  0  0  0
  -18.6090    0.6500  -33.2290 N   0  0  0  0  0  0  0  0  0  0  0  0
  -18.6910   -0.4740  -32.4940 C   0  0  0  0  0  0  0  0  0  0  0  0
  -20.1380   -2.4770  -32.0640 N   0  0  0  0  0  0  0  0  0  0  0  0
  -21.3190   -2.8470  -32.6060 C   0  0  0  0  0  0  0  0  0  0  0  0
  -22.3420   -4.4190  -32.1940 Br  0  0  0  0  0  0  0  0  0  0  0  0
  -17.6560   -0.8020  -31.5610 N   0  0  0  0  0  0  0  0  0  0  0  0
  -17.0960   -0.0130  -31.1350 H   0  0  0  0  0  0  0  0  0  0  0  0
  -17.4380   -1.7810  -31.2900 H   0  0  0  0  0  0  0  0  0  0  0  0
  -24.7900   -0.5700  -33.9840 O   0  0  0  0  0  0  0  0  0  0  0  0
  -24.9280   -0.8450  -33.0590 H   0  0  0  0  0  0  0  0  0  0  0  0
  1 11  2  6  0  0  0
  1  3  1  0  0  0  0
  2  1  1  0  0  0  0
  4  3  1  1  0  0  0
  4  8  1  0  0  0  0
  5  9  1  6  0  0  0
  5  4  1  0  0  0  0
  5  6  1  0  0  0  0
  6  7  1  0  0  0  0
  7 12  1  1  0  0  0
  8  7  1  0  0  0  0
  8 25  1  6  0  0  0
 10  1  1  0  0  0  0
 10  9  1  0  0  0  0
 12 20  1  0  0  0  0
 13 12  1  0  0  0  0
 13 15  1  0  0  0  0
 14 16  1  0  0  0  0
 14 13  2  0  0  0  0
 15 18  2  0  0  0  0
 15 19  1  0  0  0  0
 16 17  2  0  0  0  0
 17 18  1  0  0  0  0
 18 22  1  0  0  0  0
 20 21  1  0  0  0  0
 20 19  2  0  0  0  0
 22 24  1  0  0  0  0
 22 23  1  0  0  0  0
 25 26  1  0  0  0  0
M  END
>  <Pose>
1

>  <Score>
-8.150

$$$$
