/Users/jonathanwahrer/Desktop/Msc/3_Semester/Drug_Design_Praktikum/waehrer_HTS_screening/HTS_experiment/out/docking_results/vina_output/5l4q/0999_docked.pdbqt
 OpenBabel03212218263D

 35 39  0  0  1  0  0  0  0  0999 V2000
  -20.3810    0.5980  -34.3100 N   0  0  0  0  0  0  0  0  0  0  0  0
  -19.9120    0.4090  -32.9860 C   0  0  0  0  0  0  0  0  0  0  0  0
  -19.2860    1.3520  -32.4340 O   0  0  0  0  0  0  0  0  0  0  0  0
  -20.9000   -0.2030  -34.7500 H   0  0  0  0  0  0  0  0  0  0  0  0
  -20.1310    1.8390  -34.9690 C   0  0  1  0  0  3  0  0  0  0  0  0
  -20.1550    1.8740  -36.4390 C   0  0  1  0  0  0  0  0  0  0  0  0
  -19.4370    0.5580  -37.4180 S   0  0  0  0  0  0  0  0  0  0  0  0
  -21.5590    1.6340  -36.3240 N   0  0  0  0  0  0  0  0  0  0  0  0
  -20.5900    0.6590  -38.8360 C   0  0  0  0  0  2  0  0  0  0  0  0
  -21.9800    0.3530  -38.2600 C   0  0  0  0  0  0  0  0  0  0  0  0
  -22.4060    0.8010  -37.1210 C   0  0  0  0  0  0  0  0  0  0  0  0
  -21.4750    2.5060  -35.2110 C   0  0  1  0  0  0  0  0  0  0  0  0
  -22.0580    3.4010  -34.5870 O   0  0  0  0  0  1  0  0  0  0  0  0
  -22.7120   -0.4970  -39.1640 C   0  0  0  0  0  2  0  0  0  0  0  0
  -22.4490   -1.8160  -39.3280 O   0  0  0  0  0  0  0  0  0  0  0  0
  -23.4310   -2.8120  -39.2610 C   0  0  0  0  0  0  0  0  0  0  0  0
  -23.3500   -3.7430  -40.0830 O   0  0  0  0  0  0  0  0  0  0  0  0
  -24.4830   -2.6800  -38.2250 C   0  0  0  0  0  1  0  0  0  0  0  0
  -23.7560    0.5160  -36.5530 C   0  0  0  0  0  0  0  0  0  0  0  0
  -24.8250    0.7930  -37.0530 O   0  0  0  0  0  0  0  0  0  0  0  0
  -23.8370   -0.1390  -35.3100 O   0  0  0  0  0  1  0  0  0  0  0  0
  -20.1350   -0.8410  -32.2520 C   0  0  0  0  0  0  0  0  0  0  0  0
  -19.6190   -1.2430  -31.1330 O   0  0  0  0  0  0  0  0  0  0  0  0
  -20.0490   -2.4110  -30.7820 C   0  0  0  0  0  0  0  0  0  0  0  0
  -20.9450   -2.8380  -31.7680 C   0  0  0  0  0  3  0  0  0  0  0  0
  -20.9860   -1.8300  -32.6920 C   0  0  0  0  0  3  0  0  0  0  0  0
  -19.6880   -3.2100  -29.5540 C   0  0  0  0  0  2  0  0  0  0  0  0
  -20.3100   -2.6790  -28.4120 O   0  0  0  0  0  0  0  0  0  0  0  0
  -19.7190   -1.8940  -27.4650 C   0  0  0  0  0  0  0  0  0  0  0  0
  -19.2550   -2.3530  -26.2350 C   0  0  0  0  0  3  0  0  0  0  0  0
  -18.6710   -1.4710  -25.3530 C   0  0  0  0  0  3  0  0  0  0  0  0
  -18.5130   -0.1310  -25.6160 C   0  0  0  0  0  0  0  0  0  0  0  0
  -18.9710    0.3350  -26.8370 C   0  0  0  0  0  3  0  0  0  0  0  0
  -17.6960    1.0440  -24.3550 Br  0  0  0  0  0  0  0  0  0  0  0  0
  -19.5610   -0.5490  -27.7310 C   0  0  0  0  0  3  0  0  0  0  0  0
  1  2  1  0  0  0  0
  2  3  2  0  0  0  0
  2 22  1  0  0  0  0
  4  1  1  0  0  0  0
  5  1  1  6  0  0  0
  6  7  1  6  0  0  0
  6  8  1  0  0  0  0
  6 12  1  0  0  0  0
  6  5  1  0  0  0  0
  8 12  1  0  0  0  0
  9 10  1  0  0  0  0
  9  7  1  0  0  0  0
 10 11  2  0  0  0  0
 11 19  1  0  0  0  0
 11  8  1  0  0  0  0
 12  5  1  0  0  0  0
 12 13  1  1  0  0  0
 14 10  1  0  0  0  0
 15 16  1  0  0  0  0
 15 14  1  0  0  0  0
 16 18  1  0  0  0  0
 17 16  2  0  0  0  0
 19 21  1  0  0  0  0
 20 19  2  0  0  0  0
 22 23  1  0  0  0  0
 23 24  1  0  0  0  0
 24 27  1  0  0  0  0
 25 24  2  0  0  0  0
 26 22  2  0  0  0  0
 26 25  1  0  0  0  0
 27 28  1  0  0  0  0
 28 29  1  0  0  0  0
 29 30  1  0  0  0  0
 30 31  2  0  0  0  0
 32 31  1  0  0  0  0
 32 34  1  0  0  0  0
 33 32  2  0  0  0  0
 35 29  2  0  0  0  0
 35 33  1  0  0  0  0
M  END
>  <Pose>
1

>  <Score>
-8.780

$$$$
