/Users/jonathanwahrer/Desktop/Msc/3_Semester/Drug_Design_Praktikum/waehrer_HTS_screening/HTS_experiment/out/docking_results/vina_output/5l4q/1001_docked.pdbqt
 OpenBabel03212218263D

 26 29  0  0  1  0  0  0  0  0999 V2000
  -20.8820    0.4590  -36.0400 P   0  0  2  0  0  0  0  0  0  0  0  0
  -20.4840    0.0290  -37.4540 O   0  0  0  0  0  0  0  0  0  0  0  0
  -19.5850    0.1270  -35.0280 O   0  0  0  0  0  0  0  0  0  0  0  0
  -19.9810   -0.5100  -33.8800 C   0  0  2  0  0  3  0  0  0  0  0  0
  -21.3690    0.0430  -33.5290 C   0  0  2  0  0  3  0  0  0  0  0  0
  -21.4910   -0.0610  -32.1760 O   0  0  0  0  0  0  0  0  0  0  0  0
  -20.2540   -0.0600  -31.5930 C   0  0  2  0  0  3  0  0  0  0  0  0
  -19.2080   -0.1090  -32.6530 C   0  0  2  0  0  3  0  0  0  0  0  0
  -22.3490   -0.7600  -34.3240 C   0  0  0  0  0  2  0  0  0  0  0  0
  -22.2740   -0.3690  -35.6400 O   0  0  0  0  0  0  0  0  0  0  0  0
  -21.1430    2.1470  -36.1270 O   0  0  0  0  0  1  0  0  0  0  0  0
  -20.1890   -1.1960  -30.6840 N   0  0  0  0  0  0  0  0  0  0  0  0
  -20.5060   -2.4760  -30.9910 C   0  0  0  0  0  0  0  0  0  0  0  0
  -20.9370   -3.0250  -32.1390 N   0  0  0  0  0  0  0  0  0  0  0  0
  -20.3160   -3.2530  -29.8680 C   0  0  0  0  0  0  0  0  0  0  0  0
  -21.1850   -4.3440  -32.1870 C   0  0  0  0  0  3  0  0  0  0  0  0
  -20.9990   -5.1000  -31.0890 N   0  0  0  0  0  0  0  0  0  0  0  0
  -20.5700   -4.6210  -29.9110 C   0  0  0  0  0  0  0  0  0  0  0  0
  -19.8900   -2.4590  -28.8890 N   0  0  0  0  0  0  0  0  0  0  0  0
  -19.8170   -1.2140  -29.3940 C   0  0  0  0  0  0  0  0  0  0  0  0
  -19.2620    0.3790  -28.4590 Br  0  0  0  0  0  0  0  0  0  0  0  0
  -20.3700   -5.4090  -28.7470 N   0  0  0  0  0  0  0  0  0  0  0  0
  -21.2310   -5.7790  -28.2440 H   0  0  0  0  0  0  0  0  0  0  0  0
  -19.4540   -5.6480  -28.3570 H   0  0  0  0  0  0  0  0  0  0  0  0
  -18.5660    1.0950  -32.8600 O   0  0  0  0  0  0  0  0  0  0  0  0
  -17.6510    1.1160  -32.5350 H   0  0  0  0  0  0  0  0  0  0  0  0
  1  2  2  6  0  0  0
  1 10  1  0  0  0  0
  1  3  1  0  0  0  0
  4  3  1  6  0  0  0
  4  5  1  0  0  0  0
  4  8  1  0  0  0  0
  5  9  1  6  0  0  0
  5  6  1  0  0  0  0
  6  7  1  0  0  0  0
  7 12  1  1  0  0  0
  8 25  1  6  0  0  0
  8  7  1  0  0  0  0
 10  9  1  0  0  0  0
 11  1  1  0  0  0  0
 12 20  1  0  0  0  0
 13 12  1  0  0  0  0
 13 15  1  0  0  0  0
 14 13  2  0  0  0  0
 15 19  1  0  0  0  0
 16 14  1  0  0  0  0
 16 17  2  0  0  0  0
 17 18  1  0  0  0  0
 18 15  2  0  0  0  0
 18 22  1  0  0  0  0
 20 19  2  0  0  0  0
 20 21  1  0  0  0  0
 22 24  1  0  0  0  0
 22 23  1  0  0  0  0
 25 26  1  0  0  0  0
M  END
>  <Pose>
1

>  <Score>
-7.483

$$$$
