/Users/jonathanwahrer/Desktop/Msc/3_Semester/Drug_Design_Praktikum/waehrer_HTS_screening/HTS_experiment/out/docking_results/vina_output/5l4q/1008_docked.pdbqt
 OpenBabel03212218263D

 29 32  0  0  1  0  0  0  0  0999 V2000
  -20.9010   -0.3260  -34.7020 C   0  0  0  0  0  0  0  0  0  0  0  0
  -20.1340    0.6610  -34.5840 O   0  0  0  0  0  0  0  0  0  0  0  0
  -20.6900   -1.4910  -33.9070 N   0  0  0  0  0  0  0  0  0  0  0  0
  -19.5950   -1.5510  -32.9630 C   0  0  0  0  0  2  0  0  0  0  0  0
  -19.9640   -2.2130  -31.6730 C   0  0  2  0  0  3  0  0  0  0  0  0
  -21.4930   -2.2590  -31.6190 C   0  0  0  0  0  2  0  0  0  0  0  0
  -21.9080   -3.2400  -32.6950 C   0  0  0  0  0  2  0  0  0  0  0  0
  -21.5600   -2.6320  -34.0290 C   0  0  0  0  0  2  0  0  0  0  0  0
  -21.9960   -0.2610  -35.6490 C   0  0  0  0  0  0  0  0  0  0  0  0
  -21.8680   -0.7670  -36.9380 C   0  0  0  0  0  3  0  0  0  0  0  0
  -22.8990   -0.7140  -37.8470 C   0  0  0  0  0  0  0  0  0  0  0  0
  -24.1080   -0.1440  -37.4890 C   0  0  0  0  0  3  0  0  0  0  0  0
  -24.2540    0.3620  -36.2170 C   0  0  0  0  0  3  0  0  0  0  0  0
  -23.2040    0.3040  -35.3010 C   0  0  0  0  0  0  0  0  0  0  0  0
  -23.4570    1.0160  -33.5640 Br  0  0  0  0  0  0  0  0  0  0  0  0
  -22.6740   -1.3640  -39.4430 S   0  0  0  0  0  0  0  0  0  0  0  0
  -22.9180   -0.2650  -40.4570 O   0  0  0  0  0  0  0  0  0  0  0  0
  -23.6520   -2.4820  -39.7090 O   0  0  0  0  0  0  0  0  0  0  0  0
  -21.0540   -1.8890  -39.6500 N   0  0  0  0  0  0  0  0  0  0  0  0
  -20.4310   -1.1110  -39.9730 H   0  0  0  0  0  0  0  0  0  0  0  0
  -21.0160   -2.6880  -40.3310 H   0  0  0  0  0  0  0  0  0  0  0  0
  -19.4110   -1.5120  -30.4700 C   0  0  0  0  0  0  0  0  0  0  0  0
  -19.5730   -1.8820  -29.1730 N   0  0  0  0  0  0  0  0  0  0  0  0
  -18.9400   -1.0260  -28.3650 C   0  0  0  0  0  0  0  0  0  0  0  0
  -20.2230   -2.9230  -28.3970 C   0  0  0  0  0  2  0  0  0  0  0  0
  -18.3750   -0.1050  -29.2020 N   0  0  0  0  0  0  0  0  0  0  0  0
  -19.0890   -1.3900  -26.9260 C   0  0  0  0  0  2  0  0  0  0  0  0
  -18.6590   -0.4000  -30.4550 N   0  0  0  0  0  0  0  0  0  0  0  0
  -19.6210   -2.7870  -27.0140 C   0  0  0  0  0  2  0  0  0  0  0  0
  1  2  2  0  0  0  0
  1  3  1  0  0  0  0
  3  4  1  0  0  0  0
  4  5  1  0  0  0  0
  5  6  1  0  0  0  0
  5 22  1  1  0  0  0
  7  6  1  0  0  0  0
  8  3  1  0  0  0  0
  8  7  1  0  0  0  0
  9 14  1  0  0  0  0
  9  1  1  0  0  0  0
 10  9  2  0  0  0  0
 11 12  2  0  0  0  0
 11 10  1  0  0  0  0
 12 13  1  0  0  0  0
 13 14  2  0  0  0  0
 14 15  1  0  0  0  0
 16 11  1  0  0  0  0
 17 16  2  0  0  0  0
 18 16  2  0  0  0  0
 19 16  1  0  0  0  0
 20 19  1  0  0  0  0
 21 19  1  0  0  0  0
 22 28  2  0  0  0  0
 22 23  1  0  0  0  0
 23 25  1  0  0  0  0
 23 24  1  0  0  0  0
 24 27  1  0  0  0  0
 25 29  1  0  0  0  0
 26 24  2  0  0  0  0
 28 26  1  0  0  0  0
 29 27  1  0  0  0  0
M  END
>  <Pose>
1

>  <Score>
-8.653

$$$$
