/Users/jonathanwahrer/Desktop/Msc/3_Semester/Drug_Design_Praktikum/waehrer_HTS_screening/HTS_experiment/out/docking_results/vina_output/5l4q/1027_docked.pdbqt
 OpenBabel03212218273D

 32 35  0  0  0  0  0  0  0  0999 V2000
  -21.5670    1.3480  -33.3120 N   0  0  0  0  0  0  0  0  0  0  0  0
  -22.9160    1.0060  -33.3050 C   0  0  0  0  0  2  0  0  0  0  0  0
  -23.4970    0.6690  -34.6240 C   0  0  0  0  0  0  0  0  0  0  0  0
  -24.4810   -0.1020  -34.7190 O   0  0  0  0  0  0  0  0  0  0  0  0
  -22.8780    1.2680  -35.7570 N   0  0  0  0  0  0  0  0  0  0  0  0
  -21.9700    2.3270  -35.4990 C   0  0  0  0  0  0  0  0  0  0  0  0
  -21.7950    3.1950  -36.4000 O   0  0  0  0  0  0  0  0  0  0  0  0
  -21.2370    2.4370  -34.2210 C   0  0  0  0  0  2  0  0  0  0  0  0
  -20.3650    0.1840  -33.2120 S   0  0  0  0  0  0  0  0  0  0  0  0
  -19.0770    0.8870  -32.7850 O   0  0  0  0  0  0  0  0  0  0  0  0
  -20.0470   -0.3700  -34.5810 O   0  0  0  0  0  0  0  0  0  0  0  0
  -20.6130   -1.1120  -32.0740 C   0  0  0  0  0  0  0  0  0  0  0  0
  -20.1300   -0.9510  -30.7690 C   0  0  0  0  0  3  0  0  0  0  0  0
  -20.2040   -1.9240  -29.7980 C   0  0  0  0  0  0  0  0  0  0  0  0
  -20.7800   -3.1420  -30.0890 C   0  0  0  0  0  0  0  0  0  0  0  0
  -19.7760   -1.9530  -28.4350 N   0  0  0  0  0  0  0  0  0  0  0  0
  -21.2610   -3.3170  -31.3630 C   0  0  0  0  0  3  0  0  0  0  0  0
  -20.7560   -4.0280  -28.9000 C   0  0  0  0  0  2  0  0  0  0  0  0
  -21.1840   -2.3200  -32.3500 C   0  0  0  0  0  0  0  0  0  0  0  0
  -21.9820   -2.6470  -34.0620 Br  0  0  0  0  0  0  0  0  0  0  0  0
  -20.5130   -3.0230  -27.7720 C   0  0  0  0  0  2  0  0  0  0  0  0
  -18.8190   -1.1340  -27.8100 C   0  0  0  0  0  0  0  0  0  0  0  0
  -18.5920   -1.3030  -26.5620 O   0  0  0  0  0  0  0  0  0  0  0  0
  -18.0240   -0.0700  -28.4690 C   0  0  0  0  0  1  0  0  0  0  0  0
  -23.1840    0.8020  -37.0920 C   0  0  0  0  0  2  0  0  0  0  0  0
  -22.3390   -0.3290  -37.5660 C   0  0  0  0  0  2  0  0  0  0  0  0
  -23.0480   -1.4310  -38.2140 C   0  0  0  0  0  0  0  0  0  0  0  0
  -22.6390   -1.9620  -39.4060 C   0  0  0  0  0  3  0  0  0  0  0  0
  -23.3510   -2.9890  -39.9590 C   0  0  0  0  0  3  0  0  0  0  0  0
  -24.4830   -3.5150  -39.3470 C   0  0  0  0  0  3  0  0  0  0  0  0
  -24.8710   -2.9670  -38.1550 C   0  0  0  0  0  3  0  0  0  0  0  0
  -24.1800   -1.9340  -37.5710 C   0  0  0  0  0  3  0  0  0  0  0  0
  1  2  1  0  0  0  0
  1  9  1  0  0  0  0
  3  2  1  0  0  0  0
  4  3  2  0  0  0  0
  5  6  1  0  0  0  0
  5  3  1  0  0  0  0
  6  8  1  0  0  0  0
  7  6  2  0  0  0  0
  8  1  1  0  0  0  0
  9 10  2  0  0  0  0
  9 12  1  0  0  0  0
 11  9  2  0  0  0  0
 12 13  1  0  0  0  0
 13 14  2  0  0  0  0
 14 16  1  0  0  0  0
 15 14  1  0  0  0  0
 15 18  1  0  0  0  0
 16 22  1  0  0  0  0
 16 21  1  0  0  0  0
 17 15  2  0  0  0  0
 18 21  1  0  0  0  0
 19 12  2  0  0  0  0
 19 17  1  0  0  0  0
 20 19  1  0  0  0  0
 22 23  2  0  0  0  0
 24 22  1  0  0  0  0
 25  5  1  0  0  0  0
 26 25  1  0  0  0  0
 27 32  1  0  0  0  0
 27 26  1  0  0  0  0
 28 27  2  0  0  0  0
 29 28  1  0  0  0  0
 29 30  2  0  0  0  0
 30 31  1  0  0  0  0
 31 32  2  0  0  0  0
M  END
>  <Pose>
1

>  <Score>
-9.288

$$$$
