/Users/jonathanwahrer/Desktop/Msc/3_Semester/Drug_Design_Praktikum/waehrer_HTS_screening/HTS_experiment/out/docking_results/vina_output/5l4q/1028_docked.pdbqt
 OpenBabel03212218273D

 25 28  0  0  1  0  0  0  0  0999 V2000
  -20.7520   -1.0790  -32.4100 N   0  0  0  0  0  0  0  0  0  0  0  0
  -21.4130   -0.0570  -33.1400 C   0  0  0  0  0  2  0  0  0  0  0  0
  -20.9800   -0.6490  -34.4240 C   0  0  1  0  0  3  0  0  0  0  0  0
  -20.4860   -1.7920  -33.6080 C   0  0  0  0  0  2  0  0  0  0  0  0
  -22.0320   -1.0330  -35.3470 N   0  0  0  0  0  0  0  0  0  0  0  0
  -22.7510   -2.1240  -35.3520 N   0  0  0  0  0  0  0  0  0  0  0  0
  -23.6210   -2.1050  -36.3710 N   0  0  0  0  0  0  0  0  0  0  0  0
  -23.4590   -0.9570  -37.0520 C   0  0  0  0  0  0  0  0  0  0  0  0
  -22.4430   -0.2870  -36.3860 C   0  0  0  0  0  3  0  0  0  0  0  0
  -24.2080   -0.4920  -38.2670 C   0  0  0  0  0  2  0  0  0  0  0  0
  -23.2470   -0.3260  -39.3430 N   0  0  0  0  0  0  0  0  0  0  0  0
  -22.8140    0.9250  -39.8890 C   0  0  0  0  0  2  0  0  0  0  0  0
  -21.7670    0.5900  -40.9130 C   0  0  0  0  0  2  0  0  0  0  0  0
  -21.4140   -0.8560  -40.7730 C   0  0  0  0  0  2  0  0  0  0  0  0
  -22.5930   -1.3990  -40.0130 C   0  0  0  0  0  0  0  0  0  0  0  0
  -22.9050   -2.6040  -40.0040 O   0  0  0  0  0  0  0  0  0  0  0  0
  -19.3980   -0.6950  -31.4770 S   0  0  0  0  0  0  0  0  0  0  0  0
  -19.3370    0.7940  -31.2970 O   0  0  0  0  0  0  0  0  0  0  0  0
  -18.1090   -1.0970  -32.1550 O   0  0  0  0  0  0  0  0  0  0  0  0
  -19.4280   -1.4020  -29.8630 C   0  0  0  0  0  0  0  0  0  0  0  0
  -18.7210   -0.7830  -28.4290 S   0  0  0  0  0  0  0  0  0  0  0  0
  -19.1840   -2.0140  -27.3410 C   0  0  0  0  0  0  0  0  0  0  0  0
  -19.8830   -2.8790  -28.1420 C   0  0  0  0  0  3  0  0  0  0  0  0
  -18.8300   -2.1790  -25.4540 Br  0  0  0  0  0  0  0  0  0  0  0  0
  -20.0050   -2.5600  -29.4320 C   0  0  0  0  0  3  0  0  0  0  0  0
  1 17  1  0  0  0  0
  2  1  1  0  0  0  0
  3  5  1  6  0  0  0
  3  4  1  0  0  0  0
  3  2  1  0  0  0  0
  4  1  1  0  0  0  0
  6  5  1  0  0  0  0
  7  6  2  0  0  0  0
  8  9  2  0  0  0  0
  8  7  1  0  0  0  0
  9  5  1  0  0  0  0
 10  8  1  0  0  0  0
 11 10  1  0  0  0  0
 12 11  1  0  0  0  0
 13 14  1  0  0  0  0
 13 12  1  0  0  0  0
 14 15  1  0  0  0  0
 15 16  2  0  0  0  0
 15 11  1  0  0  0  0
 17 18  2  0  0  0  0
 17 20  1  0  0  0  0
 19 17  2  0  0  0  0
 20 25  2  0  0  0  0
 20 21  1  0  0  0  0
 21 22  1  0  0  0  0
 22 24  1  0  0  0  0
 23 22  2  0  0  0  0
 25 23  1  0  0  0  0
M  END
>  <Pose>
1

>  <Score>
-8.231

$$$$
