/Users/jonathanwahrer/Desktop/Msc/3_Semester/Drug_Design_Praktikum/waehrer_HTS_screening/HTS_experiment/out/docking_results/vina_output/5l4q/1037_docked.pdbqt
 OpenBabel03212218273D

 31 34  0  0  0  0  0  0  0  0999 V2000
  -20.3730   -1.2510  -33.8220 N   0  0  0  0  0  0  0  0  0  0  0  0
  -21.4050   -2.2270  -33.9040 C   0  0  0  0  0  3  0  0  0  0  0  0
  -22.5450   -1.9680  -34.7750 C   0  0  0  0  0  3  0  0  0  0  0  0
  -22.4380   -0.9010  -35.7510 N   0  0  0  0  0  0  0  0  0  0  0  0
  -21.3700    0.0470  -35.6840 C   0  0  0  0  0  2  0  0  0  0  0  0
  -20.1280   -0.5390  -35.0230 C   0  0  0  0  0  2  0  0  0  0  0  0
  -23.3930   -0.8480  -36.7680 C   0  0  0  0  0  0  0  0  0  0  0  0
  -24.2110   -1.9200  -36.7070 O   0  0  0  0  0  0  0  0  0  0  0  0
  -20.3270   -0.3260  -32.4030 S   0  0  0  0  0  0  0  0  0  0  0  0
  -21.6180    0.4340  -32.2650 O   0  0  0  0  0  0  0  0  0  0  0  0
  -19.2290    0.7210  -32.4880 O   0  0  0  0  0  0  0  0  0  0  0  0
  -20.1540   -1.2640  -30.9350 C   0  0  0  0  0  0  0  0  0  0  0  0
  -19.3960   -0.7670  -29.8750 C   0  0  0  0  0  3  0  0  0  0  0  0
  -19.2120   -1.4630  -28.7000 C   0  0  0  0  0  0  0  0  0  0  0  0
  -19.7810   -2.7040  -28.5190 C   0  0  0  0  0  0  0  0  0  0  0  0
  -18.4160   -0.9370  -27.6250 N   0  0  0  0  0  0  0  0  0  0  0  0
  -20.5310   -3.2010  -29.5620 C   0  0  0  0  0  3  0  0  0  0  0  0
  -19.5960   -3.4240  -27.3220 O   0  0  0  0  0  0  0  0  0  0  0  0
  -20.7210   -2.5050  -30.7510 C   0  0  0  0  0  3  0  0  0  0  0  0
  -19.3080   -2.7130  -26.1060 C   0  0  0  0  0  2  0  0  0  0  0  0
  -18.2600   -1.7200  -26.4550 C   0  0  0  0  0  0  0  0  0  0  0  0
  -17.2370   -1.5480  -25.7530 O   0  0  0  0  0  0  0  0  0  0  0  0
  -17.9950   -0.0070  -27.7690 H   0  0  0  0  0  0  0  0  0  0  0  0
  -23.6780    0.0770  -37.8260 C   0  0  0  0  0  2  0  0  0  0  0  0
  -22.9760    0.0140  -39.1060 C   0  0  0  0  0  0  0  0  0  0  0  0
  -23.0650    1.0320  -40.0230 C   0  0  0  0  0  0  0  0  0  0  0  0
  -22.3850    0.9620  -41.2380 C   0  0  0  0  0  3  0  0  0  0  0  0
  -24.1380    2.5780  -39.6540 Br  0  0  0  0  0  0  0  0  0  0  0  0
  -21.6210   -0.1320  -41.5180 C   0  0  0  0  0  3  0  0  0  0  0  0
  -21.5240   -1.1700  -40.5890 C   0  0  0  0  0  3  0  0  0  0  0  0
  -22.1890   -1.0990  -39.4060 C   0  0  0  0  0  3  0  0  0  0  0  0
  1  9  1  0  0  0  0
  2  1  1  0  0  0  0
  3  2  2  0  0  0  0
  4  5  1  0  0  0  0
  4  3  1  0  0  0  0
  5  6  1  0  0  0  0
  6  1  1  0  0  0  0
  7  8  2  0  0  0  0
  7  4  1  0  0  0  0
  9 10  2  0  0  0  0
  9 12  1  0  0  0  0
 11  9  2  0  0  0  0
 12 19  2  0  0  0  0
 12 13  1  0  0  0  0
 13 14  2  0  0  0  0
 14 15  1  0  0  0  0
 14 16  1  0  0  0  0
 15 18  1  0  0  0  0
 16 21  1  0  0  0  0
 17 15  2  0  0  0  0
 18 20  1  0  0  0  0
 19 17  1  0  0  0  0
 21 20  1  0  0  0  0
 21 22  2  0  0  0  0
 23 16  1  0  0  0  0
 24  7  1  0  0  0  0
 25 24  1  0  0  0  0
 26 28  1  0  0  0  0
 26 25  2  0  0  0  0
 27 26  1  0  0  0  0
 29 27  2  0  0  0  0
 29 30  1  0  0  0  0
 30 31  2  0  0  0  0
 31 25  1  0  0  0  0
M  END
>  <Pose>
1

>  <Score>
-9.576

$$$$
