/Users/jonathanwahrer/Desktop/Msc/3_Semester/Drug_Design_Praktikum/waehrer_HTS_screening/HTS_experiment/out/docking_results/vina_output/5l4q/1040_docked.pdbqt
 OpenBabel03212218273D

 34 38  0  0  0  0  0  0  0  0999 V2000
  -19.6200   -0.4920  -32.4450 S   0  0  0  0  0  0  0  0  0  0  0  0
  -18.4360    0.3450  -32.1450 O   0  0  0  0  0  0  0  0  0  0  0  0
  -19.1790   -1.3960  -33.6010 O   0  0  0  0  0  0  0  0  0  0  0  0
  -20.9530    0.3940  -33.0760 N   0  0  0  0  0  0  0  0  0  0  0  0
  -21.7740   -0.3460  -33.9720 C   0  0  0  0  0  2  0  0  0  0  0  0
  -21.3170   -0.2960  -35.4240 C   0  0  0  0  0  2  0  0  0  0  0  0
  -21.1350    1.0650  -35.8020 N   0  0  0  0  0  0  0  0  0  0  0  0
  -20.1040    1.7490  -34.9560 C   0  0  0  0  0  2  0  0  0  0  0  0
  -21.7280    1.8340  -36.7830 C   0  0  0  0  0  0  0  0  0  0  0  0
  -20.6040    1.6890  -33.5530 C   0  0  0  0  0  2  0  0  0  0  0  0
  -21.3050    3.0810  -36.8400 O   0  0  0  0  0  0  0  0  0  0  0  0
  -22.7300    1.5190  -37.7590 C   0  0  0  0  0  2  0  0  0  0  0  0
  -23.2590    0.2060  -37.8310 N   0  0  0  0  0  0  0  0  0  0  0  0
  -24.1470   -0.3620  -37.0160 N   0  0  0  0  0  0  0  0  0  0  0  0
  -24.4400   -1.6040  -37.4210 C   0  0  0  0  0  3  0  0  0  0  0  0
  -23.6910   -1.8200  -38.5520 C   0  0  0  0  0  0  0  0  0  0  0  0
  -22.9620   -0.6970  -38.8020 C   0  0  0  0  0  3  0  0  0  0  0  0
  -23.6720   -3.4300  -39.6050 Br  0  0  0  0  0  0  0  0  0  0  0  0
  -20.0950   -1.5720  -31.1720 C   0  0  0  0  0  0  0  0  0  0  0  0
  -20.5510   -2.8730  -31.4290 C   0  0  0  0  0  0  0  0  0  0  0  0
  -20.9290   -3.7250  -30.4120 C   0  0  0  0  0  0  0  0  0  0  0  0
  -20.7020   -3.5130  -32.6550 O   0  0  0  0  0  0  0  0  0  0  0  0
  -20.8720   -3.3290  -29.0910 C   0  0  0  0  0  0  0  0  0  0  0  0
  -21.3220   -4.9120  -30.9910 O   0  0  0  0  0  0  0  0  0  0  0  0
  -20.4290   -2.0610  -28.8320 C   0  0  0  0  0  0  0  0  0  0  0  0
  -20.0510   -1.2120  -29.8680 C   0  0  0  0  0  0  0  0  0  0  0  0
  -20.3070   -1.4910  -27.4710 C   0  0  0  0  0  2  0  0  0  0  0  0
  -19.6070    0.1230  -29.4340 C   0  0  0  0  0  2  0  0  0  0  0  0
  -18.5970    0.0190  -28.3130 C   0  0  0  0  0  2  0  0  0  0  0  0
  -18.9920   -0.9460  -27.3590 N   0  0  0  0  0  0  0  0  0  0  0  0
  -17.9910   -1.8440  -26.9010 C   0  0  0  0  0  1  0  0  0  0  0  0
  -21.3210   -4.7600  -32.3820 C   0  0  0  0  0  2  0  0  0  0  0  0
  -21.2570   -4.1950  -28.0460 O   0  0  0  0  0  0  0  0  0  0  0  0
  -20.3710   -5.2620  -27.6800 C   0  0  0  0  0  1  0  0  0  0  0  0
  1  2  2  0  0  0  0
  1 19  1  0  0  0  0
  3  1  2  0  0  0  0
  4  1  1  0  0  0  0
  5  4  1  0  0  0  0
  6  5  1  0  0  0  0
  7  6  1  0  0  0  0
  7  8  1  0  0  0  0
  8 10  1  0  0  0  0
  9  7  1  0  0  0  0
 10  4  1  0  0  0  0
 11  9  2  0  0  0  0
 12  9  1  0  0  0  0
 13 12  1  0  0  0  0
 13 14  1  0  0  0  0
 15 14  2  0  0  0  0
 16 15  1  0  0  0  0
 17 16  2  0  0  0  0
 17 13  1  0  0  0  0
 18 16  1  0  0  0  0
 19 26  1  0  0  0  0
 20 19  2  0  0  0  0
 20 21  1  0  0  0  0
 21 23  2  0  0  0  0
 22 32  1  0  0  0  0
 22 20  1  0  0  0  0
 23 25  1  0  0  0  0
 23 33  1  0  0  0  0
 24 21  1  0  0  0  0
 25 27  1  0  0  0  0
 26 28  1  0  0  0  0
 26 25  2  0  0  0  0
 27 30  1  0  0  0  0
 28 29  1  0  0  0  0
 29 30  1  0  0  0  0
 30 31  1  0  0  0  0
 32 24  1  0  0  0  0
 33 34  1  0  0  0  0
M  END
>  <Pose>
1

>  <Score>
-8.882

$$$$
