/Users/jonathanwahrer/Desktop/Msc/3_Semester/Drug_Design_Praktikum/waehrer_HTS_screening/HTS_experiment/out/docking_results/vina_output/5l4q/1043_docked.pdbqt
 OpenBabel03212218283D

 31 34  0  0  0  0  0  0  0  0999 V2000
  -21.0610   -2.1900  -32.4080 N   0  0  0  0  0  0  0  0  0  0  0  0
  -20.5360   -1.0680  -31.6590 C   0  0  0  0  0  2  0  0  0  0  0  0
  -19.4410   -0.3670  -32.4230 C   0  0  0  0  0  2  0  0  0  0  0  0
  -19.9790   -0.0690  -33.7670 N   0  0  0  0  0  0  0  0  0  0  0  0
  -20.4680   -1.1980  -34.4950 C   0  0  0  0  0  2  0  0  0  0  0  0
  -20.3010   -2.4360  -33.5830 C   0  0  0  0  0  2  0  0  0  0  0  0
  -19.9940    1.2460  -34.2540 C   0  0  0  0  0  0  0  0  0  0  0  0
  -19.5090    2.1440  -33.4200 O   0  0  0  0  0  0  0  0  0  0  0  0
  -20.4380    1.8240  -35.4970 C   0  0  0  0  0  2  0  0  0  0  0  0
  -20.9860    0.9970  -36.5250 N   0  0  0  0  0  0  0  0  0  0  0  0
  -20.2750    0.3500  -37.6110 C   0  0  0  0  0  0  0  0  0  0  0  0
  -19.0250    0.4420  -37.7570 O   0  0  0  0  0  0  0  0  0  0  0  0
  -21.2270   -0.3480  -38.3980 N   0  0  0  0  0  0  0  0  0  0  0  0
  -22.5080    0.1950  -38.0940 C   0  0  0  0  0  0  0  0  0  0  0  0
  -20.9540   -1.1200  -39.0660 H   0  0  0  0  0  0  0  0  0  0  0  0
  -22.9360    1.2900  -39.0420 C   0  0  0  0  0  2  0  0  0  0  0  0
  -23.6300   -0.8150  -38.2650 C   0  0  0  0  0  2  0  0  0  0  0  0
  -22.3740    0.6500  -36.7110 C   0  0  0  0  0  0  0  0  0  0  0  0
  -24.4060    1.4290  -38.6970 C   0  0  0  0  0  2  0  0  0  0  0  0
  -24.8490    0.0730  -38.2040 C   0  0  0  0  0  2  0  0  0  0  0  0
  -23.2660    0.7380  -35.8280 O   0  0  0  0  0  0  0  0  0  0  0  0
  -21.3440   -3.5690  -31.4420 S   0  0  0  0  0  0  0  0  0  0  0  0
  -20.6890   -4.7450  -32.1440 O   0  0  0  0  0  0  0  0  0  0  0  0
  -22.8210   -3.8730  -31.4290 O   0  0  0  0  0  0  0  0  0  0  0  0
  -20.7450   -3.4000  -29.8090 C   0  0  0  0  0  0  0  0  0  0  0  0
  -20.4950   -2.1670  -29.2420 C   0  0  0  0  0  3  0  0  0  0  0  0
  -20.0180   -2.0430  -27.9420 C   0  0  0  0  0  3  0  0  0  0  0  0
  -19.7800   -3.1530  -27.1740 C   0  0  0  0  0  0  0  0  0  0  0  0
  -20.0270   -4.3910  -27.7290 C   0  0  0  0  0  3  0  0  0  0  0  0
  -19.1200   -2.9900  -25.3720 Br  0  0  0  0  0  0  0  0  0  0  0  0
  -20.5030   -4.5080  -29.0260 C   0  0  0  0  0  3  0  0  0  0  0  0
  1  2  1  0  0  0  0
  1 22  1  0  0  0  0
  3  2  1  0  0  0  0
  4  3  1  0  0  0  0
  5  4  1  0  0  0  0
  5  6  1  0  0  0  0
  6  1  1  0  0  0  0
  7  4  1  0  0  0  0
  7  8  2  0  0  0  0
  9  7  1  0  0  0  0
 10  9  1  0  0  0  0
 11 10  1  0  0  0  0
 12 11  2  0  0  0  0
 13 14  1  0  0  0  0
 13 11  1  0  0  0  0
 14 18  1  0  0  0  0
 15 13  1  0  0  0  0
 16 19  1  0  0  0  0
 16 14  1  0  0  0  0
 17 20  1  0  0  0  0
 17 14  1  0  0  0  0
 18 10  1  0  0  0  0
 18 21  2  0  0  0  0
 19 20  1  0  0  0  0
 22 24  2  0  0  0  0
 22 25  1  0  0  0  0
 23 22  2  0  0  0  0
 25 26  2  0  0  0  0
 25 31  1  0  0  0  0
 26 27  1  0  0  0  0
 27 28  2  0  0  0  0
 28 30  1  0  0  0  0
 29 28  1  0  0  0  0
 31 29  2  0  0  0  0
M  END
>  <Pose>
1

>  <Score>
-9.762

$$$$
