/Users/jonathanwahrer/Desktop/Msc/3_Semester/Drug_Design_Praktikum/waehrer_HTS_screening/HTS_experiment/out/docking_results/vina_output/5l4q/1044_docked.pdbqt
 OpenBabel03212218283D

 30 33  0  0  0  0  0  0  0  0999 V2000
  -20.5380    1.2770  -34.6200 N   0  0  0  0  0  0  0  0  0  0  0  0
  -21.7840    1.6400  -34.1050 C   0  0  0  0  0  2  0  0  0  0  0  0
  -22.9620    1.4480  -34.9920 C   0  0  0  0  0  2  0  0  0  0  0  0
  -22.8090    0.4250  -35.9770 N   0  0  0  0  0  0  0  0  0  0  0  0
  -21.5710   -0.3230  -36.0260 C   0  0  0  0  0  2  0  0  0  0  0  0
  -20.4580    0.7160  -35.9060 C   0  0  0  0  0  2  0  0  0  0  0  0
  -23.8240    0.1120  -36.9130 C   0  0  0  0  0  0  0  0  0  0  0  0
  -24.9300    0.7430  -36.9080 O   0  0  0  0  0  0  0  0  0  0  0  0
  -19.3230    0.8630  -33.5190 S   0  0  0  0  0  0  0  0  0  0  0  0
  -18.0000    0.6130  -34.1300 O   0  0  0  0  0  0  0  0  0  0  0  0
  -19.1530    2.0340  -32.5590 O   0  0  0  0  0  0  0  0  0  0  0  0
  -19.8400   -0.4910  -32.5210 C   0  0  0  0  0  0  0  0  0  0  0  0
  -19.6410   -0.4980  -31.1560 C   0  0  0  0  0  3  0  0  0  0  0  0
  -20.0350   -1.5440  -30.3470 C   0  0  0  0  0  0  0  0  0  0  0  0
  -20.6590   -2.6480  -30.8910 C   0  0  0  0  0  0  0  0  0  0  0  0
  -19.8300   -1.5550  -28.9410 N   0  0  0  0  0  0  0  0  0  0  0  0
  -20.8620   -2.6440  -32.2620 C   0  0  0  0  0  3  0  0  0  0  0  0
  -21.0690   -3.7200  -30.1000 O   0  0  0  0  0  0  0  0  0  0  0  0
  -20.4650   -1.5950  -33.0650 C   0  0  0  0  0  3  0  0  0  0  0  0
  -20.6780   -3.9080  -28.7530 C   0  0  0  0  0  2  0  0  0  0  0  0
  -20.2410   -2.6400  -28.1160 C   0  0  0  0  0  0  0  0  0  0  0  0
  -20.2560   -2.5920  -26.8600 O   0  0  0  0  0  0  0  0  0  0  0  0
  -19.3600   -0.7290  -28.5140 H   0  0  0  0  0  0  0  0  0  0  0  0
  -23.6850   -0.9270  -37.9240 C   0  0  0  0  0  0  0  0  0  0  0  0
  -23.0690   -0.6980  -39.1400 C   0  0  0  0  0  0  0  0  0  0  0  0
  -22.9310   -1.6710  -40.1020 C   0  0  0  0  0  3  0  0  0  0  0  0
  -22.3970    1.0630  -39.4490 Br  0  0  0  0  0  0  0  0  0  0  0  0
  -23.4360   -2.9330  -39.8280 C   0  0  0  0  0  3  0  0  0  0  0  0
  -24.0570   -3.2190  -38.6350 C   0  0  0  0  0  3  0  0  0  0  0  0
  -24.1710   -2.2090  -37.7050 C   0  0  0  0  0  3  0  0  0  0  0  0
  1  2  1  0  0  0  0
  1  9  1  0  0  0  0
  3  2  1  0  0  0  0
  4  3  1  0  0  0  0
  5  4  1  0  0  0  0
  5  6  1  0  0  0  0
  6  1  1  0  0  0  0
  7  8  2  0  0  0  0
  7  4  1  0  0  0  0
  9 11  2  0  0  0  0
  9 12  1  0  0  0  0
 10  9  2  0  0  0  0
 12 13  1  0  0  0  0
 13 14  2  0  0  0  0
 14 16  1  0  0  0  0
 15 14  1  0  0  0  0
 15 18  1  0  0  0  0
 16 23  1  0  0  0  0
 16 21  1  0  0  0  0
 17 15  2  0  0  0  0
 18 20  1  0  0  0  0
 19 12  2  0  0  0  0
 19 17  1  0  0  0  0
 20 21  1  0  0  0  0
 21 22  2  0  0  0  0
 24 30  1  0  0  0  0
 24  7  1  0  0  0  0
 25 24  2  0  0  0  0
 26 28  2  0  0  0  0
 26 25  1  0  0  0  0
 27 25  1  0  0  0  0
 28 29  1  0  0  0  0
 29 30  2  0  0  0  0
M  END
>  <Pose>
1

>  <Score>
-9.274

$$$$
