/Users/jonathanwahrer/Desktop/Msc/3_Semester/Drug_Design_Praktikum/waehrer_HTS_screening/HTS_experiment/out/docking_results/vina_output/5l4q/1051_docked.pdbqt
 OpenBabel03212218283D

 27 30  0  0  0  0  0  0  0  0999 V2000
  -20.3440    2.3140  -38.4800 N   0  0  0  0  0  0  0  0  0  0  0  0
  -19.5880    1.4540  -37.6460 C   0  0  0  0  0  2  0  0  0  0  0  0
  -20.3040    0.8440  -36.4900 C   0  0  0  0  0  2  0  0  0  0  0  0
  -21.3080    1.6940  -35.9070 N   0  0  0  0  0  0  0  0  0  0  0  0
  -21.4630    3.0060  -36.4950 C   0  0  0  0  0  2  0  0  0  0  0  0
  -21.6040    2.7500  -37.9810 C   0  0  0  0  0  2  0  0  0  0  0  0
  -22.1260    1.3310  -34.8210 C   0  0  0  0  0  0  0  0  0  0  0  0
  -22.9730    2.1400  -34.3820 O   0  0  0  0  0  0  0  0  0  0  0  0
  -21.9950    0.0170  -34.2010 C   0  0  0  0  0  0  0  0  0  0  0  0
  -21.4000   -0.2410  -33.0420 N   0  0  0  0  0  0  0  0  0  0  0  0
  -21.4580   -1.5470  -32.7690 N   0  0  0  0  0  0  0  0  0  0  0  0
  -22.1090   -2.1850  -33.7690 C   0  0  0  0  0  0  0  0  0  0  0  0
  -21.0030   -2.2750  -31.7280 C   0  0  0  0  0  3  0  0  0  0  0  0
  -22.4510   -1.1830  -34.6840 C   0  0  0  0  0  3  0  0  0  0  0  0
  -22.3130   -3.5260  -33.7520 N   0  0  0  0  0  0  0  0  0  0  0  0
  -21.8510   -4.2590  -32.6980 C   0  0  0  0  0  3  0  0  0  0  0  0
  -21.1850   -3.6380  -31.6640 C   0  0  0  0  0  0  0  0  0  0  0  0
  -20.5350   -4.6740  -30.1790 Br  0  0  0  0  0  0  0  0  0  0  0  0
  -20.5630    1.7240  -40.0820 S   0  0  0  0  0  0  0  0  0  0  0  0
  -19.2380    1.5490  -40.7520 O   0  0  0  0  0  0  0  0  0  0  0  0
  -21.3410    2.7960  -40.8340 O   0  0  0  0  0  0  0  0  0  0  0  0
  -21.4200    0.2040  -40.1080 C   0  0  0  0  0  0  0  0  0  0  0  0
  -22.2330   -0.3140  -39.1250 C   0  0  0  0  0  3  0  0  0  0  0  0
  -22.7090   -1.4980  -39.5120 N   0  0  0  0  0  0  0  0  0  0  0  0
  -22.2340   -1.7670  -40.7130 N   0  0  0  0  0  0  0  0  0  0  0  0
  -23.5910   -2.3660  -38.7790 C   0  0  0  0  0  1  0  0  0  0  0  0
  -21.4350   -0.7500  -41.1260 C   0  0  0  0  0  3  0  0  0  0  0  0
  1  6  1  0  0  0  0
  1  2  1  0  0  0  0
  2  3  1  0  0  0  0
  3  4  1  0  0  0  0
  4  7  1  0  0  0  0
  5  4  1  0  0  0  0
  6  5  1  0  0  0  0
  7  8  2  0  0  0  0
  7  9  1  0  0  0  0
  9 10  2  0  0  0  0
 10 11  1  0  0  0  0
 11 13  1  0  0  0  0
 12 15  1  0  0  0  0
 12 11  1  0  0  0  0
 13 17  2  0  0  0  0
 14  9  1  0  0  0  0
 14 12  2  0  0  0  0
 15 16  2  0  0  0  0
 16 17  1  0  0  0  0
 17 18  1  0  0  0  0
 19  1  1  0  0  0  0
 20 19  2  0  0  0  0
 21 19  2  0  0  0  0
 22 19  1  0  0  0  0
 22 23  2  0  0  0  0
 24 23  1  0  0  0  0
 24 26  1  0  0  0  0
 25 24  1  0  0  0  0
 27 25  2  0  0  0  0
 27 22  1  0  0  0  0
M  END
>  <Pose>
1

>  <Score>
-8.136

$$$$
