/Users/jonathanwahrer/Desktop/Msc/3_Semester/Drug_Design_Praktikum/waehrer_HTS_screening/HTS_experiment/out/docking_results/vina_output/5l4q/1076_docked.pdbqt
 OpenBabel03212218293D

 29 32  0  0  0  0  0  0  0  0999 V2000
  -21.1360    0.3620  -34.4410 N   0  0  0  0  0  0  0  0  0  0  0  0
  -20.3600   -0.7890  -34.7780 C   0  0  0  0  0  2  0  0  0  0  0  0
  -20.0670   -1.5030  -33.4470 C   0  0  0  0  0  2  0  0  0  0  0  0
  -19.9730   -0.5990  -32.3850 N   0  0  0  0  0  0  0  0  0  0  0  0
  -19.4700    0.7090  -32.7050 C   0  0  0  0  0  2  0  0  0  0  0  0
  -20.1710    1.3320  -33.8910 C   0  0  0  0  0  2  0  0  0  0  0  0
  -20.8600   -0.6570  -31.2990 C   0  0  0  0  0  2  0  0  0  0  0  0
  -20.3460   -1.0210  -30.0180 N   0  0  0  0  0  0  0  0  0  0  0  0
  -20.5330   -2.3270  -29.4990 N   0  0  0  0  0  0  0  0  0  0  0  0
  -19.8870   -2.3340  -28.2290 C   0  0  0  0  0  0  0  0  0  0  0  0
  -21.0420   -3.1220  -29.9530 H   0  0  0  0  0  0  0  0  0  0  0  0
  -19.8540   -3.4010  -27.4400 C   0  0  0  0  0  3  0  0  0  0  0  0
  -19.3040   -1.0720  -27.9440 N   0  0  0  0  0  0  0  0  0  0  0  0
  -19.2710   -3.6840  -26.1090 C   0  0  0  0  0  2  0  0  0  0  0  0
  -19.1690   -2.4230  -25.2850 C   0  0  0  0  0  2  0  0  0  0  0  0
  -18.0420   -1.6100  -25.8980 C   0  0  0  0  0  2  0  0  0  0  0  0
  -18.5600   -0.5600  -26.8340 C   0  0  0  0  0  2  0  0  0  0  0  0
  -19.6030   -0.2610  -29.0770 C   0  0  0  0  0  0  0  0  0  0  0  0
  -19.2430    0.9380  -29.1840 O   0  0  0  0  0  0  0  0  0  0  0  0
  -21.8810    1.1180  -35.7830 S   0  0  0  0  0  0  0  0  0  0  0  0
  -20.9970    2.1680  -36.4040 O   0  0  0  0  0  0  0  0  0  0  0  0
  -23.1030    1.8430  -35.2670 O   0  0  0  0  0  0  0  0  0  0  0  0
  -22.3940    0.0210  -37.0060 C   0  0  0  0  0  0  0  0  0  0  0  0
  -22.0300    0.0530  -38.3200 C   0  0  0  0  0  3  0  0  0  0  0  0
  -22.5020   -0.8830  -39.2280 C   0  0  0  0  0  0  0  0  0  0  0  0
  -23.3520   -1.8780  -38.8450 C   0  0  0  0  0  3  0  0  0  0  0  0
  -21.9750   -0.8180  -41.0750 Br  0  0  0  0  0  0  0  0  0  0  0  0
  -23.7410   -1.9370  -37.5160 C   0  0  0  0  0  3  0  0  0  0  0  0
  -23.2670   -1.0040  -36.6270 C   0  0  0  0  0  3  0  0  0  0  0  0
  1  6  1  0  0  0  0
  2  1  1  0  0  0  0
  2  3  1  0  0  0  0
  3  4  1  0  0  0  0
  4  7  1  0  0  0  0
  5  4  1  0  0  0  0
  6  5  1  0  0  0  0
  7  8  1  0  0  0  0
  8  9  1  0  0  0  0
  8 18  1  0  0  0  0
  9 10  1  0  0  0  0
 10 13  1  0  0  0  0
 10 12  2  0  0  0  0
 11  9  1  0  0  0  0
 12 14  1  0  0  0  0
 13 17  1  0  0  0  0
 14 15  1  0  0  0  0
 16 15  1  0  0  0  0
 17 16  1  0  0  0  0
 18 13  1  0  0  0  0
 19 18  2  0  0  0  0
 20 22  2  0  0  0  0
 20  1  1  0  0  0  0
 21 20  2  0  0  0  0
 23 29  1  0  0  0  0
 23 20  1  0  0  0  0
 24 23  2  0  0  0  0
 25 26  2  0  0  0  0
 25 24  1  0  0  0  0
 26 28  1  0  0  0  0
 27 25  1  0  0  0  0
 28 29  2  0  0  0  0
M  END
>  <Pose>
1

>  <Score>
-9.067

$$$$
