/Users/jonathanwahrer/Desktop/Msc/3_Semester/Drug_Design_Praktikum/waehrer_HTS_screening/HTS_experiment/out/docking_results/vina_output/5l4q/1081_docked.pdbqt
 OpenBabel03212218293D

 27 30  0  0  0  0  0  0  0  0999 V2000
  -21.5650   -0.0060  -34.2950 N   0  0  0  0  0  0  0  0  0  0  0  0
  -20.4710   -0.7790  -34.7430 C   0  0  0  0  0  2  0  0  0  0  0  0
  -19.9390   -1.8090  -33.8040 C   0  0  0  0  0  2  0  0  0  0  0  0
  -20.6300   -1.8820  -32.5410 N   0  0  0  0  0  0  0  0  0  0  0  0
  -21.1470   -0.6880  -31.9550 C   0  0  0  0  0  3  0  0  0  0  0  0
  -21.6320    0.3330  -32.9240 C   0  0  0  0  0  3  0  0  0  0  0  0
  -20.7520   -3.1750  -31.9310 C   0  0  0  0  0  0  0  0  0  0  0  0
  -20.4130   -3.4840  -30.6680 N   0  0  0  0  0  0  0  0  0  0  0  0
  -20.6790   -4.7890  -30.5400 N   0  0  0  0  0  0  0  0  0  0  0  0
  -21.1600   -5.2580  -31.6700 N   0  0  0  0  0  0  0  0  0  0  0  0
  -21.2200   -4.2880  -32.5580 N   0  0  0  0  0  0  0  0  0  0  0  0
  -19.8940   -2.6020  -29.6820 C   0  0  0  0  0  0  0  0  0  0  0  0
  -18.9150   -1.6840  -29.9880 C   0  0  0  0  0  3  0  0  0  0  0  0
  -18.4270   -0.8320  -28.9990 C   0  0  0  0  0  3  0  0  0  0  0  0
  -18.9040   -0.8860  -27.7080 C   0  0  0  0  0  3  0  0  0  0  0  0
  -19.9000   -1.8200  -27.3960 C   0  0  0  0  0  3  0  0  0  0  0  0
  -20.3770   -2.6650  -28.4000 C   0  0  0  0  0  3  0  0  0  0  0  0
  -23.0640   -0.2760  -35.0510 S   0  0  0  0  0  0  0  0  0  0  0  0
  -24.0980    0.7400  -34.7700 O   0  0  0  0  0  0  0  0  0  0  0  0
  -23.6110   -1.6010  -34.5330 O   0  0  0  0  0  0  0  0  0  0  0  0
  -22.8360   -0.4600  -36.7690 C   0  0  0  0  0  0  0  0  0  0  0  0
  -23.2730   -1.5560  -37.4680 C   0  0  0  0  0  3  0  0  0  0  0  0
  -23.0870   -1.6890  -38.8430 C   0  0  0  0  0  3  0  0  0  0  0  0
  -22.4280   -0.6580  -39.5210 C   0  0  0  0  0  0  0  0  0  0  0  0
  -21.9850    0.4470  -38.8300 C   0  0  0  0  0  3  0  0  0  0  0  0
  -22.1400   -0.7720  -41.4090 Br  0  0  0  0  0  0  0  0  0  0  0  0
  -22.1880    0.5390  -37.4810 C   0  0  0  0  0  3  0  0  0  0  0  0
  1  6  1  0  0  0  0
  2  1  1  0  0  0  0
  2  3  1  0  0  0  0
  3  4  1  0  0  0  0
  4  5  1  0  0  0  0
  4  7  1  0  0  0  0
  6  5  2  0  0  0  0
  7  8  1  0  0  0  0
  8  9  1  0  0  0  0
  8 12  1  0  0  0  0
 10  9  2  0  0  0  0
 11  7  2  0  0  0  0
 11 10  1  0  0  0  0
 12 17  1  0  0  0  0
 13 12  2  0  0  0  0
 13 14  1  0  0  0  0
 14 15  2  0  0  0  0
 15 16  1  0  0  0  0
 17 16  2  0  0  0  0
 18 19  2  0  0  0  0
 18 20  2  0  0  0  0
 18  1  1  0  0  0  0
 21 18  1  0  0  0  0
 22 21  1  0  0  0  0
 23 22  2  0  0  0  0
 24 23  1  0  0  0  0
 24 25  2  0  0  0  0
 25 27  1  0  0  0  0
 26 24  1  0  0  0  0
 27 21  2  0  0  0  0
M  END
>  <Pose>
1

>  <Score>
-8.877

$$$$
