/Users/jonathanwahrer/Desktop/Msc/3_Semester/Drug_Design_Praktikum/waehrer_HTS_screening/HTS_experiment/out/docking_results/vina_output/5l4q/1089_docked.pdbqt
 OpenBabel03212218303D

 25 28  0  0  0  0  0  0  0  0999 V2000
  -21.6090    0.0400  -34.7720 N   0  0  0  0  0  0  0  0  0  0  0  0
  -20.2360   -0.2780  -34.8460 C   0  0  0  0  0  2  0  0  0  0  0  0
  -19.5990   -0.7650  -33.5690 C   0  0  0  0  0  2  0  0  0  0  0  0
  -20.4930   -0.7400  -32.4540 N   0  0  0  0  0  0  0  0  0  0  0  0
  -21.6000    0.1930  -32.3400 C   0  0  0  0  0  2  0  0  0  0  0  0
  -21.9260    0.8400  -33.6540 C   0  0  0  0  0  2  0  0  0  0  0  0
  -20.3240   -1.6640  -31.3880 C   0  0  0  0  0  0  0  0  0  0  0  0
  -19.7360   -1.2510  -30.2260 N   0  0  0  0  0  0  0  0  0  0  0  0
  -19.5750   -2.0990  -29.2100 C   0  0  0  0  0  3  0  0  0  0  0  0
  -19.9730   -3.3690  -29.2770 N   0  0  0  0  0  0  0  0  0  0  0  0
  -20.5480   -3.7920  -30.4010 C   0  0  0  0  0  0  0  0  0  0  0  0
  -21.0340   -4.9860  -30.7500 N   0  0  0  0  0  0  0  0  0  0  0  0
  -20.7490   -2.9610  -31.5040 C   0  0  0  0  0  0  0  0  0  0  0  0
  -21.5160   -4.9000  -32.0210 C   0  0  0  0  0  3  0  0  0  0  0  0
  -21.3420   -3.6610  -32.4820 N   0  0  0  0  0  0  0  0  0  0  0  0
  -21.6190   -3.3300  -33.4240 H   0  0  0  0  0  0  0  0  0  0  0  0
  -22.7370   -1.0610  -35.3270 S   0  0  0  0  0  0  0  0  0  0  0  0
  -24.1250   -0.5800  -34.9210 O   0  0  0  0  0  0  0  0  0  0  0  0
  -22.5780   -2.4190  -34.7460 O   0  0  0  0  0  0  0  0  0  0  0  0
  -22.8040   -1.2330  -37.0830 C   0  0  0  0  0  0  0  0  0  0  0  0
  -22.0290   -0.3140  -38.2900 S   0  0  0  0  0  0  0  0  0  0  0  0
  -22.6110   -1.1170  -39.6730 C   0  0  0  0  0  0  0  0  0  0  0  0
  -23.4100   -2.1020  -39.1440 C   0  0  0  0  0  3  0  0  0  0  0  0
  -22.2560   -0.7610  -41.5150 Br  0  0  0  0  0  0  0  0  0  0  0  0
  -23.5040   -2.1550  -37.8100 C   0  0  0  0  0  3  0  0  0  0  0  0
  1  6  1  0  0  0  0
  2  1  1  0  0  0  0
  2  3  1  0  0  0  0
  3  4  1  0  0  0  0
  4  5  1  0  0  0  0
  4  7  1  0  0  0  0
  6  5  1  0  0  0  0
  7  8  1  0  0  0  0
  8  9  2  0  0  0  0
 10  9  1  0  0  0  0
 11 10  2  0  0  0  0
 12 11  1  0  0  0  0
 13  7  2  0  0  0  0
 13 11  1  0  0  0  0
 14 12  2  0  0  0  0
 15 14  1  0  0  0  0
 15 13  1  0  0  0  0
 16 15  1  0  0  0  0
 17 18  2  0  0  0  0
 17  1  1  0  0  0  0
 17 19  2  0  0  0  0
 20 17  1  0  0  0  0
 21 20  1  0  0  0  0
 22 23  2  0  0  0  0
 22 21  1  0  0  0  0
 23 25  1  0  0  0  0
 24 22  1  0  0  0  0
 25 20  2  0  0  0  0
M  END
>  <Pose>
1

>  <Score>
-7.646

$$$$
