/Users/jonathanwahrer/Desktop/Msc/3_Semester/Drug_Design_Praktikum/waehrer_HTS_screening/HTS_experiment/out/docking_results/vina_output/5l4q/1100_docked.pdbqt
 OpenBabel03212218303D

 26 29  0  0  1  0  0  0  0  0999 V2000
  -21.4610   -0.2010  -35.5820 N   0  0  0  0  0  0  0  0  0  0  0  0
  -20.0700   -0.2840  -35.2880 C   0  0  0  0  0  2  0  0  0  0  0  0
  -19.7360    0.1670  -33.8810 C   0  0  0  0  0  2  0  0  0  0  0  0
  -20.8360   -0.2210  -33.0360 N   0  0  2  0  0  0  0  0  0  0  0  0
  -22.0860    0.4520  -33.2820 C   0  0  0  0  0  2  0  0  0  0  0  0
  -22.2450    0.6460  -34.7480 C   0  0  0  0  0  2  0  0  0  0  0  0
  -20.7300   -1.1970  -32.0190 C   0  0  1  0  0  3  0  0  0  0  0  0
  -20.1490   -0.9420  -30.8460 C   0  0  0  0  0  3  0  0  0  0  0  0
  -20.0210   -1.9160  -29.7780 C   0  0  0  0  0  0  0  0  0  0  0  0
  -19.4330   -1.6070  -28.6340 C   0  0  0  0  0  1  0  0  0  0  0  0
  -20.5390   -3.2140  -29.9790 N   0  0  0  0  0  0  0  0  0  0  0  0
  -21.1580   -3.4520  -31.2520 C   0  0  0  0  0  0  0  0  0  0  0  0
  -20.4990   -3.9740  -29.2870 H   0  0  0  0  0  0  0  0  0  0  0  0
  -21.2510   -2.5160  -32.2090 N   0  0  0  0  0  0  0  0  0  0  0  0
  -21.7460   -4.5620  -31.7660 N   0  0  0  0  0  0  0  0  0  0  0  0
  -21.8750   -3.0360  -33.2690 N   0  0  0  0  0  0  0  0  0  0  0  0
  -22.1920   -4.3170  -33.0100 C   0  0  0  0  0  3  0  0  0  0  0  0
  -21.6980    0.1020  -37.2360 S   0  0  0  0  0  0  0  0  0  0  0  0
  -20.4070    0.3350  -37.9790 O   0  0  0  0  0  0  0  0  0  0  0  0
  -22.4940    1.3920  -37.3630 O   0  0  0  0  0  0  0  0  0  0  0  0
  -22.6610   -1.1480  -38.0230 C   0  0  0  0  0  0  0  0  0  0  0  0
  -24.0680   -1.8780  -37.4130 S   0  0  0  0  0  0  0  0  0  0  0  0
  -24.4060   -2.9440  -38.6950 C   0  0  0  0  0  0  0  0  0  0  0  0
  -23.3940   -2.6990  -39.5830 C   0  0  0  0  0  3  0  0  0  0  0  0
  -25.8530   -4.2080  -38.8920 Br  0  0  0  0  0  0  0  0  0  0  0  0
  -22.4840   -1.7600  -39.2300 C   0  0  0  0  0  3  0  0  0  0  0  0
  1  2  1  0  0  0  0
  1  6  1  0  0  0  0
  2  3  1  0  0  0  0
  4  3  1  1  0  0  0
  4  7  1  0  0  0  0
  5  4  1  0  0  0  0
  6  5  1  0  0  0  0
  7  8  1  1  0  0  0
  8  9  2  0  0  0  0
  9 10  1  0  0  0  0
 11  9  1  0  0  0  0
 11 13  1  0  0  0  0
 12 11  1  0  0  0  0
 14  7  1  0  0  0  0
 14 12  1  0  0  0  0
 15 12  2  0  0  0  0
 16 17  2  0  0  0  0
 16 14  1  0  0  0  0
 17 15  1  0  0  0  0
 18  1  1  0  0  0  0
 19 18  2  0  0  0  0
 20 18  2  0  0  0  0
 21 22  1  0  0  0  0
 21 18  1  0  0  0  0
 23 22  1  0  0  0  0
 24 26  1  0  0  0  0
 24 23  2  0  0  0  0
 25 23  1  0  0  0  0
 26 21  2  0  0  0  0
M  END
>  <Pose>
1

>  <Score>
-8.001

$$$$
