/Users/jonathanwahrer/Desktop/Msc/3_Semester/Drug_Design_Praktikum/waehrer_HTS_screening/HTS_experiment/out/docking_results/vina_output/5l4q/1101_docked.pdbqt
 OpenBabel03212218303D

 26 29  0  0  0  0  0  0  0  0999 V2000
  -20.1440    1.8700  -34.6140 N   0  0  0  0  0  0  0  0  0  0  0  0
  -19.6570    1.7970  -35.9400 C   0  0  0  0  0  2  0  0  0  0  0  0
  -20.2680    0.7540  -36.8070 C   0  0  0  0  0  2  0  0  0  0  0  0
  -21.7250    0.6770  -36.6110 N   0  0  0  0  0  0  0  0  0  0  0  0
  -22.2820    1.7440  -35.8070 C   0  0  0  0  0  2  0  0  0  0  0  0
  -21.5630    1.6960  -34.4720 C   0  0  0  0  0  2  0  0  0  0  0  0
  -19.2400    1.0230  -33.4480 S   0  0  0  0  0  0  0  0  0  0  0  0
  -19.2020    1.8830  -32.1900 O   0  0  0  0  0  0  0  0  0  0  0  0
  -17.8140    0.8680  -33.8870 O   0  0  0  0  0  0  0  0  0  0  0  0
  -19.9570   -0.4960  -32.9840 C   0  0  0  0  0  0  0  0  0  0  0  0
  -20.3770   -1.4240  -33.9280 C   0  0  0  0  0  3  0  0  0  0  0  0
  -20.9440   -2.6240  -33.5600 C   0  0  0  0  0  3  0  0  0  0  0  0
  -21.0950   -2.9030  -32.2110 C   0  0  0  0  0  0  0  0  0  0  0  0
  -20.6930   -2.0130  -31.2350 C   0  0  0  0  0  3  0  0  0  0  0  0
  -21.8860   -4.5770  -31.7180 Br  0  0  0  0  0  0  0  0  0  0  0  0
  -20.1310   -0.8260  -31.6450 C   0  0  0  0  0  3  0  0  0  0  0  0
  -22.4800   -0.3730  -37.1840 C   0  0  0  0  0  0  0  0  0  0  0  0
  -22.1740   -0.7880  -38.4740 C   0  0  0  0  0  3  0  0  0  0  0  0
  -22.9250   -1.8240  -39.0270 C   0  0  0  0  0  0  0  0  0  0  0  0
  -23.9070   -2.4080  -38.3540 N   0  0  0  0  0  0  0  0  0  0  0  0
  -22.8240   -2.3940  -40.2400 N   0  0  0  0  0  0  0  0  0  0  0  0
  -24.4320   -3.3570  -39.1470 C   0  0  0  0  0  0  0  0  0  0  0  0
  -24.2040   -2.0280  -37.1430 N   0  0  0  0  0  0  0  0  0  0  0  0
  -23.7510   -3.3340  -40.3080 N   0  0  0  0  0  0  0  0  0  0  0  0
  -25.5670   -4.2750  -38.8090 C   0  0  0  0  0  1  0  0  0  0  0  0
  -23.5030   -1.0230  -36.5560 C   0  0  0  0  0  3  0  0  0  0  0  0
  1  6  1  0  0  0  0
  1  7  1  0  0  0  0
  2  1  1  0  0  0  0
  3  4  1  0  0  0  0
  3  2  1  0  0  0  0
  4  5  1  0  0  0  0
  5  6  1  0  0  0  0
  7 10  1  0  0  0  0
  7  8  2  0  0  0  0
  9  7  2  0  0  0  0
 10 16  1  0  0  0  0
 11 12  1  0  0  0  0
 11 10  2  0  0  0  0
 12 13  2  0  0  0  0
 13 15  1  0  0  0  0
 13 14  1  0  0  0  0
 16 14  2  0  0  0  0
 17  4  1  0  0  0  0
 17 26  1  0  0  0  0
 18 17  2  0  0  0  0
 19 18  1  0  0  0  0
 19 20  1  0  0  0  0
 20 23  1  0  0  0  0
 21 19  2  0  0  0  0
 22 25  1  0  0  0  0
 22 20  1  0  0  0  0
 23 26  2  0  0  0  0
 24 21  1  0  0  0  0
 24 22  2  0  0  0  0
M  END
>  <Pose>
1

>  <Score>
-8.658

$$$$
