/Users/jonathanwahrer/Desktop/Msc/3_Semester/Drug_Design_Praktikum/waehrer_HTS_screening/HTS_experiment/out/docking_results/vina_output/5l4q/1105_docked.pdbqt
 OpenBabel03212218303D

 33 36  0  0  1  0  0  0  0  0999 V2000
  -21.1920    1.2750  -35.1640 N   0  0  0  0  0  0  0  0  0  0  0  0
  -22.2090    2.2570  -34.9890 C   0  0  0  0  0  2  0  0  0  0  0  0
  -21.8470    3.3820  -34.0460 C   0  0  0  0  0  2  0  0  0  0  0  0
  -20.4960    3.8770  -34.3230 N   0  0  0  0  0  0  0  0  0  0  0  0
  -19.5240    2.8160  -34.4730 C   0  0  0  0  0  0  0  0  0  0  0  0
  -18.3430    3.0340  -34.7520 O   0  0  0  0  0  0  0  0  0  0  0  0
  -20.1250    1.4590  -34.2520 C   0  0  2  0  0  3  0  0  0  0  0  0
  -20.2310    4.8580  -34.4080 H   0  0  0  0  0  0  0  0  0  0  0  0
  -19.1100    0.3900  -34.1540 C   0  0  0  0  0  2  0  0  0  0  0  0
  -19.7260   -0.8300  -33.5790 C   0  0  0  0  0  0  0  0  0  0  0  0
  -20.3390   -1.5830  -34.3820 O   0  0  0  0  0  0  0  0  0  0  0  0
  -19.6330   -1.1390  -32.1880 N   0  0  0  0  0  0  0  0  0  0  0  0
  -18.9310   -0.2700  -31.2830 C   0  0  0  0  0  2  0  0  0  0  0  0
  -20.2560   -2.3410  -31.6990 C   0  0  0  0  0  2  0  0  0  0  0  0
  -19.4630   -0.2850  -29.8830 C   0  0  0  0  0  2  0  0  0  0  0  0
  -20.0280   -1.5610  -29.4800 N   0  0  0  0  0  0  0  0  0  0  0  0
  -21.0100   -2.1030  -30.4080 C   0  0  0  0  0  2  0  0  0  0  0  0
  -19.7140   -2.2550  -28.3040 C   0  0  0  0  0  0  0  0  0  0  0  0
  -20.1540   -3.5500  -28.1440 C   0  0  0  0  0  3  0  0  0  0  0  0
  -19.8540   -4.2290  -26.9740 C   0  0  0  0  0  3  0  0  0  0  0  0
  -19.1290   -3.6650  -25.9530 C   0  0  0  0  0  3  0  0  0  0  0  0
  -18.6910   -2.3720  -26.1180 C   0  0  0  0  0  3  0  0  0  0  0  0
  -18.9880   -1.6850  -27.2860 C   0  0  0  0  0  3  0  0  0  0  0  0
  -20.7620    1.1670  -36.8050 S   0  0  0  0  0  0  0  0  0  0  0  0
  -19.3070    0.9210  -37.0440 O   0  0  0  0  0  0  0  0  0  0  0  0
  -21.0960    2.4630  -37.5350 O   0  0  0  0  0  0  0  0  0  0  0  0
  -21.6720   -0.0850  -37.6320 C   0  0  0  0  0  0  0  0  0  0  0  0
  -22.6470   -0.8420  -36.9960 C   0  0  0  0  0  3  0  0  0  0  0  0
  -23.3650   -1.8240  -37.6180 C   0  0  0  0  0  3  0  0  0  0  0  0
  -23.1410   -2.1060  -38.9410 C   0  0  0  0  0  0  0  0  0  0  0  0
  -22.1650   -1.3620  -39.6160 C   0  0  0  0  0  3  0  0  0  0  0  0
  -24.1080   -3.4600  -39.8630 Br  0  0  0  0  0  0  0  0  0  0  0  0
  -21.4620   -0.3820  -38.9580 C   0  0  0  0  0  3  0  0  0  0  0  0
  1  2  1  0  0  0  0
  1  7  1  0  0  0  0
  2  3  1  0  0  0  0
  4  3  1  0  0  0  0
  5  4  1  0  0  0  0
  5  7  1  0  0  0  0
  6  5  2  0  0  0  0
  7  9  1  6  0  0  0
  8  4  1  0  0  0  0
  9 10  1  0  0  0  0
 10 12  1  0  0  0  0
 11 10  2  0  0  0  0
 12 14  1  0  0  0  0
 12 13  1  0  0  0  0
 13 15  1  0  0  0  0
 14 17  1  0  0  0  0
 15 16  1  0  0  0  0
 16 18  1  0  0  0  0
 17 16  1  0  0  0  0
 18 19  2  0  0  0  0
 18 23  1  0  0  0  0
 19 20  1  0  0  0  0
 20 21  2  0  0  0  0
 22 21  1  0  0  0  0
 23 22  2  0  0  0  0
 24  1  1  0  0  0  0
 25 24  2  0  0  0  0
 26 24  2  0  0  0  0
 27 28  1  0  0  0  0
 27 24  1  0  0  0  0
 29 28  2  0  0  0  0
 30 29  1  0  0  0  0
 31 33  1  0  0  0  0
 31 30  2  0  0  0  0
 32 30  1  0  0  0  0
 33 27  2  0  0  0  0
M  END
>  <Pose>
1

>  <Score>
-8.566

$$$$
