/Users/jonathanwahrer/Desktop/Msc/3_Semester/Drug_Design_Praktikum/waehrer_HTS_screening/HTS_experiment/out/docking_results/vina_output/5l4q/1112_docked.pdbqt
 OpenBabel03212218313D

 32 35  0  0  0  0  0  0  0  0999 V2000
  -21.0480   -3.7440  -31.5330 C   0  0  0  0  0  2  0  0  0  0  0  0
  -21.3430   -2.8030  -32.6420 C   0  0  0  0  0  0  0  0  0  0  0  0
  -22.2460   -3.0340  -33.6360 C   0  0  0  0  0  3  0  0  0  0  0  0
  -22.4650   -2.1010  -34.6460 C   0  0  0  0  0  3  0  0  0  0  0  0
  -21.7860   -0.9170  -34.6840 C   0  0  0  0  0  0  0  0  0  0  0  0
  -20.8700   -0.6790  -33.6760 C   0  0  0  0  0  3  0  0  0  0  0  0
  -20.6510   -1.6050  -32.6720 C   0  0  0  0  0  3  0  0  0  0  0  0
  -22.0370    0.2830  -35.9420 S   0  0  0  0  0  0  0  0  0  0  0  0
  -22.9610    1.3620  -35.4930 O   0  0  0  0  0  0  0  0  0  0  0  0
  -20.6870    0.9250  -36.1910 O   0  0  0  0  0  0  0  0  0  0  0  0
  -22.5490   -0.4160  -37.4140 N   0  0  0  0  0  0  0  0  0  0  0  0
  -21.5590   -0.3360  -38.4560 C   0  0  0  0  0  2  0  0  0  0  0  0
  -22.3020   -0.5390  -39.7800 C   0  0  0  0  0  2  0  0  0  0  0  0
  -23.0230    0.5900  -40.1060 O   0  0  0  0  0  0  0  0  0  0  0  0
  -23.3230    1.2960  -38.9280 C   0  0  0  0  0  2  0  0  0  0  0  0
  -23.7400    0.2620  -37.8930 C   0  0  0  0  0  2  0  0  0  0  0  0
  -21.3910   -3.2080  -30.2740 O   0  0  0  0  0  0  0  0  0  0  0  0
  -20.5950   -3.2530  -29.1560 C   0  0  0  0  0  0  0  0  0  0  0  0
  -21.0560   -3.7280  -28.0990 O   0  0  0  0  0  0  0  0  0  0  0  0
  -19.2230   -2.7530  -29.1880 C   0  0  0  0  0  2  0  0  0  0  0  0
  -19.0070   -1.6070  -28.3550 N   0  0  0  0  0  0  0  0  0  0  0  0
  -18.6590   -1.7020  -26.9680 C   0  0  0  0  0  0  0  0  0  0  0  0
  -18.5010   -2.7740  -26.3170 O   0  0  0  0  0  0  0  0  0  0  0  0
  -18.5130   -0.3580  -26.4200 C   0  0  0  0  0  0  0  0  0  0  0  0
  -18.7590    0.5500  -27.4160 C   0  0  0  0  0  0  0  0  0  0  0  0
  -18.1970    0.1270  -25.1720 C   0  0  0  0  0  3  0  0  0  0  0  0
  -18.6880    1.9070  -27.1620 C   0  0  0  0  0  3  0  0  0  0  0  0
  -19.0700   -0.2180  -28.6340 C   0  0  0  0  0  0  0  0  0  0  0  0
  -18.3680    2.3780  -25.9030 C   0  0  0  0  0  3  0  0  0  0  0  0
  -18.1180    1.4750  -24.8910 C   0  0  0  0  0  0  0  0  0  0  0  0
  -17.6740    2.0770  -23.1380 Br  0  0  0  0  0  0  0  0  0  0  0  0
  -19.3500    0.2530  -29.7590 O   0  0  0  0  0  0  0  0  0  0  0  0
  1 17  1  0  0  0  0
  2  1  1  0  0  0  0
  3  2  2  0  0  0  0
  4  3  1  0  0  0  0
  5  4  2  0  0  0  0
  5  6  1  0  0  0  0
  6  7  2  0  0  0  0
  7  2  1  0  0  0  0
  8  9  2  0  0  0  0
  8  5  1  0  0  0  0
 10  8  2  0  0  0  0
 11  8  1  0  0  0  0
 12 11  1  0  0  0  0
 13 12  1  0  0  0  0
 14 13  1  0  0  0  0
 14 15  1  0  0  0  0
 15 16  1  0  0  0  0
 16 11  1  0  0  0  0
 17 18  1  0  0  0  0
 18 19  2  0  0  0  0
 20 18  1  0  0  0  0
 20 21  1  0  0  0  0
 21 22  1  0  0  0  0
 22 24  1  0  0  0  0
 22 23  2  0  0  0  0
 24 26  1  0  0  0  0
 25 27  1  0  0  0  0
 25 24  2  0  0  0  0
 26 30  2  0  0  0  0
 27 29  2  0  0  0  0
 28 21  1  0  0  0  0
 28 25  1  0  0  0  0
 29 30  1  0  0  0  0
 30 31  1  0  0  0  0
 32 28  2  0  0  0  0
M  END
>  <Pose>
1

>  <Score>
-9.245

$$$$
