/Users/jonathanwahrer/Desktop/Msc/3_Semester/Drug_Design_Praktikum/waehrer_HTS_screening/HTS_experiment/out/docking_results/vina_output/5l4q/1114_docked.pdbqt
 OpenBabel03212218313D

 27 30  0  0  0  0  0  0  0  0999 V2000
  -22.5010   -0.8930  -35.3980 C   0  0  0  0  0  0  0  0  0  0  0  0
  -23.1390   -1.9300  -34.8270 N   0  0  0  0  0  0  0  0  0  0  0  0
  -22.2960   -2.5270  -33.9640 C   0  0  0  0  0  3  0  0  0  0  0  0
  -21.1110   -1.8990  -33.9580 N   0  0  0  0  0  0  0  0  0  0  0  0
  -21.2350   -0.8940  -34.8390 C   0  0  0  0  0  3  0  0  0  0  0  0
  -19.9510   -2.2430  -33.1620 C   0  0  0  0  0  2  0  0  0  0  0  0
  -20.0430   -1.7450  -31.7710 C   0  0  0  0  0  0  0  0  0  0  0  0
  -20.7070   -0.6350  -31.3970 N   0  0  0  0  0  0  0  0  0  0  0  0
  -20.5840   -0.4910  -30.1120 O   0  0  0  0  0  0  0  0  0  0  0  0
  -19.8670   -1.4550  -29.6020 C   0  0  0  0  0  0  0  0  0  0  0  0
  -19.5270   -2.2410  -30.6360 N   0  0  0  0  0  0  0  0  0  0  0  0
  -19.5310   -1.6040  -28.1850 C   0  0  0  0  0  0  0  0  0  0  0  0
  -19.0270   -0.5590  -27.4390 C   0  0  0  0  0  3  0  0  0  0  0  0
  -18.7130   -0.7160  -26.0910 C   0  0  0  0  0  0  0  0  0  0  0  0
  -18.8970   -1.9240  -25.4560 C   0  0  0  0  0  3  0  0  0  0  0  0
  -18.0150    0.7460  -25.0760 Br  0  0  0  0  0  0  0  0  0  0  0  0
  -19.4010   -2.9700  -26.1980 C   0  0  0  0  0  3  0  0  0  0  0  0
  -19.7140   -2.8100  -27.5500 C   0  0  0  0  0  3  0  0  0  0  0  0
  -23.1450    0.2300  -36.6030 S   0  0  0  0  0  0  0  0  0  0  0  0
  -24.5500    0.5730  -36.1840 O   0  0  0  0  0  0  0  0  0  0  0  0
  -22.3600    1.5020  -36.6200 O   0  0  0  0  0  0  0  0  0  0  0  0
  -23.2020   -0.4940  -38.1510 N   0  0  0  0  0  0  0  0  0  0  0  0
  -23.8020   -1.7750  -38.1790 C   0  0  0  0  0  2  0  0  0  0  0  0
  -23.2200   -2.7670  -39.1320 C   0  0  0  0  0  2  0  0  0  0  0  0
  -22.8050   -2.0510  -40.2780 O   0  0  0  0  0  0  0  0  0  0  0  0
  -21.6510   -1.3780  -39.8660 C   0  0  0  0  0  2  0  0  0  0  0  0
  -22.0390   -0.2860  -38.9340 C   0  0  0  0  0  2  0  0  0  0  0  0
  1  5  2  0  0  0  0
  1  2  1  0  0  0  0
  2  3  2  0  0  0  0
  3  4  1  0  0  0  0
  4  6  1  0  0  0  0
  5  4  1  0  0  0  0
  6  7  1  0  0  0  0
  7  8  2  0  0  0  0
  7 11  1  0  0  0  0
  8  9  1  0  0  0  0
  9 10  1  0  0  0  0
 10 12  1  0  0  0  0
 11 10  2  0  0  0  0
 12 18  2  0  0  0  0
 12 13  1  0  0  0  0
 13 14  2  0  0  0  0
 14 15  1  0  0  0  0
 14 16  1  0  0  0  0
 17 15  2  0  0  0  0
 18 17  1  0  0  0  0
 19 20  2  0  0  0  0
 19  1  1  0  0  0  0
 21 19  2  0  0  0  0
 22 19  1  0  0  0  0
 23 22  1  0  0  0  0
 24 23  1  0  0  0  0
 25 26  1  0  0  0  0
 25 24  1  0  0  0  0
 26 27  1  0  0  0  0
 27 22  1  0  0  0  0
M  END
>  <Pose>
1

>  <Score>
-8.983

$$$$
