/Users/jonathanwahrer/Desktop/Msc/3_Semester/Drug_Design_Praktikum/waehrer_HTS_screening/HTS_experiment/out/docking_results/vina_output/5l4q/1133_docked.pdbqt
 OpenBabel03212218323D

 35 38  0  0  1  0  0  0  0  0999 V2000
  -22.6500   -1.1840  -35.8880 C   0  0  0  0  0  0  0  0  0  0  0  0
  -21.7870   -0.4680  -36.6080 N   0  0  0  0  0  0  0  0  0  0  0  0
  -21.9710   -0.8230  -37.9070 C   0  0  0  0  0  0  0  0  0  0  0  0
  -21.4090   -0.5530  -39.0950 N   0  0  0  0  0  0  0  0  0  0  0  0
  -21.7440   -1.1070  -40.2650 C   0  0  0  0  0  0  0  0  0  0  0  0
  -22.7720   -2.0400  -40.2650 N   0  0  0  0  0  0  0  0  0  0  0  0
  -23.3790   -2.3680  -39.1520 C   0  0  0  0  0  0  0  0  0  0  0  0
  -23.0120   -1.7900  -37.9540 C   0  0  0  0  0  0  0  0  0  0  0  0
  -23.3810   -1.9700  -36.6920 N   0  0  0  0  0  0  0  0  0  0  0  0
  -20.8470    0.5310  -36.2120 C   0  0  2  0  0  3  0  0  0  0  0  0
  -19.8610    0.0680  -35.3130 O   0  0  0  0  0  0  0  0  0  0  0  0
  -19.2460    1.3030  -35.0030 C   0  0  1  0  0  3  0  0  0  0  0  0
  -20.4990    2.0210  -34.4370 C   0  0  2  0  0  3  0  0  0  0  0  0
  -21.4100    1.7970  -35.6520 C   0  0  1  0  0  3  0  0  0  0  0  0
  -18.1730    1.1630  -33.9910 C   0  0  0  0  0  2  0  0  0  0  0  0
  -17.7020    2.4200  -33.5910 O   0  0  0  0  0  0  0  0  0  0  0  0
  -17.2650    2.2980  -32.6930 H   0  0  0  0  0  0  0  0  0  0  0  0
  -20.2720    3.3440  -34.1730 O   0  0  0  0  0  0  0  0  0  0  0  0
  -19.3190    3.5610  -34.3100 H   0  0  0  0  0  0  0  0  0  0  0  0
  -21.1890    2.8910  -36.5280 O   0  0  0  0  0  0  0  0  0  0  0  0
  -21.0250    2.4700  -37.4000 H   0  0  0  0  0  0  0  0  0  0  0  0
  -22.7780   -1.1980  -34.0940 S   0  0  0  0  0  0  0  0  0  0  0  0
  -21.8340   -2.6210  -33.3930 C   0  0  0  0  0  2  0  0  0  0  0  0
  -21.0820   -2.1760  -32.1980 C   0  0  0  0  0  0  0  0  0  0  0  0
  -20.7950   -2.9770  -31.1210 C   0  0  0  0  0  0  0  0  0  0  0  0
  -20.2250   -2.4960  -29.9930 C   0  0  0  0  0  3  0  0  0  0  0  0
  -21.1260   -4.8450  -31.3620 Br  0  0  0  0  0  0  0  0  0  0  0  0
  -19.8880   -1.1540  -29.8650 C   0  0  0  0  0  3  0  0  0  0  0  0
  -20.1690   -0.3060  -30.9460 C   0  0  0  0  0  3  0  0  0  0  0  0
  -20.7550   -0.8100  -32.0910 C   0  0  0  0  0  3  0  0  0  0  0  0
  -21.0980   -0.8410  -41.5190 N   0  0  0  0  0  0  0  0  0  0  0  0
  -21.4730   -1.0090  -42.4500 H   0  0  0  0  0  0  0  0  0  0  0  0
  -20.0910   -0.4570  -41.4710 H   0  0  0  0  0  0  0  0  0  0  0  0
  -24.4060   -3.2760  -39.0980 O   0  0  0  0  0  0  0  0  0  0  0  0
  -25.3360   -3.0560  -38.7590 H   0  0  0  0  0  0  0  0  0  0  0  0
  1 22  1  0  0  0  0
  2  1  1  0  0  0  0
  3  2  1  0  0  0  0
  4  3  1  0  0  0  0
  5  4  2  0  0  0  0
  6  5  1  0  0  0  0
  6  7  2  0  0  0  0
  7 34  1  0  0  0  0
  7  8  1  0  0  0  0
  8  3  2  0  0  0  0
  8  9  1  0  0  0  0
  9  1  2  0  0  0  0
 10  2  1  1  0  0  0
 10 14  1  0  0  0  0
 10 11  1  0  0  0  0
 11 12  1  0  0  0  0
 12 13  1  0  0  0  0
 12 15  1  1  0  0  0
 13 18  1  6  0  0  0
 14 20  1  6  0  0  0
 14 13  1  0  0  0  0
 15 16  1  0  0  0  0
 16 17  1  0  0  0  0
 19 18  1  0  0  0  0
 21 20  1  0  0  0  0
 22 23  1  0  0  0  0
 23 24  1  0  0  0  0
 24 30  2  0  0  0  0
 24 25  1  0  0  0  0
 25 26  2  0  0  0  0
 26 28  1  0  0  0  0
 27 25  1  0  0  0  0
 29 28  2  0  0  0  0
 30 29  1  0  0  0  0
 31 33  1  0  0  0  0
 31  5  1  0  0  0  0
 32 31  1  0  0  0  0
 34 35  1  0  0  0  0
M  END
>  <Pose>
1

>  <Score>
-8.060

$$$$
