/Users/jonathanwahrer/Desktop/Msc/3_Semester/Drug_Design_Praktikum/waehrer_HTS_screening/HTS_experiment/out/docking_results/vina_output/5l4q/1143_docked.pdbqt
 OpenBabel03212218323D

 33 37  0  0  1  0  0  0  0  0999 V2000
  -22.3900    0.3270  -38.4090 C   0  0  1  0  0  3  0  0  0  0  0  0
  -23.3440   -0.7310  -38.7110 N   0  0  0  0  0  4  0  0  0  0  0  0
  -24.6430   -0.4070  -38.1460 C   0  0  0  0  0  2  0  0  0  0  0  0
  -24.6180    0.7230  -37.1510 C   0  0  0  0  0  2  0  0  0  0  0  0
  -23.4090    0.5420  -36.2700 C   0  0  0  0  0  0  0  0  0  0  0  0
  -22.2020    0.3040  -36.9690 C   0  0  0  0  0  0  0  0  0  0  0  0
  -21.0490    0.1010  -36.2630 C   0  0  0  0  0  0  0  0  0  0  0  0
  -21.1220    0.1440  -34.8730 C   0  0  0  0  0  0  0  0  0  0  0  0
  -22.3070    0.3780  -34.2160 C   0  0  0  0  0  0  0  0  0  0  0  0
  -23.4820    0.5830  -34.9160 C   0  0  0  0  0  3  0  0  0  0  0  0
  -22.0630    0.3620  -32.8580 O   0  0  0  0  0  0  0  0  0  0  0  0
  -20.7790   -0.1690  -32.6370 C   0  0  0  0  0  2  0  0  0  0  0  0
  -20.1590   -0.0170  -33.9140 O   0  0  0  0  0  0  0  0  0  0  0  0
  -22.9650   -2.0250  -38.2570 C   0  0  0  0  0  1  0  0  0  0  0  0
  -23.4510   -0.7500  -39.7470 H   0  0  0  0  0  0  0  0  0  0  0  0
  -21.2830    0.3870  -39.3540 C   0  0  1  0  0  3  0  0  0  0  0  0
  -21.9150    0.0510  -40.7230 C   0  0  0  0  0  0  0  0  0  0  0  0
  -22.8640    1.0060  -41.1660 N   0  0  0  0  0  2  0  0  0  0  0  0
  -21.6030   -0.9630  -41.3520 O   0  0  0  0  0  0  0  0  0  0  0  0
  -22.8310    2.2640  -40.9160 C   0  0  0  0  0  0  0  0  0  0  0  0
  -24.0750    3.3960  -41.5200 S   0  0  0  0  0  0  0  0  0  0  0  0
  -21.7180    2.7000  -40.1030 N   0  0  0  0  0  0  0  0  0  0  0  0
  -20.7610    1.7580  -39.6410 C   0  0  0  0  0  0  0  0  0  0  0  0
  -19.5940    2.1340  -39.5160 O   0  0  0  0  0  0  0  0  0  0  0  0
  -21.5700    4.0490  -39.7670 C   0  0  0  0  0  0  0  0  0  0  0  0
  -22.0690    4.4660  -38.5270 C   0  0  0  0  0  3  0  0  0  0  0  0
  -21.9590    5.7800  -38.1260 C   0  0  0  0  0  3  0  0  0  0  0  0
  -21.3440    6.7000  -38.9690 C   0  0  0  0  0  0  0  0  0  0  0  0
  -20.8470    6.2730  -40.2070 C   0  0  0  0  0  3  0  0  0  0  0  0
  -21.1740    8.5090  -38.4580 Br  0  0  0  0  0  0  0  0  0  0  0  0
  -20.9650    4.9580  -40.5900 C   0  0  0  0  0  3  0  0  0  0  0  0
  -19.8390   -0.1450  -36.8970 O   0  0  0  0  0  0  0  0  0  0  0  0
  -18.7420    0.7260  -36.6430 C   0  0  0  0  0  1  0  0  0  0  0  0
  1  6  1  1  0  0  0
  2  1  1  0  0  0  0
  2 14  1  0  0  0  0
  2  3  1  0  0  0  0
  3  4  1  0  0  0  0
  4  5  1  0  0  0  0
  5 10  1  0  0  0  0
  6  5  2  0  0  0  0
  6  7  1  0  0  0  0
  7  8  2  0  0  0  0
  8  9  1  0  0  0  0
  8 13  1  0  0  0  0
  9 11  1  0  0  0  0
 10  9  2  0  0  0  0
 11 12  1  0  0  0  0
 13 12  1  0  0  0  0
 15  2  1  0  0  0  0
 16 17  1  6  0  0  0
 16  1  1  0  0  0  0
 18 20  1  0  0  0  0
 18 17  1  0  0  0  0
 19 17  2  0  0  0  0
 20 22  1  0  0  0  0
 21 20  2  0  0  0  0
 22 25  1  0  0  0  0
 22 23  1  0  0  0  0
 23 24  2  0  0  0  0
 23 16  1  0  0  0  0
 25 26  1  0  0  0  0
 26 27  2  0  0  0  0
 28 30  1  0  0  0  0
 28 27  1  0  0  0  0
 29 28  2  0  0  0  0
 31 29  1  0  0  0  0
 31 25  2  0  0  0  0
 32 33  1  0  0  0  0
 32  7  1  0  0  0  0
M  END
>  <Pose>
1

>  <Score>
-6.938

$$$$
