/Users/jonathanwahrer/Desktop/Msc/3_Semester/Drug_Design_Praktikum/waehrer_HTS_screening/HTS_experiment/out/docking_results/vina_output/5l4q/1157_docked.pdbqt
 OpenBabel03212218333D

 24 27  0  0  1  0  0  0  0  0999 V2000
  -19.4180    1.3770  -33.2590 C   0  0  2  0  0  3  0  0  0  0  0  0
  -20.2690    1.9980  -34.3370 C   0  0  0  0  0  2  0  0  0  0  0  0
  -19.8920    1.2090  -35.5010 N   0  0  0  0  0  0  0  0  0  0  0  0
  -18.4510    1.1460  -35.4660 C   0  0  0  0  0  2  0  0  0  0  0  0
  -18.1050    1.1930  -33.9900 C   0  0  0  0  0  2  0  0  0  0  0  0
  -19.8940    0.0520  -32.8910 N   0  0  0  0  0  0  0  0  0  0  0  0
  -19.7080   -0.4760  -31.5930 C   0  0  0  0  0  0  0  0  0  0  0  0
  -19.1250    0.1520  -30.6750 O   0  0  0  0  0  0  0  0  0  0  0  0
  -20.3900   -0.5410  -33.5930 H   0  0  0  0  0  0  0  0  0  0  0  0
  -20.1990   -1.8260  -31.2370 C   0  0  0  0  0  0  0  0  0  0  0  0
  -20.0200   -2.6990  -29.7830 S   0  0  0  0  0  0  0  0  0  0  0  0
  -20.8600   -4.1190  -30.2070 C   0  0  0  0  0  3  0  0  0  0  0  0
  -21.2640   -3.8660  -31.4930 C   0  0  0  0  0  0  0  0  0  0  0  0
  -20.9230   -2.6880  -32.0200 C   0  0  0  0  0  3  0  0  0  0  0  0
  -22.2850   -5.2160  -32.4410 Br  0  0  0  0  0  0  0  0  0  0  0  0
  -20.8090    0.6390  -36.4490 C   0  0  0  0  0  0  0  0  0  0  0  0
  -20.8380    1.0610  -37.7270 N   0  0  0  0  0  0  0  0  0  0  0  0
  -21.7080    0.5090  -38.5910 C   0  0  0  0  0  3  0  0  0  0  0  0
  -22.5780   -0.4820  -38.2160 C   0  0  0  0  0  3  0  0  0  0  0  0
  -22.5610   -0.9150  -36.9440 N   0  0  0  0  0  0  0  0  0  0  0  0
  -21.6860   -0.3540  -36.0860 C   0  0  0  0  0  0  0  0  0  0  0  0
  -23.2880   -1.8600  -36.3010 C   0  0  0  0  0  3  0  0  0  0  0  0
  -21.9020   -0.9820  -34.9140 N   0  0  0  0  0  0  0  0  0  0  0  0
  -22.8590   -1.8860  -35.0270 N   0  0  0  0  0  0  0  0  0  0  0  0
  1  6  1  6  0  0  0
  2  1  1  0  0  0  0
  3  4  1  0  0  0  0
  3  2  1  0  0  0  0
  4  5  1  0  0  0  0
  5  1  1  0  0  0  0
  6  7  1  0  0  0  0
  7 10  1  0  0  0  0
  7  8  2  0  0  0  0
  9  6  1  0  0  0  0
 10 11  1  0  0  0  0
 12 11  1  0  0  0  0
 13 12  2  0  0  0  0
 14 13  1  0  0  0  0
 14 10  2  0  0  0  0
 15 13  1  0  0  0  0
 16 21  1  0  0  0  0
 16  3  1  0  0  0  0
 17 16  2  0  0  0  0
 18 19  2  0  0  0  0
 18 17  1  0  0  0  0
 19 20  1  0  0  0  0
 20 22  1  0  0  0  0
 20 21  1  0  0  0  0
 21 23  2  0  0  0  0
 22 24  2  0  0  0  0
 24 23  1  0  0  0  0
M  END
>  <Pose>
1

>  <Score>
-7.138

$$$$
