/Users/jonathanwahrer/Desktop/Msc/3_Semester/Drug_Design_Praktikum/waehrer_HTS_screening/HTS_experiment/out/docking_results/vina_output/5l4q/1161_docked.pdbqt
 OpenBabel03212218333D

 29 32  0  0  1  0  0  0  0  0999 V2000
  -19.9230   -0.5130  -29.7350 N   0  0  0  0  0  0  0  0  0  0  0  0
  -20.1950   -1.8210  -29.5140 C   0  0  0  0  0  0  0  0  0  0  0  0
  -20.2630   -2.4840  -30.7010 C   0  0  0  0  0  0  0  0  0  0  0  0
  -20.5290   -3.8410  -30.7330 C   0  0  0  0  0  3  0  0  0  0  0  0
  -20.7230   -4.5120  -29.5470 C   0  0  0  0  0  3  0  0  0  0  0  0
  -20.6590   -3.8670  -28.3380 C   0  0  0  0  0  3  0  0  0  0  0  0
  -20.3930   -2.5160  -28.3420 C   0  0  0  0  0  3  0  0  0  0  0  0
  -20.0350   -1.5800  -31.6580 N   0  0  0  0  0  0  0  0  0  0  0  0
  -19.8270   -0.3720  -31.0600 C   0  0  1  0  0  3  0  0  0  0  0  0
  -19.7800    0.4770  -28.6970 C   0  0  0  0  0  2  0  0  0  0  0  0
  -18.4380    0.4290  -28.0660 C   0  0  0  0  0  0  0  0  0  0  0  0
  -17.4420   -0.0030  -28.6960 O   0  0  0  0  0  0  0  0  0  0  0  0
  -18.2130    0.8790  -26.6880 C   0  0  0  0  0  0  0  0  0  0  0  0
  -17.7970    2.4280  -26.0910 S   0  0  0  0  0  0  0  0  0  0  0  0
  -17.7200    2.0820  -24.4290 C   0  0  0  0  0  0  0  0  0  0  0  0
  -18.0250    0.7500  -24.3830 C   0  0  0  0  0  3  0  0  0  0  0  0
  -17.3090    3.2800  -23.0030 Br  0  0  0  0  0  0  0  0  0  0  0  0
  -18.2780    0.1310  -25.5390 C   0  0  0  0  0  3  0  0  0  0  0  0
  -19.5970    0.6700  -31.7700 N   0  0  0  0  0  2  0  0  0  0  0  0
  -19.3350    0.7300  -32.7520 H   0  0  0  0  0  0  0  0  0  0  0  0
  -20.0040   -1.8720  -33.0850 C   0  0  0  0  0  2  0  0  0  0  0  0
  -21.4440   -1.8180  -33.6150 C   0  0  0  0  0  2  0  0  0  0  0  0
  -21.5010   -1.3390  -34.9660 N   0  0  0  0  0  4  0  0  0  0  0  0
  -22.7670   -1.5850  -35.6270 C   0  0  0  0  0  2  0  0  0  0  0  0
  -23.9310   -1.0960  -34.8120 C   0  0  0  0  0  2  0  0  0  0  0  0
  -23.7520    0.2920  -34.2970 C   0  0  0  0  0  2  0  0  0  0  0  0
  -22.3480    0.7340  -34.0900 C   0  0  0  0  0  2  0  0  0  0  0  0
  -21.3200    0.0920  -34.9520 C   0  0  0  0  0  2  0  0  0  0  0  0
  -20.7790   -1.8110  -35.5520 H   0  0  0  0  0  0  0  0  0  0  0  0
  1  2  1  0  0  0  0
  1 10  1  0  0  0  0
  2  7  1  0  0  0  0
  3  2  2  0  0  0  0
  4  3  1  0  0  0  0
  4  5  2  0  0  0  0
  5  6  1  0  0  0  0
  7  6  2  0  0  0  0
  8  9  1  0  0  0  0
  8  3  1  0  0  0  0
  9 19  1  6  0  0  0
  9  1  1  0  0  0  0
 10 11  1  0  0  0  0
 11 13  1  0  0  0  0
 12 11  2  0  0  0  0
 13 14  1  0  0  0  0
 13 18  2  0  0  0  0
 14 15  1  0  0  0  0
 15 16  2  0  0  0  0
 15 17  1  0  0  0  0
 18 16  1  0  0  0  0
 20 19  1  0  0  0  0
 21  8  1  0  0  0  0
 22 21  1  0  0  0  0
 23 28  1  0  0  0  0
 23 22  1  0  0  0  0
 24 23  1  0  0  0  0
 24 25  1  0  0  0  0
 25 26  1  0  0  0  0
 26 27  1  0  0  0  0
 28 27  1  0  0  0  0
 29 23  1  0  0  0  0
M  END
>  <Pose>
1

>  <Score>
-8.118

$$$$
