/Users/jonathanwahrer/Desktop/Msc/3_Semester/Drug_Design_Praktikum/waehrer_HTS_screening/HTS_experiment/out/docking_results/vina_output/5l4q/1178_docked.pdbqt
 OpenBabel03212218343D

 33 36  0  0  1  0  0  0  0  0999 V2000
  -22.5070   -0.3650  -36.9380 C   0  0  1  0  0  3  0  0  0  0  0  0
  -22.1930    0.5090  -35.7640 C   0  0  1  0  0  3  0  0  0  0  0  0
  -21.9070   -0.4480  -34.7290 N   0  0  0  0  0  0  0  0  0  0  0  0
  -22.7910   -1.5500  -34.9760 C   0  0  0  0  0  0  0  0  0  0  0  0
  -23.1610   -2.3940  -34.1400 O   0  0  0  0  0  0  0  0  0  0  0  0
  -23.1920   -1.5220  -36.3760 C   0  0  0  0  0  0  0  0  0  0  0  0
  -23.9550   -2.2800  -37.0340 O   0  0  0  0  0  0  0  0  0  0  0  0
  -20.9470   -0.2750  -33.6800 C   0  0  0  0  0  2  0  0  0  0  0  0
  -19.9230   -1.3260  -33.5750 C   0  0  0  0  0  2  0  0  0  0  0  0
  -19.9690   -2.2220  -32.4480 C   0  0  0  0  0  2  0  0  0  0  0  0
  -21.0140   -2.5030  -31.5830 N   0  0  0  0  0  4  0  0  0  0  0  0
  -20.6810   -2.0470  -30.1820 C   0  0  0  0  0  2  0  0  0  0  0  0
  -19.7910   -3.0580  -29.5380 C   0  0  0  0  0  2  0  0  0  0  0  0
  -20.5470   -4.2060  -29.3360 O   0  0  0  0  0  0  0  0  0  0  0  0
  -20.7570   -4.7460  -30.6250 C   0  0  0  0  0  2  0  0  0  0  0  0
  -21.5710   -3.8060  -31.4700 C   0  0  0  0  0  2  0  0  0  0  0  0
  -21.8250   -1.8720  -31.7880 H   0  0  0  0  0  0  0  0  0  0  0  0
  -21.1090    1.4500  -36.0820 C   0  0  0  0  0  0  0  0  0  0  0  0
  -19.8360    1.1280  -36.4670 C   0  0  0  0  0  3  0  0  0  0  0  0
  -18.8470    2.0420  -36.7520 C   0  0  0  0  0  3  0  0  0  0  0  0
  -19.1400    3.3780  -36.6490 C   0  0  0  0  0  0  0  0  0  0  0  0
  -20.3980    3.7650  -36.2670 C   0  0  0  0  0  3  0  0  0  0  0  0
  -17.7610    4.6480  -37.0490 Br  0  0  0  0  0  0  0  0  0  0  0  0
  -21.3630    2.8250  -35.9900 C   0  0  0  0  0  3  0  0  0  0  0  0
  -22.2430   -0.0780  -38.1790 C   0  0  1  0  0  3  0  0  0  0  0  0
  -21.3950   -0.9230  -38.9150 O   0  0  0  0  0  1  0  0  0  0  0  0
  -22.8250    1.1230  -38.8170 C   0  0  0  0  0  0  0  0  0  0  0  0
  -22.0640    2.3150  -39.7830 S   0  0  0  0  0  0  0  0  0  0  0  0
  -23.4300    3.2640  -40.1490 C   0  0  0  0  0  0  0  0  0  0  0  0
  -24.3960    2.6270  -39.5190 N   0  0  0  0  0  0  0  0  0  0  0  0
  -23.5490    4.5170  -40.9740 C   0  0  0  0  0  1  0  0  0  0  0  0
  -24.1300    1.5510  -38.8430 C   0  0  0  0  0  0  0  0  0  0  0  0
  -25.2310    0.7620  -38.1380 C   0  0  0  0  0  1  0  0  0  0  0  0
  1 25  1  6  0  0  0
  1  6  1  0  0  0  0
  1  2  1  0  0  0  0
  2 18  1  6  0  0  0
  2  3  1  0  0  0  0
  3  8  1  0  0  0  0
  4  3  1  0  0  0  0
  4  5  2  0  0  0  0
  6  4  1  0  0  0  0
  7  6  2  0  0  0  0
  8  9  1  0  0  0  0
  9 10  1  0  0  0  0
 10 11  1  0  0  0  0
 11 16  1  0  0  0  0
 11 12  1  0  0  0  0
 12 13  1  0  0  0  0
 13 14  1  0  0  0  0
 15 14  1  0  0  0  0
 16 15  1  0  0  0  0
 17 11  1  0  0  0  0
 18 24  1  0  0  0  0
 19 18  2  0  0  0  0
 20 21  2  0  0  0  0
 20 19  1  0  0  0  0
 21 22  1  0  0  0  0
 22 24  2  0  0  0  0
 23 21  1  0  0  0  0
 25 26  1  6  0  0  0
 27 25  1  0  0  0  0
 28 27  1  0  0  0  0
 29 28  1  0  0  0  0
 29 30  2  0  0  0  0
 30 32  1  0  0  0  0
 31 29  1  0  0  0  0
 32 27  2  0  0  0  0
 32 33  1  0  0  0  0
M  END
>  <Pose>
1

>  <Score>
-7.530

$$$$
