/Users/jonathanwahrer/Desktop/Msc/3_Semester/Drug_Design_Praktikum/waehrer_HTS_screening/HTS_experiment/out/docking_results/vina_output/5l4q/1180_docked.pdbqt
 OpenBabel03212218353D

 32 35  0  0  1  0  0  0  0  0999 V2000
  -22.2680   -0.1860  -35.2370 C   0  0  1  0  0  3  0  0  0  0  0  0
  -21.7220    0.0650  -36.6050 C   0  0  1  0  0  3  0  0  0  0  0  0
  -22.8230   -0.3080  -37.4050 N   0  0  0  0  0  0  0  0  0  0  0  0
  -23.2070   -1.6100  -36.8110 C   0  0  0  0  0  0  0  0  0  0  0  0
  -23.7390   -2.5870  -37.4030 O   0  0  0  0  0  0  0  0  0  0  0  0
  -22.8430   -1.5200  -35.4010 C   0  0  0  0  0  0  0  0  0  0  0  0
  -22.9670   -2.3710  -34.4670 O   0  0  0  0  0  0  0  0  0  0  0  0
  -22.2040    0.5720  -34.1620 C   0  0  1  0  0  3  0  0  0  0  0  0
  -23.1910    1.5090  -33.9160 O   0  0  0  0  0  1  0  0  0  0  0  0
  -21.0550    0.3650  -33.2680 C   0  0  0  0  0  0  0  0  0  0  0  0
  -20.6370   -1.0330  -32.3510 S   0  0  0  0  0  0  0  0  0  0  0  0
  -19.1840   -0.4730  -31.6650 C   0  0  0  0  0  0  0  0  0  0  0  0
  -19.0870    0.7430  -32.1650 N   0  0  0  0  0  0  0  0  0  0  0  0
  -18.2460   -1.1790  -30.7240 C   0  0  0  0  0  1  0  0  0  0  0  0
  -20.0000    1.1940  -32.9680 C   0  0  0  0  0  0  0  0  0  0  0  0
  -19.8830    2.5780  -33.5900 C   0  0  0  0  0  1  0  0  0  0  0  0
  -20.9150    1.2210  -36.7920 C   0  0  0  0  0  0  0  0  0  0  0  0
  -19.5250    1.0790  -36.8300 C   0  0  0  0  0  3  0  0  0  0  0  0
  -18.6750    2.1420  -36.9880 C   0  0  0  0  0  3  0  0  0  0  0  0
  -19.2270    3.3990  -37.1150 C   0  0  0  0  0  0  0  0  0  0  0  0
  -20.5960    3.5610  -37.0790 C   0  0  0  0  0  3  0  0  0  0  0  0
  -18.1120    4.9370  -37.3390 Br  0  0  0  0  0  0  0  0  0  0  0  0
  -21.4300    2.4780  -36.9190 C   0  0  0  0  0  3  0  0  0  0  0  0
  -23.5530    0.1150  -38.5520 C   0  0  0  0  0  2  0  0  0  0  0  0
  -22.9320    0.0730  -39.8810 C   0  0  0  0  0  2  0  0  0  0  0  0
  -21.7240    0.7320  -40.1680 N   0  0  0  0  0  4  0  0  0  0  0  0
  -21.1320    0.3860  -41.4420 C   0  0  0  0  0  2  0  0  0  0  0  0
  -19.7800    1.0910  -41.4910 C   0  0  0  0  0  2  0  0  0  0  0  0
  -19.7080    2.0970  -40.5270 O   0  0  0  0  0  0  0  0  0  0  0  0
  -20.8490    2.8990  -40.7340 C   0  0  0  0  0  2  0  0  0  0  0  0
  -22.1080    2.1690  -40.3630 C   0  0  0  0  0  2  0  0  0  0  0  0
  -21.0800    0.7250  -39.3700 H   0  0  0  0  0  0  0  0  0  0  0  0
  1  8  1  1  0  0  0
  2 17  1  1  0  0  0
  2  1  1  0  0  0  0
  3  4  1  0  0  0  0
  3  2  1  0  0  0  0
  4  6  1  0  0  0  0
  5  4  2  0  0  0  0
  6  1  1  0  0  0  0
  6  7  2  0  0  0  0
  8  9  1  1  0  0  0
  8 10  1  0  0  0  0
 10 15  2  0  0  0  0
 10 11  1  0  0  0  0
 11 12  1  0  0  0  0
 12 14  1  0  0  0  0
 13 12  2  0  0  0  0
 15 13  1  0  0  0  0
 16 15  1  0  0  0  0
 18 17  1  0  0  0  0
 19 18  2  0  0  0  0
 20 21  2  0  0  0  0
 20 19  1  0  0  0  0
 21 23  1  0  0  0  0
 22 20  1  0  0  0  0
 23 17  2  0  0  0  0
 24  3  1  0  0  0  0
 25 24  1  0  0  0  0
 26 25  1  0  0  0  0
 26 32  1  0  0  0  0
 27 26  1  0  0  0  0
 28 27  1  0  0  0  0
 28 29  1  0  0  0  0
 30 29  1  0  0  0  0
 30 31  1  0  0  0  0
 31 26  1  0  0  0  0
M  END
>  <Pose>
1

>  <Score>
-7.052

$$$$
