/Users/jonathanwahrer/Desktop/Msc/3_Semester/Drug_Design_Praktikum/waehrer_HTS_screening/HTS_experiment/out/docking_results/vina_output/5l4q/1192_docked.pdbqt
 OpenBabel03212218353D

 27 30  0  0  1  0  0  0  0  0999 V2000
  -23.7030    1.8530  -38.8920 S   0  0  0  0  0  0  0  0  0  0  0  0
  -23.7380    0.2460  -38.2840 C   0  0  0  0  0  0  0  0  0  0  0  0
  -23.0070   -0.4390  -39.2160 C   0  0  0  0  0  0  0  0  0  0  0  0
  -22.5090    0.2580  -40.2490 C   0  0  0  0  0  0  0  0  0  0  0  0
  -22.7720    1.6010  -40.2900 C   0  0  0  0  0  0  0  0  0  0  0  0
  -22.2060    2.3630  -41.4520 C   0  0  0  0  0  2  0  0  0  0  0  0
  -20.7670    2.1090  -41.4970 N   0  0  0  0  0  4  0  0  0  0  0  0
  -20.4380    0.7180  -41.5200 C   0  0  0  0  0  2  0  0  0  0  0  0
  -21.6680   -0.1800  -41.4390 C   0  0  0  0  0  2  0  0  0  0  0  0
  -20.2300    2.6680  -40.2560 C   0  0  0  0  0  1  0  0  0  0  0  0
  -22.8720   -1.8960  -38.9380 C   0  0  0  0  0  0  0  0  0  0  0  0
  -22.2190   -2.6460  -39.7220 O   0  0  0  0  0  0  0  0  0  0  0  0
  -23.4890   -2.4290  -37.7770 N   0  0  0  0  0  0  0  0  0  0  0  0
  -23.8520   -1.6610  -36.6220 C   0  0  2  0  0  3  0  0  0  0  0  0
  -24.3320   -0.3820  -37.1230 N   0  0  0  0  0  0  0  0  0  0  0  0
  -20.3310    2.6580  -42.2650 H   0  0  0  0  0  0  0  0  0  0  0  0
  -23.6880   -3.4700  -37.7810 H   0  0  0  0  0  0  0  0  0  0  0  0
  -25.1150    0.1320  -36.6710 H   0  0  0  0  0  0  0  0  0  0  0  0
  -22.7110   -1.4340  -35.7010 C   0  0  0  0  0  0  0  0  0  0  0  0
  -21.8270   -0.3900  -35.8790 C   0  0  0  0  0  3  0  0  0  0  0  0
  -20.7640   -0.1630  -35.0340 C   0  0  0  0  0  0  0  0  0  0  0  0
  -20.5520   -1.0030  -33.9600 C   0  0  0  0  0  0  0  0  0  0  0  0
  -19.5570    1.2750  -35.2890 Br  0  0  0  0  0  0  0  0  0  0  0  0
  -21.4200   -2.0500  -33.7620 C   0  0  0  0  0  0  0  0  0  0  0  0
  -19.4820   -0.7800  -33.1040 O   0  0  0  0  0  1  0  0  0  0  0  0
  -22.4850   -2.2700  -34.6140 C   0  0  0  0  0  3  0  0  0  0  0  0
  -21.0870   -3.1920  -32.2540 Br  0  0  0  0  0  0  0  0  0  0  0  0
  1  2  1  0  0  0  0
  2 15  1  0  0  0  0
  3 11  1  0  0  0  0
  3  2  2  0  0  0  0
  4  3  1  0  0  0  0
  5  4  2  0  0  0  0
  5  1  1  0  0  0  0
  6  5  1  0  0  0  0
  7  6  1  0  0  0  0
  7 10  1  0  0  0  0
  8  7  1  0  0  0  0
  8  9  1  0  0  0  0
  9  4  1  0  0  0  0
 11 13  1  0  0  0  0
 12 11  2  0  0  0  0
 13 14  1  0  0  0  0
 14 19  1  1  0  0  0
 15 18  1  0  0  0  0
 15 14  1  0  0  0  0
 16  7  1  0  0  0  0
 17 13  1  0  0  0  0
 19 26  1  0  0  0  0
 20 19  2  0  0  0  0
 20 21  1  0  0  0  0
 21 22  2  0  0  0  0
 22 24  1  0  0  0  0
 22 25  1  0  0  0  0
 23 21  1  0  0  0  0
 24 27  1  0  0  0  0
 26 24  2  0  0  0  0
M  END
>  <Pose>
1

>  <Score>
-8.509

$$$$
