/Users/jonathanwahrer/Desktop/Msc/3_Semester/Drug_Design_Praktikum/waehrer_HTS_screening/HTS_experiment/out/docking_results/vina_output/5l4q/1206_docked.pdbqt
 OpenBabel03212218353D

 25 28  0  0  1  0  0  0  0  0999 V2000
  -21.3680   -3.4820  -30.5510 S   0  0  0  0  0  0  0  0  0  0  0  0
  -20.9040   -4.2380  -28.9720 C   0  0  2  0  0  3  0  0  0  0  0  0
  -20.7000   -2.9910  -28.1560 C   0  0  0  0  0  2  0  0  0  0  0  0
  -20.1910   -1.9080  -28.9410 N   0  0  0  0  0  0  0  0  0  0  0  0
  -20.4210   -1.9920  -30.2620 C   0  0  2  0  0  3  0  0  0  0  0  0
  -19.8720   -0.9360  -30.8730 N   0  0  0  0  0  0  0  0  0  0  0  0
  -19.2800   -0.1580  -29.9400 C   0  0  0  0  0  3  0  0  0  0  0  0
  -19.4730   -0.7550  -28.7170 C   0  0  0  0  0  0  0  0  0  0  0  0
  -19.5760   -4.9490  -29.0720 C   0  0  0  0  0  1  0  0  0  0  0  0
  -18.9780   -0.2300  -27.4660 C   0  0  0  0  0  0  0  0  0  0  0  0
  -18.8650    1.1650  -27.3400 C   0  0  0  0  0  3  0  0  0  0  0  0
  -18.4410    1.7330  -26.1660 C   0  0  0  0  0  3  0  0  0  0  0  0
  -18.1050    0.9950  -25.0590 C   0  0  0  0  0  0  0  0  0  0  0  0
  -18.2080   -0.3730  -25.1560 C   0  0  0  0  0  3  0  0  0  0  0  0
  -18.6410   -0.9540  -26.3540 C   0  0  0  0  0  3  0  0  0  0  0  0
  -17.6750    1.6570  -23.8850 N   0  0  0  0  0  0  0  0  0  0  0  0
  -17.0580    1.0470  -23.0040 O   0  0  0  0  0  0  0  0  0  0  0  0
  -17.9450    2.9820  -23.7290 O   0  0  0  0  0  0  0  0  0  0  0  0
  -19.8940   -0.6560  -32.2680 C   0  0  0  0  0  0  0  0  0  0  0  0
  -19.0820    0.2990  -32.8340 C   0  0  0  0  0  3  0  0  0  0  0  0
  -19.0840    0.5890  -34.1820 C   0  0  0  0  0  3  0  0  0  0  0  0
  -19.9330   -0.0970  -35.0220 C   0  0  0  0  0  0  0  0  0  0  0  0
  -20.7660   -1.0650  -34.4890 C   0  0  0  0  0  3  0  0  0  0  0  0
  -19.9640    0.2780  -36.8980 Br  0  0  0  0  0  0  0  0  0  0  0  0
  -20.7430   -1.3360  -33.1360 C   0  0  0  0  0  3  0  0  0  0  0  0
  1  2  1  0  0  0  0
  2  9  1  6  0  0  0
  2  3  1  0  0  0  0
  4  8  1  0  0  0  0
  4  3  1  0  0  0  0
  5  1  1  1  0  0  0
  5  4  1  0  0  0  0
  6  5  1  0  0  0  0
  6  7  1  0  0  0  0
  7  8  2  0  0  0  0
  8 10  1  0  0  0  0
 10 11  2  0  0  0  0
 10 15  1  0  0  0  0
 11 12  1  0  0  0  0
 12 13  2  0  0  0  0
 13 16  1  0  0  0  0
 14 13  1  0  0  0  0
 15 14  2  0  0  0  0
 16 18  2  0  0  0  0
 16 17  2  0  0  0  0
 19  6  1  0  0  0  0
 20 19  1  0  0  0  0
 21 20  2  0  0  0  0
 22 23  2  0  0  0  0
 22 21  1  0  0  0  0
 23 25  1  0  0  0  0
 24 22  1  0  0  0  0
 25 19  2  0  0  0  0
M  END
>  <Pose>
1

>  <Score>
-8.133

$$$$
