/Users/jonathanwahrer/Desktop/Msc/3_Semester/Drug_Design_Praktikum/waehrer_HTS_screening/HTS_experiment/out/docking_results/vina_output/5l4q/1209_docked.pdbqt
 OpenBabel03212218353D

 24 27  0  0  1  0  0  0  0  0999 V2000
  -20.9390   -4.0680  -30.8970 S   0  0  0  0  0  0  0  0  0  0  0  0
  -20.5420   -5.7500  -30.3430 C   0  0  0  0  0  2  0  0  0  0  0  0
  -19.9620   -5.6370  -28.9450 C   0  0  0  0  0  2  0  0  0  0  0  0
  -20.7910   -4.6820  -28.1110 C   0  0  0  0  0  2  0  0  0  0  0  0
  -20.2920   -3.3450  -28.3890 N   0  0  0  0  0  0  0  0  0  0  0  0
  -20.3110   -2.9430  -29.6620 C   0  0  1  0  0  3  0  0  0  0  0  0
  -19.8040   -1.6620  -29.7280 N   0  0  0  0  0  0  0  0  0  0  0  0
  -19.4730   -1.2710  -28.5080 C   0  0  0  0  0  0  0  0  0  0  0  0
  -19.7880   -2.3440  -27.6780 C   0  0  0  0  0  3  0  0  0  0  0  0
  -18.9030   -0.0220  -28.0280 C   0  0  0  0  0  0  0  0  0  0  0  0
  -17.6940   -0.0490  -27.3170 C   0  0  0  0  0  3  0  0  0  0  0  0
  -17.1100    1.0920  -26.8410 C   0  0  0  0  0  3  0  0  0  0  0  0
  -17.6560    2.3420  -27.0220 C   0  0  0  0  0  0  0  0  0  0  0  0
  -18.8380    2.3790  -27.7160 C   0  0  0  0  0  3  0  0  0  0  0  0
  -19.4550    1.2220  -28.2130 C   0  0  0  0  0  3  0  0  0  0  0  0
  -17.0330    3.4780  -26.5240 O   0  0  0  0  0  0  0  0  0  0  0  0
  -16.9450    4.6490  -27.3140 C   0  0  0  0  0  1  0  0  0  0  0  0
  -19.6950   -0.9570  -30.9620 C   0  0  0  0  0  0  0  0  0  0  0  0
  -20.8090   -0.3880  -31.5550 C   0  0  0  0  0  3  0  0  0  0  0  0
  -20.7330    0.3250  -32.7340 C   0  0  0  0  0  3  0  0  0  0  0  0
  -19.4950    0.4650  -33.3290 C   0  0  0  0  0  0  0  0  0  0  0  0
  -18.3910   -0.1060  -32.7320 C   0  0  0  0  0  3  0  0  0  0  0  0
  -19.2900    1.4400  -34.9710 Br  0  0  0  0  0  0  0  0  0  0  0  0
  -18.4440   -0.8210  -31.5560 C   0  0  0  0  0  3  0  0  0  0  0  0
  1  2  1  0  0  0  0
  2  3  1  0  0  0  0
  3  4  1  0  0  0  0
  5  4  1  0  0  0  0
  5  9  1  0  0  0  0
  6  1  1  6  0  0  0
  6  5  1  0  0  0  0
  7  6  1  0  0  0  0
  7  8  1  0  0  0  0
  8 10  1  0  0  0  0
  8  9  2  0  0  0  0
 10 11  1  0  0  0  0
 11 12  2  0  0  0  0
 13 12  1  0  0  0  0
 13 16  1  0  0  0  0
 14 13  2  0  0  0  0
 15 10  2  0  0  0  0
 15 14  1  0  0  0  0
 17 16  1  0  0  0  0
 18  7  1  0  0  0  0
 19 18  1  0  0  0  0
 20 19  2  0  0  0  0
 21 20  1  0  0  0  0
 21 22  2  0  0  0  0
 22 24  1  0  0  0  0
 23 21  1  0  0  0  0
 24 18  2  0  0  0  0
M  END
>  <Pose>
1

>  <Score>
-7.738

$$$$
