/Users/jonathanwahrer/Desktop/Msc/3_Semester/Drug_Design_Praktikum/waehrer_HTS_screening/HTS_experiment/out/docking_results/vina_output/5l4q/1217_docked.pdbqt
 OpenBabel03212218353D

 28 31  0  0  1  0  0  0  0  0999 V2000
  -19.2180    1.6900  -37.0250 S   0  0  0  0  0  0  0  0  0  0  0  0
  -18.2410    2.6030  -35.8570 C   0  0  0  0  0  2  0  0  0  0  0  0
  -18.8320    2.4500  -34.4700 C   0  0  0  0  0  2  0  0  0  0  0  0
  -20.2490    2.9970  -34.4660 C   0  0  0  0  0  2  0  0  0  0  0  0
  -21.1360    2.0710  -35.1320 N   0  0  2  0  0  0  0  0  0  0  0  0
  -22.3350    1.4250  -34.7060 C   0  0  2  0  0  0  0  0  0  0  0  0
  -23.0820    1.3750  -36.0300 C   0  0  0  0  0  2  0  0  0  0  0  0
  -22.0260    1.1430  -36.9900 N   0  0  0  0  0  0  0  0  0  0  0  0
  -20.9360    1.5940  -36.4750 C   0  0  2  0  0  3  0  0  0  0  0  0
  -22.1330    0.5030  -38.2530 C   0  0  0  0  0  0  0  0  0  0  0  0
  -22.1180    1.3180  -39.3780 C   0  0  0  0  0  0  0  0  0  0  0  0
  -22.2440    0.7640  -40.6550 C   0  0  0  0  0  3  0  0  0  0  0  0
  -22.3890   -0.6050  -40.7970 C   0  0  0  0  0  3  0  0  0  0  0  0
  -22.4080   -1.4410  -39.7070 C   0  0  0  0  0  0  0  0  0  0  0  0
  -22.2750   -0.8210  -38.4490 C   0  0  0  0  0  3  0  0  0  0  0  0
  -21.9770    2.6810  -39.2310 O   0  0  0  0  0  0  0  0  0  0  0  0
  -23.0090    3.6260  -39.3910 C   0  0  0  0  0  1  0  0  0  0  0  0
  -22.5490   -2.8160  -39.7820 O   0  0  0  0  0  0  0  0  0  0  0  0
  -23.6920   -3.5450  -39.4400 C   0  0  0  0  0  1  0  0  0  0  0  0
  -23.0090    2.2170  -33.7820 O   0  0  0  0  0  0  0  0  0  0  0  0
  -22.3850    2.8490  -33.3570 H   0  0  0  0  0  0  0  0  0  0  0  0
  -22.1790    0.0360  -34.2320 C   0  0  0  0  0  0  0  0  0  0  0  0
  -22.9040   -1.0400  -34.6370 C   0  0  0  0  0  3  0  0  0  0  0  0
  -22.6960   -2.3080  -34.0920 C   0  0  0  0  0  3  0  0  0  0  0  0
  -21.7440   -2.5200  -33.1170 C   0  0  0  0  0  0  0  0  0  0  0  0
  -21.0120   -1.4490  -32.7040 C   0  0  0  0  0  3  0  0  0  0  0  0
  -21.4740   -4.2670  -32.3730 Br  0  0  0  0  0  0  0  0  0  0  0  0
  -21.2160   -0.2070  -33.2370 C   0  0  0  0  0  3  0  0  0  0  0  0
  1  2  1  0  0  0  0
  2  3  1  0  0  0  0
  3  4  1  0  0  0  0
  5  6  1  0  0  0  0
  5  4  1  1  0  0  0
  6 22  1  0  0  0  0
  6 20  1  1  0  0  0
  7  6  1  0  0  0  0
  8  9  1  0  0  0  0
  8  7  1  0  0  0  0
  9  1  1  1  0  0  0
  9  5  1  0  0  0  0
 10  8  1  0  0  0  0
 11 16  1  0  0  0  0
 11 10  2  0  0  0  0
 12 11  1  0  0  0  0
 13 12  2  0  0  0  0
 13 14  1  0  0  0  0
 14 15  2  0  0  0  0
 15 10  1  0  0  0  0
 17 16  1  0  0  0  0
 18 14  1  0  0  0  0
 18 19  1  0  0  0  0
 20 21  1  0  0  0  0
 22 28  1  0  0  0  0
 23 22  2  0  0  0  0
 23 24  1  0  0  0  0
 24 25  2  0  0  0  0
 25 26  1  0  0  0  0
 25 27  1  0  0  0  0
 28 26  2  0  0  0  0
M  END
>  <Pose>
1

>  <Score>
-7.425

$$$$
