/Users/jonathanwahrer/Desktop/Msc/3_Semester/Drug_Design_Praktikum/waehrer_HTS_screening/HTS_experiment/out/docking_results/vina_output/5l4q/1220_docked.pdbqt
 OpenBabel03212218363D

 27 30  0  0  1  0  0  0  0  0999 V2000
  -21.7340   -3.7750  -33.2670 S   0  0  0  0  0  0  0  0  0  0  0  0
  -22.4980   -4.5350  -31.7780 C   0  0  0  0  0  2  0  0  0  0  0  0
  -21.8910   -4.0900  -30.5140 C   0  0  0  0  0  2  0  0  0  0  0  0
  -20.6330   -3.3220  -30.5420 C   0  0  0  0  0  2  0  0  0  0  0  0
  -20.5400   -2.2220  -31.4100 N   0  0  1  0  0  0  0  0  0  0  0  0
  -19.8060   -0.9930  -31.3900 C   0  0  2  0  0  0  0  0  0  0  0  0
  -20.7860   -0.0700  -32.0810 C   0  0  0  0  0  2  0  0  0  0  0  0
  -21.3990   -0.9590  -33.0440 N   0  0  0  0  0  0  0  0  0  0  0  0
  -21.2670   -2.1420  -32.6630 C   0  0  1  0  0  3  0  0  0  0  0  0
  -18.7030   -1.1030  -32.2410 O   0  0  0  0  0  0  0  0  0  0  0  0
  -18.7060   -1.9840  -32.6500 H   0  0  0  0  0  0  0  0  0  0  0  0
  -19.4180   -0.4860  -30.0600 C   0  0  0  0  0  0  0  0  0  0  0  0
  -20.3400    0.3130  -29.3910 C   0  0  0  0  0  3  0  0  0  0  0  0
  -20.0710    0.8310  -28.1430 C   0  0  0  0  0  3  0  0  0  0  0  0
  -18.8740    0.5820  -27.4940 C   0  0  0  0  0  0  0  0  0  0  0  0
  -17.9570   -0.2130  -28.1540 C   0  0  0  0  0  3  0  0  0  0  0  0
  -18.2320   -0.7370  -29.4210 C   0  0  0  0  0  3  0  0  0  0  0  0
  -18.6240    1.1240  -26.2110 N   0  0  0  0  0  0  0  0  0  0  0  0
  -18.6230    2.3370  -25.9690 O   0  0  0  0  0  0  0  0  0  0  0  0
  -18.3700    0.2710  -25.1680 O   0  0  0  0  0  0  0  0  0  0  0  0
  -22.0400   -0.5410  -34.2550 C   0  0  0  0  0  0  0  0  0  0  0  0
  -23.3990   -0.2640  -34.2220 C   0  0  0  0  0  3  0  0  0  0  0  0
  -24.0930    0.1280  -35.3650 C   0  0  0  0  0  3  0  0  0  0  0  0
  -23.4430    0.2500  -36.5730 C   0  0  0  0  0  0  0  0  0  0  0  0
  -22.0970   -0.0210  -36.6210 C   0  0  0  0  0  3  0  0  0  0  0  0
  -24.4110    0.7750  -38.1500 Br  0  0  0  0  0  0  0  0  0  0  0  0
  -21.4260   -0.4140  -35.4560 C   0  0  0  0  0  3  0  0  0  0  0  0
  1  2  1  0  0  0  0
  2  3  1  0  0  0  0
  4  3  1  0  0  0  0
  5  6  1  0  0  0  0
  5  4  1  6  0  0  0
  6 10  1  6  0  0  0
  6 12  1  0  0  0  0
  7  6  1  0  0  0  0
  8  9  1  0  0  0  0
  8  7  1  0  0  0  0
  9  1  1  6  0  0  0
  9  5  1  0  0  0  0
 11 10  1  0  0  0  0
 12 17  2  0  0  0  0
 12 13  1  0  0  0  0
 13 14  2  0  0  0  0
 14 15  1  0  0  0  0
 15 18  1  0  0  0  0
 16 15  2  0  0  0  0
 17 16  1  0  0  0  0
 18 19  2  0  0  0  0
 18 20  2  0  0  0  0
 21 22  1  0  0  0  0
 21  8  1  0  0  0  0
 23 22  2  0  0  0  0
 24 23  1  0  0  0  0
 25 24  2  0  0  0  0
 25 27  1  0  0  0  0
 26 24  1  0  0  0  0
 27 21  2  0  0  0  0
M  END
>  <Pose>
1

>  <Score>
-7.852

$$$$
