/Users/jonathanwahrer/Desktop/Msc/3_Semester/Drug_Design_Praktikum/waehrer_HTS_screening/HTS_experiment/out/docking_results/vina_output/5l4q/1222_docked.pdbqt
 OpenBabel03212218363D

 24 27  0  0  1  0  0  0  0  0999 V2000
  -19.9540    0.7030  -37.2880 S   0  0  0  0  0  0  0  0  0  0  0  0
  -19.6050    2.4950  -37.5850 C   0  0  0  0  0  2  0  0  0  0  0  0
  -20.8360    3.1860  -38.1120 C   0  0  0  0  0  2  0  0  0  0  0  0
  -21.7620    2.2770  -38.8910 C   0  0  0  0  0  2  0  0  0  0  0  0
  -22.4630    1.3450  -38.0970 N   0  0  1  0  0  0  0  0  0  0  0  0
  -23.7840    0.7000  -37.9950 C   0  0  1  0  0  0  0  0  0  0  0  0
  -23.8750    0.6600  -36.4880 C   0  0  0  0  0  2  0  0  0  0  0  0
  -22.5240    0.2540  -36.1290 N   0  0  0  0  0  0  0  0  0  0  0  0
  -21.7530    0.7180  -36.9940 C   0  0  1  0  0  3  0  0  0  0  0  0
  -24.7910    1.4520  -38.5180 O   0  0  0  0  0  0  0  0  0  0  0  0
  -25.7010    1.0730  -38.4450 H   0  0  0  0  0  0  0  0  0  0  0  0
  -23.7310   -0.7000  -38.5310 C   0  0  0  0  0  0  0  0  0  0  0  0
  -22.9520   -1.0600  -39.6140 C   0  0  0  0  0  3  0  0  0  0  0  0
  -22.9560   -2.3810  -40.0420 C   0  0  0  0  0  3  0  0  0  0  0  0
  -23.7120   -3.3690  -39.4250 C   0  0  0  0  0  3  0  0  0  0  0  0
  -24.4850   -3.0200  -38.3510 C   0  0  0  0  0  3  0  0  0  0  0  0
  -24.4870   -1.6940  -37.9210 C   0  0  0  0  0  3  0  0  0  0  0  0
  -22.1740   -0.5890  -35.0110 C   0  0  0  0  0  0  0  0  0  0  0  0
  -21.4370   -0.2010  -33.9360 C   0  0  0  0  0  3  0  0  0  0  0  0
  -21.0820   -1.0580  -32.9020 C   0  0  0  0  0  3  0  0  0  0  0  0
  -21.4820   -2.3680  -32.9440 C   0  0  0  0  0  0  0  0  0  0  0  0
  -22.2320   -2.7660  -34.0330 C   0  0  0  0  0  3  0  0  0  0  0  0
  -21.0360   -3.6260  -31.5640 Br  0  0  0  0  0  0  0  0  0  0  0  0
  -22.5800   -1.9210  -35.0500 C   0  0  0  0  0  3  0  0  0  0  0  0
  2  1  1  0  0  0  0
  3  2  1  0  0  0  0
  4  3  1  0  0  0  0
  5  4  1  6  0  0  0
  5  6  1  0  0  0  0
  5  9  1  0  0  0  0
  6 10  1  6  0  0  0
  6  7  1  0  0  0  0
  7  8  1  0  0  0  0
  8 18  1  0  0  0  0
  9  1  1  6  0  0  0
  9  8  1  0  0  0  0
 10 11  1  0  0  0  0
 12  6  1  0  0  0  0
 12 17  1  0  0  0  0
 13 12  2  0  0  0  0
 14 13  1  0  0  0  0
 14 15  2  0  0  0  0
 15 16  1  0  0  0  0
 16 17  2  0  0  0  0
 18 19  1  0  0  0  0
 19 20  2  0  0  0  0
 21 20  1  0  0  0  0
 21 23  1  0  0  0  0
 22 21  2  0  0  0  0
 24 18  2  0  0  0  0
 24 22  1  0  0  0  0
M  END
>  <Pose>
1

>  <Score>
-7.500

$$$$
