/Users/jonathanwahrer/Desktop/Msc/3_Semester/Drug_Design_Praktikum/waehrer_HTS_screening/HTS_experiment/out/docking_results/vina_output/5l4q/1224_docked.pdbqt
 OpenBabel03212218363D

 26 29  0  0  1  0  0  0  0  0999 V2000
  -18.5230    0.3330  -34.0160 S   0  0  0  0  0  0  0  0  0  0  0  0
  -17.8020    2.0250  -33.9890 C   0  0  0  0  0  2  0  0  0  0  0  0
  -18.6720    2.8450  -34.9310 C   0  0  0  0  0  2  0  0  0  0  0  0
  -20.0420    3.0710  -34.3750 C   0  0  0  0  0  2  0  0  0  0  0  0
  -20.8240    1.8860  -34.2020 N   0  0  2  0  0  0  0  0  0  0  0  0
  -22.2250    1.5120  -34.4190 C   0  0  1  0  0  0  0  0  0  0  0  0
  -22.3990    0.6910  -33.1270 C   0  0  0  0  0  2  0  0  0  0  0  0
  -21.1530   -0.0530  -33.0900 N   0  0  0  0  0  0  0  0  0  0  0  0
  -20.2740    0.6410  -33.6910 C   0  0  1  0  0  3  0  0  0  0  0  0
  -23.0160    2.6370  -34.4060 O   0  0  0  0  0  0  0  0  0  0  0  0
  -22.5170    3.4620  -34.6100 H   0  0  0  0  0  0  0  0  0  0  0  0
  -22.4090    0.6410  -35.5930 C   0  0  0  0  0  0  0  0  0  0  0  0
  -21.6950    0.7170  -36.7690 C   0  0  0  0  0  3  0  0  0  0  0  0
  -21.9400   -0.1590  -37.8130 C   0  0  0  0  0  3  0  0  0  0  0  0
  -22.9020   -1.1200  -37.6940 C   0  0  0  0  0  0  0  0  0  0  0  0
  -23.6270   -1.2090  -36.5260 C   0  0  0  0  0  3  0  0  0  0  0  0
  -23.2930   -2.3640  -39.1060 Br  0  0  0  0  0  0  0  0  0  0  0  0
  -23.3740   -0.3360  -35.4980 C   0  0  0  0  0  3  0  0  0  0  0  0
  -21.0370   -1.3480  -32.4570 C   0  0  0  0  0  0  0  0  0  0  0  0
  -20.5630   -1.4390  -31.1520 C   0  0  0  0  0  3  0  0  0  0  0  0
  -20.4390   -2.6580  -30.5220 C   0  0  0  0  0  3  0  0  0  0  0  0
  -20.7700   -3.8470  -31.1360 C   0  0  0  0  0  0  0  0  0  0  0  0
  -21.2380   -3.7650  -32.4260 C   0  0  0  0  0  3  0  0  0  0  0  0
  -21.3640   -2.5210  -33.0640 C   0  0  0  0  0  3  0  0  0  0  0  0
  -20.6330   -5.0580  -30.4680 O   0  0  0  0  0  0  0  0  0  0  0  0
  -20.2030   -5.2130  -29.1450 C   0  0  0  0  0  1  0  0  0  0  0  0
  1  2  1  0  0  0  0
  3  4  1  0  0  0  0
  3  2  1  0  0  0  0
  5  4  1  1  0  0  0
  5  9  1  0  0  0  0
  6 10  1  6  0  0  0
  6  5  1  0  0  0  0
  6  7  1  0  0  0  0
  7  8  1  0  0  0  0
  8 19  1  0  0  0  0
  9  1  1  6  0  0  0
  9  8  1  0  0  0  0
 11 10  1  0  0  0  0
 12 18  1  0  0  0  0
 12  6  1  0  0  0  0
 13 12  2  0  0  0  0
 14 15  2  0  0  0  0
 14 13  1  0  0  0  0
 15 16  1  0  0  0  0
 16 18  2  0  0  0  0
 17 15  1  0  0  0  0
 19 20  1  0  0  0  0
 20 21  2  0  0  0  0
 22 21  1  0  0  0  0
 22 25  1  0  0  0  0
 23 22  2  0  0  0  0
 24 19  2  0  0  0  0
 24 23  1  0  0  0  0
 25 26  1  0  0  0  0
M  END
>  <Pose>
1

>  <Score>
-7.015

$$$$
