/Users/jonathanwahrer/Desktop/Msc/3_Semester/Drug_Design_Praktikum/waehrer_HTS_screening/HTS_experiment/out/docking_results/vina_output/5l4q/1226_docked.pdbqt
 OpenBabel03212218363D

 24 27  0  0  1  0  0  0  0  0999 V2000
  -22.2070    1.7690  -34.7820 S   0  0  0  0  0  0  0  0  0  0  0  0
  -23.5150    0.6300  -35.3160 C   0  0  0  0  0  2  0  0  0  0  0  0
  -22.8650   -0.7540  -35.4030 C   0  0  0  0  0  2  0  0  0  0  0  0
  -22.4560   -1.1720  -33.9820 C   0  0  0  0  0  2  0  0  0  0  0  0
  -21.1490   -0.5680  -33.6980 N   0  0  1  0  0  0  0  0  0  0  0  0
  -19.9790   -1.0450  -33.0810 C   0  0  2  0  0  0  0  0  0  0  0  0
  -18.9050   -0.0260  -33.4440 C   0  0  0  0  0  2  0  0  0  0  0  0
  -19.6320    1.0610  -34.0240 N   0  0  0  0  0  0  0  0  0  0  0  0
  -20.8610    0.7560  -34.1250 C   0  0  1  0  0  3  0  0  0  0  0  0
  -19.5800   -2.2490  -33.7040 O   0  0  0  0  0  0  0  0  0  0  0  0
  -18.8180   -2.5960  -33.1690 H   0  0  0  0  0  0  0  0  0  0  0  0
  -19.9690   -1.2470  -31.6330 C   0  0  0  0  0  0  0  0  0  0  0  0
  -20.3770   -2.5010  -31.1820 C   0  0  0  0  0  3  0  0  0  0  0  0
  -20.3950   -2.8680  -29.8490 C   0  0  0  0  0  3  0  0  0  0  0  0
  -20.0000   -1.9740  -28.8930 C   0  0  0  0  0  0  0  0  0  0  0  0
  -19.5910   -0.7240  -29.3200 C   0  0  0  0  0  3  0  0  0  0  0  0
  -19.9890   -2.4260  -27.0170 Br  0  0  0  0  0  0  0  0  0  0  0  0
  -19.5760   -0.3680  -30.6660 C   0  0  0  0  0  3  0  0  0  0  0  0
  -18.9860    2.2710  -34.4530 C   0  0  0  0  0  0  0  0  0  0  0  0
  -18.8130    3.2790  -33.5610 C   0  0  0  0  0  3  0  0  0  0  0  0
  -18.1590    4.4280  -33.9950 C   0  0  0  0  0  3  0  0  0  0  0  0
  -17.6850    4.5780  -35.2780 C   0  0  0  0  0  3  0  0  0  0  0  0
  -17.8860    3.5270  -36.1490 C   0  0  0  0  0  3  0  0  0  0  0  0
  -18.5290    2.3790  -35.7550 C   0  0  0  0  0  3  0  0  0  0  0  0
  2  1  1  0  0  0  0
  3  2  1  0  0  0  0
  3  4  1  0  0  0  0
  5  4  1  6  0  0  0
  5  6  1  0  0  0  0
  6 10  1  6  0  0  0
  6 12  1  0  0  0  0
  7  6  1  0  0  0  0
  8  7  1  0  0  0  0
  9  1  1  6  0  0  0
  9  8  1  0  0  0  0
  9  5  1  0  0  0  0
 10 11  1  0  0  0  0
 12 13  2  0  0  0  0
 12 18  1  0  0  0  0
 13 14  1  0  0  0  0
 14 15  2  0  0  0  0
 15 17  1  0  0  0  0
 16 15  1  0  0  0  0
 18 16  2  0  0  0  0
 19  8  1  0  0  0  0
 19 20  1  0  0  0  0
 21 20  2  0  0  0  0
 22 21  1  0  0  0  0
 23 24  1  0  0  0  0
 23 22  2  0  0  0  0
 24 19  2  0  0  0  0
M  END
>  <Pose>
1

>  <Score>
-7.229

$$$$
