/Users/jonathanwahrer/Desktop/Msc/3_Semester/Drug_Design_Praktikum/waehrer_HTS_screening/HTS_experiment/out/docking_results/vina_output/5l4q/1231_docked.pdbqt
 OpenBabel03212218373D

 37 40  0  0  0  0  0  0  0  0999 V2000
  -23.2920   -0.2520  -35.3430 C   0  0  0  0  0  0  0  0  0  0  0  0
  -23.6800   -0.4220  -36.6130 N   0  0  0  0  0  0  0  0  0  0  0  0
  -23.3170   -1.6760  -36.9360 N   0  0  0  0  0  0  0  0  0  0  0  0
  -22.7430   -2.2640  -35.9480 N   0  0  0  0  0  0  0  0  0  0  0  0
  -22.6800   -1.4140  -34.8600 C   0  0  0  0  0  0  0  0  0  0  0  0
  -22.1080   -1.7760  -33.5900 C   0  0  0  0  0  0  0  0  0  0  0  0
  -22.4490   -2.9280  -33.1090 O   0  0  0  0  0  0  0  0  0  0  0  0
  -21.2270   -1.0480  -32.7960 N   0  0  0  0  0  0  0  0  0  0  0  0
  -20.8260   -0.1110  -32.9670 H   0  0  0  0  0  0  0  0  0  0  0  0
  -20.7670   -1.5990  -31.5500 N   0  0  0  0  0  0  0  0  0  0  0  0
  -20.5910   -0.8740  -30.5170 C   0  0  0  0  0  3  0  0  0  0  0  0
  -20.1280   -1.3920  -29.2370 C   0  0  0  0  0  0  0  0  0  0  0  0
  -19.5070   -0.5850  -28.3110 C   0  0  0  0  0  3  0  0  0  0  0  0
  -19.0690   -1.0590  -27.0920 C   0  0  0  0  0  0  0  0  0  0  0  0
  -19.2360   -2.3760  -26.7490 C   0  0  0  0  0  0  0  0  0  0  0  0
  -18.2120    0.1020  -25.8390 Br  0  0  0  0  0  0  0  0  0  0  0  0
  -19.8650   -3.2290  -27.6690 C   0  0  0  0  0  0  0  0  0  0  0  0
  -18.7870   -2.8320  -25.5180 O   0  0  0  0  0  1  0  0  0  0  0  0
  -20.2920   -2.7240  -28.8790 C   0  0  0  0  0  3  0  0  0  0  0  0
  -20.0000   -4.5350  -27.2620 O   0  0  0  0  0  0  0  0  0  0  0  0
  -20.3500   -5.6210  -28.0840 C   0  0  0  0  0  1  0  0  0  0  0  0
  -23.4810    0.9460  -34.5100 C   0  0  0  0  0  2  0  0  0  0  0  0
  -22.2400    2.2180  -34.6200 S   0  0  0  0  0  0  0  0  0  0  0  0
  -20.7220    1.6410  -35.3690 C   0  0  0  0  0  0  0  0  0  0  0  0
  -19.1480    1.6930  -34.5110 S   0  0  0  0  0  0  0  0  0  0  0  0
  -18.1440    1.1910  -35.9430 C   0  0  0  0  0  2  0  0  0  0  0  0
  -19.2310    0.7650  -36.8770 C   0  0  0  0  0  2  0  0  0  0  0  0
  -20.4880    1.1530  -36.4820 N   0  0  0  0  0  0  0  0  0  0  0  0
  -24.3640    0.4300  -37.5290 C   0  0  0  0  0  0  0  0  0  0  0  0
  -25.6940    0.6050  -37.6760 N   0  0  0  0  0  0  0  0  0  0  0  0
  -25.9700    1.4690  -38.5800 O   0  0  0  0  0  0  0  0  0  0  0  0
  -24.8530    1.9050  -39.0710 N   0  0  0  0  0  0  0  0  0  0  0  0
  -23.8040    1.2900  -38.4490 C   0  0  0  0  0  0  0  0  0  0  0  0
  -22.4300    1.5150  -38.6960 N   0  0  0  0  0  4  0  0  0  0  0  0
  -21.8880    0.7220  -38.2630 H   0  0  0  0  0  0  0  0  0  0  0  0
  -22.0730    2.4230  -38.3510 H   0  0  0  0  0  0  0  0  0  0  0  0
  -22.2570    1.4520  -39.7360 H   0  0  0  0  0  0  0  0  0  0  0  0
  1  5  2  0  0  0  0
  1 22  1  0  0  0  0
  2  1  1  0  0  0  0
  3  2  1  0  0  0  0
  3  4  2  0  0  0  0
  4  5  1  0  0  0  0
  5  6  1  0  0  0  0
  6  7  2  0  0  0  0
  6  8  1  0  0  0  0
  8 10  1  0  0  0  0
  9  8  1  0  0  0  0
 10 11  2  0  0  0  0
 11 12  1  0  0  0  0
 12 19  2  0  0  0  0
 12 13  1  0  0  0  0
 13 14  2  0  0  0  0
 14 15  1  0  0  0  0
 14 16  1  0  0  0  0
 15 18  1  0  0  0  0
 17 20  1  0  0  0  0
 17 15  2  0  0  0  0
 19 17  1  0  0  0  0
 21 20  1  0  0  0  0
 23 22  1  0  0  0  0
 24 23  1  0  0  0  0
 24 25  1  0  0  0  0
 26 25  1  0  0  0  0
 27 28  1  0  0  0  0
 27 26  1  0  0  0  0
 28 24  2  0  0  0  0
 29  2  1  0  0  0  0
 30 29  2  0  0  0  0
 31 30  1  0  0  0  0
 32 31  1  0  0  0  0
 32 33  2  0  0  0  0
 33 29  1  0  0  0  0
 34 33  1  0  0  0  0
 34 36  1  0  0  0  0
 34 35  1  0  0  0  0
 37 34  1  0  0  0  0
M  END
>  <Pose>
1

>  <Score>
-8.811

$$$$
