/Users/jonathanwahrer/Desktop/Msc/3_Semester/Drug_Design_Praktikum/waehrer_HTS_screening/HTS_experiment/out/docking_results/vina_output/5l4q/1237_docked.pdbqt
 OpenBabel03212218373D

 30 34  0  0  1  0  0  0  0  0999 V2000
  -22.8690   -0.4750  -36.5420 C   0  0  2  0  0  3  0  0  0  0  0  0
  -23.8080   -0.5620  -37.6700 C   0  0  1  0  0  3  0  0  0  0  0  0
  -24.5770    0.5560  -38.1390 C   0  0  0  0  0  0  0  0  0  0  0  0
  -23.9910    1.3690  -39.1930 N   0  0  0  0  0  0  0  0  0  0  0  0
  -25.7110    0.9590  -37.7820 O   0  0  0  0  0  0  0  0  0  0  0  0
  -23.1190    0.8630  -40.0060 C   0  0  0  0  0  0  0  0  0  0  0  0
  -22.2190    1.5940  -41.3990 S   0  0  0  0  0  0  0  0  0  0  0  0
  -22.6360   -0.4600  -39.9290 N   0  0  0  0  0  0  0  0  0  0  0  0
  -20.8960    0.3060  -41.4110 C   0  0  0  0  0  2  0  0  0  0  0  0
  -21.6990   -0.8540  -40.9120 C   0  0  0  0  0  2  0  0  0  0  0  0
  -23.1790   -1.2600  -38.8540 C   0  0  0  0  0  0  0  0  0  0  0  0
  -23.1230   -2.5010  -38.9140 O   0  0  0  0  0  0  0  0  0  0  0  0
  -23.3090   -0.6400  -35.1500 C   0  0  1  0  0  3  0  0  0  0  0  0
  -22.4180   -1.7080  -34.5150 C   0  0  0  0  0  0  0  0  0  0  0  0
  -22.6320   -2.9190  -34.7500 O   0  0  0  0  0  0  0  0  0  0  0  0
  -21.3300   -1.3200  -33.6450 N   0  0  0  0  0  0  0  0  0  0  0  0
  -20.2210   -2.1130  -33.2400 C   0  0  0  0  0  2  0  0  0  0  0  0
  -21.3690   -0.0080  -33.1120 C   0  0  0  0  0  0  0  0  0  0  0  0
  -19.0050   -1.2620  -32.9710 C   0  0  0  0  0  2  0  0  0  0  0  0
  -19.8850    0.1400  -32.1340 S   0  0  0  0  0  0  0  0  0  0  0  0
  -22.2970    0.8320  -33.3500 N   0  0  0  0  0  0  0  0  0  0  0  0
  -23.4060    0.4530  -34.2210 C   0  0  0  0  0  0  0  0  0  0  0  0
  -24.4330    1.1420  -34.0910 O   0  0  0  0  0  0  0  0  0  0  0  0
  -21.8480    0.6260  -36.7240 C   0  0  0  0  0  0  0  0  0  0  0  0
  -20.5360    0.3340  -37.0120 C   0  0  0  0  0  3  0  0  0  0  0  0
  -19.6380    1.3600  -37.1650 C   0  0  0  0  0  3  0  0  0  0  0  0
  -19.9830    2.6690  -37.0460 C   0  0  0  0  0  0  0  0  0  0  0  0
  -21.2860    2.9930  -36.7580 C   0  0  0  0  0  3  0  0  0  0  0  0
  -18.7200    4.0970  -37.2620 Br  0  0  0  0  0  0  0  0  0  0  0  0
  -22.1990    1.9500  -36.6020 C   0  0  0  0  0  3  0  0  0  0  0  0
  1 24  1  1  0  0  0
  2  1  1  1  0  0  0
  3  5  2  0  0  0  0
  3  2  1  0  0  0  0
  4  3  1  0  0  0  0
  6  8  1  0  0  0  0
  6  4  2  0  0  0  0
  7  6  1  0  0  0  0
  8 11  1  0  0  0  0
  9  7  1  0  0  0  0
  9 10  1  0  0  0  0
 10  8  1  0  0  0  0
 11  2  1  0  0  0  0
 12 11  2  0  0  0  0
 13  1  1  6  0  0  0
 13 14  1  0  0  0  0
 13 22  1  0  0  0  0
 14 16  1  0  0  0  0
 15 14  2  0  0  0  0
 16 17  1  0  0  0  0
 16 18  1  0  0  0  0
 17 19  1  0  0  0  0
 18 20  1  0  0  0  0
 19 20  1  0  0  0  0
 21 18  2  0  0  0  0
 22 23  2  0  0  0  0
 22 21  1  0  0  0  0
 24 30  1  0  0  0  0
 25 24  2  0  0  0  0
 26 27  2  0  0  0  0
 26 25  1  0  0  0  0
 27 28  1  0  0  0  0
 28 30  2  0  0  0  0
 29 27  1  0  0  0  0
M  END
>  <Pose>
1

>  <Score>
-8.631

$$$$
