/Users/jonathanwahrer/Desktop/Msc/3_Semester/Drug_Design_Praktikum/waehrer_HTS_screening/HTS_experiment/out/docking_results/vina_output/5l4q/1255_docked.pdbqt
 OpenBabel03212218383D

 34 38  0  0  1  0  0  0  0  0999 V2000
  -21.5640    0.4210  -35.6130 C   0  0  1  0  0  3  0  0  0  0  0  0
  -23.0410    0.6710  -35.7270 C   0  0  2  0  0  3  0  0  0  0  0  0
  -23.7720   -0.6270  -35.3850 C   0  0  0  0  0  0  0  0  0  0  0  0
  -23.5700   -1.7320  -36.2960 N   0  0  0  0  0  0  0  0  0  0  0  0
  -24.4720   -0.6500  -34.3740 O   0  0  0  0  0  0  0  0  0  0  0  0
  -23.3250   -1.4940  -37.5440 C   0  0  0  0  0  0  0  0  0  0  0  0
  -23.0310   -2.6040  -38.9110 S   0  0  0  0  0  0  0  0  0  0  0  0
  -23.2540   -0.1920  -38.0840 N   0  0  0  0  0  0  0  0  0  0  0  0
  -22.8280   -1.3170  -40.1340 C   0  0  0  0  0  0  0  0  0  0  0  0
  -22.9970   -0.1080  -39.4260 N   0  0  0  0  0  0  0  0  0  0  0  0
  -22.5720   -1.4990  -41.4260 C   0  0  0  0  0  2  0  0  0  0  0  0
  -22.9260    0.8250  -39.9670 H   0  0  0  0  0  0  0  0  0  0  0  0
  -23.4760    0.8960  -37.1410 C   0  0  0  0  0  0  0  0  0  0  0  0
  -24.0180    1.9680  -37.5370 O   0  0  0  0  0  0  0  0  0  0  0  0
  -20.6630    1.5810  -35.7650 C   0  0  2  0  0  3  0  0  0  0  0  0
  -21.0760    2.6540  -36.6570 C   0  0  0  0  0  0  0  0  0  0  0  0
  -21.5600    3.7340  -36.1770 O   0  0  0  0  0  0  0  0  0  0  0  0
  -20.9500    2.5360  -38.0980 N   0  0  0  0  0  0  0  0  0  0  0  0
  -21.6520    3.1940  -39.0560 N   0  0  0  0  0  0  0  0  0  0  0  0
  -19.9690    1.6240  -38.5380 C   0  0  0  0  0  0  0  0  0  0  0  0
  -21.3350    2.9080  -40.4080 C   0  0  0  0  0  0  0  0  0  0  0  0
  -22.4280    3.9190  -38.8690 H   0  0  0  0  0  0  0  0  0  0  0  0
  -21.8500    3.4020  -41.5130 C   0  0  0  0  0  2  0  0  0  0  0  0
  -20.0330    1.6820  -40.3190 S   0  0  0  0  0  0  0  0  0  0  0  0
  -19.2240    0.9340  -37.7500 N   0  0  0  0  0  0  0  0  0  0  0  0
  -19.3530    1.0530  -36.3230 C   0  0  0  0  0  0  0  0  0  0  0  0
  -18.4650    0.7530  -35.5120 O   0  0  0  0  0  0  0  0  0  0  0  0
  -21.2330   -0.3240  -34.3640 C   0  0  0  0  0  0  0  0  0  0  0  0
  -20.8660   -1.6490  -34.4000 C   0  0  0  0  0  3  0  0  0  0  0  0
  -20.5600   -2.3420  -33.2520 C   0  0  0  0  0  3  0  0  0  0  0  0
  -20.6210   -1.6990  -32.0360 C   0  0  0  0  0  0  0  0  0  0  0  0
  -20.9880   -0.3540  -31.9540 C   0  0  0  0  0  3  0  0  0  0  0  0
  -20.2010   -2.6340  -30.4210 Br  0  0  0  0  0  0  0  0  0  0  0  0
  -21.2870    0.3050  -33.1290 C   0  0  0  0  0  3  0  0  0  0  0  0
  1 28  1  1  0  0  0
  2  1  1  6  0  0  0
  2  3  1  0  0  0  0
  3  5  2  0  0  0  0
  4  3  1  0  0  0  0
  6  4  2  0  0  0  0
  7  6  1  0  0  0  0
  8  6  1  0  0  0  0
  8 13  1  0  0  0  0
  9 10  1  0  0  0  0
  9  7  1  0  0  0  0
 10  8  1  0  0  0  0
 11  9  2  0  0  0  0
 12 10  1  0  0  0  0
 13  2  1  0  0  0  0
 14 13  2  0  0  0  0
 15  1  1  6  0  0  0
 16 17  2  0  0  0  0
 16 15  1  0  0  0  0
 18 16  1  0  0  0  0
 19 22  1  0  0  0  0
 19 18  1  0  0  0  0
 20 18  1  0  0  0  0
 20 25  2  0  0  0  0
 21 24  1  0  0  0  0
 21 19  1  0  0  0  0
 23 21  2  0  0  0  0
 24 20  1  0  0  0  0
 25 26  1  0  0  0  0
 26 15  1  0  0  0  0
 26 27  2  0  0  0  0
 28 34  1  0  0  0  0
 29 28  2  0  0  0  0
 29 30  1  0  0  0  0
 30 31  2  0  0  0  0
 31 32  1  0  0  0  0
 31 33  1  0  0  0  0
 34 32  2  0  0  0  0
M  END
>  <Pose>
1

>  <Score>
-8.026

$$$$
