/Users/jonathanwahrer/Desktop/Msc/3_Semester/Drug_Design_Praktikum/waehrer_HTS_screening/HTS_experiment/out/docking_results/vina_output/5l4q/1256_docked.pdbqt
 OpenBabel03212218383D

 30 33  0  0  0  0  0  0  0  0999 V2000
  -22.7800   -1.6230  -35.3300 S   0  0  0  0  0  0  0  0  0  0  0  0
  -22.1550   -2.5230  -34.0140 C   0  0  0  0  0  0  0  0  0  0  0  0
  -22.2610   -3.8280  -33.6120 N   0  0  0  0  0  0  0  0  0  0  0  0
  -21.6150   -4.2740  -32.5220 C   0  0  0  0  0  0  0  0  0  0  0  0
  -21.6520   -5.4390  -32.0840 O   0  0  0  0  0  0  0  0  0  0  0  0
  -20.8590   -3.3320  -31.8660 C   0  0  0  0  0  3  0  0  0  0  0  0
  -20.7480   -2.0310  -32.2590 C   0  0  0  0  0  0  0  0  0  0  0  0
  -21.4200   -1.6050  -33.3780 N   0  0  0  0  0  0  0  0  0  0  0  0
  -21.3830   -0.4280  -33.8690 N   0  0  0  0  0  0  0  0  0  0  0  0
  -22.0330   -0.1110  -34.9530 C   0  0  0  0  0  0  0  0  0  0  0  0
  -19.8960   -1.1490  -31.4630 C   0  0  0  0  0  0  0  0  0  0  0  0
  -18.6860   -0.9370  -31.8400 O   0  0  0  0  0  0  0  0  0  0  0  0
  -20.2980   -0.4970  -30.2790 N   0  0  0  0  0  0  0  0  0  0  0  0
  -21.2500   -0.6250  -29.8870 H   0  0  0  0  0  0  0  0  0  0  0  0
  -19.3600    0.3720  -29.5780 C   0  0  0  0  0  2  0  0  0  0  0  0
  -19.1030   -0.1320  -28.2060 C   0  0  0  0  0  0  0  0  0  0  0  0
  -18.6150    0.7400  -27.2470 C   0  0  0  0  0  0  0  0  0  0  0  0
  -18.3340    0.2740  -25.9870 C   0  0  0  0  0  3  0  0  0  0  0  0
  -18.5180   -1.0380  -25.6360 C   0  0  0  0  0  3  0  0  0  0  0  0
  -19.0060   -1.9150  -26.5870 C   0  0  0  0  0  0  0  0  0  0  0  0
  -19.2890   -1.4400  -27.8570 C   0  0  0  0  0  3  0  0  0  0  0  0
  -19.2970   -3.7570  -26.1790 Br  0  0  0  0  0  0  0  0  0  0  0  0
  -18.4320    2.0560  -27.6110 O   0  0  0  0  0  0  0  0  0  0  0  0
  -17.3810    2.7910  -26.9840 C   0  0  0  0  0  1  0  0  0  0  0  0
  -22.1000    1.1440  -35.6700 N   0  0  0  0  0  0  0  0  0  0  0  0
  -22.1320    1.1650  -37.0820 C   0  0  0  0  0  2  0  0  0  0  0  0
  -22.1070    2.5890  -37.5860 C   0  0  0  0  0  2  0  0  0  0  0  0
  -21.2290    3.3460  -36.8070 O   0  0  0  0  0  0  0  0  0  0  0  0
  -21.7850    3.5830  -35.5440 C   0  0  0  0  0  2  0  0  0  0  0  0
  -22.1280    2.3040  -34.8440 C   0  0  0  0  0  2  0  0  0  0  0  0
  1 10  1  0  0  0  0
  1  2  1  0  0  0  0
  2  3  2  0  0  0  0
  2  8  1  0  0  0  0
  3  4  1  0  0  0  0
  4  5  2  0  0  0  0
  4  6  1  0  0  0  0
  7  6  2  0  0  0  0
  7 11  1  0  0  0  0
  8  7  1  0  0  0  0
  9  8  1  0  0  0  0
 10  9  2  0  0  0  0
 11 13  1  0  0  0  0
 12 11  2  0  0  0  0
 13 14  1  0  0  0  0
 13 15  1  0  0  0  0
 15 16  1  0  0  0  0
 16 21  2  0  0  0  0
 16 17  1  0  0  0  0
 17 18  2  0  0  0  0
 18 19  1  0  0  0  0
 20 22  1  0  0  0  0
 20 19  2  0  0  0  0
 21 20  1  0  0  0  0
 23 17  1  0  0  0  0
 23 24  1  0  0  0  0
 25 10  1  0  0  0  0
 25 30  1  0  0  0  0
 26 25  1  0  0  0  0
 27 26  1  0  0  0  0
 27 28  1  0  0  0  0
 28 29  1  0  0  0  0
 29 30  1  0  0  0  0
M  END
>  <Pose>
1

>  <Score>
-8.745

$$$$
