/Users/jonathanwahrer/Desktop/Msc/3_Semester/Drug_Design_Praktikum/waehrer_HTS_screening/HTS_experiment/out/docking_results/vina_output/5l4q/1265_docked.pdbqt
 OpenBabel03212218383D

 24 27  0  0  1  0  0  0  0  0999 V2000
  -21.1680   -3.8700  -32.1650 S   0  0  0  0  0  0  0  0  0  0  0  0
  -20.5320   -2.2350  -31.8160 C   0  0  1  0  0  3  0  0  0  0  0  0
  -19.7270   -1.5960  -31.0320 N   0  0  0  0  0  0  0  0  0  0  0  0
  -19.6980   -0.2130  -31.3280 C   0  0  0  0  0  3  0  0  0  0  0  0
  -20.6430   -0.0520  -32.4730 C   0  0  0  0  0  3  0  0  0  0  0  0
  -21.1640   -1.4090  -32.7630 N   0  0  0  0  0  0  0  0  0  0  0  0
  -22.0440   -2.0390  -33.6500 C   0  0  0  0  0  0  0  0  0  0  0  0
  -22.2050   -3.3370  -33.5200 C   0  0  0  0  0  3  0  0  0  0  0  0
  -18.9570   -2.2940  -29.9870 C   0  0  0  0  0  2  0  0  0  0  0  0
  -19.7340   -2.1870  -28.7360 C   0  0  0  0  0  0  0  0  0  0  0  0
  -20.8060   -2.8060  -28.5810 O   0  0  0  0  0  0  0  0  0  0  0  0
  -19.2550   -1.3430  -27.6500 C   0  0  0  0  0  0  0  0  0  0  0  0
  -18.8450   -1.8980  -26.4360 C   0  0  0  0  0  3  0  0  0  0  0  0
  -18.3940   -1.1200  -25.3860 C   0  0  0  0  0  3  0  0  0  0  0  0
  -18.3580    0.2360  -25.5700 C   0  0  0  0  0  0  0  0  0  0  0  0
  -18.7520    0.8340  -26.7530 C   0  0  0  0  0  3  0  0  0  0  0  0
  -17.7290    1.3060  -24.1080 Br  0  0  0  0  0  0  0  0  0  0  0  0
  -19.2030    0.0270  -27.8000 C   0  0  0  0  0  3  0  0  0  0  0  0
  -22.8000   -1.3370  -34.7380 C   0  0  0  0  0  0  0  0  0  0  0  0
  -22.9480   -1.8960  -35.9870 C   0  0  0  0  0  3  0  0  0  0  0  0
  -23.6280   -1.2920  -37.0230 C   0  0  0  0  0  3  0  0  0  0  0  0
  -24.2070   -0.0580  -36.8390 C   0  0  0  0  0  3  0  0  0  0  0  0
  -24.0730    0.5190  -35.6080 C   0  0  0  0  0  3  0  0  0  0  0  0
  -23.3770   -0.1060  -34.5570 C   0  0  0  0  0  3  0  0  0  0  0  0
  2  1  1  6  0  0  0
  2  3  1  0  0  0  0
  3  9  1  0  0  0  0
  4  3  1  0  0  0  0
  5  4  2  0  0  0  0
  6  5  1  0  0  0  0
  6  2  1  0  0  0  0
  7  8  2  0  0  0  0
  7  6  1  0  0  0  0
  8  1  1  0  0  0  0
  9 10  1  0  0  0  0
 10 11  2  0  0  0  0
 10 12  1  0  0  0  0
 12 13  1  0  0  0  0
 13 14  2  0  0  0  0
 15 14  1  0  0  0  0
 15 17  1  0  0  0  0
 16 15  2  0  0  0  0
 18 12  2  0  0  0  0
 18 16  1  0  0  0  0
 19 24  1  0  0  0  0
 19  7  1  0  0  0  0
 20 19  2  0  0  0  0
 21 22  2  0  0  0  0
 21 20  1  0  0  0  0
 22 23  1  0  0  0  0
 23 24  2  0  0  0  0
M  END
>  <Pose>
1

>  <Score>
-8.510

$$$$
