/Users/jonathanwahrer/Desktop/Msc/3_Semester/Drug_Design_Praktikum/waehrer_HTS_screening/HTS_experiment/out/docking_results/vina_output/5l4q/1271_docked.pdbqt
 OpenBabel03212218393D

 35 38  0  0  0  0  0  0  0  0999 V2000
  -22.5260   -0.8530  -35.0330 C   0  0  0  0  0  0  0  0  0  0  0  0
  -23.4010   -1.8550  -35.1930 N   0  0  0  0  0  0  0  0  0  0  0  0
  -23.5390   -2.0270  -36.4830 N   0  0  0  0  0  0  0  0  0  0  0  0
  -22.7780   -1.1640  -37.1520 N   0  0  0  0  0  0  0  0  0  0  0  0
  -22.1170   -0.4000  -36.2970 C   0  0  0  0  0  0  0  0  0  0  0  0
  -22.0850   -0.3550  -33.7430 C   0  0  0  0  0  0  0  0  0  0  0  0
  -21.0920   -1.0050  -32.9730 N   0  0  0  0  0  0  0  0  0  0  0  0
  -20.6210   -1.8930  -33.2940 H   0  0  0  0  0  0  0  0  0  0  0  0
  -22.6080    0.6930  -33.2990 O   0  0  0  0  0  0  0  0  0  0  0  0
  -20.6710   -0.5130  -31.7370 N   0  0  0  0  0  0  0  0  0  0  0  0
  -21.1040    0.2760  -31.2280 H   0  0  0  0  0  0  0  0  0  0  0  0
  -19.5410   -1.1490  -31.1030 C   0  0  0  0  0  0  0  0  0  0  0  0
  -18.3360   -0.8240  -31.5000 C   0  0  0  0  0  2  0  0  0  0  0  0
  -19.7920   -2.1310  -30.0670 C   0  0  0  0  0  0  0  0  0  0  0  0
  -19.3920   -1.8800  -28.7550 C   0  0  0  0  0  3  0  0  0  0  0  0
  -19.6370   -2.7940  -27.7600 C   0  0  0  0  0  0  0  0  0  0  0  0
  -19.0950   -2.4640  -25.9670 Br  0  0  0  0  0  0  0  0  0  0  0  0
  -20.2850   -3.9900  -28.0180 C   0  0  0  0  0  3  0  0  0  0  0  0
  -20.6800   -4.2470  -29.2950 C   0  0  0  0  0  3  0  0  0  0  0  0
  -20.4290   -3.3140  -30.3010 C   0  0  0  0  0  3  0  0  0  0  0  0
  -21.2030    0.7060  -36.4650 C   0  0  0  0  0  2  0  0  0  0  0  0
  -19.8590    0.3700  -36.8930 N   0  0  0  0  0  0  0  0  0  0  0  0
  -19.5560    0.9880  -38.1810 C   0  0  0  0  0  2  0  0  0  0  0  0
  -19.9390    2.4510  -38.2080 C   0  0  0  0  0  2  0  0  0  0  0  0
  -19.2310    3.1920  -37.0880 C   0  0  0  0  0  2  0  0  0  0  0  0
  -18.3430    2.2650  -36.3080 C   0  0  0  0  0  2  0  0  0  0  0  0
  -18.8960    0.9420  -35.9570 C   0  0  0  0  0  2  0  0  0  0  0  0
  -22.7340   -1.0900  -38.5650 C   0  0  0  0  0  0  0  0  0  0  0  0
  -22.7430    0.0890  -39.2460 N   0  0  0  0  0  0  0  0  0  0  0  0
  -22.6980   -0.1890  -40.5100 O   0  0  0  0  0  0  0  0  0  0  0  0
  -22.6640   -1.4570  -40.7120 N   0  0  0  0  0  0  0  0  0  0  0  0
  -22.6840   -2.0640  -39.5180 C   0  0  0  0  0  0  0  0  0  0  0  0
  -22.6590   -3.4430  -39.2610 N   0  0  0  0  0  0  0  0  0  0  0  0
  -23.2700   -3.9540  -38.5860 H   0  0  0  0  0  0  0  0  0  0  0  0
  -21.9750   -4.0350  -39.7800 H   0  0  0  0  0  0  0  0  0  0  0  0
  1  6  1  0  0  0  0
  2  1  1  0  0  0  0
  3  2  2  0  0  0  0
  4  3  1  0  0  0  0
  4  5  1  0  0  0  0
  5  1  2  0  0  0  0
  6  9  2  0  0  0  0
  6  7  1  0  0  0  0
  7 10  1  0  0  0  0
  8  7  1  0  0  0  0
 10 11  1  0  0  0  0
 10 12  1  0  0  0  0
 12 14  1  0  0  0  0
 13 12  2  0  0  0  0
 14 15  1  0  0  0  0
 15 16  2  0  0  0  0
 16 17  1  0  0  0  0
 18 16  1  0  0  0  0
 19 18  2  0  0  0  0
 20 14  2  0  0  0  0
 20 19  1  0  0  0  0
 21  5  1  0  0  0  0
 22 21  1  0  0  0  0
 22 27  1  0  0  0  0
 23 22  1  0  0  0  0
 24 23  1  0  0  0  0
 24 25  1  0  0  0  0
 25 26  1  0  0  0  0
 26 27  1  0  0  0  0
 28  4  1  0  0  0  0
 29 28  2  0  0  0  0
 30 29  1  0  0  0  0
 31 30  1  0  0  0  0
 31 32  2  0  0  0  0
 32 33  1  0  0  0  0
 32 28  1  0  0  0  0
 33 34  1  0  0  0  0
 35 33  1  0  0  0  0
M  END
>  <Pose>
1

>  <Score>
-9.120

$$$$
