/Users/jonathanwahrer/Desktop/Msc/3_Semester/Drug_Design_Praktikum/waehrer_HTS_screening/HTS_experiment/out/docking_results/vina_output/5l4q/1280_docked.pdbqt
 OpenBabel03212218393D

 35 38  0  0  1  0  0  0  0  0999 V2000
  -21.6080    2.7290  -35.8350 C   0  0  1  0  0  3  0  0  0  0  0  0
  -21.4290    2.3820  -37.2310 N   0  0  0  0  0  0  0  0  0  0  0  0
  -20.3780    1.4340  -37.2880 C   0  0  0  0  0  0  0  0  0  0  0  0
  -19.6410    1.2390  -38.2610 O   0  0  0  0  0  0  0  0  0  0  0  0
  -20.3560    0.7550  -35.9810 C   0  0  0  0  0  0  0  0  0  0  0  0
  -19.5860   -0.1620  -35.6060 O   0  0  0  0  0  0  0  0  0  0  0  0
  -21.4290    1.3750  -35.2140 C   0  0  0  0  0  0  0  0  0  0  0  0
  -22.0930    0.8030  -34.2190 C   0  0  0  0  0  0  0  0  0  0  0  0
  -23.1290    1.5830  -33.6530 O   0  0  0  0  0  1  0  0  0  0  0  0
  -20.5950    3.7090  -35.4160 C   0  0  0  0  0  0  0  0  0  0  0  0
  -20.2660    4.7710  -36.2460 C   0  0  0  0  0  3  0  0  0  0  0  0
  -19.3220    5.7310  -35.8650 C   0  0  0  0  0  0  0  0  0  0  0  0
  -18.8920    7.1890  -37.0400 Br  0  0  0  0  0  0  0  0  0  0  0  0
  -18.6980    5.6380  -34.6480 C   0  0  0  0  0  3  0  0  0  0  0  0
  -19.0140    4.5920  -33.8140 C   0  0  0  0  0  3  0  0  0  0  0  0
  -19.9530    3.6480  -34.2100 C   0  0  0  0  0  3  0  0  0  0  0  0
  -21.8100   -0.5340  -33.7090 C   0  0  0  0  0  0  0  0  0  0  0  0
  -20.8800   -0.8150  -32.7530 C   0  0  0  0  0  0  0  0  0  0  0  0
  -20.6360   -2.1420  -32.3550 C   0  0  0  0  0  3  0  0  0  0  0  0
  -20.1420    0.2790  -32.0790 C   0  0  0  0  0  1  0  0  0  0  0  0
  -21.3050   -3.2070  -32.8930 C   0  0  0  0  0  0  0  0  0  0  0  0
  -22.2480   -2.9250  -33.8590 C   0  0  0  0  0  3  0  0  0  0  0  0
  -22.4940   -1.6370  -34.2540 C   0  0  0  0  0  3  0  0  0  0  0  0
  -21.0680   -4.5250  -32.5000 O   0  0  0  0  0  0  0  0  0  0  0  0
  -21.1250   -4.8900  -31.1450 C   0  0  0  0  0  1  0  0  0  0  0  0
  -22.2060    2.9410  -38.3170 C   0  0  0  0  0  2  0  0  0  0  0  0
  -23.3840    2.1040  -38.7060 C   0  0  0  0  0  2  0  0  0  0  0  0
  -23.1050    0.9850  -39.6360 C   0  0  0  0  0  2  0  0  0  0  0  0
  -23.3520   -0.3160  -39.1240 N   0  0  0  0  0  4  0  0  0  0  0  0
  -22.3040   -1.2930  -39.4640 C   0  0  0  0  0  2  0  0  0  0  0  0
  -22.9800   -2.6610  -39.3560 C   0  0  0  0  0  2  0  0  0  0  0  0
  -24.2100   -2.5860  -38.7280 O   0  0  0  0  0  0  0  0  0  0  0  0
  -24.1130   -1.8930  -37.5210 C   0  0  0  0  0  2  0  0  0  0  0  0
  -23.6060   -0.4550  -37.7360 C   0  0  0  0  0  2  0  0  0  0  0  0
  -24.2170   -0.6830  -39.6260 H   0  0  0  0  0  0  0  0  0  0  0  0
  1 10  1  1  0  0  0
  1  7  1  0  0  0  0
  2  1  1  0  0  0  0
  3  2  1  0  0  0  0
  3  5  1  0  0  0  0
  4  3  2  0  0  0  0
  5  6  2  0  0  0  0
  5  7  1  0  0  0  0
  7  8  2  0  0  0  0
  8 17  1  0  0  0  0
  8  9  1  0  0  0  0
 10 16  1  0  0  0  0
 11 12  1  0  0  0  0
 11 10  2  0  0  0  0
 12 14  2  0  0  0  0
 13 12  1  0  0  0  0
 14 15  1  0  0  0  0
 16 15  2  0  0  0  0
 17 18  1  0  0  0  0
 18 19  2  0  0  0  0
 18 20  1  0  0  0  0
 21 24  1  0  0  0  0
 21 19  1  0  0  0  0
 22 21  2  0  0  0  0
 23 22  1  0  0  0  0
 23 17  2  0  0  0  0
 24 25  1  0  0  0  0
 26  2  1  0  0  0  0
 27 26  1  0  0  0  0
 28 29  1  0  0  0  0
 28 27  1  0  0  0  0
 29 34  1  0  0  0  0
 30 31  1  0  0  0  0
 30 29  1  0  0  0  0
 31 32  1  0  0  0  0
 32 33  1  0  0  0  0
 34 33  1  0  0  0  0
 35 29  1  0  0  0  0
M  END
>  <Pose>
1

>  <Score>
-7.591

$$$$
