/Users/jonathanwahrer/Desktop/Msc/3_Semester/Drug_Design_Praktikum/waehrer_HTS_screening/HTS_experiment/out/docking_results/vina_output/5l4q/1282_docked.pdbqt
 OpenBabel03212218393D

 30 33  0  0  1  0  0  0  0  0999 V2000
  -21.9670   -2.2940  -33.7170 C   0  0  2  0  0  3  0  0  0  0  0  0
  -20.7400   -1.7390  -33.0190 C   0  0  0  0  0  2  0  0  0  0  0  0
  -20.7170   -2.4770  -31.7710 N   0  0  0  0  0  0  0  0  0  0  0  0
  -21.6970   -3.5440  -31.7810 C   0  0  1  0  0  3  0  0  0  0  0  0
  -21.9390   -3.7320  -33.2840 C   0  0  0  0  0  2  0  0  0  0  0  0
  -21.0990   -4.7320  -31.1750 C   0  0  0  0  0  0  0  0  0  0  0  0
  -21.0970   -5.8270  -31.7580 O   0  0  0  0  0  0  0  0  0  0  0  0
  -20.5150   -4.5980  -29.8890 N   0  0  0  0  0  0  0  0  0  0  0  0
  -19.9990   -3.3140  -29.4720 C   0  0  1  0  0  3  0  0  0  0  0  0
  -19.9270   -2.3370  -30.5820 C   0  0  0  0  0  0  0  0  0  0  0  0
  -19.1530   -1.3480  -30.4920 O   0  0  0  0  0  0  0  0  0  0  0  0
  -20.4380   -5.3980  -29.2210 H   0  0  0  0  0  0  0  0  0  0  0  0
  -21.8740   -2.1380  -35.1580 N   0  0  0  0  0  0  0  0  0  0  0  0
  -22.9630   -1.5330  -35.8180 C   0  0  0  0  0  0  0  0  0  0  0  0
  -23.9820   -1.1480  -35.1340 O   0  0  0  0  0  0  0  0  0  0  0  0
  -21.0580   -2.4530  -35.7000 H   0  0  0  0  0  0  0  0  0  0  0  0
  -22.9790   -1.3260  -37.2560 C   0  0  0  0  0  0  0  0  0  0  0  0
  -22.5950   -0.1040  -37.7940 C   0  0  0  0  0  3  0  0  0  0  0  0
  -22.6040    0.0940  -39.1470 C   0  0  0  0  0  0  0  0  0  0  0  0
  -22.0730    1.7820  -39.8770 Br  0  0  0  0  0  0  0  0  0  0  0  0
  -22.9860   -0.8920  -40.0110 C   0  0  0  0  0  3  0  0  0  0  0  0
  -23.3650   -2.1010  -39.4820 C   0  0  0  0  0  3  0  0  0  0  0  0
  -23.3600   -2.3110  -38.1120 C   0  0  0  0  0  3  0  0  0  0  0  0
  -20.7310   -2.7570  -28.2700 C   0  0  0  0  0  2  0  0  0  0  0  0
  -19.8430   -2.0730  -27.3150 C   0  0  0  0  0  0  0  0  0  0  0  0
  -19.2270   -2.7970  -26.3100 C   0  0  0  0  0  3  0  0  0  0  0  0
  -18.3970   -2.1650  -25.4130 C   0  0  0  0  0  3  0  0  0  0  0  0
  -18.1370   -0.8090  -25.4640 C   0  0  0  0  0  3  0  0  0  0  0  0
  -18.7500   -0.0850  -26.4650 C   0  0  0  0  0  3  0  0  0  0  0  0
  -19.5870   -0.7020  -27.3740 C   0  0  0  0  0  3  0  0  0  0  0  0
  1 13  1  6  0  0  0
  1  5  1  0  0  0  0
  1  2  1  0  0  0  0
  2  3  1  0  0  0  0
  3 10  1  0  0  0  0
  4  5  1  6  0  0  0
  4  3  1  0  0  0  0
  4  6  1  0  0  0  0
  6  8  1  0  0  0  0
  7  6  2  0  0  0  0
  8  9  1  0  0  0  0
  8 12  1  0  0  0  0
  9 24  1  1  0  0  0
 10 11  2  0  0  0  0
 10  9  1  0  0  0  0
 14 13  1  0  0  0  0
 14 15  2  0  0  0  0
 16 13  1  0  0  0  0
 17 14  1  0  0  0  0
 18 17  1  0  0  0  0
 19 18  2  0  0  0  0
 20 19  1  0  0  0  0
 21 22  2  0  0  0  0
 21 19  1  0  0  0  0
 22 23  1  0  0  0  0
 23 17  2  0  0  0  0
 24 25  1  0  0  0  0
 25 26  1  0  0  0  0
 26 27  2  0  0  0  0
 28 27  1  0  0  0  0
 29 28  2  0  0  0  0
 30 25  2  0  0  0  0
 30 29  1  0  0  0  0
M  END
>  <Pose>
1

>  <Score>
-10.360

$$$$
