/Users/jonathanwahrer/Desktop/Msc/3_Semester/Drug_Design_Praktikum/waehrer_HTS_screening/HTS_experiment/out/docking_results/vina_output/5l4q/1299_docked.pdbqt
 OpenBabel03212218403D

 36 39  0  0  0  0  0  0  0  0999 V2000
  -20.4000    1.5400  -35.3340 C   0  0  0  0  0  0  0  0  0  0  0  0
  -19.9480    2.8350  -35.3030 N   0  0  0  0  0  0  0  0  0  0  0  0
  -20.1370    3.3040  -36.5180 N   0  0  0  0  0  0  0  0  0  0  0  0
  -20.6650    2.4200  -37.2990 N   0  0  0  0  0  0  0  0  0  0  0  0
  -20.8570    1.2690  -36.5950 C   0  0  0  0  0  0  0  0  0  0  0  0
  -20.3410    0.7080  -34.1390 C   0  0  0  0  0  0  0  0  0  0  0  0
  -19.2240   -0.0170  -33.6650 N   0  0  0  0  0  0  0  0  0  0  0  0
  -18.2810   -0.0530  -34.1110 H   0  0  0  0  0  0  0  0  0  0  0  0
  -21.3920    0.5850  -33.4000 O   0  0  0  0  0  0  0  0  0  0  0  0
  -19.4160   -0.7680  -32.4570 N   0  0  0  0  0  0  0  0  0  0  0  0
  -18.9140   -0.3890  -31.3470 C   0  0  0  0  0  3  0  0  0  0  0  0
  -19.1100   -1.1600  -30.1100 C   0  0  0  0  0  0  0  0  0  0  0  0
  -19.5780   -2.4360  -30.1420 C   0  0  0  0  0  3  0  0  0  0  0  0
  -19.7620   -3.1600  -28.9780 C   0  0  0  0  0  0  0  0  0  0  0  0
  -19.4800   -2.6140  -27.7510 C   0  0  0  0  0  0  0  0  0  0  0  0
  -20.4230   -4.9650  -29.0370 Br  0  0  0  0  0  0  0  0  0  0  0  0
  -19.0060   -1.3190  -27.7140 C   0  0  0  0  0  0  0  0  0  0  0  0
  -18.6100   -0.5490  -26.0130 Br  0  0  0  0  0  0  0  0  0  0  0  0
  -18.8250   -0.6040  -28.8820 C   0  0  0  0  0  3  0  0  0  0  0  0
  -19.6770   -3.3720  -26.6060 O   0  0  0  0  0  0  0  0  0  0  0  0
  -19.1000   -4.1550  -26.3550 H   0  0  0  0  0  0  0  0  0  0  0  0
  -19.3950    3.5180  -34.1970 C   0  0  0  0  0  0  0  0  0  0  0  0
  -18.2670    3.2530  -33.4910 N   0  0  0  0  0  0  0  0  0  0  0  0
  -18.1390    4.1310  -32.5630 O   0  0  0  0  0  0  0  0  0  0  0  0
  -19.1010    4.9980  -32.5680 N   0  0  0  0  0  0  0  0  0  0  0  0
  -19.9230    4.6440  -33.5930 C   0  0  0  0  0  0  0  0  0  0  0  0
  -21.1060    5.3410  -33.9450 N   0  0  0  0  0  0  0  0  0  0  0  0
  -21.9590    4.7840  -34.1400 H   0  0  0  0  0  0  0  0  0  0  0  0
  -21.1700    6.3720  -34.0190 H   0  0  0  0  0  0  0  0  0  0  0  0
  -21.4150    0.0020  -37.0660 C   0  0  0  0  0  2  0  0  0  0  0  0
  -22.8000    0.0900  -37.5050 N   0  0  0  0  0  0  0  0  0  0  0  0
  -23.1090   -1.0070  -38.4140 C   0  0  0  0  0  2  0  0  0  0  0  0
  -23.6530   -2.2020  -37.6830 C   0  0  0  0  0  2  0  0  0  0  0  0
  -23.3100   -2.2500  -36.3440 O   0  0  0  0  0  0  0  0  0  0  0  0
  -23.7180   -1.1510  -35.6050 C   0  0  0  0  0  2  0  0  0  0  0  0
  -23.7430    0.1170  -36.4140 C   0  0  0  0  0  2  0  0  0  0  0  0
  1  2  1  0  0  0  0
  1  6  1  0  0  0  0
  2 22  1  0  0  0  0
  3  2  1  0  0  0  0
  4  5  1  0  0  0  0
  4  3  2  0  0  0  0
  5  1  2  0  0  0  0
  6  7  1  0  0  0  0
  6  9  2  0  0  0  0
  7 10  1  0  0  0  0
  8  7  1  0  0  0  0
 10 11  2  0  0  0  0
 11 12  1  0  0  0  0
 12 19  1  0  0  0  0
 13 12  2  0  0  0  0
 13 14  1  0  0  0  0
 14 15  2  0  0  0  0
 15 17  1  0  0  0  0
 15 20  1  0  0  0  0
 16 14  1  0  0  0  0
 17 18  1  0  0  0  0
 19 17  2  0  0  0  0
 20 21  1  0  0  0  0
 22 26  1  0  0  0  0
 22 23  2  0  0  0  0
 23 24  1  0  0  0  0
 25 24  1  0  0  0  0
 26 25  2  0  0  0  0
 27 26  1  0  0  0  0
 28 27  1  0  0  0  0
 29 27  1  0  0  0  0
 30  5  1  0  0  0  0
 31 30  1  0  0  0  0
 31 36  1  0  0  0  0
 32 33  1  0  0  0  0
 32 31  1  0  0  0  0
 33 34  1  0  0  0  0
 34 35  1  0  0  0  0
 36 35  1  0  0  0  0
M  END
>  <Pose>
1

>  <Score>
-8.104

$$$$
