/Users/jonathanwahrer/Desktop/Msc/3_Semester/Drug_Design_Praktikum/waehrer_HTS_screening/HTS_experiment/out/docking_results/vina_output/5l4q/1310_docked.pdbqt
 OpenBabel03212218413D

 32 35  0  0  1  0  0  0  0  0999 V2000
  -22.1690    1.6040  -36.5400 C   0  0  1  0  0  3  0  0  0  0  0  0
  -21.5040    1.0530  -37.7000 N   0  0  0  0  0  0  0  0  0  0  0  0
  -20.2940    0.4740  -37.2440 C   0  0  0  0  0  0  0  0  0  0  0  0
  -19.2290    0.3030  -37.8870 O   0  0  0  0  0  0  0  0  0  0  0  0
  -20.5240    0.1060  -35.8470 C   0  0  0  0  0  0  0  0  0  0  0  0
  -19.7390   -0.4340  -35.0340 O   0  0  0  0  0  0  0  0  0  0  0  0
  -21.9110    0.5040  -35.5580 C   0  0  0  0  0  0  0  0  0  0  0  0
  -22.6700   -0.0110  -34.6170 C   0  0  0  0  0  0  0  0  0  0  0  0
  -23.9510    0.5340  -34.4650 O   0  0  0  0  0  1  0  0  0  0  0  0
  -21.6540    2.9080  -36.1110 C   0  0  0  0  0  0  0  0  0  0  0  0
  -21.2330    3.9070  -36.9510 C   0  0  0  0  0  3  0  0  0  0  0  0
  -20.7560    5.1350  -36.4880 C   0  0  0  0  0  0  0  0  0  0  0  0
  -20.1820    6.4850  -37.7320 Br  0  0  0  0  0  0  0  0  0  0  0  0
  -20.6950    5.3790  -35.1330 C   0  0  0  0  0  3  0  0  0  0  0  0
  -21.1120    4.3940  -34.2660 C   0  0  0  0  0  3  0  0  0  0  0  0
  -21.5790    3.1880  -34.7360 C   0  0  0  0  0  3  0  0  0  0  0  0
  -22.2210   -1.1200  -33.7520 C   0  0  0  0  0  0  0  0  0  0  0  0
  -21.4900   -1.0730  -32.6780 O   0  0  0  0  0  0  0  0  0  0  0  0
  -21.2970   -2.2700  -32.1710 C   0  0  0  0  0  0  0  0  0  0  0  0
  -21.9490   -3.2020  -32.9620 C   0  0  0  0  0  0  0  0  0  0  0  0
  -20.6100   -2.7400  -31.0660 C   0  0  0  0  0  3  0  0  0  0  0  0
  -22.5320   -2.4500  -33.9630 C   0  0  0  0  0  3  0  0  0  0  0  0
  -21.9030   -4.5420  -32.6430 C   0  0  0  0  0  3  0  0  0  0  0  0
  -21.2190   -5.0100  -31.5440 C   0  0  0  0  0  3  0  0  0  0  0  0
  -20.5660   -4.0960  -30.7470 C   0  0  0  0  0  3  0  0  0  0  0  0
  -21.9260    1.0220  -39.0990 C   0  0  0  0  0  2  0  0  0  0  0  0
  -22.9190   -0.1010  -39.3300 C   0  0  0  0  0  2  0  0  0  0  0  0
  -22.2500   -1.4130  -39.6460 C   0  0  0  0  0  2  0  0  0  0  0  0
  -22.7860   -2.4390  -38.8100 N   0  0  0  0  0  4  0  0  0  0  0  0
  -23.5730   -1.9290  -37.7080 C   0  0  0  0  0  1  0  0  0  0  0  0
  -23.5690   -3.4310  -39.4830 C   0  0  0  0  0  1  0  0  0  0  0  0
  -21.9610   -2.9450  -38.3670 H   0  0  0  0  0  0  0  0  0  0  0  0
  1 10  1  1  0  0  0
  1  7  1  0  0  0  0
  2  3  1  0  0  0  0
  2  1  1  0  0  0  0
  3  5  1  0  0  0  0
  4  3  2  0  0  0  0
  5  7  1  0  0  0  0
  5  6  2  0  0  0  0
  7  8  2  0  0  0  0
  8  9  1  0  0  0  0
  8 17  1  0  0  0  0
 10 16  1  0  0  0  0
 11 12  1  0  0  0  0
 11 10  2  0  0  0  0
 12 14  2  0  0  0  0
 13 12  1  0  0  0  0
 14 15  1  0  0  0  0
 16 15  2  0  0  0  0
 17 18  1  0  0  0  0
 18 19  1  0  0  0  0
 19 21  1  0  0  0  0
 20 23  1  0  0  0  0
 20 19  2  0  0  0  0
 21 25  2  0  0  0  0
 22 17  2  0  0  0  0
 22 20  1  0  0  0  0
 23 24  2  0  0  0  0
 24 25  1  0  0  0  0
 26  2  1  0  0  0  0
 27 26  1  0  0  0  0
 28 27  1  0  0  0  0
 28 29  1  0  0  0  0
 29 32  1  0  0  0  0
 29 30  1  0  0  0  0
 31 29  1  0  0  0  0
M  END
>  <Pose>
1

>  <Score>
-7.762

$$$$
