/Users/jonathanwahrer/Desktop/Msc/3_Semester/Drug_Design_Praktikum/waehrer_HTS_screening/HTS_experiment/out/docking_results/vina_output/5l4q/1314_docked.pdbqt
 OpenBabel03212218413D

 32 35  0  0  0  0  0  0  0  0999 V2000
  -18.9570    0.7130  -33.4120 C   0  0  0  0  0  0  0  0  0  0  0  0
  -18.0740    1.6480  -33.5910 N   0  0  0  0  0  0  0  0  0  0  0  0
  -18.1110    2.0480  -34.8150 N   0  0  0  0  0  0  0  0  0  0  0  0
  -19.0670    1.3710  -35.5590 N   0  0  0  0  0  0  0  0  0  0  0  0
  -19.6190    0.5300  -34.7130 C   0  0  0  0  0  0  0  0  0  0  0  0
  -19.1450   -0.2020  -32.3610 C   0  0  0  0  0  0  0  0  0  0  0  0
  -20.3150   -0.0660  -31.3600 N   0  0  0  0  0  0  0  0  0  0  0  0
  -20.9460    0.7060  -31.5570 H   0  0  0  0  0  0  0  0  0  0  0  0
  -18.4240   -1.1640  -32.1220 O   0  0  0  0  0  0  0  0  0  0  0  0
  -20.1000   -1.0060  -30.5020 N   0  0  0  0  0  2  0  0  0  0  0  0
  -20.3730   -1.9580  -29.7510 C   0  0  0  0  0  2  0  0  0  0  0  0
  -19.5700   -1.8130  -28.4340 C   0  0  0  0  0  0  0  0  0  0  0  0
  -19.6360   -2.8720  -27.5610 C   0  0  0  0  0  0  0  0  0  0  0  0
  -20.3660   -4.5170  -28.1320 Br  0  0  0  0  0  0  0  0  0  0  0  0
  -19.2100   -2.6620  -26.2460 C   0  0  0  0  0  3  0  0  0  0  0  0
  -18.7120   -1.4170  -25.8490 C   0  0  0  0  0  3  0  0  0  0  0  0
  -18.6350   -0.4000  -26.7400 C   0  0  0  0  0  3  0  0  0  0  0  0
  -19.0950   -0.6200  -28.0750 C   0  0  0  0  0  3  0  0  0  0  0  0
  -20.7730   -0.3650  -34.6970 C   0  0  0  0  0  2  0  0  0  0  0  0
  -22.0100   -0.2200  -35.1840 N   0  0  0  0  0  0  0  0  0  0  0  0
  -22.7440   -1.4720  -35.0700 C   0  0  0  0  0  2  0  0  0  0  0  0
  -22.9200    0.7990  -35.1910 C   0  0  0  0  0  2  0  0  0  0  0  0
  -24.0940   -1.1380  -34.5100 C   0  0  0  0  0  2  0  0  0  0  0  0
  -24.0740    0.3650  -34.2540 C   0  0  0  0  0  2  0  0  0  0  0  0
  -19.1550    1.6820  -36.9160 C   0  0  0  0  0  0  0  0  0  0  0  0
  -18.9000    2.9690  -37.3860 N   0  0  0  0  0  0  0  0  0  0  0  0
  -19.1630    3.0000  -38.6320 O   0  0  0  0  0  0  0  0  0  0  0  0
  -19.5640    1.8700  -39.0600 N   0  0  0  0  0  0  0  0  0  0  0  0
  -19.5700    1.0190  -37.9960 C   0  0  0  0  0  0  0  0  0  0  0  0
  -19.9990   -0.3390  -38.1570 N   0  0  0  0  0  0  0  0  0  0  0  0
  -19.7600   -0.8040  -39.0440 H   0  0  0  0  0  0  0  0  0  0  0  0
  -20.5680   -0.7940  -37.4470 H   0  0  0  0  0  0  0  0  0  0  0  0
  1  6  1  0  0  0  0
  2  1  1  0  0  0  0
  3  2  2  0  0  0  0
  4  3  1  0  0  0  0
  4  5  1  0  0  0  0
  5 19  1  0  0  0  0
  5  1  2  0  0  0  0
  6  9  2  0  0  0  0
  6  7  1  0  0  0  0
  7 10  1  0  0  0  0
  8  7  1  0  0  0  0
 10 11  1  0  0  0  0
 11 12  1  0  0  0  0
 12 18  2  0  0  0  0
 12 13  1  0  0  0  0
 13 15  2  0  0  0  0
 14 13  1  0  0  0  0
 15 16  1  0  0  0  0
 17 16  2  0  0  0  0
 18 17  1  0  0  0  0
 20 21  1  0  0  0  0
 20 19  1  0  0  0  0
 21 23  1  0  0  0  0
 22 20  1  0  0  0  0
 22 24  1  0  0  0  0
 23 24  1  0  0  0  0
 25  4  1  0  0  0  0
 26 25  2  0  0  0  0
 27 26  1  0  0  0  0
 28 27  1  0  0  0  0
 28 29  2  0  0  0  0
 29 25  1  0  0  0  0
 30 29  1  0  0  0  0
 30 32  1  0  0  0  0
 31 30  1  0  0  0  0
M  END
>  <Pose>
1

>  <Score>
-8.853

$$$$
