/Users/jonathanwahrer/Desktop/Msc/3_Semester/Drug_Design_Praktikum/waehrer_HTS_screening/HTS_experiment/out/docking_results/vina_output/5l4q/1343_docked.pdbqt
 OpenBabel03212218433D

 41 44  0  0  1  0  0  0  0  0999 V2000
  -21.8620    0.5190  -35.4150 C   0  0  0  0  0  0  0  0  0  0  0  0
  -21.0300    0.6890  -36.4740 N   0  0  0  0  0  0  0  0  0  0  0  0
  -21.4730   -0.0780  -37.5030 C   0  0  0  0  0  0  0  0  0  0  0  0
  -21.0510   -0.2940  -38.7540 N   0  0  0  0  0  0  0  0  0  0  0  0
  -21.6930   -1.1270  -39.5930 C   0  0  0  0  0  0  0  0  0  0  0  0
  -22.8000   -1.7670  -39.1570 N   0  0  0  0  0  0  0  0  0  0  0  0
  -23.2770   -1.6020  -37.9280 C   0  0  0  0  0  0  0  0  0  0  0  0
  -22.6140   -0.7440  -37.0730 C   0  0  0  0  0  0  0  0  0  0  0  0
  -22.8050   -0.3570  -35.8230 N   0  0  0  0  0  0  0  0  0  0  0  0
  -21.7450    1.1460  -34.1440 N   0  0  0  0  0  0  0  0  0  0  0  0
  -21.7920    2.1750  -34.0800 H   0  0  0  0  0  0  0  0  0  0  0  0
  -21.5690    0.3140  -33.0210 N   0  0  0  0  0  0  0  0  0  0  0  0
  -20.7570   -0.6600  -32.9870 C   0  0  0  0  0  3  0  0  0  0  0  0
  -20.5540   -1.5380  -31.8400 C   0  0  0  0  0  0  0  0  0  0  0  0
  -21.0740   -2.8150  -31.8210 C   0  0  0  0  0  0  0  0  0  0  0  0
  -22.0680   -3.4150  -33.3260 Br  0  0  0  0  0  0  0  0  0  0  0  0
  -20.8830   -3.6610  -30.7260 C   0  0  0  0  0  3  0  0  0  0  0  0
  -20.1670   -3.2500  -29.6220 C   0  0  0  0  0  0  0  0  0  0  0  0
  -19.6470   -1.9730  -29.6410 C   0  0  0  0  0  0  0  0  0  0  0  0
  -19.8410   -1.1460  -30.7270 C   0  0  0  0  0  3  0  0  0  0  0  0
  -19.9670   -4.0820  -28.5200 O   0  0  0  0  0  0  0  0  0  0  0  0
  -20.3130   -5.4340  -28.5060 C   0  0  0  0  0  1  0  0  0  0  0  0
  -18.9250   -1.5690  -28.5220 O   0  0  0  0  0  0  0  0  0  0  0  0
  -19.3820   -0.6600  -27.5710 C   0  0  0  0  0  1  0  0  0  0  0  0
  -19.8780    1.5370  -36.4970 C   0  0  2  0  0  3  0  0  0  0  0  0
  -19.1100    1.4780  -35.3430 O   0  0  0  0  0  0  0  0  0  0  0  0
  -18.3750    2.6250  -35.2500 C   0  0  1  0  0  3  0  0  0  0  0  0
  -18.8790    3.6300  -36.2280 C   0  0  2  0  0  3  0  0  0  0  0  0
  -20.2040    3.0060  -36.6710 C   0  0  1  0  0  3  0  0  0  0  0  0
  -18.5670    3.2040  -33.8470 C   0  0  0  0  0  2  0  0  0  0  0  0
  -18.9930    2.2000  -32.9700 O   0  0  0  0  0  0  0  0  0  0  0  0
  -18.2260    1.6810  -32.6150 H   0  0  0  0  0  0  0  0  0  0  0  0
  -18.0690    3.6380  -37.3820 O   0  0  0  0  0  0  0  0  0  0  0  0
  -17.5200    4.4490  -37.4310 H   0  0  0  0  0  0  0  0  0  0  0  0
  -20.4770    3.3250  -38.0000 O   0  0  0  0  0  0  0  0  0  0  0  0
  -20.7320    2.5070  -38.4990 H   0  0  0  0  0  0  0  0  0  0  0  0
  -24.4200   -2.2490  -37.4490 O   0  0  0  0  0  0  0  0  0  0  0  0
  -24.4490   -3.2540  -37.5760 H   0  0  0  0  0  0  0  0  0  0  0  0
  -21.2270   -1.3470  -40.9320 N   0  0  0  0  0  0  0  0  0  0  0  0
  -20.2730   -1.6380  -41.1730 H   0  0  0  0  0  0  0  0  0  0  0  0
  -21.9210   -1.1950  -41.6940 H   0  0  0  0  0  0  0  0  0  0  0  0
  1 10  1  0  0  0  0
  2  1  1  0  0  0  0
  3  8  2  0  0  0  0
  3  2  1  0  0  0  0
  4  3  1  0  0  0  0
  5  6  1  0  0  0  0
  5  4  2  0  0  0  0
  6  7  2  0  0  0  0
  7 37  1  0  0  0  0
  7  8  1  0  0  0  0
  8  9  1  0  0  0  0
  9  1  2  0  0  0  0
 10 11  1  0  0  0  0
 10 12  1  0  0  0  0
 12 13  2  0  0  0  0
 13 14  1  0  0  0  0
 14 15  2  0  0  0  0
 14 20  1  0  0  0  0
 15 17  1  0  0  0  0
 16 15  1  0  0  0  0
 17 18  2  0  0  0  0
 18 21  1  0  0  0  0
 19 18  1  0  0  0  0
 19 23  1  0  0  0  0
 20 19  2  0  0  0  0
 21 22  1  0  0  0  0
 23 24  1  0  0  0  0
 25  2  1  1  0  0  0
 25 26  1  0  0  0  0
 26 27  1  0  0  0  0
 27 30  1  1  0  0  0
 28 33  1  6  0  0  0
 28 27  1  0  0  0  0
 29 35  1  6  0  0  0
 29 25  1  0  0  0  0
 29 28  1  0  0  0  0
 30 31  1  0  0  0  0
 31 32  1  0  0  0  0
 34 33  1  0  0  0  0
 36 35  1  0  0  0  0
 38 37  1  0  0  0  0
 39  5  1  0  0  0  0
 40 39  1  0  0  0  0
 41 39  1  0  0  0  0
M  END
>  <Pose>
1

>  <Score>
-8.068

$$$$
