/Users/jonathanwahrer/Desktop/Msc/3_Semester/Drug_Design_Praktikum/waehrer_HTS_screening/HTS_experiment/out/docking_results/vina_output/5l4q/1357_docked.pdbqt
 OpenBabel03212218433D

 24 27  0  0  1  0  0  0  0  0999 V2000
  -20.6980    0.4970  -34.2430 C   0  0  1  0  0  3  0  0  0  0  0  0
  -21.0740    0.7800  -35.5570 C   0  0  1  0  0  0  0  0  0  0  0  0
  -22.3320    1.0590  -36.3030 C   0  0  0  0  0  0  0  0  0  0  0  0
  -22.1900    2.5340  -36.2160 N   0  0  0  0  0  2  0  0  0  0  0  0
  -21.7440    2.8190  -35.0330 C   0  0  2  0  0  3  0  0  0  0  0  0
  -21.5940    1.5860  -34.3270 C   0  0  2  0  0  0  0  0  0  0  0  0
  -22.9350    1.2150  -33.7830 C   0  0  0  0  0  0  0  0  0  0  0  0
  -23.9860    0.9180  -33.3270 N   0  0  0  0  0  0  0  0  0  0  0  0
  -22.1460    0.6610  -37.6320 O   0  0  0  0  0  0  0  0  0  0  0  0
  -23.2240   -0.1350  -37.9700 C   0  0  0  0  0  2  0  0  0  0  0  0
  -24.2960    0.3470  -37.0080 C   0  0  0  0  0  2  0  0  0  0  0  0
  -23.4910    0.5620  -35.8620 O   0  0  0  0  0  0  0  0  0  0  0  0
  -19.9730    1.4540  -36.3340 C   0  0  0  0  0  0  0  0  0  0  0  0
  -19.0990    1.9840  -36.9250 N   0  0  0  0  0  0  0  0  0  0  0  0
  -21.0970   -0.8250  -33.6940 C   0  0  0  0  0  0  0  0  0  0  0  0
  -20.7840   -1.2080  -32.4140 C   0  0  0  0  0  0  0  0  0  0  0  0
  -19.8210   -0.0630  -31.2290 Br  0  0  0  0  0  0  0  0  0  0  0  0
  -21.1880   -2.4630  -31.9790 C   0  0  0  0  0  3  0  0  0  0  0  0
  -21.9010   -3.3340  -32.8100 C   0  0  0  0  0  3  0  0  0  0  0  0
  -22.2040   -2.9300  -34.0880 C   0  0  0  0  0  3  0  0  0  0  0  0
  -21.7980   -1.6730  -34.5170 C   0  0  0  0  0  3  0  0  0  0  0  0
  -21.4580    4.1470  -34.5380 N   0  0  0  0  0  0  0  0  0  0  0  0
  -22.2220    4.8160  -34.3260 H   0  0  0  0  0  0  0  0  0  0  0  0
  -20.4800    4.4550  -34.3840 H   0  0  0  0  0  0  0  0  0  0  0  0
  1 15  1  1  0  0  0
  2 13  1  6  0  0  0
  2  6  1  0  0  0  0
  2  1  1  0  0  0  0
  3  4  1  0  0  0  0
  3 12  1  0  0  0  0
  3  2  1  0  0  0  0
  4  5  1  0  0  0  0
  5 22  1  1  0  0  0
  5  6  1  0  0  0  0
  6  1  1  0  0  0  0
  6  7  1  1  0  0  0
  7  8  3  0  0  0  0
  9  3  1  0  0  0  0
 10  9  1  0  0  0  0
 10 11  1  0  0  0  0
 11 12  1  0  0  0  0
 14 13  3  0  0  0  0
 15 16  1  0  0  0  0
 16 18  2  0  0  0  0
 16 17  1  0  0  0  0
 19 18  1  0  0  0  0
 20 19  2  0  0  0  0
 21 20  1  0  0  0  0
 21 15  2  0  0  0  0
 22 24  1  0  0  0  0
 22 23  1  0  0  0  0
M  END
>  <Pose>
1

>  <Score>
-6.857

$$$$
