/Users/jonathanwahrer/Desktop/Msc/3_Semester/Drug_Design_Praktikum/waehrer_HTS_screening/HTS_experiment/out/docking_results/vina_output/5l4q/1372_docked.pdbqt
 OpenBabel03212218443D

 31 34  0  0  1  0  0  0  0  0999 V2000
  -21.8450   -0.1620  -34.1480 C   0  0  0  0  0  0  0  0  0  0  0  0
  -21.5460    0.8520  -33.4840 O   0  0  0  0  0  0  0  0  0  0  0  0
  -23.0060   -0.1730  -34.9290 N   0  0  0  0  0  0  0  0  0  0  0  0
  -23.8130    0.8990  -35.4060 C   0  0  0  0  0  2  0  0  0  0  0  0
  -24.3800    0.3830  -36.7370 C   0  0  0  0  0  2  0  0  0  0  0  0
  -23.4450   -0.5900  -37.4120 C   0  0  1  0  0  0  0  0  0  0  0  0
  -23.9930   -1.0690  -38.6510 N   0  0  0  0  0  0  0  0  0  0  0  0
  -23.0660   -2.0750  -39.1880 C   0  0  0  0  0  2  0  0  0  0  0  0
  -21.7620   -1.4660  -39.5990 C   0  0  0  0  0  2  0  0  0  0  0  0
  -21.3720   -0.3180  -38.7500 C   0  0  0  0  0  0  0  0  0  0  0  0
  -20.2890    0.4640  -38.7950 N   0  0  0  0  0  0  0  0  0  0  0  0
  -20.3790    1.3780  -37.8090 C   0  0  0  0  0  3  0  0  0  0  0  0
  -21.5270    1.1490  -37.1570 N   0  0  0  0  0  0  0  0  0  0  0  0
  -22.1870    0.1120  -37.6940 C   0  0  0  0  0  0  0  0  0  0  0  0
  -23.2160   -1.8600  -36.5770 C   0  0  0  0  0  2  0  0  0  0  0  0
  -23.6480   -1.4980  -35.2210 C   0  0  0  0  0  2  0  0  0  0  0  0
  -24.8850   -1.5850  -38.4580 H   0  0  0  0  0  0  0  0  0  0  0  0
  -19.4730    0.4420  -39.4450 H   0  0  0  0  0  0  0  0  0  0  0  0
  -20.9190   -1.3340  -34.0830 C   0  0  1  0  0  3  0  0  0  0  0  0
  -19.5640   -0.8530  -34.6640 C   0  0  0  0  0  1  0  0  0  0  0  0
  -20.5820   -1.7380  -32.7400 N   0  0  0  0  0  0  0  0  0  0  0  0
  -21.1140   -2.9890  -32.2260 C   0  0  0  0  0  0  0  0  0  0  0  0
  -21.8090   -3.7350  -32.9260 O   0  0  0  0  0  0  0  0  0  0  0  0
  -19.9750   -1.1600  -32.1610 H   0  0  0  0  0  0  0  0  0  0  0  0
  -20.7840   -3.2990  -30.8240 C   0  0  0  0  0  0  0  0  0  0  0  0
  -20.4150   -2.2320  -29.9880 C   0  0  0  0  0  3  0  0  0  0  0  0
  -20.0720   -2.3980  -28.6690 C   0  0  0  0  0  0  0  0  0  0  0  0
  -19.5880   -0.8670  -27.5970 Br  0  0  0  0  0  0  0  0  0  0  0  0
  -20.0880   -3.6670  -28.1420 C   0  0  0  0  0  3  0  0  0  0  0  0
  -20.4460   -4.7310  -28.9530 C   0  0  0  0  0  3  0  0  0  0  0  0
  -20.7910   -4.5510  -30.2880 C   0  0  0  0  0  3  0  0  0  0  0  0
  1 19  1  0  0  0  0
  1  2  2  0  0  0  0
  3  1  1  0  0  0  0
  4  3  1  0  0  0  0
  5  4  1  0  0  0  0
  6  5  1  1  0  0  0
  6 15  1  0  0  0  0
  7 17  1  0  0  0  0
  7  6  1  0  0  0  0
  8  7  1  0  0  0  0
  9  8  1  0  0  0  0
  9 10  1  0  0  0  0
 10 14  2  0  0  0  0
 11 10  1  0  0  0  0
 11 12  1  0  0  0  0
 12 13  2  0  0  0  0
 14  6  1  0  0  0  0
 14 13  1  0  0  0  0
 15 16  1  0  0  0  0
 16  3  1  0  0  0  0
 18 11  1  0  0  0  0
 19 20  1  6  0  0  0
 19 21  1  0  0  0  0
 21 22  1  0  0  0  0
 21 24  1  0  0  0  0
 22 25  1  0  0  0  0
 23 22  2  0  0  0  0
 25 31  2  0  0  0  0
 25 26  1  0  0  0  0
 26 27  2  0  0  0  0
 27 29  1  0  0  0  0
 27 28  1  0  0  0  0
 30 29  2  0  0  0  0
 31 30  1  0  0  0  0
M  END
>  <Pose>
1

>  <Score>
-8.787

$$$$
