/Users/jonathanwahrer/Desktop/Msc/3_Semester/Drug_Design_Praktikum/waehrer_HTS_screening/HTS_experiment/out/docking_results/vina_output/5l4q/1428_docked.pdbqt
 OpenBabel03212218463D

 37 40  0  0  1  0  0  0  0  0999 V2000
  -22.2100   -3.8810  -33.6320 Cl  0  0  0  0  0  0  0  0  0  0  0  0
  -22.4140   -2.1620  -33.9520 C   0  0  0  0  0  0  0  0  0  0  0  0
  -21.3500   -1.3020  -34.0080 C   0  0  0  0  0  3  0  0  0  0  0  0
  -21.5650    0.0340  -34.2610 C   0  0  0  0  0  0  0  0  0  0  0  0
  -22.8540    0.4600  -34.4500 C   0  0  0  0  0  0  0  0  0  0  0  0
  -23.9380   -0.4210  -34.3920 C   0  0  0  0  0  3  0  0  0  0  0  0
  -23.7130   -1.7420  -34.1400 C   0  0  0  0  0  3  0  0  0  0  0  0
  -22.9290    1.8560  -34.7160 N   0  0  0  0  0  0  0  0  0  0  0  0
  -21.6110    2.3280  -34.6920 C   0  0  0  0  0  0  0  0  0  0  0  0
  -21.3310    3.5520  -34.9110 O   0  0  0  0  0  0  0  0  0  0  0  0
  -20.6900    1.2240  -34.3890 C   0  0  2  0  0  0  0  0  0  0  0  0
  -19.7680    1.1060  -35.4840 N   0  0  0  0  0  0  0  0  0  0  0  0
  -18.4660    1.4910  -35.0380 C   0  0  2  0  0  3  0  0  0  0  0  0
  -18.6280    2.1600  -33.7110 C   0  0  0  0  0  2  0  0  0  0  0  0
  -19.8980    1.5410  -33.1960 C   0  0  2  0  0  3  0  0  0  0  0  0
  -23.7980    2.4250  -34.8960 H   0  0  0  0  0  0  0  0  0  0  0  0
  -19.8090    0.1570  -35.9110 H   0  0  0  0  0  0  0  0  0  0  0  0
  -19.6490    0.4220  -32.2510 C   0  0  0  0  0  0  0  0  0  0  0  0
  -18.5960   -0.2340  -32.4390 O   0  0  0  0  0  0  0  0  0  0  0  0
  -20.5110    0.0840  -31.2010 N   0  0  0  0  0  0  0  0  0  0  0  0
  -21.3710    0.7100  -31.1210 H   0  0  0  0  0  0  0  0  0  0  0  0
  -20.3880   -0.9400  -30.2600 C   0  0  0  0  0  0  0  0  0  0  0  0
  -20.0500   -0.6210  -28.9530 C   0  0  0  0  0  0  0  0  0  0  0  0
  -19.9120   -1.5810  -27.9710 C   0  0  0  0  0  3  0  0  0  0  0  0
  -20.1060   -2.9120  -28.2460 C   0  0  0  0  0  3  0  0  0  0  0  0
  -20.4400   -3.2550  -29.5240 C   0  0  0  0  0  0  0  0  0  0  0  0
  -20.5760   -2.2760  -30.5060 C   0  0  0  0  0  3  0  0  0  0  0  0
  -19.8380    0.6990  -28.5970 O   0  0  0  0  0  0  0  0  0  0  0  0
  -18.9050    1.1140  -27.6460 C   0  0  0  0  0  1  0  0  0  0  0  0
  -20.6440   -4.5860  -29.8430 O   0  0  0  0  0  0  0  0  0  0  0  0
  -20.0930   -5.6480  -29.0860 C   0  0  0  0  0  1  0  0  0  0  0  0
  -17.7660    2.3870  -36.0470 C   0  0  0  0  0  2  0  0  0  0  0  0
  -18.7170    3.0340  -36.9620 C   0  0  0  0  0  0  0  0  0  0  0  0
  -19.1650    2.4160  -37.9410 O   0  0  0  0  0  0  0  0  0  0  0  0
  -19.1210    4.3610  -36.7260 N   0  0  0  0  0  0  0  0  0  0  0  0
  -20.1380    4.5810  -36.7680 H   0  0  0  0  0  0  0  0  0  0  0  0
  -18.4660    5.1510  -36.5080 H   0  0  0  0  0  0  0  0  0  0  0  0
  2  1  1  0  0  0  0
  3  2  1  0  0  0  0
  4  3  2  0  0  0  0
  5  6  2  0  0  0  0
  5  4  1  0  0  0  0
  6  7  1  0  0  0  0
  7  2  2  0  0  0  0
  8  9  1  0  0  0  0
  8  5  1  0  0  0  0
 10  9  2  0  0  0  0
 11  9  1  6  0  0  0
 11  4  1  0  0  0  0
 11 15  1  0  0  0  0
 12 13  1  0  0  0  0
 12 11  1  0  0  0  0
 13 32  1  6  0  0  0
 13 14  1  0  0  0  0
 14 15  1  0  0  0  0
 15 18  1  6  0  0  0
 16  8  1  0  0  0  0
 17 12  1  0  0  0  0
 18 20  1  0  0  0  0
 19 18  2  0  0  0  0
 20 21  1  0  0  0  0
 20 22  1  0  0  0  0
 22 23  1  0  0  0  0
 23 28  1  0  0  0  0
 23 24  2  0  0  0  0
 25 24  1  0  0  0  0
 26 25  2  0  0  0  0
 27 22  2  0  0  0  0
 27 26  1  0  0  0  0
 28 29  1  0  0  0  0
 30 26  1  0  0  0  0
 30 31  1  0  0  0  0
 33 35  1  0  0  0  0
 33 32  1  0  0  0  0
 34 33  2  0  0  0  0
 35 37  1  0  0  0  0
 36 35  1  0  0  0  0
M  END
>  <Pose>
1

>  <Score>
-8.300

$$$$
