/Users/jonathanwahrer/Desktop/Msc/3_Semester/Drug_Design_Praktikum/waehrer_HTS_screening/HTS_experiment/out/docking_results/vina_output/5l4q/1432_docked.pdbqt
 OpenBabel03212218463D

 21 24  0  0  0  0  0  0  0  0999 V2000
  -22.2250   -1.4120  -34.4290 C   0  0  0  0  0  0  0  0  0  0  0  0
  -22.5840   -2.7060  -34.4140 N   0  0  0  0  0  0  0  0  0  0  0  0
  -22.0910   -3.3200  -33.3240 N   0  0  0  0  0  0  0  0  0  0  0  0
  -21.4040   -2.3960  -32.6300 C   0  0  0  0  0  0  0  0  0  0  0  0
  -21.4900   -1.2370  -33.3100 N   0  0  0  0  0  0  0  0  0  0  0  0
  -20.7980   -2.7950  -31.4540 C   0  0  0  0  0  0  0  0  0  0  0  0
  -20.8820   -4.0930  -30.9870 C   0  0  0  0  0  0  0  0  0  0  0  0
  -20.2050   -4.2160  -29.8250 N   0  0  0  0  0  0  0  0  0  0  0  0
  -19.7080   -3.0210  -29.5680 N   0  0  0  0  0  0  0  0  0  0  0  0
  -20.0380   -2.1300  -30.5210 C   0  0  0  0  0  3  0  0  0  0  0  0
  -20.0700   -5.4390  -29.0360 C   0  0  0  0  0  1  0  0  0  0  0  0
  -21.5850   -4.9630  -31.7320 N   0  0  0  0  0  0  0  0  0  0  0  0
  -22.1780   -4.5860  -32.8770 C   0  0  0  0  0  3  0  0  0  0  0  0
  -22.5480   -0.3700  -35.4420 C   0  0  0  0  0  2  0  0  0  0  0  0
  -22.7480   -0.9460  -36.7620 N   0  0  0  0  0  0  0  0  0  0  0  0
  -22.2750   -0.4700  -37.9310 C   0  0  0  0  0  3  0  0  0  0  0  0
  -22.6950   -1.3190  -38.9530 C   0  0  0  0  0  0  0  0  0  0  0  0
  -22.3460   -1.1750  -40.8210 Br  0  0  0  0  0  0  0  0  0  0  0  0
  -23.4320   -2.3120  -38.3430 C   0  0  0  0  0  0  0  0  0  0  0  0
  -23.4430   -2.0540  -37.0200 N   0  0  0  0  0  0  0  0  0  0  0  0
  -24.0690   -3.4300  -39.0780 C   0  0  0  0  0  1  0  0  0  0  0  0
  1  2  2  0  0  0  0
  1  5  1  0  0  0  0
  2  3  1  0  0  0  0
  3 13  1  0  0  0  0
  3  4  1  0  0  0  0
  4  6  1  0  0  0  0
  5  4  2  0  0  0  0
  6  7  2  0  0  0  0
  6 10  1  0  0  0  0
  7  8  1  0  0  0  0
  8  9  1  0  0  0  0
  8 11  1  0  0  0  0
 10  9  2  0  0  0  0
 12  7  1  0  0  0  0
 13 12  2  0  0  0  0
 14  1  1  0  0  0  0
 15 14  1  0  0  0  0
 16 15  1  0  0  0  0
 17 19  1  0  0  0  0
 17 16  2  0  0  0  0
 18 17  1  0  0  0  0
 19 20  2  0  0  0  0
 20 15  1  0  0  0  0
 21 19  1  0  0  0  0
M  END
>  <Pose>
1

>  <Score>
-8.170

$$$$
