/Users/jonathanwahrer/Desktop/Msc/3_Semester/Drug_Design_Praktikum/waehrer_HTS_screening/HTS_experiment/out/docking_results/vina_output/5l4q/1434_docked.pdbqt
 OpenBabel03212218463D

 28 31  0  0  1  0  0  0  0  0999 V2000
  -22.1730   -1.2290  -34.5920 C   0  0  0  0  0  0  0  0  0  0  0  0
  -23.2920   -1.6990  -34.0520 O   0  0  0  0  0  0  0  0  0  0  0  0
  -22.3690   -0.2580  -35.5610 N   0  0  0  0  0  0  0  0  0  0  0  0
  -21.3880    0.4330  -36.3210 C   0  0  0  0  0  2  0  0  0  0  0  0
  -21.4170   -0.0520  -37.7700 C   0  0  0  0  0  2  0  0  0  0  0  0
  -22.8380   -0.4350  -38.1500 C   0  0  1  0  0  0  0  0  0  0  0  0
  -22.9770   -0.0790  -39.5520 N   0  0  0  0  0  0  0  0  0  0  0  0
  -22.5620   -1.2350  -40.3080 C   0  0  0  0  0  0  0  0  0  0  0  0
  -22.2310   -1.2450  -41.5200 O   0  0  0  0  0  0  0  0  0  0  0  0
  -22.6000   -2.3630  -39.4140 N   0  0  0  0  0  0  0  0  0  0  0  0
  -23.0300   -1.9000  -38.1390 C   0  0  0  0  0  0  0  0  0  0  0  0
  -23.4750   -2.6250  -37.2190 O   0  0  0  0  0  0  0  0  0  0  0  0
  -23.8680    0.3150  -37.3660 C   0  0  0  0  0  2  0  0  0  0  0  0
  -23.7610    0.1370  -35.8870 C   0  0  0  0  0  2  0  0  0  0  0  0
  -23.3090    0.8260  -39.9470 H   0  0  0  0  0  0  0  0  0  0  0  0
  -22.3570   -3.3330  -39.6600 H   0  0  0  0  0  0  0  0  0  0  0  0
  -20.9970   -1.8600  -34.0260 C   0  0  0  0  0  2  0  0  0  0  0  0
  -20.7140   -1.7210  -32.6410 N   0  0  0  0  0  0  0  0  0  0  0  0
  -20.7590   -2.7640  -31.7600 C   0  0  0  0  0  0  0  0  0  0  0  0
  -20.4160   -2.3120  -30.5120 C   0  0  0  0  0  0  0  0  0  0  0  0
  -21.0780   -4.1110  -31.9360 C   0  0  0  0  0  3  0  0  0  0  0  0
  -20.1570   -0.9700  -30.6330 C   0  0  0  0  0  0  0  0  0  0  0  0
  -20.3900   -3.1940  -29.4420 C   0  0  0  0  0  3  0  0  0  0  0  0
  -19.6330    0.1290  -29.1590 Br  0  0  0  0  0  0  0  0  0  0  0  0
  -20.3430   -0.6220  -31.9420 C   0  0  0  0  0  0  0  0  0  0  0  0
  -20.1690    0.7320  -32.5160 C   0  0  0  0  0  1  0  0  0  0  0  0
  -20.7070   -4.5200  -29.6250 C   0  0  0  0  0  3  0  0  0  0  0  0
  -21.0520   -4.9900  -30.8620 C   0  0  0  0  0  3  0  0  0  0  0  0
  1  2  2  0  0  0  0
  1 17  1  0  0  0  0
  3  1  1  0  0  0  0
  4  3  1  0  0  0  0
  5  4  1  0  0  0  0
  6 11  1  0  0  0  0
  6  5  1  1  0  0  0
  6 13  1  0  0  0  0
  7  6  1  0  0  0  0
  8  7  1  0  0  0  0
  8 10  1  0  0  0  0
  9  8  2  0  0  0  0
 10 11  1  0  0  0  0
 11 12  2  0  0  0  0
 13 14  1  0  0  0  0
 14  3  1  0  0  0  0
 15  7  1  0  0  0  0
 16 10  1  0  0  0  0
 17 18  1  0  0  0  0
 18 25  1  0  0  0  0
 18 19  1  0  0  0  0
 19 20  1  0  0  0  0
 20 23  2  0  0  0  0
 21 19  2  0  0  0  0
 21 28  1  0  0  0  0
 22 20  1  0  0  0  0
 22 24  1  0  0  0  0
 25 22  2  0  0  0  0
 26 25  1  0  0  0  0
 27 23  1  0  0  0  0
 28 27  2  0  0  0  0
M  END
>  <Pose>
1

>  <Score>
-9.424

$$$$
