/Users/jonathanwahrer/Desktop/Msc/3_Semester/Drug_Design_Praktikum/waehrer_HTS_screening/HTS_experiment/out/docking_results/vina_output/5l4q/1435_docked.pdbqt
 OpenBabel03212218463D

 32 35  0  0  0  0  0  0  0  0999 V2000
  -21.1850    0.1050  -34.4480 C   0  0  0  0  0  2  0  0  0  0  0  0
  -22.4640    0.4930  -35.1780 C   0  0  0  0  0  2  0  0  0  0  0  0
  -22.2920    0.4300  -36.6100 N   0  0  0  0  0  0  0  0  0  0  0  0
  -21.7790    1.3650  -37.4470 C   0  0  0  0  0  0  0  0  0  0  0  0
  -21.1410    3.0630  -36.8520 Br  0  0  0  0  0  0  0  0  0  0  0  0
  -21.7940    0.9180  -38.7160 N   0  0  0  0  0  0  0  0  0  0  0  0
  -22.3220   -0.3290  -38.7280 C   0  0  0  0  0  0  0  0  0  0  0  0
  -22.6230   -0.6070  -37.4110 C   0  0  0  0  0  0  0  0  0  0  0  0
  -22.5560   -1.2060  -39.7300 N   0  0  0  0  0  0  0  0  0  0  0  0
  -23.1850   -1.8390  -37.1210 C   0  0  0  0  0  0  0  0  0  0  0  0
  -23.4140   -2.7030  -38.1210 N   0  0  0  0  0  0  0  0  0  0  0  0
  -23.4520   -2.0770  -35.9220 O   0  0  0  0  0  0  0  0  0  0  0  0
  -23.1040   -2.3920  -39.4100 C   0  0  0  0  0  0  0  0  0  0  0  0
  -23.8390   -3.6360  -37.9110 H   0  0  0  0  0  0  0  0  0  0  0  0
  -23.3510   -3.2600  -40.2890 O   0  0  0  0  0  0  0  0  0  0  0  0
  -22.2340   -0.8960  -41.1100 C   0  0  0  0  0  1  0  0  0  0  0  0
  -21.4710   -0.8760  -33.3420 C   0  0  0  0  0  2  0  0  0  0  0  0
  -20.3970   -1.8980  -33.1160 C   0  0  0  0  0  2  0  0  0  0  0  0
  -20.3970   -2.3300  -31.7580 N   0  0  0  0  0  0  0  0  0  0  0  0
  -19.7940   -1.8260  -30.6830 C   0  0  0  0  0  0  0  0  0  0  0  0
  -20.1390   -2.5920  -29.5760 C   0  0  0  0  0  0  0  0  0  0  0  0
  -18.9470   -0.7690  -30.4720 C   0  0  0  0  0  0  0  0  0  0  0  0
  -20.9470   -3.5440  -30.0330 N   0  0  0  0  0  0  0  0  0  0  0  0
  -19.6590   -2.2980  -28.3640 N   0  0  0  0  0  0  0  0  0  0  0  0
  -21.1160   -3.4060  -31.3490 C   0  0  0  0  0  0  0  0  0  0  0  0
  -22.1990   -4.5560  -32.4160 Br  0  0  0  0  0  0  0  0  0  0  0  0
  -18.8290   -1.2530  -28.1820 C   0  0  0  0  0  0  0  0  0  0  0  0
  -20.0060   -3.0850  -27.1850 C   0  0  0  0  0  1  0  0  0  0  0  0
  -18.3830   -0.9830  -27.0390 O   0  0  0  0  0  0  0  0  0  0  0  0
  -18.4880   -0.5090  -29.2390 N   0  0  0  0  0  0  0  0  0  0  0  0
  -17.8370    0.3220  -29.1400 H   0  0  0  0  0  0  0  0  0  0  0  0
  -18.6160   -0.0650  -31.4460 O   0  0  0  0  0  0  0  0  0  0  0  0
  1 17  1  0  0  0  0
  2  1  1  0  0  0  0
  3  2  1  0  0  0  0
  4  5  1  0  0  0  0
  4  3  1  0  0  0  0
  6  4  2  0  0  0  0
  7  6  1  0  0  0  0
  7  8  2  0  0  0  0
  8 10  1  0  0  0  0
  8  3  1  0  0  0  0
  9 13  1  0  0  0  0
  9  7  1  0  0  0  0
 10 12  2  0  0  0  0
 11 14  1  0  0  0  0
 11 10  1  0  0  0  0
 13 11  1  0  0  0  0
 15 13  2  0  0  0  0
 16  9  1  0  0  0  0
 17 18  1  0  0  0  0
 18 19  1  0  0  0  0
 19 25  1  0  0  0  0
 19 20  1  0  0  0  0
 20 22  1  0  0  0  0
 20 21  2  0  0  0  0
 21 24  1  0  0  0  0
 22 30  1  0  0  0  0
 23 21  1  0  0  0  0
 24 27  1  0  0  0  0
 24 28  1  0  0  0  0
 25 23  2  0  0  0  0
 26 25  1  0  0  0  0
 27 29  2  0  0  0  0
 30 31  1  0  0  0  0
 30 27  1  0  0  0  0
 32 22  2  0  0  0  0
M  END
>  <Pose>
1

>  <Score>
-9.345

$$$$
