/Users/jonathanwahrer/Desktop/Msc/3_Semester/Drug_Design_Praktikum/waehrer_HTS_screening/HTS_experiment/out/docking_results/vina_output/5l4q/1444_docked.pdbqt
 OpenBabel03212218473D

 33 36  0  0  0  0  0  0  0  0999 V2000
  -21.3590   -1.1110  -34.1770 N   0  0  0  0  0  0  0  0  0  0  0  0
  -22.3950   -1.0460  -35.0530 C   0  0  0  0  0  0  0  0  0  0  0  0
  -22.9550   -2.2990  -35.1300 O   0  0  0  0  0  0  0  0  0  0  0  0
  -21.2410   -2.1410  -33.7420 H   0  0  0  0  0  0  0  0  0  0  0  0
  -23.1130   -0.1290  -35.9230 C   0  0  0  0  0  2  0  0  0  0  0  0
  -22.6500    0.4030  -37.1320 N   0  0  0  0  0  0  0  0  0  0  0  0
  -22.7470    1.8490  -37.4660 C   0  0  0  0  0  2  0  0  0  0  0  0
  -22.4760    1.9140  -38.9550 C   0  0  0  0  0  2  0  0  0  0  0  0
  -21.0610    1.4630  -39.2070 C   0  0  0  0  0  2  0  0  0  0  0  0
  -20.9470   -0.0180  -38.9140 C   0  0  0  0  0  2  0  0  0  0  0  0
  -22.1400   -0.4770  -38.1430 C   0  0  0  0  0  0  0  0  0  0  0  0
  -22.7510   -1.6180  -38.4680 C   0  0  0  0  0  0  0  0  0  0  0  0
  -22.2160   -2.4930  -39.4760 N   0  0  0  0  0  0  0  0  0  0  0  0
  -23.9480   -2.1960  -38.0560 N   0  0  0  0  0  0  0  0  0  0  0  0
  -23.0890   -3.5800  -39.6590 N   0  0  0  0  0  0  0  0  0  0  0  0
  -21.3460   -2.4410  -40.0390 H   0  0  0  0  0  0  0  0  0  0  0  0
  -24.1800   -3.4180  -38.7810 C   0  0  0  0  0  0  0  0  0  0  0  0
  -22.9820   -4.3890  -40.3210 H   0  0  0  0  0  0  0  0  0  0  0  0
  -25.1830   -4.1480  -38.6120 O   0  0  0  0  0  0  0  0  0  0  0  0
  -24.6000   -1.8090  -37.3540 H   0  0  0  0  0  0  0  0  0  0  0  0
  -20.3320   -0.2940  -33.7210 C   0  0  0  0  0  0  0  0  0  0  0  0
  -20.1530    0.1600  -32.4440 N   0  0  0  0  0  0  0  0  0  0  0  0
  -19.0270    0.8600  -32.3990 N   0  0  0  0  0  0  0  0  0  0  0  0
  -18.4380    0.9010  -33.5820 C   0  0  0  0  0  3  0  0  0  0  0  0
  -19.2580    0.1640  -34.4500 C   0  0  0  0  0  3  0  0  0  0  0  0
  -21.0410   -0.0860  -31.3620 C   0  0  0  0  0  2  0  0  0  0  0  0
  -20.4180   -0.7400  -30.1970 C   0  0  0  0  0  0  0  0  0  0  0  0
  -20.2360   -2.0870  -30.0890 C   0  0  0  0  0  0  0  0  0  0  0  0
  -20.7570   -3.1410  -31.3840 Cl  0  0  0  0  0  0  0  0  0  0  0  0
  -19.6480   -2.6430  -28.9760 C   0  0  0  0  0  3  0  0  0  0  0  0
  -19.2220   -1.8540  -27.9310 C   0  0  0  0  0  3  0  0  0  0  0  0
  -19.4010   -0.4910  -28.0300 C   0  0  0  0  0  3  0  0  0  0  0  0
  -19.9890    0.0420  -29.1480 C   0  0  0  0  0  3  0  0  0  0  0  0
  1  4  1  0  0  0  0
  1 21  1  0  0  0  0
  2  1  1  0  0  0  0
  3  2  2  0  0  0  0
  5  2  1  0  0  0  0
  6  5  1  0  0  0  0
  7  6  1  0  0  0  0
  8  7  1  0  0  0  0
  9  8  1  0  0  0  0
  9 10  1  0  0  0  0
 10 11  1  0  0  0  0
 11  6  1  0  0  0  0
 12 11  2  0  0  0  0
 12 14  1  0  0  0  0
 13 12  1  0  0  0  0
 14 20  1  0  0  0  0
 15 13  1  0  0  0  0
 15 17  1  0  0  0  0
 16 13  1  0  0  0  0
 17 19  2  0  0  0  0
 17 14  1  0  0  0  0
 18 15  1  0  0  0  0
 21 22  1  0  0  0  0
 22 23  1  0  0  0  0
 22 26  1  0  0  0  0
 24 23  2  0  0  0  0
 25 21  2  0  0  0  0
 25 24  1  0  0  0  0
 26 27  1  0  0  0  0
 27 28  2  0  0  0  0
 27 33  1  0  0  0  0
 28 30  1  0  0  0  0
 29 28  1  0  0  0  0
 30 31  2  0  0  0  0
 32 31  1  0  0  0  0
 33 32  2  0  0  0  0
M  END
>  <Pose>
1

>  <Score>
-9.389

$$$$
