/Users/jonathanwahrer/Desktop/Msc/3_Semester/Drug_Design_Praktikum/waehrer_HTS_screening/HTS_experiment/out/docking_results/vina_output/5l4q/1466_docked.pdbqt
 OpenBabel03212218483D

 29 32  0  0  0  0  0  0  0  0999 V2000
  -20.4720   -0.8910  -34.2560 N   0  0  0  0  0  0  0  0  0  0  0  0
  -21.3100   -1.8990  -34.4330 N   0  0  0  0  0  0  0  0  0  0  0  0
  -21.4830   -2.5640  -33.2980 N   0  0  0  0  0  0  0  0  0  0  0  0
  -20.7450   -1.9930  -32.3340 C   0  0  0  0  0  0  0  0  0  0  0  0
  -20.1100   -0.9380  -32.9470 C   0  0  0  0  0  3  0  0  0  0  0  0
  -20.0100    0.0890  -35.2460 C   0  0  0  0  0  2  0  0  0  0  0  0
  -21.2450    0.5520  -35.9850 C   0  0  0  0  0  2  0  0  0  0  0  0
  -21.5690   -0.3600  -37.0710 N   0  0  0  0  0  0  0  0  0  0  0  0
  -22.9010   -0.8430  -37.1630 C   0  0  0  0  0  0  0  0  0  0  0  0
  -23.7690   -0.4720  -36.3050 O   0  0  0  0  0  0  0  0  0  0  0  0
  -20.8510   -0.6540  -37.7630 H   0  0  0  0  0  0  0  0  0  0  0  0
  -23.3340   -1.7580  -38.2090 C   0  0  0  0  0  0  0  0  0  0  0  0
  -22.6560   -1.8110  -39.3920 C   0  0  0  0  0  3  0  0  0  0  0  0
  -22.9760   -2.6220  -40.4180 N   0  0  0  0  0  0  0  0  0  0  0  0
  -24.0420   -3.4450  -40.2830 C   0  0  0  0  0  3  0  0  0  0  0  0
  -24.7700   -3.4410  -39.1150 C   0  0  0  0  0  0  0  0  0  0  0  0
  -26.2660   -4.6200  -38.9670 Br  0  0  0  0  0  0  0  0  0  0  0  0
  -24.4230   -2.5950  -38.0610 C   0  0  0  0  0  3  0  0  0  0  0  0
  -20.6360   -2.3970  -30.9430 C   0  0  0  0  0  0  0  0  0  0  0  0
  -19.9590   -1.7690  -29.9650 N   0  0  0  0  0  0  0  0  0  0  0  0
  -20.0990   -2.4530  -28.8180 C   0  0  0  0  0  0  0  0  0  0  0  0
  -20.8740   -3.5080  -29.1160 N   0  0  0  0  0  0  0  0  0  0  0  0
  -21.1730   -3.4450  -30.3770 O   0  0  0  0  0  0  0  0  0  0  0  0
  -19.5200   -2.1150  -27.5000 C   0  0  0  0  0  0  0  0  0  0  0  0
  -19.4650   -3.0710  -26.5120 C   0  0  0  0  0  3  0  0  0  0  0  0
  -18.9400   -2.7740  -25.3070 N   0  0  0  0  0  0  0  0  0  0  0  0
  -18.4470   -1.5570  -25.0000 C   0  0  0  0  0  3  0  0  0  0  0  0
  -18.5070   -0.6050  -25.9990 C   0  0  0  0  0  3  0  0  0  0  0  0
  -19.0330   -0.8640  -27.2380 C   0  0  0  0  0  3  0  0  0  0  0  0
  1  5  1  0  0  0  0
  2  1  1  0  0  0  0
  2  3  2  0  0  0  0
  3  4  1  0  0  0  0
  4 19  1  0  0  0  0
  5  4  2  0  0  0  0
  6  1  1  0  0  0  0
  7  6  1  0  0  0  0
  8  7  1  0  0  0  0
  9  8  1  0  0  0  0
  9 10  2  0  0  0  0
 11  8  1  0  0  0  0
 12 18  1  0  0  0  0
 12  9  1  0  0  0  0
 13 12  2  0  0  0  0
 14 15  2  0  0  0  0
 14 13  1  0  0  0  0
 15 16  1  0  0  0  0
 16 17  1  0  0  0  0
 16 18  2  0  0  0  0
 19 23  1  0  0  0  0
 19 20  2  0  0  0  0
 20 21  1  0  0  0  0
 21 24  1  0  0  0  0
 22 21  2  0  0  0  0
 23 22  1  0  0  0  0
 24 29  2  0  0  0  0
 24 25  1  0  0  0  0
 25 26  2  0  0  0  0
 26 27  1  0  0  0  0
 28 27  2  0  0  0  0
 29 28  1  0  0  0  0
M  END
>  <Pose>
1

>  <Score>
-8.817

$$$$
