/Users/jonathanwahrer/Desktop/Msc/3_Semester/Drug_Design_Praktikum/waehrer_HTS_screening/HTS_experiment/out/docking_results/vina_output/5l4q/1471_docked.pdbqt
 OpenBabel03212218483D

 31 34  0  0  0  0  0  0  0  0999 V2000
  -22.8870   -0.0770  -37.5610 C   0  0  0  0  0  0  0  0  0  0  0  0
  -22.2190    0.7060  -38.4620 C   0  0  0  0  0  2  0  0  0  0  0  0
  -21.9100    0.3190  -39.7370 N   0  0  0  0  0  0  0  0  0  0  0  0
  -22.2900   -0.8980  -40.1130 C   0  0  0  0  0  3  0  0  0  0  0  0
  -22.9640   -1.7540  -39.2820 C   0  0  0  0  0  0  0  0  0  0  0  0
  -23.2830   -1.3280  -37.9330 C   0  0  0  0  0  0  0  0  0  0  0  0
  -23.9360   -2.3570  -37.3620 N   0  0  0  0  0  2  0  0  0  0  0  0
  -24.0430   -3.3570  -38.2210 N   0  0  0  0  0  0  0  0  0  0  0  0
  -23.4720   -3.0370  -39.3900 C   0  0  0  0  0  0  0  0  0  0  0  0
  -23.3720   -3.7240  -40.4510 O   0  0  0  0  0  0  0  0  0  0  0  0
  -24.5030   -4.2970  -38.0670 H   0  0  0  0  0  0  0  0  0  0  0  0
  -23.1750    0.4130  -36.2220 C   0  0  0  0  0  0  0  0  0  0  0  0
  -22.1660    0.5820  -35.2490 N   0  0  0  0  0  0  0  0  0  0  0  0
  -22.4180    1.0650  -33.9180 C   0  0  0  0  0  2  0  0  0  0  0  0
  -20.8060    0.2580  -35.5940 C   0  0  0  0  0  2  0  0  0  0  0  0
  -21.6290    0.2170  -32.9520 C   0  0  0  0  0  2  0  0  0  0  0  0
  -21.1470   -1.0080  -33.5330 N   0  0  0  0  0  0  0  0  0  0  0  0
  -20.4740   -1.0370  -34.8400 C   0  0  0  0  0  2  0  0  0  0  0  0
  -24.3850    0.6840  -35.9680 O   0  0  0  0  0  0  0  0  0  0  0  0
  -21.2990   -2.2440  -32.8740 C   0  0  0  0  0  0  0  0  0  0  0  0
  -20.6560   -2.5220  -31.6880 C   0  0  0  0  0  0  0  0  0  0  0  0
  -19.6050   -1.3000  -30.9650 Cl  0  0  0  0  0  0  0  0  0  0  0  0
  -20.8120   -3.7360  -31.0540 C   0  0  0  0  0  3  0  0  0  0  0  0
  -21.6270   -4.6880  -31.6130 C   0  0  0  0  0  3  0  0  0  0  0  0
  -22.2990   -4.4450  -32.8160 C   0  0  0  0  0  3  0  0  0  0  0  0
  -22.1070   -3.2080  -33.4130 C   0  0  0  0  0  3  0  0  0  0  0  0
  -21.1620    1.2190  -40.6010 C   0  0  0  0  0  2  0  0  0  0  0  0
  -21.1600    2.6300  -40.2150 C   0  0  0  0  0  2  0  0  0  0  0  0
  -19.9740    3.3640  -39.7710 C   0  0  0  0  0  2  0  0  0  0  0  0
  -19.2030    2.9310  -38.7600 O   0  0  0  0  0  0  0  0  0  0  0  0
  -19.4390    3.2080  -37.4760 C   0  0  0  0  0  1  0  0  0  0  0  0
  1 12  1  0  0  0  0
  2  1  1  0  0  0  0
  3  2  1  0  0  0  0
  4  3  1  0  0  0  0
  4  5  2  0  0  0  0
  5  6  1  0  0  0  0
  6  1  2  0  0  0  0
  6  7  1  0  0  0  0
  8 11  1  0  0  0  0
  8  7  1  0  0  0  0
  9  5  1  0  0  0  0
  9  8  1  0  0  0  0
 10  9  2  0  0  0  0
 12 19  2  0  0  0  0
 12 13  1  0  0  0  0
 13 14  1  0  0  0  0
 14 16  1  0  0  0  0
 15 13  1  0  0  0  0
 15 18  1  0  0  0  0
 17 16  1  0  0  0  0
 17 20  1  0  0  0  0
 18 17  1  0  0  0  0
 20 21  1  0  0  0  0
 21 23  2  0  0  0  0
 21 22  1  0  0  0  0
 24 23  1  0  0  0  0
 25 24  2  0  0  0  0
 26 20  2  0  0  0  0
 26 25  1  0  0  0  0
 27 28  1  0  0  0  0
 27  3  1  0  0  0  0
 28 29  1  0  0  0  0
 29 30  1  0  0  0  0
 30 31  1  0  0  0  0
M  END
>  <Pose>
1

>  <Score>
-8.393

$$$$
