/Users/jonathanwahrer/Desktop/Msc/3_Semester/Drug_Design_Praktikum/waehrer_HTS_screening/HTS_experiment/out/docking_results/vina_output/5l4q/1477_docked.pdbqt
 OpenBabel03212218493D

 35 39  0  0  1  0  0  0  0  0999 V2000
  -20.5980   -0.1650  -33.0640 C   0  0  2  0  0  3  0  0  0  0  0  0
  -20.0970   -1.2350  -32.3190 N   0  0  0  0  0  0  0  0  0  0  0  0
  -20.7730   -2.4380  -32.7930 C   0  0  0  0  0  0  0  0  0  0  0  0
  -20.5210   -3.6310  -32.4870 O   0  0  0  0  0  0  0  0  0  0  0  0
  -21.8390   -2.0710  -33.7120 C   0  0  0  0  0  0  0  0  0  0  0  0
  -22.6270   -2.8720  -34.3180 O   0  0  0  0  0  0  0  0  0  0  0  0
  -21.8170   -0.6350  -33.7980 C   0  0  2  0  0  3  0  0  0  0  0  0
  -22.6890    0.1050  -34.4510 C   0  0  2  0  0  3  0  0  0  0  0  0
  -23.7360    0.6360  -33.6620 O   0  0  0  0  0  1  0  0  0  0  0  0
  -22.6690    0.4070  -35.8700 C   0  0  0  0  0  0  0  0  0  0  0  0
  -22.8780   -0.3430  -36.9640 N   0  0  0  0  0  0  0  0  0  0  0  0
  -22.7120    0.3460  -38.1020 C   0  0  0  0  0  0  0  0  0  0  0  0
  -23.2380   -1.6540  -37.0270 C   0  0  0  0  0  3  0  0  0  0  0  0
  -22.3790    1.6020  -37.7280 N   0  0  0  0  0  0  0  0  0  0  0  0
  -22.8930   -0.2260  -39.3470 C   0  0  0  0  0  3  0  0  0  0  0  0
  -22.3450    1.6770  -36.3950 C   0  0  0  0  0  0  0  0  0  0  0  0
  -22.0270    2.8610  -35.5860 C   0  0  0  0  0  1  0  0  0  0  0  0
  -23.2530   -1.5450  -39.4220 C   0  0  0  0  0  3  0  0  0  0  0  0
  -23.4250   -2.2550  -38.2500 C   0  0  0  0  0  3  0  0  0  0  0  0
  -19.7660    0.6920  -33.8850 C   0  0  0  0  0  0  0  0  0  0  0  0
  -19.3490    1.9430  -33.4100 C   0  0  0  0  0  3  0  0  0  0  0  0
  -18.5150    2.7430  -34.1600 C   0  0  0  0  0  0  0  0  0  0  0  0
  -17.9510    4.4340  -33.5110 Br  0  0  0  0  0  0  0  0  0  0  0  0
  -18.0640    2.3380  -35.4010 C   0  0  0  0  0  3  0  0  0  0  0  0
  -18.4540    1.1100  -35.9030 C   0  0  0  0  0  3  0  0  0  0  0  0
  -19.2800    0.3500  -35.1270 C   0  0  0  0  0  3  0  0  0  0  0  0
  -19.1930   -1.2290  -31.2280 C   0  0  0  0  0  2  0  0  0  0  0  0
  -19.4660   -1.9800  -30.0050 C   0  0  0  0  0  2  0  0  0  0  0  0
  -20.3210   -1.4420  -28.9880 N   0  0  0  0  0  4  0  0  0  0  0  0
  -19.9910   -2.1440  -27.7480 C   0  0  0  0  0  2  0  0  0  0  0  0
  -18.8980   -1.4780  -26.9770 C   0  0  0  0  0  2  0  0  0  0  0  0
  -18.2580   -0.5000  -27.7540 O   0  0  0  0  0  0  0  0  0  0  0  0
  -19.2080    0.4710  -27.9760 C   0  0  0  0  0  2  0  0  0  0  0  0
  -20.2710   -0.0220  -28.8870 C   0  0  0  0  0  2  0  0  0  0  0  0
  -21.3360   -1.7160  -29.1440 H   0  0  0  0  0  0  0  0  0  0  0  0
  1 20  1  6  0  0  0
  1  2  1  0  0  0  0
  2 27  1  0  0  0  0
  3  4  2  0  0  0  0
  3  2  1  0  0  0  0
  5  3  1  0  0  0  0
  6  5  2  0  0  0  0
  7  8  1  6  0  0  0
  7  5  1  0  0  0  0
  7  1  1  0  0  0  0
  8  9  1  6  0  0  0
 10  8  1  0  0  0  0
 11 10  1  0  0  0  0
 12 14  2  0  0  0  0
 12 11  1  0  0  0  0
 13 11  1  0  0  0  0
 14 16  1  0  0  0  0
 15 12  1  0  0  0  0
 16 10  2  0  0  0  0
 16 17  1  0  0  0  0
 18 15  2  0  0  0  0
 18 19  1  0  0  0  0
 19 13  2  0  0  0  0
 20 21  1  0  0  0  0
 22 23  1  0  0  0  0
 22 21  2  0  0  0  0
 24 22  1  0  0  0  0
 25 24  2  0  0  0  0
 25 26  1  0  0  0  0
 26 20  2  0  0  0  0
 27 28  1  0  0  0  0
 28 29  1  0  0  0  0
 29 34  1  0  0  0  0
 29 30  1  0  0  0  0
 30 31  1  0  0  0  0
 32 31  1  0  0  0  0
 33 32  1  0  0  0  0
 34 33  1  0  0  0  0
 35 29  1  0  0  0  0
M  END
>  <Pose>
1

>  <Score>
-8.773

$$$$
