/Users/jonathanwahrer/Desktop/Msc/3_Semester/Drug_Design_Praktikum/waehrer_HTS_screening/HTS_experiment/out/docking_results/vina_output/5l4q/1487_docked.pdbqt
 OpenBabel03212218493D

 29 32  0  0  1  0  0  0  0  0999 V2000
  -23.6420    0.0450  -36.1620 N   0  0  0  0  0  4  0  0  0  0  0  0
  -22.9590    1.3090  -36.2910 C   0  0  0  0  0  2  0  0  0  0  0  0
  -22.0740    1.5640  -35.1450 C   0  0  2  0  0  0  0  0  0  0  0  0
  -22.2810    0.4220  -34.3000 N   0  0  0  0  0  0  0  0  0  0  0  0
  -22.0780    0.2080  -32.8870 C   0  0  0  0  0  3  0  0  0  0  0  0
  -21.1060   -0.8730  -32.5420 C   0  0  0  0  0  3  0  0  0  0  0  0
  -20.6730   -1.7260  -33.6840 C   0  0  0  0  0  2  0  0  0  0  0  0
  -21.8340   -2.6860  -34.0280 C   0  0  0  0  0  2  0  0  0  0  0  0
  -22.6530   -1.9170  -35.0500 C   0  0  0  0  0  3  0  0  0  0  0  0
  -22.8360   -0.6200  -35.1480 C   0  0  0  0  0  0  0  0  0  0  0  0
  -24.5920    0.0590  -35.8090 H   0  0  0  0  0  0  0  0  0  0  0  0
  -22.5520    2.6900  -34.4190 O   0  0  0  0  0  0  0  0  0  0  0  0
  -21.9280    2.7820  -33.6260 H   0  0  0  0  0  0  0  0  0  0  0  0
  -20.6890    1.8560  -35.4270 C   0  0  0  0  0  0  0  0  0  0  0  0
  -19.9530    2.8210  -34.7390 C   0  0  0  0  0  3  0  0  0  0  0  0
  -18.6140    3.0810  -34.9980 C   0  0  0  0  0  0  0  0  0  0  0  0
  -17.9710    2.3440  -35.9920 C   0  0  0  0  0  3  0  0  0  0  0  0
  -18.6560    1.3910  -36.6900 C   0  0  0  0  0  3  0  0  0  0  0  0
  -20.0090    1.1570  -36.3980 C   0  0  0  0  0  3  0  0  0  0  0  0
  -17.9300    4.0750  -34.2610 N   0  0  0  0  0  0  0  0  0  0  0  0
  -17.4380    5.0780  -34.8660 O   0  0  0  0  0  0  0  0  0  0  0  0
  -17.7580    4.0240  -32.9280 O   0  0  0  0  0  0  0  0  0  0  0  0
  -23.5730   -0.8040  -37.2980 C   0  0  0  0  0  0  0  0  0  0  0  0
  -24.4480   -1.8420  -37.5060 C   0  0  0  0  0  3  0  0  0  0  0  0
  -24.3090   -2.7380  -38.5630 C   0  0  0  0  0  0  0  0  0  0  0  0
  -25.4780   -4.0280  -38.8000 Cl  0  0  0  0  0  0  0  0  0  0  0  0
  -23.2620   -2.6000  -39.4510 C   0  0  0  0  0  3  0  0  0  0  0  0
  -22.3650   -1.5800  -39.2780 C   0  0  0  0  0  3  0  0  0  0  0  0
  -22.5210   -0.6960  -38.2160 C   0  0  0  0  0  3  0  0  0  0  0  0
  1 11  1  0  0  0  0
  1 10  1  0  0  0  0
  2  1  1  0  0  0  0
  2  3  1  0  0  0  0
  3 12  1  1  0  0  0
  3  4  1  0  0  0  0
  4  5  1  0  0  0  0
  5  6  2  0  0  0  0
  7  6  1  0  0  0  0
  8  7  1  0  0  0  0
  9  8  1  0  0  0  0
 10  9  2  0  0  0  0
 10  4  1  0  0  0  0
 12 13  1  0  0  0  0
 14  3  1  0  0  0  0
 14 15  1  0  0  0  0
 16 15  2  0  0  0  0
 16 20  1  0  0  0  0
 17 16  1  0  0  0  0
 18 19  1  0  0  0  0
 18 17  2  0  0  0  0
 19 14  2  0  0  0  0
 20 22  2  0  0  0  0
 21 20  2  0  0  0  0
 23  1  1  0  0  0  0
 24 23  1  0  0  0  0
 25 24  2  0  0  0  0
 26 25  1  0  0  0  0
 27 28  2  0  0  0  0
 27 25  1  0  0  0  0
 28 29  1  0  0  0  0
 29 23  2  0  0  0  0
M  END
>  <Pose>
1

>  <Score>
-7.735

$$$$
