/Users/jonathanwahrer/Desktop/Msc/3_Semester/Drug_Design_Praktikum/waehrer_HTS_screening/HTS_experiment/out/docking_results/vina_output/5l4q/1491_docked.pdbqt
 OpenBabel03212218493D

 34 38  0  0  0  0  0  0  0  0999 V2000
  -21.2890   -2.1910  -32.5940 F   0  0  0  0  0  0  0  0  0  0  0  0
  -20.6390   -1.6960  -31.5260 C   0  0  0  0  0  0  0  0  0  0  0  0
  -20.6380   -2.5400  -30.4200 C   0  0  0  0  0  3  0  0  0  0  0  0
  -20.0030   -2.1670  -29.2560 C   0  0  0  0  0  0  0  0  0  0  0  0
  -19.3750   -0.9440  -29.2260 C   0  0  0  0  0  0  0  0  0  0  0  0
  -19.3860   -0.1150  -30.3430 C   0  0  0  0  0  3  0  0  0  0  0  0
  -20.0150   -0.4740  -31.5050 C   0  0  0  0  0  0  0  0  0  0  0  0
  -18.7580   -0.6000  -28.0770 N   0  0  0  0  0  0  0  0  0  0  0  0
  -18.7440   -1.3990  -26.9950 C   0  0  0  0  0  3  0  0  0  0  0  0
  -19.3640   -2.6290  -26.9930 C   0  0  0  0  0  0  0  0  0  0  0  0
  -20.0050   -3.0200  -28.1440 C   0  0  0  0  0  0  0  0  0  0  0  0
  -20.5880   -4.1280  -28.2100 O   0  0  0  0  0  0  0  0  0  0  0  0
  -20.0130    0.3890  -32.6000 N   0  0  0  0  0  4  0  0  0  0  0  0
  -21.2520    0.4740  -33.3300 C   0  0  0  0  0  2  0  0  0  0  0  0
  -21.1460    1.5720  -34.4160 C   0  0  0  0  0  2  0  0  0  0  0  0
  -20.1440    1.1290  -35.3020 N   0  0  0  0  0  0  0  0  0  0  0  0
  -18.7910    1.1700  -34.6220 C   0  0  0  0  0  2  0  0  0  0  0  0
  -20.1650    0.6490  -36.5680 C   0  0  0  0  0  0  0  0  0  0  0  0
  -18.9460    0.1660  -33.5210 C   0  0  0  0  0  2  0  0  0  0  0  0
  -18.9890    0.4080  -37.0970 O   0  0  0  0  0  0  0  0  0  0  0  0
  -19.8550    1.3670  -32.2060 H   0  0  0  0  0  0  0  0  0  0  0  0
  -21.2570    0.3510  -37.4520 C   0  0  0  0  0  0  0  0  0  0  0  0
  -22.2090   -0.5840  -37.2050 C   0  0  0  0  0  3  0  0  0  0  0  0
  -23.2800   -0.8000  -38.0630 C   0  0  0  0  0  0  0  0  0  0  0  0
  -23.3840   -0.0480  -39.2050 C   0  0  0  0  0  3  0  0  0  0  0  0
  -24.4960   -2.0270  -37.6980 Cl  0  0  0  0  0  0  0  0  0  0  0  0
  -22.4520    0.9050  -39.5020 C   0  0  0  0  0  3  0  0  0  0  0  0
  -21.4150    1.0940  -38.6400 C   0  0  0  0  0  3  0  0  0  0  0  0
  -18.0940    0.7080  -28.0640 C   0  0  0  0  0  3  0  0  0  0  0  0
  -17.5320    1.2580  -26.8260 C   0  0  0  0  0  2  0  0  0  0  0  0
  -18.8450    1.7800  -27.2060 C   0  0  0  0  0  2  0  0  0  0  0  0
  -19.3390   -3.4920  -25.7970 C   0  0  0  0  0  0  0  0  0  0  0  0
  -18.8050   -4.6120  -25.7940 O   0  0  0  0  0  0  0  0  0  0  0  0
  -19.9330   -3.0210  -24.6480 O   0  0  0  0  0  1  0  0  0  0  0  0
  1  2  1  0  0  0  0
  2  7  2  0  0  0  0
  2  3  1  0  0  0  0
  3  4  2  0  0  0  0
  4  5  1  0  0  0  0
  4 11  1  0  0  0  0
  5  8  1  0  0  0  0
  6  5  2  0  0  0  0
  7  6  1  0  0  0  0
  8 29  1  0  0  0  0
  8  9  1  0  0  0  0
  9 10  2  0  0  0  0
 10 32  1  0  0  0  0
 11 10  1  0  0  0  0
 12 11  2  0  0  0  0
 13 21  1  0  0  0  0
 13  7  1  0  0  0  0
 14 13  1  0  0  0  0
 15 14  1  0  0  0  0
 16 17  1  0  0  0  0
 16 15  1  0  0  0  0
 17 19  1  0  0  0  0
 18 16  1  0  0  0  0
 19 13  1  0  0  0  0
 20 18  2  0  0  0  0
 22 23  1  0  0  0  0
 22 18  1  0  0  0  0
 24 26  1  0  0  0  0
 24 23  2  0  0  0  0
 25 24  1  0  0  0  0
 27 25  2  0  0  0  0
 27 28  1  0  0  0  0
 28 22  2  0  0  0  0
 29 31  1  0  0  0  0
 29 30  1  0  0  0  0
 31 30  1  0  0  0  0
 32 33  2  0  0  0  0
 32 34  1  0  0  0  0
M  END
>  <Pose>
1

>  <Score>
-9.889

$$$$
