/Users/jonathanwahrer/Desktop/Msc/3_Semester/Drug_Design_Praktikum/waehrer_HTS_screening/HTS_experiment/out/docking_results/vina_output/5l4q/1523_docked.pdbqt
 OpenBabel03212218513D

 25 28  0  0  0  0  0  0  0  0999 V2000
  -20.7070   -0.7350  -33.8590 C   0  0  0  0  0  0  0  0  0  0  0  0
  -19.5720   -0.1810  -34.0700 O   0  0  0  0  0  0  0  0  0  0  0  0
  -21.8310   -0.3490  -34.5890 N   0  0  0  0  0  0  0  0  0  0  0  0
  -21.7160    0.6840  -35.5810 C   0  0  0  0  0  2  0  0  0  0  0  0
  -21.9520    0.0720  -36.9340 C   0  0  0  0  0  2  0  0  0  0  0  0
  -23.0930   -0.7970  -36.8730 N   0  0  0  0  0  0  0  0  0  0  0  0
  -23.9640   -0.6190  -35.6950 C   0  0  0  0  0  2  0  0  0  0  0  0
  -23.1570   -0.9070  -34.4370 C   0  0  0  0  0  2  0  0  0  0  0  0
  -23.4670   -1.7840  -37.7850 C   0  0  0  0  0  0  0  0  0  0  0  0
  -24.5730   -2.4000  -37.5010 O   0  0  0  0  0  0  0  0  0  0  0  0
  -20.7090   -1.7810  -32.8100 C   0  0  0  0  0  0  0  0  0  0  0  0
  -21.0920   -3.0600  -32.9310 N   0  0  0  0  0  0  0  0  0  0  0  0
  -20.9450   -3.6680  -31.7750 N   0  0  0  0  0  0  0  0  0  0  0  0
  -20.4650   -2.8210  -30.8580 N   0  0  0  0  0  0  0  0  0  0  0  0
  -20.3180   -1.6490  -31.4980 C   0  0  0  0  0  3  0  0  0  0  0  0
  -20.1810   -3.1280  -29.5040 C   0  0  0  0  0  0  0  0  0  0  0  0
  -19.6300   -2.1830  -28.6740 C   0  0  0  0  0  3  0  0  0  0  0  0
  -19.3560   -2.5060  -27.3370 C   0  0  0  0  0  0  0  0  0  0  0  0
  -18.5900   -1.2070  -26.1720 Br  0  0  0  0  0  0  0  0  0  0  0  0
  -19.6330   -3.7540  -26.8470 C   0  0  0  0  0  3  0  0  0  0  0  0
  -20.1850   -4.7060  -27.6690 C   0  0  0  0  0  3  0  0  0  0  0  0
  -20.4550   -4.3740  -29.0020 C   0  0  0  0  0  3  0  0  0  0  0  0
  -22.8160   -2.2370  -39.0080 C   0  0  0  0  0  3  0  0  0  0  0  0
  -23.5160   -2.8330  -40.1460 C   0  0  0  0  0  2  0  0  0  0  0  0
  -22.8160   -1.4850  -40.2870 C   0  0  0  0  0  2  0  0  0  0  0  0
  1 11  1  0  0  0  0
  2  1  2  0  0  0  0
  3  8  1  0  0  0  0
  3  1  1  0  0  0  0
  4  3  1  0  0  0  0
  5  6  1  0  0  0  0
  5  4  1  0  0  0  0
  6  7  1  0  0  0  0
  7  8  1  0  0  0  0
  9 10  2  0  0  0  0
  9  6  1  0  0  0  0
 11 15  2  0  0  0  0
 12 11  1  0  0  0  0
 12 13  2  0  0  0  0
 13 14  1  0  0  0  0
 14 16  1  0  0  0  0
 15 14  1  0  0  0  0
 16 22  2  0  0  0  0
 16 17  1  0  0  0  0
 17 18  2  0  0  0  0
 18 20  1  0  0  0  0
 18 19  1  0  0  0  0
 21 20  2  0  0  0  0
 22 21  1  0  0  0  0
 23  9  1  0  0  0  0
 24 23  1  0  0  0  0
 25 24  1  0  0  0  0
 25 23  1  0  0  0  0
M  END
>  <Pose>
1

>  <Score>
-8.850

$$$$
