/Users/jonathanwahrer/Desktop/Msc/3_Semester/Drug_Design_Praktikum/waehrer_HTS_screening/HTS_experiment/out/docking_results/vina_output/5l4q/1525_docked.pdbqt
 OpenBabel03212218513D

 26 29  0  0  1  0  0  0  0  0999 V2000
  -19.9660   -1.5030  -31.9150 N   0  0  0  0  0  0  0  0  0  0  0  0
  -20.8220   -2.0500  -32.9100 C   0  0  0  0  0  0  0  0  0  0  0  0
  -21.4730   -3.1120  -32.7550 O   0  0  0  0  0  0  0  0  0  0  0  0
  -20.7630   -1.1530  -34.0580 C   0  0  2  0  0  3  0  0  0  0  0  0
  -19.3680   -0.5720  -33.9670 C   0  0  0  0  0  2  0  0  0  0  0  0
  -19.0060   -0.6430  -32.5390 C   0  0  0  0  0  0  0  0  0  0  0  0
  -18.0450   -0.0690  -31.9600 O   0  0  0  0  0  0  0  0  0  0  0  0
  -21.7650   -0.1690  -34.1430 N   0  0  2  0  0  0  0  0  0  0  0  0
  -23.0650   -0.5090  -33.7260 C   0  0  0  0  0  2  0  0  0  0  0  0
  -23.8890   -0.9000  -34.9610 C   0  0  0  0  0  2  0  0  0  0  0  0
  -23.2290   -0.4200  -36.1640 N   0  0  0  0  0  0  0  0  0  0  0  0
  -22.5050    0.8360  -36.1940 C   0  0  0  0  0  2  0  0  0  0  0  0
  -21.6150    0.9390  -34.9780 C   0  0  0  0  0  2  0  0  0  0  0  0
  -23.2520   -1.1880  -37.3750 C   0  0  0  0  0  0  0  0  0  0  0  0
  -22.4800   -0.8490  -38.4280 N   0  0  0  0  0  0  0  0  0  0  0  0
  -22.4930   -1.5850  -39.5570 C   0  0  0  0  0  3  0  0  0  0  0  0
  -23.2960   -2.7140  -39.6780 C   0  0  0  0  0  3  0  0  0  0  0  0
  -24.0840   -3.0570  -38.5930 C   0  0  0  0  0  3  0  0  0  0  0  0
  -24.0260   -2.2820  -37.4950 N   0  0  0  0  0  0  0  0  0  0  0  0
  -20.0790   -1.7820  -30.5190 C   0  0  0  0  0  0  0  0  0  0  0  0
  -20.1110   -3.0600  -30.0020 C   0  0  0  0  0  3  0  0  0  0  0  0
  -20.2190   -3.2800  -28.6320 C   0  0  0  0  0  0  0  0  0  0  0  0
  -20.2640   -5.0400  -27.9100 Br  0  0  0  0  0  0  0  0  0  0  0  0
  -20.2970   -2.2200  -27.7550 C   0  0  0  0  0  3  0  0  0  0  0  0
  -20.2680   -0.9390  -28.2480 C   0  0  0  0  0  3  0  0  0  0  0  0
  -20.1600   -0.7430  -29.5980 C   0  0  0  0  0  3  0  0  0  0  0  0
  1 20  1  0  0  0  0
  2  3  2  0  0  0  0
  2  1  1  0  0  0  0
  4  5  1  1  0  0  0
  4  2  1  0  0  0  0
  5  6  1  0  0  0  0
  6  7  2  0  0  0  0
  6  1  1  0  0  0  0
  8 13  1  6  0  0  0
  8  4  1  0  0  0  0
  8  9  1  0  0  0  0
 10  9  1  0  0  0  0
 11 10  1  0  0  0  0
 12 11  1  0  0  0  0
 12 13  1  0  0  0  0
 14 11  1  0  0  0  0
 15 14  2  0  0  0  0
 16 15  1  0  0  0  0
 17 16  2  0  0  0  0
 17 18  1  0  0  0  0
 18 19  2  0  0  0  0
 19 14  1  0  0  0  0
 20 21  2  0  0  0  0
 20 26  1  0  0  0  0
 21 22  1  0  0  0  0
 22 23  1  0  0  0  0
 22 24  2  0  0  0  0
 25 24  1  0  0  0  0
 26 25  2  0  0  0  0
M  END
>  <Pose>
1

>  <Score>
-8.853

$$$$
