/Users/jonathanwahrer/Desktop/Msc/3_Semester/Drug_Design_Praktikum/waehrer_HTS_screening/HTS_experiment/out/docking_results/vina_output/5l4q/1531_docked.pdbqt
 OpenBabel03212218513D

 27 30  0  0  0  0  0  0  0  0999 V2000
  -20.6200   -2.9260  -29.8420 N   0  0  0  0  0  0  0  0  0  0  0  0
  -20.3100   -3.6860  -28.7450 C   0  0  0  0  0  0  0  0  0  0  0  0
  -19.8100   -2.8460  -27.8360 N   0  0  0  0  0  0  0  0  0  0  0  0
  -19.7750   -1.5790  -28.2800 C   0  0  0  0  0  0  0  0  0  0  0  0
  -20.2940   -1.6350  -29.5620 C   0  0  0  0  0  3  0  0  0  0  0  0
  -19.4450   -3.5710  -26.6230 C   0  0  0  0  0  3  0  0  0  0  0  0
  -19.6900   -5.0170  -26.9380 C   0  0  0  0  0  3  0  0  0  0  0  0
  -20.3550   -5.0890  -28.2660 C   0  0  0  0  0  3  0  0  0  0  0  0
  -21.2230   -3.3930  -31.0440 C   0  0  0  0  0  3  0  0  0  0  0  0
  -21.0680   -2.6850  -32.2930 C   0  0  0  0  0  0  0  0  0  0  0  0
  -21.6760   -3.2510  -33.3170 O   0  0  0  0  0  1  0  0  0  0  0  0
  -20.3710   -1.4720  -32.6270 C   0  0  0  0  0  0  0  0  0  0  0  0
  -19.0360   -1.2370  -32.4990 C   0  0  0  0  0  3  0  0  0  0  0  0
  -18.4090   -0.0310  -32.8450 C   0  0  0  0  0  3  0  0  0  0  0  0
  -19.1600    1.0040  -33.3470 C   0  0  0  0  0  0  0  0  0  0  0  0
  -20.5140    0.8080  -33.4920 C   0  0  0  0  0  0  0  0  0  0  0  0
  -18.3840    2.5100  -33.7790 Cl  0  0  0  0  0  0  0  0  0  0  0  0
  -21.4830    2.1090  -34.1280 Cl  0  0  0  0  0  0  0  0  0  0  0  0
  -21.0930   -0.3700  -33.1490 C   0  0  0  0  0  3  0  0  0  0  0  0
  -19.3050   -0.3700  -27.6040 C   0  0  0  0  0  0  0  0  0  0  0  0
  -19.2980    0.8830  -28.1600 C   0  0  0  0  0  3  0  0  0  0  0  0
  -18.8320    1.9970  -27.4460 C   0  0  0  0  0  3  0  0  0  0  0  0
  -18.3590    1.8890  -26.1570 C   0  0  0  0  0  0  0  0  0  0  0  0
  -18.3610    0.6330  -25.5910 C   0  0  0  0  0  3  0  0  0  0  0  0
  -18.8210   -0.4600  -26.2940 C   0  0  0  0  0  3  0  0  0  0  0  0
  -17.8950    2.9830  -25.4390 O   0  0  0  0  0  0  0  0  0  0  0  0
  -17.3470    2.8110  -24.1450 C   0  0  0  0  0  1  0  0  0  0  0  0
  1  5  1  0  0  0  0
  1  2  1  0  0  0  0
  2  8  2  0  0  0  0
  2  3  1  0  0  0  0
  3  6  1  0  0  0  0
  4  3  1  0  0  0  0
  4 20  1  0  0  0  0
  5  4  2  0  0  0  0
  7  6  2  0  0  0  0
  8  7  1  0  0  0  0
  9  1  1  0  0  0  0
 10  9  2  0  0  0  0
 11 10  1  0  0  0  0
 12 13  1  0  0  0  0
 12 10  1  0  0  0  0
 14 13  2  0  0  0  0
 15 14  1  0  0  0  0
 16 15  2  0  0  0  0
 16 19  1  0  0  0  0
 17 15  1  0  0  0  0
 18 16  1  0  0  0  0
 19 12  2  0  0  0  0
 20 25  1  0  0  0  0
 21 20  2  0  0  0  0
 21 22  1  0  0  0  0
 22 23  2  0  0  0  0
 23 24  1  0  0  0  0
 23 26  1  0  0  0  0
 25 24  2  0  0  0  0
 26 27  1  0  0  0  0
M  END
>  <Pose>
1

>  <Score>
-8.852

$$$$
