/Users/jonathanwahrer/Desktop/Msc/3_Semester/Drug_Design_Praktikum/waehrer_HTS_screening/HTS_experiment/out/docking_results/vina_output/5l4q/1535_docked.pdbqt
 OpenBabel03212218523D

 28 31  0  0  1  0  0  0  0  0999 V2000
  -20.2590   -1.2860  -30.4510 C   0  0  0  0  0  0  0  0  0  0  0  0
  -20.8040   -2.3980  -30.9690 N   0  0  0  0  0  0  0  0  0  0  0  0
  -21.1160   -2.1860  -32.2650 C   0  0  2  0  0  3  0  0  0  0  0  0
  -20.7630   -0.9260  -32.5750 N   0  0  0  0  0  0  0  0  0  0  0  0
  -20.2250   -0.3270  -31.4760 C   0  0  0  0  0  3  0  0  0  0  0  0
  -21.7300   -3.4030  -32.8450 C   0  0  0  0  0  2  0  0  0  0  0  0
  -21.0520   -4.4540  -32.0030 C   0  0  0  0  0  2  0  0  0  0  0  0
  -21.1720   -3.7770  -30.6270 C   0  0  0  0  0  2  0  0  0  0  0  0
  -20.9550   -0.2910  -33.8270 C   0  0  0  0  0  2  0  0  0  0  0  0
  -22.2470    0.0440  -34.3550 C   0  0  2  0  0  3  0  0  0  0  0  0
  -22.9260    0.8170  -33.5320 O   0  0  0  0  0  1  0  0  0  0  0  0
  -22.9250   -0.2980  -35.5830 C   0  0  0  0  0  0  0  0  0  0  0  0
  -23.5290    0.5970  -36.4230 C   0  0  0  0  0  3  0  0  0  0  0  0
  -24.1680    0.1920  -37.5990 C   0  0  0  0  0  0  0  0  0  0  0  0
  -24.2030   -1.1220  -37.9390 C   0  0  0  0  0  3  0  0  0  0  0  0
  -23.6020   -2.0450  -37.1100 C   0  0  0  0  0  3  0  0  0  0  0  0
  -22.9740   -1.6600  -35.9570 C   0  0  0  0  0  3  0  0  0  0  0  0
  -24.7790    1.1770  -38.4340 N   0  0  0  0  0  0  0  0  0  0  0  0
  -26.0130    1.3250  -38.4020 O   0  0  0  0  0  0  0  0  0  0  0  0
  -24.0520    1.9640  -39.2690 O   0  0  0  0  0  0  0  0  0  0  0  0
  -19.7590   -1.0080  -29.1040 C   0  0  0  0  0  0  0  0  0  0  0  0
  -19.4170    0.2970  -28.7330 C   0  0  0  0  0  3  0  0  0  0  0  0
  -18.9620    0.6160  -27.4820 C   0  0  0  0  0  3  0  0  0  0  0  0
  -18.8210   -0.3550  -26.5190 C   0  0  0  0  0  0  0  0  0  0  0  0
  -19.1480   -1.6430  -26.8480 C   0  0  0  0  0  0  0  0  0  0  0  0
  -18.2390    0.0640  -24.9230 Cl  0  0  0  0  0  0  0  0  0  0  0  0
  -18.9960   -2.9210  -25.6840 Cl  0  0  0  0  0  0  0  0  0  0  0  0
  -19.6140   -1.9510  -28.1410 C   0  0  0  0  0  3  0  0  0  0  0  0
  1 21  1  0  0  0  0
  2  8  1  0  0  0  0
  2  1  1  0  0  0  0
  3  6  1  1  0  0  0
  3  2  1  0  0  0  0
  4  3  1  0  0  0  0
  4  5  1  0  0  0  0
  5  1  2  0  0  0  0
  6  7  1  0  0  0  0
  7  8  1  0  0  0  0
  9  4  1  0  0  0  0
 10  9  1  0  0  0  0
 10 11  1  1  0  0  0
 12 10  1  0  0  0  0
 13 12  2  0  0  0  0
 14 13  1  0  0  0  0
 15 14  2  0  0  0  0
 15 16  1  0  0  0  0
 16 17  2  0  0  0  0
 17 12  1  0  0  0  0
 18 19  2  0  0  0  0
 18 14  1  0  0  0  0
 20 18  2  0  0  0  0
 21 22  2  0  0  0  0
 21 28  1  0  0  0  0
 22 23  1  0  0  0  0
 23 24  2  0  0  0  0
 24 26  1  0  0  0  0
 25 24  1  0  0  0  0
 25 27  1  0  0  0  0
 28 25  2  0  0  0  0
M  END
>  <Pose>
1

>  <Score>
-9.773

$$$$
