/Users/jonathanwahrer/Desktop/Msc/3_Semester/Drug_Design_Praktikum/waehrer_HTS_screening/HTS_experiment/out/docking_results/vina_output/5l4q/1536_docked.pdbqt
 OpenBabel03212218523D

 31 34  0  0  1  0  0  0  0  0999 V2000
  -20.7340   -0.7270  -33.1990 S   0  0  0  0  0  0  0  0  0  0  0  0
  -19.8600    0.5240  -33.0650 O   0  0  0  0  0  0  0  0  0  0  0  0
  -20.0310   -1.5260  -34.2990 O   0  0  0  0  0  0  0  0  0  0  0  0
  -22.2330   -0.2610  -33.7180 N   0  0  0  0  0  0  0  0  0  0  0  0
  -23.2630   -1.1390  -34.0380 C   0  0  0  0  0  2  0  0  0  0  0  0
  -23.3680   -1.5600  -35.4680 C   0  0  0  0  0  2  0  0  0  0  0  0
  -22.6800   -0.5160  -36.3460 C   0  0  2  0  0  3  0  0  0  0  0  0
  -23.1180    0.8200  -35.7250 C   0  0  0  0  0  2  0  0  0  0  0  0
  -22.2550    0.9800  -34.4830 C   0  0  0  0  0  2  0  0  0  0  0  0
  -23.0740   -0.6220  -37.7400 C   0  0  0  0  0  0  0  0  0  0  0  0
  -24.2250   -1.0400  -38.0310 O   0  0  0  0  0  0  0  0  0  0  0  0
  -22.2040   -0.2680  -38.7760 N   0  0  0  0  0  0  0  0  0  0  0  0
  -22.5830   -0.3250  -40.1930 C   0  0  0  0  0  2  0  0  0  0  0  0
  -20.8590    0.1590  -38.5070 C   0  0  0  0  0  2  0  0  0  0  0  0
  -21.3170   -0.0690  -40.9830 C   0  0  0  0  0  2  0  0  0  0  0  0
  -20.8030    1.2560  -40.6970 N   0  0  0  0  0  0  0  0  0  0  0  0
  -20.4990    1.4120  -39.2850 C   0  0  0  0  0  2  0  0  0  0  0  0
  -19.6400    1.5490  -41.5070 C   0  0  0  0  0  1  0  0  0  0  0  0
  -20.5940   -1.5560  -31.6760 C   0  0  0  0  0  0  0  0  0  0  0  0
  -20.0930   -0.8620  -30.5610 C   0  0  0  0  0  3  0  0  0  0  0  0
  -19.9070   -1.4610  -29.3430 C   0  0  0  0  0  0  0  0  0  0  0  0
  -20.2140   -2.7770  -29.1850 C   0  0  0  0  0  0  0  0  0  0  0  0
  -19.4050   -0.7360  -28.2540 O   0  0  0  0  0  0  0  0  0  0  0  0
  -20.7080   -3.5060  -30.2370 C   0  0  0  0  0  3  0  0  0  0  0  0
  -20.0070   -3.3900  -27.9000 N   0  0  0  0  0  0  0  0  0  0  0  0
  -20.8900   -2.8720  -31.4680 C   0  0  0  0  0  0  0  0  0  0  0  0
  -21.5980   -3.8310  -32.7570 Cl  0  0  0  0  0  0  0  0  0  0  0  0
  -19.4910   -2.6140  -26.8320 C   0  0  0  0  0  0  0  0  0  0  0  0
  -20.2400   -4.3940  -27.7710 H   0  0  0  0  0  0  0  0  0  0  0  0
  -19.6400   -2.9570  -25.6410 O   0  0  0  0  0  0  0  0  0  0  0  0
  -18.7590   -1.3690  -27.1810 C   0  0  0  0  0  2  0  0  0  0  0  0
  1  2  2  0  0  0  0
  1 19  1  0  0  0  0
  3  1  2  0  0  0  0
  4  1  1  0  0  0  0
  5  4  1  0  0  0  0
  6  5  1  0  0  0  0
  7 10  1  6  0  0  0
  7  8  1  0  0  0  0
  7  6  1  0  0  0  0
  8  9  1  0  0  0  0
  9  4  1  0  0  0  0
 11 10  2  0  0  0  0
 12 14  1  0  0  0  0
 12 10  1  0  0  0  0
 13 12  1  0  0  0  0
 15 16  1  0  0  0  0
 15 13  1  0  0  0  0
 16 17  1  0  0  0  0
 17 14  1  0  0  0  0
 18 16  1  0  0  0  0
 19 26  2  0  0  0  0
 19 20  1  0  0  0  0
 20 21  2  0  0  0  0
 21 22  1  0  0  0  0
 21 23  1  0  0  0  0
 22 25  1  0  0  0  0
 23 31  1  0  0  0  0
 24 22  2  0  0  0  0
 25 29  1  0  0  0  0
 25 28  1  0  0  0  0
 26 24  1  0  0  0  0
 27 26  1  0  0  0  0
 28 30  2  0  0  0  0
 31 28  1  0  0  0  0
M  END
>  <Pose>
1

>  <Score>
-9.249

$$$$
