/Users/jonathanwahrer/Desktop/Msc/3_Semester/Drug_Design_Praktikum/waehrer_HTS_screening/HTS_experiment/out/docking_results/vina_output/5l4q/1539_docked.pdbqt
 OpenBabel03212218533D

 34 37  0  0  1  0  0  0  0  0999 V2000
  -21.3040   -1.0450  -34.5940 C   0  0  2  0  0  3  0  0  0  0  0  0
  -22.6540   -0.4680  -34.5530 N   0  0  0  0  0  0  0  0  0  0  0  0
  -22.6330    0.4370  -33.4580 C   0  0  0  0  0  0  0  0  0  0  0  0
  -23.3290    1.4560  -33.3210 O   0  0  0  0  0  0  0  0  0  0  0  0
  -21.6290   -0.0710  -32.5290 C   0  0  0  0  0  0  0  0  0  0  0  0
  -21.2400    0.3820  -31.4110 O   0  0  0  0  0  0  0  0  0  0  0  0
  -21.0880   -1.2940  -33.1390 C   0  0  0  0  0  0  0  0  0  0  0  0
  -20.5340   -2.3110  -32.5090 C   0  0  0  0  0  0  0  0  0  0  0  0
  -20.0370   -3.3720  -33.2700 O   0  0  0  0  0  1  0  0  0  0  0  0
  -20.4160    0.0380  -35.0840 C   0  0  0  0  0  0  0  0  0  0  0  0
  -20.7160    0.7630  -36.2170 C   0  0  0  0  0  3  0  0  0  0  0  0
  -19.9080    1.7730  -36.6930 C   0  0  0  0  0  3  0  0  0  0  0  0
  -18.7390    2.1060  -36.0350 C   0  0  0  0  0  0  0  0  0  0  0  0
  -17.6930    3.3950  -36.6270 Cl  0  0  0  0  0  0  0  0  0  0  0  0
  -18.4200    1.3970  -34.9030 C   0  0  0  0  0  3  0  0  0  0  0  0
  -19.2280    0.3890  -34.4300 C   0  0  0  0  0  3  0  0  0  0  0  0
  -20.4210   -2.3790  -31.0590 C   0  0  0  0  0  0  0  0  0  0  0  0
  -19.5690   -1.5520  -30.3450 C   0  0  0  0  0  3  0  0  0  0  0  0
  -19.4460   -1.6390  -28.9740 C   0  0  0  0  0  0  0  0  0  0  0  0
  -20.1810   -2.5690  -28.2530 C   0  0  0  0  0  0  0  0  0  0  0  0
  -18.5220   -0.7350  -28.2530 C   0  0  0  0  0  1  0  0  0  0  0  0
  -21.0310   -3.3960  -28.9500 C   0  0  0  0  0  3  0  0  0  0  0  0
  -21.1480   -3.2990  -30.3400 C   0  0  0  0  0  3  0  0  0  0  0  0
  -20.0690   -2.6670  -26.8680 O   0  0  0  0  0  0  0  0  0  0  0  0
  -19.4220   -3.7790  -26.3160 C   0  0  0  0  0  1  0  0  0  0  0  0
  -23.7690   -0.7660  -35.4520 C   0  0  0  0  0  2  0  0  0  0  0  0
  -23.2000   -1.5910  -36.5840 C   0  0  0  0  0  2  0  0  0  0  0  0
  -23.9350   -1.4290  -37.8090 N   0  0  0  0  0  4  0  0  0  0  0  0
  -24.3960   -2.6880  -38.2980 C   0  0  0  0  0  2  0  0  0  0  0  0
  -23.5450   -3.3390  -39.3370 C   0  0  0  0  0  2  0  0  0  0  0  0
  -22.8840   -2.4820  -40.1740 O   0  0  0  0  0  0  0  0  0  0  0  0
  -22.1450   -1.5180  -39.5010 C   0  0  0  0  0  2  0  0  0  0  0  0
  -23.1290   -0.6780  -38.7290 C   0  0  0  0  0  2  0  0  0  0  0  0
  -24.7900   -0.8580  -37.5520 H   0  0  0  0  0  0  0  0  0  0  0  0
  1 10  1  1  0  0  0
  1  2  1  0  0  0  0
  1  7  1  0  0  0  0
  2  3  1  0  0  0  0
  3  4  2  0  0  0  0
  3  5  1  0  0  0  0
  5  6  2  0  0  0  0
  7  5  1  0  0  0  0
  7  8  2  0  0  0  0
  8 17  1  0  0  0  0
  9  8  1  0  0  0  0
 10 16  1  0  0  0  0
 11 10  2  0  0  0  0
 12 11  1  0  0  0  0
 12 13  2  0  0  0  0
 13 15  1  0  0  0  0
 14 13  1  0  0  0  0
 15 16  2  0  0  0  0
 17 18  2  0  0  0  0
 17 23  1  0  0  0  0
 18 19  1  0  0  0  0
 19 21  1  0  0  0  0
 19 20  2  0  0  0  0
 20 24  1  0  0  0  0
 22 20  1  0  0  0  0
 23 22  2  0  0  0  0
 24 25  1  0  0  0  0
 26  2  1  0  0  0  0
 27 26  1  0  0  0  0
 28 34  1  0  0  0  0
 28 27  1  0  0  0  0
 29 28  1  0  0  0  0
 30 29  1  0  0  0  0
 31 32  1  0  0  0  0
 31 30  1  0  0  0  0
 32 33  1  0  0  0  0
 33 28  1  0  0  0  0
M  END
>  <Pose>
1

>  <Score>
-8.739

$$$$
