/Users/jonathanwahrer/Desktop/Msc/3_Semester/Drug_Design_Praktikum/waehrer_HTS_screening/HTS_experiment/out/docking_results/vina_output/5l4q/1548_docked.pdbqt
 OpenBabel03212218533D

 24 27  0  0  1  0  0  0  0  0999 V2000
  -19.1930   -2.2840  -25.1870 Cl  0  0  0  0  0  0  0  0  0  0  0  0
  -19.2210   -1.6240  -26.8160 C   0  0  0  0  0  0  0  0  0  0  0  0
  -19.5700   -2.3860  -27.9100 C   0  0  0  0  0  2  0  0  0  0  0  0
  -19.5900   -1.8710  -29.1740 N   0  0  0  0  0  0  0  0  0  0  0  0
  -19.2680   -0.5860  -29.4140 C   0  0  0  0  0  0  0  0  0  0  0  0
  -19.2870   -0.0730  -30.6690 N   0  0  0  0  0  0  0  0  0  0  0  0
  -19.6310   -0.8250  -31.7360 C   0  0  0  0  0  0  0  0  0  0  0  0
  -19.9640   -2.1320  -31.5300 C   0  0  2  0  0  3  0  0  0  0  0  0
  -20.3530   -3.0120  -32.6780 C   0  0  0  0  0  2  0  0  0  0  0  0
  -20.9170   -2.0930  -33.6830 N   0  0  0  0  0  0  0  0  0  0  0  0
  -19.9840   -1.1150  -34.1650 C   0  0  0  0  0  2  0  0  0  0  0  0
  -19.6130   -0.1440  -33.0580 C   0  0  0  0  0  2  0  0  0  0  0  0
  -22.2500   -2.2650  -34.0440 C   0  0  0  0  0  0  0  0  0  0  0  0
  -22.9150   -3.2110  -33.4950 O   0  0  0  0  0  0  0  0  0  0  0  0
  -19.9340   -2.6260  -30.2330 C   0  0  0  0  0  0  0  0  0  0  0  0
  -20.2360   -3.8190  -30.0340 O   0  0  0  0  0  0  0  0  0  0  0  0
  -18.9150    0.1870  -28.3180 C   0  0  0  0  0  3  0  0  0  0  0  0
  -18.8860   -0.3050  -27.0310 C   0  0  0  0  0  3  0  0  0  0  0  0
  -22.9880   -1.4510  -35.0160 C   0  0  0  0  0  0  0  0  0  0  0  0
  -23.2860   -1.8920  -36.2410 N   0  0  0  0  0  0  0  0  0  0  0  0
  -23.9590   -1.1440  -37.1200 C   0  0  0  0  0  3  0  0  0  0  0  0
  -24.3850    0.1320  -36.8120 C   0  0  0  0  0  3  0  0  0  0  0  0
  -24.0770    0.5600  -35.5750 N   0  0  0  0  0  0  0  0  0  0  0  0
  -23.4070   -0.1670  -34.6800 C   0  0  0  0  0  3  0  0  0  0  0  0
  2  1  1  0  0  0  0
  3  2  1  0  0  0  0
  4  3  1  0  0  0  0
  5  4  1  0  0  0  0
  5 17  2  0  0  0  0
  6  5  1  0  0  0  0
  7  8  1  0  0  0  0
  7  6  2  0  0  0  0
  8  9  1  1  0  0  0
  8 15  1  0  0  0  0
 10  9  1  0  0  0  0
 11 10  1  0  0  0  0
 11 12  1  0  0  0  0
 12  7  1  0  0  0  0
 13 10  1  0  0  0  0
 13 14  2  0  0  0  0
 15 16  2  0  0  0  0
 15  4  1  0  0  0  0
 17 18  1  0  0  0  0
 18  2  2  0  0  0  0
 19 24  1  0  0  0  0
 19 13  1  0  0  0  0
 20 19  2  0  0  0  0
 21 22  2  0  0  0  0
 21 20  1  0  0  0  0
 22 23  1  0  0  0  0
 23 24  2  0  0  0  0
M  END
>  <Pose>
1

>  <Score>
-8.983

$$$$
