/Users/jonathanwahrer/Desktop/Msc/3_Semester/Drug_Design_Praktikum/waehrer_HTS_screening/HTS_experiment/out/docking_results/vina_output/5l4q/1576_docked.pdbqt
 OpenBabel03212218533D

 30 33  0  0  0  0  0  0  0  0999 V2000
  -19.1430   -0.9630  -29.6000 N   0  0  0  0  0  0  0  0  0  0  0  0
  -18.1920   -1.1430  -30.6760 C   0  0  0  0  0  2  0  0  0  0  0  0
  -18.7390   -0.4560  -31.9250 C   0  0  0  0  0  2  0  0  0  0  0  0
  -20.1680   -0.7050  -32.0250 N   0  0  0  0  0  0  0  0  0  0  0  0
  -21.0150   -0.3080  -30.9250 C   0  0  0  0  0  2  0  0  0  0  0  0
  -20.1260    0.1170  -29.7810 C   0  0  0  0  0  2  0  0  0  0  0  0
  -20.7400   -1.3230  -33.1720 C   0  0  0  0  0  0  0  0  0  0  0  0
  -19.9670   -1.6540  -34.1230 O   0  0  0  0  0  0  0  0  0  0  0  0
  -22.1730   -1.6010  -33.3270 C   0  0  0  0  0  2  0  0  0  0  0  0
  -22.7270   -1.1130  -34.5890 N   0  0  0  0  0  0  0  0  0  0  0  0
  -22.6370   -1.6310  -35.7970 N   0  0  0  0  0  0  0  0  0  0  0  0
  -23.2750   -0.9090  -36.7210 C   0  0  0  0  0  0  0  0  0  0  0  0
  -23.8270    0.1700  -36.0540 C   0  0  0  0  0  3  0  0  0  0  0  0
  -23.4720    0.0180  -34.7320 C   0  0  0  0  0  0  0  0  0  0  0  0
  -23.8460    0.9470  -33.6460 C   0  0  0  0  0  1  0  0  0  0  0  0
  -23.3730   -1.2030  -38.1620 C   0  0  0  0  0  0  0  0  0  0  0  0
  -23.9830   -2.2180  -38.5540 O   0  0  0  0  0  0  0  0  0  0  0  0
  -22.7700   -0.3190  -39.0820 N   0  0  0  0  0  0  0  0  0  0  0  0
  -22.0530    0.8670  -38.7040 C   0  0  0  0  0  2  0  0  0  0  0  0
  -22.8620   -0.6000  -40.5180 C   0  0  0  0  0  2  0  0  0  0  0  0
  -21.4470    1.4340  -39.9940 C   0  0  0  0  0  2  0  0  0  0  0  0
  -20.7160    0.4770  -40.6620 O   0  0  0  0  0  0  0  0  0  0  0  0
  -21.4520   -0.6090  -41.0720 C   0  0  0  0  0  2  0  0  0  0  0  0
  -19.2050   -1.7180  -28.4280 C   0  0  0  0  0  0  0  0  0  0  0  0
  -19.8960   -2.9040  -28.2940 C   0  0  0  0  0  0  0  0  0  0  0  0
  -20.7580   -3.5220  -29.6570 Cl  0  0  0  0  0  0  0  0  0  0  0  0
  -19.9300   -3.6220  -27.1150 C   0  0  0  0  0  3  0  0  0  0  0  0
  -19.2630   -3.1620  -26.0240 C   0  0  0  0  0  3  0  0  0  0  0  0
  -18.5620   -1.9880  -26.1090 C   0  0  0  0  0  3  0  0  0  0  0  0
  -18.5320   -1.2750  -27.2910 C   0  0  0  0  0  3  0  0  0  0  0  0
  1 24  1  0  0  0  0
  2  1  1  0  0  0  0
  3  2  1  0  0  0  0
  4  3  1  0  0  0  0
  4  5  1  0  0  0  0
  5  6  1  0  0  0  0
  6  1  1  0  0  0  0
  7  4  1  0  0  0  0
  8  7  2  0  0  0  0
  9  7  1  0  0  0  0
 10  9  1  0  0  0  0
 11 10  1  0  0  0  0
 12 13  1  0  0  0  0
 12 11  2  0  0  0  0
 13 14  2  0  0  0  0
 14 10  1  0  0  0  0
 14 15  1  0  0  0  0
 16 12  1  0  0  0  0
 17 16  2  0  0  0  0
 18 19  1  0  0  0  0
 18 16  1  0  0  0  0
 20 18  1  0  0  0  0
 21 19  1  0  0  0  0
 22 21  1  0  0  0  0
 23 22  1  0  0  0  0
 23 20  1  0  0  0  0
 24 25  2  0  0  0  0
 24 30  1  0  0  0  0
 25 27  1  0  0  0  0
 26 25  1  0  0  0  0
 27 28  2  0  0  0  0
 29 28  1  0  0  0  0
 30 29  2  0  0  0  0
M  END
>  <Pose>
1

>  <Score>
-8.954

$$$$
