/Users/jonathanwahrer/Desktop/Msc/3_Semester/Drug_Design_Praktikum/waehrer_HTS_screening/HTS_experiment/out/docking_results/vina_output/5l4q/1581_docked.pdbqt
 OpenBabel03212218533D

 27 30  0  0  1  0  0  0  0  0999 V2000
  -20.3870   -3.7090  -30.1890 N   0  0  0  0  0  0  0  0  0  0  0  0
  -20.7080   -4.9560  -30.7480 C   0  0  0  0  0  2  0  0  0  0  0  0
  -21.7000   -4.9350  -31.8630 C   0  0  0  0  0  2  0  0  0  0  0  0
  -21.6740   -3.6780  -32.5960 N   0  0  0  0  0  0  0  0  0  0  0  0
  -22.3960   -3.3840  -33.6770 N   0  0  0  0  0  0  0  0  0  0  0  0
  -22.1080   -2.1410  -34.0740 C   0  0  0  0  0  0  0  0  0  0  0  0
  -21.1700   -1.6480  -33.2020 C   0  0  0  0  0  3  0  0  0  0  0  0
  -20.8950   -2.6400  -32.2540 C   0  0  0  0  0  0  0  0  0  0  0  0
  -19.9830   -2.6860  -31.0850 C   0  0  0  0  0  2  0  0  0  0  0  0
  -21.0380   -3.3140  -29.0100 C   0  0  0  0  0  2  0  0  0  0  0  0
  -20.2980   -2.4000  -28.1280 C   0  0  0  0  0  0  0  0  0  0  0  0
  -20.1080   -1.0930  -28.3810 N   0  0  0  0  0  0  0  0  0  0  0  0
  -19.4220   -0.2860  -27.5490 C   0  0  0  0  0  0  0  0  0  0  0  0
  -18.8760   -0.7260  -26.4040 N   0  0  0  0  0  0  0  0  0  0  0  0
  -19.2970    1.0540  -27.9280 C   0  0  0  0  0  3  0  0  0  0  0  0
  -18.1880    0.0940  -25.5710 C   0  0  0  0  0  3  0  0  0  0  0  0
  -19.0350   -2.0300  -26.0980 C   0  0  0  0  0  0  0  0  0  0  0  0
  -18.0600    1.4140  -25.9390 C   0  0  0  0  0  0  0  0  0  0  0  0
  -17.1690    2.4800  -24.8620 Cl  0  0  0  0  0  0  0  0  0  0  0  0
  -18.6050    1.9090  -27.1060 C   0  0  0  0  0  3  0  0  0  0  0  0
  -19.7360   -2.8540  -26.9480 C   0  0  0  0  0  3  0  0  0  0  0  0
  -18.5360   -2.4900  -25.0250 O   0  0  0  0  0  0  0  0  0  0  0  0
  -22.7010   -1.4300  -35.2490 C   0  0  1  0  0  3  0  0  0  0  0  0
  -22.9780   -2.3920  -36.2350 O   0  0  0  0  0  0  0  0  0  0  0  0
  -23.5090   -3.1480  -35.8490 H   0  0  0  0  0  0  0  0  0  0  0  0
  -24.0510   -0.8290  -34.8670 C   0  0  0  0  0  2  0  0  0  0  0  0
  -23.8350    0.6280  -34.4880 C   0  0  0  0  0  1  0  0  0  0  0  0
  1 10  1  0  0  0  0
  2  1  1  0  0  0  0
  3  2  1  0  0  0  0
  4  8  1  0  0  0  0
  4  3  1  0  0  0  0
  5  4  1  0  0  0  0
  6  5  2  0  0  0  0
  6  7  1  0  0  0  0
  7  8  2  0  0  0  0
  8  9  1  0  0  0  0
  9  1  1  0  0  0  0
 10 11  1  0  0  0  0
 11 21  2  0  0  0  0
 12 11  1  0  0  0  0
 12 13  2  0  0  0  0
 13 14  1  0  0  0  0
 14 17  1  0  0  0  0
 14 16  1  0  0  0  0
 15 13  1  0  0  0  0
 15 20  2  0  0  0  0
 17 22  2  0  0  0  0
 18 16  2  0  0  0  0
 18 19  1  0  0  0  0
 20 18  1  0  0  0  0
 21 17  1  0  0  0  0
 23 26  1  1  0  0  0
 23  6  1  0  0  0  0
 24 25  1  0  0  0  0
 24 23  1  0  0  0  0
 26 27  1  0  0  0  0
M  END
>  <Pose>
1

>  <Score>
-9.205

$$$$
