/Users/jonathanwahrer/Desktop/Msc/3_Semester/Drug_Design_Praktikum/waehrer_HTS_screening/HTS_experiment/out/docking_results/vina_output/5l4q/1586_docked.pdbqt
 OpenBabel03212218543D

 29 32  0  0  1  0  0  0  0  0999 V2000
  -19.5080   -0.4320  -32.0660 C   0  0  0  0  0  0  0  0  0  0  0  0
  -18.2480   -0.0300  -32.0220 O   0  0  0  0  0  0  0  0  0  0  0  0
  -20.3320    0.2500  -32.9770 N   0  0  0  0  0  0  0  0  0  0  0  0
  -21.7170   -0.0020  -33.1630 C   0  0  0  0  0  2  0  0  0  0  0  0
  -22.3040    1.0910  -34.0710 C   0  0  1  0  0  3  0  0  0  0  0  0
  -21.5500    1.0200  -35.2960 N   0  0  0  0  0  0  0  0  0  0  0  0
  -20.1460    1.2520  -35.2190 C   0  0  0  0  0  2  0  0  0  0  0  0
  -19.6730    1.2790  -33.7800 C   0  0  0  0  0  2  0  0  0  0  0  0
  -22.1810    0.7320  -36.5180 C   0  0  0  0  0  0  0  0  0  0  0  0
  -21.6130    1.0480  -37.5790 O   0  0  0  0  0  0  0  0  0  0  0  0
  -23.4980    0.0620  -36.5010 C   0  0  1  0  0  3  0  0  0  0  0  0
  -24.3020    0.7520  -35.5350 N   0  0  0  0  0  0  0  0  0  0  0  0
  -23.7490    0.9620  -34.2470 C   0  0  0  0  0  0  0  0  0  0  0  0
  -24.4830    1.0470  -33.2140 O   0  0  0  0  0  0  0  0  0  0  0  0
  -25.2700    1.0970  -35.7480 H   0  0  0  0  0  0  0  0  0  0  0  0
  -19.7730   -1.5070  -31.1500 C   0  0  0  0  0  0  0  0  0  0  0  0
  -20.4810   -2.6580  -31.3920 C   0  0  0  0  0  3  0  0  0  0  0  0
  -20.7250   -3.6440  -30.4350 C   0  0  0  0  0  3  0  0  0  0  0  0
  -20.2450   -3.4880  -29.1760 C   0  0  0  0  0  0  0  0  0  0  0  0
  -20.5330   -4.7150  -27.9330 Cl  0  0  0  0  0  0  0  0  0  0  0  0
  -19.5280   -2.3610  -28.8680 C   0  0  0  0  0  3  0  0  0  0  0  0
  -19.2990   -1.4000  -29.8300 C   0  0  0  0  0  3  0  0  0  0  0  0
  -24.1150   -0.0950  -37.8370 C   0  0  0  0  0  2  0  0  0  0  0  0
  -23.8930   -1.4610  -38.3400 C   0  0  0  0  0  0  0  0  0  0  0  0
  -24.5850   -2.5710  -38.0720 N   0  0  0  0  0  0  0  0  0  0  0  0
  -24.0340   -3.6190  -38.7530 C   0  0  0  0  0  3  0  0  0  0  0  0
  -22.9890   -3.1720  -39.4520 N   0  0  0  0  0  0  0  0  0  0  0  0
  -22.8830   -1.8600  -39.2170 C   0  0  0  0  0  3  0  0  0  0  0  0
  -22.3780   -3.7260  -40.0580 H   0  0  0  0  0  0  0  0  0  0  0  0
  1  2  2  0  0  0  0
  1 16  1  0  0  0  0
  3  1  1  0  0  0  0
  4  3  1  0  0  0  0
  5  4  1  1  0  0  0
  6  7  1  0  0  0  0
  6  5  1  0  0  0  0
  7  8  1  0  0  0  0
  8  3  1  0  0  0  0
  9 11  1  0  0  0  0
  9  6  1  0  0  0  0
 10  9  2  0  0  0  0
 11 23  1  6  0  0  0
 11 12  1  0  0  0  0
 12 13  1  0  0  0  0
 13  5  1  0  0  0  0
 13 14  2  0  0  0  0
 15 12  1  0  0  0  0
 16 22  1  0  0  0  0
 17 16  2  0  0  0  0
 17 18  1  0  0  0  0
 18 19  2  0  0  0  0
 19 21  1  0  0  0  0
 19 20  1  0  0  0  0
 22 21  2  0  0  0  0
 24 25  1  0  0  0  0
 24 23  1  0  0  0  0
 26 25  2  0  0  0  0
 27 28  1  0  0  0  0
 27 26  1  0  0  0  0
 28 24  2  0  0  0  0
 29 27  1  0  0  0  0
M  END
>  <Pose>
1

>  <Score>
-9.680

$$$$
