/Users/jonathanwahrer/Desktop/Msc/3_Semester/Drug_Design_Praktikum/waehrer_HTS_screening/HTS_experiment/out/docking_results/vina_output/5l4q/1591_docked.pdbqt
 OpenBabel03212218543D

 26 29  0  0  0  0  0  0  0  0999 V2000
  -17.7940    1.0960  -33.7830 Cl  0  0  0  0  0  0  0  0  0  0  0  0
  -19.1660    0.1040  -33.3450 C   0  0  0  0  0  0  0  0  0  0  0  0
  -20.2140   -0.0430  -34.2100 C   0  0  0  0  0  0  0  0  0  0  0  0
  -21.2600   -0.8460  -33.7480 C   0  0  0  0  0  3  0  0  0  0  0  0
  -21.2050   -1.4170  -32.5350 N   0  0  0  0  0  0  0  0  0  0  0  0
  -20.2080   -1.2890  -31.6880 N   0  0  0  0  0  0  0  0  0  0  0  0
  -19.1820   -0.5270  -32.0890 C   0  0  0  0  0  0  0  0  0  0  0  0
  -18.1810   -0.3440  -31.3510 O   0  0  0  0  0  0  0  0  0  0  0  0
  -20.2530    0.5450  -35.4970 N   0  0  0  0  0  0  0  0  0  0  0  0
  -21.2080    1.5770  -35.8630 C   0  0  0  0  0  2  0  0  0  0  0  0
  -22.1340    1.1150  -36.9590 C   0  0  0  0  0  2  0  0  0  0  0  0
  -21.3300    0.3710  -37.8960 N   0  0  0  0  0  0  0  0  0  0  0  0
  -19.9140    0.6330  -37.9290 C   0  0  0  0  0  2  0  0  0  0  0  0
  -19.3550    0.1460  -36.5750 C   0  0  0  0  0  2  0  0  0  0  0  0
  -21.9090   -0.5890  -38.7610 C   0  0  0  0  0  0  0  0  0  0  0  0
  -21.7000   -0.7290  -40.1010 N   0  0  0  0  0  0  0  0  0  0  0  0
  -22.4190   -1.7380  -40.5510 N   0  0  0  0  0  0  0  0  0  0  0  0
  -23.0860   -2.2500  -39.5250 C   0  0  0  0  0  0  0  0  0  0  0  0
  -22.7670   -1.5490  -38.4690 O   0  0  0  0  0  0  0  0  0  0  0  0
  -24.0400   -3.4060  -39.5050 C   0  0  0  0  0  1  0  0  0  0  0  0
  -20.2300   -1.9300  -30.4170 C   0  0  0  0  0  0  0  0  0  0  0  0
  -20.1590   -1.2320  -29.2280 C   0  0  0  0  0  3  0  0  0  0  0  0
  -20.1820   -1.8640  -28.0030 C   0  0  0  0  0  3  0  0  0  0  0  0
  -20.2760   -3.2390  -27.9230 C   0  0  0  0  0  3  0  0  0  0  0  0
  -20.3470   -3.9420  -29.1070 C   0  0  0  0  0  3  0  0  0  0  0  0
  -20.3240   -3.3040  -30.3330 C   0  0  0  0  0  3  0  0  0  0  0  0
  1  2  1  0  0  0  0
  2  7  1  0  0  0  0
  3  4  1  0  0  0  0
  3  2  2  0  0  0  0
  4  5  2  0  0  0  0
  5  6  1  0  0  0  0
  6 21  1  0  0  0  0
  7  6  1  0  0  0  0
  7  8  2  0  0  0  0
  9  3  1  0  0  0  0
 10  9  1  0  0  0  0
 11 10  1  0  0  0  0
 12 11  1  0  0  0  0
 13 12  1  0  0  0  0
 13 14  1  0  0  0  0
 14  9  1  0  0  0  0
 15 19  1  0  0  0  0
 15 12  1  0  0  0  0
 16 15  2  0  0  0  0
 17 16  1  0  0  0  0
 17 18  2  0  0  0  0
 18 20  1  0  0  0  0
 18 19  1  0  0  0  0
 21 26  2  0  0  0  0
 21 22  1  0  0  0  0
 22 23  2  0  0  0  0
 23 24  1  0  0  0  0
 25 24  2  0  0  0  0
 26 25  1  0  0  0  0
M  END
>  <Pose>
1

>  <Score>
-9.024

$$$$
