/Users/jonathanwahrer/Desktop/Msc/3_Semester/Drug_Design_Praktikum/waehrer_HTS_screening/HTS_experiment/out/docking_results/vina_output/5l4q/1594_docked.pdbqt
 OpenBabel03212218543D

 27 30  0  0  0  0  0  0  0  0999 V2000
  -22.1050   -2.6550  -33.4480 C   0  0  0  0  0  0  0  0  0  0  0  0
  -22.2160   -3.8200  -33.9810 O   0  0  0  0  0  0  0  0  0  0  0  0
  -22.6350   -1.5970  -34.1590 N   0  0  0  0  0  0  0  0  0  0  0  0
  -22.6060   -0.2260  -33.7080 C   0  0  0  0  0  2  0  0  0  0  0  0
  -21.6790    0.6070  -34.5660 C   0  0  0  0  0  2  0  0  0  0  0  0
  -21.7830    0.1560  -35.9950 C   0  0  0  0  0  0  0  0  0  0  0  0
  -22.5060   -0.9240  -36.4220 C   0  0  0  0  0  0  0  0  0  0  0  0
  -22.3270   -0.9710  -37.7680 N   0  0  0  0  0  0  0  0  0  0  0  0
  -21.5470    0.0060  -38.1710 N   0  0  0  0  0  0  0  0  0  0  0  0
  -21.1740    0.7420  -37.1160 C   0  0  0  0  0  0  0  0  0  0  0  0
  -20.4240    1.7700  -37.0960 O   0  0  0  0  0  0  0  0  0  0  0  0
  -23.2840   -1.7800  -35.4810 C   0  0  0  0  0  2  0  0  0  0  0  0
  -22.7750   -1.7110  -38.3600 H   0  0  0  0  0  0  0  0  0  0  0  0
  -21.4340   -2.5820  -32.1610 C   0  0  0  0  0  0  0  0  0  0  0  0
  -20.5630   -1.6730  -31.7240 N   0  0  0  0  0  0  0  0  0  0  0  0
  -20.1890   -1.9830  -30.4730 C   0  0  0  0  0  0  0  0  0  0  0  0
  -20.8220   -3.1010  -30.0990 N   0  0  0  0  0  0  0  0  0  0  0  0
  -19.2910   -1.3060  -29.6290 C   0  0  0  0  0  3  0  0  0  0  0  0
  -20.6000   -3.6150  -28.8580 C   0  0  0  0  0  3  0  0  0  0  0  0
  -21.6000   -3.5020  -31.1130 C   0  0  0  0  0  3  0  0  0  0  0  0
  -19.7260   -2.9720  -28.0110 C   0  0  0  0  0  0  0  0  0  0  0  0
  -19.4090   -3.5970  -26.4030 Cl  0  0  0  0  0  0  0  0  0  0  0  0
  -19.0660   -1.8150  -28.3870 C   0  0  0  0  0  3  0  0  0  0  0  0
  -21.1110    0.3020  -39.5430 C   0  0  0  0  0  2  0  0  0  0  0  0
  -21.4970   -0.8180  -40.4820 C   0  0  0  0  0  2  0  0  0  0  0  0
  -20.9960   -2.0470  -40.0690 O   0  0  0  0  0  0  0  0  0  0  0  0
  -21.7190   -2.6500  -39.7220 H   0  0  0  0  0  0  0  0  0  0  0  0
  1 14  1  0  0  0  0
  2  1  2  0  0  0  0
  3  4  1  0  0  0  0
  3  1  1  0  0  0  0
  5  4  1  0  0  0  0
  6  5  1  0  0  0  0
  7  6  2  0  0  0  0
  7 12  1  0  0  0  0
  8  7  1  0  0  0  0
  9  8  1  0  0  0  0
  9 10  1  0  0  0  0
 10 11  2  0  0  0  0
 10  6  1  0  0  0  0
 12  3  1  0  0  0  0
 13  8  1  0  0  0  0
 14 15  1  0  0  0  0
 14 20  2  0  0  0  0
 15 16  2  0  0  0  0
 16 17  1  0  0  0  0
 16 18  1  0  0  0  0
 17 19  1  0  0  0  0
 18 23  2  0  0  0  0
 19 21  2  0  0  0  0
 20 17  1  0  0  0  0
 21 22  1  0  0  0  0
 23 21  1  0  0  0  0
 24  9  1  0  0  0  0
 25 26  1  0  0  0  0
 25 24  1  0  0  0  0
 26 27  1  0  0  0  0
M  END
>  <Pose>
1

>  <Score>
-8.209

$$$$
