/Users/jonathanwahrer/Desktop/Msc/3_Semester/Drug_Design_Praktikum/waehrer_HTS_screening/HTS_experiment/out/docking_results/vina_output/5l4q/1612_docked.pdbqt
 OpenBabel03212218543D

 31 34  0  0  0  0  0  0  0  0999 V2000
  -20.0500   -0.9590  -32.6900 N   0  0  0  0  0  0  0  0  0  0  0  0
  -20.1830   -1.5690  -31.4940 C   0  0  0  0  0  0  0  0  0  0  0  0
  -19.6500   -0.7220  -30.5510 C   0  0  0  0  0  0  0  0  0  0  0  0
  -19.2180    0.3500  -31.1860 N   0  0  0  0  0  0  0  0  0  0  0  0
  -19.4580    0.2260  -32.5150 C   0  0  0  0  0  0  0  0  0  0  0  0
  -19.6710   -1.1250  -29.2490 N   0  0  0  0  0  0  0  0  0  0  0  0
  -20.1920   -2.3020  -28.8850 C   0  0  0  0  0  0  0  0  0  0  0  0
  -20.1890   -2.6290  -27.6650 O   0  0  0  0  0  0  0  0  0  0  0  0
  -20.7210   -3.1560  -29.7710 N   0  0  0  0  0  0  0  0  0  0  0  0
  -20.7140   -2.7830  -31.0730 C   0  0  0  0  0  0  0  0  0  0  0  0
  -21.2090   -3.5750  -31.9040 O   0  0  0  0  0  0  0  0  0  0  0  0
  -19.1140   -0.2370  -28.2310 C   0  0  0  0  0  1  0  0  0  0  0  0
  -21.1170   -4.0650  -29.4440 H   0  0  0  0  0  0  0  0  0  0  0  0
  -19.1740    1.2440  -33.4870 N   0  0  0  0  0  0  0  0  0  0  0  0
  -18.0420    1.0180  -34.4080 C   0  0  0  0  0  2  0  0  0  0  0  0
  -18.4660    1.0980  -35.8400 C   0  0  0  0  0  2  0  0  0  0  0  0
  -19.6710    1.8810  -35.9870 N   0  0  0  0  0  0  0  0  0  0  0  0
  -19.8660    2.9800  -35.0640 C   0  0  0  0  0  2  0  0  0  0  0  0
  -20.6150    1.5820  -37.0050 C   0  0  0  0  0  0  0  0  0  0  0  0
  -19.9040    2.4510  -33.6420 C   0  0  0  0  0  2  0  0  0  0  0  0
  -20.4100    0.6410  -37.8020 O   0  0  0  0  0  0  0  0  0  0  0  0
  -21.8630    2.3690  -37.1530 C   0  0  0  0  0  2  0  0  0  0  0  0
  -22.6320    1.7780  -38.3310 C   0  0  0  0  0  1  0  0  0  0  0  0
  -20.5410   -1.5240  -33.9060 C   0  0  0  0  0  2  0  0  0  0  0  0
  -21.8300   -0.9830  -34.3990 C   0  0  0  0  0  0  0  0  0  0  0  0
  -22.4110   -1.4280  -35.5520 C   0  0  0  0  0  3  0  0  0  0  0  0
  -23.5980   -0.8390  -35.9700 C   0  0  0  0  0  0  0  0  0  0  0  0
  -24.3250   -1.4390  -37.4600 Cl  0  0  0  0  0  0  0  0  0  0  0  0
  -24.2220    0.1750  -35.2780 C   0  0  0  0  0  3  0  0  0  0  0  0
  -23.6200    0.6140  -34.1120 C   0  0  0  0  0  3  0  0  0  0  0  0
  -22.4530    0.0540  -33.6770 C   0  0  0  0  0  3  0  0  0  0  0  0
  1  5  1  0  0  0  0
  1  2  1  0  0  0  0
  2 10  1  0  0  0  0
  2  3  2  0  0  0  0
  3  6  1  0  0  0  0
  4  3  1  0  0  0  0
  5  4  2  0  0  0  0
  6  7  1  0  0  0  0
  6 12  1  0  0  0  0
  7  8  2  0  0  0  0
  9 13  1  0  0  0  0
  9  7  1  0  0  0  0
 10  9  1  0  0  0  0
 11 10  2  0  0  0  0
 14  5  1  0  0  0  0
 15 14  1  0  0  0  0
 16 15  1  0  0  0  0
 17 16  1  0  0  0  0
 17 18  1  0  0  0  0
 18 20  1  0  0  0  0
 19 17  1  0  0  0  0
 20 14  1  0  0  0  0
 21 19  2  0  0  0  0
 22 19  1  0  0  0  0
 23 22  1  0  0  0  0
 24  1  1  0  0  0  0
 25 24  1  0  0  0  0
 25 31  1  0  0  0  0
 26 25  2  0  0  0  0
 27 26  1  0  0  0  0
 27 29  2  0  0  0  0
 28 27  1  0  0  0  0
 29 30  1  0  0  0  0
 30 31  2  0  0  0  0
M  END
>  <Pose>
1

>  <Score>
-8.154

$$$$
