/Users/jonathanwahrer/Desktop/Msc/3_Semester/Drug_Design_Praktikum/waehrer_HTS_screening/HTS_experiment/out/docking_results/vina_output/5l4q/1624_docked.pdbqt
 OpenBabel03212218553D

 32 35  0  0  1  0  0  0  0  0999 V2000
  -21.2920   -0.4190  -34.5130 C   0  0  1  0  0  3  0  0  0  0  0  0
  -22.7530   -0.2250  -34.5430 N   0  0  0  0  0  0  0  0  0  0  0  0
  -23.0320    1.1050  -34.1250 C   0  0  0  0  0  0  0  0  0  0  0  0
  -24.0960    1.5430  -33.6820 O   0  0  0  0  0  0  0  0  0  0  0  0
  -21.7990    1.8920  -34.3200 C   0  0  0  0  0  0  0  0  0  0  0  0
  -21.6110    3.1260  -34.0690 O   0  0  0  0  0  0  0  0  0  0  0  0
  -20.8230    0.9620  -34.8620 C   0  0  0  0  0  0  0  0  0  0  0  0
  -19.7360    1.3230  -35.4990 C   0  0  0  0  0  0  0  0  0  0  0  0
  -18.8660    0.3230  -35.9240 O   0  0  0  0  0  1  0  0  0  0  0  0
  -23.6430   -1.2790  -34.9560 C   0  0  0  0  0  2  0  0  0  0  0  0
  -24.0750   -1.2440  -36.3730 C   0  0  0  0  0  2  0  0  0  0  0  0
  -23.2540   -1.8510  -37.3540 N   0  0  0  0  0  4  0  0  0  0  0  0
  -22.5020   -0.9110  -38.1580 C   0  0  0  0  0  2  0  0  0  0  0  0
  -22.7330   -1.0620  -39.6430 C   0  0  0  0  0  2  0  0  0  0  0  0
  -22.6360   -2.3460  -40.1130 O   0  0  0  0  0  0  0  0  0  0  0  0
  -23.3270   -3.2690  -39.3510 C   0  0  0  0  0  2  0  0  0  0  0  0
  -24.1350   -2.5520  -38.3130 C   0  0  0  0  0  2  0  0  0  0  0  0
  -22.6500   -2.6020  -36.9820 H   0  0  0  0  0  0  0  0  0  0  0  0
  -20.8780   -0.8430  -33.1820 C   0  0  0  0  0  0  0  0  0  0  0  0
  -20.2870   -0.0080  -32.2890 C   0  0  0  0  0  3  0  0  0  0  0  0
  -19.8980   -0.4040  -31.0170 C   0  0  0  0  0  3  0  0  0  0  0  0
  -20.1120   -1.6930  -30.6260 C   0  0  0  0  0  0  0  0  0  0  0  0
  -19.6500   -2.2540  -29.0430 Cl  0  0  0  0  0  0  0  0  0  0  0  0
  -20.7180   -2.5760  -31.5210 C   0  0  0  0  0  3  0  0  0  0  0  0
  -21.0950   -2.1600  -32.7780 C   0  0  0  0  0  3  0  0  0  0  0  0
  -19.3450    2.6920  -35.8150 C   0  0  0  0  0  0  0  0  0  0  0  0
  -18.4430    3.2890  -34.9410 C   0  0  0  0  0  3  0  0  0  0  0  0
  -18.0120    4.5620  -35.1890 C   0  0  0  0  0  3  0  0  0  0  0  0
  -18.4550    5.2680  -36.2900 C   0  0  0  0  0  0  0  0  0  0  0  0
  -19.3480    4.6710  -37.1540 C   0  0  0  0  0  3  0  0  0  0  0  0
  -17.8800    6.8800  -36.5630 Cl  0  0  0  0  0  0  0  0  0  0  0  0
  -19.7760    3.3850  -36.8940 C   0  0  0  0  0  3  0  0  0  0  0  0
  1 19  1  1  0  0  0
  2  1  1  0  0  0  0
  2  3  1  0  0  0  0
  3  4  2  0  0  0  0
  5  3  1  0  0  0  0
  5  6  2  0  0  0  0
  7  1  1  0  0  0  0
  7  5  1  0  0  0  0
  8  7  2  0  0  0  0
  9  8  1  0  0  0  0
 10  2  1  0  0  0  0
 11 10  1  0  0  0  0
 12 18  1  0  0  0  0
 12 11  1  0  0  0  0
 13 12  1  0  0  0  0
 14 13  1  0  0  0  0
 15 14  1  0  0  0  0
 15 16  1  0  0  0  0
 16 17  1  0  0  0  0
 17 12  1  0  0  0  0
 19 25  2  0  0  0  0
 19 20  1  0  0  0  0
 20 21  2  0  0  0  0
 21 22  1  0  0  0  0
 22 23  1  0  0  0  0
 24 22  2  0  0  0  0
 25 24  1  0  0  0  0
 26  8  1  0  0  0  0
 26 27  1  0  0  0  0
 28 27  2  0  0  0  0
 29 28  1  0  0  0  0
 30 32  1  0  0  0  0
 30 29  2  0  0  0  0
 31 29  1  0  0  0  0
 32 26  2  0  0  0  0
M  END
>  <Pose>
1

>  <Score>
-8.169

$$$$
