/Users/jonathanwahrer/Desktop/Msc/3_Semester/Drug_Design_Praktikum/waehrer_HTS_screening/HTS_experiment/out/docking_results/vina_output/5l4q/1631_docked.pdbqt
 OpenBabel03212218563D

 29 32  0  0  1  0  0  0  0  0999 V2000
  -20.6000    0.1800  -35.1750 C   0  0  1  0  0  3  0  0  0  0  0  0
  -21.4940   -0.6100  -34.3760 N   0  0  0  0  0  0  0  0  0  0  0  0
  -22.7840   -0.6670  -34.9750 C   0  0  0  0  0  0  0  0  0  0  0  0
  -23.8680   -1.0280  -34.4310 O   0  0  0  0  0  0  0  0  0  0  0  0
  -22.6460   -0.2210  -36.3770 C   0  0  0  0  0  0  0  0  0  0  0  0
  -23.5840   -0.1410  -37.2030 O   0  0  0  0  0  0  0  0  0  0  0  0
  -21.2310    0.0850  -36.5370 C   0  0  0  0  0  0  0  0  0  0  0  0
  -20.6490    0.2760  -37.7020 C   0  0  0  0  0  0  0  0  0  0  0  0
  -19.2800    0.6160  -37.6850 O   0  0  0  0  0  1  0  0  0  0  0  0
  -20.4780    1.5890  -34.7220 C   0  0  0  0  0  0  0  0  0  0  0  0
  -19.2470    2.1460  -34.3970 C   0  0  0  0  0  3  0  0  0  0  0  0
  -19.0900    3.4450  -33.9740 C   0  0  0  0  0  0  0  0  0  0  0  0
  -17.5230    4.1150  -33.5770 Cl  0  0  0  0  0  0  0  0  0  0  0  0
  -20.2180    4.2280  -33.8690 C   0  0  0  0  0  3  0  0  0  0  0  0
  -21.4620    3.7190  -34.1800 C   0  0  0  0  0  3  0  0  0  0  0  0
  -21.5910    2.4140  -34.6010 C   0  0  0  0  0  3  0  0  0  0  0  0
  -21.3210    0.1560  -38.9890 C   0  0  0  0  0  0  0  0  0  0  0  0
  -21.8090    1.3060  -39.6240 C   0  0  0  0  0  3  0  0  0  0  0  0
  -22.4230    1.2260  -40.8550 C   0  0  0  0  0  3  0  0  0  0  0  0
  -22.5870    0.0290  -41.5190 C   0  0  0  0  0  3  0  0  0  0  0  0
  -22.1140   -1.1130  -40.9130 C   0  0  0  0  0  3  0  0  0  0  0  0
  -21.4930   -1.0290  -39.6660 C   0  0  0  0  0  3  0  0  0  0  0  0
  -21.1580   -1.2460  -33.1620 C   0  0  1  0  0  3  0  0  0  0  0  0
  -21.3770   -2.5870  -33.1130 N   0  0  0  0  0  0  0  0  0  0  0  0
  -21.1020   -3.3030  -32.0240 C   0  0  0  0  0  3  0  0  0  0  0  0
  -21.7750   -3.0990  -33.9480 H   0  0  0  0  0  0  0  0  0  0  0  0
  -20.5790   -2.6490  -30.9320 C   0  0  0  0  0  3  0  0  0  0  0  0
  -20.3640   -1.2880  -31.0050 C   0  0  0  0  0  3  0  0  0  0  0  0
  -20.6470   -0.5730  -32.1080 N   0  0  0  0  0  0  0  0  0  0  0  0
  1 10  1  1  0  0  0
  1  2  1  0  0  0  0
  3  4  2  0  0  0  0
  3  2  1  0  0  0  0
  5  3  1  0  0  0  0
  6  5  2  0  0  0  0
  7  5  1  0  0  0  0
  7  1  1  0  0  0  0
  8  9  1  0  0  0  0
  8  7  2  0  0  0  0
 10 16  2  0  0  0  0
 10 11  1  0  0  0  0
 11 12  2  0  0  0  0
 12 14  1  0  0  0  0
 12 13  1  0  0  0  0
 15 14  2  0  0  0  0
 16 15  1  0  0  0  0
 17  8  1  0  0  0  0
 18 17  1  0  0  0  0
 19 18  2  0  0  0  0
 20 21  2  0  0  0  0
 20 19  1  0  0  0  0
 21 22  1  0  0  0  0
 22 17  2  0  0  0  0
 23  2  1  6  0  0  0
 23 24  1  0  0  0  0
 23 29  1  0  0  0  0
 24 25  1  0  0  0  0
 25 27  2  0  0  0  0
 26 24  1  0  0  0  0
 28 27  1  0  0  0  0
 29 28  2  0  0  0  0
M  END
>  <Pose>
1

>  <Score>
-7.733

$$$$
