/Users/jonathanwahrer/Desktop/Msc/3_Semester/Drug_Design_Praktikum/waehrer_HTS_screening/HTS_experiment/out/docking_results/vina_output/5l4q/1637_docked.pdbqt
 OpenBabel03212218563D

 29 32  0  0  0  0  0  0  0  0999 V2000
  -21.1540    2.1920  -37.3350 C   0  0  0  0  0  0  0  0  0  0  0  0
  -21.7860    1.0300  -37.5360 N   0  0  0  0  0  0  0  0  0  0  0  0
  -22.6470    0.4860  -36.6810 C   0  0  0  0  0  0  0  0  0  0  0  0
  -22.8920    1.1860  -35.4890 C   0  0  0  0  0  0  0  0  0  0  0  0
  -22.2530    2.3580  -35.2920 C   0  0  0  0  0  0  0  0  0  0  0  0
  -21.3880    2.8580  -36.2190 N   0  0  0  0  0  0  0  0  0  0  0  0
  -23.7350    0.4810  -34.5200 C   0  0  0  0  0  2  0  0  0  0  0  0
  -23.1680   -0.8260  -34.3960 N   0  0  0  0  0  0  0  0  0  0  0  0
  -23.7080   -1.5430  -35.6350 C   0  0  0  0  0  2  0  0  0  0  0  0
  -23.3430   -0.8130  -36.8790 C   0  0  0  0  0  2  0  0  0  0  0  0
  -21.6870   -0.9560  -34.6500 C   0  0  0  0  0  2  0  0  0  0  0  0
  -21.2280   -1.2850  -33.2270 C   0  0  0  0  0  0  0  0  0  0  0  0
  -21.3590   -2.4690  -32.6140 C   0  0  0  0  0  0  0  0  0  0  0  0
  -20.9140   -2.7310  -31.2900 C   0  0  0  0  0  0  0  0  0  0  0  0
  -22.0590   -3.7790  -33.5040 Cl  0  0  0  0  0  0  0  0  0  0  0  0
  -20.3100   -1.6400  -30.6590 C   0  0  0  0  0  0  0  0  0  0  0  0
  -21.0280   -3.9070  -30.6310 C   0  0  0  0  0  3  0  0  0  0  0  0
  -19.8620   -1.8310  -29.3840 C   0  0  0  0  0  3  0  0  0  0  0  0
  -20.1680   -0.5010  -31.2440 O   0  0  0  0  0  0  0  0  0  0  0  0
  -19.9730   -3.0480  -28.6760 C   0  0  0  0  0  3  0  0  0  0  0  0
  -20.5840   -4.1180  -29.3560 C   0  0  0  0  0  3  0  0  0  0  0  0
  -20.6010   -0.2800  -32.4950 C   0  0  0  0  0  0  0  0  0  0  0  0
  -20.4620    0.8700  -33.0640 O   0  0  0  0  0  0  0  0  0  0  0  0
  -22.5030    3.0590  -34.1210 O   0  0  0  0  0  0  0  0  0  0  0  0
  -21.9520    2.9530  -33.2630 H   0  0  0  0  0  0  0  0  0  0  0  0
  -19.9610    2.7200  -38.5360 S   0  0  0  0  0  0  0  0  0  0  0  0
  -19.5710    1.6530  -39.4320 O   0  0  0  0  0  0  0  0  0  0  0  0
  -18.7940    3.2610  -37.7650 O   0  0  0  0  0  0  0  0  0  0  0  0
  -20.7310    4.1150  -39.3940 C   0  0  0  0  0  1  0  0  0  0  0  0
  1  6  1  0  0  0  0
  2  1  2  0  0  0  0
  2  3  1  0  0  0  0
  3  4  2  0  0  0  0
  4  5  1  0  0  0  0
  4  7  1  0  0  0  0
  5 24  1  0  0  0  0
  6  5  2  0  0  0  0
  7  8  1  0  0  0  0
  9  8  1  0  0  0  0
 10  3  1  0  0  0  0
 10  9  1  0  0  0  0
 11  8  1  0  0  0  0
 11 12  1  0  0  0  0
 12 13  2  0  0  0  0
 12 22  1  0  0  0  0
 13 14  1  0  0  0  0
 14 16  2  0  0  0  0
 14 17  1  0  0  0  0
 15 13  1  0  0  0  0
 16 18  1  0  0  0  0
 17 21  2  0  0  0  0
 18 20  2  0  0  0  0
 19 16  1  0  0  0  0
 21 20  1  0  0  0  0
 22 19  1  0  0  0  0
 23 22  2  0  0  0  0
 24 25  1  0  0  0  0
 26 28  2  0  0  0  0
 26  1  1  0  0  0  0
 27 26  2  0  0  0  0
 29 26  1  0  0  0  0
M  END
>  <Pose>
1

>  <Score>
-8.577

$$$$
