/Users/jonathanwahrer/Desktop/Msc/3_Semester/Drug_Design_Praktikum/waehrer_HTS_screening/HTS_experiment/out/docking_results/vina_output/5l4q/1638_docked.pdbqt
 OpenBabel03212218563D

 38 41  0  0  1  0  0  0  0  0999 V2000
  -20.0090    0.0390  -32.3910 C   0  0  0  0  0  0  0  0  0  0  0  0
  -18.9440   -0.0290  -33.2800 C   0  0  0  0  0  0  0  0  0  0  0  0
  -19.0890    0.4520  -34.5440 N   0  0  0  0  0  0  0  0  0  0  0  0
  -20.2290    0.9990  -34.9840 C   0  0  0  0  0  0  0  0  0  0  0  0
  -21.2650    1.0680  -34.1290 N   0  0  0  0  0  0  0  0  0  0  0  0
  -21.1700    0.6070  -32.8710 C   0  0  0  0  0  3  0  0  0  0  0  0
  -20.3780    1.5070  -36.3080 N   0  0  0  0  0  0  0  0  0  0  0  0
  -19.5300    1.0810  -37.3950 C   0  0  0  0  0  2  0  0  0  0  0  0
  -20.2740    0.5590  -38.5930 C   0  0  0  0  0  2  0  0  0  0  0  0
  -21.6850    1.1160  -38.6810 C   0  0  2  0  0  0  0  0  0  0  0  0
  -21.5460    2.5370  -38.1090 C   0  0  0  0  0  2  0  0  0  0  0  0
  -21.3990    2.4900  -36.6250 C   0  0  0  0  0  2  0  0  0  0  0  0
  -22.6380    0.4270  -37.9520 N   0  0  0  0  0  0  0  0  0  0  0  0
  -22.5890   -0.9740  -37.7900 C   0  0  0  0  0  2  0  0  0  0  0  0
  -23.1830   -1.2940  -36.4080 C   0  0  0  0  0  2  0  0  0  0  0  0
  -24.0890   -0.1580  -36.0190 C   0  0  0  0  0  2  0  0  0  0  0  0
  -24.8910    0.3660  -37.1830 C   0  0  0  0  0  2  0  0  0  0  0  0
  -23.9830    0.7560  -38.3380 C   0  0  0  0  0  2  0  0  0  0  0  0
  -22.0120    1.2920  -40.1140 C   0  0  0  0  0  0  0  0  0  0  0  0
  -22.3810    2.4290  -40.5640 O   0  0  0  0  0  0  0  0  0  0  0  0
  -21.9440    0.2570  -41.0530 N   0  0  0  0  0  0  0  0  0  0  0  0
  -22.8500   -0.1690  -41.3930 H   0  0  0  0  0  0  0  0  0  0  0  0
  -21.0830   -0.1480  -41.4720 H   0  0  0  0  0  0  0  0  0  0  0  0
  -17.7480   -0.6040  -32.8120 N   0  0  0  0  0  0  0  0  0  0  0  0
  -17.5790   -0.8540  -31.8160 H   0  0  0  0  0  0  0  0  0  0  0  0
  -16.9810   -0.7960  -33.4880 H   0  0  0  0  0  0  0  0  0  0  0  0
  -19.8700   -0.5640  -30.7530 S   0  0  0  0  0  0  0  0  0  0  0  0
  -18.4860   -0.3960  -30.2170 O   0  0  0  0  0  0  0  0  0  0  0  0
  -20.8900    0.1630  -29.9160 O   0  0  0  0  0  0  0  0  0  0  0  0
  -20.3150   -2.2770  -30.7720 C   0  0  0  0  0  0  0  0  0  0  0  0
  -20.0010   -3.0840  -29.6980 C   0  0  0  0  0  0  0  0  0  0  0  0
  -20.3680   -4.4120  -29.7560 C   0  0  0  0  0  3  0  0  0  0  0  0
  -21.0340   -4.9390  -30.8570 C   0  0  0  0  0  3  0  0  0  0  0  0
  -21.3300   -4.1000  -31.9100 C   0  0  0  0  0  0  0  0  0  0  0  0
  -20.9760   -2.7670  -31.8820 C   0  0  0  0  0  3  0  0  0  0  0  0
  -22.1770   -4.7520  -33.3200 Cl  0  0  0  0  0  0  0  0  0  0  0  0
  -19.3450   -2.5320  -28.6330 O   0  0  0  0  0  0  0  0  0  0  0  0
  -19.8690   -2.3870  -27.3420 C   0  0  0  0  0  1  0  0  0  0  0  0
  1 27  1  0  0  0  0
  2 24  1  0  0  0  0
  2  1  2  0  0  0  0
  3  2  1  0  0  0  0
  4  3  2  0  0  0  0
  4  5  1  0  0  0  0
  5  6  2  0  0  0  0
  6  1  1  0  0  0  0
  7  4  1  0  0  0  0
  8  7  1  0  0  0  0
  9  8  1  0  0  0  0
 10 19  1  6  0  0  0
 10  9  1  0  0  0  0
 10 11  1  0  0  0  0
 10 13  1  0  0  0  0
 11 12  1  0  0  0  0
 12  7  1  0  0  0  0
 13 14  1  0  0  0  0
 14 15  1  0  0  0  0
 15 16  1  0  0  0  0
 17 16  1  0  0  0  0
 18 13  1  0  0  0  0
 18 17  1  0  0  0  0
 20 19  2  0  0  0  0
 21 19  1  0  0  0  0
 22 21  1  0  0  0  0
 23 21  1  0  0  0  0
 24 25  1  0  0  0  0
 26 24  1  0  0  0  0
 27 28  2  0  0  0  0
 27 29  2  0  0  0  0
 30 27  1  0  0  0  0
 30 31  1  0  0  0  0
 31 37  1  0  0  0  0
 32 31  2  0  0  0  0
 33 32  1  0  0  0  0
 34 35  1  0  0  0  0
 34 33  2  0  0  0  0
 35 30  2  0  0  0  0
 36 34  1  0  0  0  0
 37 38  1  0  0  0  0
M  END
>  <Pose>
1

>  <Score>
-8.460

$$$$
