/Users/jonathanwahrer/Desktop/Msc/3_Semester/Drug_Design_Praktikum/waehrer_HTS_screening/HTS_experiment/out/docking_results/vina_output/5l4q/1651_docked.pdbqt
 OpenBabel03212218563D

 23 26  0  0  1  0  0  0  0  0999 V2000
  -19.2550    0.3360  -27.4100 Cl  0  0  0  0  0  0  0  0  0  0  0  0
  -19.7760   -0.6310  -28.7930 C   0  0  0  0  0  0  0  0  0  0  0  0
  -20.0990   -0.0540  -29.9970 C   0  0  0  0  0  3  0  0  0  0  0  0
  -20.5100   -0.8440  -31.0810 C   0  0  0  0  0  0  0  0  0  0  0  0
  -20.6020   -2.2030  -30.9780 C   0  0  0  0  0  0  0  0  0  0  0  0
  -20.2730   -2.8020  -29.7490 C   0  0  0  0  0  3  0  0  0  0  0  0
  -19.8750   -1.9990  -28.7080 C   0  0  0  0  0  3  0  0  0  0  0  0
  -21.0340   -2.8050  -32.1880 N   0  0  0  0  0  0  0  0  0  0  0  0
  -21.2270   -1.7490  -33.1130 C   0  0  0  0  0  0  0  0  0  0  0  0
  -21.6150   -1.9210  -34.3060 O   0  0  0  0  0  0  0  0  0  0  0  0
  -20.9040   -0.4620  -32.4590 C   0  0  1  0  0  0  0  0  0  0  0  0
  -22.1750    0.3610  -32.4650 C   0  0  0  0  0  2  0  0  0  0  0  0
  -22.3770    0.7580  -33.8990 C   0  0  0  0  0  0  0  0  0  0  0  0
  -23.4320    0.5440  -34.5240 O   0  0  0  0  0  0  0  0  0  0  0  0
  -21.2720    1.4120  -34.5340 N   0  0  0  0  0  0  0  0  0  0  0  0
  -19.9480    1.1200  -34.1080 C   0  0  0  0  0  0  0  0  0  0  0  0
  -18.7260    1.5730  -34.5010 N   0  0  0  0  0  0  0  0  0  0  0  0
  -17.8150    0.9800  -33.7690 N   0  0  0  0  0  0  0  0  0  0  0  0
  -18.3760    0.1370  -32.8890 C   0  0  0  0  0  3  0  0  0  0  0  0
  -19.7590    0.2140  -33.0950 C   0  0  0  0  0  0  0  0  0  0  0  0
  -21.2370   -4.2390  -32.4140 C   0  0  0  0  0  1  0  0  0  0  0  0
  -21.4230    2.0990  -35.3050 H   0  0  0  0  0  0  0  0  0  0  0  0
  -18.6000    2.2770  -35.2650 H   0  0  0  0  0  0  0  0  0  0  0  0
  2  7  1  0  0  0  0
  2  1  1  0  0  0  0
  3  2  2  0  0  0  0
  4  5  2  0  0  0  0
  4  3  1  0  0  0  0
  5  6  1  0  0  0  0
  6  7  2  0  0  0  0
  8  5  1  0  0  0  0
  9 11  1  0  0  0  0
  9  8  1  0  0  0  0
 10  9  2  0  0  0  0
 11 12  1  1  0  0  0
 11  4  1  0  0  0  0
 13 12  1  0  0  0  0
 14 13  2  0  0  0  0
 15 16  1  0  0  0  0
 15 13  1  0  0  0  0
 16 20  2  0  0  0  0
 17 16  1  0  0  0  0
 17 18  1  0  0  0  0
 18 19  2  0  0  0  0
 20 19  1  0  0  0  0
 20 11  1  0  0  0  0
 21  8  1  0  0  0  0
 22 15  1  0  0  0  0
 23 17  1  0  0  0  0
M  END
>  <Pose>
1

>  <Score>
-7.564

$$$$
