/Users/jonathanwahrer/Desktop/Msc/3_Semester/Drug_Design_Praktikum/waehrer_HTS_screening/HTS_experiment/out/docking_results/vina_output/5l4q/1657_docked.pdbqt
 OpenBabel03212218563D

 33 36  0  0  1  0  0  0  0  0999 V2000
  -18.4700   -0.7200  -25.2510 Cl  0  0  0  0  0  0  0  0  0  0  0  0
  -18.6420   -1.0020  -26.9880 C   0  0  0  0  0  0  0  0  0  0  0  0
  -19.4420   -2.0250  -27.4490 C   0  0  0  0  0  3  0  0  0  0  0  0
  -19.5730   -2.2380  -28.7830 C   0  0  0  0  0  0  0  0  0  0  0  0
  -18.8970   -1.4230  -29.7010 C   0  0  0  0  0  0  0  0  0  0  0  0
  -18.1040   -0.4090  -29.2190 C   0  0  0  0  0  3  0  0  0  0  0  0
  -17.9600   -0.1770  -27.8570 C   0  0  0  0  0  3  0  0  0  0  0  0
  -19.0310   -1.6390  -31.1020 N   0  0  0  0  0  0  0  0  0  0  0  0
  -20.2410   -2.2700  -31.6040 C   0  0  2  0  0  0  0  0  0  0  0  0
  -20.4660   -3.4340  -30.7780 N   0  0  0  0  0  0  0  0  0  0  0  0
  -20.3950   -3.2930  -29.3690 C   0  0  0  0  0  0  0  0  0  0  0  0
  -21.0150   -4.0440  -28.5720 O   0  0  0  0  0  0  0  0  0  0  0  0
  -20.0090   -2.6790  -33.0200 C   0  0  0  0  0  2  0  0  0  0  0  0
  -20.3070   -1.5840  -34.0180 C   0  0  0  0  0  2  0  0  0  0  0  0
  -19.7060   -0.3230  -33.6360 N   0  0  0  0  0  0  0  0  0  0  0  0
  -20.0360    0.3680  -32.4050 C   0  0  0  0  0  0  0  0  0  0  0  0
  -19.3300    1.3710  -32.1520 O   0  0  0  0  0  0  0  0  0  0  0  0
  -21.0740    0.0760  -31.4030 C   0  0  0  0  0  2  0  0  0  0  0  0
  -21.4490   -1.3760  -31.4110 C   0  0  0  0  0  2  0  0  0  0  0  0
  -18.2410   -1.3280  -31.7060 H   0  0  0  0  0  0  0  0  0  0  0  0
  -20.6780   -4.3740  -31.1650 H   0  0  0  0  0  0  0  0  0  0  0  0
  -18.7350    0.2940  -34.4440 C   0  0  0  0  0  2  0  0  0  0  0  0
  -19.0860    1.1480  -35.5560 C   0  0  0  0  0  0  0  0  0  0  0  0
  -17.9950    1.6400  -36.1460 O   0  0  0  0  0  0  0  0  0  0  0  0
  -20.3110    1.5080  -36.0720 N   0  0  0  0  0  0  0  0  0  0  0  0
  -20.3470    2.4210  -37.2430 C   0  0  0  0  0  2  0  0  0  0  0  0
  -21.5830    1.0900  -35.6290 C   0  0  0  0  0  2  0  0  0  0  0  0
  -21.3770    1.7790  -38.1840 C   0  0  0  0  0  2  0  0  0  0  0  0
  -21.5450    0.3920  -37.9040 N   0  0  0  0  0  0  0  0  0  0  0  0
  -22.1690    0.0780  -36.6540 C   0  0  0  0  0  2  0  0  0  0  0  0
  -21.9520   -0.4250  -38.9970 C   0  0  0  0  0  3  0  0  0  0  0  0
  -22.9500   -1.4990  -38.6170 C   0  0  0  0  0  1  0  0  0  0  0  0
  -22.4890    0.3560  -40.1650 C   0  0  0  0  0  1  0  0  0  0  0  0
  2  1  1  0  0  0  0
  3  2  1  0  0  0  0
  4  3  2  0  0  0  0
  5  6  2  0  0  0  0
  5  4  1  0  0  0  0
  6  7  1  0  0  0  0
  7  2  2  0  0  0  0
  8  5  1  0  0  0  0
  9 13  1  6  0  0  0
  9 19  1  0  0  0  0
  9  8  1  0  0  0  0
  9 10  1  0  0  0  0
 10 11  1  0  0  0  0
 11  4  1  0  0  0  0
 11 12  2  0  0  0  0
 14 15  1  0  0  0  0
 14 13  1  0  0  0  0
 15 16  1  0  0  0  0
 16 17  2  0  0  0  0
 16 18  1  0  0  0  0
 19 18  1  0  0  0  0
 20  8  1  0  0  0  0
 21 10  1  0  0  0  0
 22 15  1  0  0  0  0
 23 22  1  0  0  0  0
 24 23  2  0  0  0  0
 25 27  1  0  0  0  0
 25 23  1  0  0  0  0
 26 25  1  0  0  0  0
 28 29  1  0  0  0  0
 28 26  1  0  0  0  0
 29 30  1  0  0  0  0
 30 27  1  0  0  0  0
 31 32  1  0  0  0  0
 31 29  1  0  0  0  0
 33 31  1  0  0  0  0
M  END
>  <Pose>
1

>  <Score>
-8.648

$$$$
