/Users/jonathanwahrer/Desktop/Msc/3_Semester/Drug_Design_Praktikum/waehrer_HTS_screening/HTS_experiment/out/docking_results/vina_output/5l4q/1673_docked.pdbqt
 OpenBabel03212218573D

 35 38  0  0  1  0  0  0  0  0999 V2000
  -19.6510    2.2120  -33.6250 C   0  0  2  0  0  3  0  0  0  0  0  0
  -20.6110    2.2100  -34.7840 C   0  0  1  0  0  3  0  0  0  0  0  0
  -19.8670    2.4720  -35.9340 N   0  0  0  0  0  0  0  0  0  0  0  0
  -18.9200    3.5070  -35.4520 C   0  0  0  0  0  0  0  0  0  0  0  0
  -18.4430    4.4670  -36.1150 O   0  0  0  0  0  0  0  0  0  0  0  0
  -18.6400    3.2020  -34.0580 C   0  0  0  0  0  0  0  0  0  0  0  0
  -17.7060    3.7030  -33.3700 O   0  0  0  0  0  0  0  0  0  0  0  0
  -21.7330    1.3120  -34.6710 C   0  0  0  0  0  0  0  0  0  0  0  0
  -21.8940    0.1530  -35.3630 C   0  0  0  0  0  3  0  0  0  0  0  0
  -23.0050   -0.6530  -35.1670 C   0  0  0  0  0  0  0  0  0  0  0  0
  -23.9790   -0.2600  -34.2360 C   0  0  0  0  0  0  0  0  0  0  0  0
  -23.8150    0.9040  -33.5420 C   0  0  0  0  0  3  0  0  0  0  0  0
  -22.7240    1.6930  -33.7340 C   0  0  0  0  0  3  0  0  0  0  0  0
  -25.1040   -1.0260  -34.0030 O   0  0  0  0  0  1  0  0  0  0  0  0
  -19.0340    0.9180  -33.3330 C   0  0  0  0  0  0  0  0  0  0  0  0
  -17.9400    0.5970  -33.9130 O   0  0  0  0  0  0  0  0  0  0  0  0
  -19.5500   -0.0850  -32.4120 C   0  0  0  0  0  0  0  0  0  0  0  0
  -19.6740    0.1590  -31.0630 C   0  0  0  0  0  3  0  0  0  0  0  0
  -20.1460   -0.8650  -30.2480 C   0  0  0  0  0  3  0  0  0  0  0  0
  -20.4970   -2.1050  -30.7150 C   0  0  0  0  0  0  0  0  0  0  0  0
  -21.1450   -3.4760  -29.5250 Br  0  0  0  0  0  0  0  0  0  0  0  0
  -20.3760   -2.3540  -32.0660 C   0  0  0  0  0  3  0  0  0  0  0  0
  -19.9080   -1.3430  -32.8720 C   0  0  0  0  0  3  0  0  0  0  0  0
  -19.8170    2.1800  -37.3320 C   0  0  0  0  0  2  0  0  0  0  0  0
  -21.0050    2.5360  -38.1430 C   0  0  0  0  0  2  0  0  0  0  0  0
  -21.9640    1.5900  -38.5270 N   0  0  0  0  0  4  0  0  0  0  0  0
  -22.9790    2.1400  -39.4360 C   0  0  0  0  0  2  0  0  0  0  0  0
  -22.4050    2.5890  -40.7380 C   0  0  0  0  0  2  0  0  0  0  0  0
  -21.0890    2.1970  -40.8270 O   0  0  0  0  0  0  0  0  0  0  0  0
  -21.0420    0.8060  -40.6340 C   0  0  0  0  0  2  0  0  0  0  0  0
  -21.3020    0.4500  -39.1860 C   0  0  0  0  0  2  0  0  0  0  0  0
  -22.4700    1.1980  -37.7370 H   0  0  0  0  0  0  0  0  0  0  0  0
  -23.1930   -1.8170  -35.8410 O   0  0  0  0  0  0  0  0  0  0  0  0
  -23.3800   -1.9050  -37.2160 C   0  0  0  0  0  2  0  0  0  0  0  0
  -24.4770   -0.9970  -37.7430 C   0  0  0  0  0  1  0  0  0  0  0  0
  1 15  1  6  0  0  0
  2  8  1  6  0  0  0
  2  1  1  0  0  0  0
  3  4  1  0  0  0  0
  3  2  1  0  0  0  0
  4  6  1  0  0  0  0
  5  4  2  0  0  0  0
  6  1  1  0  0  0  0
  6  7  2  0  0  0  0
  8 13  1  0  0  0  0
  9 10  1  0  0  0  0
  9  8  2  0  0  0  0
 10 11  2  0  0  0  0
 11 14  1  0  0  0  0
 11 12  1  0  0  0  0
 13 12  2  0  0  0  0
 15 17  1  0  0  0  0
 16 15  2  0  0  0  0
 17 18  1  0  0  0  0
 18 19  2  0  0  0  0
 20 19  1  0  0  0  0
 20 21  1  0  0  0  0
 22 20  2  0  0  0  0
 23 17  2  0  0  0  0
 23 22  1  0  0  0  0
 24  3  1  0  0  0  0
 25 24  1  0  0  0  0
 26 25  1  0  0  0  0
 26 32  1  0  0  0  0
 27 26  1  0  0  0  0
 28 27  1  0  0  0  0
 29 28  1  0  0  0  0
 29 30  1  0  0  0  0
 30 31  1  0  0  0  0
 31 26  1  0  0  0  0
 33 10  1  0  0  0  0
 34 33  1  0  0  0  0
 35 34  1  0  0  0  0
M  END
>  <Pose>
1

>  <Score>
-7.694

$$$$
