/Users/jonathanwahrer/Desktop/Msc/3_Semester/Drug_Design_Praktikum/waehrer_HTS_screening/HTS_experiment/out/docking_results/vina_output/5l4q/1691_docked.pdbqt
 OpenBabel03212218593D

 35 39  0  0  1  0  0  0  0  0999 V2000
  -20.6810    0.1420  -32.9700 C   0  0  0  0  0  0  0  0  0  0  0  0
  -21.7360    0.3510  -32.3420 O   0  0  0  0  0  0  0  0  0  0  0  0
  -20.5080    0.6760  -34.2570 N   0  0  0  0  0  0  0  0  0  0  0  0
  -21.3630    1.4720  -35.0790 C   0  0  0  0  0  2  0  0  0  0  0  0
  -21.1890    0.8850  -36.5000 C   0  0  1  0  0  3  0  0  0  0  0  0
  -19.7520    0.5060  -36.4410 C   0  0  2  0  0  3  0  0  0  0  0  0
  -19.2890    0.5010  -35.0230 C   0  0  0  0  0  2  0  0  0  0  0  0
  -19.6200   -0.6680  -32.3500 C   0  0  0  0  0  2  0  0  0  0  0  0
  -20.2170   -1.8420  -31.6080 C   0  0  0  0  0  2  0  0  0  0  0  0
  -19.8440   -1.7430  -30.1590 C   0  0  0  0  0  0  0  0  0  0  0  0
  -19.4290   -0.6170  -29.5520 N   0  0  0  0  0  0  0  0  0  0  0  0
  -19.1690   -0.8390  -28.2530 C   0  0  0  0  0  0  0  0  0  0  0  0
  -19.3140    0.3290  -30.0040 H   0  0  0  0  0  0  0  0  0  0  0  0
  -18.7240   -0.0240  -27.2120 C   0  0  0  0  0  3  0  0  0  0  0  0
  -19.4340   -2.1740  -28.0370 C   0  0  0  0  0  0  0  0  0  0  0  0
  -18.5450   -0.5520  -25.9550 C   0  0  0  0  0  0  0  0  0  0  0  0
  -17.9860    0.4330  -24.6090 Cl  0  0  0  0  0  0  0  0  0  0  0  0
  -18.8100   -1.8770  -25.7450 C   0  0  0  0  0  3  0  0  0  0  0  0
  -19.2560   -2.7030  -26.7760 C   0  0  0  0  0  3  0  0  0  0  0  0
  -19.8410   -2.6870  -29.2170 N   0  0  0  0  0  0  0  0  0  0  0  0
  -22.0900   -0.2220  -36.6520 N   0  0  0  0  0  0  0  0  0  0  0  0
  -22.4190   -0.8740  -37.7800 C   0  0  0  0  0  0  0  0  0  0  0  0
  -23.3370   -1.8940  -37.4580 C   0  0  0  0  0  0  0  0  0  0  0  0
  -22.0360   -0.7120  -39.0620 N   0  0  0  0  0  0  0  0  0  0  0  0
  -23.5280   -1.8160  -36.1320 N   0  0  0  0  0  0  0  0  0  0  0  0
  -23.8490   -2.7270  -38.4280 C   0  0  0  0  0  0  0  0  0  0  0  0
  -22.7920   -0.8250  -35.6350 C   0  0  0  0  0  3  0  0  0  0  0  0
  -24.6670   -3.6300  -38.1100 O   0  0  0  0  0  0  0  0  0  0  0  0
  -23.4430   -2.5340  -39.6890 N   0  0  0  0  0  0  0  0  0  0  0  0
  -22.5750   -1.5660  -39.9840 C   0  0  0  0  0  0  0  0  0  0  0  0
  -23.9690   -3.4040  -40.7430 C   0  0  0  0  0  1  0  0  0  0  0  0
  -22.2040   -1.3980  -41.1760 O   0  0  0  0  0  0  0  0  0  0  0  0
  -21.1110    0.3050  -39.4510 C   0  0  0  0  0  1  0  0  0  0  0  0
  -18.9200    1.3840  -37.1360 O   0  0  0  0  0  0  0  0  0  0  0  0
  -18.0090    1.4250  -36.7310 H   0  0  0  0  0  0  0  0  0  0  0  0
  1  8  1  0  0  0  0
  1  2  2  0  0  0  0
  3  1  1  0  0  0  0
  4  3  1  0  0  0  0
  5 21  1  1  0  0  0
  5  6  1  0  0  0  0
  5  4  1  0  0  0  0
  6 34  1  6  0  0  0
  6  7  1  0  0  0  0
  7  3  1  0  0  0  0
  8  9  1  0  0  0  0
  9 10  1  0  0  0  0
 10 11  1  0  0  0  0
 10 20  2  0  0  0  0
 11 12  1  0  0  0  0
 12 15  2  0  0  0  0
 12 14  1  0  0  0  0
 13 11  1  0  0  0  0
 14 16  2  0  0  0  0
 15 19  1  0  0  0  0
 16 18  1  0  0  0  0
 16 17  1  0  0  0  0
 19 18  2  0  0  0  0
 20 15  1  0  0  0  0
 21 27  1  0  0  0  0
 22 23  2  0  0  0  0
 22 21  1  0  0  0  0
 23 25  1  0  0  0  0
 24 22  1  0  0  0  0
 25 27  2  0  0  0  0
 26 28  2  0  0  0  0
 26 23  1  0  0  0  0
 29 26  1  0  0  0  0
 30 29  1  0  0  0  0
 30 24  1  0  0  0  0
 31 29  1  0  0  0  0
 32 30  2  0  0  0  0
 33 24  1  0  0  0  0
 34 35  1  0  0  0  0
M  END
>  <Pose>
1

>  <Score>
-9.971

$$$$
