/Users/jonathanwahrer/Desktop/Msc/3_Semester/Drug_Design_Praktikum/waehrer_HTS_screening/HTS_experiment/out/docking_results/vina_output/5l4q/1699_docked.pdbqt
 OpenBabel03212218593D

 31 34  0  0  1  0  0  0  0  0999 V2000
  -21.9370   -0.8040  -40.1860 Cl  0  0  0  0  0  0  0  0  0  0  0  0
  -22.6060   -0.3840  -38.6430 C   0  0  0  0  0  0  0  0  0  0  0  0
  -21.8180   -0.3790  -37.5020 C   0  0  0  0  0  3  0  0  0  0  0  0
  -22.3370   -0.0470  -36.2670 C   0  0  0  0  0  0  0  0  0  0  0  0
  -23.6620    0.2820  -36.1950 C   0  0  0  0  0  0  0  0  0  0  0  0
  -24.4890    0.2900  -37.3220 C   0  0  0  0  0  3  0  0  0  0  0  0
  -23.9390   -0.0470  -38.5390 C   0  0  0  0  0  3  0  0  0  0  0  0
  -24.0120    0.5710  -34.8480 N   0  0  0  0  0  0  0  0  0  0  0  0
  -22.8510    0.4120  -34.0470 C   0  0  0  0  0  0  0  0  0  0  0  0
  -22.8910    0.5780  -32.7840 O   0  0  0  0  0  0  0  0  0  0  0  0
  -21.7500    0.0570  -34.9320 C   0  0  2  0  0  0  0  0  0  0  0  0
  -20.6680    1.0440  -34.8880 N   0  0  0  0  0  0  0  0  0  0  0  0
  -20.0430    0.7160  -33.6270 C   0  0  1  0  0  3  0  0  0  0  0  0
  -20.0470   -0.7760  -33.5320 C   0  0  2  0  0  3  0  0  0  0  0  0
  -21.0150   -1.1920  -34.5980 C   0  0  1  0  0  3  0  0  0  0  0  0
  -21.8590   -2.2800  -34.0450 C   0  0  0  0  0  0  0  0  0  0  0  0
  -22.6770   -2.9050  -34.7680 O   0  0  0  0  0  0  0  0  0  0  0  0
  -21.5430   -2.4120  -32.6680 N   0  0  0  0  0  0  0  0  0  0  0  0
  -20.7420   -1.2810  -32.3050 C   0  0  0  0  0  0  0  0  0  0  0  0
  -20.6120   -0.7720  -31.1870 O   0  0  0  0  0  0  0  0  0  0  0  0
  -24.9720    0.8600  -34.4960 H   0  0  0  0  0  0  0  0  0  0  0  0
  -20.0100    0.7650  -35.6500 H   0  0  0  0  0  0  0  0  0  0  0  0
  -18.6650    1.3130  -33.4940 C   0  0  2  0  0  3  0  0  0  0  0  0
  -18.2430    2.0760  -34.7230 C   0  0  0  0  0  1  0  0  0  0  0  0
  -17.7760    0.2750  -33.2450 O   0  0  0  0  0  0  0  0  0  0  0  0
  -18.2310   -0.5970  -33.1250 H   0  0  0  0  0  0  0  0  0  0  0  0
  -21.9340   -3.4640  -31.8080 C   0  0  0  0  0  2  0  0  0  0  0  0
  -20.9260   -4.4540  -31.3730 C   0  0  0  0  0  2  0  0  0  0  0  0
  -20.4420   -4.3810  -29.9760 C   0  0  0  0  0  2  0  0  0  0  0  0
  -21.2130   -3.6310  -29.1010 O   0  0  0  0  0  0  0  0  0  0  0  0
  -20.3330   -3.0460  -28.1590 C   0  0  0  0  0  1  0  0  0  0  0  0
  1  2  1  0  0  0  0
  2  7  2  0  0  0  0
  2  3  1  0  0  0  0
  3  4  2  0  0  0  0
  4  5  1  0  0  0  0
  5  8  1  0  0  0  0
  6  5  2  0  0  0  0
  7  6  1  0  0  0  0
  8 21  1  0  0  0  0
  8  9  1  0  0  0  0
  9 10  2  0  0  0  0
 11  4  1  6  0  0  0
 11 12  1  0  0  0  0
 11 15  1  0  0  0  0
 11  9  1  0  0  0  0
 12 13  1  0  0  0  0
 13 14  1  0  0  0  0
 13 23  1  6  0  0  0
 14 19  1  1  0  0  0
 15 16  1  1  0  0  0
 15 14  1  0  0  0  0
 16 18  1  0  0  0  0
 17 16  2  0  0  0  0
 18 19  1  0  0  0  0
 18 27  1  0  0  0  0
 19 20  2  0  0  0  0
 22 12  1  0  0  0  0
 23 24  1  6  0  0  0
 23 25  1  0  0  0  0
 25 26  1  0  0  0  0
 27 28  1  0  0  0  0
 28 29  1  0  0  0  0
 29 30  1  0  0  0  0
 30 31  1  0  0  0  0
M  END
>  <Pose>
1

>  <Score>
-7.726

$$$$
