/Users/jonathanwahrer/Desktop/Msc/3_Semester/Drug_Design_Praktikum/waehrer_HTS_screening/HTS_experiment/out/docking_results/vina_output/5l4q/1721_docked.pdbqt
 OpenBabel03212219003D

 28 31  0  0  1  0  0  0  0  0999 V2000
  -21.7020   -2.6810  -32.6570 C   0  0  0  0  0  2  0  0  0  0  0  0
  -20.7080   -3.2780  -31.8460 N   0  0  0  0  0  0  0  0  0  0  0  0
  -20.1640   -4.0780  -32.1800 H   0  0  0  0  0  0  0  0  0  0  0  0
  -20.4660   -2.7540  -30.5200 C   0  0  0  0  0  0  0  0  0  0  0  0
  -20.3580   -3.6720  -29.5030 C   0  0  1  0  0  3  0  0  0  0  0  0
  -20.1270   -3.2090  -28.2110 C   0  0  0  0  0  0  0  0  0  0  0  0
  -20.4170   -5.0070  -29.3900 N   0  0  0  0  0  0  0  0  0  0  0  0
  -20.0280   -1.8840  -28.0630 N   0  0  0  0  0  4  0  0  0  0  0  0
  -20.0590   -4.2730  -27.3940 N   0  0  0  0  0  0  0  0  0  0  0  0
  -20.1300   -0.9890  -29.0370 C   0  0  0  0  0  0  0  0  0  0  0  0
  -19.9850    0.7220  -28.7300 Cl  0  0  0  0  0  0  0  0  0  0  0  0
  -20.3550   -1.4380  -30.2930 N   0  0  0  0  0  0  0  0  0  0  0  0
  -20.2370   -5.3940  -28.1130 C   0  0  0  0  0  3  0  0  0  0  0  0
  -20.5840   -5.6250  -30.2280 H   0  0  0  0  0  0  0  0  0  0  0  0
  -21.2310   -1.7710  -33.6880 C   0  0  0  0  0  0  0  0  0  0  0  0
  -19.9260   -1.9600  -33.9820 O   0  0  0  0  0  0  0  0  0  0  0  0
  -21.8570   -0.7810  -34.3940 N   0  0  0  0  0  0  0  0  0  0  0  0
  -23.1780   -0.2780  -34.2330 C   0  0  0  0  0  2  0  0  0  0  0  0
  -21.0460   -0.1530  -35.5060 C   0  0  0  0  0  2  0  0  0  0  0  0
  -24.0410   -0.5460  -35.4630 C   0  0  0  0  0  2  0  0  0  0  0  0
  -23.1370   -0.5230  -36.5770 N   0  0  0  0  0  0  0  0  0  0  0  0
  -22.0410    0.4010  -36.5300 C   0  0  0  0  0  2  0  0  0  0  0  0
  -23.2890   -1.3610  -37.6960 C   0  0  0  0  0  0  0  0  0  0  0  0
  -24.0250   -2.5100  -37.6400 N   0  0  0  0  0  0  0  0  0  0  0  0
  -24.2060   -3.3400  -38.6520 C   0  0  0  0  0  3  0  0  0  0  0  0
  -23.6490   -3.1070  -39.8780 C   0  0  0  0  0  3  0  0  0  0  0  0
  -22.8870   -1.9550  -40.0050 C   0  0  0  0  0  3  0  0  0  0  0  0
  -22.7110   -1.0980  -38.9290 C   0  0  0  0  0  3  0  0  0  0  0  0
  1  2  1  0  0  0  0
  2  4  1  0  0  0  0
  3  2  1  0  0  0  0
  4 12  2  0  0  0  0
  5  4  1  1  0  0  0
  5  7  1  0  0  0  0
  5  6  1  0  0  0  0
  6  8  2  0  0  0  0
  6  9  1  0  0  0  0
  7 13  1  0  0  0  0
 10 11  1  0  0  0  0
 10  8  2  0  0  0  0
 12 10  1  0  0  0  0
 13  9  2  0  0  0  0
 14  7  1  0  0  0  0
 15  1  1  0  0  0  0
 16 15  2  0  0  0  0
 17 18  1  0  0  0  0
 17 15  1  0  0  0  0
 19 17  1  0  0  0  0
 20 18  1  0  0  0  0
 21 22  1  0  0  0  0
 21 20  1  0  0  0  0
 22 19  1  0  0  0  0
 23 24  1  0  0  0  0
 23 21  1  0  0  0  0
 25 24  2  0  0  0  0
 26 25  1  0  0  0  0
 27 26  2  0  0  0  0
 27 28  1  0  0  0  0
 28 23  2  0  0  0  0
M  END
>  <Pose>
1

>  <Score>
-8.447

$$$$
