/Users/jonathanwahrer/Desktop/Msc/3_Semester/Drug_Design_Praktikum/waehrer_HTS_screening/HTS_experiment/out/docking_results/vina_output/5l4q/1726_docked.pdbqt
 OpenBabel03212219003D

 30 33  0  0  1  0  0  0  0  0999 V2000
  -21.3310   -0.4820  -33.6090 N   0  0  0  0  0  4  0  0  0  0  0  0
  -22.1610    0.6530  -33.3820 C   0  0  0  0  0  2  0  0  0  0  0  0
  -23.2830    0.8300  -34.3550 C   0  0  1  0  0  3  0  0  0  0  0  0
  -22.8630    1.2850  -35.7080 C   0  0  0  0  0  2  0  0  0  0  0  0
  -23.0580    0.3260  -36.7590 N   0  0  0  0  0  0  0  0  0  0  0  0
  -23.1530   -1.0040  -36.5720 C   0  0  0  0  0  0  0  0  0  0  0  0
  -23.3380   -1.9160  -37.5700 C   0  0  0  0  0  3  0  0  0  0  0  0
  -23.4390   -1.4630  -38.8700 C   0  0  0  0  0  3  0  0  0  0  0  0
  -23.3430   -0.1060  -39.0690 C   0  0  0  0  0  3  0  0  0  0  0  0
  -23.1560    0.7840  -38.0400 C   0  0  0  0  0  0  0  0  0  0  0  0
  -23.0730    2.0200  -38.2610 O   0  0  0  0  0  0  0  0  0  0  0  0
  -23.0340   -1.4340  -35.1270 C   0  0  1  0  0  3  0  0  0  0  0  0
  -21.6170   -1.2720  -34.7440 C   0  0  0  0  0  2  0  0  0  0  0  0
  -23.9950   -0.5280  -34.3970 C   0  0  0  0  0  2  0  0  0  0  0  0
  -21.4120   -1.1090  -32.7510 H   0  0  0  0  0  0  0  0  0  0  0  0
  -19.9570   -0.0180  -33.6020 C   0  0  0  0  0  2  0  0  0  0  0  0
  -19.2760   -0.1590  -32.2790 C   0  0  1  0  0  3  0  0  0  0  0  0
  -19.6070   -1.5600  -31.7640 C   0  0  0  0  0  2  0  0  0  0  0  0
  -20.3890   -1.3910  -30.6180 O   0  0  0  0  0  0  0  0  0  0  0  0
  -20.1530   -1.8660  -29.3720 C   0  0  0  0  0  0  0  0  0  0  0  0
  -19.7630   -1.0130  -28.3640 C   0  0  0  0  0  0  0  0  0  0  0  0
  -19.5680    0.8380  -28.7680 Br  0  0  0  0  0  0  0  0  0  0  0  0
  -19.5100   -1.4640  -27.0700 C   0  0  0  0  0  3  0  0  0  0  0  0
  -19.6490   -2.7900  -26.7810 C   0  0  0  0  0  0  0  0  0  0  0  0
  -20.0390   -3.6720  -27.7700 C   0  0  0  0  0  3  0  0  0  0  0  0
  -19.3750   -3.2670  -25.3890 C   0  0  0  0  0  1  0  0  0  0  0  0
  -20.2890   -3.2020  -29.0630 C   0  0  0  0  0  0  0  0  0  0  0  0
  -20.8260   -4.4080  -30.4340 Br  0  0  0  0  0  0  0  0  0  0  0  0
  -17.9020    0.0130  -32.4330 O   0  0  0  0  0  0  0  0  0  0  0  0
  -17.6460   -0.5320  -33.2310 H   0  0  0  0  0  0  0  0  0  0  0  0
  1 16  1  0  0  0  0
  1  2  1  0  0  0  0
  1 15  1  0  0  0  0
  3  4  1  6  0  0  0
  3  2  1  0  0  0  0
  5  6  1  0  0  0  0
  5  4  1  0  0  0  0
  6 12  1  0  0  0  0
  7  6  2  0  0  0  0
  8  7  1  0  0  0  0
  9  8  2  0  0  0  0
  9 10  1  0  0  0  0
 10  5  1  0  0  0  0
 11 10  2  0  0  0  0
 12 13  1  1  0  0  0
 12 14  1  0  0  0  0
 13  1  1  0  0  0  0
 14  3  1  0  0  0  0
 17 16  1  6  0  0  0
 17 18  1  0  0  0  0
 18 19  1  0  0  0  0
 19 20  1  0  0  0  0
 20 27  2  0  0  0  0
 20 21  1  0  0  0  0
 21 23  2  0  0  0  0
 22 21  1  0  0  0  0
 23 24  1  0  0  0  0
 24 26  1  0  0  0  0
 25 24  2  0  0  0  0
 27 25  1  0  0  0  0
 28 27  1  0  0  0  0
 29 17  1  0  0  0  0
 30 29  1  0  0  0  0
M  END
>  <Pose>
1

>  <Score>
-9.023

$$$$
