/Users/jonathanwahrer/Desktop/Msc/3_Semester/Drug_Design_Praktikum/waehrer_HTS_screening/HTS_experiment/out/docking_results/vina_output/5l4q/1732_docked.pdbqt
 OpenBabel03212219003D

 28 31  0  0  0  0  0  0  0  0999 V2000
  -19.5800    1.0240  -33.0870 N   0  0  0  0  0  0  0  0  0  0  0  0
  -18.3250    0.6480  -32.9020 N   0  0  0  0  0  2  0  0  0  0  0  0
  -18.2790   -0.3660  -32.0450 N   0  0  0  0  0  0  0  0  0  0  0  0
  -19.5420   -0.6530  -31.6660 C   0  0  0  0  0  0  0  0  0  0  0  0
  -20.3120    0.2240  -32.3300 N   0  0  0  0  0  2  0  0  0  0  0  0
  -20.0640    2.1070  -33.9580 C   0  0  0  0  0  2  0  0  0  0  0  0
  -21.2210    1.6490  -34.7710 C   0  0  0  0  0  0  0  0  0  0  0  0
  -21.1200    0.5570  -35.6340 N   0  0  0  0  0  0  0  0  0  0  0  0
  -20.1680    0.0840  -35.6660 H   0  0  0  0  0  0  0  0  0  0  0  0
  -22.2820    2.2870  -34.6450 O   0  0  0  0  0  0  0  0  0  0  0  0
  -22.1090   -0.0030  -36.4700 C   0  0  0  0  0  0  0  0  0  0  0  0
  -22.7880   -1.1610  -36.0880 C   0  0  0  0  0  0  0  0  0  0  0  0
  -22.3410   -1.9500  -34.4260 Br  0  0  0  0  0  0  0  0  0  0  0  0
  -23.7610   -1.7620  -36.8490 C   0  0  0  0  0  3  0  0  0  0  0  0
  -24.1040   -1.2090  -38.0620 C   0  0  0  0  0  3  0  0  0  0  0  0
  -23.4720   -0.0690  -38.4920 C   0  0  0  0  0  3  0  0  0  0  0  0
  -22.4870    0.5170  -37.6940 C   0  0  0  0  0  3  0  0  0  0  0  0
  -19.9640   -1.6920  -30.7380 C   0  0  0  0  0  0  0  0  0  0  0  0
  -19.8290   -1.4510  -29.3910 C   0  0  0  0  0  0  0  0  0  0  0  0
  -20.2300   -2.4400  -28.5090 C   0  0  0  0  0  3  0  0  0  0  0  0
  -20.7500   -3.6350  -28.9380 C   0  0  0  0  0  3  0  0  0  0  0  0
  -20.8860   -3.8800  -30.2900 C   0  0  0  0  0  3  0  0  0  0  0  0
  -20.4850   -2.8900  -31.1690 C   0  0  0  0  0  3  0  0  0  0  0  0
  -19.2970   -0.2340  -28.8690 N   0  0  0  0  0  0  0  0  0  0  0  0
  -18.0460   -0.0880  -28.4510 N   0  0  0  0  0  0  0  0  0  0  0  0
  -17.8800    1.1470  -28.0330 N   0  0  0  0  0  0  0  0  0  0  0  0
  -19.0340    1.7910  -28.1850 N   0  0  0  0  0  0  0  0  0  0  0  0
  -19.9240    0.9230  -28.7100 C   0  0  0  0  0  3  0  0  0  0  0  0
  1  2  1  0  0  0  0
  1  5  1  0  0  0  0
  2  3  1  0  0  0  0
  3  4  2  0  0  0  0
  4 18  1  0  0  0  0
  5  4  1  0  0  0  0
  6  1  1  0  0  0  0
  7 10  2  0  0  0  0
  7  6  1  0  0  0  0
  8  7  1  0  0  0  0
  9  8  1  0  0  0  0
 11 12  1  0  0  0  0
 11  8  1  0  0  0  0
 12 13  1  0  0  0  0
 14 12  2  0  0  0  0
 15 14  1  0  0  0  0
 16 15  2  0  0  0  0
 16 17  1  0  0  0  0
 17 11  2  0  0  0  0
 18 19  1  0  0  0  0
 19 24  1  0  0  0  0
 19 20  2  0  0  0  0
 21 20  1  0  0  0  0
 22 21  2  0  0  0  0
 23 18  2  0  0  0  0
 23 22  1  0  0  0  0
 24 28  1  0  0  0  0
 24 25  1  0  0  0  0
 25 26  2  0  0  0  0
 27 26  1  0  0  0  0
 28 27  2  0  0  0  0
M  END
>  <Pose>
1

>  <Score>
-8.804

$$$$
