/Users/jonathanwahrer/Desktop/Msc/3_Semester/Drug_Design_Praktikum/waehrer_HTS_screening/HTS_experiment/out/docking_results/vina_output/5l4q/1745_docked.pdbqt
 OpenBabel03212219013D

 34 37  0  0  1  0  0  0  0  0999 V2000
  -20.9740    1.2050  -34.8420 N   0  0  0  0  0  0  0  0  0  0  0  0
  -19.9610    0.2730  -35.1850 C   0  0  0  0  0  0  0  0  0  0  0  0
  -18.8980    0.6350  -35.7060 O   0  0  0  0  0  0  0  0  0  0  0  0
  -20.1590   -1.1250  -34.9290 N   0  0  0  0  0  0  0  0  0  0  0  0
  -21.3630   -1.5990  -34.3290 C   0  0  0  0  0  0  0  0  0  0  0  0
  -21.4190   -2.6780  -33.7140 O   0  0  0  0  0  0  0  0  0  0  0  0
  -22.6010   -0.7510  -34.4540 C   0  0  1  0  0  3  0  0  0  0  0  0
  -22.1640    0.6450  -34.2460 C   0  0  0  0  0  0  0  0  0  0  0  0
  -22.8410    1.4460  -33.5050 O   0  0  0  0  0  0  0  0  0  0  0  0
  -19.4130   -1.7840  -35.1860 H   0  0  0  0  0  0  0  0  0  0  0  0
  -23.2190   -0.9800  -35.7940 C   0  0  2  0  0  3  0  0  0  0  0  0
  -24.0160   -0.1920  -36.4860 C   0  0  0  0  0  2  0  0  0  0  0  0
  -24.3620   -0.8710  -37.7650 C   0  0  2  0  0  3  0  0  0  0  0  0
  -24.1500   -2.2910  -37.3860 N   0  0  0  0  0  0  0  0  0  0  0  0
  -23.0330   -2.1860  -36.5470 N   0  0  0  0  0  0  0  0  0  0  0  0
  -24.9910   -2.6520  -36.8930 H   0  0  0  0  0  0  0  0  0  0  0  0
  -22.2430   -2.8170  -36.4690 H   0  0  0  0  0  0  0  0  0  0  0  0
  -23.3110   -0.5680  -38.7750 C   0  0  0  0  0  0  0  0  0  0  0  0
  -22.7160    0.7090  -38.8580 C   0  0  0  0  0  3  0  0  0  0  0  0
  -21.7290    1.0230  -39.7400 C   0  0  0  0  0  0  0  0  0  0  0  0
  -21.2640    0.0560  -40.6130 C   0  0  0  0  0  0  0  0  0  0  0  0
  -21.8230   -1.2000  -40.5600 C   0  0  0  0  0  3  0  0  0  0  0  0
  -22.8220   -1.5030  -39.6620 C   0  0  0  0  0  3  0  0  0  0  0  0
  -21.1740    2.3100  -39.7840 O   0  0  0  0  0  0  0  0  0  0  0  0
  -21.7380    3.2790  -40.6400 C   0  0  0  0  0  1  0  0  0  0  0  0
  -20.2540    0.3590  -41.5200 O   0  0  0  0  0  0  0  0  0  0  0  0
  -19.9210    1.3120  -41.5830 H   0  0  0  0  0  0  0  0  0  0  0  0
  -20.8700    2.6110  -35.0180 C   0  0  0  0  0  0  0  0  0  0  0  0
  -21.5490    3.1830  -36.1010 C   0  0  0  0  0  3  0  0  0  0  0  0
  -21.5000    4.5340  -36.3650 C   0  0  0  0  0  0  0  0  0  0  0  0
  -22.3740    5.1550  -37.7390 Cl  0  0  0  0  0  0  0  0  0  0  0  0
  -20.7780    5.3870  -35.5740 C   0  0  0  0  0  3  0  0  0  0  0  0
  -20.0980    4.8270  -34.4900 C   0  0  0  0  0  3  0  0  0  0  0  0
  -20.1520    3.4740  -34.2320 C   0  0  0  0  0  3  0  0  0  0  0  0
  1  8  1  0  0  0  0
  2  4  1  0  0  0  0
  2  1  1  0  0  0  0
  3  2  2  0  0  0  0
  4  5  1  0  0  0  0
  5  6  2  0  0  0  0
  7  5  1  6  0  0  0
  7  8  1  0  0  0  0
  8  9  2  0  0  0  0
 10  4  1  0  0  0  0
 11 12  1  1  0  0  0
 11  7  1  0  0  0  0
 13 18  1  6  0  0  0
 13 14  1  0  0  0  0
 13 12  1  0  0  0  0
 14 16  1  0  0  0  0
 14 15  1  0  0  0  0
 15 17  1  0  0  0  0
 15 11  1  0  0  0  0
 19 18  1  0  0  0  0
 20 19  2  0  0  0  0
 21 22  2  0  0  0  0
 21 20  1  0  0  0  0
 22 23  1  0  0  0  0
 23 18  2  0  0  0  0
 24 20  1  0  0  0  0
 25 24  1  0  0  0  0
 26 21  1  0  0  0  0
 27 26  1  0  0  0  0
 28  1  1  0  0  0  0
 28 34  1  0  0  0  0
 29 28  2  0  0  0  0
 30 29  1  0  0  0  0
 30 32  2  0  0  0  0
 31 30  1  0  0  0  0
 32 33  1  0  0  0  0
 33 34  2  0  0  0  0
M  END
>  <Pose>
1

>  <Score>
-7.972

$$$$
