/Users/jonathanwahrer/Desktop/Msc/3_Semester/Drug_Design_Praktikum/waehrer_HTS_screening/HTS_experiment/out/docking_results/vina_output/5l4q/1758_docked.pdbqt
 OpenBabel03212219023D

 28 32  0  0  1  0  0  0  0  0999 V2000
  -19.7580   -1.4120  -29.3720 N   0  0  0  0  0  0  0  0  0  0  0  0
  -20.5360   -2.4790  -29.3640 N   0  0  0  0  0  0  0  0  0  0  0  0
  -20.7750   -2.9330  -30.6110 C   0  0  0  0  0  0  0  0  0  0  0  0
  -21.4950   -3.9600  -30.9950 C   0  0  0  0  0  1  0  0  0  0  0  0
  -20.0980   -2.0890  -31.4690 C   0  0  0  0  0  0  0  0  0  0  0  0
  -19.4790   -1.1600  -30.6620 C   0  0  0  0  0  0  0  0  0  0  0  0
  -18.7590   -0.2110  -31.0650 O   0  0  0  0  0  0  0  0  0  0  0  0
  -20.9300   -2.9350  -28.5070 H   0  0  0  0  0  0  0  0  0  0  0  0
  -20.0660   -2.1790  -32.8070 C   0  0  0  0  0  2  0  0  0  0  0  0
  -20.1500   -0.9550  -33.5260 N   0  0  0  0  0  0  0  0  0  0  0  0
  -19.3960   -0.2400  -33.5480 H   0  0  0  0  0  0  0  0  0  0  0  0
  -21.3590   -0.6730  -34.2820 C   0  0  2  0  0  0  0  0  0  0  0  0
  -22.2000    0.3610  -33.5490 C   0  0  0  0  0  2  0  0  0  0  0  0
  -23.3580    0.6720  -34.3390 N   0  0  2  0  0  0  0  0  0  0  0  0
  -24.1190   -0.5630  -34.5020 C   0  0  0  0  0  2  0  0  0  0  0  0
  -22.9200    1.1860  -35.6170 C   0  0  0  0  0  2  0  0  0  0  0  0
  -23.3720   -1.5500  -35.2300 N   0  0  1  0  0  0  0  0  0  0  0  0
  -22.9470   -1.0260  -36.5090 C   0  0  0  0  0  2  0  0  0  0  0  0
  -22.2030   -1.8980  -34.4630 C   0  0  0  0  0  2  0  0  0  0  0  0
  -22.1770    0.1810  -36.3710 N   0  0  2  0  0  0  0  0  0  0  0  0
  -20.9700   -0.1110  -35.6320 C   0  0  0  0  0  2  0  0  0  0  0  0
  -19.3000   -0.6710  -28.2230 C   0  0  0  0  0  0  0  0  0  0  0  0
  -19.3010    0.6860  -28.1600 C   0  0  0  0  0  3  0  0  0  0  0  0
  -18.8370    1.3120  -27.0020 C   0  0  0  0  0  3  0  0  0  0  0  0
  -18.3780    0.5910  -25.9190 C   0  0  0  0  0  0  0  0  0  0  0  0
  -17.6800    1.5400  -24.1740 I   0  0  0  0  0  0  0  0  0  0  0  0
  -18.3770   -0.7840  -25.9790 C   0  0  0  0  0  3  0  0  0  0  0  0
  -18.8390   -1.3830  -27.1310 C   0  0  0  0  0  3  0  0  0  0  0  0
  1  2  1  0  0  0  0
  1 22  1  0  0  0  0
  2  8  1  0  0  0  0
  3  2  1  0  0  0  0
  4  3  1  0  0  0  0
  5  6  1  0  0  0  0
  5  3  2  0  0  0  0
  6  1  1  0  0  0  0
  7  6  2  0  0  0  0
  9  5  1  0  0  0  0
 10  9  1  0  0  0  0
 11 10  1  0  0  0  0
 12 13  1  0  0  0  0
 12 10  1  1  0  0  0
 14 16  1  6  0  0  0
 14 13  1  0  0  0  0
 15 14  1  0  0  0  0
 17 18  1  6  0  0  0
 17 15  1  0  0  0  0
 17 19  1  0  0  0  0
 19 12  1  0  0  0  0
 20 18  1  1  0  0  0
 20 21  1  0  0  0  0
 20 16  1  0  0  0  0
 21 12  1  0  0  0  0
 22 23  2  0  0  0  0
 22 28  1  0  0  0  0
 23 24  1  0  0  0  0
 24 25  2  0  0  0  0
 25 26  1  0  0  0  0
 27 25  1  0  0  0  0
 28 27  2  0  0  0  0
M  END
>  <Pose>
1

>  <Score>
-8.440

$$$$
