/Users/jonathanwahrer/Desktop/Msc/3_Semester/Drug_Design_Praktikum/waehrer_HTS_screening/HTS_experiment/out/docking_results/vina_output/5l4q/1781_docked.pdbqt
 OpenBabel03212219023D

 24 27  0  0  0  0  0  0  0  0999 V2000
  -20.6570    0.0020  -33.1920 C   0  0  0  0  0  0  0  0  0  0  0  0
  -19.4580    0.2420  -33.6620 O   0  0  0  0  0  0  0  0  0  0  0  0
  -21.6510    0.8350  -33.6840 N   0  0  0  0  0  0  0  0  0  0  0  0
  -23.0400    0.9260  -33.3790 C   0  0  0  0  0  2  0  0  0  0  0  0
  -23.7500    0.1880  -34.5320 C   0  0  0  0  0  2  0  0  0  0  0  0
  -23.0590    0.5680  -35.7770 N   0  0  0  0  0  0  0  0  0  0  0  0
  -22.3650    1.8240  -35.8020 C   0  0  0  0  0  2  0  0  0  0  0  0
  -21.2520    1.7900  -34.7720 C   0  0  0  0  0  2  0  0  0  0  0  0
  -20.7020   -1.0840  -32.2550 C   0  0  0  0  0  0  0  0  0  0  0  0
  -20.3110   -0.8700  -30.9280 C   0  0  0  0  0  3  0  0  0  0  0  0
  -20.2840   -1.8620  -29.9760 C   0  0  0  0  0  3  0  0  0  0  0  0
  -20.6510   -3.1470  -30.2890 C   0  0  0  0  0  0  0  0  0  0  0  0
  -20.6190   -4.4270  -29.0680 Cl  0  0  0  0  0  0  0  0  0  0  0  0
  -21.0410   -3.4050  -31.5770 C   0  0  0  0  0  3  0  0  0  0  0  0
  -21.0630   -2.3810  -32.5410 C   0  0  0  0  0  3  0  0  0  0  0  0
  -23.1050   -0.3100  -36.8990 C   0  0  0  0  0  0  0  0  0  0  0  0
  -22.5290    0.0260  -38.0750 N   0  0  0  0  0  0  0  0  0  0  0  0
  -22.5540   -0.7600  -39.1360 N   0  0  0  0  0  0  0  0  0  0  0  0
  -23.1560   -1.9580  -39.1280 C   0  0  0  0  0  0  0  0  0  0  0  0
  -22.0490   -0.6240  -40.3940 C   0  0  0  0  0  3  0  0  0  0  0  0
  -23.0330   -2.5530  -40.3400 N   0  0  0  0  0  0  0  0  0  0  0  0
  -23.7700   -2.3740  -37.9590 C   0  0  0  0  0  3  0  0  0  0  0  0
  -22.3510   -1.7230  -41.1070 N   0  0  0  0  0  0  0  0  0  0  0  0
  -23.7300   -1.5370  -36.8690 C   0  0  0  0  0  3  0  0  0  0  0  0
  1  9  1  0  0  0  0
  2  1  2  0  0  0  0
  3  4  1  0  0  0  0
  3  1  1  0  0  0  0
  5  4  1  0  0  0  0
  6  5  1  0  0  0  0
  7  6  1  0  0  0  0
  7  8  1  0  0  0  0
  8  3  1  0  0  0  0
  9 10  1  0  0  0  0
 10 11  2  0  0  0  0
 12 11  1  0  0  0  0
 12 13  1  0  0  0  0
 14 12  2  0  0  0  0
 15  9  2  0  0  0  0
 15 14  1  0  0  0  0
 16 24  1  0  0  0  0
 16  6  1  0  0  0  0
 17 16  2  0  0  0  0
 18 19  1  0  0  0  0
 18 17  1  0  0  0  0
 19 22  1  0  0  0  0
 20 18  1  0  0  0  0
 21 19  2  0  0  0  0
 22 24  2  0  0  0  0
 23 20  2  0  0  0  0
 23 21  1  0  0  0  0
M  END
>  <Pose>
1

>  <Score>
-8.841

$$$$
