/Users/jonathanwahrer/Desktop/Msc/3_Semester/Drug_Design_Praktikum/waehrer_HTS_screening/HTS_experiment/out/docking_results/vina_output/5l4q/1788_docked.pdbqt
 OpenBabel03212219023D

 30 33  0  0  0  0  0  0  0  0999 V2000
  -19.9130   -1.0770  -30.7420 N   0  0  0  0  0  0  0  0  0  0  0  0
  -20.9880   -1.0340  -31.4470 N   0  0  0  0  0  0  0  0  0  0  0  0
  -20.7470   -0.5190  -32.7100 C   0  0  0  0  0  0  0  0  0  0  0  0
  -19.4580   -0.2410  -32.7500 N   0  0  0  0  0  0  0  0  0  0  0  0
  -18.9440   -0.5940  -31.5230 C   0  0  0  0  0  0  0  0  0  0  0  0
  -17.7380   -0.4630  -31.2230 O   0  0  0  0  0  0  0  0  0  0  0  0
  -18.6970    0.3990  -33.7770 C   0  0  0  0  0  2  0  0  0  0  0  0
  -19.0360    1.8130  -34.0260 C   0  0  0  0  0  0  0  0  0  0  0  0
  -18.6300    2.6100  -33.0810 O   0  0  0  0  0  0  0  0  0  0  0  0
  -19.6960    2.4210  -35.0710 N   0  0  0  0  0  0  0  0  0  0  0  0
  -20.2720    1.7460  -36.2030 C   0  0  0  0  0  2  0  0  0  0  0  0
  -19.8370    3.8870  -35.0750 C   0  0  0  0  0  2  0  0  0  0  0  0
  -20.9840    2.7180  -37.1600 C   0  0  0  0  0  2  0  0  0  0  0  0
  -20.0560    3.7900  -37.5290 N   0  0  0  0  0  0  0  0  0  0  0  0
  -19.3520    4.3480  -36.3980 C   0  0  0  0  0  0  0  0  0  0  0  0
  -19.9160    4.1150  -38.4900 H   0  0  0  0  0  0  0  0  0  0  0  0
  -18.4090    5.1530  -36.5750 O   0  0  0  0  0  0  0  0  0  0  0  0
  -21.8470   -0.3620  -33.6600 C   0  0  0  0  0  0  0  0  0  0  0  0
  -21.9760   -1.3140  -34.6800 C   0  0  0  0  0  3  0  0  0  0  0  0
  -22.9210   -1.2520  -35.6670 C   0  0  0  0  0  3  0  0  0  0  0  0
  -23.8300   -0.2040  -35.7080 C   0  0  0  0  0  3  0  0  0  0  0  0
  -23.7120    0.7330  -34.7190 C   0  0  0  0  0  3  0  0  0  0  0  0
  -22.7440    0.6650  -33.7130 C   0  0  0  0  0  3  0  0  0  0  0  0
  -19.8170   -1.5500  -29.4020 C   0  0  0  0  0  0  0  0  0  0  0  0
  -20.0880   -2.8720  -29.1130 C   0  0  0  0  0  3  0  0  0  0  0  0
  -20.0000   -3.3500  -27.8170 C   0  0  0  0  0  3  0  0  0  0  0  0
  -19.6400   -2.5420  -26.7550 C   0  0  0  0  0  0  0  0  0  0  0  0
  -19.5270   -3.1350  -25.1090 Cl  0  0  0  0  0  0  0  0  0  0  0  0
  -19.3680   -1.2150  -27.0470 C   0  0  0  0  0  3  0  0  0  0  0  0
  -19.4560   -0.7330  -28.3510 C   0  0  0  0  0  3  0  0  0  0  0  0
  1 24  1  0  0  0  0
  2  1  1  0  0  0  0
  3  2  2  0  0  0  0
  4  3  1  0  0  0  0
  4  5  1  0  0  0  0
  5  6  2  0  0  0  0
  5  1  1  0  0  0  0
  7  4  1  0  0  0  0
  8  7  1  0  0  0  0
  8  9  2  0  0  0  0
 10  8  1  0  0  0  0
 11 10  1  0  0  0  0
 12 10  1  0  0  0  0
 13 11  1  0  0  0  0
 14 13  1  0  0  0  0
 14 15  1  0  0  0  0
 15 12  1  0  0  0  0
 16 14  1  0  0  0  0
 17 15  2  0  0  0  0
 18  3  1  0  0  0  0
 19 18  2  0  0  0  0
 20 19  1  0  0  0  0
 21 20  2  0  0  0  0
 21 22  1  0  0  0  0
 22 23  2  0  0  0  0
 23 18  1  0  0  0  0
 24 25  2  0  0  0  0
 24 30  1  0  0  0  0
 25 26  1  0  0  0  0
 26 27  2  0  0  0  0
 27 28  1  0  0  0  0
 29 27  1  0  0  0  0
 30 29  2  0  0  0  0
M  END
>  <Pose>
1

>  <Score>
-8.390

$$$$
