/Users/jonathanwahrer/Desktop/Msc/3_Semester/Drug_Design_Praktikum/waehrer_HTS_screening/HTS_experiment/out/docking_results/vina_output/5l4q/1789_docked.pdbqt
 OpenBabel03212219033D

 29 32  0  0  0  0  0  0  0  0999 V2000
  -19.9170   -3.5520  -28.4490 N   0  0  0  0  0  0  0  0  0  0  0  0
  -19.9970   -4.8400  -28.2170 N   0  0  0  0  0  0  0  0  0  0  0  0
  -20.4390   -5.4030  -29.3370 N   0  0  0  0  0  0  0  0  0  0  0  0
  -20.6440   -4.4750  -30.2920 C   0  0  0  0  0  0  0  0  0  0  0  0
  -20.3090   -3.3160  -29.7140 C   0  0  0  0  0  0  0  0  0  0  0  0
  -20.5200   -2.3570  -30.6950 C   0  0  0  0  0  0  0  0  0  0  0  0
  -20.3150   -1.1340  -30.5300 O   0  0  0  0  0  0  0  0  0  0  0  0
  -20.9670   -2.9000  -31.8380 N   0  0  0  0  0  0  0  0  0  0  0  0
  -21.0450   -4.2200  -31.5870 C   0  0  0  0  0  0  0  0  0  0  0  0
  -21.4290   -5.0980  -32.4170 O   0  0  0  0  0  0  0  0  0  0  0  0
  -19.7570   -5.3440  -27.3120 H   0  0  0  0  0  0  0  0  0  0  0  0
  -20.5970   -6.4350  -29.4330 H   0  0  0  0  0  0  0  0  0  0  0  0
  -21.2990   -2.2620  -33.0670 C   0  0  0  0  0  0  0  0  0  0  0  0
  -20.4200   -1.4430  -33.7490 C   0  0  0  0  0  3  0  0  0  0  0  0
  -20.7490   -0.8290  -34.9410 C   0  0  0  0  0  0  0  0  0  0  0  0
  -21.9920   -1.0090  -35.5110 C   0  0  0  0  0  0  0  0  0  0  0  0
  -22.8790   -1.8240  -34.8420 C   0  0  0  0  0  3  0  0  0  0  0  0
  -22.5400   -2.4360  -33.6480 C   0  0  0  0  0  3  0  0  0  0  0  0
  -19.8640   -0.0040  -35.6270 O   0  0  0  0  0  0  0  0  0  0  0  0
  -19.0810    0.8910  -34.8590 C   0  0  0  0  0  1  0  0  0  0  0  0
  -22.3140   -0.3850  -36.7140 O   0  0  0  0  0  0  0  0  0  0  0  0
  -22.8540   -1.0540  -37.8120 C   0  0  0  0  0  1  0  0  0  0  0  0
  -19.4880   -2.5780  -27.5220 C   0  0  0  0  0  0  0  0  0  0  0  0
  -19.2800   -2.9240  -26.1900 C   0  0  0  0  0  3  0  0  0  0  0  0
  -18.8610   -1.9210  -25.3410 C   0  0  0  0  0  3  0  0  0  0  0  0
  -18.6430   -0.6280  -25.7240 C   0  0  0  0  0  0  0  0  0  0  0  0
  -18.1060    0.6220  -24.5980 Cl  0  0  0  0  0  0  0  0  0  0  0  0
  -18.8500   -0.2970  -27.0400 C   0  0  0  0  0  3  0  0  0  0  0  0
  -19.2650   -1.2540  -27.9220 C   0  0  0  0  0  3  0  0  0  0  0  0
  1  2  1  0  0  0  0
  1 23  1  0  0  0  0
  2 11  1  0  0  0  0
  3  2  1  0  0  0  0
  4  5  2  0  0  0  0
  4  3  1  0  0  0  0
  5  1  1  0  0  0  0
  6  7  2  0  0  0  0
  6  5  1  0  0  0  0
  8  9  1  0  0  0  0
  8  6  1  0  0  0  0
  9  4  1  0  0  0  0
 10  9  2  0  0  0  0
 12  3  1  0  0  0  0
 13  8  1  0  0  0  0
 14 13  2  0  0  0  0
 15 14  1  0  0  0  0
 16 15  2  0  0  0  0
 16 17  1  0  0  0  0
 17 18  2  0  0  0  0
 18 13  1  0  0  0  0
 19 15  1  0  0  0  0
 19 20  1  0  0  0  0
 21 16  1  0  0  0  0
 22 21  1  0  0  0  0
 23 24  1  0  0  0  0
 24 25  2  0  0  0  0
 26 25  1  0  0  0  0
 26 27  1  0  0  0  0
 28 26  2  0  0  0  0
 29 23  2  0  0  0  0
 29 28  1  0  0  0  0
M  END
>  <Pose>
1

>  <Score>
-9.605

$$$$
