/Users/jonathanwahrer/Desktop/Msc/3_Semester/Drug_Design_Praktikum/waehrer_HTS_screening/HTS_experiment/out/docking_results/vina_output/5l4q/1790_docked.pdbqt
 OpenBabel03212219033D

 29 32  0  0  0  0  0  0  0  0999 V2000
  -19.9750   -3.4330  -28.5380 N   0  0  0  0  0  0  0  0  0  0  0  0
  -20.1180   -4.7180  -28.2830 N   0  0  0  0  0  0  0  0  0  0  0  0
  -20.5480   -5.2690  -29.4110 N   0  0  0  0  0  0  0  0  0  0  0  0
  -20.6830   -4.3530  -30.3850 C   0  0  0  0  0  0  0  0  0  0  0  0
  -20.3160   -3.1910  -29.8190 C   0  0  0  0  0  0  0  0  0  0  0  0
  -20.4560   -2.2520  -30.8230 C   0  0  0  0  0  0  0  0  0  0  0  0
  -20.1930   -1.0250  -30.6450 O   0  0  0  0  0  0  0  0  0  0  0  0
  -20.8910   -2.8020  -31.9680 N   0  0  0  0  0  0  0  0  0  0  0  0
  -21.0330   -4.1110  -31.6970 C   0  0  0  0  0  0  0  0  0  0  0  0
  -21.4310   -4.9720  -32.5380 O   0  0  0  0  0  0  0  0  0  0  0  0
  -19.9250   -5.1880  -27.3660 H   0  0  0  0  0  0  0  0  0  0  0  0
  -20.7580   -6.2840  -29.5300 H   0  0  0  0  0  0  0  0  0  0  0  0
  -21.1320   -2.0980  -33.1840 C   0  0  0  0  0  0  0  0  0  0  0  0
  -22.2850   -2.2760  -33.9220 C   0  0  0  0  0  3  0  0  0  0  0  0
  -22.5410   -1.6060  -35.1010 C   0  0  0  0  0  0  0  0  0  0  0  0
  -21.5970   -0.7140  -35.5650 C   0  0  0  0  0  3  0  0  0  0  0  0
  -20.4260   -0.4970  -34.8680 C   0  0  0  0  0  0  0  0  0  0  0  0
  -20.2120   -1.1970  -33.6850 C   0  0  0  0  0  3  0  0  0  0  0  0
  -23.7340   -1.8240  -35.8170 O   0  0  0  0  0  0  0  0  0  0  0  0
  -23.7030   -1.7860  -37.2250 C   0  0  0  0  0  1  0  0  0  0  0  0
  -19.4980    0.4090  -35.3670 O   0  0  0  0  0  0  0  0  0  0  0  0
  -19.1550    0.4480  -36.7250 C   0  0  0  0  0  1  0  0  0  0  0  0
  -19.5330   -2.4500  -27.6170 C   0  0  0  0  0  0  0  0  0  0  0  0
  -19.3510   -1.1240  -27.9780 C   0  0  0  0  0  3  0  0  0  0  0  0
  -18.9230   -0.2000  -27.0610 C   0  0  0  0  0  3  0  0  0  0  0  0
  -18.6570   -0.5410  -25.7510 C   0  0  0  0  0  0  0  0  0  0  0  0
  -18.1060    0.6930  -24.6110 Cl  0  0  0  0  0  0  0  0  0  0  0  0
  -18.8300   -1.8470  -25.3730 C   0  0  0  0  0  3  0  0  0  0  0  0
  -19.2610   -2.7750  -26.2980 C   0  0  0  0  0  3  0  0  0  0  0  0
  1  2  1  0  0  0  0
  1 23  1  0  0  0  0
  2 11  1  0  0  0  0
  3  2  1  0  0  0  0
  4  5  2  0  0  0  0
  4  3  1  0  0  0  0
  5  1  1  0  0  0  0
  6  7  2  0  0  0  0
  6  5  1  0  0  0  0
  8  9  1  0  0  0  0
  8  6  1  0  0  0  0
  9  4  1  0  0  0  0
 10  9  2  0  0  0  0
 12  3  1  0  0  0  0
 13  8  1  0  0  0  0
 14 13  2  0  0  0  0
 15 14  1  0  0  0  0
 16 15  2  0  0  0  0
 16 17  1  0  0  0  0
 17 18  2  0  0  0  0
 18 13  1  0  0  0  0
 19 15  1  0  0  0  0
 20 19  1  0  0  0  0
 21 17  1  0  0  0  0
 22 21  1  0  0  0  0
 23 29  1  0  0  0  0
 24 23  2  0  0  0  0
 24 25  1  0  0  0  0
 25 26  2  0  0  0  0
 26 28  1  0  0  0  0
 26 27  1  0  0  0  0
 29 28  2  0  0  0  0
M  END
>  <Pose>
1

>  <Score>
-9.767

$$$$
