/Users/jonathanwahrer/Desktop/Msc/3_Semester/Drug_Design_Praktikum/waehrer_HTS_screening/HTS_experiment/out/docking_results/vina_output/5l4q/1801_docked.pdbqt
 OpenBabel03212219033D

 26 29  0  0  0  0  0  0  0  0999 V2000
  -17.9310    0.3250  -27.7530 Cl  0  0  0  0  0  0  0  0  0  0  0  0
  -18.8600   -0.7710  -28.7760 C   0  0  0  0  0  0  0  0  0  0  0  0
  -19.1080   -0.4500  -30.0990 C   0  0  0  0  0  3  0  0  0  0  0  0
  -19.8260   -1.2910  -30.9030 C   0  0  0  0  0  0  0  0  0  0  0  0
  -20.2840   -2.4560  -30.3360 C   0  0  0  0  0  0  0  0  0  0  0  0
  -20.0520   -2.7980  -29.0290 C   0  0  0  0  0  3  0  0  0  0  0  0
  -19.3230   -1.9370  -28.2260 C   0  0  0  0  0  3  0  0  0  0  0  0
  -21.0630   -3.3890  -31.1740 C   0  0  0  0  0  0  0  0  0  0  0  0
  -21.6130   -4.5280  -30.9400 N   0  0  0  0  0  0  0  0  0  0  0  0
  -22.2750   -5.0590  -32.0970 C   0  0  0  0  0  3  0  0  0  0  0  0
  -22.0570   -4.0370  -33.1640 C   0  0  0  0  0  3  0  0  0  0  0  0
  -21.2830   -3.0020  -32.5200 N   0  0  0  0  0  0  0  0  0  0  0  0
  -20.7820   -1.7710  -33.0610 C   0  0  0  0  0  0  0  0  0  0  0  0
  -20.8650   -1.2120  -34.2770 N   0  0  0  0  0  0  0  0  0  0  0  0
  -20.2320   -0.0520  -34.2880 N   0  0  0  0  0  0  0  0  0  0  0  0
  -19.7470    0.1070  -33.0440 C   0  0  0  0  0  0  0  0  0  0  0  0
  -19.0820    1.1040  -32.6740 O   0  0  0  0  0  0  0  0  0  0  0  0
  -20.0770   -0.9540  -32.2590 N   0  0  0  0  0  0  0  0  0  0  0  0
  -20.0780    0.8810  -35.3990 C   0  0  0  0  0  2  0  0  0  0  0  0
  -21.2400    0.7420  -36.3080 C   0  0  0  0  0  0  0  0  0  0  0  0
  -22.0410    1.7120  -36.4220 O   0  0  0  0  0  0  0  0  0  0  0  0
  -21.4940   -0.4380  -37.0560 N   0  0  0  0  0  0  0  0  0  0  0  0
  -20.8240   -1.2270  -36.9490 H   0  0  0  0  0  0  0  0  0  0  0  0
  -22.6420   -0.5270  -37.9290 C   0  0  0  0  0  3  0  0  0  0  0  0
  -22.2270   -1.0330  -39.3130 C   0  0  0  0  0  1  0  0  0  0  0  0
  -23.5480   -1.6050  -37.3490 C   0  0  0  0  0  1  0  0  0  0  0  0
  2  7  1  0  0  0  0
  2  1  1  0  0  0  0
  3  2  2  0  0  0  0
  4  5  2  0  0  0  0
  4  3  1  0  0  0  0
  5  6  1  0  0  0  0
  6  7  2  0  0  0  0
  8  9  2  0  0  0  0
  8  5  1  0  0  0  0
 10  9  1  0  0  0  0
 11 12  1  0  0  0  0
 11 10  2  0  0  0  0
 12  8  1  0  0  0  0
 13 12  1  0  0  0  0
 13 18  1  0  0  0  0
 14 13  2  0  0  0  0
 15 14  1  0  0  0  0
 15 16  1  0  0  0  0
 16 17  2  0  0  0  0
 16 18  1  0  0  0  0
 18  4  1  0  0  0  0
 19 15  1  0  0  0  0
 20 19  1  0  0  0  0
 21 20  2  0  0  0  0
 22 23  1  0  0  0  0
 22 20  1  0  0  0  0
 24 26  1  0  0  0  0
 24 22  1  0  0  0  0
 25 24  1  0  0  0  0
M  END
>  <Pose>
1

>  <Score>
-8.488

$$$$
