/Users/jonathanwahrer/Desktop/Msc/3_Semester/Drug_Design_Praktikum/waehrer_HTS_screening/HTS_experiment/out/docking_results/vina_output/5l4q/1802_docked.pdbqt
 OpenBabel03212219033D

 27 30  0  0  0  0  0  0  0  0999 V2000
  -17.9570    1.8000  -25.6980 Cl  0  0  0  0  0  0  0  0  0  0  0  0
  -18.4880    0.2130  -26.2620 C   0  0  0  0  0  0  0  0  0  0  0  0
  -18.8010    0.0640  -27.6150 C   0  0  0  0  0  3  0  0  0  0  0  0
  -19.2130   -1.1510  -28.1250 C   0  0  0  0  0  0  0  0  0  0  0  0
  -19.3010   -2.2000  -27.2310 C   0  0  0  0  0  0  0  0  0  0  0  0
  -19.0070   -2.0980  -25.9120 C   0  0  0  0  0  3  0  0  0  0  0  0
  -18.5880   -0.8590  -25.4040 C   0  0  0  0  0  3  0  0  0  0  0  0
  -19.7430   -3.4990  -27.7980 C   0  0  0  0  0  0  0  0  0  0  0  0
  -19.9270   -4.6590  -27.2440 N   0  0  0  0  0  0  0  0  0  0  0  0
  -20.3660   -5.6260  -28.2240 C   0  0  0  0  0  3  0  0  0  0  0  0
  -20.4300   -4.9060  -29.5490 C   0  0  0  0  0  3  0  0  0  0  0  0
  -20.0330   -3.5600  -29.1710 N   0  0  0  0  0  0  0  0  0  0  0  0
  -19.9180   -2.4270  -30.0290 C   0  0  0  0  0  0  0  0  0  0  0  0
  -20.1350   -2.2730  -31.3520 N   0  0  0  0  0  0  0  0  0  0  0  0
  -19.8750   -1.0120  -31.6910 N   0  0  0  0  0  0  0  0  0  0  0  0
  -19.5010   -0.4140  -30.5630 C   0  0  0  0  0  0  0  0  0  0  0  0
  -19.1660    0.8000  -30.4640 O   0  0  0  0  0  0  0  0  0  0  0  0
  -19.5190   -1.2720  -29.5050 N   0  0  0  0  0  0  0  0  0  0  0  0
  -19.9720   -0.4320  -33.0340 C   0  0  0  0  0  2  0  0  0  0  0  0
  -21.5130   -0.3140  -33.2440 C   0  0  0  0  0  0  0  0  0  0  0  0
  -21.9310    0.6690  -32.5370 O   0  0  0  0  0  0  0  0  0  0  0  0
  -22.1640   -1.1660  -34.0480 N   0  0  0  0  0  0  0  0  0  0  0  0
  -23.3150   -0.4720  -33.8560 H   0  0  0  0  0  0  0  0  0  0  0  0
  -22.8320   -2.0420  -34.8740 C   0  0  0  0  0  2  0  0  0  0  0  0
  -23.0260   -1.4840  -36.2890 C   0  0  0  0  0  2  0  0  0  0  0  0
  -23.7690   -2.3370  -37.0690 O   0  0  0  0  0  0  0  0  0  0  0  0
  -23.4360   -2.3620  -38.3930 C   0  0  0  0  0  1  0  0  0  0  0  0
  2  1  1  0  0  0  0
  2  7  1  0  0  0  0
  3  2  2  0  0  0  0
  4  3  1  0  0  0  0
  4  5  2  0  0  0  0
  5  6  1  0  0  0  0
  6  7  2  0  0  0  0
  8  9  2  0  0  0  0
  8  5  1  0  0  0  0
 10  9  1  0  0  0  0
 11 12  1  0  0  0  0
 11 10  2  0  0  0  0
 12  8  1  0  0  0  0
 13 18  1  0  0  0  0
 13 12  1  0  0  0  0
 14 13  2  0  0  0  0
 15 14  1  0  0  0  0
 15 16  1  0  0  0  0
 16 17  2  0  0  0  0
 16 18  1  0  0  0  0
 18  4  1  0  0  0  0
 19 15  1  0  0  0  0
 20 19  1  0  0  0  0
 20 21  2  0  0  0  0
 22 23  1  0  0  0  0
 22 20  1  0  0  0  0
 24 22  1  0  0  0  0
 25 24  1  0  0  0  0
 26 25  1  0  0  0  0
 27 26  1  0  0  0  0
M  END
>  <Pose>
1

>  <Score>
-8.156

$$$$
