/Users/jonathanwahrer/Desktop/Msc/3_Semester/Drug_Design_Praktikum/waehrer_HTS_screening/HTS_experiment/out/docking_results/vina_output/5l4q/1804_docked.pdbqt
 OpenBabel03212219033D

 26 30  0  0  0  0  0  0  0  0999 V2000
  -17.9300    1.4250  -24.9380 Cl  0  0  0  0  0  0  0  0  0  0  0  0
  -18.4640   -0.0210  -25.7670 C   0  0  0  0  0  0  0  0  0  0  0  0
  -18.8120   -0.0360  -27.1070 C   0  0  0  0  0  3  0  0  0  0  0  0
  -19.2300   -1.1800  -27.7470 C   0  0  0  0  0  0  0  0  0  0  0  0
  -19.2870   -2.3240  -26.9890 C   0  0  0  0  0  0  0  0  0  0  0  0
  -18.9530   -2.3670  -25.6560 C   0  0  0  0  0  3  0  0  0  0  0  0
  -18.5330   -1.1880  -25.0360 C   0  0  0  0  0  3  0  0  0  0  0  0
  -19.7320   -3.5710  -27.6420 C   0  0  0  0  0  0  0  0  0  0  0  0
  -19.8790   -4.7620  -27.1900 N   0  0  0  0  0  0  0  0  0  0  0  0
  -20.3410   -5.6730  -28.2040 C   0  0  0  0  0  3  0  0  0  0  0  0
  -20.4700   -4.8280  -29.4310 C   0  0  0  0  0  3  0  0  0  0  0  0
  -20.0720   -3.5100  -29.0120 N   0  0  0  0  0  0  0  0  0  0  0  0
  -19.9910   -2.2780  -29.7580 C   0  0  0  0  0  0  0  0  0  0  0  0
  -20.2580   -1.9810  -31.0450 N   0  0  0  0  0  0  0  0  0  0  0  0
  -20.0270   -0.6960  -31.2540 N   0  0  0  0  0  0  0  0  0  0  0  0
  -19.6150   -0.2070  -30.0730 C   0  0  0  0  0  0  0  0  0  0  0  0
  -19.3040    1.0070  -29.9070 O   0  0  0  0  0  0  0  0  0  0  0  0
  -19.5820   -1.1670  -29.1240 N   0  0  0  0  0  0  0  0  0  0  0  0
  -20.1870    0.0520  -32.5110 C   0  0  0  0  0  2  0  0  0  0  0  0
  -20.7470   -0.8730  -33.5300 C   0  0  0  0  0  0  0  0  0  0  0  0
  -19.9930   -1.7950  -33.9300 O   0  0  0  0  0  0  0  0  0  0  0  0
  -22.0670   -0.7280  -34.0350 N   0  0  0  0  0  0  0  0  0  0  0  0
  -22.6680   -1.5970  -35.0290 C   0  0  0  0  0  2  0  0  0  0  0  0
  -23.0320    0.2790  -33.6620 C   0  0  0  0  0  2  0  0  0  0  0  0
  -23.9820   -0.9670  -35.4040 C   0  0  0  0  0  2  0  0  0  0  0  0
  -23.7700    0.4750  -34.9910 C   0  0  0  0  0  2  0  0  0  0  0  0
  2  7  1  0  0  0  0
  2  1  1  0  0  0  0
  3  2  2  0  0  0  0
  4  3  1  0  0  0  0
  4  5  2  0  0  0  0
  5  6  1  0  0  0  0
  6  7  2  0  0  0  0
  8  9  2  0  0  0  0
  8  5  1  0  0  0  0
 10  9  1  0  0  0  0
 11 12  1  0  0  0  0
 11 10  2  0  0  0  0
 12  8  1  0  0  0  0
 13 18  1  0  0  0  0
 13 12  1  0  0  0  0
 14 13  2  0  0  0  0
 15 14  1  0  0  0  0
 15 16  1  0  0  0  0
 16 17  2  0  0  0  0
 16 18  1  0  0  0  0
 18  4  1  0  0  0  0
 19 15  1  0  0  0  0
 20 19  1  0  0  0  0
 21 20  2  0  0  0  0
 22 24  1  0  0  0  0
 22 20  1  0  0  0  0
 23 22  1  0  0  0  0
 25 23  1  0  0  0  0
 25 26  1  0  0  0  0
 26 24  1  0  0  0  0
M  END
>  <Pose>
1

>  <Score>
-9.479

$$$$
