/Users/jonathanwahrer/Desktop/Msc/3_Semester/Drug_Design_Praktikum/waehrer_HTS_screening/HTS_experiment/out/docking_results/vina_output/5l4q/1806_docked.pdbqt
 OpenBabel03212219033D

 32 35  0  0  0  0  0  0  0  0999 V2000
  -22.0130   -1.1460  -34.6790 N   0  0  0  0  0  0  0  0  0  0  0  0
  -20.9330   -0.4060  -35.2980 C   0  0  0  0  0  2  0  0  0  0  0  0
  -21.4340    0.0620  -36.6740 C   0  0  0  0  0  2  0  0  0  0  0  0
  -22.7010   -0.4960  -37.0000 N   0  0  0  0  0  0  0  0  0  0  0  0
  -23.7810   -0.1170  -36.0900 C   0  0  0  0  0  2  0  0  0  0  0  0
  -23.3380   -0.5580  -34.7150 C   0  0  0  0  0  2  0  0  0  0  0  0
  -21.8300   -2.3910  -34.0190 C   0  0  0  0  0  3  0  0  0  0  0  0
  -21.4240   -2.5780  -32.7850 C   0  0  0  0  0  0  0  0  0  0  0  0
  -21.1000   -1.5120  -31.9140 N   0  0  0  0  0  0  0  0  0  0  0  0
  -21.2930   -3.9250  -32.2760 N   0  0  0  0  0  0  0  0  0  0  0  0
  -20.6560   -1.7620  -30.5610 C   0  0  0  0  0  0  0  0  0  0  0  0
  -21.1800   -0.5320  -32.2390 H   0  0  0  0  0  0  0  0  0  0  0  0
  -20.5260   -3.0320  -30.0590 C   0  0  0  0  0  0  0  0  0  0  0  0
  -20.3530   -0.6990  -29.7500 C   0  0  0  0  0  3  0  0  0  0  0  0
  -20.0980   -3.2350  -28.7620 C   0  0  0  0  0  3  0  0  0  0  0  0
  -20.8550   -4.1380  -30.9470 C   0  0  0  0  0  0  0  0  0  0  0  0
  -19.7970   -2.1780  -27.9590 C   0  0  0  0  0  0  0  0  0  0  0  0
  -19.2470   -2.3760  -26.2960 Cl  0  0  0  0  0  0  0  0  0  0  0  0
  -19.9240   -0.8990  -28.4500 C   0  0  0  0  0  3  0  0  0  0  0  0
  -20.7320   -5.3200  -30.4740 O   0  0  0  0  0  0  0  0  0  0  0  0
  -21.5220   -4.7330  -32.8880 H   0  0  0  0  0  0  0  0  0  0  0  0
  -23.0480   -1.3710  -38.0600 C   0  0  0  0  0  0  0  0  0  0  0  0
  -23.6970   -2.5520  -37.7430 N   0  0  0  0  0  0  0  0  0  0  0  0
  -24.0640   -3.4630  -38.6430 C   0  0  0  0  0  3  0  0  0  0  0  0
  -23.7850   -3.2190  -39.9590 C   0  0  0  0  0  3  0  0  0  0  0  0
  -23.1460   -2.0630  -40.3090 C   0  0  0  0  0  3  0  0  0  0  0  0
  -22.7560   -1.0950  -39.3620 C   0  0  0  0  0  0  0  0  0  0  0  0
  -22.1160    0.1190  -39.7680 C   0  0  0  0  0  0  0  0  0  0  0  0
  -22.6560    1.2190  -39.8590 O   0  0  0  0  0  0  0  0  0  0  0  0
  -20.7340    0.0780  -40.1000 N   0  0  0  0  0  0  0  0  0  0  0  0
  -20.0130   -0.1020  -39.3660 H   0  0  0  0  0  0  0  0  0  0  0  0
  -20.3690    0.2190  -41.0680 H   0  0  0  0  0  0  0  0  0  0  0  0
  1  7  1  0  0  0  0
  2  1  1  0  0  0  0
  3  2  1  0  0  0  0
  4  3  1  0  0  0  0
  4  5  1  0  0  0  0
  5  6  1  0  0  0  0
  6  1  1  0  0  0  0
  7  8  2  0  0  0  0
  8 10  1  0  0  0  0
  8  9  1  0  0  0  0
  9 11  1  0  0  0  0
 10 16  1  0  0  0  0
 11 13  2  0  0  0  0
 11 14  1  0  0  0  0
 12  9  1  0  0  0  0
 13 15  1  0  0  0  0
 14 19  2  0  0  0  0
 15 17  2  0  0  0  0
 16 20  2  0  0  0  0
 16 13  1  0  0  0  0
 17 18  1  0  0  0  0
 19 17  1  0  0  0  0
 21 10  1  0  0  0  0
 22 23  1  0  0  0  0
 22  4  1  0  0  0  0
 24 23  2  0  0  0  0
 25 24  1  0  0  0  0
 26 25  2  0  0  0  0
 26 27  1  0  0  0  0
 27 22  2  0  0  0  0
 28 27  1  0  0  0  0
 29 28  2  0  0  0  0
 30 28  1  0  0  0  0
 30 31  1  0  0  0  0
 32 30  1  0  0  0  0
M  END
>  <Pose>
1

>  <Score>
-9.950

$$$$
