/Users/jonathanwahrer/Desktop/Msc/3_Semester/Drug_Design_Praktikum/waehrer_HTS_screening/HTS_experiment/out/docking_results/vina_output/5l4q/1810_docked.pdbqt
 OpenBabel03212219043D

 32 35  0  0  1  0  0  0  0  0999 V2000
  -21.9610    1.5530  -37.8990 N   0  0  0  0  0  0  0  0  0  0  0  0
  -22.3120    2.7430  -37.1650 C   0  0  0  0  0  2  0  0  0  0  0  0
  -21.2410    2.9760  -36.1250 C   0  0  0  0  0  2  0  0  0  0  0  0
  -20.1150    2.1200  -36.3980 N   0  0  0  0  0  0  0  0  0  0  0  0
  -19.6270    1.9080  -37.7560 C   0  0  0  0  0  2  0  0  0  0  0  0
  -20.8120    1.8670  -38.7240 C   0  0  0  0  0  2  0  0  0  0  0  0
  -19.4660    1.4590  -35.3400 C   0  0  0  0  0  0  0  0  0  0  0  0
  -18.4430    0.7350  -35.5960 O   0  0  0  0  0  0  0  0  0  0  0  0
  -19.9640    1.5940  -33.9440 C   0  0  1  0  0  3  0  0  0  0  0  0
  -20.9660    0.5370  -33.5790 C   0  0  0  0  0  2  0  0  0  0  0  0
  -20.2410   -0.4140  -32.7410 N   0  0  0  0  0  0  0  0  0  0  0  0
  -18.8810   -0.0320  -32.6510 C   0  0  0  0  0  0  0  0  0  0  0  0
  -17.9400   -0.8120  -32.3700 O   0  0  0  0  0  0  0  0  0  0  0  0
  -18.8520    1.4160  -32.9480 C   0  0  0  0  0  2  0  0  0  0  0  0
  -20.8360   -1.5700  -32.1100 C   0  0  0  0  0  2  0  0  0  0  0  0
  -20.6020   -1.5810  -30.6470 C   0  0  0  0  0  0  0  0  0  0  0  0
  -20.5670   -2.7950  -29.9760 C   0  0  0  0  0  0  0  0  0  0  0  0
  -20.3550   -2.8840  -28.6110 C   0  0  0  0  0  3  0  0  0  0  0  0
  -20.8000   -4.2520  -30.9020 Cl  0  0  0  0  0  0  0  0  0  0  0  0
  -20.1770   -1.7010  -27.9220 C   0  0  0  0  0  3  0  0  0  0  0  0
  -20.2050   -0.4730  -28.5600 C   0  0  0  0  0  3  0  0  0  0  0  0
  -20.4210   -0.4140  -29.9360 C   0  0  0  0  0  3  0  0  0  0  0  0
  -23.2870    0.9760  -38.8280 S   0  0  0  0  0  0  0  0  0  0  0  0
  -23.5360    1.8390  -40.0330 O   0  0  0  0  0  0  0  0  0  0  0  0
  -24.5190    1.1140  -37.9600 O   0  0  0  0  0  0  0  0  0  0  0  0
  -23.0900   -0.6950  -39.2600 C   0  0  0  0  0  0  0  0  0  0  0  0
  -23.4540   -1.8460  -38.5970 C   0  0  0  0  0  0  0  0  0  0  0  0
  -23.0600   -2.9070  -39.3650 N   0  0  0  0  0  0  0  0  0  0  0  0
  -24.1490   -1.8950  -37.2970 C   0  0  0  0  0  1  0  0  0  0  0  0
  -22.5000   -2.4390  -40.4160 O   0  0  0  0  0  0  0  0  0  0  0  0
  -22.4810   -1.1280  -40.4220 C   0  0  0  0  0  0  0  0  0  0  0  0
  -21.8940   -0.3240  -41.5170 C   0  0  0  0  0  1  0  0  0  0  0  0
  1  2  1  0  0  0  0
  2  3  1  0  0  0  0
  4  3  1  0  0  0  0
  4  7  1  0  0  0  0
  5  4  1  0  0  0  0
  6  1  1  0  0  0  0
  6  5  1  0  0  0  0
  8  7  2  0  0  0  0
  9  7  1  6  0  0  0
  9 10  1  0  0  0  0
  9 14  1  0  0  0  0
 10 11  1  0  0  0  0
 11 12  1  0  0  0  0
 11 15  1  0  0  0  0
 12 13  2  0  0  0  0
 14 12  1  0  0  0  0
 15 16  1  0  0  0  0
 16 17  2  0  0  0  0
 16 22  1  0  0  0  0
 17 18  1  0  0  0  0
 18 20  2  0  0  0  0
 19 17  1  0  0  0  0
 21 20  1  0  0  0  0
 22 21  2  0  0  0  0
 23 25  2  0  0  0  0
 23  1  1  0  0  0  0
 24 23  2  0  0  0  0
 26 23  1  0  0  0  0
 26 27  1  0  0  0  0
 27 29  1  0  0  0  0
 28 27  2  0  0  0  0
 30 28  1  0  0  0  0
 31 30  1  0  0  0  0
 31 26  2  0  0  0  0
 32 31  1  0  0  0  0
M  END
>  <Pose>
1

>  <Score>
-8.803

$$$$
