/Users/jonathanwahrer/Desktop/Msc/3_Semester/Drug_Design_Praktikum/waehrer_HTS_screening/HTS_experiment/out/docking_results/vina_output/5l4q/1835_docked.pdbqt
 OpenBabel03212219053D

 36 39  0  0  1  0  0  0  0  0999 V2000
  -19.4460    1.1330  -33.8880 C   0  0  0  0  0  0  0  0  0  0  0  0
  -20.5170    1.8270  -34.3030 N   0  0  0  0  0  0  0  0  0  0  0  0
  -20.2000    3.1250  -34.1520 C   0  0  0  0  0  0  0  0  0  0  0  0
  -20.8730    4.2740  -34.4000 N   0  0  0  0  0  0  0  0  0  0  0  0
  -20.3290    5.4830  -34.1600 C   0  0  0  0  0  3  0  0  0  0  0  0
  -19.0780    5.5740  -33.6590 N   0  0  0  0  0  0  0  0  0  0  0  0
  -18.3450    4.4780  -33.3860 C   0  0  0  0  0  0  0  0  0  0  0  0
  -18.9250    3.2510  -33.6410 C   0  0  0  0  0  0  0  0  0  0  0  0
  -18.4740    1.9850  -33.4840 N   0  0  0  0  0  0  0  0  0  0  0  0
  -19.3360   -0.2830  -33.8700 N   0  0  0  0  0  0  0  0  0  0  0  0
  -19.2960   -0.8350  -34.7590 H   0  0  0  0  0  0  0  0  0  0  0  0
  -19.2770   -1.0110  -32.6800 N   0  0  0  0  0  0  0  0  0  0  0  0
  -20.3670   -1.2320  -32.0420 C   0  0  0  0  0  3  0  0  0  0  0  0
  -20.3980   -1.9870  -30.7850 C   0  0  0  0  0  0  0  0  0  0  0  0
  -20.1310   -1.3790  -29.5780 C   0  0  0  0  0  0  0  0  0  0  0  0
  -19.7510    0.3270  -29.5800 Cl  0  0  0  0  0  0  0  0  0  0  0  0
  -20.1670   -2.1180  -28.3930 C   0  0  0  0  0  3  0  0  0  0  0  0
  -20.4660   -3.4640  -28.3860 C   0  0  0  0  0  3  0  0  0  0  0  0
  -20.7320   -4.0640  -29.6000 C   0  0  0  0  0  3  0  0  0  0  0  0
  -20.6970   -3.3320  -30.7790 C   0  0  0  0  0  0  0  0  0  0  0  0
  -21.0390   -4.1140  -32.3180 Cl  0  0  0  0  0  0  0  0  0  0  0  0
  -21.7760    1.3690  -34.8140 C   0  0  1  0  0  3  0  0  0  0  0  0
  -21.6420    0.2930  -35.6880 O   0  0  0  0  0  0  0  0  0  0  0  0
  -22.9570   -0.1610  -35.7680 C   0  0  2  0  0  3  0  0  0  0  0  0
  -23.2800   -0.3700  -34.2960 C   0  0  1  0  0  3  0  0  0  0  0  0
  -22.6800    0.8850  -33.6950 C   0  0  2  0  0  3  0  0  0  0  0  0
  -23.0840   -1.4380  -36.5550 C   0  0  0  0  0  2  0  0  0  0  0  0
  -22.8730   -2.5630  -35.7970 O   0  0  0  0  0  0  0  0  0  0  0  0
  -23.0740   -3.3860  -36.2930 H   0  0  0  0  0  0  0  0  0  0  0  0
  -24.6470   -0.4500  -34.0730 O   0  0  0  0  0  0  0  0  0  0  0  0
  -25.0800   -0.6510  -34.9460 H   0  0  0  0  0  0  0  0  0  0  0  0
  -23.7340    1.7740  -33.4700 O   0  0  0  0  0  0  0  0  0  0  0  0
  -23.4190    2.6850  -33.3080 H   0  0  0  0  0  0  0  0  0  0  0  0
  -17.0380    4.6070  -32.8620 N   0  0  0  0  0  0  0  0  0  0  0  0
  -16.6310    5.5290  -32.6290 H   0  0  0  0  0  0  0  0  0  0  0  0
  -16.4720    3.7540  -32.7080 H   0  0  0  0  0  0  0  0  0  0  0  0
  1 10  1  0  0  0  0
  1  9  2  0  0  0  0
  2  3  1  0  0  0  0
  2  1  1  0  0  0  0
  3  8  1  0  0  0  0
  4  5  1  0  0  0  0
  4  3  2  0  0  0  0
  5  6  2  0  0  0  0
  6  7  1  0  0  0  0
  7 34  1  0  0  0  0
  8  9  1  0  0  0  0
  8  7  2  0  0  0  0
 10 12  1  0  0  0  0
 11 10  1  0  0  0  0
 12 13  2  0  0  0  0
 13 14  1  0  0  0  0
 14 20  2  0  0  0  0
 14 15  1  0  0  0  0
 15 17  2  0  0  0  0
 16 15  1  0  0  0  0
 17 18  1  0  0  0  0
 19 18  2  0  0  0  0
 20 19  1  0  0  0  0
 21 20  1  0  0  0  0
 22  2  1  1  0  0  0
 22 26  1  0  0  0  0
 23 22  1  0  0  0  0
 24 27  1  6  0  0  0
 24 23  1  0  0  0  0
 24 25  1  0  0  0  0
 25 30  1  6  0  0  0
 25 26  1  0  0  0  0
 26 32  1  6  0  0  0
 27 28  1  0  0  0  0
 29 28  1  0  0  0  0
 31 30  1  0  0  0  0
 32 33  1  0  0  0  0
 34 36  1  0  0  0  0
 34 35  1  0  0  0  0
M  END
>  <Pose>
1

>  <Score>
-8.082

$$$$
