/Users/jonathanwahrer/Desktop/Msc/3_Semester/Drug_Design_Praktikum/waehrer_HTS_screening/HTS_experiment/out/docking_results/vina_output/5l4q/1846_docked.pdbqt
 OpenBabel03212219053D

 31 34  0  0  1  0  0  0  0  0999 V2000
  -19.8250   -2.1080  -30.6330 N   0  0  0  0  0  0  0  0  0  0  0  0
  -19.3880   -0.9570  -31.1900 C   0  0  0  0  0  2  0  0  0  0  0  0
  -19.8640   -0.5510  -32.3860 N   0  0  0  0  0  0  0  0  0  0  0  0
  -20.7750   -1.2450  -33.0780 C   0  0  0  0  0  0  0  0  0  0  0  0
  -21.2550   -0.8500  -34.2690 N   0  0  0  0  0  0  0  0  0  0  0  0
  -22.1690   -1.5270  -34.9840 C   0  0  0  0  0  0  0  0  0  0  0  0
  -22.6220   -2.6890  -34.4400 N   0  0  0  0  0  0  0  0  0  0  0  0
  -22.1700   -3.1200  -33.2520 C   0  0  0  0  0  3  0  0  0  0  0  0
  -21.2310   -2.4170  -32.5270 C   0  0  2  0  0  3  0  0  0  0  0  0
  -20.7540   -2.8440  -31.3050 C   0  0  0  0  0  0  0  0  0  0  0  0
  -21.2090   -3.9240  -30.8540 O   0  0  0  0  0  0  0  0  0  0  0  0
  -19.3730   -2.6070  -29.3730 C   0  0  0  0  0  2  0  0  0  0  0  0
  -19.3170   -1.5380  -28.3170 C   0  0  0  0  0  0  0  0  0  0  0  0
  -18.0980   -1.1520  -27.7390 N   0  0  0  0  0  0  0  0  0  0  0  0
  -17.2010   -1.6430  -28.0700 H   0  0  0  0  0  0  0  0  0  0  0  0
  -20.4030   -1.0290  -27.9990 O   0  0  0  0  0  0  0  0  0  0  0  0
  -17.9860   -0.1590  -26.7420 C   0  0  0  0  0  0  0  0  0  0  0  0
  -18.2070   -0.3420  -25.4010 C   0  0  0  0  0  3  0  0  0  0  0  0
  -18.0790    0.7250  -24.5100 C   0  0  0  0  0  3  0  0  0  0  0  0
  -17.7350    1.9960  -24.8980 C   0  0  0  0  0  0  0  0  0  0  0  0
  -17.5120    2.1900  -26.2400 C   0  0  0  0  0  0  0  0  0  0  0  0
  -17.0660    3.7730  -26.8430 Cl  0  0  0  0  0  0  0  0  0  0  0  0
  -17.6340    1.1490  -27.1260 C   0  0  0  0  0  3  0  0  0  0  0  0
  -17.6160    3.0430  -23.9740 O   0  0  0  0  0  0  0  0  0  0  0  0
  -16.5300    3.0670  -23.0770 C   0  0  0  0  0  1  0  0  0  0  0  0
  -22.6480   -1.0760  -36.2370 N   0  0  0  0  0  0  0  0  0  0  0  0
  -21.9600    0.0150  -36.8860 C   0  0  0  0  0  2  0  0  0  0  0  0
  -21.8920   -0.2690  -38.3860 C   0  0  0  0  0  2  0  0  0  0  0  0
  -23.1340   -0.6370  -38.8980 O   0  0  0  0  0  0  0  0  0  0  0  0
  -23.4300   -1.8910  -38.3650 C   0  0  0  0  0  2  0  0  0  0  0  0
  -23.7940   -1.6550  -36.8990 C   0  0  0  0  0  2  0  0  0  0  0  0
  1 12  1  0  0  0  0
  2  1  1  0  0  0  0
  3  2  1  0  0  0  0
  4  9  1  0  0  0  0
  4  3  2  0  0  0  0
  5  4  1  0  0  0  0
  6  7  1  0  0  0  0
  6  5  2  0  0  0  0
  7  8  2  0  0  0  0
  9  8  1  1  0  0  0
  9 10  1  0  0  0  0
 10 11  2  0  0  0  0
 10  1  1  0  0  0  0
 12 13  1  0  0  0  0
 13 16  2  0  0  0  0
 13 14  1  0  0  0  0
 14 17  1  0  0  0  0
 15 14  1  0  0  0  0
 17 18  1  0  0  0  0
 18 19  2  0  0  0  0
 20 19  1  0  0  0  0
 20 24  1  0  0  0  0
 21 20  2  0  0  0  0
 22 21  1  0  0  0  0
 23 17  2  0  0  0  0
 23 21  1  0  0  0  0
 24 25  1  0  0  0  0
 26  6  1  0  0  0  0
 27 26  1  0  0  0  0
 28 27  1  0  0  0  0
 29 28  1  0  0  0  0
 29 30  1  0  0  0  0
 30 31  1  0  0  0  0
 31 26  1  0  0  0  0
M  END
>  <Pose>
1

>  <Score>
-8.926

$$$$
