/Users/jonathanwahrer/Desktop/Msc/3_Semester/Drug_Design_Praktikum/waehrer_HTS_screening/HTS_experiment/out/docking_results/vina_output/5l4q/1852_docked.pdbqt
 OpenBabel03212219063D

 26 29  0  0  1  0  0  0  0  0999 V2000
  -21.0870   -2.0130  -30.9050 N   0  0  0  0  0  0  0  0  0  0  0  0
  -20.3760   -0.9940  -30.1990 C   0  0  0  0  0  2  0  0  0  0  0  0
  -19.9210   -1.5860  -28.8750 C   0  0  1  0  0  3  0  0  0  0  0  0
  -19.8090   -3.0570  -29.2180 C   0  0  0  0  0  2  0  0  0  0  0  0
  -21.0110   -3.2260  -30.1550 C   0  0  0  0  0  2  0  0  0  0  0  0
  -20.5510   -2.1880  -32.5320 S   0  0  0  0  0  0  0  0  0  0  0  0
  -20.4240   -3.6340  -32.8760 O   0  0  0  0  0  0  0  0  0  0  0  0
  -19.1930   -1.5450  -32.6340 O   0  0  0  0  0  0  0  0  0  0  0  0
  -21.6330   -1.4030  -33.6580 C   0  0  0  0  0  0  0  0  0  0  0  0
  -22.1980   -2.1160  -34.6970 C   0  0  0  0  0  3  0  0  0  0  0  0
  -23.0590   -1.5420  -35.6160 C   0  0  0  0  0  0  0  0  0  0  0  0
  -23.3840   -0.2020  -35.5100 C   0  0  0  0  0  0  0  0  0  0  0  0
  -23.6290   -2.2420  -36.6550 O   0  0  0  0  0  0  0  0  0  0  0  0
  -22.8190    0.4990  -34.4760 C   0  0  0  0  0  3  0  0  0  0  0  0
  -24.2510    0.3320  -36.4500 O   0  0  0  0  0  0  0  0  0  0  0  0
  -21.9610   -0.0690  -33.5590 C   0  0  0  0  0  3  0  0  0  0  0  0
  -24.4210   -0.2070  -37.7490 C   0  0  0  0  0  2  0  0  0  0  0  0
  -24.1970   -1.6950  -37.8080 C   0  0  0  0  0  2  0  0  0  0  0  0
  -18.6200   -1.0910  -28.6080 O   0  0  0  0  0  0  0  0  0  0  0  0
  -18.3610   -0.2410  -27.5450 C   0  0  0  0  0  0  0  0  0  0  0  0
  -18.4510   -0.7960  -26.3020 N   0  0  0  0  0  0  0  0  0  0  0  0
  -18.2050    0.0040  -25.2520 C   0  0  0  0  0  3  0  0  0  0  0  0
  -17.8720    1.3360  -25.3960 C   0  0  0  0  0  0  0  0  0  0  0  0
  -17.7950    1.8440  -26.6790 C   0  0  0  0  0  2  0  0  0  0  0  0
  -17.5540    2.3690  -24.0170 Cl  0  0  0  0  0  0  0  0  0  0  0  0
  -18.0420    1.0390  -27.7340 N   0  0  0  0  0  0  0  0  0  0  0  0
  1  2  1  0  0  0  0
  1  5  1  0  0  0  0
  2  3  1  0  0  0  0
  3 19  1  6  0  0  0
  4  3  1  0  0  0  0
  5  4  1  0  0  0  0
  6  1  1  0  0  0  0
  7  6  2  0  0  0  0
  8  6  2  0  0  0  0
  9 16  1  0  0  0  0
  9  6  1  0  0  0  0
 10  9  2  0  0  0  0
 11 12  2  0  0  0  0
 11 10  1  0  0  0  0
 12 14  1  0  0  0  0
 13 11  1  0  0  0  0
 14 16  2  0  0  0  0
 15 12  1  0  0  0  0
 17 15  1  0  0  0  0
 18 17  1  0  0  0  0
 18 13  1  0  0  0  0
 19 20  1  0  0  0  0
 20 21  2  0  0  0  0
 21 22  1  0  0  0  0
 23 22  2  0  0  0  0
 23 25  1  0  0  0  0
 24 23  1  0  0  0  0
 26 20  2  0  0  0  0
 26 24  1  0  0  0  0
M  END
>  <Pose>
1

>  <Score>
-8.185

$$$$
