/Users/jonathanwahrer/Desktop/Msc/3_Semester/Drug_Design_Praktikum/waehrer_HTS_screening/HTS_experiment/out/docking_results/vina_output/5l4q/1856_docked.pdbqt
 OpenBabel03212219063D

 31 34  0  0  0  0  0  0  0  0999 V2000
  -18.7790    0.3140  -33.2380 C   0  0  0  0  0  0  0  0  0  0  0  0
  -18.7260    1.6520  -33.1520 N   0  0  0  0  0  4  0  0  0  0  0  0
  -19.5900    2.4870  -33.7870 C   0  0  0  0  0  0  0  0  0  0  0  0
  -20.5400    1.8670  -34.5380 N   0  0  0  0  0  0  0  0  0  0  0  0
  -20.6420    0.5350  -34.6620 C   0  0  0  0  0  0  0  0  0  0  0  0
  -19.7610   -0.2120  -34.0100 N   0  0  0  0  0  2  0  0  0  0  0  0
  -17.8510   -0.5160  -32.5540 N   0  0  0  0  0  0  0  0  0  0  0  0
  -17.0480   -0.9490  -33.0510 H   0  0  0  0  0  0  0  0  0  0  0  0
  -17.9850   -0.7800  -31.1910 N   0  0  0  0  0  0  0  0  0  0  0  0
  -19.0370   -1.4670  -30.8030 C   0  0  0  0  0  3  0  0  0  0  0  0
  -19.2160   -1.7650  -29.3900 C   0  0  0  0  0  0  0  0  0  0  0  0
  -18.7210   -0.8700  -28.4290 C   0  0  0  0  0  3  0  0  0  0  0  0
  -18.8790   -1.1320  -27.1010 C   0  0  0  0  0  0  0  0  0  0  0  0
  -18.2070    0.0800  -25.7910 Br  0  0  0  0  0  0  0  0  0  0  0  0
  -19.5250   -2.2710  -26.6740 C   0  0  0  0  0  3  0  0  0  0  0  0
  -20.0180   -3.1600  -27.5950 C   0  0  0  0  0  3  0  0  0  0  0  0
  -19.8570   -2.8960  -28.9650 C   0  0  0  0  0  0  0  0  0  0  0  0
  -20.3650   -3.8120  -29.8650 O   0  0  0  0  0  0  0  0  0  0  0  0
  -20.1600   -3.8220  -30.8430 H   0  0  0  0  0  0  0  0  0  0  0  0
  -19.5080    3.8870  -33.6760 N   0  0  0  0  0  0  0  0  0  0  0  0
  -20.4870    4.7270  -34.2980 C   0  0  0  0  0  2  0  0  0  0  0  0
  -21.0330    5.6510  -33.2230 C   0  0  0  0  0  2  0  0  0  0  0  0
  -19.9410    6.3690  -32.7110 O   0  0  0  0  0  0  0  0  0  0  0  0
  -19.1020    5.5180  -31.9910 C   0  0  0  0  0  2  0  0  0  0  0  0
  -18.4470    4.5070  -32.9410 C   0  0  0  0  0  2  0  0  0  0  0  0
  -21.6560   -0.0420  -35.4600 N   0  0  0  0  0  0  0  0  0  0  0  0
  -22.1060    0.5360  -36.7100 C   0  0  0  0  0  2  0  0  0  0  0  0
  -22.5810   -0.5610  -37.6390 C   0  0  0  0  0  2  0  0  0  0  0  0
  -23.5680   -1.3460  -37.1060 O   0  0  0  0  0  0  0  0  0  0  0  0
  -23.7060   -1.2160  -35.7300 C   0  0  0  0  0  2  0  0  0  0  0  0
  -22.3320   -1.2840  -35.0700 C   0  0  0  0  0  2  0  0  0  0  0  0
  1  2  2  0  0  0  0
  1  7  1  0  0  0  0
  3 20  1  0  0  0  0
  3  2  2  0  0  0  0
  4  3  1  0  0  0  0
  5  4  2  0  0  0  0
  5  6  1  0  0  0  0
  6  1  1  0  0  0  0
  7  9  1  0  0  0  0
  8  7  1  0  0  0  0
  9 10  2  0  0  0  0
 10 11  1  0  0  0  0
 11 17  2  0  0  0  0
 11 12  1  0  0  0  0
 12 13  2  0  0  0  0
 13 15  1  0  0  0  0
 13 14  1  0  0  0  0
 16 15  2  0  0  0  0
 17 16  1  0  0  0  0
 18 17  1  0  0  0  0
 19 18  1  0  0  0  0
 20 25  1  0  0  0  0
 21 20  1  0  0  0  0
 21 22  1  0  0  0  0
 22 23  1  0  0  0  0
 23 24  1  0  0  0  0
 25 24  1  0  0  0  0
 26 31  1  0  0  0  0
 26  5  1  0  0  0  0
 27 26  1  0  0  0  0
 28 29  1  0  0  0  0
 28 27  1  0  0  0  0
 29 30  1  0  0  0  0
 30 31  1  0  0  0  0
M  END
>  <Pose>
1

>  <Score>
-8.386

$$$$
