/Users/jonathanwahrer/Desktop/Msc/3_Semester/Drug_Design_Praktikum/waehrer_HTS_screening/HTS_experiment/out/docking_results/vina_output/5l4q/1865_docked.pdbqt
 OpenBabel03212219073D

 29 32  0  0  1  0  0  0  0  0999 V2000
  -20.5150   -1.8530  -32.2910 N   0  0  0  0  0  0  0  0  0  0  0  0
  -21.1260   -2.9870  -32.9240 C   0  0  0  0  0  0  0  0  0  0  0  0
  -20.7220   -4.1910  -32.8030 O   0  0  0  0  0  0  0  0  0  0  0  0
  -22.2400   -2.5450  -33.6950 N   0  0  0  0  0  0  0  0  0  0  0  0
  -22.0110   -1.1390  -33.9400 C   0  0  1  0  0  0  0  0  0  0  0  0
  -21.0080   -1.0460  -35.0750 C   0  0  0  0  0  2  0  0  0  0  0  0
  -20.4470    0.3710  -35.0280 C   0  0  0  0  0  2  0  0  0  0  0  0
  -21.5300    1.3300  -34.9250 N   0  0  0  0  0  0  0  0  0  0  0  0
  -22.8940    0.8800  -35.0180 C   0  0  0  0  0  2  0  0  0  0  0  0
  -23.2150   -0.3540  -34.2390 C   0  0  0  0  0  2  0  0  0  0  0  0
  -21.2380    2.7060  -34.7380 C   0  0  0  0  0  0  0  0  0  0  0  0
  -22.1930    3.5420  -34.6440 O   0  0  0  0  0  0  0  0  0  0  0  0
  -21.2940   -0.7330  -32.7050 C   0  0  0  0  0  0  0  0  0  0  0  0
  -21.3140    0.3630  -32.0830 O   0  0  0  0  0  0  0  0  0  0  0  0
  -23.0480   -3.1110  -34.0160 H   0  0  0  0  0  0  0  0  0  0  0  0
  -19.3640   -1.8290  -31.4190 C   0  0  0  0  0  2  0  0  0  0  0  0
  -19.7060   -2.1110  -30.0090 C   0  0  0  0  0  0  0  0  0  0  0  0
  -19.9080   -3.3970  -29.5630 C   0  0  0  0  0  3  0  0  0  0  0  0
  -20.2300   -3.6990  -28.2560 C   0  0  0  0  0  0  0  0  0  0  0  0
  -20.4860   -5.3400  -27.6950 Cl  0  0  0  0  0  0  0  0  0  0  0  0
  -20.3460   -2.6400  -27.3790 C   0  0  0  0  0  3  0  0  0  0  0  0
  -20.1460   -1.3450  -27.8120 C   0  0  0  0  0  3  0  0  0  0  0  0
  -19.8240   -1.0610  -29.1280 C   0  0  0  0  0  3  0  0  0  0  0  0
  -19.8880    3.2340  -34.6480 C   0  0  0  0  0  0  0  0  0  0  0  0
  -19.2070    3.6780  -35.7220 N   0  0  0  0  0  0  0  0  0  0  0  0
  -17.9590    4.1540  -35.5660 C   0  0  0  0  0  3  0  0  0  0  0  0
  -17.3370    4.2100  -34.3370 C   0  0  0  0  0  3  0  0  0  0  0  0
  -18.0120    3.7680  -33.2640 N   0  0  0  0  0  0  0  0  0  0  0  0
  -19.2750    3.2860  -33.4180 C   0  0  0  0  0  3  0  0  0  0  0  0
  1 16  1  0  0  0  0
  2  3  2  0  0  0  0
  2  1  1  0  0  0  0
  4  2  1  0  0  0  0
  5  6  1  6  0  0  0
  5  4  1  0  0  0  0
  5 13  1  0  0  0  0
  6  7  1  0  0  0  0
  7  8  1  0  0  0  0
  8 11  1  0  0  0  0
  9  8  1  0  0  0  0
  9 10  1  0  0  0  0
 10  5  1  0  0  0  0
 11 24  1  0  0  0  0
 11 12  2  0  0  0  0
 13  1  1  0  0  0  0
 13 14  2  0  0  0  0
 15  4  1  0  0  0  0
 16 17  1  0  0  0  0
 17 18  2  0  0  0  0
 17 23  1  0  0  0  0
 18 19  1  0  0  0  0
 19 20  1  0  0  0  0
 19 21  2  0  0  0  0
 22 21  1  0  0  0  0
 23 22  2  0  0  0  0
 24 29  1  0  0  0  0
 25 26  1  0  0  0  0
 25 24  2  0  0  0  0
 26 27  2  0  0  0  0
 27 28  1  0  0  0  0
 29 28  2  0  0  0  0
M  END
>  <Pose>
1

>  <Score>
-8.146

$$$$
