/Users/jonathanwahrer/Desktop/Msc/3_Semester/Drug_Design_Praktikum/waehrer_HTS_screening/HTS_experiment/out/docking_results/vina_output/5l4q/1871_docked.pdbqt
 OpenBabel03212219073D

 28 31  0  0  1  0  0  0  0  0999 V2000
  -21.7900   -0.3060  -38.3210 C   0  0  2  0  0  0  0  0  0  0  0  0
  -22.4810   -1.3320  -37.6430 N   0  0  0  0  0  4  0  0  0  0  0  0
  -22.7670   -0.9480  -36.3260 C   0  0  0  0  0  0  0  0  0  0  0  0
  -23.2610   -1.4160  -35.2060 C   0  0  0  0  0  3  0  0  0  0  0  0
  -23.3730   -0.5810  -34.0050 C   0  0  0  0  0  3  0  0  0  0  0  0
  -23.2730    0.8700  -34.1050 C   0  0  0  0  0  3  0  0  0  0  0  0
  -22.9190    1.4020  -35.4710 C   0  0  0  0  0  2  0  0  0  0  0  0
  -22.2650    0.4160  -36.2560 N   0  0  0  0  0  0  0  0  0  0  0  0
  -21.0930    0.3580  -37.1210 C   0  0  2  0  0  3  0  0  0  0  0  0
  -20.5460    1.7020  -37.3620 C   0  0  0  0  0  1  0  0  0  0  0  0
  -21.6540   -2.0590  -37.4480 H   0  0  0  0  0  0  0  0  0  0  0  0
  -22.5600    0.6980  -39.0520 C   0  0  0  0  0  0  0  0  0  0  0  0
  -22.0090    1.3170  -40.1440 C   0  0  0  0  0  3  0  0  0  0  0  0
  -22.6940    2.2940  -40.8630 C   0  0  0  0  0  3  0  0  0  0  0  0
  -23.9730    2.6410  -40.4500 C   0  0  0  0  0  0  0  0  0  0  0  0
  -24.9160    3.8600  -41.2860 Cl  0  0  0  0  0  0  0  0  0  0  0  0
  -24.5150    2.0080  -39.3490 C   0  0  0  0  0  3  0  0  0  0  0  0
  -23.8350    1.0400  -38.6370 C   0  0  0  0  0  3  0  0  0  0  0  0
  -20.7760   -0.8440  -39.0800 O   0  0  0  0  0  0  0  0  0  0  0  0
  -20.2520   -1.5590  -38.6750 H   0  0  0  0  0  0  0  0  0  0  0  0
  -23.3360   -2.1430  -38.3820 C   0  0  0  0  0  0  0  0  0  0  0  0
  -24.5630   -2.4490  -37.8170 C   0  0  0  0  0  3  0  0  0  0  0  0
  -25.4920   -3.2490  -38.4370 C   0  0  0  0  0  3  0  0  0  0  0  0
  -25.2580   -3.8120  -39.6960 C   0  0  0  0  0  0  0  0  0  0  0  0
  -24.0350   -3.4940  -40.2320 C   0  0  0  0  0  3  0  0  0  0  0  0
  -23.1110   -2.6940  -39.6060 C   0  0  0  0  0  3  0  0  0  0  0  0
  -26.2010   -4.6110  -40.3120 O   0  0  0  0  0  0  0  0  0  0  0  0
  -27.0890   -5.3680  -39.5280 C   0  0  0  0  0  1  0  0  0  0  0  0
  1 19  1  6  0  0  0
  1  2  1  0  0  0  0
  1  9  1  0  0  0  0
  2 11  1  0  0  0  0
  2  3  1  0  0  0  0
  3  8  1  0  0  0  0
  3  4  2  0  0  0  0
  4  5  1  0  0  0  0
  6  5  2  0  0  0  0
  7  6  1  0  0  0  0
  8  7  1  0  0  0  0
  9 10  1  6  0  0  0
  9  8  1  0  0  0  0
 12 18  1  0  0  0  0
 12  1  1  0  0  0  0
 13 12  2  0  0  0  0
 14 15  2  0  0  0  0
 14 13  1  0  0  0  0
 15 17  1  0  0  0  0
 16 15  1  0  0  0  0
 17 18  2  0  0  0  0
 19 20  1  0  0  0  0
 21 22  1  0  0  0  0
 21  2  1  0  0  0  0
 23 22  2  0  0  0  0
 24 23  1  0  0  0  0
 25 24  2  0  0  0  0
 25 26  1  0  0  0  0
 26 21  2  0  0  0  0
 27 24  1  0  0  0  0
 27 28  1  0  0  0  0
M  END
>  <Pose>
1

>  <Score>
-7.898

$$$$
