/Users/jonathanwahrer/Desktop/Msc/3_Semester/Drug_Design_Praktikum/waehrer_HTS_screening/HTS_experiment/out/docking_results/vina_output/5l4q/1894_docked.pdbqt
 OpenBabel03212219073D

 26 29  0  0  0  0  0  0  0  0999 V2000
  -19.8890   -2.1650  -29.0410 N   0  0  0  0  0  0  0  0  0  0  0  0
  -19.9410   -1.7280  -30.3200 C   0  0  0  0  0  0  0  0  0  0  0  0
  -19.5380   -0.6060  -30.6940 O   0  0  0  0  0  0  0  0  0  0  0  0
  -20.4980   -2.6870  -31.1490 C   0  0  0  0  0  0  0  0  0  0  0  0
  -20.7900   -3.7290  -30.3580 C   0  0  0  0  0  0  0  0  0  0  0  0
  -21.3270   -4.6540  -31.1720 N   0  0  0  0  0  0  0  0  0  0  0  0
  -21.3600   -4.1910  -32.4080 N   0  0  0  0  0  0  0  0  0  0  0  0
  -20.8520   -2.9780  -32.4120 N   0  0  0  0  0  0  0  0  0  0  0  0
  -20.4130   -3.3960  -29.0740 C   0  0  0  0  0  0  0  0  0  0  0  0
  -20.5440   -4.1490  -28.0700 O   0  0  0  0  0  0  0  0  0  0  0  0
  -21.6740   -5.5990  -30.9050 H   0  0  0  0  0  0  0  0  0  0  0  0
  -21.7320   -4.7040  -33.2620 H   0  0  0  0  0  0  0  0  0  0  0  0
  -19.3850   -1.4650  -27.9050 C   0  0  0  0  0  0  0  0  0  0  0  0
  -19.4210   -0.0890  -27.8340 C   0  0  0  0  0  3  0  0  0  0  0  0
  -18.9360    0.5960  -26.7370 C   0  0  0  0  0  3  0  0  0  0  0  0
  -18.3920   -0.0720  -25.6600 C   0  0  0  0  0  0  0  0  0  0  0  0
  -17.7740    0.8040  -24.2620 Cl  0  0  0  0  0  0  0  0  0  0  0  0
  -18.3510   -1.4500  -25.7190 C   0  0  0  0  0  3  0  0  0  0  0  0
  -18.8380   -2.1270  -26.8200 C   0  0  0  0  0  3  0  0  0  0  0  0
  -20.6990   -2.1010  -33.5490 C   0  0  0  0  0  2  0  0  0  0  0  0
  -21.8410   -1.1840  -33.7530 C   0  0  0  0  0  0  0  0  0  0  0  0
  -21.7430    0.1250  -33.3490 C   0  0  0  0  0  3  0  0  0  0  0  0
  -22.8190    0.9590  -33.5450 C   0  0  0  0  0  3  0  0  0  0  0  0
  -23.9860    0.5070  -34.1360 C   0  0  0  0  0  3  0  0  0  0  0  0
  -24.0850   -0.8050  -34.5400 C   0  0  0  0  0  3  0  0  0  0  0  0
  -23.0070   -1.6210  -34.3390 C   0  0  0  0  0  3  0  0  0  0  0  0
  1 13  1  0  0  0  0
  2  1  1  0  0  0  0
  3  2  2  0  0  0  0
  4  5  2  0  0  0  0
  4  2  1  0  0  0  0
  5  9  1  0  0  0  0
  6 11  1  0  0  0  0
  6  5  1  0  0  0  0
  7  6  1  0  0  0  0
  8  7  1  0  0  0  0
  8  4  1  0  0  0  0
  9  1  1  0  0  0  0
  9 10  2  0  0  0  0
 12  7  1  0  0  0  0
 13 14  2  0  0  0  0
 13 19  1  0  0  0  0
 14 15  1  0  0  0  0
 15 16  2  0  0  0  0
 16 17  1  0  0  0  0
 18 16  1  0  0  0  0
 19 18  2  0  0  0  0
 20  8  1  0  0  0  0
 21 20  1  0  0  0  0
 21 22  1  0  0  0  0
 23 22  2  0  0  0  0
 24 23  1  0  0  0  0
 25 26  1  0  0  0  0
 25 24  2  0  0  0  0
 26 21  2  0  0  0  0
M  END
>  <Pose>
1

>  <Score>
-9.309

$$$$
