/Users/jonathanwahrer/Desktop/Msc/3_Semester/Drug_Design_Praktikum/waehrer_HTS_screening/HTS_experiment/out/docking_results/vina_output/5l4q/1906_docked.pdbqt
 OpenBabel03212219083D

 33 36  0  0  1  0  0  0  0  0999 V2000
  -20.7620   -0.5990  -33.6140 C   0  0  1  0  0  0  0  0  0  0  0  0
  -20.5040   -1.9670  -33.4480 O   0  0  0  0  0  0  0  0  0  0  0  0
  -21.5980   -2.7160  -33.1110 C   0  0  0  0  0  2  0  0  0  0  0  0
  -22.6070   -2.8750  -34.2300 C   0  0  0  0  0  2  0  0  0  0  0  0
  -22.6180   -1.5450  -34.8910 N   0  0  0  0  0  0  0  0  0  0  0  0
  -22.2300   -0.4720  -34.0590 C   0  0  0  0  0  2  0  0  0  0  0  0
  -22.9950   -1.4800  -36.2160 C   0  0  0  0  0  0  0  0  0  0  0  0
  -23.3310   -2.5610  -36.8550 O   0  0  0  0  0  0  0  0  0  0  0  0
  -20.7010   -0.0010  -32.2380 C   0  0  0  0  0  2  0  0  0  0  0  0
  -20.0750   -0.6110  -31.2570 O   0  0  0  0  0  0  0  0  0  0  0  0
  -20.0560   -1.1880  -30.0910 C   0  0  0  0  0  0  0  0  0  0  0  0
  -20.2080   -2.5330  -29.8700 C   0  0  0  0  0  3  0  0  0  0  0  0
  -20.1740   -3.0400  -28.6000 C   0  0  0  0  0  0  0  0  0  0  0  0
  -20.3730   -4.7750  -28.3530 Cl  0  0  0  0  0  0  0  0  0  0  0  0
  -19.9860   -2.2270  -27.4970 C   0  0  0  0  0  3  0  0  0  0  0  0
  -19.8330   -0.8830  -27.7150 C   0  0  0  0  0  3  0  0  0  0  0  0
  -19.8630   -0.3630  -28.9660 C   0  0  0  0  0  3  0  0  0  0  0  0
  -19.8300   -0.0710  -34.6060 C   0  0  0  0  0  2  0  0  0  0  0  0
  -18.8540    0.9360  -34.1860 C   0  0  0  0  0  0  0  0  0  0  0  0
  -17.7860    0.6040  -33.6360 O   0  0  0  0  0  0  0  0  0  0  0  0
  -19.0880    2.3260  -34.3880 N   0  0  0  0  0  0  0  0  0  0  0  0
  -20.3100    2.8090  -35.0210 C   0  0  0  0  0  2  0  0  0  0  0  0
  -18.1270    3.3270  -33.9730 C   0  0  0  0  0  2  0  0  0  0  0  0
  -19.8970    3.8180  -36.0720 C   0  0  0  0  0  2  0  0  0  0  0  0
  -19.1680    4.8390  -35.4550 O   0  0  0  0  0  0  0  0  0  0  0  0
  -17.9310    4.3280  -35.0650 C   0  0  0  0  0  2  0  0  0  0  0  0
  -23.0580   -0.2820  -36.9960 C   0  0  0  0  0  0  0  0  0  0  0  0
  -21.9840    0.4060  -37.3860 N   0  0  0  0  0  0  0  0  0  0  0  0
  -22.0350    1.5350  -38.1200 C   0  0  0  0  0  3  0  0  0  0  0  0
  -23.2660    2.0360  -38.5110 C   0  0  0  0  0  0  0  0  0  0  0  0
  -24.3540    1.3800  -38.1430 N   0  0  0  0  0  0  0  0  0  0  0  0
  -23.2620    3.2810  -39.3180 C   0  0  0  0  0  1  0  0  0  0  0  0
  -24.2810    0.2560  -37.4110 C   0  0  0  0  0  3  0  0  0  0  0  0
  1 18  1  6  0  0  0
  1  2  1  0  0  0  0
  1  9  1  0  0  0  0
  2  3  1  0  0  0  0
  4  3  1  0  0  0  0
  5  4  1  0  0  0  0
  5  6  1  0  0  0  0
  6  1  1  0  0  0  0
  7  5  1  0  0  0  0
  8  7  2  0  0  0  0
  9 10  1  0  0  0  0
 10 11  1  0  0  0  0
 11 12  2  0  0  0  0
 11 17  1  0  0  0  0
 12 13  1  0  0  0  0
 13 14  1  0  0  0  0
 13 15  2  0  0  0  0
 16 15  1  0  0  0  0
 17 16  2  0  0  0  0
 18 19  1  0  0  0  0
 19 20  2  0  0  0  0
 21 19  1  0  0  0  0
 21 23  1  0  0  0  0
 22 21  1  0  0  0  0
 24 25  1  0  0  0  0
 24 22  1  0  0  0  0
 25 26  1  0  0  0  0
 26 23  1  0  0  0  0
 27  7  1  0  0  0  0
 28 27  1  0  0  0  0
 29 28  2  0  0  0  0
 30 31  2  0  0  0  0
 30 29  1  0  0  0  0
 31 33  1  0  0  0  0
 32 30  1  0  0  0  0
 33 27  2  0  0  0  0
M  END
>  <Pose>
1

>  <Score>
-8.220

$$$$
