/Users/jonathanwahrer/Desktop/Msc/3_Semester/Drug_Design_Praktikum/waehrer_HTS_screening/HTS_experiment/out/docking_results/vina_output/5l4q/1927_docked.pdbqt
 OpenBabel03212219083D

 36 39  0  0  1  0  0  0  0  0999 V2000
  -20.8010   -2.6680  -30.2800 C   0  0  0  0  0  2  0  0  0  0  0  0
  -20.3020   -2.9300  -28.9220 C   0  0  0  0  0  0  0  0  0  0  0  0
  -19.3910   -2.2420  -28.1310 N   0  0  0  0  0  0  0  0  0  0  0  0
  -18.5300   -1.1950  -28.5560 C   0  0  0  0  0  2  0  0  0  0  0  0
  -19.3020   -2.6110  -26.6940 C   0  0  0  0  0  2  0  0  0  0  0  0
  -18.7890    0.0590  -27.7470 C   0  0  0  0  0  2  0  0  0  0  0  0
  -18.3010   -0.3030  -26.3470 C   0  0  2  0  0  0  0  0  0  0  0  0
  -19.0530   -1.4530  -25.7880 C   0  0  0  0  0  2  0  0  0  0  0  0
  -20.8180   -4.0100  -28.3930 O   0  0  0  0  0  0  0  0  0  0  0  0
  -18.2120    0.8850  -25.5180 C   0  0  0  0  0  0  0  0  0  0  0  0
  -18.4920    2.1180  -26.1230 C   0  0  0  0  0  3  0  0  0  0  0  0
  -18.4020    3.3220  -25.4250 C   0  0  0  0  0  3  0  0  0  0  0  0
  -18.0320    3.3450  -24.1020 C   0  0  0  0  0  0  0  0  0  0  0  0
  -17.9060    4.8830  -23.2100 Cl  0  0  0  0  0  0  0  0  0  0  0  0
  -17.7520    2.1330  -23.4910 C   0  0  0  0  0  3  0  0  0  0  0  0
  -17.8450    0.9480  -24.1950 C   0  0  0  0  0  3  0  0  0  0  0  0
  -16.9640   -0.7610  -26.5770 O   0  0  0  0  0  0  0  0  0  0  0  0
  -16.3710   -0.1520  -26.0710 H   0  0  0  0  0  0  0  0  0  0  0  0
  -20.3070   -1.5490  -30.9550 N   0  0  0  0  0  0  0  0  0  0  0  0
  -20.0100   -1.4980  -32.3510 C   0  0  0  0  0  0  0  0  0  0  0  0
  -20.2030   -2.5750  -32.9750 O   0  0  0  0  0  0  0  0  0  0  0  0
  -20.1870   -0.6210  -30.4660 H   0  0  0  0  0  0  0  0  0  0  0  0
  -19.5320   -0.2910  -32.9680 C   0  0  0  0  0  3  0  0  0  0  0  0
  -19.4420    0.0520  -34.2110 C   0  0  0  0  0  0  0  0  0  0  0  0
  -19.8320   -0.8000  -35.2900 N   0  0  0  0  0  0  0  0  0  0  0  0
  -18.9400    1.3950  -34.5970 C   0  0  0  0  0  0  0  0  0  0  0  0
  -19.7440   -0.3920  -36.6370 N   0  0  0  0  0  0  0  0  0  0  0  0
  -20.1980   -1.7660  -35.1090 H   0  0  0  0  0  0  0  0  0  0  0  0
  -19.2630    0.8880  -36.9780 C   0  0  0  0  0  0  0  0  0  0  0  0
  -20.0420   -1.0380  -37.4050 H   0  0  0  0  0  0  0  0  0  0  0  0
  -19.2030    1.2150  -38.1990 O   0  0  0  0  0  0  0  0  0  0  0  0
  -18.8580    1.7860  -35.9140 C   0  0  0  0  0  0  0  0  0  0  0  0
  -18.4200    3.0370  -36.2970 C   0  0  0  0  0  3  0  0  0  0  0  0
  -18.0490    3.9320  -35.2970 C   0  0  0  0  0  3  0  0  0  0  0  0
  -18.1130    3.5920  -33.9740 C   0  0  0  0  0  3  0  0  0  0  0  0
  -18.5650    2.3060  -33.6530 C   0  0  0  0  0  3  0  0  0  0  0  0
  1  2  1  0  0  0  0
  2  9  2  0  0  0  0
  2  3  1  0  0  0  0
  3  5  1  0  0  0  0
  4  3  1  0  0  0  0
  4  6  1  0  0  0  0
  5  8  1  0  0  0  0
  6  7  1  0  0  0  0
  7 17  1  6  0  0  0
  7  8  1  0  0  0  0
  7 10  1  0  0  0  0
 10 16  1  0  0  0  0
 11 10  2  0  0  0  0
 11 12  1  0  0  0  0
 12 13  2  0  0  0  0
 13 15  1  0  0  0  0
 13 14  1  0  0  0  0
 16 15  2  0  0  0  0
 17 18  1  0  0  0  0
 19 22  1  0  0  0  0
 19  1  1  0  0  0  0
 20 19  1  0  0  0  0
 21 20  2  0  0  0  0
 23 20  1  0  0  0  0
 24 23  2  0  0  0  0
 25 28  1  0  0  0  0
 25 24  1  0  0  0  0
 26 24  1  0  0  0  0
 26 36  1  0  0  0  0
 27 25  1  0  0  0  0
 29 27  1  0  0  0  0
 29 32  1  0  0  0  0
 30 27  1  0  0  0  0
 31 29  2  0  0  0  0
 32 26  2  0  0  0  0
 33 32  1  0  0  0  0
 33 34  2  0  0  0  0
 34 35  1  0  0  0  0
 35 36  2  0  0  0  0
M  END
>  <Pose>
1

>  <Score>
-10.106

$$$$
