/Users/jonathanwahrer/Desktop/Msc/3_Semester/Drug_Design_Praktikum/waehrer_HTS_screening/HTS_experiment/out/docking_results/vina_output/5l4q/1936_docked.pdbqt
 OpenBabel03212219093D

 25 28  0  0  0  0  0  0  0  0999 V2000
  -21.7280   -1.9390  -33.4610 N   0  0  0  0  0  0  0  0  0  0  0  0
  -22.4400   -1.4860  -34.5880 C   0  0  0  0  0  0  0  0  0  0  0  0
  -22.9030   -2.3430  -35.3610 O   0  0  0  0  0  0  0  0  0  0  0  0
  -21.3290   -1.2340  -32.7980 H   0  0  0  0  0  0  0  0  0  0  0  0
  -21.5190   -3.3470  -33.1780 C   0  0  0  0  0  2  0  0  0  0  0  0
  -21.1100   -3.5240  -31.7420 C   0  0  0  0  0  0  0  0  0  0  0  0
  -20.8270   -2.5530  -30.8540 N   0  0  0  0  0  0  0  0  0  0  0  0
  -20.4980   -3.0800  -29.6610 C   0  0  0  0  0  0  0  0  0  0  0  0
  -20.1300   -2.5860  -28.4290 C   0  0  0  0  0  3  0  0  0  0  0  0
  -20.5770   -4.4690  -29.7990 C   0  0  0  0  0  0  0  0  0  0  0  0
  -19.8370   -3.3800  -27.3330 C   0  0  0  0  0  0  0  0  0  0  0  0
  -19.3720   -2.6950  -25.7770 Cl  0  0  0  0  0  0  0  0  0  0  0  0
  -19.9240   -4.7590  -27.5000 C   0  0  0  0  0  3  0  0  0  0  0  0
  -20.2880   -5.2700  -28.7190 C   0  0  0  0  0  3  0  0  0  0  0  0
  -20.9520   -4.6800  -31.0760 N   0  0  0  0  0  0  0  0  0  0  0  0
  -21.1000   -5.6230  -31.5000 H   0  0  0  0  0  0  0  0  0  0  0  0
  -22.6520   -0.0580  -34.8800 C   0  0  0  0  0  0  0  0  0  0  0  0
  -24.0240    0.4550  -34.6730 C   0  0  0  0  0  2  0  0  0  0  0  0
  -23.0360    0.8080  -33.6330 C   0  0  0  0  0  2  0  0  0  0  0  0
  -21.7320    0.6380  -35.7290 N   0  0  0  0  0  0  0  0  0  0  0  0
  -22.2320    1.0760  -36.9720 C   0  0  0  0  0  2  0  0  0  0  0  0
  -21.8350    0.0450  -38.0210 C   0  0  0  0  0  2  0  0  0  0  0  0
  -20.4750    0.0750  -38.2190 O   0  0  0  0  0  0  0  0  0  0  0  0
  -19.7350    0.4340  -37.1200 C   0  0  0  0  0  2  0  0  0  0  0  0
  -20.4320    0.1120  -35.8140 C   0  0  0  0  0  2  0  0  0  0  0  0
  1  5  1  0  0  0  0
  1  4  1  0  0  0  0
  2  1  1  0  0  0  0
  3  2  2  0  0  0  0
  5  6  1  0  0  0  0
  6 15  1  0  0  0  0
  6  7  2  0  0  0  0
  7  8  1  0  0  0  0
  8  9  1  0  0  0  0
  9 11  2  0  0  0  0
 10  8  2  0  0  0  0
 10 14  1  0  0  0  0
 11 12  1  0  0  0  0
 13 11  1  0  0  0  0
 14 13  2  0  0  0  0
 15 10  1  0  0  0  0
 16 15  1  0  0  0  0
 17 18  1  0  0  0  0
 17  2  1  0  0  0  0
 17 19  1  0  0  0  0
 18 19  1  0  0  0  0
 20 17  1  0  0  0  0
 21 20  1  0  0  0  0
 22 21  1  0  0  0  0
 23 22  1  0  0  0  0
 23 24  1  0  0  0  0
 24 25  1  0  0  0  0
 25 20  1  0  0  0  0
M  END
>  <Pose>
1

>  <Score>
-7.907

$$$$
