/Users/jonathanwahrer/Desktop/Msc/3_Semester/Drug_Design_Praktikum/waehrer_HTS_screening/HTS_experiment/out/docking_results/vina_output/5l4q/1939_docked.pdbqt
 OpenBabel03212219103D

 28 31  0  0  0  0  0  0  0  0999 V2000
  -22.4970    0.7350  -36.9940 N   0  0  0  0  0  0  0  0  0  0  0  0
  -22.7830   -0.4310  -37.6490 C   0  0  0  0  0  0  0  0  0  0  0  0
  -22.4350   -0.3230  -38.9670 C   0  0  0  0  0  0  0  0  0  0  0  0
  -21.9480    0.9050  -39.0810 N   0  0  0  0  0  0  0  0  0  0  0  0
  -21.9740    1.5780  -37.8850 C   0  0  0  0  0  0  0  0  0  0  0  0
  -22.6220   -1.3360  -39.8330 N   0  0  0  0  0  0  0  0  0  0  0  0
  -23.1700   -2.5010  -39.3990 C   0  0  0  0  0  0  0  0  0  0  0  0
  -23.3240   -3.4150  -40.2400 O   0  0  0  0  0  0  0  0  0  0  0  0
  -23.5290   -2.6550  -38.1130 N   0  0  0  0  0  0  0  0  0  0  0  0
  -23.3380   -1.6390  -37.2590 C   0  0  0  0  0  0  0  0  0  0  0  0
  -23.6900   -1.8310  -36.0740 O   0  0  0  0  0  0  0  0  0  0  0  0
  -22.2230   -1.1360  -41.2150 C   0  0  0  0  0  1  0  0  0  0  0  0
  -23.9440   -3.5680  -37.8320 H   0  0  0  0  0  0  0  0  0  0  0  0
  -22.7570    0.9210  -35.5910 C   0  0  0  0  0  2  0  0  0  0  0  0
  -21.6920    0.5450  -34.6650 C   0  0  0  0  0  0  0  0  0  0  0  0
  -20.4020    0.3290  -35.0210 C   0  0  0  0  0  3  0  0  0  0  0  0
  -19.4270   -0.0800  -34.1060 C   0  0  0  0  0  3  0  0  0  0  0  0
  -19.7510   -0.2790  -32.7970 C   0  0  0  0  0  0  0  0  0  0  0  0
  -18.4950   -0.7920  -31.6900 Cl  0  0  0  0  0  0  0  0  0  0  0  0
  -21.0490   -0.0710  -32.3930 C   0  0  0  0  0  3  0  0  0  0  0  0
  -21.9910    0.3310  -33.3110 C   0  0  0  0  0  3  0  0  0  0  0  0
  -21.5180    2.9090  -37.7540 N   0  0  0  0  0  0  0  0  0  0  0  0
  -22.3970    3.9750  -38.2150 C   0  0  0  0  0  2  0  0  0  0  0  0
  -22.1470    5.1070  -37.2030 C   0  0  0  0  0  2  0  0  0  0  0  0
  -21.8550    4.5880  -35.8850 N   0  0  0  0  0  0  0  0  0  0  0  0
  -20.6030    3.8670  -35.8020 C   0  0  0  0  0  2  0  0  0  0  0  0
  -21.7890    5.4020  -35.2520 H   0  0  0  0  0  0  0  0  0  0  0  0
  -20.2980    3.3820  -37.2120 C   0  0  0  0  0  2  0  0  0  0  0  0
  1 14  1  0  0  0  0
  2 10  1  0  0  0  0
  2  1  1  0  0  0  0
  3  2  2  0  0  0  0
  4  3  1  0  0  0  0
  4  5  2  0  0  0  0
  5 22  1  0  0  0  0
  5  1  1  0  0  0  0
  6  7  1  0  0  0  0
  6  3  1  0  0  0  0
  7  9  1  0  0  0  0
  8  7  2  0  0  0  0
  9 13  1  0  0  0  0
  9 10  1  0  0  0  0
 10 11  2  0  0  0  0
 12  6  1  0  0  0  0
 14 15  1  0  0  0  0
 15 21  1  0  0  0  0
 16 15  2  0  0  0  0
 16 17  1  0  0  0  0
 17 18  2  0  0  0  0
 18 20  1  0  0  0  0
 18 19  1  0  0  0  0
 21 20  2  0  0  0  0
 22 28  1  0  0  0  0
 23 22  1  0  0  0  0
 23 24  1  0  0  0  0
 24 25  1  0  0  0  0
 25 26  1  0  0  0  0
 25 27  1  0  0  0  0
 28 26  1  0  0  0  0
M  END
>  <Pose>
1

>  <Score>
-7.618

$$$$
