/Users/jonathanwahrer/Desktop/Msc/3_Semester/Drug_Design_Praktikum/waehrer_HTS_screening/HTS_experiment/out/docking_results/vina_output/5l4q/1957_docked.pdbqt
 OpenBabel03212219113D

 36 40  0  0  1  0  0  0  0  0999 V2000
  -20.3400   -0.3210  -32.3370 C   0  0  2  0  0  3  0  0  0  0  0  0
  -19.2900    0.5860  -32.7840 N   0  0  0  0  0  0  0  0  0  0  0  0
  -19.7700    1.2120  -34.0000 C   0  0  1  0  0  0  0  0  0  0  0  0
  -21.2480    1.3080  -33.7560 C   0  0  2  0  0  3  0  0  0  0  0  0
  -21.6050    0.0630  -33.0070 C   0  0  1  0  0  3  0  0  0  0  0  0
  -22.0510   -0.9180  -34.0340 C   0  0  0  0  0  0  0  0  0  0  0  0
  -22.1940   -2.1530  -33.8760 O   0  0  0  0  0  0  0  0  0  0  0  0
  -22.2840   -0.1630  -35.2440 N   0  0  0  0  0  0  0  0  0  0  0  0
  -22.0730    1.2070  -34.9720 C   0  0  0  0  0  0  0  0  0  0  0  0
  -22.5000    2.1850  -35.6330 O   0  0  0  0  0  0  0  0  0  0  0  0
  -19.1620    2.5480  -34.2150 C   0  0  0  0  0  0  0  0  0  0  0  0
  -18.4600    2.4770  -35.3940 C   0  0  0  0  0  0  0  0  0  0  0  0
  -17.7860    3.6050  -35.8420 C   0  0  0  0  0  3  0  0  0  0  0  0
  -17.8400    4.7600  -35.0970 C   0  0  0  0  0  3  0  0  0  0  0  0
  -18.5460    4.8420  -33.9090 C   0  0  0  0  0  3  0  0  0  0  0  0
  -19.2100    3.7140  -33.4750 C   0  0  0  0  0  3  0  0  0  0  0  0
  -18.5560    1.1640  -35.9750 N   0  0  0  0  0  0  0  0  0  0  0  0
  -19.3600    0.3770  -35.1150 C   0  0  0  0  0  0  0  0  0  0  0  0
  -19.6350   -0.8160  -35.3240 O   0  0  0  0  0  0  0  0  0  0  0  0
  -18.4120    0.0770  -32.9350 H   0  0  0  0  0  0  0  0  0  0  0  0
  -18.0930    0.9020  -36.8740 H   0  0  0  0  0  0  0  0  0  0  0  0
  -20.3670   -0.2070  -30.8370 C   0  0  1  0  0  3  0  0  0  0  0  0
  -20.3930   -1.5310  -30.1510 C   0  0  0  0  0  0  0  0  0  0  0  0
  -20.0670   -1.6310  -28.7990 C   0  0  0  0  0  3  0  0  0  0  0  0
  -20.0640   -2.8390  -28.1510 C   0  0  0  0  0  3  0  0  0  0  0  0
  -20.3840   -4.0130  -28.8050 C   0  0  0  0  0  0  0  0  0  0  0  0
  -20.3840   -5.5660  -27.9870 Cl  0  0  0  0  0  0  0  0  0  0  0  0
  -20.7020   -3.8900  -30.1390 C   0  0  0  0  0  3  0  0  0  0  0  0
  -20.7120   -2.6910  -30.8130 C   0  0  0  0  0  3  0  0  0  0  0  0
  -19.3480    0.5460  -30.3150 O   0  0  0  0  0  0  0  0  0  0  0  0
  -19.3290    1.4120  -30.7970 H   0  0  0  0  0  0  0  0  0  0  0  0
  -22.6560   -0.7260  -36.5090 C   0  0  0  0  0  3  0  0  0  0  0  0
  -24.0720   -1.1440  -36.6430 C   0  0  0  0  0  3  0  0  0  0  0  0
  -24.4620   -1.7880  -37.9270 C   0  0  0  0  0  2  0  0  0  0  0  0
  -24.0540   -3.1120  -38.0260 O   0  0  0  0  0  0  0  0  0  0  0  0
  -23.7600   -3.4100  -39.3730 C   0  0  0  0  0  1  0  0  0  0  0  0
  1 22  1  1  0  0  0
  2  1  1  0  0  0  0
  3 18  1  6  0  0  0
  3  4  1  0  0  0  0
  3  2  1  0  0  0  0
  4  9  1  6  0  0  0
  4  5  1  0  0  0  0
  5  6  1  6  0  0  0
  5  1  1  0  0  0  0
  6  7  2  0  0  0  0
  8  9  1  0  0  0  0
  8  6  1  0  0  0  0
 10  9  2  0  0  0  0
 11  3  1  0  0  0  0
 11 16  1  0  0  0  0
 12 11  2  0  0  0  0
 13 12  1  0  0  0  0
 13 14  2  0  0  0  0
 14 15  1  0  0  0  0
 15 16  2  0  0  0  0
 17 12  1  0  0  0  0
 17 18  1  0  0  0  0
 19 18  2  0  0  0  0
 20  2  1  0  0  0  0
 21 17  1  0  0  0  0
 22 30  1  1  0  0  0
 22 23  1  0  0  0  0
 23 24  1  0  0  0  0
 24 25  2  0  0  0  0
 26 25  1  0  0  0  0
 26 27  1  0  0  0  0
 28 26  2  0  0  0  0
 29 23  2  0  0  0  0
 29 28  1  0  0  0  0
 31 30  1  0  0  0  0
 32  8  1  0  0  0  0
 33 32  2  0  0  0  0
 34 33  1  0  0  0  0
 35 34  1  0  0  0  0
 36 35  1  0  0  0  0
M  END
>  <Pose>
1

>  <Score>
-8.802

$$$$
