/Users/jonathanwahrer/Desktop/Msc/3_Semester/Drug_Design_Praktikum/waehrer_HTS_screening/HTS_experiment/out/docking_results/vina_output/5l4q/1958_docked.pdbqt
 OpenBabel03212219113D

 28 31  0  0  1  0  0  0  0  0999 V2000
  -22.8440   -0.9690  -36.0140 C   0  0  0  0  0  0  0  0  0  0  0  0
  -23.7950   -1.6760  -35.5320 O   0  0  0  0  0  0  0  0  0  0  0  0
  -22.1220   -0.0620  -35.2250 N   0  0  0  0  0  0  0  0  0  0  0  0
  -21.0590    0.7310  -35.7580 C   0  0  0  0  0  2  0  0  0  0  0  0
  -20.0240    1.1380  -34.7480 C   0  0  0  0  0  2  0  0  0  0  0  0
  -20.0100    0.1810  -33.6150 C   0  0  2  0  0  3  0  0  0  0  0  0
  -21.1870   -0.3580  -33.1310 C   0  0  0  0  0  0  0  0  0  0  0  0
  -21.1860   -1.2180  -32.1060 N   0  0  0  0  0  0  0  0  0  0  0  0
  -20.0540   -1.6120  -31.4850 C   0  0  2  0  0  3  0  0  0  0  0  0
  -18.8970   -1.0870  -31.9570 N   0  0  0  0  0  0  0  0  0  0  0  0
  -18.8480   -0.2200  -32.9830 C   0  0  0  0  0  0  0  0  0  0  0  0
  -22.4490    0.0830  -33.8340 C   0  0  0  0  0  2  0  0  0  0  0  0
  -22.5410   -1.1590  -37.4690 C   0  0  0  0  0  2  0  0  0  0  0  0
  -23.0720   -0.0480  -38.2740 C   0  0  0  0  0  0  0  0  0  0  0  0
  -24.3370    0.4740  -38.1130 C   0  0  0  0  0  3  0  0  0  0  0  0
  -24.8070    1.5150  -38.8840 C   0  0  0  0  0  3  0  0  0  0  0  0
  -23.9980    2.0750  -39.8670 C   0  0  0  0  0  0  0  0  0  0  0  0
  -24.5800    3.3970  -40.8550 Cl  0  0  0  0  0  0  0  0  0  0  0  0
  -22.7330    1.5410  -40.0190 C   0  0  0  0  0  3  0  0  0  0  0  0
  -22.2650    0.5020  -39.2470 C   0  0  0  0  0  3  0  0  0  0  0  0
  -17.6460    0.2990  -33.4420 O   0  0  0  0  0  0  0  0  0  0  0  0
  -17.5320    1.2910  -33.6660 H   0  0  0  0  0  0  0  0  0  0  0  0
  -20.1060   -2.5200  -30.4140 N   0  0  0  0  0  0  0  0  0  0  0  0
  -20.9300   -3.6900  -30.4870 C   0  0  0  0  0  2  0  0  0  0  0  0
  -20.3360   -4.6960  -29.4910 C   0  0  0  0  0  2  0  0  0  0  0  0
  -20.3900   -4.2150  -28.2070 O   0  0  0  0  0  0  0  0  0  0  0  0
  -19.9560   -2.9300  -28.0260 C   0  0  0  0  0  2  0  0  0  0  0  0
  -19.3330   -2.2820  -29.2320 C   0  0  0  0  0  2  0  0  0  0  0  0
  1  2  2  0  0  0  0
  1  3  1  0  0  0  0
  3 12  1  0  0  0  0
  4  3  1  0  0  0  0
  4  5  1  0  0  0  0
  6  5  1  1  0  0  0
  6  7  1  0  0  0  0
  6 11  1  0  0  0  0
  7  8  2  0  0  0  0
  8  9  1  0  0  0  0
  9 23  1  6  0  0  0
 10  9  1  0  0  0  0
 11 10  2  0  0  0  0
 12  7  1  0  0  0  0
 13  1  1  0  0  0  0
 14 15  1  0  0  0  0
 14 13  1  0  0  0  0
 16 15  2  0  0  0  0
 17 16  1  0  0  0  0
 18 17  1  0  0  0  0
 19 17  2  0  0  0  0
 19 20  1  0  0  0  0
 20 14  2  0  0  0  0
 21 11  1  0  0  0  0
 22 21  1  0  0  0  0
 23 28  1  0  0  0  0
 24 23  1  0  0  0  0
 24 25  1  0  0  0  0
 25 26  1  0  0  0  0
 26 27  1  0  0  0  0
 28 27  1  0  0  0  0
M  END
>  <Pose>
1

>  <Score>
-8.569

$$$$
