/Users/jonathanwahrer/Desktop/Msc/3_Semester/Drug_Design_Praktikum/waehrer_HTS_screening/HTS_experiment/out/docking_results/vina_output/5l4q/1966_docked.pdbqt
 OpenBabel03212219123D

 27 30  0  0  0  0  0  0  0  0999 V2000
  -20.5630   -2.8880  -29.9630 C   0  0  0  0  0  0  0  0  0  0  0  0
  -21.1500   -3.9510  -29.5210 O   0  0  0  0  0  0  0  0  0  0  0  0
  -20.4800   -2.5500  -31.2900 N   0  0  0  0  0  0  0  0  0  0  0  0
  -20.3970   -2.2150  -32.6100 C   0  0  0  0  0  2  0  0  0  0  0  0
  -21.1640   -3.6830  -31.6360 H   0  0  0  0  0  0  0  0  0  0  0  0
  -20.0030   -2.0990  -28.8340 C   0  0  0  0  0  0  0  0  0  0  0  0
  -19.8310   -0.7420  -28.7290 C   0  0  0  0  0  0  0  0  0  0  0  0
  -20.1360    0.1980  -29.6580 F   0  0  0  0  0  0  0  0  0  0  0  0
  -19.2830   -0.4150  -27.5190 N   0  0  0  0  0  0  0  0  0  0  0  0
  -19.1190   -1.5840  -26.8780 C   0  0  0  0  0  0  0  0  0  0  0  0
  -18.9360    0.7580  -26.9650 C   0  0  0  0  0  3  0  0  0  0  0  0
  -19.5470   -2.5860  -27.6630 N   0  0  0  0  0  0  0  0  0  0  0  0
  -18.5740   -1.5380  -25.6180 C   0  0  0  0  0  3  0  0  0  0  0  0
  -18.2000   -0.3400  -25.0060 C   0  0  0  0  0  3  0  0  0  0  0  0
  -18.3840    0.8310  -25.6910 C   0  0  0  0  0  0  0  0  0  0  0  0
  -17.9380    2.3810  -24.9770 Cl  0  0  0  0  0  0  0  0  0  0  0  0
  -19.6620   -0.9330  -32.9120 C   0  0  0  0  0  0  0  0  0  0  0  0
  -20.1260    0.0760  -33.6540 N   0  0  0  0  0  0  0  0  0  0  0  0
  -19.1970    1.0160  -33.6820 N   0  0  0  0  0  0  0  0  0  0  0  0
  -18.1520    0.6370  -32.9780 N   0  0  0  0  0  0  0  0  0  0  0  0
  -18.4490   -0.5730  -32.5040 N   0  0  0  0  0  0  0  0  0  0  0  0
  -21.4190    0.0590  -34.2620 C   0  0  0  0  0  0  0  0  0  0  0  0
  -22.4770    0.6330  -33.5650 C   0  0  0  0  0  3  0  0  0  0  0  0
  -23.7630    0.6340  -34.0920 C   0  0  0  0  0  3  0  0  0  0  0  0
  -24.0310    0.0660  -35.3210 C   0  0  0  0  0  3  0  0  0  0  0  0
  -22.9770   -0.5000  -36.0060 C   0  0  0  0  0  3  0  0  0  0  0  0
  -21.6960   -0.5040  -35.4840 C   0  0  0  0  0  3  0  0  0  0  0  0
  1  2  2  0  0  0  0
  1  6  1  0  0  0  0
  3  1  1  0  0  0  0
  4  3  1  0  0  0  0
  5  3  1  0  0  0  0
  6  7  2  0  0  0  0
  6 12  1  0  0  0  0
  7  9  1  0  0  0  0
  8  7  1  0  0  0  0
  9 11  1  0  0  0  0
  9 10  1  0  0  0  0
 10 13  1  0  0  0  0
 11 15  2  0  0  0  0
 12 10  2  0  0  0  0
 13 14  2  0  0  0  0
 15 14  1  0  0  0  0
 15 16  1  0  0  0  0
 17  4  1  0  0  0  0
 17 21  2  0  0  0  0
 18 17  1  0  0  0  0
 19 18  1  0  0  0  0
 19 20  2  0  0  0  0
 20 21  1  0  0  0  0
 22 18  1  0  0  0  0
 22 23  1  0  0  0  0
 24 23  2  0  0  0  0
 25 24  1  0  0  0  0
 26 27  1  0  0  0  0
 26 25  2  0  0  0  0
 27 22  2  0  0  0  0
M  END
>  <Pose>
1

>  <Score>
-9.020

$$$$
