/Users/jonathanwahrer/Desktop/Msc/3_Semester/Drug_Design_Praktikum/waehrer_HTS_screening/HTS_experiment/out/docking_results/vina_output/5l4q/1969_docked.pdbqt
 OpenBabel03212219123D

 26 29  0  0  0  0  0  0  0  0999 V2000
  -21.4590   -2.2070  -33.7970 C   0  0  0  0  0  0  0  0  0  0  0  0
  -20.1170   -1.9350  -34.0470 O   0  0  0  0  0  0  0  0  0  0  0  0
  -22.2580   -1.2670  -34.3540 N   0  0  0  0  0  0  0  0  0  0  0  0
  -23.6840   -1.1610  -34.4570 C   0  0  0  0  0  2  0  0  0  0  0  0
  -24.0430   -0.2960  -35.6830 C   0  0  0  0  0  2  0  0  0  0  0  0
  -22.9700   -0.5880  -36.6440 N   0  0  0  0  0  0  0  0  0  0  0  0
  -21.6640   -0.0770  -36.3910 C   0  0  0  0  0  2  0  0  0  0  0  0
  -21.5340   -0.0750  -34.9010 C   0  0  0  0  0  2  0  0  0  0  0  0
  -21.3820   -3.4320  -33.0210 C   0  0  0  0  0  0  0  0  0  0  0  0
  -21.3190   -4.4570  -32.3720 N   0  0  0  0  0  0  0  0  0  0  0  0
  -21.0220   -4.7420  -31.2610 N   0  0  0  0  0  0  0  0  0  0  0  0
  -20.7170   -3.6010  -30.6820 N   0  0  0  0  0  0  0  0  0  0  0  0
  -20.8650   -2.6820  -31.5990 C   0  0  0  0  0  3  0  0  0  0  0  0
  -20.3030   -3.5580  -29.2960 C   0  0  0  0  0  0  0  0  0  0  0  0
  -19.8560   -2.4550  -28.6570 C   0  0  0  0  0  3  0  0  0  0  0  0
  -19.4860   -2.4940  -27.3190 C   0  0  0  0  0  0  0  0  0  0  0  0
  -18.8910   -1.1260  -26.4330 Cl  0  0  0  0  0  0  0  0  0  0  0  0
  -19.5730   -3.7260  -26.5920 C   0  0  0  0  0  3  0  0  0  0  0  0
  -20.0270   -4.8180  -27.2470 C   0  0  0  0  0  3  0  0  0  0  0  0
  -20.3740   -4.7190  -28.5520 C   0  0  0  0  0  3  0  0  0  0  0  0
  -23.2190   -1.4470  -37.7090 C   0  0  0  0  0  0  0  0  0  0  0  0
  -22.6510   -1.2170  -38.9670 N   0  0  0  0  0  0  0  0  0  0  0  0
  -22.7940   -1.9590  -40.0080 C   0  0  0  0  0  3  0  0  0  0  0  0
  -23.5610   -3.1340  -39.9810 C   0  0  0  0  0  3  0  0  0  0  0  0
  -24.1350   -3.3670  -38.7380 C   0  0  0  0  0  3  0  0  0  0  0  0
  -23.9580   -2.5860  -37.7390 N   0  0  0  0  0  0  0  0  0  0  0  0
  1  9  1  0  0  0  0
  2  1  2  0  0  0  0
  3  1  1  0  0  0  0
  4  3  1  0  0  0  0
  5  4  1  0  0  0  0
  6  7  1  0  0  0  0
  6  5  1  0  0  0  0
  7  8  1  0  0  0  0
  8  3  1  0  0  0  0
  9 10  1  0  0  0  0
  9 13  2  0  0  0  0
 10 11  2  0  0  0  0
 11 12  1  0  0  0  0
 12 14  1  0  0  0  0
 13 12  1  0  0  0  0
 14 15  2  0  0  0  0
 14 20  1  0  0  0  0
 15 16  1  0  0  0  0
 16 18  2  0  0  0  0
 16 17  1  0  0  0  0
 19 18  1  0  0  0  0
 20 19  2  0  0  0  0
 21  6  1  0  0  0  0
 22 21  2  0  0  0  0
 23 24  2  0  0  0  0
 23 22  1  0  0  0  0
 24 25  1  0  0  0  0
 25 26  2  0  0  0  0
 26 21  1  0  0  0  0
M  END
>  <Pose>
1

>  <Score>
-9.560

$$$$
