/Users/jonathanwahrer/Desktop/Msc/3_Semester/Drug_Design_Praktikum/waehrer_HTS_screening/HTS_experiment/out/docking_results/vina_output/5l4q/1971_docked.pdbqt
 OpenBabel03212219123D

 22 25  0  0  1  0  0  0  0  0999 V2000
  -19.8690   -1.8890  -31.3070 N   0  0  0  0  0  0  0  0  0  0  0  0
  -18.8990   -1.0490  -31.9600 C   0  0  0  0  0  0  0  0  0  0  0  0
  -18.0030   -0.4020  -31.3680 O   0  0  0  0  0  0  0  0  0  0  0  0
  -19.1210   -1.0700  -33.4030 C   0  0  2  0  0  3  0  0  0  0  0  0
  -19.6980    0.1810  -33.9790 C   0  0  1  0  0  0  0  0  0  0  0  0
  -20.3490   -0.3480  -35.1220 O   0  0  0  0  0  0  0  0  0  0  0  0
  -21.2400   -1.2020  -34.4210 C   0  0  1  0  0  3  0  0  0  0  0  0
  -20.2700   -2.0620  -33.6500 C   0  0  2  0  0  3  0  0  0  0  0  0
  -20.7800   -2.3360  -32.3050 C   0  0  0  0  0  0  0  0  0  0  0  0
  -21.8740   -2.8930  -32.0420 O   0  0  0  0  0  0  0  0  0  0  0  0
  -21.8440   -0.2420  -33.4730 C   0  0  0  0  0  2  0  0  0  0  0  0
  -20.8720    0.6630  -33.2170 C   0  0  0  0  0  2  0  0  0  0  0  0
  -19.9480   -2.2350  -29.9300 C   0  0  0  0  0  0  0  0  0  0  0  0
  -20.0890   -3.5470  -29.5040 C   0  0  0  0  0  3  0  0  0  0  0  0
  -20.1650   -3.8800  -28.1680 C   0  0  0  0  0  0  0  0  0  0  0  0
  -20.3440   -5.5410  -27.6470 Cl  0  0  0  0  0  0  0  0  0  0  0  0
  -20.1020   -2.9090  -27.1900 C   0  0  0  0  0  3  0  0  0  0  0  0
  -19.9600   -1.6000  -27.6050 C   0  0  0  0  0  3  0  0  0  0  0  0
  -19.8840   -1.2640  -28.9500 C   0  0  0  0  0  3  0  0  0  0  0  0
  -18.7080    1.2310  -34.3390 C   0  0  0  0  0  2  0  0  0  0  0  0
  -18.4430    2.0160  -33.2240 O   0  0  0  0  0  0  0  0  0  0  0  0
  -19.1380    2.7070  -33.1190 H   0  0  0  0  0  0  0  0  0  0  0  0
  1 13  1  0  0  0  0
  2  3  2  0  0  0  0
  2  1  1  0  0  0  0
  4  2  1  1  0  0  0
  5 20  1  6  0  0  0
  5  4  1  0  0  0  0
  5 12  1  0  0  0  0
  6  7  1  0  0  0  0
  6  5  1  0  0  0  0
  7  8  1  0  0  0  0
  7 11  1  1  0  0  0
  8  4  1  0  0  0  0
  8  9  1  1  0  0  0
  9 10  2  0  0  0  0
  9  1  1  0  0  0  0
 11 12  1  0  0  0  0
 13 14  2  0  0  0  0
 13 19  1  0  0  0  0
 14 15  1  0  0  0  0
 15 16  1  0  0  0  0
 15 17  2  0  0  0  0
 18 17  1  0  0  0  0
 19 18  2  0  0  0  0
 20 21  1  0  0  0  0
 21 22  1  0  0  0  0
M  END
>  <Pose>
1

>  <Score>
-7.366

$$$$
