/Users/jonathanwahrer/Desktop/Msc/3_Semester/Drug_Design_Praktikum/waehrer_HTS_screening/HTS_experiment/out/docking_results/vina_output/5l4q/1982_docked.pdbqt
 OpenBabel03212219123D

 25 28  0  0  0  0  0  0  0  0999 V2000
  -17.9450    1.5190  -25.0630 Cl  0  0  0  0  0  0  0  0  0  0  0  0
  -18.4670    0.0460  -25.8520 C   0  0  0  0  0  0  0  0  0  0  0  0
  -18.8160   -0.0020  -27.1860 C   0  0  0  0  0  3  0  0  0  0  0  0
  -19.2300   -1.1550  -27.8200 C   0  0  0  0  0  0  0  0  0  0  0  0
  -19.2920   -2.3120  -27.0660 C   0  0  0  0  0  0  0  0  0  0  0  0
  -18.9450   -2.2770  -25.7320 C   0  0  0  0  0  3  0  0  0  0  0  0
  -18.5310   -1.1230  -25.0980 C   0  0  0  0  0  3  0  0  0  0  0  0
  -19.7320   -3.5610  -27.7250 C   0  0  0  0  0  0  0  0  0  0  0  0
  -19.8730   -4.7350  -27.2720 N   0  0  0  0  0  0  0  0  0  0  0  0
  -20.3330   -5.6860  -28.2620 C   0  0  0  0  0  3  0  0  0  0  0  0
  -20.4780   -4.8920  -29.5180 C   0  0  0  0  0  3  0  0  0  0  0  0
  -20.0810   -3.5600  -29.1020 N   0  0  0  0  0  0  0  0  0  0  0  0
  -19.9900   -2.3230  -29.8090 C   0  0  0  0  0  0  0  0  0  0  0  0
  -20.2510   -2.0250  -31.0940 N   0  0  0  0  0  0  0  0  0  0  0  0
  -20.0320   -0.7430  -31.3360 N   0  0  0  0  0  0  0  0  0  0  0  0
  -19.6180   -0.2280  -30.1520 C   0  0  0  0  0  0  0  0  0  0  0  0
  -19.3170    0.9760  -29.9990 O   0  0  0  0  0  0  0  0  0  0  0  0
  -19.5850   -1.1770  -29.2020 N   0  0  0  0  0  0  0  0  0  0  0  0
  -20.1990   -0.0450  -32.5960 C   0  0  0  0  0  2  0  0  0  0  0  0
  -21.5530   -0.4280  -33.2100 C   0  0  0  0  0  2  0  0  0  0  0  0
  -21.3460   -1.1440  -34.4940 C   0  0  0  0  0  0  0  0  0  0  0  0
  -22.2490   -1.7530  -35.1200 O   0  0  0  0  0  0  0  0  0  0  0  0
  -20.0420   -1.1400  -35.0520 N   0  0  0  0  0  0  0  0  0  0  0  0
  -19.1760   -1.2080  -34.4870 H   0  0  0  0  0  0  0  0  0  0  0  0
  -19.9570   -1.0650  -36.0870 H   0  0  0  0  0  0  0  0  0  0  0  0
  2  7  1  0  0  0  0
  2  1  1  0  0  0  0
  3  2  2  0  0  0  0
  4  3  1  0  0  0  0
  4  5  2  0  0  0  0
  5  6  1  0  0  0  0
  6  7  2  0  0  0  0
  8  9  2  0  0  0  0
  8  5  1  0  0  0  0
 10  9  1  0  0  0  0
 11 12  1  0  0  0  0
 11 10  2  0  0  0  0
 12  8  1  0  0  0  0
 13 18  1  0  0  0  0
 13 12  1  0  0  0  0
 14 13  2  0  0  0  0
 15 14  1  0  0  0  0
 15 16  1  0  0  0  0
 16 17  2  0  0  0  0
 16 18  1  0  0  0  0
 18  4  1  0  0  0  0
 19 15  1  0  0  0  0
 20 19  1  0  0  0  0
 21 20  1  0  0  0  0
 22 21  2  0  0  0  0
 23 21  1  0  0  0  0
 23 24  1  0  0  0  0
 25 23  1  0  0  0  0
M  END
>  <Pose>
1

>  <Score>
-8.534

$$$$
