/Users/jonathanwahrer/Desktop/Msc/3_Semester/Drug_Design_Praktikum/waehrer_HTS_screening/HTS_experiment/out/docking_results/vina_output/5l4q/1986_docked.pdbqt
 OpenBabel03212219123D

 30 33  0  0  0  0  0  0  0  0999 V2000
  -19.0100    0.4870  -28.2710 Cl  0  0  0  0  0  0  0  0  0  0  0  0
  -18.3610    1.1220  -26.7690 C   0  0  0  0  0  0  0  0  0  0  0  0
  -17.7090    2.3380  -26.7340 C   0  0  0  0  0  2  0  0  0  0  0  0
  -17.1900    2.8450  -25.5360 C   0  0  0  0  0  0  0  0  0  0  0  0
  -17.3640    2.0760  -24.4150 C   0  0  0  0  0  0  0  0  0  0  0  0
  -18.0270    0.8410  -24.4540 C   0  0  0  0  0  3  0  0  0  0  0  0
  -18.5340    0.3510  -25.6380 C   0  0  0  0  0  3  0  0  0  0  0  0
  -16.8590    2.5580  -23.2110 O   0  0  0  0  0  0  0  0  0  0  0  0
  -16.1940    3.7670  -23.0960 C   0  0  0  0  0  0  0  0  0  0  0  0
  -16.0180    4.5430  -24.2310 C   0  0  0  0  0  0  0  0  0  0  0  0
  -16.5010    4.1500  -25.5590 C   0  0  0  0  0  0  0  0  0  0  0  0
  -15.3510    5.7400  -24.0650 C   0  0  0  0  0  0  0  0  0  0  0  0
  -15.1600    6.4950  -25.0710 O   0  0  0  0  0  0  0  0  0  0  0  0
  -14.8720    6.1850  -22.8930 N   0  0  0  0  0  0  0  0  0  0  0  0
  -15.0670    5.3920  -21.8110 C   0  0  0  0  0  0  0  0  0  0  0  0
  -14.6090    5.8280  -20.7200 O   0  0  0  0  0  0  0  0  0  0  0  0
  -15.7120    4.2170  -21.9250 N   0  0  0  0  0  0  0  0  0  0  0  0
  -15.8800    3.4260  -20.7220 C   0  0  0  0  0  1  0  0  0  0  0  0
  -14.1730    7.4650  -22.7720 C   0  0  0  0  0  1  0  0  0  0  0  0
  -17.4510    5.1920  -26.0690 C   0  0  0  0  0  3  0  0  0  0  0  0
  -17.2530    5.7910  -27.2930 C   0  0  0  0  0  0  0  0  0  0  0  0
  -18.1220    6.7370  -27.7430 N   0  0  0  0  0  0  0  0  0  0  0  0
  -16.1770    5.4260  -28.0530 O   0  0  0  0  0  0  0  0  0  0  0  0
  -19.1920    7.1010  -26.9930 C   0  0  0  0  0  0  0  0  0  0  0  0
  -17.8590    7.3320  -29.0500 C   0  0  0  0  0  1  0  0  0  0  0  0
  -19.9770    7.9830  -27.4420 O   0  0  0  0  0  0  0  0  0  0  0  0
  -19.4110    6.5350  -25.7950 N   0  0  0  0  0  0  0  0  0  0  0  0
  -18.5540    5.5990  -25.3450 C   0  0  0  0  0  0  0  0  0  0  0  0
  -20.5700    6.9520  -25.0130 C   0  0  0  0  0  1  0  0  0  0  0  0
  -18.7700    5.0860  -24.2370 O   0  0  0  0  0  0  0  0  0  0  0  0
  1  2  1  0  0  0  0
  2  3  1  0  0  0  0
  2  7  2  0  0  0  0
  3  4  1  0  0  0  0
  4  5  1  0  0  0  0
  5  8  1  0  0  0  0
  6  5  2  0  0  0  0
  7  6  1  0  0  0  0
  8  9  1  0  0  0  0
  9 17  1  0  0  0  0
 10 12  1  0  0  0  0
 10  9  2  0  0  0  0
 11  4  2  0  0  0  0
 11 10  1  0  0  0  0
 12 14  1  0  0  0  0
 13 12  2  0  0  0  0
 14 19  1  0  0  0  0
 14 15  1  0  0  0  0
 15 16  2  0  0  0  0
 17 15  1  0  0  0  0
 17 18  1  0  0  0  0
 20 11  1  0  0  0  0
 20 28  1  0  0  0  0
 21 20  1  0  0  0  0
 22 21  1  0  0  0  0
 22 24  1  0  0  0  0
 23 21  2  0  0  0  0
 24 27  1  0  0  0  0
 25 22  1  0  0  0  0
 26 24  2  0  0  0  0
 27 28  1  0  0  0  0
 27 29  1  0  0  0  0
 28 30  2  0  0  0  0
M  END
>  <Pose>
1

>  <Score>
-6.991

$$$$
