/Users/jonathanwahrer/Desktop/Msc/3_Semester/Drug_Design_Praktikum/waehrer_HTS_screening/HTS_experiment/out/docking_results/vina_output/5l4q/1991_docked.pdbqt
 OpenBabel03212219133D

 31 34  0  0  1  0  0  0  0  0999 V2000
  -20.1380   -1.6670  -29.0450 Cl  0  0  0  0  0  0  0  0  0  0  0  0
  -19.9100   -1.0600  -30.6670 C   0  0  0  0  0  0  0  0  0  0  0  0
  -20.9570   -0.5090  -31.3710 C   0  0  0  0  0  3  0  0  0  0  0  0
  -20.7600   -0.0390  -32.6430 C   0  0  0  0  0  0  0  0  0  0  0  0
  -19.4880   -0.1210  -33.2220 C   0  0  0  0  0  0  0  0  0  0  0  0
  -18.4290   -0.6740  -32.5210 C   0  0  0  0  0  3  0  0  0  0  0  0
  -18.6660   -1.1330  -31.2550 C   0  0  0  0  0  3  0  0  0  0  0  0
  -19.1270    0.3070  -34.4910 O   0  0  0  0  0  0  0  0  0  0  0  0
  -19.7590    1.2820  -35.2850 C   0  0  0  0  0  0  0  0  0  0  0  0
  -21.1380    0.8790  -35.6940 C   0  0  0  0  0  2  0  0  0  0  0  0
  -21.9140    0.2310  -34.6810 N   0  0  0  0  0  0  0  0  0  0  0  0
  -21.9810    0.5260  -33.2730 C   0  0  0  0  0  2  0  0  0  0  0  0
  -22.7510   -0.8670  -35.0790 C   0  0  0  0  0  0  0  0  0  0  0  0
  -23.4280   -1.4200  -34.1770 O   0  0  0  0  0  0  0  0  0  0  0  0
  -19.7300    2.6210  -34.5640 C   0  0  0  0  0  2  0  0  0  0  0  0
  -18.4890    3.4030  -34.9580 C   0  0  0  0  0  2  0  0  0  0  0  0
  -18.5070    3.7890  -36.2840 O   0  0  0  0  0  0  0  0  0  0  0  0
  -19.2510    2.8990  -37.0500 C   0  0  0  0  0  2  0  0  0  0  0  0
  -18.9570    1.4900  -36.5720 C   0  0  0  0  0  2  0  0  0  0  0  0
  -22.8140   -1.3220  -36.4670 C   0  0  0  0  0  2  0  0  0  0  0  0
  -24.0720   -1.2810  -37.1180 N   0  0  0  0  0  0  0  0  0  0  0  0
  -24.2420   -2.4010  -38.0480 C   0  0  0  0  0  2  0  0  0  0  0  0
  -23.1840   -2.3110  -39.0830 C   0  0  0  0  0  2  0  0  0  0  0  0
  -22.9650   -0.9690  -39.6980 C   0  0  1  0  0  3  0  0  0  0  0  0
  -23.5880    0.1920  -39.0300 C   0  0  0  0  0  2  0  0  0  0  0  0
  -24.3930   -0.0580  -37.8120 C   0  0  0  0  0  2  0  0  0  0  0  0
  -21.5270   -0.7200  -39.9640 C   0  0  0  0  0  0  0  0  0  0  0  0
  -20.8550   -0.0730  -39.1360 O   0  0  0  0  0  0  0  0  0  0  0  0
  -20.9310   -1.2110  -41.1460 N   0  0  0  0  0  0  0  0  0  0  0  0
  -20.2930   -2.0510  -41.0240 H   0  0  0  0  0  0  0  0  0  0  0  0
  -21.0570   -0.8380  -42.0950 H   0  0  0  0  0  0  0  0  0  0  0  0
  2  1  1  0  0  0  0
  3  2  2  0  0  0  0
  4  3  1  0  0  0  0
  5  4  2  0  0  0  0
  5  6  1  0  0  0  0
  6  7  2  0  0  0  0
  7  2  1  0  0  0  0
  8  5  1  0  0  0  0
  9 15  1  0  0  0  0
  9  8  1  0  0  0  0
 10  9  1  0  0  0  0
 10 11  1  0  0  0  0
 11 12  1  0  0  0  0
 12  4  1  0  0  0  0
 13 11  1  0  0  0  0
 13 14  2  0  0  0  0
 16 15  1  0  0  0  0
 17 16  1  0  0  0  0
 18 19  1  0  0  0  0
 18 17  1  0  0  0  0
 19  9  1  0  0  0  0
 20 13  1  0  0  0  0
 21 20  1  0  0  0  0
 22 21  1  0  0  0  0
 23 22  1  0  0  0  0
 24 27  1  1  0  0  0
 24 23  1  0  0  0  0
 24 25  1  0  0  0  0
 25 26  1  0  0  0  0
 26 21  1  0  0  0  0
 27 28  2  0  0  0  0
 29 30  1  0  0  0  0
 29 27  1  0  0  0  0
 31 29  1  0  0  0  0
M  END
>  <Pose>
1

>  <Score>
-9.045

$$$$
