/Users/jonathanwahrer/Desktop/Msc/3_Semester/Drug_Design_Praktikum/waehrer_HTS_screening/HTS_experiment/out/docking_results/vina_output/5l4q/2003_docked.pdbqt
 OpenBabel03212219133D

 28 31  0  0  0  0  0  0  0  0999 V2000
  -21.5930    0.5150  -34.1920 N   0  0  0  0  0  0  0  0  0  0  0  0
  -21.9290    0.6550  -32.8080 C   0  0  0  0  0  2  0  0  0  0  0  0
  -20.9970   -0.0880  -31.8890 C   0  0  0  0  0  2  0  0  0  0  0  0
  -19.6300   -0.0670  -32.3580 N   0  0  0  0  0  0  0  0  0  0  0  0
  -19.2090    0.6190  -33.5500 C   0  0  0  0  0  3  0  0  0  0  0  0
  -20.2710    0.8930  -34.5450 C   0  0  0  0  0  3  0  0  0  0  0  0
  -18.6500   -0.7610  -31.5980 C   0  0  0  0  0  0  0  0  0  0  0  0
  -17.4260   -0.7800  -31.9580 O   0  0  0  0  0  0  0  0  0  0  0  0
  -19.0150   -1.4780  -30.3760 C   0  0  0  0  0  0  0  0  0  0  0  0
  -19.7410   -2.6520  -30.3760 C   0  0  0  0  0  3  0  0  0  0  0  0
  -20.0400   -3.2580  -29.2120 N   0  0  0  0  0  0  0  0  0  0  0  0
  -19.6650   -2.7800  -28.0120 C   0  0  0  0  0  0  0  0  0  0  0  0
  -18.9560   -1.6370  -27.9940 N   0  0  0  0  0  0  0  0  0  0  0  0
  -19.9920   -3.4330  -26.8300 C   0  0  0  0  0  3  0  0  0  0  0  0
  -18.5700   -1.1420  -26.8010 C   0  0  0  0  0  3  0  0  0  0  0  0
  -18.6370   -1.0000  -29.1370 C   0  0  0  0  0  0  0  0  0  0  0  0
  -18.8810   -1.7680  -25.6100 C   0  0  0  0  0  3  0  0  0  0  0  0
  -19.6070   -2.9430  -25.5950 C   0  0  0  0  0  3  0  0  0  0  0  0
  -17.9760    0.0670  -29.1210 O   0  0  0  0  0  0  0  0  0  0  0  0
  -22.8030    1.0130  -35.2670 S   0  0  0  0  0  0  0  0  0  0  0  0
  -24.1260    1.0570  -34.6030 O   0  0  0  0  0  0  0  0  0  0  0  0
  -22.4490    2.3870  -35.7930 O   0  0  0  0  0  0  0  0  0  0  0  0
  -22.8500   -0.1150  -36.6320 C   0  0  0  0  0  0  0  0  0  0  0  0
  -23.6610   -1.6070  -36.7770 S   0  0  0  0  0  0  0  0  0  0  0  0
  -23.1890   -2.0180  -38.3630 C   0  0  0  0  0  0  0  0  0  0  0  0
  -22.4010   -0.9640  -38.7350 C   0  0  0  0  0  3  0  0  0  0  0  0
  -23.5940   -3.4500  -39.3320 Cl  0  0  0  0  0  0  0  0  0  0  0  0
  -22.2240    0.0180  -37.8450 C   0  0  0  0  0  3  0  0  0  0  0  0
  1  2  1  0  0  0  0
  2  3  1  0  0  0  0
  4  3  1  0  0  0  0
  4  7  1  0  0  0  0
  5  4  1  0  0  0  0
  6  1  1  0  0  0  0
  6  5  2  0  0  0  0
  7  9  1  0  0  0  0
  8  7  2  0  0  0  0
  9 16  1  0  0  0  0
 10  9  2  0  0  0  0
 10 11  1  0  0  0  0
 11 12  2  0  0  0  0
 12 13  1  0  0  0  0
 12 14  1  0  0  0  0
 13 15  1  0  0  0  0
 14 18  2  0  0  0  0
 15 17  2  0  0  0  0
 16 19  2  0  0  0  0
 16 13  1  0  0  0  0
 17 18  1  0  0  0  0
 20 21  2  0  0  0  0
 20  1  1  0  0  0  0
 22 20  2  0  0  0  0
 23 20  1  0  0  0  0
 24 23  1  0  0  0  0
 25 24  1  0  0  0  0
 26 25  2  0  0  0  0
 26 28  1  0  0  0  0
 27 25  1  0  0  0  0
 28 23  2  0  0  0  0
M  END
>  <Pose>
1

>  <Score>
-8.800

$$$$
