/Users/jonathanwahrer/Desktop/Msc/3_Semester/Drug_Design_Praktikum/waehrer_HTS_screening/HTS_experiment/out/docking_results/vina_output/5l4q/2012_docked.pdbqt
 OpenBabel03212219133D

 25 28  0  0  1  0  0  0  0  0999 V2000
  -20.9660   -2.3890  -32.0450 N   0  0  0  0  0  0  0  0  0  0  0  0
  -20.9770   -3.7700  -31.7010 C   0  0  0  0  0  0  0  0  0  0  0  0
  -20.7810   -4.6960  -32.5070 O   0  0  0  0  0  0  0  0  0  0  0  0
  -21.2540   -3.9100  -30.2620 C   0  0  1  0  0  3  0  0  0  0  0  0
  -20.6310   -4.9080  -29.5840 O   0  0  0  0  0  0  0  0  0  0  0  0
  -20.3980   -4.3320  -28.3480 N   0  0  0  0  0  0  0  0  0  0  0  0
  -20.0340   -2.9660  -28.5580 C   0  0  0  0  0  0  0  0  0  0  0  0
  -20.5540   -2.6870  -29.7480 C   0  0  0  0  0  0  0  0  0  0  0  0
  -20.6980   -1.6920  -30.8000 C   0  0  0  0  0  0  0  0  0  0  0  0
  -20.5990   -0.4540  -30.6070 O   0  0  0  0  0  0  0  0  0  0  0  0
  -20.4930   -4.8370  -27.4520 H   0  0  0  0  0  0  0  0  0  0  0  0
  -21.1480   -1.7330  -33.2930 C   0  0  0  0  0  0  0  0  0  0  0  0
  -22.2810   -1.9030  -34.0540 C   0  0  0  0  0  3  0  0  0  0  0  0
  -22.3720   -1.2170  -35.2610 C   0  0  0  0  0  0  0  0  0  0  0  0
  -23.7960   -1.3970  -36.2830 Cl  0  0  0  0  0  0  0  0  0  0  0  0
  -21.3470   -0.3930  -35.6750 C   0  0  0  0  0  3  0  0  0  0  0  0
  -20.2070   -0.2200  -34.9070 C   0  0  0  0  0  3  0  0  0  0  0  0
  -20.1110   -0.8890  -33.7230 C   0  0  0  0  0  3  0  0  0  0  0  0
  -19.3190   -2.0710  -27.6700 C   0  0  0  0  0  0  0  0  0  0  0  0
  -18.6580   -0.9350  -28.1470 C   0  0  0  0  0  3  0  0  0  0  0  0
  -18.0700   -0.2940  -27.1260 N   0  0  0  0  0  0  0  0  0  0  0  0
  -18.3280   -0.9770  -26.0090 N   0  0  0  0  0  0  0  0  0  0  0  0
  -17.2740    0.9280  -27.1430 C   0  0  0  0  0  1  0  0  0  0  0  0
  -19.0830   -2.0540  -26.3260 C   0  0  0  0  0  0  0  0  0  0  0  0
  -19.5690   -3.0790  -25.3670 C   0  0  0  0  0  1  0  0  0  0  0  0
  1  2  1  0  0  0  0
  1  9  1  0  0  0  0
  3  2  2  0  0  0  0
  4  2  1  6  0  0  0
  4  8  1  0  0  0  0
  4  5  1  0  0  0  0
  5  6  1  0  0  0  0
  6 11  1  0  0  0  0
  7  6  1  0  0  0  0
  7 19  1  0  0  0  0
  8  7  2  0  0  0  0
  9 10  2  0  0  0  0
  9  8  1  0  0  0  0
 12  1  1  0  0  0  0
 13 12  2  0  0  0  0
 14 13  1  0  0  0  0
 15 14  1  0  0  0  0
 16 14  2  0  0  0  0
 16 17  1  0  0  0  0
 17 18  2  0  0  0  0
 18 12  1  0  0  0  0
 19 24  1  0  0  0  0
 20 19  2  0  0  0  0
 20 21  1  0  0  0  0
 21 22  1  0  0  0  0
 23 21  1  0  0  0  0
 24 22  2  0  0  0  0
 24 25  1  0  0  0  0
M  END
>  <Pose>
1

>  <Score>
-9.064

$$$$
