/Users/jonathanwahrer/Desktop/Msc/3_Semester/Drug_Design_Praktikum/waehrer_HTS_screening/HTS_experiment/out/docking_results/vina_output/5l4q/2017_docked.pdbqt
 OpenBabel03212219133D

 24 27  0  0  0  0  0  0  0  0999 V2000
  -19.6100   -2.6530  -25.8010 Cl  0  0  0  0  0  0  0  0  0  0  0  0
  -19.8810   -2.6520  -27.5360 C   0  0  0  0  0  0  0  0  0  0  0  0
  -19.6560   -1.5360  -28.3190 C   0  0  0  0  0  2  0  0  0  0  0  0
  -19.8700   -1.5460  -29.6600 N   0  0  0  0  0  0  0  0  0  0  0  0
  -20.3110   -2.6340  -30.3140 C   0  0  0  0  0  0  0  0  0  0  0  0
  -20.5260   -2.6540  -31.6420 N   0  0  0  0  0  0  0  0  0  0  0  0
  -20.3110   -1.5720  -32.4120 C   0  0  0  0  0  0  0  0  0  0  0  0
  -19.8510   -0.4370  -31.7420 C   0  0  0  0  0  2  0  0  0  0  0  0
  -19.6350   -0.4290  -30.3810 C   0  0  0  0  0  0  0  0  0  0  0  0
  -19.2170    0.6100  -29.7750 O   0  0  0  0  0  0  0  0  0  0  0  0
  -20.5450   -3.7710  -29.5500 C   0  0  0  0  0  3  0  0  0  0  0  0
  -20.3340   -3.7810  -28.1860 C   0  0  0  0  0  3  0  0  0  0  0  0
  -20.5330   -1.5450  -33.8810 C   0  0  0  0  0  2  0  0  0  0  0  0
  -21.7470   -0.8720  -34.1580 N   0  0  0  0  0  0  0  0  0  0  0  0
  -22.9510   -1.6070  -34.0460 C   0  0  0  0  0  2  0  0  0  0  0  0
  -24.0660   -1.1260  -34.9610 C   0  0  0  0  0  2  0  0  0  0  0  0
  -23.4630   -1.0160  -36.3160 C   0  0  0  0  0  0  0  0  0  0  0  0
  -22.2570   -0.3510  -36.3840 C   0  0  0  0  0  0  0  0  0  0  0  0
  -24.0900   -1.5560  -37.4160 C   0  0  0  0  0  3  0  0  0  0  0  0
  -21.6740   -0.2270  -37.5850 N   0  0  0  0  0  0  0  0  0  0  0  0
  -21.6990    0.1800  -35.1160 C   0  0  0  0  0  2  0  0  0  0  0  0
  -22.2670   -0.7500  -38.7020 C   0  0  0  0  0  0  0  0  0  0  0  0
  -23.4520   -1.3970  -38.5960 N   0  0  0  0  0  0  0  0  0  0  0  0
  -21.6300   -0.6190  -40.0380 C   0  0  0  0  0  1  0  0  0  0  0  0
  2  1  1  0  0  0  0
  3  2  1  0  0  0  0
  4  3  1  0  0  0  0
  5  4  1  0  0  0  0
  5 11  2  0  0  0  0
  6  5  1  0  0  0  0
  7  8  1  0  0  0  0
  7  6  2  0  0  0  0
  8  9  1  0  0  0  0
  9 10  2  0  0  0  0
  9  4  1  0  0  0  0
 11 12  1  0  0  0  0
 12  2  2  0  0  0  0
 13  7  1  0  0  0  0
 14 15  1  0  0  0  0
 14 13  1  0  0  0  0
 16 15  1  0  0  0  0
 17 16  1  0  0  0  0
 18 17  2  0  0  0  0
 18 21  1  0  0  0  0
 19 17  1  0  0  0  0
 20 18  1  0  0  0  0
 21 14  1  0  0  0  0
 22 23  1  0  0  0  0
 22 20  2  0  0  0  0
 23 19  2  0  0  0  0
 24 22  1  0  0  0  0
M  END
>  <Pose>
1

>  <Score>
-8.537

$$$$
