/Users/jonathanwahrer/Desktop/Msc/3_Semester/Drug_Design_Praktikum/waehrer_HTS_screening/HTS_experiment/out/docking_results/vina_output/5l4q/2020_docked.pdbqt
 OpenBabel03212219133D

 22 24  0  0  1  0  0  0  0  0999 V2000
  -20.6550   -0.7240  -28.9890 C   0  0  2  0  0  3  0  0  0  0  0  0
  -19.5240    0.2640  -29.3860 C   0  0  2  0  0  3  0  0  0  0  0  0
  -18.4630   -0.7850  -29.7730 C   0  0  0  0  0  0  0  0  0  0  0  0
  -17.8180   -0.7480  -30.8050 O   0  0  0  0  0  0  0  0  0  0  0  0
  -18.3510   -1.7960  -28.7460 N   0  0  0  0  0  0  0  0  0  0  0  0
  -18.8850   -1.3800  -27.4350 C   0  0  1  0  0  0  0  0  0  0  0  0
  -18.3190   -0.0360  -27.2550 N   0  0  0  0  0  0  0  0  0  0  0  0
  -18.8790    0.9010  -28.1970 C   0  0  0  0  0  0  0  0  0  0  0  0
  -18.8360    2.1360  -28.0490 O   0  0  0  0  0  0  0  0  0  0  0  0
  -20.4060   -1.1480  -27.6410 C   0  0  0  0  0  2  0  0  0  0  0  0
  -18.6150   -2.2920  -26.3210 C   0  0  0  0  0  1  0  0  0  0  0  0
  -17.9580   -2.7280  -28.9020 H   0  0  0  0  0  0  0  0  0  0  0  0
  -17.6120    0.1880  -26.5450 H   0  0  0  0  0  0  0  0  0  0  0  0
  -20.6920   -1.6430  -30.1210 C   0  0  0  0  0  0  0  0  0  0  0  0
  -20.6860   -1.0700  -31.3990 C   0  0  0  0  0  3  0  0  0  0  0  0
  -20.8080   -1.8580  -32.5460 C   0  0  0  0  0  0  0  0  0  0  0  0
  -20.8070   -1.0450  -34.2650 Br  0  0  0  0  0  0  0  0  0  0  0  0
  -20.9350   -3.2080  -32.4640 C   0  0  0  0  0  3  0  0  0  0  0  0
  -20.9440   -3.7830  -31.2240 C   0  0  0  0  0  3  0  0  0  0  0  0
  -20.8230   -3.0190  -30.0760 C   0  0  0  0  0  0  0  0  0  0  0  0
  -20.8160   -3.5630  -28.8230 O   0  0  0  0  0  0  0  0  0  0  0  0
  -20.3360   -4.8660  -28.6280 C   0  0  0  0  0  1  0  0  0  0  0  0
  1 14  1  6  0  0  0
  1 10  1  0  0  0  0
  2  3  1  1  0  0  0
  2  1  1  0  0  0  0
  2  8  1  0  0  0  0
  3  5  1  0  0  0  0
  4  3  2  0  0  0  0
  5  6  1  0  0  0  0
  6  7  1  0  0  0  0
  6 11  1  1  0  0  0
  7 13  1  0  0  0  0
  8  9  2  0  0  0  0
  8  7  1  0  0  0  0
 10  6  1  0  0  0  0
 12  5  1  0  0  0  0
 14 20  1  0  0  0  0
 15 14  2  0  0  0  0
 16 18  2  0  0  0  0
 16 15  1  0  0  0  0
 17 16  1  0  0  0  0
 18 19  1  0  0  0  0
 19 20  2  0  0  0  0
 20 21  1  0  0  0  0
 21 22  1  0  0  0  0
M  END
>  <Pose>
1

>  <Score>
-7.082

$$$$
