/Users/jonathanwahrer/Desktop/Msc/3_Semester/Drug_Design_Praktikum/waehrer_HTS_screening/HTS_experiment/out/docking_results/vina_output/5l4q/2028_docked.pdbqt
 OpenBabel03212219143D

 31 34  0  0  1  0  0  0  0  0999 V2000
  -23.4030   -3.3690  -40.4400 Cl  0  0  0  0  0  0  0  0  0  0  0  0
  -22.9710   -1.7440  -39.9120 C   0  0  0  0  0  0  0  0  0  0  0  0
  -22.9790   -1.4740  -38.5320 C   0  0  0  0  0  0  0  0  0  0  0  0
  -22.6390   -0.2170  -38.1270 C   0  0  0  0  0  0  0  0  0  0  0  0
  -22.3010    0.7790  -39.0320 C   0  0  0  0  0  3  0  0  0  0  0  0
  -22.3050    0.4850  -40.3760 C   0  0  0  0  0  0  0  0  0  0  0  0
  -22.6370   -0.7720  -40.8290 C   0  0  0  0  0  3  0  0  0  0  0  0
  -21.9350    1.5840  -41.3360 C   0  0  0  0  0  1  0  0  0  0  0  0
  -22.6010   -0.2330  -36.6320 C   0  0  2  0  0  0  0  0  0  0  0  0
  -23.0680    0.9410  -36.0090 N   0  0  0  0  0  0  0  0  0  0  0  0
  -21.9390    1.8170  -35.8760 C   0  0  2  0  0  3  0  0  0  0  0  0
  -20.7070    1.0750  -36.2020 C   0  0  2  0  0  3  0  0  0  0  0  0
  -21.1960   -0.3740  -36.1360 C   0  0  1  0  0  3  0  0  0  0  0  0
  -21.1000   -0.6320  -34.7110 C   0  0  0  0  0  0  0  0  0  0  0  0
  -21.8080   -1.2710  -33.9020 O   0  0  0  0  0  0  0  0  0  0  0  0
  -19.8910    0.0540  -34.2920 N   0  0  0  0  0  0  0  0  0  0  0  0
  -19.6260    1.0920  -35.2240 C   0  0  0  0  0  0  0  0  0  0  0  0
  -18.6490    1.8540  -35.1870 O   0  0  0  0  0  0  0  0  0  0  0  0
  -23.3320   -1.4500  -36.2890 C   0  0  0  0  0  0  0  0  0  0  0  0
  -23.8640   -1.8290  -35.1980 O   0  0  0  0  0  0  0  0  0  0  0  0
  -23.4030   -2.2700  -37.4320 N   0  0  0  0  0  0  0  0  0  0  0  0
  -23.8540    1.4000  -36.5300 H   0  0  0  0  0  0  0  0  0  0  0  0
  -23.7000   -3.2740  -37.5210 H   0  0  0  0  0  0  0  0  0  0  0  0
  -21.9330    2.5490  -34.5480 C   0  0  2  0  0  3  0  0  0  0  0  0
  -23.0090    1.9930  -33.6740 C   0  0  0  0  0  1  0  0  0  0  0  0
  -21.8650    3.9080  -34.6340 O   0  0  0  0  0  0  0  0  0  0  0  0
  -21.0700    4.2530  -35.1150 H   0  0  0  0  0  0  0  0  0  0  0  0
  -19.0600   -0.2300  -33.1520 C   0  0  0  0  0  3  0  0  0  0  0  0
  -19.5990    0.1990  -31.8390 C   0  0  0  0  0  3  0  0  0  0  0  0
  -18.8120    0.0290  -30.7410 O   0  0  0  0  0  0  0  0  0  0  0  0
  -18.8430   -1.2320  -30.1820 C   0  0  0  0  0  1  0  0  0  0  0  0
  1  2  1  0  0  0  0
  2  3  1  0  0  0  0
  3  4  2  0  0  0  0
  3 21  1  0  0  0  0
  5  4  1  0  0  0  0
  6  5  2  0  0  0  0
  7  6  1  0  0  0  0
  7  2  2  0  0  0  0
  8  6  1  0  0  0  0
  9  4  1  6  0  0  0
  9 19  1  0  0  0  0
  9 13  1  0  0  0  0
  9 10  1  0  0  0  0
 10 11  1  0  0  0  0
 11 24  1  1  0  0  0
 12 13  1  0  0  0  0
 12 11  1  0  0  0  0
 12 17  1  1  0  0  0
 13 14  1  1  0  0  0
 14 16  1  0  0  0  0
 14 15  2  0  0  0  0
 16 28  1  0  0  0  0
 17 18  2  0  0  0  0
 17 16  1  0  0  0  0
 19 20  2  0  0  0  0
 21 19  1  0  0  0  0
 22 10  1  0  0  0  0
 23 21  1  0  0  0  0
 24 25  1  6  0  0  0
 26 24  1  0  0  0  0
 27 26  1  0  0  0  0
 28 29  2  0  0  0  0
 29 30  1  0  0  0  0
 30 31  1  0  0  0  0
M  END
>  <Pose>
1

>  <Score>
-7.620

$$$$
