/Users/jonathanwahrer/Desktop/Msc/3_Semester/Drug_Design_Praktikum/waehrer_HTS_screening/HTS_experiment/out/docking_results/vina_output/5l4q/2032_docked.pdbqt
 OpenBabel03212219143D

 31 34  0  0  0  0  0  0  0  0999 V2000
  -18.2330    0.0370  -25.6120 C   0  0  0  0  0  3  0  0  0  0  0  0
  -18.7700   -0.7490  -26.4880 C   0  0  0  0  0  0  0  0  0  0  0  0
  -19.2830   -0.3890  -27.7030 O   0  0  0  0  0  0  0  0  0  0  0  0
  -19.7590   -1.5280  -28.3510 C   0  0  0  0  0  0  0  0  0  0  0  0
  -19.5890   -2.6500  -27.6060 C   0  0  0  0  0  0  0  0  0  0  0  0
  -19.9850   -3.9040  -28.0850 C   0  0  0  0  0  3  0  0  0  0  0  0
  -20.5630   -4.0650  -29.3170 C   0  0  0  0  0  3  0  0  0  0  0  0
  -20.7230   -2.8740  -30.0470 C   0  0  0  0  0  0  0  0  0  0  0  0
  -20.3460   -1.6490  -29.6160 C   0  0  0  0  0  0  0  0  0  0  0  0
  -21.3380   -3.0910  -31.2990 O   0  0  0  0  0  1  0  0  0  0  0  0
  -18.9430   -2.1970  -26.3690 C   0  0  0  0  0  0  0  0  0  0  0  0
  -18.6020   -2.9260  -25.3910 O   0  0  0  0  0  0  0  0  0  0  0  0
  -18.0530    1.4780  -25.7190 C   0  0  0  0  0  0  0  0  0  0  0  0
  -18.1730    2.1010  -26.9340 C   0  0  0  0  0  3  0  0  0  0  0  0
  -17.9620    3.4860  -27.0530 C   0  0  0  0  0  0  0  0  0  0  0  0
  -18.1260    4.3880  -28.7140 Br  0  0  0  0  0  0  0  0  0  0  0  0
  -17.6300    4.2160  -25.9330 C   0  0  0  0  0  3  0  0  0  0  0  0
  -17.5080    3.5990  -24.7300 C   0  0  0  0  0  3  0  0  0  0  0  0
  -17.7190    2.2180  -24.6080 C   0  0  0  0  0  0  0  0  0  0  0  0
  -17.6120    1.5470  -23.4390 O   0  0  0  0  0  0  0  0  0  0  0  0
  -17.3350    2.0710  -22.1860 C   0  0  0  0  0  1  0  0  0  0  0  0
  -20.5590   -0.3920  -30.3580 C   0  0  0  0  0  2  0  0  0  0  0  0
  -20.2660   -0.5490  -31.7630 N   0  0  0  0  0  4  0  0  0  0  0  0
  -18.8390   -0.3820  -31.9750 C   0  0  0  0  0  2  0  0  0  0  0  0
  -18.4740    0.3530  -33.1950 C   0  0  0  0  0  2  0  0  0  0  0  0
  -19.3660    0.2230  -34.3020 N   0  0  0  0  0  0  0  0  0  0  0  0
  -20.5880   -0.4100  -34.0920 C   0  0  0  0  0  2  0  0  0  0  0  0
  -21.1420   -0.0260  -32.6940 C   0  0  0  0  0  2  0  0  0  0  0  0
  -20.3870   -1.6590  -31.8700 H   0  0  0  0  0  0  0  0  0  0  0  0
  -19.2920    1.2210  -35.3000 C   0  0  0  0  0  2  0  0  0  0  0  0
  -18.8520    0.7550  -36.6440 C   0  0  0  0  0  1  0  0  0  0  0  0
  2 11  1  0  0  0  0
  2  1  2  0  0  0  0
  3  2  1  0  0  0  0
  4  3  1  0  0  0  0
  4  5  1  0  0  0  0
  5 11  1  0  0  0  0
  6  5  2  0  0  0  0
  7  6  1  0  0  0  0
  8  9  1  0  0  0  0
  8  7  2  0  0  0  0
  9  4  2  0  0  0  0
 10  8  1  0  0  0  0
 11 12  2  0  0  0  0
 13  1  1  0  0  0  0
 13 19  1  0  0  0  0
 14 13  2  0  0  0  0
 15 14  1  0  0  0  0
 15 17  2  0  0  0  0
 16 15  1  0  0  0  0
 17 18  1  0  0  0  0
 18 19  2  0  0  0  0
 19 20  1  0  0  0  0
 20 21  1  0  0  0  0
 22  9  1  0  0  0  0
 23 22  1  0  0  0  0
 24 23  1  0  0  0  0
 25 24  1  0  0  0  0
 26 27  1  0  0  0  0
 26 25  1  0  0  0  0
 27 28  1  0  0  0  0
 28 23  1  0  0  0  0
 29 23  1  0  0  0  0
 30 26  1  0  0  0  0
 31 30  1  0  0  0  0
M  END
>  <Pose>
1

>  <Score>
-8.800

$$$$
