/Users/jonathanwahrer/Desktop/Msc/3_Semester/Drug_Design_Praktikum/waehrer_HTS_screening/HTS_experiment/out/docking_results/vina_output/5l4q/2079_docked.pdbqt
 OpenBabel03212219163D

 31 34  0  0  0  0  0  0  0  0999 V2000
  -19.7810   -1.1590  -29.0100 C   0  0  0  0  0  0  0  0  0  0  0  0
  -20.3640   -2.4020  -29.1030 C   0  0  0  0  0  3  0  0  0  0  0  0
  -20.8440   -2.8290  -30.3490 C   0  0  0  0  0  0  0  0  0  0  0  0
  -20.7460   -2.0320  -31.4680 C   0  0  0  0  0  0  0  0  0  0  0  0
  -21.1900   -2.3700  -32.7470 C   0  0  0  0  0  0  0  0  0  0  0  0
  -21.7690   -3.6620  -32.8170 C   0  0  0  0  0  0  0  0  0  0  0  0
  -21.8820   -4.5000  -31.7110 C   0  0  0  0  0  3  0  0  0  0  0  0
  -21.4120   -4.0710  -30.4800 C   0  0  0  0  0  3  0  0  0  0  0  0
  -22.2690   -4.1960  -33.9880 O   0  0  0  0  0  1  0  0  0  0  0  0
  -20.2000   -0.8910  -31.3350 O   0  0  0  0  0  0  0  0  0  0  0  0
  -19.7120   -0.3980  -30.1940 C   0  0  0  0  0  0  0  0  0  0  0  0
  -19.1990    0.7260  -30.1370 O   0  0  0  0  0  0  0  0  0  0  0  0
  -20.9800   -1.6750  -33.9680 C   0  0  0  0  0  2  0  0  0  0  0  0
  -22.0260   -1.2560  -34.8650 N   0  0  0  0  0  4  0  0  0  0  0  0
  -22.8240   -0.1360  -34.2910 C   0  0  0  0  0  2  0  0  0  0  0  0
  -21.9240    0.8210  -33.5940 C   0  0  0  0  0  2  0  0  0  0  0  0
  -20.9180    1.4410  -34.4260 N   0  0  0  0  0  0  0  0  0  0  0  0
  -20.5220    0.6250  -35.5240 C   0  0  0  0  0  2  0  0  0  0  0  0
  -21.3590   -0.4820  -35.9620 C   0  0  0  0  0  2  0  0  0  0  0  0
  -22.5910   -1.9270  -35.3330 H   0  0  0  0  0  0  0  0  0  0  0  0
  -19.7460    1.8100  -33.6170 C   0  0  0  0  0  2  0  0  0  0  0  0
  -18.5120    1.0350  -34.0160 C   0  0  0  0  0  2  0  0  0  0  0  0
  -17.9070    0.4010  -32.9400 O   0  0  0  0  0  0  0  0  0  0  0  0
  -18.4710   -0.3970  -32.6890 H   0  0  0  0  0  0  0  0  0  0  0  0
  -19.1480   -0.6920  -27.7600 C   0  0  0  0  0  0  0  0  0  0  0  0
  -19.1560    0.6960  -27.5280 C   0  0  0  0  0  3  0  0  0  0  0  0
  -18.6290    1.2040  -26.3540 C   0  0  0  0  0  3  0  0  0  0  0  0
  -18.0780    0.3820  -25.3770 C   0  0  0  0  0  0  0  0  0  0  0  0
  -17.4780    1.0070  -23.8210 Cl  0  0  0  0  0  0  0  0  0  0  0  0
  -18.0690   -0.9810  -25.6160 C   0  0  0  0  0  3  0  0  0  0  0  0
  -18.6010   -1.4640  -26.7980 C   0  0  0  0  0  3  0  0  0  0  0  0
  1 25  1  0  0  0  0
  2  1  2  0  0  0  0
  3  2  1  0  0  0  0
  4 10  1  0  0  0  0
  4  3  2  0  0  0  0
  5  4  1  0  0  0  0
  6  5  2  0  0  0  0
  6  7  1  0  0  0  0
  7  8  2  0  0  0  0
  8  3  1  0  0  0  0
  9  6  1  0  0  0  0
 10 11  1  0  0  0  0
 11 12  2  0  0  0  0
 11  1  1  0  0  0  0
 13  5  1  0  0  0  0
 14 15  1  0  0  0  0
 14 13  1  0  0  0  0
 15 16  1  0  0  0  0
 17 21  1  0  0  0  0
 17 16  1  0  0  0  0
 18 17  1  0  0  0  0
 19 18  1  0  0  0  0
 19 14  1  0  0  0  0
 20 14  1  0  0  0  0
 22 21  1  0  0  0  0
 22 23  1  0  0  0  0
 23 24  1  0  0  0  0
 25 26  2  0  0  0  0
 25 31  1  0  0  0  0
 26 27  1  0  0  0  0
 27 28  2  0  0  0  0
 28 29  1  0  0  0  0
 30 28  1  0  0  0  0
 31 30  2  0  0  0  0
M  END
>  <Pose>
1

>  <Score>
-9.565

$$$$
