/Users/jonathanwahrer/Desktop/Msc/3_Semester/Drug_Design_Praktikum/waehrer_HTS_screening/HTS_experiment/out/docking_results/vina_output/5l4q/2091_docked.pdbqt
 OpenBabel03212219163D

 28 31  0  0  0  0  0  0  0  0999 V2000
  -22.2420    0.4950  -36.6420 N   0  0  0  0  0  0  0  0  0  0  0  0
  -22.6190   -0.5720  -37.3620 C   0  0  0  0  0  0  0  0  0  0  0  0
  -22.1440   -0.4330  -38.6480 C   0  0  0  0  0  0  0  0  0  0  0  0
  -21.4910    0.7180  -38.6700 N   0  0  0  0  0  0  0  0  0  0  0  0
  -21.5320    1.3050  -37.4650 C   0  0  0  0  0  0  0  0  0  0  0  0
  -22.3460   -1.3510  -39.6260 N   0  0  0  0  0  0  0  0  0  0  0  0
  -23.0470   -2.4470  -39.2940 C   0  0  0  0  0  0  0  0  0  0  0  0
  -23.2260   -3.2860  -40.2130 O   0  0  0  0  0  0  0  0  0  0  0  0
  -23.5340   -2.6420  -38.0570 N   0  0  0  0  0  0  0  0  0  0  0  0
  -23.3400   -1.7380  -37.0790 C   0  0  0  0  0  0  0  0  0  0  0  0
  -23.7720   -1.8880  -35.9280 O   0  0  0  0  0  0  0  0  0  0  0  0
  -21.8110   -1.1170  -40.9510 C   0  0  0  0  0  1  0  0  0  0  0  0
  -24.0750   -3.4980  -37.8080 H   0  0  0  0  0  0  0  0  0  0  0  0
  -22.5410    0.7470  -35.2540 C   0  0  0  0  0  2  0  0  0  0  0  0
  -21.5380    0.3980  -34.2680 C   0  0  0  0  0  0  0  0  0  0  0  0
  -20.5250    1.1920  -33.8270 C   0  0  0  0  0  3  0  0  0  0  0  0
  -19.6170    0.8060  -32.8440 C   0  0  0  0  0  3  0  0  0  0  0  0
  -19.7360   -0.4560  -32.2700 C   0  0  0  0  0  0  0  0  0  0  0  0
  -18.5460   -1.0600  -30.9100 Br  0  0  0  0  0  0  0  0  0  0  0  0
  -20.7460   -1.2930  -32.6850 C   0  0  0  0  0  3  0  0  0  0  0  0
  -21.6190   -0.8690  -33.6590 C   0  0  0  0  0  3  0  0  0  0  0  0
  -20.9430    2.5600  -37.0990 N   0  0  0  0  0  0  0  0  0  0  0  0
  -21.8070    3.7190  -37.0420 C   0  0  0  0  0  2  0  0  0  0  0  0
  -21.3530    4.6900  -38.1220 C   0  0  0  0  0  2  0  0  0  0  0  0
  -19.9910    4.5050  -38.4980 N   0  0  0  0  0  0  0  0  0  0  0  0
  -19.1160    4.0340  -37.4760 C   0  0  0  0  0  2  0  0  0  0  0  0
  -19.7280    4.0780  -39.8200 C   0  0  0  0  0  1  0  0  0  0  0  0
  -19.5510    2.7600  -36.7970 C   0  0  0  0  0  2  0  0  0  0  0  0
  1 14  1  0  0  0  0
  2 10  1  0  0  0  0
  2  1  1  0  0  0  0
  3  2  2  0  0  0  0
  4  3  1  0  0  0  0
  4  5  2  0  0  0  0
  5 22  1  0  0  0  0
  5  1  1  0  0  0  0
  6  7  1  0  0  0  0
  6  3  1  0  0  0  0
  7  9  1  0  0  0  0
  8  7  2  0  0  0  0
  9 13  1  0  0  0  0
  9 10  1  0  0  0  0
 10 11  2  0  0  0  0
 12  6  1  0  0  0  0
 14 15  1  0  0  0  0
 15 16  2  0  0  0  0
 15 21  1  0  0  0  0
 16 17  1  0  0  0  0
 17 18  2  0  0  0  0
 18 19  1  0  0  0  0
 20 18  1  0  0  0  0
 21 20  2  0  0  0  0
 22 23  1  0  0  0  0
 22 28  1  0  0  0  0
 24 23  1  0  0  0  0
 25 24  1  0  0  0  0
 25 26  1  0  0  0  0
 26 28  1  0  0  0  0
 27 25  1  0  0  0  0
M  END
>  <Pose>
1

>  <Score>
-7.594

$$$$
