/Users/jonathanwahrer/Desktop/Msc/3_Semester/Drug_Design_Praktikum/waehrer_HTS_screening/HTS_experiment/out/docking_results/vina_output/5l4q/2105_docked.pdbqt
 OpenBabel03212219173D

 29 32  0  0  1  0  0  0  0  0999 V2000
  -21.9170    3.3810  -38.1840 Cl  0  0  0  0  0  0  0  0  0  0  0  0
  -21.0480    2.0190  -37.5090 C   0  0  0  0  0  0  0  0  0  0  0  0
  -21.4620    1.4350  -36.3110 C   0  0  0  0  0  0  0  0  0  0  0  0
  -20.8140    0.3740  -35.7530 C   0  0  0  0  0  0  0  0  0  0  0  0
  -19.7080   -0.1080  -36.4400 C   0  0  0  0  0  3  0  0  0  0  0  0
  -19.2840    0.4540  -37.6240 C   0  0  0  0  0  3  0  0  0  0  0  0
  -19.9520    1.5260  -38.1720 C   0  0  0  0  0  3  0  0  0  0  0  0
  -21.4980   -0.0020  -34.4980 C   0  0  2  0  0  0  0  0  0  0  0  0
  -20.5700    0.1810  -33.3240 C   0  0  0  0  0  0  0  0  0  0  0  0
  -20.2780   -0.7720  -32.4830 C   0  0  0  0  0  0  0  0  0  0  0  0
  -20.8240   -2.0830  -32.6140 N   0  0  0  0  0  0  0  0  0  0  0  0
  -21.7050   -2.3410  -33.6920 C   0  0  0  0  0  0  0  0  0  0  0  0
  -22.0070   -1.3890  -34.5440 C   0  0  0  0  0  0  0  0  0  0  0  0
  -22.9180   -1.6980  -35.6380 C   0  0  0  0  0  0  0  0  0  0  0  0
  -23.6370   -1.9290  -36.5140 N   0  0  0  0  0  0  0  0  0  0  0  0
  -19.3480   -0.2430  -31.4650 C   0  0  0  0  0  0  0  0  0  0  0  0
  -19.1390    1.0740  -31.7960 O   0  0  0  0  0  0  0  0  0  0  0  0
  -19.8610    1.3900  -32.9230 C   0  0  0  0  0  0  0  0  0  0  0  0
  -19.9210    2.5160  -33.5300 O   0  0  0  0  0  0  0  0  0  0  0  0
  -18.0940   -1.0880  -31.4570 C   0  0  0  0  0  1  0  0  0  0  0  0
  -19.9440   -0.2990  -30.0700 C   0  0  0  0  0  1  0  0  0  0  0  0
  -22.6190    0.9610  -34.3880 C   0  0  0  0  0  0  0  0  0  0  0  0
  -23.4890    1.0150  -33.4470 O   0  0  0  0  0  0  0  0  0  0  0  0
  -22.5640    1.8180  -35.5060 N   0  0  0  0  0  0  0  0  0  0  0  0
  -20.5940   -2.8490  -31.9460 H   0  0  0  0  0  0  0  0  0  0  0  0
  -23.2570    2.6080  -35.6800 H   0  0  0  0  0  0  0  0  0  0  0  0
  -22.2930   -3.6310  -33.8890 N   0  0  0  0  0  0  0  0  0  0  0  0
  -23.2810   -3.7230  -34.1600 H   0  0  0  0  0  0  0  0  0  0  0  0
  -21.7060   -4.4620  -33.7520 H   0  0  0  0  0  0  0  0  0  0  0  0
  1  2  1  0  0  0  0
  2  3  1  0  0  0  0
  3  4  2  0  0  0  0
  3 24  1  0  0  0  0
  5  4  1  0  0  0  0
  6  5  2  0  0  0  0
  7  6  1  0  0  0  0
  7  2  2  0  0  0  0
  8  4  1  6  0  0  0
  8 22  1  0  0  0  0
  8  9  1  0  0  0  0
  9 18  1  0  0  0  0
  9 10  2  0  0  0  0
 10 16  1  0  0  0  0
 11 10  1  0  0  0  0
 11 25  1  0  0  0  0
 12 11  1  0  0  0  0
 13  8  1  0  0  0  0
 13 12  2  0  0  0  0
 14 13  1  0  0  0  0
 15 14  3  0  0  0  0
 16 20  1  0  0  0  0
 16 21  1  0  0  0  0
 17 16  1  0  0  0  0
 18 17  1  0  0  0  0
 19 18  2  0  0  0  0
 22 23  2  0  0  0  0
 24 22  1  0  0  0  0
 26 24  1  0  0  0  0
 27 29  1  0  0  0  0
 27 12  1  0  0  0  0
 28 27  1  0  0  0  0
M  END
>  <Pose>
1

>  <Score>
-7.868

$$$$
