/Users/jonathanwahrer/Desktop/Msc/3_Semester/Drug_Design_Praktikum/waehrer_HTS_screening/HTS_experiment/out/docking_results/vina_output/5l4q/2109_docked.pdbqt
 OpenBabel03212219173D

 21 24  0  0  1  0  0  0  0  0999 V2000
  -20.5270   -2.5290  -31.6280 N   0  0  0  0  0  0  0  0  0  0  0  0
  -21.4990   -3.2890  -32.3610 C   0  0  0  0  0  0  0  0  0  0  0  0
  -22.3280   -4.0980  -31.8750 O   0  0  0  0  0  0  0  0  0  0  0  0
  -21.3900   -2.9860  -33.8070 C   0  0  1  0  0  3  0  0  0  0  0  0
  -22.6130   -2.6470  -34.3750 O   0  0  0  0  0  0  0  0  0  0  0  0
  -23.0040   -1.4970  -33.8510 N   0  0  1  0  0  0  0  0  0  0  0  0
  -21.9180   -0.7610  -33.3730 C   0  0  1  0  0  3  0  0  0  0  0  0
  -20.7130   -1.6210  -33.7600 C   0  0  1  0  0  3  0  0  0  0  0  0
  -19.7920   -1.8020  -32.6120 C   0  0  0  0  0  0  0  0  0  0  0  0
  -18.5930   -1.4180  -32.4690 O   0  0  0  0  0  0  0  0  0  0  0  0
  -21.7670    0.6460  -33.7700 C   0  0  0  0  0  2  0  0  0  0  0  0
  -22.8210    1.2470  -34.6140 C   0  0  0  0  0  2  0  0  0  0  0  0
  -24.1530    0.6350  -34.2400 C   0  0  0  0  0  2  0  0  0  0  0  0
  -24.0410   -0.8390  -34.5310 C   0  0  0  0  0  2  0  0  0  0  0  0
  -20.3220   -2.4920  -30.2150 C   0  0  0  0  0  0  0  0  0  0  0  0
  -20.2260   -1.3200  -29.4950 C   0  0  0  0  0  3  0  0  0  0  0  0
  -20.0270   -1.2940  -28.1250 C   0  0  0  0  0  3  0  0  0  0  0  0
  -19.9150   -2.4730  -27.4170 C   0  0  0  0  0  0  0  0  0  0  0  0
  -19.6630   -2.4530  -25.6810 Cl  0  0  0  0  0  0  0  0  0  0  0  0
  -20.0090   -3.6520  -28.1270 C   0  0  0  0  0  3  0  0  0  0  0  0
  -20.2080   -3.6720  -29.4940 C   0  0  0  0  0  3  0  0  0  0  0  0
  1 15  1  0  0  0  0
  2  3  2  0  0  0  0
  2  1  1  0  0  0  0
  4  5  1  1  0  0  0
  4  8  1  0  0  0  0
  4  2  1  0  0  0  0
  5  6  1  0  0  0  0
  6 14  1  6  0  0  0
  6  7  1  0  0  0  0
  7 11  1  6  0  0  0
  8  7  1  0  0  0  0
  8  9  1  1  0  0  0
  9 10  2  0  0  0  0
  9  1  1  0  0  0  0
 12 13  1  0  0  0  0
 12 11  1  0  0  0  0
 14 13  1  0  0  0  0
 15 16  2  0  0  0  0
 15 21  1  0  0  0  0
 16 17  1  0  0  0  0
 17 18  2  0  0  0  0
 18 19  1  0  0  0  0
 20 18  1  0  0  0  0
 21 20  2  0  0  0  0
M  END
>  <Pose>
1

>  <Score>
-8.105

$$$$
