/Users/jonathanwahrer/Desktop/Msc/3_Semester/Drug_Design_Praktikum/waehrer_HTS_screening/HTS_experiment/out/docking_results/vina_output/5l4q/2121_docked.pdbqt
 OpenBabel03212219173D

 31 34  0  0  1  0  0  0  0  0999 V2000
  -23.6860   -0.3730  -36.1490 C   0  0  0  0  0  0  0  0  0  0  0  0
  -24.0750    0.8620  -35.8070 O   0  0  0  0  0  0  0  0  0  0  0  0
  -24.0770   -0.7330  -37.4210 N   0  0  0  0  0  0  0  0  0  0  0  0
  -24.8000    0.3780  -38.1020 C   0  0  0  0  0  2  0  0  0  0  0  0
  -23.7960    1.2370  -38.8460 C   0  0  0  0  0  2  0  0  0  0  0  0
  -22.5850    0.4180  -39.0820 C   0  0  1  0  0  3  0  0  0  0  0  0
  -22.9040   -0.8030  -39.8830 C   0  0  2  0  0  3  0  0  0  0  0  0
  -22.6290   -2.0010  -38.9570 C   0  0  0  0  0  2  0  0  0  0  0  0
  -23.8370   -2.0080  -38.0030 C   0  0  0  0  0  2  0  0  0  0  0  0
  -22.9490   -1.0390  -35.1090 C   0  0  0  0  0  0  0  0  0  0  0  0
  -22.9080   -2.3270  -34.7630 N   0  0  0  0  0  0  0  0  0  0  0  0
  -22.0930   -2.5150  -33.6810 C   0  0  0  0  0  0  0  0  0  0  0  0
  -23.3800   -3.1250  -35.2070 H   0  0  0  0  0  0  0  0  0  0  0  0
  -21.6040   -1.3030  -33.3360 C   0  0  0  0  0  0  0  0  0  0  0  0
  -21.7340   -3.6230  -32.9610 C   0  0  0  0  0  3  0  0  0  0  0  0
  -20.7320   -1.1260  -32.2570 C   0  0  0  0  0  3  0  0  0  0  0  0
  -22.1220   -0.3670  -34.2100 C   0  0  0  0  0  3  0  0  0  0  0  0
  -20.3860   -2.2340  -31.5530 C   0  0  0  0  0  0  0  0  0  0  0  0
  -19.2890   -2.0500  -30.1820 Cl  0  0  0  0  0  0  0  0  0  0  0  0
  -20.8710   -3.4820  -31.8850 C   0  0  0  0  0  3  0  0  0  0  0  0
  -21.4240    1.0660  -39.6050 N   0  0  0  0  0  0  0  0  0  0  0  0
  -20.2020    0.7960  -38.8900 C   0  0  0  0  0  2  0  0  0  0  0  0
  -20.2450    1.3160  -37.5030 C   0  0  0  0  0  2  0  0  0  0  0  0
  -20.5520    2.7470  -37.6030 N   0  0  0  0  0  0  0  0  0  0  0  0
  -20.6930    3.2660  -38.9390 C   0  0  0  0  0  2  0  0  0  0  0  0
  -20.6720    3.5360  -36.4190 C   0  0  0  0  0  0  0  0  0  0  0  0
  -21.6020    2.4750  -39.8310 C   0  0  0  0  0  2  0  0  0  0  0  0
  -20.9440    4.7400  -36.5140 O   0  0  0  0  0  0  0  0  0  0  0  0
  -20.4610    2.8700  -35.0950 C   0  0  0  0  0  1  0  0  0  0  0  0
  -22.1810   -0.9070  -41.0700 O   0  0  0  0  0  0  0  0  0  0  0  0
  -22.7880   -0.5360  -41.7890 H   0  0  0  0  0  0  0  0  0  0  0  0
  1  2  2  0  0  0  0
  1 10  1  0  0  0  0
  3  1  1  0  0  0  0
  4  3  1  0  0  0  0
  5  4  1  0  0  0  0
  6 21  1  6  0  0  0
  6  5  1  0  0  0  0
  7 30  1  6  0  0  0
  7  6  1  0  0  0  0
  7  8  1  0  0  0  0
  8  9  1  0  0  0  0
  9  3  1  0  0  0  0
 10 11  1  0  0  0  0
 10 17  2  0  0  0  0
 11 12  1  0  0  0  0
 12 14  2  0  0  0  0
 12 15  1  0  0  0  0
 13 11  1  0  0  0  0
 14 16  1  0  0  0  0
 15 20  2  0  0  0  0
 16 18  2  0  0  0  0
 17 14  1  0  0  0  0
 18 19  1  0  0  0  0
 20 18  1  0  0  0  0
 21 22  1  0  0  0  0
 22 23  1  0  0  0  0
 24 23  1  0  0  0  0
 24 26  1  0  0  0  0
 25 24  1  0  0  0  0
 26 29  1  0  0  0  0
 27 21  1  0  0  0  0
 27 25  1  0  0  0  0
 28 26  2  0  0  0  0
 31 30  1  0  0  0  0
M  END
>  <Pose>
1

>  <Score>
-8.246

$$$$
