/Users/jonathanwahrer/Desktop/Msc/3_Semester/Drug_Design_Praktikum/waehrer_HTS_screening/HTS_experiment/out/docking_results/vina_output/5l4q/2122_docked.pdbqt
 OpenBabel03212219173D

 29 32  0  0  0  0  0  0  0  0999 V2000
  -20.8080   -1.9680  -33.4600 C   0  0  0  0  0  0  0  0  0  0  0  0
  -21.6170   -3.0410  -33.4170 N   0  0  0  0  0  0  0  0  0  0  0  0
  -22.7020   -2.8230  -34.1050 O   0  0  0  0  0  0  0  0  0  0  0  0
  -22.6080   -1.6050  -34.6000 C   0  0  0  0  0  0  0  0  0  0  0  0
  -21.4490   -1.0650  -34.2130 N   0  0  0  0  0  0  0  0  0  0  0  0
  -19.4700   -1.8710  -32.8160 C   0  0  0  0  0  2  0  0  0  0  0  0
  -19.5790   -1.2560  -31.5250 N   0  0  0  0  0  0  0  0  0  0  0  0
  -19.7990   -1.8000  -30.3250 C   0  0  0  0  0  0  0  0  0  0  0  0
  -19.9930   -3.1120  -29.9140 C   0  0  0  0  0  3  0  0  0  0  0  0
  -19.8210   -0.7930  -29.3570 C   0  0  0  0  0  0  0  0  0  0  0  0
  -20.1990   -3.3560  -28.5590 C   0  0  0  0  0  0  0  0  0  0  0  0
  -20.4460   -5.0140  -28.0330 Cl  0  0  0  0  0  0  0  0  0  0  0  0
  -20.2140   -2.3350  -27.6260 C   0  0  0  0  0  3  0  0  0  0  0  0
  -20.0240   -1.0500  -28.0320 C   0  0  0  0  0  3  0  0  0  0  0  0
  -19.6140    0.2980  -30.0280 O   0  0  0  0  0  0  0  0  0  0  0  0
  -19.4660    0.0660  -31.3070 C   0  0  0  0  0  0  0  0  0  0  0  0
  -19.2540    0.9680  -32.1610 O   0  0  0  0  0  0  0  0  0  0  0  0
  -23.6960   -1.0240  -35.4570 C   0  0  0  0  0  0  0  0  0  0  0  0
  -24.2880   -0.0690  -34.8440 O   0  0  0  0  0  0  0  0  0  0  0  0
  -23.9290   -1.5130  -36.6880 N   0  0  0  0  0  0  0  0  0  0  0  0
  -24.8920   -0.5540  -36.8770 H   0  0  0  0  0  0  0  0  0  0  0  0
  -24.1810   -2.0040  -37.9550 C   0  0  0  0  0  2  0  0  0  0  0  0
  -22.9720   -1.9210  -38.8930 C   0  0  0  0  0  2  0  0  0  0  0  0
  -22.9790   -0.8230  -39.7770 N   0  0  0  0  0  0  0  0  0  0  0  0
  -22.0160   -0.9780  -40.7960 C   0  0  0  0  0  2  0  0  0  0  0  0
  -21.5340    0.3190  -41.3550 C   0  0  0  0  0  2  0  0  0  0  0  0
  -22.6000    1.1690  -41.4940 O   0  0  0  0  0  0  0  0  0  0  0  0
  -23.1620    1.5670  -40.2950 C   0  0  0  0  0  2  0  0  0  0  0  0
  -23.2600    0.4630  -39.2840 C   0  0  0  0  0  2  0  0  0  0  0  0
  1  2  2  0  0  0  0
  1  6  1  0  0  0  0
  3  2  1  0  0  0  0
  4  5  2  0  0  0  0
  4  3  1  0  0  0  0
  5  1  1  0  0  0  0
  6  7  1  0  0  0  0
  7 16  1  0  0  0  0
  7  8  1  0  0  0  0
  8  9  2  0  0  0  0
  8 10  1  0  0  0  0
  9 11  1  0  0  0  0
 10 14  2  0  0  0  0
 11 12  1  0  0  0  0
 11 13  2  0  0  0  0
 14 13  1  0  0  0  0
 15 10  1  0  0  0  0
 16 15  1  0  0  0  0
 17 16  2  0  0  0  0
 18 19  2  0  0  0  0
 18  4  1  0  0  0  0
 20 18  1  0  0  0  0
 21 20  1  0  0  0  0
 22 20  1  0  0  0  0
 23 22  1  0  0  0  0
 24 29  1  0  0  0  0
 24 23  1  0  0  0  0
 25 24  1  0  0  0  0
 26 25  1  0  0  0  0
 27 26  1  0  0  0  0
 27 28  1  0  0  0  0
 28 29  1  0  0  0  0
M  END
>  <Pose>
1

>  <Score>
-8.586

$$$$
