/Users/jonathanwahrer/Desktop/Msc/3_Semester/Drug_Design_Praktikum/waehrer_HTS_screening/HTS_experiment/out/docking_results/vina_output/5l4q/2124_docked.pdbqt
 OpenBabel03212219183D

 25 29  0  0  1  0  0  0  0  0999 V2000
  -21.1150   -1.0150  -33.1830 N   0  0  0  0  0  0  0  0  0  0  0  0
  -22.1220   -1.6140  -33.9850 C   0  0  0  0  0  0  0  0  0  0  0  0
  -22.9380   -2.4900  -33.5940 O   0  0  0  0  0  0  0  0  0  0  0  0
  -22.0830   -1.0570  -35.3790 C   0  0  1  0  0  3  0  0  0  0  0  0
  -23.3990   -0.4670  -35.7600 C   0  0  2  0  0  0  0  0  0  0  0  0
  -23.0840    0.8280  -36.2420 O   0  0  0  0  0  0  0  0  0  0  0  0
  -22.3450    1.2420  -35.1040 C   0  0  2  0  0  0  0  0  0  0  0  0
  -21.2300    0.2040  -35.1810 C   0  0  1  0  0  3  0  0  0  0  0  0
  -20.5030    0.0270  -33.9330 C   0  0  0  0  0  0  0  0  0  0  0  0
  -19.4960    0.7010  -33.5960 O   0  0  0  0  0  0  0  0  0  0  0  0
  -23.3180    0.9390  -34.0270 C   0  0  0  0  0  2  0  0  0  0  0  0
  -24.0840   -0.0720  -34.4870 C   0  0  0  0  0  2  0  0  0  0  0  0
  -21.8840    2.6380  -35.1580 C   0  0  0  0  0  1  0  0  0  0  0  0
  -20.7070   -1.3260  -31.8480 C   0  0  0  0  0  0  0  0  0  0  0  0
  -20.3550   -2.5910  -31.4430 C   0  0  0  0  0  3  0  0  0  0  0  0
  -19.9640   -2.8810  -30.1480 C   0  0  0  0  0  3  0  0  0  0  0  0
  -19.9160   -1.8830  -29.2050 C   0  0  0  0  0  0  0  0  0  0  0  0
  -19.4270   -2.2080  -27.5390 Cl  0  0  0  0  0  0  0  0  0  0  0  0
  -20.2670   -0.6100  -29.5960 C   0  0  0  0  0  3  0  0  0  0  0  0
  -20.6600   -0.3200  -30.9000 C   0  0  0  0  0  3  0  0  0  0  0  0
  -24.2380   -1.2400  -36.6830 C   0  0  0  0  0  3  0  0  0  0  0  0
  -24.5540   -0.4330  -37.7780 O   0  0  0  0  0  0  0  0  0  0  0  0
  -23.5590   -0.5720  -38.7140 C   0  0  0  0  0  2  0  0  0  0  0  0
  -23.0300   -1.9530  -38.4340 C   0  0  0  0  0  2  0  0  0  0  0  0
  -23.5070   -2.3130  -37.1930 O   0  0  0  0  0  0  0  0  0  0  0  0
  1 14  1  0  0  0  0
  2  3  2  0  0  0  0
  2  1  1  0  0  0  0
  4  8  1  0  0  0  0
  4  2  1  1  0  0  0
  5 21  1  6  0  0  0
  5  4  1  0  0  0  0
  5 12  1  0  0  0  0
  6  5  1  0  0  0  0
  6  7  1  0  0  0  0
  7 13  1  6  0  0  0
  7 11  1  0  0  0  0
  8  7  1  0  0  0  0
  8  9  1  1  0  0  0
  9 10  2  0  0  0  0
  9  1  1  0  0  0  0
 12 11  1  0  0  0  0
 14 15  2  0  0  0  0
 14 20  1  0  0  0  0
 15 16  1  0  0  0  0
 16 17  2  0  0  0  0
 17 18  1  0  0  0  0
 19 17  1  0  0  0  0
 20 19  2  0  0  0  0
 22 21  1  0  0  0  0
 23 24  1  0  0  0  0
 23 22  1  0  0  0  0
 24 25  1  0  0  0  0
 25 21  1  0  0  0  0
M  END
>  <Pose>
1

>  <Score>
-8.548

$$$$
