/Users/jonathanwahrer/Desktop/Msc/3_Semester/Drug_Design_Praktikum/waehrer_HTS_screening/HTS_experiment/out/docking_results/vina_output/5l4q/2134_docked.pdbqt
 OpenBabel03212219183D

 36 39  0  0  0  0  0  0  0  0999 V2000
  -18.9830   -0.8570  -29.4890 C   0  0  0  0  0  0  0  0  0  0  0  0
  -18.6430    0.1730  -28.7530 N   0  0  0  0  0  0  0  0  0  0  0  0
  -18.7050   -0.0950  -27.4090 N   0  0  0  0  0  0  0  0  0  0  0  0
  -19.1320   -1.4530  -27.3040 C   0  0  0  0  0  0  0  0  0  0  0  0
  -19.3580   -2.2320  -26.2870 N   0  0  0  0  0  0  0  0  0  0  0  0
  -19.7890   -3.5740  -26.4530 N   0  0  0  0  0  0  0  0  0  0  0  0
  -19.9950   -4.1390  -27.7250 C   0  0  0  0  0  0  0  0  0  0  0  0
  -20.4050   -5.3890  -27.8950 C   0  0  0  0  0  2  0  0  0  0  0  0
  -19.7440   -3.2830  -28.8790 C   0  0  0  0  0  0  0  0  0  0  0  0
  -19.9170   -3.7590  -30.0050 O   0  0  0  0  0  0  0  0  0  0  0  0
  -19.3120   -1.9440  -28.6310 N   0  0  0  0  0  0  0  0  0  0  0  0
  -19.9410   -4.1120  -25.5700 H   0  0  0  0  0  0  0  0  0  0  0  0
  -19.0100   -0.8620  -30.9380 C   0  0  0  0  0  0  0  0  0  0  0  0
  -20.1190   -1.4290  -31.6100 N   0  0  0  0  0  0  0  0  0  0  0  0
  -20.9340   -1.8200  -31.1140 H   0  0  0  0  0  0  0  0  0  0  0  0
  -18.0540   -0.3730  -31.6200 O   0  0  0  0  0  0  0  0  0  0  0  0
  -20.1140   -1.4480  -33.0000 N   0  0  0  0  0  0  0  0  0  0  0  0
  -21.0780   -0.8830  -33.8570 C   0  0  0  0  0  0  0  0  0  0  0  0
  -21.0110   -0.9390  -35.2600 N   0  0  0  0  0  0  0  0  0  0  0  0
  -22.0620   -0.2870  -33.3420 O   0  0  0  0  0  0  0  0  0  0  0  0
  -20.2070   -1.4350  -35.7190 H   0  0  0  0  0  0  0  0  0  0  0  0
  -19.2750   -1.9660  -33.4200 H   0  0  0  0  0  0  0  0  0  0  0  0
  -21.9550   -0.3640  -36.1580 C   0  0  0  0  0  0  0  0  0  0  0  0
  -23.0360   -1.1070  -36.6270 C   0  0  0  0  0  3  0  0  0  0  0  0
  -23.9640   -0.5780  -37.4950 C   0  0  0  0  0  3  0  0  0  0  0  0
  -23.7820    0.7240  -37.8840 C   0  0  0  0  0  0  0  0  0  0  0  0
  -24.9220    1.4990  -38.9920 Cl  0  0  0  0  0  0  0  0  0  0  0  0
  -22.7360    1.4910  -37.4480 C   0  0  0  0  0  3  0  0  0  0  0  0
  -21.8140    0.9500  -36.5810 C   0  0  0  0  0  3  0  0  0  0  0  0
  -18.4450    0.8240  -26.3520 C   0  0  0  0  0  0  0  0  0  0  0  0
  -18.0790    0.3910  -25.1010 C   0  0  0  0  0  3  0  0  0  0  0  0
  -17.7740    1.2430  -24.0480 C   0  0  0  0  0  3  0  0  0  0  0  0
  -17.8320    2.6100  -24.2310 C   0  0  0  0  0  0  0  0  0  0  0  0
  -18.2010    3.0680  -25.4780 C   0  0  0  0  0  3  0  0  0  0  0  0
  -17.4760    3.5620  -23.1350 C   0  0  0  0  0  1  0  0  0  0  0  0
  -18.5010    2.1890  -26.5170 C   0  0  0  0  0  3  0  0  0  0  0  0
  1  2  2  0  0  0  0
  1 11  1  0  0  0  0
  2  3  1  0  0  0  0
  3  4  1  0  0  0  0
  3 30  1  0  0  0  0
  4  5  2  0  0  0  0
  6  5  1  0  0  0  0
  6 12  1  0  0  0  0
  7  6  1  0  0  0  0
  8  7  2  0  0  0  0
  9 11  1  0  0  0  0
  9  7  1  0  0  0  0
 10  9  2  0  0  0  0
 11  4  1  0  0  0  0
 13  1  1  0  0  0  0
 14 15  1  0  0  0  0
 14 13  1  0  0  0  0
 16 13  2  0  0  0  0
 17 14  1  0  0  0  0
 18 20  2  0  0  0  0
 18 17  1  0  0  0  0
 19 18  1  0  0  0  0
 21 19  1  0  0  0  0
 22 17  1  0  0  0  0
 23 19  1  0  0  0  0
 24 23  2  0  0  0  0
 25 24  1  0  0  0  0
 26 25  2  0  0  0  0
 26 28  1  0  0  0  0
 27 26  1  0  0  0  0
 28 29  2  0  0  0  0
 29 23  1  0  0  0  0
 30 31  1  0  0  0  0
 31 32  2  0  0  0  0
 33 32  1  0  0  0  0
 33 35  1  0  0  0  0
 34 33  2  0  0  0  0
 36 30  2  0  0  0  0
 36 34  1  0  0  0  0
M  END
>  <Pose>
1

>  <Score>
-10.700

$$$$
