/Users/jonathanwahrer/Desktop/Msc/3_Semester/Drug_Design_Praktikum/waehrer_HTS_screening/HTS_experiment/out/docking_results/vina_output/5l4q/2139_docked.pdbqt
 OpenBabel03212219183D

 27 30  0  0  0  0  0  0  0  0999 V2000
  -22.4470   -1.0010  -34.5990 N   0  0  0  0  0  0  0  0  0  0  0  0
  -21.3440   -0.1700  -34.8730 C   0  0  0  0  0  2  0  0  0  0  0  0
  -21.0910    0.1520  -36.3210 C   0  0  0  0  0  2  0  0  0  0  0  0
  -22.3890   -0.0510  -37.0170 N   0  0  0  0  0  0  0  0  0  0  0  0
  -23.5090    0.3830  -36.2730 C   0  0  0  0  0  2  0  0  0  0  0  0
  -23.7150   -0.6030  -35.1430 C   0  0  0  0  0  2  0  0  0  0  0  0
  -22.3290   -0.6070  -38.3130 C   0  0  0  0  0  0  0  0  0  0  0  0
  -21.5850    0.0200  -39.2730 N   0  0  0  0  0  0  0  0  0  0  0  0
  -21.4750   -0.3780  -40.5340 C   0  0  0  0  0  0  0  0  0  0  0  0
  -22.1380   -1.4820  -40.9180 N   0  0  0  0  0  0  0  0  0  0  0  0
  -22.8900   -2.1460  -40.0110 C   0  0  0  0  0  0  0  0  0  0  0  0
  -23.6370   -3.2620  -40.1000 N   0  0  0  0  0  0  0  0  0  0  0  0
  -23.0090   -1.7320  -38.6830 C   0  0  0  0  0  0  0  0  0  0  0  0
  -24.1810   -3.5220  -38.9110 C   0  0  0  0  0  3  0  0  0  0  0  0
  -23.8030   -2.5880  -38.0200 N   0  0  0  0  0  0  0  0  0  0  0  0
  -24.0940   -2.5840  -37.0190 H   0  0  0  0  0  0  0  0  0  0  0  0
  -20.6700    0.3330  -41.4980 N   0  0  0  0  0  0  0  0  0  0  0  0
  -20.0880   -0.1570  -42.1920 H   0  0  0  0  0  0  0  0  0  0  0  0
  -20.6700    1.3720  -41.5020 H   0  0  0  0  0  0  0  0  0  0  0  0
  -22.2210   -2.3920  -34.4980 C   0  0  0  0  0  2  0  0  0  0  0  0
  -21.8450   -2.8950  -33.1790 C   0  0  0  0  0  0  0  0  0  0  0  0
  -21.0860   -2.1340  -32.3270 C   0  0  0  0  0  3  0  0  0  0  0  0
  -20.6940   -2.5530  -31.0610 C   0  0  0  0  0  3  0  0  0  0  0  0
  -21.1030   -3.8070  -30.6600 C   0  0  0  0  0  0  0  0  0  0  0  0
  -20.6470   -4.4060  -29.0780 Cl  0  0  0  0  0  0  0  0  0  0  0  0
  -21.8640   -4.5740  -31.5130 C   0  0  0  0  0  3  0  0  0  0  0  0
  -22.2410   -4.1410  -32.7610 C   0  0  0  0  0  3  0  0  0  0  0  0
  1 20  1  0  0  0  0
  2  1  1  0  0  0  0
  3  2  1  0  0  0  0
  4  3  1  0  0  0  0
  4  5  1  0  0  0  0
  5  6  1  0  0  0  0
  6  1  1  0  0  0  0
  7  4  1  0  0  0  0
  8  7  1  0  0  0  0
  9  8  2  0  0  0  0
 10  9  1  0  0  0  0
 10 11  2  0  0  0  0
 11 13  1  0  0  0  0
 12 11  1  0  0  0  0
 12 14  2  0  0  0  0
 13  7  2  0  0  0  0
 13 15  1  0  0  0  0
 14 15  1  0  0  0  0
 15 16  1  0  0  0  0
 17  9  1  0  0  0  0
 18 17  1  0  0  0  0
 19 17  1  0  0  0  0
 20 21  1  0  0  0  0
 21 27  2  0  0  0  0
 21 22  1  0  0  0  0
 22 23  2  0  0  0  0
 23 24  1  0  0  0  0
 24 25  1  0  0  0  0
 26 24  2  0  0  0  0
 27 26  1  0  0  0  0
M  END
>  <Pose>
1

>  <Score>
-8.671

$$$$
