/Users/jonathanwahrer/Desktop/Msc/3_Semester/Drug_Design_Praktikum/waehrer_HTS_screening/HTS_experiment/out/docking_results/vina_output/5l4q/2163_docked.pdbqt
 OpenBabel03212219193D

 31 34  0  0  0  0  0  0  0  0999 V2000
  -18.8050    0.3920  -33.1410 C   0  0  0  0  0  0  0  0  0  0  0  0
  -18.4740    1.7010  -33.0990 N   0  0  0  0  0  4  0  0  0  0  0  0
  -19.2380    2.6370  -33.6730 C   0  0  0  0  0  0  0  0  0  0  0  0
  -20.3590    2.2510  -34.3020 N   0  0  0  0  0  0  0  0  0  0  0  0
  -20.7530    0.9520  -34.3830 C   0  0  0  0  0  0  0  0  0  0  0  0
  -19.9270    0.0550  -33.7770 N   0  0  0  0  0  2  0  0  0  0  0  0
  -18.0160   -0.6290  -32.5420 N   0  0  0  0  0  0  0  0  0  0  0  0
  -17.3370   -1.1980  -33.1160 H   0  0  0  0  0  0  0  0  0  0  0  0
  -18.0890   -0.9380  -31.1830 N   0  0  0  0  0  0  0  0  0  0  0  0
  -19.1820   -1.1680  -30.5590 C   0  0  0  0  0  3  0  0  0  0  0  0
  -19.2380   -1.4900  -29.1370 C   0  0  0  0  0  0  0  0  0  0  0  0
  -18.7380   -0.6340  -28.1850 C   0  0  0  0  0  3  0  0  0  0  0  0
  -18.7970   -0.9490  -26.8460 C   0  0  0  0  0  0  0  0  0  0  0  0
  -18.1020    0.2380  -25.5260 Br  0  0  0  0  0  0  0  0  0  0  0  0
  -19.3610   -2.1390  -26.4030 C   0  0  0  0  0  3  0  0  0  0  0  0
  -19.8670   -3.0050  -27.3580 C   0  0  0  0  0  3  0  0  0  0  0  0
  -19.8000   -2.6740  -28.7140 C   0  0  0  0  0  0  0  0  0  0  0  0
  -20.2990   -3.5210  -29.6970 O   0  0  0  0  0  0  0  0  0  0  0  0
  -20.3480   -4.9230  -29.5730 C   0  0  0  0  0  1  0  0  0  0  0  0
  -18.8890    4.0140  -33.6300 N   0  0  0  0  0  0  0  0  0  0  0  0
  -17.5170    4.4630  -33.5390 C   0  0  0  0  0  2  0  0  0  0  0  0
  -17.3800    5.6200  -32.5610 C   0  0  0  0  0  2  0  0  0  0  0  0
  -18.3960    6.5600  -32.7670 O   0  0  0  0  0  0  0  0  0  0  0  0
  -19.6410    6.0160  -32.5630 C   0  0  0  0  0  2  0  0  0  0  0  0
  -19.9180    5.0290  -33.6760 C   0  0  0  0  0  2  0  0  0  0  0  0
  -21.9290    0.5530  -35.0440 N   0  0  0  0  0  0  0  0  0  0  0  0
  -23.2140    1.0420  -34.6410 C   0  0  0  0  0  2  0  0  0  0  0  0
  -24.1040   -0.1780  -34.4120 C   0  0  0  0  0  2  0  0  0  0  0  0
  -24.0960   -0.9110  -35.5850 O   0  0  0  0  0  0  0  0  0  0  0  0
  -22.8710   -1.4720  -35.8610 C   0  0  0  0  0  2  0  0  0  0  0  0
  -21.8570   -0.3630  -36.1440 C   0  0  0  0  0  2  0  0  0  0  0  0
  1  2  2  0  0  0  0
  1  7  1  0  0  0  0
  3 20  1  0  0  0  0
  3  2  2  0  0  0  0
  4  3  1  0  0  0  0
  5  4  2  0  0  0  0
  5  6  1  0  0  0  0
  6  1  1  0  0  0  0
  7  9  1  0  0  0  0
  8  7  1  0  0  0  0
  9 10  2  0  0  0  0
 10 11  1  0  0  0  0
 11 17  2  0  0  0  0
 11 12  1  0  0  0  0
 12 13  2  0  0  0  0
 13 15  1  0  0  0  0
 13 14  1  0  0  0  0
 16 15  2  0  0  0  0
 17 16  1  0  0  0  0
 18 19  1  0  0  0  0
 18 17  1  0  0  0  0
 20 21  1  0  0  0  0
 21 22  1  0  0  0  0
 23 24  1  0  0  0  0
 23 22  1  0  0  0  0
 25 20  1  0  0  0  0
 25 24  1  0  0  0  0
 26 27  1  0  0  0  0
 26  5  1  0  0  0  0
 27 28  1  0  0  0  0
 29 28  1  0  0  0  0
 30 29  1  0  0  0  0
 31 30  1  0  0  0  0
 31 26  1  0  0  0  0
M  END
>  <Pose>
1

>  <Score>
-8.590

$$$$
