/Users/jonathanwahrer/Desktop/Msc/3_Semester/Drug_Design_Praktikum/waehrer_HTS_screening/HTS_experiment/out/docking_results/vina_output/5l4q/2170_docked.pdbqt
 OpenBabel03212219193D

 32 36  0  0  0  0  0  0  0  0999 V2000
  -19.9980   -0.1250  -33.8400 N   0  0  0  0  0  0  0  0  0  0  0  0
  -19.9440   -0.5640  -32.6010 N   0  0  0  0  0  0  0  0  0  0  0  0
  -19.4660    0.3670  -31.7630 C   0  0  0  0  0  0  0  0  0  0  0  0
  -19.4170   -0.1000  -30.5060 N   0  0  0  0  0  0  0  0  0  0  0  0
  -19.8690   -1.3730  -30.4940 C   0  0  0  0  0  0  0  0  0  0  0  0
  -20.1990   -1.6520  -31.8250 C   0  0  0  0  0  0  0  0  0  0  0  0
  -20.6830   -2.9230  -32.0540 C   0  0  0  0  0  0  0  0  0  0  0  0
  -20.9910   -3.2230  -33.2460 O   0  0  0  0  0  0  0  0  0  0  0  0
  -20.8420   -3.8560  -31.0780 N   0  0  0  0  0  0  0  0  0  0  0  0
  -20.5050   -3.5090  -29.8270 C   0  0  0  0  0  0  0  0  0  0  0  0
  -20.6630   -4.3980  -28.9270 O   0  0  0  0  0  0  0  0  0  0  0  0
  -20.0260   -2.2930  -29.5280 N   0  0  0  0  0  0  0  0  0  0  0  0
  -19.6820   -1.9850  -28.1660 C   0  0  0  0  0  1  0  0  0  0  0  0
  -21.3590   -5.1660  -31.4020 C   0  0  0  0  0  1  0  0  0  0  0  0
  -19.2090    1.4470  -32.5440 N   0  0  0  0  0  0  0  0  0  0  0  0
  -19.5280    1.1600  -33.8130 C   0  0  0  0  0  0  0  0  0  0  0  0
  -20.4380   -0.7870  -35.0470 C   0  0  0  0  0  2  0  0  0  0  0  0
  -21.8400   -0.5020  -35.4000 C   0  0  0  0  0  0  0  0  0  0  0  0
  -22.7720   -0.5630  -34.5670 O   0  0  0  0  0  0  0  0  0  0  0  0
  -22.1380   -0.1390  -36.7790 C   0  0  0  0  0  0  0  0  0  0  0  0
  -23.4150   -0.1870  -37.2960 C   0  0  0  0  0  3  0  0  0  0  0  0
  -23.6930    0.1590  -38.6030 C   0  0  0  0  0  3  0  0  0  0  0  0
  -22.6780    0.5740  -39.4550 C   0  0  0  0  0  0  0  0  0  0  0  0
  -23.0050    1.0210  -41.1210 Cl  0  0  0  0  0  0  0  0  0  0  0  0
  -21.3930    0.6280  -38.9570 C   0  0  0  0  0  3  0  0  0  0  0  0
  -21.1250    0.2810  -37.6500 C   0  0  0  0  0  3  0  0  0  0  0  0
  -19.4210    1.9950  -34.9620 N   0  0  0  0  0  0  0  0  0  0  0  0
  -18.2940    1.9020  -35.8740 C   0  0  0  0  0  2  0  0  0  0  0  0
  -17.9310    3.3030  -36.3000 C   0  0  0  0  0  2  0  0  0  0  0  0
  -19.0520    3.9420  -36.8540 O   0  0  0  0  0  0  0  0  0  0  0  0
  -20.0110    4.2080  -35.9020 C   0  0  0  0  0  2  0  0  0  0  0  0
  -20.4580    2.9550  -35.2350 C   0  0  0  0  0  2  0  0  0  0  0  0
  1 16  1  0  0  0  0
  1  2  1  0  0  0  0
  2  6  1  0  0  0  0
  2  3  1  0  0  0  0
  3  4  2  0  0  0  0
  4  5  1  0  0  0  0
  5 12  1  0  0  0  0
  6  5  2  0  0  0  0
  7  6  1  0  0  0  0
  7  9  1  0  0  0  0
  8  7  2  0  0  0  0
  9 10  1  0  0  0  0
 10 12  1  0  0  0  0
 10 11  2  0  0  0  0
 12 13  1  0  0  0  0
 14  9  1  0  0  0  0
 15  3  1  0  0  0  0
 16 15  2  0  0  0  0
 17  1  1  0  0  0  0
 18 17  1  0  0  0  0
 18 19  2  0  0  0  0
 20 18  1  0  0  0  0
 21 20  1  0  0  0  0
 22 21  2  0  0  0  0
 23 25  2  0  0  0  0
 23 22  1  0  0  0  0
 24 23  1  0  0  0  0
 25 26  1  0  0  0  0
 26 20  2  0  0  0  0
 27 16  1  0  0  0  0
 28 27  1  0  0  0  0
 29 28  1  0  0  0  0
 30 29  1  0  0  0  0
 30 31  1  0  0  0  0
 31 32  1  0  0  0  0
 32 27  1  0  0  0  0
M  END
>  <Pose>
1

>  <Score>
-8.444

$$$$
