/Users/jonathanwahrer/Desktop/Msc/3_Semester/Drug_Design_Praktikum/waehrer_HTS_screening/HTS_experiment/out/docking_results/vina_output/5l4q/2184_docked.pdbqt
 OpenBabel03212219193D

 29 32  0  0  0  0  0  0  0  0999 V2000
  -19.4470   -0.0940  -31.3890 N   0  0  0  0  0  4  0  0  0  0  0  0
  -19.7070    0.7280  -32.4690 C   0  0  0  0  0  2  0  0  0  0  0  0
  -19.3830   -0.0120  -33.8130 C   0  0  0  0  0  2  0  0  0  0  0  0
  -20.5610   -1.0060  -33.7950 N   0  0  0  0  0  0  0  0  0  0  0  0
  -20.4230   -1.9450  -32.7930 C   0  0  0  0  0  2  0  0  0  0  0  0
  -19.2430   -1.4750  -31.9130 C   0  0  0  0  0  2  0  0  0  0  0  0
  -18.4620    0.1400  -31.0410 H   0  0  0  0  0  0  0  0  0  0  0  0
  -20.2380   -0.2050  -30.2420 C   0  0  0  0  0  2  0  0  0  0  0  0
  -19.7650    0.2110  -28.9110 C   0  0  0  0  0  0  0  0  0  0  0  0
  -19.5700   -0.8930  -28.0230 C   0  0  0  0  0  0  0  0  0  0  0  0
  -19.9300   -2.1360  -28.4130 C   0  0  0  0  0  3  0  0  0  0  0  0
  -19.0480   -0.6670  -26.7790 C   0  0  0  0  0  0  0  0  0  0  0  0
  -19.7820   -3.2100  -27.5770 C   0  0  0  0  0  0  0  0  0  0  0  0
  -20.2870   -4.8520  -27.9910 Cl  0  0  0  0  0  0  0  0  0  0  0  0
  -19.2450   -3.0380  -26.2960 C   0  0  0  0  0  0  0  0  0  0  0  0
  -18.8910   -1.7750  -25.9130 C   0  0  0  0  0  3  0  0  0  0  0  0
  -19.0530   -4.1270  -25.4160 O   0  0  0  0  0  1  0  0  0  0  0  0
  -18.7140    0.5200  -26.3590 O   0  0  0  0  0  0  0  0  0  0  0  0
  -18.8770    1.5760  -27.1480 C   0  0  0  0  0  0  0  0  0  0  0  0
  -18.5540    2.6940  -26.7280 O   0  0  0  0  0  0  0  0  0  0  0  0
  -19.4120    1.4290  -28.4440 C   0  0  0  0  0  3  0  0  0  0  0  0
  -21.5460   -0.6910  -34.7560 C   0  0  0  0  0  0  0  0  0  0  0  0
  -21.3810    0.0710  -35.8590 C   0  0  0  0  0  3  0  0  0  0  0  0
  -22.3620    0.1220  -36.8900 C   0  0  0  0  0  3  0  0  0  0  0  0
  -23.5230   -0.6010  -36.8120 C   0  0  0  0  0  0  0  0  0  0  0  0
  -23.7060   -1.3830  -35.6760 C   0  0  0  0  0  3  0  0  0  0  0  0
  -22.7460   -1.4230  -34.6750 C   0  0  0  0  0  3  0  0  0  0  0  0
  -24.4510   -0.5160  -37.8420 O   0  0  0  0  0  0  0  0  0  0  0  0
  -25.1000    0.7270  -38.1500 C   0  0  0  0  0  1  0  0  0  0  0  0
  1  7  1  0  0  0  0
  1  8  1  0  0  0  0
  2  1  1  0  0  0  0
  3  4  1  0  0  0  0
  3  2  1  0  0  0  0
  4  5  1  0  0  0  0
  5  6  1  0  0  0  0
  6  1  1  0  0  0  0
  8  9  1  0  0  0  0
  9 21  2  0  0  0  0
  9 10  1  0  0  0  0
 10 12  1  0  0  0  0
 11 10  2  0  0  0  0
 11 13  1  0  0  0  0
 12 18  1  0  0  0  0
 12 16  2  0  0  0  0
 13 15  2  0  0  0  0
 14 13  1  0  0  0  0
 15 16  1  0  0  0  0
 15 17  1  0  0  0  0
 19 20  2  0  0  0  0
 19 18  1  0  0  0  0
 21 19  1  0  0  0  0
 22 27  1  0  0  0  0
 22  4  1  0  0  0  0
 23 22  2  0  0  0  0
 24 25  2  0  0  0  0
 24 23  1  0  0  0  0
 25 26  1  0  0  0  0
 26 27  2  0  0  0  0
 28 25  1  0  0  0  0
 29 28  1  0  0  0  0
M  END
>  <Pose>
1

>  <Score>
-9.317

$$$$
