/Users/jonathanwahrer/Desktop/Msc/3_Semester/Drug_Design_Praktikum/waehrer_HTS_screening/HTS_experiment/out/docking_results/vina_output/5l4q/2214_docked.pdbqt
 OpenBabel03212219213D

 34 38  0  0  1  0  0  0  0  0999 V2000
  -19.6500    3.7830  -40.5750 Cl  0  0  0  0  0  0  0  0  0  0  0  0
  -20.2960    3.7770  -38.9470 C   0  0  0  0  0  0  0  0  0  0  0  0
  -20.7850    2.6430  -38.3590 C   0  0  0  0  0  3  0  0  0  0  0  0
  -21.2920    2.6830  -37.0570 C   0  0  0  0  0  0  0  0  0  0  0  0
  -21.2800    3.8790  -36.4030 C   0  0  0  0  0  0  0  0  0  0  0  0
  -20.7780    5.0450  -37.0040 C   0  0  0  0  0  3  0  0  0  0  0  0
  -20.2830    5.0050  -38.2770 C   0  0  0  0  0  3  0  0  0  0  0  0
  -21.8380    3.6940  -35.1060 N   0  0  0  0  0  0  0  0  0  0  0  0
  -22.2090    2.3470  -34.9410 C   0  0  0  0  0  0  0  0  0  0  0  0
  -22.7390    1.8790  -33.8840 O   0  0  0  0  0  0  0  0  0  0  0  0
  -21.8700    1.6480  -36.1840 C   0  0  1  0  0  0  0  0  0  0  0  0
  -23.0360    1.1320  -36.8660 N   0  0  0  0  0  0  0  0  0  0  0  0
  -22.9890   -0.2950  -36.9060 C   0  0  2  0  0  3  0  0  0  0  0  0
  -21.8670   -0.6800  -36.0260 C   0  0  1  0  0  3  0  0  0  0  0  0
  -20.9250    0.4900  -35.9630 C   0  0  2  0  0  3  0  0  0  0  0  0
  -20.4190    0.4230  -34.5740 C   0  0  0  0  0  0  0  0  0  0  0  0
  -19.3830    0.9470  -34.0940 O   0  0  0  0  0  0  0  0  0  0  0  0
  -21.3140   -0.3720  -33.7670 N   0  0  0  0  0  0  0  0  0  0  0  0
  -22.3850   -0.7690  -34.6150 C   0  0  0  0  0  0  0  0  0  0  0  0
  -23.5220   -1.1180  -34.2220 O   0  0  0  0  0  0  0  0  0  0  0  0
  -21.9640    4.4430  -34.3600 H   0  0  0  0  0  0  0  0  0  0  0  0
  -23.1200    1.4760  -37.8490 H   0  0  0  0  0  0  0  0  0  0  0  0
  -22.8990   -0.8380  -38.3080 C   0  0  0  0  0  2  0  0  0  0  0  0
  -23.2920   -2.2260  -38.4520 C   0  0  0  0  0  0  0  0  0  0  0  0
  -24.2580   -2.6770  -37.8010 O   0  0  0  0  0  0  0  0  0  0  0  0
  -22.5980   -3.0930  -39.3260 N   0  0  0  0  0  0  0  0  0  0  0  0
  -23.1340   -3.6400  -40.0390 H   0  0  0  0  0  0  0  0  0  0  0  0
  -21.5710   -3.2330  -39.3150 H   0  0  0  0  0  0  0  0  0  0  0  0
  -21.1360   -0.6880  -32.3660 C   0  0  0  0  0  2  0  0  0  0  0  0
  -20.2520   -1.8830  -32.1350 C   0  0  1  0  0  3  0  0  0  0  0  0
  -18.9890   -1.4580  -31.7310 O   0  0  0  0  0  0  0  0  0  0  0  0
  -18.9950   -1.4140  -30.3560 C   0  0  0  0  0  2  0  0  0  0  0  0
  -19.9970   -2.4320  -29.8570 C   0  0  0  0  0  2  0  0  0  0  0  0
  -20.7530   -2.8360  -31.1080 C   0  0  0  0  0  2  0  0  0  0  0  0
  1  2  1  0  0  0  0
  2  3  2  0  0  0  0
  2  7  1  0  0  0  0
  3  4  1  0  0  0  0
  4  5  2  0  0  0  0
  5  8  1  0  0  0  0
  6  5  1  0  0  0  0
  7  6  2  0  0  0  0
  8  9  1  0  0  0  0
  8 21  1  0  0  0  0
  9 10  2  0  0  0  0
 11  4  1  6  0  0  0
 11 15  1  0  0  0  0
 11  9  1  0  0  0  0
 12 11  1  0  0  0  0
 13 23  1  6  0  0  0
 13 12  1  0  0  0  0
 13 14  1  0  0  0  0
 14 15  1  0  0  0  0
 14 19  1  1  0  0  0
 15 16  1  1  0  0  0
 16 17  2  0  0  0  0
 16 18  1  0  0  0  0
 18 29  1  0  0  0  0
 19 20  2  0  0  0  0
 19 18  1  0  0  0  0
 22 12  1  0  0  0  0
 24 23  1  0  0  0  0
 24 25  2  0  0  0  0
 26 28  1  0  0  0  0
 26 24  1  0  0  0  0
 27 26  1  0  0  0  0
 30 29  1  1  0  0  0
 30 31  1  0  0  0  0
 30 34  1  0  0  0  0
 31 32  1  0  0  0  0
 32 33  1  0  0  0  0
 34 33  1  0  0  0  0
M  END
>  <Pose>
1

>  <Score>
-8.055

$$$$
