/Users/jonathanwahrer/Desktop/Msc/3_Semester/Drug_Design_Praktikum/waehrer_HTS_screening/HTS_experiment/out/docking_results/vina_output/5l4q/2225_docked.pdbqt
 OpenBabel03212219213D

 29 32  0  0  0  0  0  0  0  0999 V2000
  -20.1610    0.7290  -37.2770 C   0  0  0  0  0  0  0  0  0  0  0  0
  -18.8740    0.5180  -37.2710 O   0  0  0  0  0  0  0  0  0  0  0  0
  -20.6900    1.2630  -36.1140 N   0  0  0  0  0  0  0  0  0  0  0  0
  -19.7500    1.5240  -34.9810 C   0  0  0  0  0  2  0  0  0  0  0  0
  -20.4800    1.0950  -33.7330 C   0  0  0  0  0  2  0  0  0  0  0  0
  -21.5680    0.1710  -33.9980 N   0  0  0  0  0  0  0  0  0  0  0  0
  -22.6470    0.6450  -34.8230 C   0  0  0  0  0  2  0  0  0  0  0  0
  -22.0480    1.6320  -35.8120 C   0  0  0  0  0  2  0  0  0  0  0  0
  -21.5390   -1.1320  -33.4580 C   0  0  0  0  0  0  0  0  0  0  0  0
  -20.8840   -1.4000  -32.2940 N   0  0  0  0  0  0  0  0  0  0  0  0
  -20.8310   -2.6060  -31.7460 C   0  0  0  0  0  0  0  0  0  0  0  0
  -21.4690   -3.6140  -32.3950 N   0  0  0  0  0  0  0  0  0  0  0  0
  -22.1250   -3.4330  -33.5270 C   0  0  0  0  0  3  0  0  0  0  0  0
  -22.1760   -2.1650  -34.0970 C   0  0  0  0  0  3  0  0  0  0  0  0
  -20.1540   -2.9010  -30.5370 N   0  0  0  0  0  0  0  0  0  0  0  0
  -20.3730   -4.1830  -29.8760 C   0  0  0  0  0  2  0  0  0  0  0  0
  -20.7560   -3.8290  -28.4350 C   0  0  0  0  0  2  0  0  0  0  0  0
  -19.7390   -3.1370  -27.8350 O   0  0  0  0  0  0  0  0  0  0  0  0
  -19.4520   -1.9180  -28.4030 C   0  0  0  0  0  2  0  0  0  0  0  0
  -19.2380   -1.9900  -29.8980 C   0  0  0  0  0  2  0  0  0  0  0  0
  -20.8200    0.3550  -38.5440 C   0  0  0  0  0  2  0  0  0  0  0  0
  -21.7640   -0.5100  -38.6440 O   0  0  0  0  0  0  0  0  0  0  0  0
  -22.6890   -1.4100  -38.7340 C   0  0  0  0  0  0  0  0  0  0  0  0
  -22.7160   -2.4350  -39.7050 C   0  0  0  0  0  3  0  0  0  0  0  0
  -23.7190   -3.3550  -39.7470 C   0  0  0  0  0  3  0  0  0  0  0  0
  -24.7650   -3.3450  -38.8530 C   0  0  0  0  0  0  0  0  0  0  0  0
  -26.0440   -4.5310  -38.9220 Cl  0  0  0  0  0  0  0  0  0  0  0  0
  -24.7580   -2.3530  -37.8990 C   0  0  0  0  0  3  0  0  0  0  0  0
  -23.7700   -1.4160  -37.8270 C   0  0  0  0  0  3  0  0  0  0  0  0
  1  2  2  0  0  0  0
  1  3  1  0  0  0  0
  3  8  1  0  0  0  0
  3  4  1  0  0  0  0
  4  5  1  0  0  0  0
  6  5  1  0  0  0  0
  6  9  1  0  0  0  0
  7  6  1  0  0  0  0
  8  7  1  0  0  0  0
  9 10  1  0  0  0  0
 10 11  2  0  0  0  0
 11 15  1  0  0  0  0
 12 11  1  0  0  0  0
 13 12  2  0  0  0  0
 14 13  1  0  0  0  0
 14  9  2  0  0  0  0
 15 20  1  0  0  0  0
 15 16  1  0  0  0  0
 16 17  1  0  0  0  0
 17 18  1  0  0  0  0
 19 18  1  0  0  0  0
 20 19  1  0  0  0  0
 21  1  1  0  0  0  0
 22 21  1  0  0  0  0
 23 22  1  0  0  0  0
 23 29  1  0  0  0  0
 24 23  2  0  0  0  0
 25 24  1  0  0  0  0
 25 26  2  0  0  0  0
 26 28  1  0  0  0  0
 27 26  1  0  0  0  0
 28 29  2  0  0  0  0
M  END
>  <Pose>
1

>  <Score>
-8.610

$$$$
