/Users/jonathanwahrer/Desktop/Msc/3_Semester/Drug_Design_Praktikum/waehrer_HTS_screening/HTS_experiment/out/docking_results/vina_output/5l4q/2242_docked.pdbqt
 OpenBabel03212219213D

 32 35  0  0  0  0  0  0  0  0999 V2000
  -21.0580   -1.8560  -32.1560 N   0  0  0  0  0  0  0  0  0  0  0  0
  -20.7490   -3.1490  -31.7250 C   0  0  0  0  0  0  0  0  0  0  0  0
  -20.6940   -4.1220  -32.4900 O   0  0  0  0  0  0  0  0  0  0  0  0
  -21.0840   -1.0810  -31.4210 H   0  0  0  0  0  0  0  0  0  0  0  0
  -20.4650   -3.4180  -30.2880 C   0  0  0  0  0  0  0  0  0  0  0  0
  -20.0460   -2.4420  -29.5440 N   0  0  0  0  0  0  0  0  0  0  0  0
  -19.7570   -2.6090  -28.1910 N   0  0  0  0  0  0  0  0  0  0  0  0
  -19.9250   -3.8810  -27.6080 C   0  0  0  0  0  0  0  0  0  0  0  0
  -19.7320   -3.9650  -26.3480 O   0  0  0  0  0  0  0  0  0  0  0  0
  -20.3040   -5.0740  -28.3930 C   0  0  0  0  0  2  0  0  0  0  0  0
  -20.6410   -4.7070  -29.7240 N   0  0  0  0  0  0  0  0  0  0  0  0
  -21.0540   -5.4390  -30.3580 H   0  0  0  0  0  0  0  0  0  0  0  0
  -19.2860   -1.4960  -27.3920 C   0  0  0  0  0  0  0  0  0  0  0  0
  -19.3960   -0.1990  -27.8300 C   0  0  0  0  0  3  0  0  0  0  0  0
  -18.9380    0.8590  -27.0380 C   0  0  0  0  0  3  0  0  0  0  0  0
  -18.3660    0.6230  -25.8040 C   0  0  0  0  0  0  0  0  0  0  0  0
  -18.2610   -0.6810  -25.3800 C   0  0  0  0  0  3  0  0  0  0  0  0
  -17.8640    1.7170  -24.9190 C   0  0  0  0  0  1  0  0  0  0  0  0
  -18.7110   -1.7070  -26.1570 C   0  0  0  0  0  3  0  0  0  0  0  0
  -21.3370   -1.4950  -33.4800 C   0  0  0  0  0  0  0  0  0  0  0  0
  -20.4510   -0.6250  -34.1190 C   0  0  0  0  0  0  0  0  0  0  0  0
  -19.0570   -0.0180  -33.2510 Cl  0  0  0  0  0  0  0  0  0  0  0  0
  -20.6370   -0.2240  -35.4120 C   0  0  0  0  0  3  0  0  0  0  0  0
  -21.7020   -0.6550  -36.1520 C   0  0  0  0  0  0  0  0  0  0  0  0
  -22.5940   -1.5110  -35.5620 C   0  0  0  0  0  0  0  0  0  0  0  0
  -21.9160   -0.2590  -37.5120 N   0  0  0  0  0  0  0  0  0  0  0  0
  -22.3970   -1.9190  -34.2310 C   0  0  0  0  0  3  0  0  0  0  0  0
  -23.7060   -1.9970  -36.2440 O   0  0  0  0  0  0  0  0  0  0  0  0
  -23.8050   -1.9520  -37.6750 C   0  0  0  0  0  2  0  0  0  0  0  0
  -23.0520   -0.7750  -38.1990 C   0  0  0  0  0  0  0  0  0  0  0  0
  -23.4420   -0.2430  -39.2640 O   0  0  0  0  0  0  0  0  0  0  0  0
  -21.2570    0.3900  -37.9850 H   0  0  0  0  0  0  0  0  0  0  0  0
  1  2  1  0  0  0  0
  1  4  1  0  0  0  0
  2  5  1  0  0  0  0
  3  2  2  0  0  0  0
  5 11  1  0  0  0  0
  5  6  2  0  0  0  0
  6  7  1  0  0  0  0
  7  8  1  0  0  0  0
  7 13  1  0  0  0  0
  8  9  2  0  0  0  0
 10  8  1  0  0  0  0
 11 10  1  0  0  0  0
 12 11  1  0  0  0  0
 13 19  1  0  0  0  0
 14 13  2  0  0  0  0
 14 15  1  0  0  0  0
 15 16  2  0  0  0  0
 16 17  1  0  0  0  0
 16 18  1  0  0  0  0
 19 17  2  0  0  0  0
 20  1  1  0  0  0  0
 21 20  1  0  0  0  0
 21 22  1  0  0  0  0
 23 21  2  0  0  0  0
 24 25  2  0  0  0  0
 24 23  1  0  0  0  0
 25 27  1  0  0  0  0
 26 24  1  0  0  0  0
 27 20  2  0  0  0  0
 28 25  1  0  0  0  0
 29 28  1  0  0  0  0
 30 29  1  0  0  0  0
 30 26  1  0  0  0  0
 31 30  2  0  0  0  0
 32 26  1  0  0  0  0
M  END
>  <Pose>
1

>  <Score>
-10.620

$$$$
