/Users/jonathanwahrer/Desktop/Msc/3_Semester/Drug_Design_Praktikum/waehrer_HTS_screening/HTS_experiment/out/docking_results/vina_output/5l4q/2270_docked.pdbqt
 OpenBabel03212219223D

 22 24  0  0  1  0  0  0  0  0999 V2000
  -21.0420   -4.1800  -31.2820 C   0  0  0  0  0  0  0  0  0  0  0  0
  -21.0520   -5.3410  -31.7820 O   0  0  0  0  0  0  0  0  0  0  0  0
  -21.4190   -3.0370  -32.0510 N   0  0  0  0  0  0  0  0  0  0  0  0
  -21.3940   -2.1210  -31.6030 H   0  0  0  0  0  0  0  0  0  0  0  0
  -20.6390   -4.0130  -29.9090 C   0  0  0  0  0  0  0  0  0  0  0  0
  -20.4980   -2.7070  -29.4290 C   0  0  0  0  0  3  0  0  0  0  0  0
  -20.1160   -2.4180  -28.1380 C   0  0  0  0  0  0  0  0  0  0  0  0
  -19.8610   -3.4630  -27.2770 C   0  0  0  0  0  0  0  0  0  0  0  0
  -19.3700   -3.1180  -25.6200 Cl  0  0  0  0  0  0  0  0  0  0  0  0
  -19.9940   -4.7670  -27.7330 C   0  0  0  0  0  3  0  0  0  0  0  0
  -20.3840   -5.0420  -29.0490 C   0  0  0  0  0  3  0  0  0  0  0  0
  -19.9840   -1.1110  -27.6900 O   0  0  0  0  0  0  0  0  0  0  0  0
  -18.8340   -0.3420  -27.9870 C   0  0  0  0  0  1  0  0  0  0  0  0
  -21.8140   -3.2450  -33.4120 C   0  0  0  0  0  2  0  0  0  0  0  0
  -21.9300   -2.0500  -34.2720 C   0  0  2  0  0  3  0  0  0  0  0  0
  -21.1230   -0.9180  -33.9390 N   0  0  1  0  0  0  0  0  0  0  0  0
  -20.7090   -0.3420  -35.2420 C   0  0  0  0  0  2  0  0  0  0  0  0
  -21.8330    0.1740  -33.3050 C   0  0  0  0  0  2  0  0  0  0  0  0
  -22.0100   -0.2980  -36.0530 C   0  0  0  0  0  2  0  0  0  0  0  0
  -23.1830   -0.2790  -35.2030 N   0  0  1  0  0  0  0  0  0  0  0  0
  -23.3470   -1.5350  -34.4660 C   0  0  0  0  0  2  0  0  0  0  0  0
  -22.9460    0.7300  -34.1850 C   0  0  0  0  0  2  0  0  0  0  0  0
  1  5  1  0  0  0  0
  2  1  2  0  0  0  0
  3  4  1  0  0  0  0
  3  1  1  0  0  0  0
  5  6  2  0  0  0  0
  5 11  1  0  0  0  0
  6  7  1  0  0  0  0
  7 12  1  0  0  0  0
  7  8  2  0  0  0  0
  8  9  1  0  0  0  0
 10  8  1  0  0  0  0
 11 10  2  0  0  0  0
 13 12  1  0  0  0  0
 14  3  1  0  0  0  0
 15 16  1  0  0  0  0
 15 14  1  1  0  0  0
 16 17  1  6  0  0  0
 16 18  1  0  0  0  0
 19 17  1  0  0  0  0
 20 19  1  6  0  0  0
 20 21  1  0  0  0  0
 20 22  1  0  0  0  0
 21 15  1  0  0  0  0
 22 18  1  0  0  0  0
M  END
>  <Pose>
1

>  <Score>
-7.385

$$$$
