/Users/jonathanwahrer/Desktop/Msc/3_Semester/Drug_Design_Praktikum/waehrer_HTS_screening/HTS_experiment/out/docking_results/vina_output/5l4q/2272_docked.pdbqt
 OpenBabel03212219223D

 29 32  0  0  0  0  0  0  0  0999 V2000
  -20.7050   -1.6160  -31.3520 C   0  0  0  0  0  0  0  0  0  0  0  0
  -20.3850   -0.4350  -30.9430 O   0  0  0  0  0  0  0  0  0  0  0  0
  -20.7430   -1.7850  -32.7370 N   0  0  0  0  0  0  0  0  0  0  0  0
  -21.2860   -2.9740  -33.4200 C   0  0  0  0  0  2  0  0  0  0  0  0
  -22.5710   -2.3270  -34.0250 C   0  0  0  0  0  2  0  0  0  0  0  0
  -22.1440   -1.3650  -35.0320 N   0  0  0  0  0  0  0  0  0  0  0  0
  -20.9160   -0.7880  -34.9700 C   0  0  0  0  0  2  0  0  0  0  0  0
  -20.1970   -0.8200  -33.6520 C   0  0  0  0  0  2  0  0  0  0  0  0
  -20.9500   -2.5730  -30.3010 C   0  0  0  0  0  2  0  0  0  0  0  0
  -19.8720   -3.3380  -29.6790 C   0  0  0  0  0  2  0  0  0  0  0  0
  -19.6810   -3.1820  -28.2480 N   0  0  0  0  0  0  0  0  0  0  0  0
  -19.2370   -2.1600  -27.5200 C   0  0  0  0  0  0  0  0  0  0  0  0
  -19.1540   -2.5210  -26.1960 C   0  0  0  0  0  0  0  0  0  0  0  0
  -18.8840   -0.8520  -27.8960 C   0  0  0  0  0  3  0  0  0  0  0  0
  -18.7260   -1.6280  -25.2050 C   0  0  0  0  0  3  0  0  0  0  0  0
  -19.5530   -3.7650  -26.1550 O   0  0  0  0  0  0  0  0  0  0  0  0
  -18.3770   -0.3540  -25.5570 C   0  0  0  0  0  0  0  0  0  0  0  0
  -17.8540    0.7900  -24.3460 Cl  0  0  0  0  0  0  0  0  0  0  0  0
  -18.4650    0.0030  -26.8900 C   0  0  0  0  0  3  0  0  0  0  0  0
  -19.8760   -4.2030  -27.3470 C   0  0  0  0  0  0  0  0  0  0  0  0
  -20.2940   -5.3600  -27.6380 O   0  0  0  0  0  0  0  0  0  0  0  0
  -23.2760   -0.8870  -35.6720 C   0  0  0  0  0  2  0  0  0  0  0  0
  -23.3600   -1.3700  -37.1200 C   0  0  0  0  0  0  0  0  0  0  0  0
  -24.1810   -2.3510  -37.2870 O   0  0  0  0  0  0  0  0  0  0  0  0
  -22.6320   -0.8100  -38.0790 N   0  0  0  0  0  0  0  0  0  0  0  0
  -23.2890   -1.5090  -39.0410 H   0  0  0  0  0  0  0  0  0  0  0  0
  -21.8560   -0.2130  -39.0990 C   0  0  0  0  0  3  0  0  0  0  0  0
  -22.6620    0.1670  -40.4000 C   0  0  0  0  0  2  0  0  0  0  0  0
  -21.7310   -0.9460  -40.4190 C   0  0  0  0  0  2  0  0  0  0  0  0
  1  2  2  0  0  0  0
  1  9  1  0  0  0  0
  3  1  1  0  0  0  0
  4  3  1  0  0  0  0
  5  4  1  0  0  0  0
  6  7  1  0  0  0  0
  6  5  1  0  0  0  0
  7  8  1  0  0  0  0
  8  3  1  0  0  0  0
  9 10  1  0  0  0  0
 10 11  1  0  0  0  0
 11 12  1  0  0  0  0
 11 20  1  0  0  0  0
 12 13  1  0  0  0  0
 13 16  1  0  0  0  0
 13 15  2  0  0  0  0
 14 12  2  0  0  0  0
 14 19  1  0  0  0  0
 17 15  1  0  0  0  0
 17 18  1  0  0  0  0
 19 17  2  0  0  0  0
 20 16  1  0  0  0  0
 21 20  2  0  0  0  0
 22  6  1  0  0  0  0
 23 22  1  0  0  0  0
 24 23  2  0  0  0  0
 25 23  1  0  0  0  0
 26 25  1  0  0  0  0
 27 25  1  0  0  0  0
 28 27  1  0  0  0  0
 29 28  1  0  0  0  0
 29 27  1  0  0  0  0
M  END
>  <Pose>
1

>  <Score>
-8.796

$$$$
