/Users/jonathanwahrer/Desktop/Msc/3_Semester/Drug_Design_Praktikum/waehrer_HTS_screening/HTS_experiment/out/docking_results/vina_output/5l4q/2275_docked.pdbqt
 OpenBabel03212219223D

 21 23  0  0  1  0  0  0  0  0999 V2000
  -21.1110   -5.2250  -31.4280 Cl  0  0  0  0  0  0  0  0  0  0  0  0
  -21.1500   -3.5670  -31.9880 C   0  0  0  0  0  0  0  0  0  0  0  0
  -20.5350   -2.5750  -31.2540 C   0  0  0  0  0  0  0  0  0  0  0  0
  -20.6020   -1.2940  -31.7570 C   0  0  0  0  0  0  0  0  0  0  0  0
  -20.0700   -0.3070  -31.1630 O   0  0  0  0  0  0  0  0  0  0  0  0
  -21.2450   -1.0600  -32.9110 N   0  0  0  0  0  0  0  0  0  0  0  0
  -21.8460   -1.9760  -33.6440 N   0  0  0  0  0  0  0  0  0  0  0  0
  -22.5320   -1.6780  -34.8900 C   0  0  1  0  0  3  0  0  0  0  0  0
  -23.8400   -0.9480  -34.6680 C   0  0  0  0  0  2  0  0  0  0  0  0
  -23.5920    0.5370  -34.4640 C   0  0  0  0  0  2  0  0  0  0  0  0
  -22.7240    0.7880  -33.2520 C   0  0  0  0  0  2  0  0  0  0  0  0
  -21.3050    0.3160  -33.4280 C   0  0  2  0  0  3  0  0  0  0  0  0
  -21.0260    0.2210  -34.8860 C   0  0  0  0  0  3  0  0  0  0  0  0
  -21.6370   -0.7040  -35.6190 C   0  0  0  0  0  3  0  0  0  0  0  0
  -21.7940   -3.2550  -33.1660 C   0  0  0  0  0  0  0  0  0  0  0  0
  -22.3680   -4.1650  -33.8550 O   0  0  0  0  0  0  0  0  0  0  0  0
  -19.8550   -2.8220  -30.0270 N   0  0  0  0  0  0  0  0  0  0  0  0
  -18.8000   -2.9240  -30.1280 H   0  0  0  0  0  0  0  0  0  0  0  0
  -20.4970   -2.9310  -28.7460 C   0  0  0  0  0  3  0  0  0  0  0  0
  -20.3060   -4.3060  -28.1300 C   0  0  0  0  0  1  0  0  0  0  0  0
  -20.0600   -1.9130  -27.7460 C   0  0  0  0  0  1  0  0  0  0  0  0
  2  1  1  0  0  0  0
  2  3  2  0  0  0  0
  3 17  1  0  0  0  0
  4  3  1  0  0  0  0
  4  5  2  0  0  0  0
  6  4  1  0  0  0  0
  7 15  1  0  0  0  0
  7  6  1  0  0  0  0
  8 14  1  6  0  0  0
  8  9  1  0  0  0  0
  8  7  1  0  0  0  0
  9 10  1  0  0  0  0
 10 11  1  0  0  0  0
 12 13  1  6  0  0  0
 12 11  1  0  0  0  0
 12  6  1  0  0  0  0
 14 13  2  0  0  0  0
 15  2  1  0  0  0  0
 16 15  2  0  0  0  0
 17 19  1  0  0  0  0
 18 17  1  0  0  0  0
 19 20  1  0  0  0  0
 19 21  1  0  0  0  0
M  END
>  <Pose>
1

>  <Score>
-7.574

$$$$
