/Users/jonathanwahrer/Desktop/Msc/3_Semester/Drug_Design_Praktikum/waehrer_HTS_screening/HTS_experiment/out/docking_results/vina_output/5l4q/2276_docked.pdbqt
 OpenBabel03212219223D

 21 24  0  0  1  0  0  0  0  0999 V2000
  -21.1160   -5.2240  -31.4200 Cl  0  0  0  0  0  0  0  0  0  0  0  0
  -21.1160   -3.5410  -31.9110 C   0  0  0  0  0  0  0  0  0  0  0  0
  -20.5040   -2.6250  -31.0810 C   0  0  0  0  0  0  0  0  0  0  0  0
  -20.5460   -1.3000  -31.5320 C   0  0  0  0  0  0  0  0  0  0  0  0
  -20.0080   -0.4300  -30.8210 O   0  0  0  0  0  0  0  0  0  0  0  0
  -21.1420   -0.9770  -32.6860 N   0  0  0  0  0  0  0  0  0  0  0  0
  -21.7280   -1.8630  -33.4780 N   0  0  0  0  0  0  0  0  0  0  0  0
  -22.3240   -1.3440  -34.7010 C   0  0  1  0  0  3  0  0  0  0  0  0
  -23.3240   -0.2840  -34.2770 C   0  0  1  0  0  3  0  0  0  0  0  0
  -22.7040    0.6790  -33.3600 C   0  0  1  0  0  3  0  0  0  0  0  0
  -21.2060    0.4020  -33.1750 C   0  0  2  0  0  3  0  0  0  0  0  0
  -20.6310    0.3270  -34.5620 C   0  0  0  0  0  2  0  0  0  0  0  0
  -21.2010   -0.5680  -35.3510 C   0  0  0  0  0  2  0  0  0  0  0  0
  -23.1740    1.1120  -34.7560 C   0  0  0  0  0  2  0  0  0  0  0  0
  -21.7180   -3.1360  -33.0980 C   0  0  0  0  0  0  0  0  0  0  0  0
  -22.2720   -3.9840  -33.8430 O   0  0  0  0  0  0  0  0  0  0  0  0
  -19.8620   -2.9550  -29.8520 N   0  0  0  0  0  0  0  0  0  0  0  0
  -18.8270   -3.0640  -29.9080 H   0  0  0  0  0  0  0  0  0  0  0  0
  -20.5130   -3.1380  -28.6070 C   0  0  0  0  0  3  0  0  0  0  0  0
  -20.3450   -4.5090  -28.0050 C   0  0  0  0  0  1  0  0  0  0  0  0
  -20.0680   -2.1420  -27.5450 C   0  0  0  0  0  1  0  0  0  0  0  0
  2  1  1  0  0  0  0
  2  3  2  0  0  0  0
  3 17  1  0  0  0  0
  4  3  1  0  0  0  0
  4  5  2  0  0  0  0
  6  4  1  0  0  0  0
  7 15  1  0  0  0  0
  7  6  1  0  0  0  0
  8 13  1  6  0  0  0
  8  9  1  0  0  0  0
  8  7  1  0  0  0  0
  9 14  1  6  0  0  0
  9 10  1  0  0  0  0
 10 14  1  6  0  0  0
 10 11  1  0  0  0  0
 11 12  1  6  0  0  0
 11  6  1  0  0  0  0
 13 12  1  0  0  0  0
 15  2  1  0  0  0  0
 16 15  2  0  0  0  0
 17 19  1  0  0  0  0
 18 17  1  0  0  0  0
 19 20  1  0  0  0  0
 19 21  1  0  0  0  0
M  END
>  <Pose>
1

>  <Score>
-7.449

$$$$
