/Users/jonathanwahrer/Desktop/Msc/3_Semester/Drug_Design_Praktikum/waehrer_HTS_screening/HTS_experiment/out/docking_results/vina_output/5l4q/2282_docked.pdbqt
 OpenBabel03212219233D

 31 34  0  0  1  0  0  0  0  0999 V2000
  -21.2590   -1.3480  -33.4460 N   0  0  0  0  0  0  0  0  0  0  0  0
  -20.3410   -1.1500  -34.5420 C   0  0  0  0  0  2  0  0  0  0  0  0
  -20.8620   -0.0870  -35.4580 C   0  0  0  0  0  2  0  0  0  0  0  0
  -21.9590    0.5610  -34.7840 N   0  0  0  0  0  0  0  0  0  0  0  0
  -23.0530   -0.3400  -34.7210 C   0  0  0  0  0  2  0  0  0  0  0  0
  -22.6710   -1.4370  -33.7230 C   0  0  0  0  0  2  0  0  0  0  0  0
  -20.8280   -1.4630  -32.0990 C   0  0  0  0  0  0  0  0  0  0  0  0
  -20.6070   -2.7000  -31.4990 C   0  0  0  0  0  0  0  0  0  0  0  0
  -20.8930   -4.1230  -32.4780 Cl  0  0  0  0  0  0  0  0  0  0  0  0
  -20.1810   -2.7830  -30.1880 C   0  0  0  0  0  0  0  0  0  0  0  0
  -19.9650   -1.6830  -29.4430 N   0  0  0  0  0  0  0  0  0  0  0  0
  -19.9830   -3.9080  -29.6490 O   0  0  0  0  0  0  0  0  0  0  0  0
  -20.1800   -0.5190  -30.0300 N   0  0  0  0  0  0  0  0  0  0  0  0
  -20.5940   -0.3640  -31.3000 C   0  0  0  0  0  3  0  0  0  0  0  0
  -19.5190   -1.7700  -28.0830 C   0  0  0  0  0  0  0  0  0  0  0  0
  -18.5580   -0.9040  -27.6150 C   0  0  0  0  0  3  0  0  0  0  0  0
  -18.1170   -0.9790  -26.2890 C   0  0  0  0  0  3  0  0  0  0  0  0
  -18.6250   -1.9150  -25.4180 C   0  0  0  0  0  3  0  0  0  0  0  0
  -19.5880   -2.7860  -25.8780 C   0  0  0  0  0  3  0  0  0  0  0  0
  -20.0190   -2.7010  -27.1980 C   0  0  0  0  0  3  0  0  0  0  0  0
  -22.2070    1.9020  -35.1350 C   0  0  0  0  0  2  0  0  0  0  0  0
  -22.1140    2.1900  -36.5700 C   0  0  0  0  0  0  0  0  0  0  0  0
  -21.2170    3.0330  -36.9150 O   0  0  0  0  0  0  0  0  0  0  0  0
  -22.9150    1.6260  -37.5920 N   0  0  0  0  0  0  0  0  0  0  0  0
  -23.6360    0.9330  -37.3080 H   0  0  0  0  0  0  0  0  0  0  0  0
  -22.7840    1.9400  -38.9920 C   0  0  0  0  0  2  0  0  0  0  0  0
  -21.9900    0.8690  -39.6740 C   0  0  1  0  0  3  0  0  0  0  0  0
  -22.1790   -0.3210  -39.0250 O   0  0  0  0  0  0  0  0  0  0  0  0
  -22.6650   -1.2740  -39.8790 C   0  0  0  0  0  2  0  0  0  0  0  0
  -22.1280   -0.8400  -41.2260 C   0  0  0  0  0  2  0  0  0  0  0  0
  -22.4390    0.6620  -41.1130 C   0  0  0  0  0  2  0  0  0  0  0  0
  1  7  1  0  0  0  0
  2  1  1  0  0  0  0
  3  4  1  0  0  0  0
  3  2  1  0  0  0  0
  4  5  1  0  0  0  0
  5  6  1  0  0  0  0
  6  1  1  0  0  0  0
  7  8  2  0  0  0  0
  7 14  1  0  0  0  0
  8 10  1  0  0  0  0
  9  8  1  0  0  0  0
 10 12  2  0  0  0  0
 10 11  1  0  0  0  0
 11 15  1  0  0  0  0
 13 11  1  0  0  0  0
 14 13  2  0  0  0  0
 15 16  2  0  0  0  0
 15 20  1  0  0  0  0
 16 17  1  0  0  0  0
 17 18  2  0  0  0  0
 19 18  1  0  0  0  0
 20 19  2  0  0  0  0
 21  4  1  0  0  0  0
 22 21  1  0  0  0  0
 23 22  2  0  0  0  0
 24 25  1  0  0  0  0
 24 22  1  0  0  0  0
 26 24  1  0  0  0  0
 27 28  1  0  0  0  0
 27 26  1  1  0  0  0
 29 28  1  0  0  0  0
 30 31  1  0  0  0  0
 30 29  1  0  0  0  0
 31 27  1  0  0  0  0
M  END
>  <Pose>
1

>  <Score>
-8.526

$$$$
