/Users/jonathanwahrer/Desktop/Msc/3_Semester/Drug_Design_Praktikum/waehrer_HTS_screening/HTS_experiment/out/docking_results/vina_output/5l4q/2285_docked.pdbqt
 OpenBabel03212219243D

 32 35  0  0  0  0  0  0  0  0999 V2000
  -21.2160    0.1570  -32.9620 N   0  0  0  0  0  0  0  0  0  0  0  0
  -20.1340    0.7090  -33.7210 C   0  0  0  0  0  2  0  0  0  0  0  0
  -20.3860    2.1420  -34.2240 C   0  0  0  0  0  2  0  0  0  0  0  0
  -21.6070    2.1040  -34.9660 N   0  0  0  0  0  0  0  0  0  0  0  0
  -22.6770    1.8480  -34.0420 C   0  0  0  0  0  2  0  0  0  0  0  0
  -22.5160    0.3970  -33.6820 C   0  0  0  0  0  2  0  0  0  0  0  0
  -21.0390   -1.6090  -33.0960 S   0  0  0  0  0  0  0  0  0  0  0  0
  -22.3570   -2.1460  -33.6210 O   0  0  0  0  0  0  0  0  0  0  0  0
  -19.9540   -1.9010  -34.0710 O   0  0  0  0  0  0  0  0  0  0  0  0
  -20.7040   -2.3410  -31.5770 C   0  0  0  0  0  0  0  0  0  0  0  0
  -19.8860   -1.5910  -30.7220 C   0  0  0  0  0  3  0  0  0  0  0  0
  -19.5830   -1.9760  -29.4130 C   0  0  0  0  0  0  0  0  0  0  0  0
  -20.1250   -3.1660  -28.9380 C   0  0  0  0  0  0  0  0  0  0  0  0
  -18.7670   -1.2100  -28.5990 O   0  0  0  0  0  0  0  0  0  0  0  0
  -20.9250   -3.8990  -29.7960 C   0  0  0  0  0  3  0  0  0  0  0  0
  -19.7900   -3.4820  -27.6350 O   0  0  0  0  0  0  0  0  0  0  0  0
  -21.2220   -3.5040  -31.0940 C   0  0  0  0  0  3  0  0  0  0  0  0
  -19.7300   -2.3900  -26.6780 C   0  0  0  0  0  2  0  0  0  0  0  0
  -19.0620   -1.1720  -27.2240 C   0  0  0  0  0  2  0  0  0  0  0  0
  -21.7490    2.9080  -36.0830 C   0  0  0  0  0  2  0  0  0  0  0  0
  -21.9390    2.2470  -37.3760 C   0  0  0  0  0  0  0  0  0  0  0  0
  -20.8140    1.8260  -37.8970 O   0  0  0  0  0  0  0  0  0  0  0  0
  -23.0550    1.9870  -38.1180 N   0  0  0  0  0  0  0  0  0  0  0  0
  -24.0470    2.2990  -37.8510 H   0  0  0  0  0  0  0  0  0  0  0  0
  -23.0760    1.2030  -39.3550 C   0  0  0  0  0  2  0  0  0  0  0  0
  -23.3060   -0.2170  -39.0200 C   0  0  0  0  0  0  0  0  0  0  0  0
  -22.8280   -1.2490  -39.8600 C   0  0  0  0  0  0  0  0  0  0  0  0
  -23.1300   -2.5430  -39.6700 C   0  0  0  0  0  3  0  0  0  0  0  0
  -21.7630   -0.7950  -41.2140 Cl  0  0  0  0  0  0  0  0  0  0  0  0
  -23.9660   -2.9370  -38.5780 C   0  0  0  0  0  3  0  0  0  0  0  0
  -24.4340   -1.9730  -37.7800 C   0  0  0  0  0  3  0  0  0  0  0  0
  -24.1380   -0.6160  -37.9580 C   0  0  0  0  0  3  0  0  0  0  0  0
  2  1  1  0  0  0  0
  3  2  1  0  0  0  0
  4  3  1  0  0  0  0
  4  5  1  0  0  0  0
  5  6  1  0  0  0  0
  6  1  1  0  0  0  0
  7  1  1  0  0  0  0
  7 10  1  0  0  0  0
  8  7  2  0  0  0  0
  9  7  2  0  0  0  0
 10 17  2  0  0  0  0
 10 11  1  0  0  0  0
 11 12  2  0  0  0  0
 12 13  1  0  0  0  0
 12 14  1  0  0  0  0
 13 16  1  0  0  0  0
 14 19  1  0  0  0  0
 15 13  2  0  0  0  0
 16 18  1  0  0  0  0
 17 15  1  0  0  0  0
 19 18  1  0  0  0  0
 20  4  1  0  0  0  0
 21 20  1  0  0  0  0
 22 21  2  0  0  0  0
 23 24  1  0  0  0  0
 23 21  1  0  0  0  0
 25 26  1  0  0  0  0
 25 23  1  0  0  0  0
 26 32  1  0  0  0  0
 27 28  1  0  0  0  0
 27 26  2  0  0  0  0
 28 30  2  0  0  0  0
 29 27  1  0  0  0  0
 30 31  1  0  0  0  0
 32 31  2  0  0  0  0
M  END
>  <Pose>
1

>  <Score>
-8.841

$$$$
