/Users/jonathanwahrer/Desktop/Msc/3_Semester/Drug_Design_Praktikum/waehrer_HTS_screening/HTS_experiment/out/docking_results/vina_output/5l4q/2286_docked.pdbqt
 OpenBabel03212219243D

 31 34  0  0  0  0  0  0  0  0999 V2000
  -20.3080    2.0830  -38.1250 N   0  0  0  0  0  0  0  0  0  0  0  0
  -20.4150    2.9870  -37.0380 C   0  0  0  0  0  2  0  0  0  0  0  0
  -20.9070    2.3610  -35.7600 C   0  0  0  0  0  2  0  0  0  0  0  0
  -20.3550    1.0390  -35.5520 N   0  0  0  0  0  0  0  0  0  0  0  0
  -19.2600    0.6580  -36.4230 C   0  0  0  0  0  2  0  0  0  0  0  0
  -19.6020    0.8770  -37.8760 C   0  0  0  0  0  2  0  0  0  0  0  0
  -20.8850    0.2140  -34.5520 C   0  0  0  0  0  0  0  0  0  0  0  0
  -21.8330    0.6380  -33.8500 O   0  0  0  0  0  0  0  0  0  0  0  0
  -20.3640   -1.1520  -34.2880 C   0  0  0  0  0  2  0  0  0  0  0  0
  -20.2710   -1.4340  -32.8820 N   0  0  0  0  0  0  0  0  0  0  0  0
  -21.0370   -2.4210  -32.2080 C   0  0  0  0  0  0  0  0  0  0  0  0
  -21.9010   -3.1770  -32.7670 O   0  0  0  0  0  0  0  0  0  0  0  0
  -20.7270   -2.4690  -30.8220 N   0  0  0  0  0  0  0  0  0  0  0  0
  -19.8870   -1.3190  -30.5410 C   0  0  0  0  0  0  0  0  0  0  0  0
  -21.1800   -3.4930  -29.8810 C   0  0  0  0  0  1  0  0  0  0  0  0
  -18.6580   -1.6880  -29.7610 C   0  0  0  0  0  2  0  0  0  0  0  0
  -20.7520   -0.3000  -29.8390 C   0  0  0  0  0  2  0  0  0  0  0  0
  -19.4530   -0.8460  -31.8800 C   0  0  0  0  0  0  0  0  0  0  0  0
  -18.8760   -1.7430  -28.2780 C   0  0  0  0  0  2  0  0  0  0  0  0
  -19.5530   -0.5240  -27.7210 C   0  0  0  0  0  2  0  0  0  0  0  0
  -19.9550    0.4570  -28.8000 C   0  0  0  0  0  2  0  0  0  0  0  0
  -18.5160   -0.0510  -32.1290 O   0  0  0  0  0  0  0  0  0  0  0  0
  -21.7390    1.8850  -39.0410 S   0  0  0  0  0  0  0  0  0  0  0  0
  -21.4070    1.9610  -40.5000 O   0  0  0  0  0  0  0  0  0  0  0  0
  -22.7380    2.9610  -38.7340 O   0  0  0  0  0  0  0  0  0  0  0  0
  -22.5340    0.3430  -38.6820 C   0  0  0  0  0  0  0  0  0  0  0  0
  -22.6690   -1.0360  -39.6660 S   0  0  0  0  0  0  0  0  0  0  0  0
  -23.5480   -2.0420  -38.6140 C   0  0  0  0  0  0  0  0  0  0  0  0
  -23.7180   -1.2630  -37.5000 C   0  0  0  0  0  3  0  0  0  0  0  0
  -24.1240   -3.7040  -38.8630 Cl  0  0  0  0  0  0  0  0  0  0  0  0
  -23.1880   -0.0190  -37.5370 C   0  0  0  0  0  3  0  0  0  0  0  0
  1  6  1  0  0  0  0
  1  2  1  0  0  0  0
  2  3  1  0  0  0  0
  3  4  1  0  0  0  0
  4  7  1  0  0  0  0
  5  4  1  0  0  0  0
  6  5  1  0  0  0  0
  7  9  1  0  0  0  0
  7  8  2  0  0  0  0
  9 10  1  0  0  0  0
 10 11  1  0  0  0  0
 10 18  1  0  0  0  0
 11 13  1  0  0  0  0
 12 11  2  0  0  0  0
 13 14  1  0  0  0  0
 13 15  1  0  0  0  0
 14 17  1  0  0  0  0
 14 16  1  0  0  0  0
 16 19  1  0  0  0  0
 17 21  1  0  0  0  0
 18 14  1  0  0  0  0
 19 20  1  0  0  0  0
 21 20  1  0  0  0  0
 22 18  2  0  0  0  0
 23 25  2  0  0  0  0
 23 26  1  0  0  0  0
 23  1  1  0  0  0  0
 24 23  2  0  0  0  0
 26 31  2  0  0  0  0
 27 26  1  0  0  0  0
 27 28  1  0  0  0  0
 28 29  2  0  0  0  0
 30 28  1  0  0  0  0
 31 29  1  0  0  0  0
M  END
>  <Pose>
1

>  <Score>
-8.875

$$$$
