/Users/jonathanwahrer/Desktop/Msc/3_Semester/Drug_Design_Praktikum/waehrer_HTS_screening/HTS_experiment/out/docking_results/vina_output/5l4q/2298_docked.pdbqt
 OpenBabel03212219243D

 34 37  0  0  0  0  0  0  0  0999 V2000
  -20.2770    2.0580  -33.9380 C   0  0  0  0  0  2  0  0  0  0  0  0
  -19.7480    0.7310  -34.0570 N   0  0  0  0  0  0  0  0  0  0  0  0
  -18.5000    0.5410  -33.4090 C   0  0  0  0  0  2  0  0  0  0  0  0
  -18.4780   -0.5010  -32.3240 C   0  0  0  0  0  2  0  0  0  0  0  0
  -19.5910   -0.3900  -31.5170 N   0  0  0  0  0  0  0  0  0  0  0  0
  -20.8320   -0.3120  -32.1570 C   0  0  0  0  0  2  0  0  0  0  0  0
  -20.6940   -0.2680  -33.6760 C   0  0  0  0  0  2  0  0  0  0  0  0
  -19.5200   -0.3420  -29.8570 S   0  0  0  0  0  0  0  0  0  0  0  0
  -18.1780    0.0880  -29.3180 O   0  0  0  0  0  0  0  0  0  0  0  0
  -20.5270    0.5900  -29.2200 O   0  0  0  0  0  0  0  0  0  0  0  0
  -19.8050   -1.9510  -29.1990 C   0  0  0  0  0  0  0  0  0  0  0  0
  -20.1060   -3.0080  -30.0140 C   0  0  0  0  0  3  0  0  0  0  0  0
  -20.3290   -4.2610  -29.5070 C   0  0  0  0  0  3  0  0  0  0  0  0
  -20.2470   -4.4540  -28.1450 C   0  0  0  0  0  0  0  0  0  0  0  0
  -19.9440   -3.3880  -27.3200 C   0  0  0  0  0  3  0  0  0  0  0  0
  -20.5380   -6.0710  -27.5280 Cl  0  0  0  0  0  0  0  0  0  0  0  0
  -19.7220   -2.1380  -27.8380 C   0  0  0  0  0  3  0  0  0  0  0  0
  -21.3740    2.2960  -34.9350 C   0  0  0  0  0  0  0  0  0  0  0  0
  -22.4810    2.6620  -34.4820 O   0  0  0  0  0  0  0  0  0  0  0  0
  -21.1610    2.1130  -36.3250 N   0  0  0  0  0  0  0  0  0  0  0  0
  -20.2020    1.8050  -36.6400 H   0  0  0  0  0  0  0  0  0  0  0  0
  -22.2650    2.3620  -37.2040 C   0  0  0  0  0  2  0  0  0  0  0  0
  -22.4150    1.4480  -38.3590 C   0  0  0  0  0  0  0  0  0  0  0  0
  -21.0650    1.2120  -38.9910 C   0  0  0  0  0  2  0  0  0  0  0  0
  -20.7680    2.2120  -40.1130 C   0  0  0  0  0  2  0  0  0  0  0  0
  -21.6960    1.9710  -41.2870 C   0  0  0  0  0  2  0  0  0  0  0  0
  -23.0130    1.4650  -40.7260 C   0  0  0  0  0  2  0  0  0  0  0  0
  -23.2260    2.2100  -39.4250 C   0  0  0  0  0  2  0  0  0  0  0  0
  -23.0840    0.2220  -38.1550 N   0  0  0  0  0  0  0  0  0  0  0  0
  -22.3570   -0.9840  -38.3370 C   0  0  0  0  0  2  0  0  0  0  0  0
  -23.4120   -2.0950  -38.4870 C   0  0  0  0  0  2  0  0  0  0  0  0
  -24.1480   -2.2060  -37.3310 O   0  0  0  0  0  0  0  0  0  0  0  0
  -23.8140   -1.3000  -36.3570 C   0  0  0  0  0  2  0  0  0  0  0  0
  -23.7820    0.1330  -36.8910 C   0  0  0  0  0  2  0  0  0  0  0  0
  2  1  1  0  0  0  0
  2  7  1  0  0  0  0
  2  3  1  0  0  0  0
  3  4  1  0  0  0  0
  4  5  1  0  0  0  0
  5  8  1  0  0  0  0
  6  5  1  0  0  0  0
  7  6  1  0  0  0  0
  8  9  2  0  0  0  0
  8 10  2  0  0  0  0
  8 11  1  0  0  0  0
 11 17  1  0  0  0  0
 12 13  1  0  0  0  0
 12 11  2  0  0  0  0
 13 14  2  0  0  0  0
 14 16  1  0  0  0  0
 14 15  1  0  0  0  0
 17 15  2  0  0  0  0
 18 19  2  0  0  0  0
 18  1  1  0  0  0  0
 20 18  1  0  0  0  0
 21 20  1  0  0  0  0
 22 20  1  0  0  0  0
 23 29  1  0  0  0  0
 23 22  1  0  0  0  0
 24 23  1  0  0  0  0
 25 24  1  0  0  0  0
 26 27  1  0  0  0  0
 26 25  1  0  0  0  0
 27 28  1  0  0  0  0
 28 23  1  0  0  0  0
 29 34  1  0  0  0  0
 30 29  1  0  0  0  0
 31 30  1  0  0  0  0
 31 32  1  0  0  0  0
 32 33  1  0  0  0  0
 34 33  1  0  0  0  0
M  END
>  <Pose>
1

>  <Score>
-8.491

$$$$
