/Users/jonathanwahrer/Desktop/Msc/3_Semester/Drug_Design_Praktikum/waehrer_HTS_screening/HTS_experiment/out/docking_results/vina_output/5l4q/2301_docked.pdbqt
 OpenBabel03212219253D

 24 27  0  0  1  0  0  0  0  0999 V2000
  -20.0100   -0.7970  -33.0000 C   0  0  2  0  0  0  0  0  0  0  0  0
  -20.0010   -2.2230  -32.5590 C   0  0  0  0  0  2  0  0  0  0  0  0
  -21.1100   -2.4740  -31.5230 C   0  0  0  0  0  2  0  0  0  0  0  0
  -20.6840   -1.6450  -30.3860 N   0  0  0  0  0  0  0  0  0  0  0  0
  -20.7140   -0.2390  -30.6340 C   0  0  0  0  0  2  0  0  0  0  0  0
  -19.9770    0.1700  -31.8770 C   0  0  0  0  0  2  0  0  0  0  0  0
  -21.0890   -0.5910  -33.9800 C   0  0  0  0  0  0  0  0  0  0  0  0
  -21.7270   -1.5720  -34.6830 C   0  0  0  0  0  3  0  0  0  0  0  0
  -22.7160   -1.2350  -35.5650 C   0  0  0  0  0  3  0  0  0  0  0  0
  -23.1280    0.0700  -35.8010 C   0  0  0  0  0  0  0  0  0  0  0  0
  -24.4080    0.4520  -36.9340 Cl  0  0  0  0  0  0  0  0  0  0  0  0
  -22.4810    1.0510  -35.0920 C   0  0  0  0  0  3  0  0  0  0  0  0
  -21.4790    0.7300  -34.1960 C   0  0  0  0  0  3  0  0  0  0  0  0
  -18.8140   -0.6190  -33.7430 O   0  0  0  0  0  0  0  0  0  0  0  0
  -18.9700    0.1670  -34.3530 H   0  0  0  0  0  0  0  0  0  0  0  0
  -20.2930   -2.2850  -29.1850 C   0  0  0  0  0  0  0  0  0  0  0  0
  -19.7310   -1.5610  -28.2020 N   0  0  0  0  0  0  0  0  0  0  0  0
  -19.3350   -2.0370  -27.0370 N   0  0  0  0  0  0  0  0  0  0  0  0
  -18.7730   -1.5150  -25.9440 N   0  0  0  0  0  0  0  0  0  0  0  0
  -19.4880   -3.3340  -26.7770 C   0  0  0  0  0  0  0  0  0  0  0  0
  -18.5780   -2.4440  -25.0360 N   0  0  0  0  0  0  0  0  0  0  0  0
  -19.0130   -3.5710  -25.5290 N   0  0  0  0  0  0  0  0  0  0  0  0
  -20.0600   -4.1440  -27.7430 C   0  0  0  0  0  3  0  0  0  0  0  0
  -20.4670   -3.6290  -28.9560 C   0  0  0  0  0  3  0  0  0  0  0  0
  1 14  1  6  0  0  0
  1  2  1  0  0  0  0
  1  6  1  0  0  0  0
  2  3  1  0  0  0  0
  3  4  1  0  0  0  0
  4 16  1  0  0  0  0
  5  4  1  0  0  0  0
  6  5  1  0  0  0  0
  7  1  1  0  0  0  0
  8  7  2  0  0  0  0
  9  8  1  0  0  0  0
 10  9  2  0  0  0  0
 10 12  1  0  0  0  0
 11 10  1  0  0  0  0
 12 13  2  0  0  0  0
 13  7  1  0  0  0  0
 15 14  1  0  0  0  0
 16 24  1  0  0  0  0
 16 17  2  0  0  0  0
 17 18  1  0  0  0  0
 18 20  1  0  0  0  0
 18 19  1  0  0  0  0
 19 21  2  0  0  0  0
 20 22  2  0  0  0  0
 22 21  1  0  0  0  0
 23 20  1  0  0  0  0
 24 23  2  0  0  0  0
M  END
>  <Pose>
1

>  <Score>
-8.340

$$$$
