/Users/jonathanwahrer/Desktop/Msc/3_Semester/Drug_Design_Praktikum/waehrer_HTS_screening/HTS_experiment/out/docking_results/vina_output/5l4q/2304_docked.pdbqt
 OpenBabel03212219253D

 28 31  0  0  1  0  0  0  0  0999 V2000
  -20.8250   -3.4060  -32.8450 N   0  0  0  0  0  0  0  0  0  0  0  0
  -19.9610   -2.3290  -32.5430 C   0  0  0  0  0  2  0  0  0  0  0  0
  -19.8490   -1.2830  -33.6210 C   0  0  0  0  0  2  0  0  0  0  0  0
  -21.1130   -0.9500  -34.2170 N   0  0  0  0  0  0  0  0  0  0  0  0
  -22.2250   -1.8160  -33.9190 C   0  0  0  0  0  2  0  0  0  0  0  0
  -21.6910   -3.2450  -33.9590 C   0  0  0  0  0  2  0  0  0  0  0  0
  -21.2240    0.1730  -35.0540 C   0  0  0  0  0  0  0  0  0  0  0  0
  -20.1760    0.8510  -35.2530 O   0  0  0  0  0  0  0  0  0  0  0  0
  -22.4870    0.6080  -35.7110 C   0  0  2  0  0  3  0  0  0  0  0  0
  -22.6840   -0.0410  -36.9550 N   0  0  0  0  0  0  0  0  0  0  0  0
  -22.1410    0.6070  -38.1040 C   0  0  2  0  0  0  0  0  0  0  0  0
  -23.3040   -1.2430  -37.4680 C   0  0  0  0  0  0  0  0  0  0  0  0
  -22.2510    2.3540  -37.6670 S   0  0  0  0  0  0  0  0  0  0  0  0
  -23.1930    0.3450  -39.1640 C   0  0  0  0  0  2  0  0  0  0  0  0
  -20.7930    0.1740  -38.5260 C   0  0  0  0  0  1  0  0  0  0  0  0
  -22.5640    2.0960  -35.8760 C   0  0  0  0  0  2  0  0  0  0  0  0
  -23.4070   -1.1550  -38.9220 C   0  0  0  0  0  2  0  0  0  0  0  0
  -23.7080   -2.2380  -36.7950 O   0  0  0  0  0  0  0  0  0  0  0  0
  -21.4850   -4.2190  -31.5100 S   0  0  0  0  0  0  0  0  0  0  0  0
  -22.9800   -4.1460  -31.5220 O   0  0  0  0  0  0  0  0  0  0  0  0
  -21.1220   -5.6800  -31.6150 O   0  0  0  0  0  0  0  0  0  0  0  0
  -20.8410   -3.6530  -29.9710 C   0  0  0  0  0  0  0  0  0  0  0  0
  -20.5010   -4.5490  -28.9830 C   0  0  0  0  0  3  0  0  0  0  0  0
  -19.9970   -4.1400  -27.7710 C   0  0  0  0  0  3  0  0  0  0  0  0
  -19.8070   -2.8000  -27.4870 C   0  0  0  0  0  0  0  0  0  0  0  0
  -20.1580   -1.9230  -28.5000 C   0  0  0  0  0  3  0  0  0  0  0  0
  -19.1680   -2.2440  -25.9540 Cl  0  0  0  0  0  0  0  0  0  0  0  0
  -20.6610   -2.3170  -29.7150 C   0  0  0  0  0  3  0  0  0  0  0  0
  1  2  1  0  0  0  0
  1 19  1  0  0  0  0
  3  2  1  0  0  0  0
  4  5  1  0  0  0  0
  4  3  1  0  0  0  0
  6  5  1  0  0  0  0
  6  1  1  0  0  0  0
  7  4  1  0  0  0  0
  8  7  2  0  0  0  0
  9  7  1  6  0  0  0
 10  9  1  0  0  0  0
 11 15  1  6  0  0  0
 11 13  1  0  0  0  0
 11 10  1  0  0  0  0
 12 10  1  0  0  0  0
 12 18  2  0  0  0  0
 13 16  1  0  0  0  0
 14 17  1  0  0  0  0
 14 11  1  0  0  0  0
 16  9  1  0  0  0  0
 17 12  1  0  0  0  0
 19 22  1  0  0  0  0
 20 19  2  0  0  0  0
 21 19  2  0  0  0  0
 22 28  2  0  0  0  0
 22 23  1  0  0  0  0
 23 24  2  0  0  0  0
 24 25  1  0  0  0  0
 25 27  1  0  0  0  0
 26 25  2  0  0  0  0
 28 26  1  0  0  0  0
M  END
>  <Pose>
1

>  <Score>
-8.998

$$$$
