/Users/jonathanwahrer/Desktop/Msc/3_Semester/Drug_Design_Praktikum/waehrer_HTS_screening/HTS_experiment/out/docking_results/vina_output/5l4q/2334_docked.pdbqt
 OpenBabel03212219253D

 30 33  0  0  1  0  0  0  0  0999 V2000
  -19.9680   -1.0690  -33.2450 S   0  0  0  0  0  0  0  0  0  0  0  0
  -19.3640   -2.2480  -34.0110 O   0  0  0  0  0  0  0  0  0  0  0  0
  -18.8820    0.0120  -33.3140 O   0  0  0  0  0  0  0  0  0  0  0  0
  -21.3350   -0.5770  -34.1170 N   0  0  0  0  0  0  0  0  0  0  0  0
  -22.1510   -1.6050  -34.6580 C   0  0  0  0  0  2  0  0  0  0  0  0
  -23.3640   -1.0810  -35.3900 C   0  0  1  0  0  3  0  0  0  0  0  0
  -24.1650   -0.1920  -34.5020 C   0  0  0  0  0  2  0  0  0  0  0  0
  -23.3000    0.8620  -33.8340 C   0  0  0  0  0  2  0  0  0  0  0  0
  -22.1570    0.1890  -33.1570 C   0  0  0  0  0  2  0  0  0  0  0  0
  -23.0710   -0.5280  -36.7280 C   0  0  0  0  0  0  0  0  0  0  0  0
  -22.4000    0.5700  -36.7280 O   0  0  0  0  0  0  0  0  0  0  0  0
  -23.4310   -1.0560  -37.9600 N   0  0  0  0  0  0  0  0  0  0  0  0
  -23.0470   -0.4340  -39.1880 C   0  0  0  0  0  2  0  0  0  0  0  0
  -24.2260   -2.2540  -38.0720 C   0  0  0  0  0  2  0  0  0  0  0  0
  -22.7300   -1.4090  -40.2870 C   0  0  0  0  0  2  0  0  0  0  0  0
  -23.3100   -2.6330  -40.1710 O   0  0  0  0  0  0  0  0  0  0  0  0
  -23.3390   -3.1900  -38.9100 C   0  0  0  0  0  2  0  0  0  0  0  0
  -20.1870   -1.4920  -31.6000 C   0  0  0  0  0  0  0  0  0  0  0  0
  -20.7250   -2.6940  -31.2080 C   0  0  0  0  0  0  0  0  0  0  0  0
  -20.8160   -3.0050  -29.8600 C   0  0  0  0  0  3  0  0  0  0  0  0
  -21.3950   -3.8610  -32.3280 Cl  0  0  0  0  0  0  0  0  0  0  0  0
  -20.3730   -2.1170  -28.8760 C   0  0  0  0  0  3  0  0  0  0  0  0
  -19.8350   -0.9080  -29.2550 C   0  0  0  0  0  0  0  0  0  0  0  0
  -19.7520   -0.6180  -30.5960 C   0  0  0  0  0  3  0  0  0  0  0  0
  -19.3670    0.0380  -28.2500 C   0  0  0  0  0  0  0  0  0  0  0  0
  -19.2400    1.3660  -28.4100 N   0  0  0  0  0  0  0  0  0  0  0  0
  -18.7940    1.9050  -27.3090 O   0  0  0  0  0  0  0  0  0  0  0  0
  -18.6210    0.9670  -26.4160 C   0  0  0  0  0  0  0  0  0  0  0  0
  -18.9730   -0.2000  -26.9880 N   0  0  0  0  0  0  0  0  0  0  0  0
  -18.1210    1.1420  -25.0080 C   0  0  0  0  0  1  0  0  0  0  0  0
  1 18  1  0  0  0  0
  2  1  2  0  0  0  0
  3  1  2  0  0  0  0
  4  1  1  0  0  0  0
  4  9  1  0  0  0  0
  5  4  1  0  0  0  0
  6 10  1  6  0  0  0
  6  5  1  0  0  0  0
  6  7  1  0  0  0  0
  7  8  1  0  0  0  0
  8  9  1  0  0  0  0
 11 10  2  0  0  0  0
 12 10  1  0  0  0  0
 13 12  1  0  0  0  0
 14 12  1  0  0  0  0
 15 16  1  0  0  0  0
 15 13  1  0  0  0  0
 16 17  1  0  0  0  0
 17 14  1  0  0  0  0
 18 19  2  0  0  0  0
 18 24  1  0  0  0  0
 19 20  1  0  0  0  0
 20 22  2  0  0  0  0
 21 19  1  0  0  0  0
 23 22  1  0  0  0  0
 23 25  1  0  0  0  0
 24 23  2  0  0  0  0
 25 29  1  0  0  0  0
 26 25  2  0  0  0  0
 26 27  1  0  0  0  0
 27 28  1  0  0  0  0
 28 30  1  0  0  0  0
 29 28  2  0  0  0  0
M  END
>  <Pose>
1

>  <Score>
-9.345

$$$$
