/Users/jonathanwahrer/Desktop/Msc/3_Semester/Drug_Design_Praktikum/waehrer_HTS_screening/HTS_experiment/out/docking_results/vina_output/5l4q/2345_docked.pdbqt
 OpenBabel03212219263D

 27 30  0  0  1  0  0  0  0  0999 V2000
  -19.1490   -1.1350  -30.1850 C   0  0  0  0  0  0  0  0  0  0  0  0
  -18.0950   -0.3960  -30.1870 O   0  0  0  0  0  0  0  0  0  0  0  0
  -19.5890   -1.5870  -31.4340 N   0  0  0  0  0  0  0  0  0  0  0  0
  -18.8740   -1.2090  -32.6430 C   0  0  0  0  0  2  0  0  0  0  0  0
  -19.8110   -0.5080  -33.6220 C   0  0  0  0  0  2  0  0  0  0  0  0
  -21.1170   -1.0910  -33.5160 N   0  0  0  0  0  0  0  0  0  0  0  0
  -21.2310   -2.4440  -33.0630 C   0  0  0  0  0  2  0  0  0  0  0  0
  -20.7450   -2.4350  -31.6010 C   0  0  0  0  0  2  0  0  0  0  0  0
  -19.7600   -1.4120  -28.8790 C   0  0  2  0  0  3  0  0  0  0  0  0
  -19.9720   -0.2060  -28.0080 C   0  0  0  0  0  2  0  0  0  0  0  0
  -19.0720   -0.3550  -26.8710 N   0  0  0  0  0  0  0  0  0  0  0  0
  -18.8610   -1.7780  -26.7380 C   0  0  0  0  0  0  0  0  0  0  0  0
  -19.0700   -2.4400  -28.0460 C   0  0  0  0  0  2  0  0  0  0  0  0
  -18.5440   -2.2850  -25.6130 O   0  0  0  0  0  0  0  0  0  0  0  0
  -18.5100    0.6660  -26.0520 C   0  0  0  0  0  0  0  0  0  0  0  0
  -18.2250    0.4660  -24.7190 C   0  0  0  0  0  3  0  0  0  0  0  0
  -17.6830    1.4560  -23.9200 C   0  0  0  0  0  3  0  0  0  0  0  0
  -17.4080    2.6910  -24.4450 C   0  0  0  0  0  0  0  0  0  0  0  0
  -16.7170    3.9650  -23.4410 Cl  0  0  0  0  0  0  0  0  0  0  0  0
  -17.6780    2.9240  -25.7650 C   0  0  0  0  0  3  0  0  0  0  0  0
  -18.2280    1.9130  -26.5670 C   0  0  0  0  0  3  0  0  0  0  0  0
  -22.2710   -0.3470  -33.8420 C   0  0  0  0  0  0  0  0  0  0  0  0
  -23.1180   -0.5750  -34.8830 N   0  0  0  0  0  0  0  0  0  0  0  0
  -24.0980    0.3380  -34.8550 C   0  0  0  0  0  3  0  0  0  0  0  0
  -22.9770   -1.6470  -35.8770 C   0  0  0  0  0  1  0  0  0  0  0  0
  -23.8800    1.1690  -33.7810 C   0  0  0  0  0  3  0  0  0  0  0  0
  -22.7780    0.7250  -33.2030 N   0  0  0  0  0  0  0  0  0  0  0  0
  2  1  2  0  0  0  0
  3  1  1  0  0  0  0
  4  3  1  0  0  0  0
  5  6  1  0  0  0  0
  5  4  1  0  0  0  0
  6  7  1  0  0  0  0
  7  8  1  0  0  0  0
  8  3  1  0  0  0  0
  9  1  1  6  0  0  0
  9 13  1  0  0  0  0
  9 10  1  0  0  0  0
 10 11  1  0  0  0  0
 11 12  1  0  0  0  0
 11 15  1  0  0  0  0
 12 14  2  0  0  0  0
 13 12  1  0  0  0  0
 15 16  1  0  0  0  0
 16 17  2  0  0  0  0
 18 17  1  0  0  0  0
 18 19  1  0  0  0  0
 20 18  2  0  0  0  0
 21 15  2  0  0  0  0
 21 20  1  0  0  0  0
 22  6  1  0  0  0  0
 22 27  2  0  0  0  0
 23 24  1  0  0  0  0
 23 22  1  0  0  0  0
 24 26  2  0  0  0  0
 25 23  1  0  0  0  0
 26 27  1  0  0  0  0
M  END
>  <Pose>
1

>  <Score>
-9.110

$$$$
