/Users/jonathanwahrer/Desktop/Msc/3_Semester/Drug_Design_Praktikum/waehrer_HTS_screening/HTS_experiment/out/docking_results/vina_output/5l4q/2349_docked.pdbqt
 OpenBabel03212219263D

 28 31  0  0  1  0  0  0  0  0999 V2000
  -20.2980   -0.9450  -32.1380 N   0  0  0  0  0  0  0  0  0  0  0  0
  -19.2790    0.0480  -31.9540 C   0  0  0  0  0  0  0  0  0  0  0  0
  -18.4890   -0.0650  -30.9740 O   0  0  0  0  0  0  0  0  0  0  0  0
  -19.2320    1.1000  -32.9020 N   0  0  0  0  0  2  0  0  0  0  0  0
  -20.0150    1.2330  -33.8790 C   0  0  0  0  0  0  0  0  0  0  0  0
  -21.1520    0.3120  -34.2250 C   0  0  1  0  0  0  0  0  0  0  0  0
  -22.3860    1.1460  -34.0290 C   0  0  0  0  0  2  0  0  0  0  0  0
  -23.5450    0.7700  -34.7420 N   0  0  0  0  0  4  0  0  0  0  0  0
  -23.3470    0.3460  -36.0770 C   0  0  0  0  0  0  0  0  0  0  0  0
  -22.1230   -0.0820  -36.4810 C   0  0  0  0  0  0  0  0  0  0  0  0
  -21.9680   -0.4930  -37.8020 C   0  0  0  0  0  3  0  0  0  0  0  0
  -23.0440   -0.4590  -38.6660 C   0  0  0  0  0  0  0  0  0  0  0  0
  -24.2930   -0.0210  -38.2520 C   0  0  0  0  0  3  0  0  0  0  0  0
  -24.4350    0.3870  -36.9270 C   0  0  0  0  0  3  0  0  0  0  0  0
  -22.9060   -0.8840  -40.0950 C   0  0  0  0  0  1  0  0  0  0  0  0
  -20.9280   -0.1500  -35.6130 C   0  0  0  0  0  2  0  0  0  0  0  0
  -24.4270   -0.1630  -34.0570 C   0  0  0  0  0  1  0  0  0  0  0  0
  -21.1650   -0.8050  -33.2490 C   0  0  0  0  0  0  0  0  0  0  0  0
  -22.0120   -1.7620  -33.3700 O   0  0  0  0  0  0  0  0  0  0  0  0
  -19.8680    2.3190  -34.7630 O   0  0  0  0  0  0  0  0  0  0  0  0
  -24.1420    1.6530  -34.8370 H   0  0  0  0  0  0  0  0  0  0  0  0
  -20.3800   -1.9740  -31.1730 C   0  0  0  0  0  0  0  0  0  0  0  0
  -20.2790   -1.7060  -29.8060 C   0  0  0  0  0  3  0  0  0  0  0  0
  -20.3610   -2.6850  -28.8520 C   0  0  0  0  0  3  0  0  0  0  0  0
  -20.5520   -4.0240  -29.1950 C   0  0  0  0  0  0  0  0  0  0  0  0
  -20.6640   -5.2600  -27.9560 Cl  0  0  0  0  0  0  0  0  0  0  0  0
  -20.6510   -4.2910  -30.5470 C   0  0  0  0  0  3  0  0  0  0  0  0
  -20.5680   -3.3060  -31.5020 C   0  0  0  0  0  3  0  0  0  0  0  0
  1  2  1  0  0  0  0
  1 22  1  0  0  0  0
  2  3  2  0  0  0  0
  4  2  1  0  0  0  0
  5  4  1  0  0  0  0
  6 16  1  6  0  0  0
  6  7  1  0  0  0  0
  6  5  1  0  0  0  0
  6 18  1  0  0  0  0
  8 17  1  0  0  0  0
  8  7  1  0  0  0  0
  9  8  1  0  0  0  0
 10  9  1  0  0  0  0
 10 16  1  0  0  0  0
 11 10  2  0  0  0  0
 12 13  2  0  0  0  0
 12 11  1  0  0  0  0
 13 14  1  0  0  0  0
 14  9  2  0  0  0  0
 15 12  1  0  0  0  0
 18  1  1  0  0  0  0
 19 18  2  0  0  0  0
 20  5  2  0  0  0  0
 21  8  1  0  0  0  0
 22 23  1  0  0  0  0
 23 24  2  0  0  0  0
 25 24  1  0  0  0  0
 25 26  1  0  0  0  0
 27 25  2  0  0  0  0
 28 22  2  0  0  0  0
 28 27  1  0  0  0  0
M  END
>  <Pose>
1

>  <Score>
-9.689

$$$$
