/Users/jonathanwahrer/Desktop/Msc/3_Semester/Drug_Design_Praktikum/waehrer_HTS_screening/HTS_experiment/out/docking_results/vina_output/5l4q/2350_docked.pdbqt
 OpenBabel03212219263D

 23 26  0  0  1  0  0  0  0  0999 V2000
  -20.7170   -1.2100  -33.1090 N   0  0  0  0  0  0  0  0  0  0  0  0
  -21.7320   -1.7720  -33.9570 C   0  0  0  0  0  0  0  0  0  0  0  0
  -22.4890   -2.7090  -33.6000 O   0  0  0  0  0  0  0  0  0  0  0  0
  -21.7460   -1.0950  -35.2780 C   0  0  1  0  0  3  0  0  0  0  0  0
  -23.0110   -0.3510  -35.5590 C   0  0  1  0  0  3  0  0  0  0  0  0
  -23.5610    0.1240  -34.2310 C   0  0  1  0  0  3  0  0  0  0  0  0
  -22.4830    1.1140  -33.7930 C   0  0  1  0  0  3  0  0  0  0  0  0
  -21.5160    1.2170  -34.9500 C   0  0  1  0  0  3  0  0  0  0  0  0
  -20.6750   -0.0070  -35.1300 C   0  0  1  0  0  3  0  0  0  0  0  0
  -19.8960   -0.3930  -33.9280 C   0  0  0  0  0  0  0  0  0  0  0  0
  -18.7120   -0.0380  -33.7080 O   0  0  0  0  0  0  0  0  0  0  0  0
  -22.5190    1.0000  -36.1060 C   0  0  0  0  0  2  0  0  0  0  0  0
  -20.5230   -1.3940  -31.7130 C   0  0  0  0  0  0  0  0  0  0  0  0
  -20.4940   -0.2930  -30.8480 C   0  0  0  0  0  3  0  0  0  0  0  0
  -20.2980   -0.4650  -29.4980 C   0  0  0  0  0  3  0  0  0  0  0  0
  -20.1250   -1.7210  -28.9490 C   0  0  0  0  0  0  0  0  0  0  0  0
  -19.8710   -1.9110  -27.2150 Cl  0  0  0  0  0  0  0  0  0  0  0  0
  -20.1490   -2.8280  -29.7850 C   0  0  0  0  0  3  0  0  0  0  0  0
  -20.3470   -2.6270  -31.1310 C   0  0  0  0  0  3  0  0  0  0  0  0
  -24.7100    0.8430  -34.4820 O   0  0  0  0  0  0  0  0  0  0  0  0
  -25.5510    0.3650  -34.2960 H   0  0  0  0  0  0  0  0  0  0  0  0
  -23.0170    2.3900  -33.6240 O   0  0  0  0  0  0  0  0  0  0  0  0
  -22.7060    2.9470  -34.3990 H   0  0  0  0  0  0  0  0  0  0  0  0
  1 13  1  0  0  0  0
  2  3  2  0  0  0  0
  2  1  1  0  0  0  0
  4  9  1  0  0  0  0
  4  2  1  1  0  0  0
  5 12  1  6  0  0  0
  5  4  1  0  0  0  0
  5  6  1  0  0  0  0
  6 20  1  6  0  0  0
  6  7  1  0  0  0  0
  7 22  1  6  0  0  0
  8 12  1  6  0  0  0
  8  7  1  0  0  0  0
  9  8  1  0  0  0  0
  9 10  1  1  0  0  0
 10 11  2  0  0  0  0
 10  1  1  0  0  0  0
 13 19  2  0  0  0  0
 13 14  1  0  0  0  0
 14 15  2  0  0  0  0
 15 16  1  0  0  0  0
 16 17  1  0  0  0  0
 18 16  2  0  0  0  0
 19 18  1  0  0  0  0
 20 21  1  0  0  0  0
 23 22  1  0  0  0  0
M  END
>  <Pose>
1

>  <Score>
-7.392

$$$$
