/Users/jonathanwahrer/Desktop/Msc/3_Semester/Drug_Design_Praktikum/waehrer_HTS_screening/HTS_experiment/out/docking_results/vina_output/5l4q/2358_docked.pdbqt
 OpenBabel03212219273D

 34 37  0  0  1  0  0  0  0  0999 V2000
  -22.1570    0.2650  -35.8610 N   0  0  0  0  0  0  0  0  0  0  0  0
  -23.3680   -0.2320  -35.3100 C   0  0  0  0  0  0  0  0  0  0  0  0
  -24.4530    0.3260  -35.6490 O   0  0  0  0  0  0  0  0  0  0  0  0
  -23.3790   -1.3200  -34.4080 N   0  0  0  0  0  0  0  0  0  0  0  0
  -22.1710   -1.9480  -34.0250 C   0  0  0  0  0  0  0  0  0  0  0  0
  -22.1710   -3.0400  -33.3560 O   0  0  0  0  0  0  0  0  0  0  0  0
  -20.8690   -1.3820  -34.3760 C   0  0  1  0  0  3  0  0  0  0  0  0
  -20.9640   -0.3900  -35.4540 C   0  0  0  0  0  0  0  0  0  0  0  0
  -19.9080   -0.0660  -36.1000 O   0  0  0  0  0  0  0  0  0  0  0  0
  -24.2880   -1.6730  -34.0100 H   0  0  0  0  0  0  0  0  0  0  0  0
  -20.2000   -0.8320  -33.1600 C   0  0  1  0  0  3  0  0  0  0  0  0
  -20.7360   -0.1630  -32.1750 C   0  0  0  0  0  2  0  0  0  0  0  0
  -19.6490    0.1540  -31.2170 C   0  0  2  0  0  3  0  0  0  0  0  0
  -18.4390   -0.0200  -31.9920 N   0  0  0  0  0  0  0  0  0  0  0  0
  -18.8050   -0.9920  -32.9300 N   0  0  0  0  0  0  0  0  0  0  0  0
  -18.1490    0.8730  -32.4550 H   0  0  0  0  0  0  0  0  0  0  0  0
  -18.1300   -1.6830  -33.3500 H   0  0  0  0  0  0  0  0  0  0  0  0
  -19.6670   -0.7940  -30.0690 C   0  0  0  0  0  0  0  0  0  0  0  0
  -20.4010   -1.9580  -30.0880 C   0  0  0  0  0  3  0  0  0  0  0  0
  -20.4260   -2.8450  -29.0280 C   0  0  0  0  0  0  0  0  0  0  0  0
  -19.6960   -2.5790  -27.8920 C   0  0  0  0  0  0  0  0  0  0  0  0
  -18.9560   -1.4230  -27.8530 C   0  0  0  0  0  3  0  0  0  0  0  0
  -18.9380   -0.5460  -28.9150 C   0  0  0  0  0  3  0  0  0  0  0  0
  -21.1830   -3.9980  -29.1060 O   0  0  0  0  0  0  0  0  0  0  0  0
  -21.5340   -4.4470  -28.2840 H   0  0  0  0  0  0  0  0  0  0  0  0
  -19.7060   -3.4500  -26.8210 O   0  0  0  0  0  0  0  0  0  0  0  0
  -19.3470   -2.9840  -25.5400 C   0  0  0  0  0  1  0  0  0  0  0  0
  -22.1150    1.3550  -36.7730 C   0  0  0  0  0  0  0  0  0  0  0  0
  -22.3060    1.1820  -38.1390 C   0  0  0  0  0  3  0  0  0  0  0  0
  -22.2680    2.2230  -39.0170 C   0  0  0  0  0  3  0  0  0  0  0  0
  -22.0310    3.5070  -38.5490 C   0  0  0  0  0  0  0  0  0  0  0  0
  -21.9740    4.8730  -39.6470 Cl  0  0  0  0  0  0  0  0  0  0  0  0
  -21.8360    3.7150  -37.1930 C   0  0  0  0  0  3  0  0  0  0  0  0
  -21.8800    2.6310  -36.3130 C   0  0  0  0  0  3  0  0  0  0  0  0
  1  8  1  0  0  0  0
  1  2  1  0  0  0  0
  2  4  1  0  0  0  0
  3  2  2  0  0  0  0
  4  5  1  0  0  0  0
  4 10  1  0  0  0  0
  5  6  2  0  0  0  0
  7  8  1  6  0  0  0
  7  5  1  0  0  0  0
  7 11  1  0  0  0  0
  9  8  2  0  0  0  0
 11 15  1  0  0  0  0
 11 12  1  1  0  0  0
 12 13  1  0  0  0  0
 13 18  1  1  0  0  0
 14 13  1  0  0  0  0
 15 14  1  0  0  0  0
 16 14  1  0  0  0  0
 17 15  1  0  0  0  0
 18 23  1  0  0  0  0
 19 18  2  0  0  0  0
 19 20  1  0  0  0  0
 20 21  2  0  0  0  0
 21 22  1  0  0  0  0
 21 26  1  0  0  0  0
 23 22  2  0  0  0  0
 24 20  1  0  0  0  0
 24 25  1  0  0  0  0
 26 27  1  0  0  0  0
 28 34  1  0  0  0  0
 28  1  1  0  0  0  0
 29 28  2  0  0  0  0
 30 31  2  0  0  0  0
 30 29  1  0  0  0  0
 31 33  1  0  0  0  0
 32 31  1  0  0  0  0
 33 34  2  0  0  0  0
M  END
>  <Pose>
1

>  <Score>
-8.638

$$$$
