/Users/jonathanwahrer/Desktop/Msc/3_Semester/Drug_Design_Praktikum/waehrer_HTS_screening/HTS_experiment/out/docking_results/vina_output/5l4q/2359_docked.pdbqt
 OpenBabel03212219273D

 32 35  0  0  1  0  0  0  0  0999 V2000
  -21.2040   -2.2620  -32.5390 N   0  0  0  0  0  0  0  0  0  0  0  0
  -21.6990   -3.5630  -32.8920 C   0  0  0  0  0  0  0  0  0  0  0  0
  -22.2170   -3.7880  -34.0290 O   0  0  0  0  0  0  0  0  0  0  0  0
  -21.5810   -4.5800  -31.9080 N   0  0  0  0  0  0  0  0  0  0  0  0
  -20.9880   -4.2950  -30.6200 C   0  0  0  0  0  0  0  0  0  0  0  0
  -20.5090   -5.2550  -30.0040 O   0  0  0  0  0  0  0  0  0  0  0  0
  -20.9830   -2.9330  -30.1250 C   0  0  2  0  0  3  0  0  0  0  0  0
  -20.6280   -2.0320  -31.2620 C   0  0  0  0  0  0  0  0  0  0  0  0
  -19.8360   -1.0600  -31.1640 O   0  0  0  0  0  0  0  0  0  0  0  0
  -21.9320   -5.5250  -32.1430 H   0  0  0  0  0  0  0  0  0  0  0  0
  -20.2300   -2.6510  -28.9250 C   0  0  2  0  0  3  0  0  0  0  0  0
  -19.1680   -1.8950  -28.7680 C   0  0  0  0  0  2  0  0  0  0  0  0
  -18.7160   -1.8850  -27.3550 C   0  0  2  0  0  3  0  0  0  0  0  0
  -19.8150   -2.5200  -26.6660 N   0  0  0  0  0  0  0  0  0  0  0  0
  -20.5500   -3.2040  -27.6310 N   0  0  0  0  0  0  0  0  0  0  0  0
  -20.3870   -1.8500  -26.1090 H   0  0  0  0  0  0  0  0  0  0  0  0
  -21.2050   -3.9800  -27.3950 H   0  0  0  0  0  0  0  0  0  0  0  0
  -18.5630   -0.5330  -26.8070 C   0  0  0  0  0  0  0  0  0  0  0  0
  -18.7690    0.5440  -27.6550 C   0  0  0  0  0  3  0  0  0  0  0  0
  -18.6350    1.8250  -27.1730 C   0  0  0  0  0  0  0  0  0  0  0  0
  -18.3000    2.0710  -25.8620 C   0  0  0  0  0  3  0  0  0  0  0  0
  -18.0920    1.0140  -25.0070 C   0  0  0  0  0  3  0  0  0  0  0  0
  -18.2280   -0.2830  -25.5010 C   0  0  0  0  0  3  0  0  0  0  0  0
  -18.8410    2.9220  -28.0200 O   0  0  0  0  0  0  0  0  0  0  0  0
  -19.7800    3.2360  -28.1930 H   0  0  0  0  0  0  0  0  0  0  0  0
  -21.3220   -1.2220  -33.5360 C   0  0  0  0  0  0  0  0  0  0  0  0
  -22.4200   -0.3860  -33.5840 C   0  0  0  0  0  3  0  0  0  0  0  0
  -22.5640    0.6150  -34.5260 C   0  0  0  0  0  3  0  0  0  0  0  0
  -21.5680    0.8010  -35.4740 C   0  0  0  0  0  0  0  0  0  0  0  0
  -21.7770    2.0680  -36.6480 Cl  0  0  0  0  0  0  0  0  0  0  0  0
  -20.4510   -0.0300  -35.4470 C   0  0  0  0  0  3  0  0  0  0  0  0
  -20.3420   -1.0210  -34.4880 C   0  0  0  0  0  3  0  0  0  0  0  0
  1  8  1  0  0  0  0
  2  1  1  0  0  0  0
  2  4  1  0  0  0  0
  3  2  2  0  0  0  0
  4  5  1  0  0  0  0
  5  7  1  0  0  0  0
  5  6  2  0  0  0  0
  7  8  1  6  0  0  0
  7 11  1  0  0  0  0
  8  9  2  0  0  0  0
 10  4  1  0  0  0  0
 11 12  1  6  0  0  0
 11 15  1  0  0  0  0
 12 13  1  0  0  0  0
 13 18  1  1  0  0  0
 13 14  1  0  0  0  0
 14 16  1  0  0  0  0
 15 17  1  0  0  0  0
 15 14  1  0  0  0  0
 18 23  1  0  0  0  0
 19 20  1  0  0  0  0
 19 18  2  0  0  0  0
 20 21  2  0  0  0  0
 21 22  1  0  0  0  0
 23 22  2  0  0  0  0
 24 20  1  0  0  0  0
 25 24  1  0  0  0  0
 26  1  1  0  0  0  0
 27 26  1  0  0  0  0
 28 27  2  0  0  0  0
 29 31  2  0  0  0  0
 29 28  1  0  0  0  0
 30 29  1  0  0  0  0
 31 32  1  0  0  0  0
 32 26  2  0  0  0  0
M  END
>  <Pose>
1

>  <Score>
-10.111

$$$$
