/Users/jonathanwahrer/Desktop/Msc/3_Semester/Drug_Design_Praktikum/waehrer_HTS_screening/HTS_experiment/out/docking_results/vina_output/5l4q/2365_docked.pdbqt
 OpenBabel03212219283D

 32 36  0  0  1  0  0  0  0  0999 V2000
  -19.9780   -0.7370  -35.3390 N   0  0  0  0  0  0  0  0  0  0  0  0
  -20.6150    0.4440  -35.7480 C   0  0  0  0  0  0  0  0  0  0  0  0
  -20.6950    1.4010  -34.9190 O   0  0  0  0  0  0  0  0  0  0  0  0
  -19.9020   -1.5370  -36.0130 H   0  0  0  0  0  0  0  0  0  0  0  0
  -21.2060    0.6540  -37.0900 C   0  0  1  0  0  0  0  0  0  0  0  0
  -21.8670   -0.6150  -37.5880 C   0  0  0  0  0  2  0  0  0  0  0  0
  -22.4580   -0.4110  -38.9540 C   0  0  1  0  0  0  0  0  0  0  0  0
  -23.5490    0.6520  -38.8170 C   0  0  0  0  0  2  0  0  0  0  0  0
  -21.4610    0.0820  -39.9560 C   0  0  0  0  0  2  0  0  0  0  0  0
  -22.9470    1.9250  -38.3120 C   0  0  1  0  0  3  0  0  0  0  0  0
  -22.2880    1.7050  -36.9710 C   0  0  0  0  0  2  0  0  0  0  0  0
  -21.9160    2.4110  -39.3050 C   0  0  0  0  0  2  0  0  0  0  0  0
  -20.8470    1.3500  -39.4190 C   0  0  1  0  0  3  0  0  0  0  0  0
  -20.1760    1.1350  -38.0890 C   0  0  0  0  0  2  0  0  0  0  0  0
  -23.0680   -1.6650  -39.3510 N   0  0  0  0  0  0  0  0  0  0  0  0
  -22.9930   -2.3220  -40.4950 N   0  0  0  0  0  0  0  0  0  0  0  0
  -23.6840   -3.4220  -40.4710 N   0  0  0  0  0  0  0  0  0  0  0  0
  -24.2490   -3.5210  -39.2810 C   0  0  0  0  0  3  0  0  0  0  0  0
  -23.8630   -2.4210  -38.5760 N   0  0  0  0  0  0  0  0  0  0  0  0
  -19.4480   -0.8670  -34.0750 N   0  0  0  0  0  0  0  0  0  0  0  0
  -20.0750   -1.5430  -33.0020 C   0  0  0  0  0  0  0  0  0  0  0  0
  -21.1980   -2.0900  -33.1470 O   0  0  0  0  0  0  0  0  0  0  0  0
  -18.5030   -0.4330  -33.8750 H   0  0  0  0  0  0  0  0  0  0  0  0
  -19.4490   -1.6500  -31.6530 C   0  0  1  0  0  3  0  0  0  0  0  0
  -18.2320   -0.7980  -31.5210 C   0  0  0  0  0  1  0  0  0  0  0  0
  -20.4810   -1.3200  -30.5990 C   0  0  0  0  0  2  0  0  0  0  0  0
  -20.3100   -2.0940  -29.3930 N   0  0  0  0  0  0  0  0  0  0  0  0
  -19.7970   -1.6870  -28.2040 C   0  0  0  0  0  3  0  0  0  0  0  0
  -19.8120   -2.7390  -27.3090 C   0  0  0  0  0  0  0  0  0  0  0  0
  -19.2290   -2.7870  -25.4960 Br  0  0  0  0  0  0  0  0  0  0  0  0
  -20.3640   -3.8060  -28.0220 C   0  0  0  0  0  3  0  0  0  0  0  0
  -20.6380   -3.3500  -29.2580 N   0  0  0  0  0  0  0  0  0  0  0  0
  1 20  1  0  0  0  0
  2  1  1  0  0  0  0
  2  3  2  0  0  0  0
  4  1  1  0  0  0  0
  5 11  1  0  0  0  0
  5  2  1  1  0  0  0
  6  5  1  0  0  0  0
  7  9  1  6  0  0  0
  7  8  1  0  0  0  0
  7  6  1  0  0  0  0
  8 10  1  0  0  0  0
 10 12  1  6  0  0  0
 10 11  1  0  0  0  0
 13  9  1  1  0  0  0
 13 12  1  0  0  0  0
 13 14  1  0  0  0  0
 14  5  1  0  0  0  0
 15  7  1  0  0  0  0
 15 19  1  0  0  0  0
 16 17  2  0  0  0  0
 16 15  1  0  0  0  0
 17 18  1  0  0  0  0
 18 19  2  0  0  0  0
 20 23  1  0  0  0  0
 20 21  1  0  0  0  0
 21 24  1  0  0  0  0
 22 21  2  0  0  0  0
 24 25  1  6  0  0  0
 24 26  1  0  0  0  0
 26 27  1  0  0  0  0
 27 32  1  0  0  0  0
 27 28  1  0  0  0  0
 28 29  2  0  0  0  0
 29 30  1  0  0  0  0
 31 29  1  0  0  0  0
 32 31  2  0  0  0  0
M  END
>  <Pose>
1

>  <Score>
-8.826

$$$$
