/Users/jonathanwahrer/Desktop/Msc/3_Semester/Drug_Design_Praktikum/waehrer_HTS_screening/HTS_experiment/out/docking_results/vina_output/5l4q/2373_docked.pdbqt
 OpenBabel03212219283D

 28 31  0  0  1  0  0  0  0  0999 V2000
  -19.2260   -1.4070  -31.1030 N   0  0  0  0  0  0  0  0  0  0  0  0
  -20.1140   -2.2370  -30.5850 C   0  0  2  0  0  3  0  0  0  0  0  0
  -20.1170   -2.1600  -29.2270 N   0  0  0  0  0  0  0  0  0  0  0  0
  -19.2150   -1.2710  -28.8740 C   0  0  0  0  0  0  0  0  0  0  0  0
  -18.6500   -0.7900  -30.0740 C   0  0  0  0  0  3  0  0  0  0  0  0
  -21.0100   -2.9080  -28.3870 C   0  0  0  0  0  2  0  0  0  0  0  0
  -20.5730   -4.3700  -28.3140 C   0  0  0  0  0  2  0  0  0  0  0  0
  -20.0320   -4.6840  -29.7130 C   0  0  0  0  0  2  0  0  0  0  0  0
  -21.1500   -4.4820  -30.6980 C   0  0  0  0  0  2  0  0  0  0  0  0
  -20.9600   -3.1410  -31.4240 C   0  0  0  0  0  2  0  0  0  0  0  0
  -18.8540   -1.1340  -32.4950 C   0  0  0  0  0  2  0  0  0  0  0  0
  -19.5610    0.0900  -32.9290 C   0  0  0  0  0  0  0  0  0  0  0  0
  -19.1070    1.2050  -32.5070 O   0  0  0  0  0  0  0  0  0  0  0  0
  -20.7220    0.0890  -33.7920 C   0  0  0  0  0  0  0  0  0  0  0  0
  -21.4010    1.2950  -34.0070 C   0  0  0  0  0  3  0  0  0  0  0  0
  -22.5110    1.3570  -34.8120 C   0  0  0  0  0  3  0  0  0  0  0  0
  -23.0070    0.2420  -35.4410 C   0  0  0  0  0  0  0  0  0  0  0  0
  -24.4130    0.2520  -36.4740 Cl  0  0  0  0  0  0  0  0  0  0  0  0
  -22.3290   -0.9460  -35.2210 C   0  0  0  0  0  3  0  0  0  0  0  0
  -21.2150   -1.0190  -34.4160 C   0  0  0  0  0  3  0  0  0  0  0  0
  -18.8200   -0.7830  -27.5490 C   0  0  0  0  0  0  0  0  0  0  0  0
  -18.5080   -1.5490  -26.4730 C   0  0  0  0  0  3  0  0  0  0  0  0
  -18.2070   -1.0210  -25.2180 C   0  0  0  0  0  3  0  0  0  0  0  0
  -18.2120    0.3320  -25.0170 C   0  0  0  0  0  0  0  0  0  0  0  0
  -18.5220    1.1360  -26.0870 C   0  0  0  0  0  3  0  0  0  0  0  0
  -18.8180    0.5980  -27.3210 C   0  0  0  0  0  3  0  0  0  0  0  0
  -17.9130    0.8910  -23.7620 O   0  0  0  0  0  0  0  0  0  0  0  0
  -17.6590    2.2580  -23.5830 C   0  0  0  0  0  1  0  0  0  0  0  0
  1  2  1  0  0  0  0
  1  5  1  0  0  0  0
  2 10  1  1  0  0  0
  2  3  1  0  0  0  0
  3  4  1  0  0  0  0
  3  6  1  0  0  0  0
  4 21  1  0  0  0  0
  5  4  2  0  0  0  0
  6  7  1  0  0  0  0
  8  7  1  0  0  0  0
  9  8  1  0  0  0  0
 10  9  1  0  0  0  0
 11  1  1  0  0  0  0
 12 13  2  0  0  0  0
 12 11  1  0  0  0  0
 14 12  1  0  0  0  0
 15 14  1  0  0  0  0
 16 15  2  0  0  0  0
 17 19  2  0  0  0  0
 17 16  1  0  0  0  0
 18 17  1  0  0  0  0
 19 20  1  0  0  0  0
 20 14  2  0  0  0  0
 21 26  2  0  0  0  0
 21 22  1  0  0  0  0
 22 23  2  0  0  0  0
 23 24  1  0  0  0  0
 24 27  1  0  0  0  0
 25 24  2  0  0  0  0
 26 25  1  0  0  0  0
 27 28  1  0  0  0  0
M  END
>  <Pose>
1

>  <Score>
-8.903

$$$$
