/Users/jonathanwahrer/Desktop/Msc/3_Semester/Drug_Design_Praktikum/waehrer_HTS_screening/HTS_experiment/out/docking_results/vina_output/5l4q/2375_docked.pdbqt
 OpenBabel03212219293D

 37 40  0  0  1  0  0  0  0  0999 V2000
  -22.6700   -0.9710  -35.2220 C   0  0  0  0  0  0  0  0  0  0  0  0
  -23.3370   -1.5600  -36.3460 C   0  0  0  0  0  1  0  0  0  0  0  0
  -23.0550    0.4460  -34.8190 C   0  0  0  0  0  0  0  0  0  0  0  0
  -22.1760    1.5230  -35.0850 N   0  0  0  0  0  0  0  0  0  0  0  0
  -22.2100    2.8170  -34.4850 C   0  0  0  0  0  3  0  0  0  0  0  0
  -21.3260    1.4410  -36.2890 C   0  0  0  0  0  2  0  0  0  0  0  0
  -20.8730    3.4930  -34.3110 C   0  0  0  0  0  3  0  0  0  0  0  0
  -19.7010    2.8440  -34.9170 C   0  0  1  0  0  0  0  0  0  0  0  0
  -19.9700    1.8970  -36.0610 C   0  0  0  0  0  2  0  0  0  0  0  0
  -24.1370    0.6290  -34.2660 O   0  0  0  0  0  0  0  0  0  0  0  0
  -18.6840    3.7890  -35.4350 C   0  0  0  0  0  0  0  0  0  0  0  0
  -18.3250    4.8270  -34.5880 C   0  0  0  0  0  3  0  0  0  0  0  0
  -17.3520    5.7710  -34.9480 C   0  0  0  0  0  3  0  0  0  0  0  0
  -16.7250    5.6780  -36.1690 C   0  0  0  0  0  0  0  0  0  0  0  0
  -15.4740    6.8560  -36.6340 Cl  0  0  0  0  0  0  0  0  0  0  0  0
  -17.0820    4.6410  -37.0130 C   0  0  0  0  0  3  0  0  0  0  0  0
  -18.0520    3.7220  -36.6340 C   0  0  0  0  0  3  0  0  0  0  0  0
  -19.0640    2.0900  -33.8860 O   0  0  0  0  0  0  0  0  0  0  0  0
  -18.6180    2.6690  -33.2450 H   0  0  0  0  0  0  0  0  0  0  0  0
  -22.3150   -1.7280  -34.0450 N   0  0  0  0  0  4  0  0  0  0  0  0
  -21.0570   -1.7360  -33.4460 C   0  0  0  0  0  0  0  0  0  0  0  0
  -20.1900   -0.9630  -34.1920 O   0  0  0  0  0  0  0  0  0  0  0  0
  -20.4200   -2.2540  -32.3290 C   0  0  0  0  0  2  0  0  0  0  0  0
  -23.1420   -2.3380  -33.7290 H   0  0  0  0  0  0  0  0  0  0  0  0
  -20.4790   -2.8790  -31.1900 C   0  0  1  0  0  3  0  0  0  0  0  0
  -20.6700   -4.3350  -31.1820 N   0  0  0  0  0  0  0  0  0  0  0  0
  -20.6530   -5.0950  -30.0290 N   0  0  0  0  0  0  0  0  0  0  0  0
  -20.8210   -4.7790  -32.1280 H   0  0  0  0  0  0  0  0  0  0  0  0
  -20.4530   -4.5340  -28.7780 C   0  0  0  0  0  0  0  0  0  0  0  0
  -20.7980   -6.1400  -30.0990 H   0  0  0  0  0  0  0  0  0  0  0  0
  -20.4370   -5.1850  -27.7040 O   0  0  0  0  0  0  0  0  0  0  0  0
  -20.2510   -3.0680  -28.6850 C   0  0  0  0  0  0  0  0  0  0  0  0
  -20.2720   -2.3490  -29.8560 C   0  0  0  0  0  0  0  0  0  0  0  0
  -19.9770   -2.5240  -27.4530 C   0  0  0  0  0  3  0  0  0  0  0  0
  -19.9760   -0.9880  -29.7290 C   0  0  0  0  0  3  0  0  0  0  0  0
  -19.6970   -0.4240  -28.4920 C   0  0  0  0  0  3  0  0  0  0  0  0
  -19.6970   -1.1780  -27.3480 C   0  0  0  0  0  3  0  0  0  0  0  0
  1  3  1  0  0  0  0
  1 20  2  0  0  0  0
  2  1  1  0  0  0  0
  3 10  2  0  0  0  0
  4  3  1  0  0  0  0
  4  5  1  0  0  0  0
  5  7  2  0  0  0  0
  6  9  1  0  0  0  0
  6  4  1  0  0  0  0
  8  7  1  0  0  0  0
  8 18  1  1  0  0  0
  9  8  1  0  0  0  0
 11  8  1  0  0  0  0
 11 12  1  0  0  0  0
 13 12  2  0  0  0  0
 14 13  1  0  0  0  0
 15 14  1  0  0  0  0
 16 17  1  0  0  0  0
 16 14  2  0  0  0  0
 17 11  2  0  0  0  0
 18 19  1  0  0  0  0
 20 24  1  0  0  0  0
 20 21  1  0  0  0  0
 21 23  1  0  0  0  0
 22 21  2  0  0  0  0
 25 23  1  6  0  0  0
 25 26  1  0  0  0  0
 25 33  1  0  0  0  0
 26 27  1  0  0  0  0
 27 29  1  0  0  0  0
 28 26  1  0  0  0  0
 29 32  1  0  0  0  0
 29 31  2  0  0  0  0
 30 27  1  0  0  0  0
 32 34  1  0  0  0  0
 33 35  1  0  0  0  0
 33 32  2  0  0  0  0
 34 37  2  0  0  0  0
 35 36  2  0  0  0  0
 36 37  1  0  0  0  0
M  END
>  <Pose>
1

>  <Score>
-9.374

$$$$
