/Users/jonathanwahrer/Desktop/Msc/3_Semester/Drug_Design_Praktikum/waehrer_HTS_screening/HTS_experiment/out/docking_results/vina_output/5l4q/2380_docked.pdbqt
 OpenBabel03212219293D

 27 30  0  0  1  0  0  0  0  0999 V2000
  -20.0250   -3.9930  -29.7720 Cl  0  0  0  0  0  0  0  0  0  0  0  0
  -19.8090   -2.2460  -29.7200 C   0  0  0  0  0  0  0  0  0  0  0  0
  -20.0390   -1.5390  -30.8760 C   0  0  0  0  0  0  0  0  0  0  0  0
  -19.8590   -0.1670  -30.8010 C   0  0  0  0  0  3  0  0  0  0  0  0
  -19.4810    0.4020  -29.6430 N   0  0  0  0  0  0  0  0  0  0  0  0
  -19.2570   -0.2670  -28.5240 N   0  0  0  0  0  0  0  0  0  0  0  0
  -19.4220   -1.6010  -28.5620 C   0  0  0  0  0  0  0  0  0  0  0  0
  -19.2270   -2.3060  -27.5310 O   0  0  0  0  0  0  0  0  0  0  0  0
  -20.4330   -2.2180  -32.0490 N   0  0  0  0  0  0  0  0  0  0  0  0
  -19.6300   -2.1750  -33.2650 C   0  0  0  0  0  2  0  0  0  0  0  0
  -20.4790   -1.3750  -34.2720 C   0  0  0  0  0  2  0  0  0  0  0  0
  -21.7910   -1.9340  -34.3700 N   0  0  0  0  0  0  0  0  0  0  0  0
  -22.0510   -3.1740  -33.6090 C   0  0  0  0  0  2  0  0  0  0  0  0
  -22.8320   -1.3650  -35.1490 C   0  0  0  0  0  0  0  0  0  0  0  0
  -21.6460   -3.0060  -32.1580 C   0  0  0  0  0  2  0  0  0  0  0  0
  -23.9810   -1.8970  -35.2050 O   0  0  0  0  0  0  0  0  0  0  0  0
  -22.6570   -0.1340  -35.9390 C   0  0  1  0  0  3  0  0  0  0  0  0
  -22.0980   -0.4020  -37.1510 O   0  0  0  0  0  0  0  0  0  0  0  0
  -22.5850    0.5180  -38.0700 C   0  0  0  0  0  2  0  0  0  0  0  0
  -24.0580    0.5610  -37.6910 C   0  0  0  0  0  2  0  0  0  0  0  0
  -23.9650    0.5850  -36.1800 C   0  0  0  0  0  2  0  0  0  0  0  0
  -18.8550    0.3990  -27.3180 C   0  0  0  0  0  0  0  0  0  0  0  0
  -18.8290    1.7770  -27.2600 C   0  0  0  0  0  3  0  0  0  0  0  0
  -18.4400    2.4390  -26.0920 C   0  0  0  0  0  3  0  0  0  0  0  0
  -18.0750    1.7240  -24.9800 C   0  0  0  0  0  3  0  0  0  0  0  0
  -18.0950    0.3530  -25.0230 C   0  0  0  0  0  3  0  0  0  0  0  0
  -18.4800   -0.2820  -26.1780 C   0  0  0  0  0  3  0  0  0  0  0  0
  1  2  1  0  0  0  0
  2  7  1  0  0  0  0
  3  4  1  0  0  0  0
  3  2  2  0  0  0  0
  4  5  2  0  0  0  0
  5  6  1  0  0  0  0
  6 22  1  0  0  0  0
  7  6  1  0  0  0  0
  7  8  2  0  0  0  0
  9  3  1  0  0  0  0
 10  9  1  0  0  0  0
 11 10  1  0  0  0  0
 12 11  1  0  0  0  0
 12 13  1  0  0  0  0
 13 15  1  0  0  0  0
 14 12  1  0  0  0  0
 15  9  1  0  0  0  0
 16 14  2  0  0  0  0
 17 14  1  6  0  0  0
 18 17  1  0  0  0  0
 19 20  1  0  0  0  0
 19 18  1  0  0  0  0
 20 21  1  0  0  0  0
 21 17  1  0  0  0  0
 22 23  2  0  0  0  0
 22 27  1  0  0  0  0
 23 24  1  0  0  0  0
 24 25  2  0  0  0  0
 26 25  1  0  0  0  0
 27 26  2  0  0  0  0
M  END
>  <Pose>
1

>  <Score>
-8.909

$$$$
