/Users/jonathanwahrer/Desktop/Msc/3_Semester/Drug_Design_Praktikum/waehrer_HTS_screening/HTS_experiment/out/docking_results/vina_output/5l4q/2381_docked.pdbqt
 OpenBabel03212219303D

 30 33  0  0  0  0  0  0  0  0999 V2000
  -20.4140    1.0250  -35.0500 N   0  0  0  0  0  0  0  0  0  0  0  0
  -20.9920    2.3400  -35.0650 C   0  0  0  0  0  2  0  0  0  0  0  0
  -21.8310    2.5640  -36.3030 C   0  0  0  0  0  2  0  0  0  0  0  0
  -21.2940    1.8740  -37.4500 N   0  0  0  0  0  0  0  0  0  0  0  0
  -19.9530    1.3450  -37.3760 C   0  0  0  0  0  2  0  0  0  0  0  0
  -19.9120    0.3600  -36.2360 C   0  0  0  0  0  2  0  0  0  0  0  0
  -22.0760    1.7220  -38.6230 C   0  0  0  0  0  0  0  0  0  0  0  0
  -23.2600    2.1860  -38.6940 O   0  0  0  0  0  0  0  0  0  0  0  0
  -20.3300    0.3340  -33.8030 C   0  0  0  0  0  0  0  0  0  0  0  0
  -19.1670    0.2860  -33.0600 C   0  0  0  0  0  0  0  0  0  0  0  0
  -17.7420    1.1030  -33.6610 Cl  0  0  0  0  0  0  0  0  0  0  0  0
  -19.1650   -0.4060  -31.8590 C   0  0  0  0  0  0  0  0  0  0  0  0
  -20.2460   -1.0420  -31.3710 N   0  0  0  0  0  0  0  0  0  0  0  0
  -18.1170   -0.4550  -31.1830 O   0  0  0  0  0  0  0  0  0  0  0  0
  -21.3520   -0.9850  -32.0950 N   0  0  0  0  0  0  0  0  0  0  0  0
  -21.4200   -0.3300  -33.2690 C   0  0  0  0  0  3  0  0  0  0  0  0
  -20.1820   -1.7410  -30.1250 C   0  0  0  0  0  0  0  0  0  0  0  0
  -20.0830   -1.0540  -28.9320 C   0  0  0  0  0  3  0  0  0  0  0  0
  -20.0200   -1.7200  -27.7260 C   0  0  0  0  0  3  0  0  0  0  0  0
  -20.0550   -3.0980  -27.6530 C   0  0  0  0  0  3  0  0  0  0  0  0
  -20.1550   -3.7900  -28.8410 C   0  0  0  0  0  3  0  0  0  0  0  0
  -20.2160   -3.1210  -30.0420 C   0  0  0  0  0  3  0  0  0  0  0  0
  -21.5710    1.0210  -39.8320 C   0  0  0  0  0  2  0  0  0  0  0  0
  -21.2630   -0.3210  -39.5690 O   0  0  0  0  0  0  0  0  0  0  0  0
  -22.1970   -1.3140  -39.7950 C   0  0  0  0  0  0  0  0  0  0  0  0
  -22.5620   -1.9030  -40.9390 N   0  0  0  0  0  0  0  0  0  0  0  0
  -23.4770   -2.7900  -40.7160 O   0  0  0  0  0  0  0  0  0  0  0  0
  -23.7810   -2.8550  -39.4360 C   0  0  0  0  0  0  0  0  0  0  0  0
  -22.9760   -1.9190  -38.8190 C   0  0  0  0  0  3  0  0  0  0  0  0
  -24.7900   -3.7750  -38.8810 C   0  0  0  0  0  1  0  0  0  0  0  0
  1  9  1  0  0  0  0
  2  1  1  0  0  0  0
  3  2  1  0  0  0  0
  4  5  1  0  0  0  0
  4  3  1  0  0  0  0
  5  6  1  0  0  0  0
  6  1  1  0  0  0  0
  7  4  1  0  0  0  0
  8  7  2  0  0  0  0
  9 16  1  0  0  0  0
  9 10  2  0  0  0  0
 10 12  1  0  0  0  0
 11 10  1  0  0  0  0
 12 13  1  0  0  0  0
 12 14  2  0  0  0  0
 13 17  1  0  0  0  0
 15 13  1  0  0  0  0
 16 15  2  0  0  0  0
 17 22  2  0  0  0  0
 17 18  1  0  0  0  0
 18 19  2  0  0  0  0
 19 20  1  0  0  0  0
 21 20  2  0  0  0  0
 22 21  1  0  0  0  0
 23 24  1  0  0  0  0
 23  7  1  0  0  0  0
 25 24  1  0  0  0  0
 25 29  1  0  0  0  0
 26 27  1  0  0  0  0
 26 25  2  0  0  0  0
 27 28  1  0  0  0  0
 28 30  1  0  0  0  0
 28 29  2  0  0  0  0
M  END
>  <Pose>
1

>  <Score>
-9.013

$$$$
