/Users/jonathanwahrer/Desktop/Msc/3_Semester/Drug_Design_Praktikum/waehrer_HTS_screening/HTS_experiment/out/docking_results/vina_output/5l4q/2402_docked.pdbqt
 OpenBabel03212219303D

 33 36  0  0  1  0  0  0  0  0999 V2000
  -21.0070    0.3900  -36.2350 C   0  0  2  0  0  3  0  0  0  0  0  0
  -22.1050   -0.1070  -37.0080 N   0  0  0  0  0  0  0  0  0  0  0  0
  -22.9980   -0.8480  -36.1910 C   0  0  0  0  0  0  0  0  0  0  0  0
  -24.1470   -1.2900  -36.4300 O   0  0  0  0  0  0  0  0  0  0  0  0
  -22.3470   -1.0670  -34.8780 C   0  0  0  0  0  0  0  0  0  0  0  0
  -22.8260   -1.6830  -33.8930 O   0  0  0  0  0  0  0  0  0  0  0  0
  -21.0540   -0.4200  -34.9870 C   0  0  0  0  0  0  0  0  0  0  0  0
  -20.0960   -0.5500  -34.0600 C   0  0  0  0  0  0  0  0  0  0  0  0
  -18.9300    0.1780  -34.3290 O   0  0  0  0  0  1  0  0  0  0  0  0
  -20.9900    1.8300  -36.0360 C   0  0  0  0  0  0  0  0  0  0  0  0
  -20.1410    2.6110  -36.7960 C   0  0  0  0  0  3  0  0  0  0  0  0
  -20.0540    3.9680  -36.6870 C   0  0  0  0  0  3  0  0  0  0  0  0
  -20.8400    4.6230  -35.7840 C   0  0  0  0  0  0  0  0  0  0  0  0
  -20.6810    6.5260  -35.6730 Br  0  0  0  0  0  0  0  0  0  0  0  0
  -21.7060    3.9020  -34.9980 C   0  0  0  0  0  3  0  0  0  0  0  0
  -21.7710    2.5170  -35.1310 C   0  0  0  0  0  3  0  0  0  0  0  0
  -20.2360   -1.3810  -32.8700 C   0  0  0  0  0  0  0  0  0  0  0  0
  -20.4860   -2.6380  -32.7420 O   0  0  0  0  0  0  0  0  0  0  0  0
  -20.5470   -3.0580  -31.5140 C   0  0  0  0  0  0  0  0  0  0  0  0
  -20.3120   -1.9700  -30.6870 C   0  0  0  0  0  0  0  0  0  0  0  0
  -20.7830   -4.2910  -30.9330 C   0  0  0  0  0  0  0  0  0  0  0  0
  -20.1160   -0.9120  -31.5770 C   0  0  0  0  0  3  0  0  0  0  0  0
  -20.3190   -2.1370  -29.3220 C   0  0  0  0  0  3  0  0  0  0  0  0
  -20.5570   -3.3710  -28.7640 C   0  0  0  0  0  3  0  0  0  0  0  0
  -20.7940   -4.4670  -29.5850 C   0  0  0  0  0  3  0  0  0  0  0  0
  -21.0130   -5.3580  -31.7750 O   0  0  0  0  0  0  0  0  0  0  0  0
  -22.2520   -5.6250  -32.4200 C   0  0  0  0  0  1  0  0  0  0  0  0
  -22.3100    0.0980  -38.4160 C   0  0  0  0  0  2  0  0  0  0  0  0
  -21.3560   -0.7420  -39.2460 C   0  0  0  0  0  2  0  0  0  0  0  0
  -22.0110   -1.6110  -40.1620 N   0  0  0  0  0  4  0  0  0  0  0  0
  -23.1880   -2.2620  -39.6750 C   0  0  0  0  0  1  0  0  0  0  0  0
  -22.2850   -0.9310  -41.4210 C   0  0  0  0  0  1  0  0  0  0  0  0
  -21.3240   -2.3870  -40.4040 H   0  0  0  0  0  0  0  0  0  0  0  0
  1 10  1  1  0  0  0
  1  7  1  0  0  0  0
  2  1  1  0  0  0  0
  2  3  1  0  0  0  0
  3  5  1  0  0  0  0
  4  3  2  0  0  0  0
  5  6  2  0  0  0  0
  7  5  1  0  0  0  0
  7  8  2  0  0  0  0
  8 17  1  0  0  0  0
  9  8  1  0  0  0  0
 10 16  1  0  0  0  0
 11 12  1  0  0  0  0
 11 10  2  0  0  0  0
 12 13  2  0  0  0  0
 13 14  1  0  0  0  0
 13 15  1  0  0  0  0
 16 15  2  0  0  0  0
 17 18  1  0  0  0  0
 17 22  2  0  0  0  0
 18 19  1  0  0  0  0
 19 21  2  0  0  0  0
 19 20  1  0  0  0  0
 20 23  2  0  0  0  0
 21 25  1  0  0  0  0
 22 20  1  0  0  0  0
 23 24  1  0  0  0  0
 25 24  2  0  0  0  0
 26 21  1  0  0  0  0
 27 26  1  0  0  0  0
 28  2  1  0  0  0  0
 29 28  1  0  0  0  0
 30 31  1  0  0  0  0
 30 29  1  0  0  0  0
 32 30  1  0  0  0  0
 33 30  1  0  0  0  0
M  END
>  <Pose>
1

>  <Score>
-8.329

$$$$
