/Users/jonathanwahrer/Desktop/Msc/3_Semester/Drug_Design_Praktikum/waehrer_HTS_screening/HTS_experiment/out/docking_results/vina_output/5l4q/2417_docked.pdbqt
 OpenBabel03212219313D

 27 30  0  0  1  0  0  0  0  0999 V2000
  -19.9340    0.1180  -30.8030 N   0  0  0  0  0  0  0  0  0  0  0  0
  -20.7820   -0.1570  -31.9860 C   0  0  0  0  0  2  0  0  0  0  0  0
  -20.2700   -1.4410  -32.4570 C   0  0  2  0  0  3  0  0  0  0  0  0
  -18.7810   -1.1410  -32.5290 C   0  0  2  0  0  3  0  0  0  0  0  0
  -18.6890   -0.4480  -31.1040 C   0  0  0  0  0  2  0  0  0  0  0  0
  -20.6810   -0.3910  -29.6430 C   0  0  0  0  0  2  0  0  0  0  0  0
  -19.9260   -0.6520  -28.4430 C   0  0  0  0  0  0  0  0  0  0  0  0
  -19.7660   -1.8060  -27.7100 C   0  0  0  0  0  0  0  0  0  0  0  0
  -20.0970   -3.1090  -27.9960 C   0  0  0  0  0  0  0  0  0  0  0  0
  -19.0730   -1.5700  -26.5440 C   0  0  0  0  0  0  0  0  0  0  0  0
  -21.0910   -3.4030  -29.4190 Cl  0  0  0  0  0  0  0  0  0  0  0  0
  -19.7460   -4.1460  -27.1750 C   0  0  0  0  0  3  0  0  0  0  0  0
  -19.0440   -3.8850  -26.0030 C   0  0  0  0  0  3  0  0  0  0  0  0
  -18.7040   -2.5650  -25.6920 C   0  0  0  0  0  3  0  0  0  0  0  0
  -18.8190   -0.2430  -26.5540 N   0  0  0  0  0  0  0  0  0  0  0  0
  -19.3000    0.2880  -27.6460 N   0  0  0  0  0  0  0  0  0  0  0  0
  -18.2030    0.4870  -25.4320 C   0  0  0  0  0  1  0  0  0  0  0  0
  -20.7780   -1.9000  -33.8010 C   0  0  0  0  0  2  0  0  0  0  0  0
  -21.8290   -1.0230  -34.2110 N   0  0  0  0  0  0  0  0  0  0  0  0
  -21.5820   -0.4030  -35.4950 C   0  0  0  0  0  2  0  0  0  0  0  0
  -22.6510   -0.6920  -36.5230 C   0  0  0  0  0  2  0  0  0  0  0  0
  -23.9270   -0.3920  -36.1040 O   0  0  0  0  0  0  0  0  0  0  0  0
  -24.1250   -0.6470  -34.7500 C   0  0  0  0  0  2  0  0  0  0  0  0
  -23.1240   -1.6590  -34.2840 C   0  0  0  0  0  2  0  0  0  0  0  0
  -18.4910   -0.0210  -33.4850 C   0  0  0  0  0  2  0  0  0  0  0  0
  -17.3980    0.7400  -32.9930 O   0  0  0  0  0  0  0  0  0  0  0  0
  -16.9260    0.1240  -32.3110 H   0  0  0  0  0  0  0  0  0  0  0  0
  1  6  1  0  0  0  0
  2  1  1  0  0  0  0
  3 18  1  6  0  0  0
  3  2  1  0  0  0  0
  4 25  1  6  0  0  0
  4  3  1  0  0  0  0
  4  5  1  0  0  0  0
  5  1  1  0  0  0  0
  6  7  1  0  0  0  0
  7  8  1  0  0  0  0
  7 16  2  0  0  0  0
  8 10  1  0  0  0  0
  9  8  2  0  0  0  0
  9 12  1  0  0  0  0
 10 14  2  0  0  0  0
 11  9  1  0  0  0  0
 12 13  2  0  0  0  0
 13 14  1  0  0  0  0
 15 10  1  0  0  0  0
 15 17  1  0  0  0  0
 16 15  1  0  0  0  0
 19 18  1  0  0  0  0
 20 19  1  0  0  0  0
 21 22  1  0  0  0  0
 21 20  1  0  0  0  0
 22 23  1  0  0  0  0
 23 24  1  0  0  0  0
 24 19  1  0  0  0  0
 25 26  1  0  0  0  0
 26 27  1  0  0  0  0
M  END
>  <Pose>
1

>  <Score>
-7.991

$$$$
