/Users/jonathanwahrer/Desktop/Msc/3_Semester/Drug_Design_Praktikum/waehrer_HTS_screening/HTS_experiment/out/docking_results/vina_output/5l4q/2420_docked.pdbqt
 OpenBabel03212219313D

 29 32  0  0  1  0  0  0  0  0999 V2000
  -21.1570    0.9430  -34.0860 N   0  0  0  0  0  0  0  0  0  0  0  0
  -19.9840    1.6830  -34.5480 C   0  0  0  0  0  2  0  0  0  0  0  0
  -20.5270    2.4880  -35.7080 C   0  0  2  0  0  3  0  0  0  0  0  0
  -21.8650    2.9740  -35.1620 C   0  0  0  0  0  2  0  0  0  0  0  0
  -22.2310    1.8820  -34.1930 C   0  0  0  0  0  0  0  0  0  0  0  0
  -23.3250    1.7960  -33.5610 O   0  0  0  0  0  0  0  0  0  0  0  0
  -20.7370    1.6510  -36.9130 C   0  0  0  0  0  0  0  0  0  0  0  0
  -19.9830    0.6610  -37.0850 O   0  0  0  0  0  0  0  0  0  0  0  0
  -21.7440    1.9260  -37.8660 N   0  0  0  0  0  0  0  0  0  0  0  0
  -22.3540    2.7650  -37.6890 H   0  0  0  0  0  0  0  0  0  0  0  0
  -21.9530    1.1170  -39.0380 C   0  0  0  0  0  2  0  0  0  0  0  0
  -23.0950    0.1540  -38.7910 C   0  0  0  0  0  2  0  0  0  0  0  0
  -22.6540   -1.2090  -38.6190 N   0  0  0  0  0  0  0  0  0  0  0  0
  -23.3300   -1.7400  -37.4410 C   0  0  0  0  0  2  0  0  0  0  0  0
  -24.7170   -2.2550  -37.8130 C   0  0  0  0  0  2  0  0  0  0  0  0
  -24.6710   -3.3680  -38.6190 O   0  0  0  0  0  0  0  0  0  0  0  0
  -23.4600   -3.4140  -39.2690 C   0  0  0  0  0  2  0  0  0  0  0  0
  -23.0100   -2.0470  -39.7410 C   0  0  0  0  0  2  0  0  0  0  0  0
  -21.2000   -0.4010  -33.6340 C   0  0  0  0  0  0  0  0  0  0  0  0
  -21.5370   -1.5250  -34.2820 N   0  0  0  0  0  0  0  0  0  0  0  0
  -21.4420   -2.5700  -33.4750 N   0  0  0  0  0  0  0  0  0  0  0  0
  -21.0310   -2.1580  -32.2420 C   0  0  0  0  0  0  0  0  0  0  0  0
  -21.6280   -3.5890  -33.6520 H   0  0  0  0  0  0  0  0  0  0  0  0
  -20.7690   -2.7740  -31.0550 C   0  0  0  0  0  3  0  0  0  0  0  0
  -20.8790   -0.7960  -32.3420 C   0  0  0  0  0  0  0  0  0  0  0  0
  -20.3560   -2.0650  -29.9490 C   0  0  0  0  0  0  0  0  0  0  0  0
  -19.9980   -2.9480  -28.3020 Br  0  0  0  0  0  0  0  0  0  0  0  0
  -20.2000   -0.6810  -30.0430 C   0  0  0  0  0  3  0  0  0  0  0  0
  -20.4630   -0.0570  -31.2420 C   0  0  0  0  0  3  0  0  0  0  0  0
  1 19  1  0  0  0  0
  2  1  1  0  0  0  0
  3  7  1  6  0  0  0
  3  4  1  0  0  0  0
  3  2  1  0  0  0  0
  4  5  1  0  0  0  0
  5  1  1  0  0  0  0
  5  6  2  0  0  0  0
  8  7  2  0  0  0  0
  9 10  1  0  0  0  0
  9  7  1  0  0  0  0
 11 12  1  0  0  0  0
 11  9  1  0  0  0  0
 12 13  1  0  0  0  0
 13 14  1  0  0  0  0
 15 14  1  0  0  0  0
 16 15  1  0  0  0  0
 17 16  1  0  0  0  0
 18 17  1  0  0  0  0
 18 13  1  0  0  0  0
 19 25  1  0  0  0  0
 20 19  2  0  0  0  0
 20 21  1  0  0  0  0
 21 22  1  0  0  0  0
 22 24  1  0  0  0  0
 23 21  1  0  0  0  0
 24 26  2  0  0  0  0
 25 22  2  0  0  0  0
 25 29  1  0  0  0  0
 26 27  1  0  0  0  0
 28 26  1  0  0  0  0
 29 28  2  0  0  0  0
M  END
>  <Pose>
1

>  <Score>
-7.829

$$$$
