/Users/jonathanwahrer/Desktop/Msc/3_Semester/Drug_Design_Praktikum/waehrer_HTS_screening/HTS_experiment/out/docking_results/vina_output/5l4q/2432_docked.pdbqt
 OpenBabel03212219323D

 26 29  0  0  0  0  0  0  0  0999 V2000
  -21.6950    0.8370  -34.0690 C   0  0  0  0  0  0  0  0  0  0  0  0
  -22.9070    1.2730  -33.7800 O   0  0  0  0  0  0  0  0  0  0  0  0
  -21.0290    1.4710  -35.1050 N   0  0  0  0  0  0  0  0  0  0  0  0
  -21.7450    2.5500  -35.8290 C   0  0  0  0  0  2  0  0  0  0  0  0
  -21.8470    2.0920  -37.2590 C   0  0  0  0  0  2  0  0  0  0  0  0
  -21.1370    0.8870  -37.5540 N   0  0  0  0  0  0  0  0  0  0  0  0
  -19.9030    0.4830  -36.8970 C   0  0  0  0  0  2  0  0  0  0  0  0
  -19.7200    1.2580  -35.6010 C   0  0  0  0  0  2  0  0  0  0  0  0
  -21.2910   -0.2520  -33.2180 C   0  0  0  0  0  0  0  0  0  0  0  0
  -20.6880   -0.2590  -32.0280 N   0  0  0  0  0  0  0  0  0  0  0  0
  -20.5040   -1.5240  -31.5600 C   0  0  0  0  0  0  0  0  0  0  0  0
  -20.3500    0.5380  -31.4520 H   0  0  0  0  0  0  0  0  0  0  0  0
  -19.7640   -2.0290  -30.0560 Cl  0  0  0  0  0  0  0  0  0  0  0  0
  -21.0080   -2.3990  -32.4830 C   0  0  0  0  0  0  0  0  0  0  0  0
  -21.4910   -1.6100  -33.5010 C   0  0  0  0  0  3  0  0  0  0  0  0
  -21.0250   -4.1460  -32.3700 Cl  0  0  0  0  0  0  0  0  0  0  0  0
  -21.6360   -0.0030  -38.5440 C   0  0  0  0  0  0  0  0  0  0  0  0
  -21.2270    0.0810  -39.8240 N   0  0  0  0  0  0  0  0  0  0  0  0
  -21.6930   -0.7570  -40.7800 C   0  0  0  0  0  3  0  0  0  0  0  0
  -22.5900   -1.7090  -40.4710 N   0  0  0  0  0  0  0  0  0  0  0  0
  -23.0470   -1.8590  -39.2180 C   0  0  0  0  0  0  0  0  0  0  0  0
  -23.9230   -2.7130  -38.6580 N   0  0  0  0  0  0  0  0  0  0  0  0
  -22.5550   -0.9850  -38.2420 C   0  0  0  0  0  0  0  0  0  0  0  0
  -23.9980   -2.4080  -37.3780 N   0  0  0  0  0  0  0  0  0  0  0  0
  -24.6700   -3.7880  -39.3130 C   0  0  0  0  0  1  0  0  0  0  0  0
  -23.1840   -1.3670  -37.0860 C   0  0  0  0  0  3  0  0  0  0  0  0
  1  2  2  0  0  0  0
  1  9  1  0  0  0  0
  3  1  1  0  0  0  0
  4  3  1  0  0  0  0
  5  4  1  0  0  0  0
  6  5  1  0  0  0  0
  6  7  1  0  0  0  0
  7  8  1  0  0  0  0
  8  3  1  0  0  0  0
  9 10  1  0  0  0  0
 10 11  1  0  0  0  0
 10 12  1  0  0  0  0
 11 13  1  0  0  0  0
 14 16  1  0  0  0  0
 14 11  2  0  0  0  0
 15  9  2  0  0  0  0
 15 14  1  0  0  0  0
 17 23  1  0  0  0  0
 17  6  1  0  0  0  0
 18 17  2  0  0  0  0
 19 20  2  0  0  0  0
 19 18  1  0  0  0  0
 20 21  1  0  0  0  0
 21 22  1  0  0  0  0
 21 23  2  0  0  0  0
 22 24  1  0  0  0  0
 23 26  1  0  0  0  0
 24 26  2  0  0  0  0
 25 22  1  0  0  0  0
M  END
>  <Pose>
1

>  <Score>
-8.195

$$$$
