/Users/jonathanwahrer/Desktop/Msc/3_Semester/Drug_Design_Praktikum/waehrer_HTS_screening/HTS_experiment/out/docking_results/vina_output/5l4q/2439_docked.pdbqt
 OpenBabel03212219323D

 30 34  0  0  1  0  0  0  0  0999 V2000
  -20.6590   -0.2580  -32.5780 C   0  0  0  0  0  0  0  0  0  0  0  0
  -20.3760   -0.0730  -31.2130 C   0  0  0  0  0  3  0  0  0  0  0  0
  -20.3710   -1.2570  -30.6060 N   0  0  0  0  0  0  0  0  0  0  0  0
  -20.1980   -1.8470  -29.3950 C   0  0  0  0  0  0  0  0  0  0  0  0
  -20.3660   -3.1770  -29.5820 C   0  0  0  0  0  0  0  0  0  0  0  0
  -20.6320   -3.3620  -30.8840 N   0  0  0  0  0  0  0  0  0  0  0  0
  -20.6380   -2.1780  -31.5350 C   0  0  1  0  0  3  0  0  0  0  0  0
  -20.8180   -1.5780  -32.7570 N   0  0  0  0  0  0  0  0  0  0  0  0
  -20.2500   -4.0580  -28.5220 C   0  0  0  0  0  3  0  0  0  0  0  0
  -19.9620   -3.5970  -27.2470 C   0  0  0  0  0  3  0  0  0  0  0  0
  -19.7900   -2.2320  -27.0550 C   0  0  0  0  0  3  0  0  0  0  0  0
  -19.9120   -1.3850  -28.1340 C   0  0  0  0  0  3  0  0  0  0  0  0
  -20.8220   -4.2920  -31.3420 H   0  0  0  0  0  0  0  0  0  0  0  0
  -21.1400   -2.2870  -33.9500 C   0  0  0  0  0  2  0  0  0  0  0  0
  -22.6080   -2.3780  -34.2770 C   0  0  0  0  0  2  0  0  0  0  0  0
  -23.1360   -1.4160  -35.2450 C   0  0  0  0  0  2  0  0  0  0  0  0
  -22.6090   -1.3860  -36.5770 N   0  0  0  0  0  4  0  0  0  0  0  0
  -23.5550   -1.8800  -37.5610 C   0  0  0  0  0  3  0  0  0  0  0  0
  -24.4800   -0.8890  -38.1300 C   0  0  0  0  0  3  0  0  0  0  0  0
  -24.1850    0.5380  -37.8530 C   0  0  0  0  0  2  0  0  0  0  0  0
  -22.7200    0.7800  -37.7720 C   0  0  0  0  0  3  0  0  0  0  0  0
  -21.9530   -0.1800  -36.9430 C   0  0  0  0  0  3  0  0  0  0  0  0
  -21.8800   -2.1340  -36.5840 H   0  0  0  0  0  0  0  0  0  0  0  0
  -20.7540    0.8730  -33.5070 C   0  0  0  0  0  0  0  0  0  0  0  0
  -21.9890    1.5040  -33.6560 C   0  0  0  0  0  3  0  0  0  0  0  0
  -22.2020    2.5850  -34.4890 C   0  0  0  0  0  3  0  0  0  0  0  0
  -21.1740    3.0970  -35.2260 C   0  0  0  0  0  0  0  0  0  0  0  0
  -21.4170    4.5790  -36.3840 Br  0  0  0  0  0  0  0  0  0  0  0  0
  -19.9500    2.5000  -35.1030 C   0  0  0  0  0  3  0  0  0  0  0  0
  -19.7380    1.3920  -34.2480 C   0  0  0  0  0  3  0  0  0  0  0  0
  1  2  2  0  0  0  0
  2  3  1  0  0  0  0
  3  4  1  0  0  0  0
  4 12  1  0  0  0  0
  5  4  2  0  0  0  0
  5  9  1  0  0  0  0
  6  5  1  0  0  0  0
  7  8  1  1  0  0  0
  7  6  1  0  0  0  0
  7  3  1  0  0  0  0
  8  1  1  0  0  0  0
  9 10  2  0  0  0  0
 10 11  1  0  0  0  0
 12 11  2  0  0  0  0
 13  6  1  0  0  0  0
 14  8  1  0  0  0  0
 15 14  1  0  0  0  0
 16 15  1  0  0  0  0
 17 16  1  0  0  0  0
 18 17  1  0  0  0  0
 19 20  1  0  0  0  0
 19 18  2  0  0  0  0
 20 21  1  0  0  0  0
 21 22  2  0  0  0  0
 22 17  1  0  0  0  0
 23 17  1  0  0  0  0
 24  1  1  0  0  0  0
 25 24  1  0  0  0  0
 26 25  2  0  0  0  0
 27 29  2  0  0  0  0
 27 26  1  0  0  0  0
 28 27  1  0  0  0  0
 29 30  1  0  0  0  0
 30 24  2  0  0  0  0
M  END
>  <Pose>
1

>  <Score>
-8.464

$$$$
