
 OpenBabel03222201593D

 50 53  0  0  0  0  0  0  0  0999 V2000
  -17.4790    3.1040  -22.0480 B   0  0  0  0  0  0  0  0  0  0  0  0
  -17.4450    2.8490  -23.9500 C   0  0  0  0  0  0  0  0  0  0  0  0
  -17.3670    3.9640  -24.7630 C   0  0  0  0  0  0  0  0  0  0  0  0
  -17.3430    3.7580  -26.1250 C   0  0  0  0  0  0  0  0  0  0  0  0
  -17.3970    2.4760  -26.6450 C   0  0  0  0  0  0  0  0  0  0  0  0
  -17.4760    1.3600  -25.8380 C   0  0  0  0  0  0  0  0  0  0  0  0
  -17.4990    1.5740  -24.4750 C   0  0  0  0  0  0  0  0  0  0  0  0
  -17.5800    0.4340  -23.6550 O   0  0  0  0  0  0  0  0  0  0  0  0
  -17.5340   -0.0040  -26.3810 C   0  0  0  0  0  0  0  0  0  0  0  0
  -18.3240   -0.3300  -27.3340 N   0  0  0  0  0  0  0  0  0  0  0  0
  -18.3450   -1.6790  -27.8320 N   0  0  0  0  0  0  0  0  0  0  0  0
  -19.5500   -2.3760  -27.6900 C   0  0  0  0  0  0  0  0  0  0  0  0
  -20.3340   -1.9540  -26.7350 O   0  0  0  0  0  0  0  0  0  0  0  0
  -20.0750   -3.4960  -28.4340 C   0  0  0  0  0  0  0  0  0  0  0  0
  -20.4130   -4.6910  -27.8350 N   0  0  0  0  0  0  0  0  0  0  0  0
  -20.8420   -5.4890  -28.7600 N   0  0  0  0  0  0  0  0  0  0  0  0
  -20.7990   -4.8510  -29.9620 N   0  0  0  0  0  0  0  0  0  0  0  0
  -20.3280   -3.6160  -29.7940 C   0  0  0  0  0  0  0  0  0  0  0  0
  -20.1010   -2.5720  -30.7920 C   0  0  0  0  0  0  0  0  0  0  0  0
  -20.2750   -1.2130  -30.4390 N   0  0  0  0  0  4  0  0  0  0  0  0
  -21.0600   -0.4610  -31.4070 C   0  0  0  0  0  0  0  0  0  0  0  0
  -20.5320   -0.6310  -32.7750 C   0  0  0  0  0  0  0  0  0  0  0  0
  -19.2240   -0.7960  -32.9840 O   0  0  0  0  0  0  0  0  0  0  0  0
  -18.3770   -0.8660  -31.9260 C   0  0  0  0  0  0  0  0  0  0  0  0
  -18.9330   -0.5640  -30.5940 C   0  0  0  0  0  0  0  0  0  0  0  0
  -21.2360   -5.5350  -31.1390 C   0  0  0  0  0  0  0  0  0  0  0  0
  -20.9060   -6.7130  -31.6530 N   0  0  0  0  0  0  0  0  0  0  0  0
  -21.6160   -6.8870  -32.7190 O   0  0  0  0  0  0  0  0  0  0  0  0
  -22.4030   -5.8810  -32.9420 N   0  0  0  0  0  0  0  0  0  0  0  0
  -22.2170   -4.9870  -31.9810 C   0  0  0  0  0  0  0  0  0  0  0  0
  -22.8410   -3.7290  -31.7860 N   0  0  0  0  0  0  0  0  0  0  0  0
  -17.2340    5.3040  -27.2460 B   0  0  0  0  0  0  0  0  0  0  0  0
  -17.3130    5.2420  -24.2040 O   0  0  0  0  0  0  0  0  0  0  0  0
  -17.3780    2.3320  -27.7260 H   0  0  0  0  0  0  0  0  0  0  0  0
  -16.8630   -0.2730  -23.7190 H   0  0  0  0  0  0  0  0  0  0  0  0
  -16.9000   -0.7500  -25.9710 H   0  0  0  0  0  0  0  0  0  0  0  0
  -17.5050   -2.0390  -28.2550 H   0  0  0  0  0  0  0  0  0  0  0  0
  -20.6890   -2.7900  -31.7480 H   0  0  0  0  0  0  0  0  0  0  0  0
  -19.0170   -2.6650  -31.1200 H   0  0  0  0  0  0  0  0  0  0  0  0
  -20.5830   -1.0810  -29.4870 H   0  0  0  0  0  0  0  0  0  0  0  0
  -20.9150    0.6220  -31.1170 H   0  0  0  0  0  0  0  0  0  0  0  0
  -22.1280   -0.6530  -31.3820 H   0  0  0  0  0  0  0  0  0  0  0  0
  -20.8760    0.2650  -33.3740 H   0  0  0  0  0  0  0  0  0  0  0  0
  -21.0970   -1.4810  -33.2590 H   0  0  0  0  0  0  0  0  0  0  0  0
  -17.8950   -1.8650  -31.9150 H   0  0  0  0  0  0  0  0  0  0  0  0
  -17.5340   -0.1410  -32.1170 H   0  0  0  0  0  0  0  0  0  0  0  0
  -19.0960    0.5040  -30.4010 H   0  0  0  0  0  0  0  0  0  0  0  0
  -18.3240   -0.9900  -29.7850 H   0  0  0  0  0  0  0  0  0  0  0  0
  -23.7620   -3.6830  -31.3040 H   0  0  0  0  0  0  0  0  0  0  0  0
  -22.4060   -2.8190  -32.1160 H   0  0  0  0  0  0  0  0  0  0  0  0
  2  1  1  0  0  0  0
  3 33  1  0  0  0  0
  3  2  2  0  0  0  0
  4  3  1  0  0  0  0
  5  4  2  0  0  0  0
  5  6  1  0  0  0  0
  6  7  2  0  0  0  0
  7  2  1  0  0  0  0
  7  8  1  0  0  0  0
  9 36  1  0  0  0  0
  9  6  1  0  0  0  0
 10  9  2  0  0  0  0
 11 12  1  0  0  0  0
 11 10  1  0  0  0  0
 12 13  2  0  0  0  0
 14 15  1  0  0  0  0
 14 12  1  0  0  0  0
 16 15  2  0  0  0  0
 17 18  1  0  0  0  0
 17 16  1  0  0  0  0
 18 14  2  0  0  0  0
 19 20  1  0  0  0  0
 19 18  1  0  0  0  0
 20 40  1  0  0  0  0
 21 42  1  0  0  0  0
 21 41  1  0  0  0  0
 21 20  1  0  0  0  0
 22 21  1  0  0  0  0
 23 22  1  0  0  0  0
 23 24  1  0  0  0  0
 24 45  1  0  0  0  0
 24 25  1  0  0  0  0
 25 20  1  0  0  0  0
 25 47  1  0  0  0  0
 25 48  1  0  0  0  0
 26 17  1  0  0  0  0
 27 26  2  0  0  0  0
 28 27  1  0  0  0  0
 29 28  1  0  0  0  0
 29 30  2  0  0  0  0
 30 31  1  0  0  0  0
 30 26  1  0  0  0  0
 31 49  1  0  0  0  0
 32  4  1  0  0  0  0
 34  5  1  0  0  0  0
 35  8  1  0  0  0  0
 37 11  1  0  0  0  0
 38 19  1  0  0  0  0
 39 19  1  0  0  0  0
 43 22  1  0  0  0  0
 44 22  1  0  0  0  0
 46 24  1  0  0  0  0
 50 31  1  0  0  0  0
M  END
>  <Pose>
1

>  <Score>
-8.98

$$$$
