
 OpenBabel03162216093D

 50 53  0  0  0  0  0  0  0  0999 V2000
  -16.6350    2.9130  -19.5670 B   0  0  0  0  0  0  0  0  0  0  0  0
  -17.3110    3.1560  -21.3200 C   0  0  0  0  0  0  0  0  0  0  0  0
  -17.9400    4.3200  -21.6540 C   0  0  0  0  0  0  0  0  0  0  0  0
  -18.4280    4.4680  -22.9490 C   0  0  0  0  0  0  0  0  0  0  0  0
  -18.2650    3.4360  -23.8680 C   0  0  0  0  0  0  0  0  0  0  0  0
  -17.6350    2.2650  -23.5410 C   0  0  0  0  0  0  0  0  0  0  0  0
  -17.1580    2.1320  -22.2560 C   0  0  0  0  0  0  0  0  0  0  0  0
  -16.5220    0.9430  -21.9370 O   0  0  0  0  0  0  0  0  0  0  0  0
  -17.4750    1.1980  -24.5170 C   0  0  0  0  0  0  0  0  0  0  0  0
  -17.4920   -0.0510  -24.2140 N   0  0  0  0  0  0  0  0  0  0  0  0
  -17.3260   -1.0270  -25.2550 N   0  0  0  0  0  0  0  0  0  0  0  0
  -18.3960   -1.2200  -26.1180 C   0  0  0  0  0  0  0  0  0  0  0  0
  -19.3320   -2.0040  -25.7070 O   0  0  0  0  0  0  0  0  0  0  0  0
  -18.6170   -0.6600  -27.4380 C   0  0  0  0  0  0  0  0  0  0  0  0
  -18.3750    0.6420  -27.7960 N   0  0  0  0  0  0  0  0  0  0  0  0
  -18.6770    0.8090  -29.0540 N   0  0  0  0  0  0  0  0  0  0  0  0
  -19.1210   -0.3120  -29.5960 N   0  0  0  0  0  0  0  0  0  0  0  0
  -19.0920   -1.2360  -28.6210 C   0  0  0  0  0  0  0  0  0  0  0  0
  -19.5220   -2.6340  -28.7200 C   0  0  0  0  0  0  0  0  0  0  0  0
  -20.8180   -2.8220  -29.3760 N   0  0  0  0  0  0  0  0  0  0  0  0
  -21.6270   -3.7460  -28.5570 C   0  0  0  0  0  0  0  0  0  0  0  0
  -20.8070   -4.9270  -28.1700 C   0  0  0  0  0  0  0  0  0  0  0  0
  -20.2680   -5.5030  -29.2940 O   0  0  0  0  0  0  0  0  0  0  0  0
  -20.7570   -5.0080  -30.4740 C   0  0  0  0  0  0  0  0  0  0  0  0
  -20.5840   -3.5230  -30.6610 C   0  0  0  0  0  0  0  0  0  0  0  0
  -19.5550   -0.4250  -30.9400 C   0  0  0  0  0  0  0  0  0  0  0  0
  -20.8080   -0.3960  -31.4420 N   0  0  0  0  0  0  0  0  0  0  0  0
  -20.7670   -0.5230  -32.7420 O   0  0  0  0  0  0  0  0  0  0  0  0
  -19.5290   -0.6390  -33.1500 N   0  0  0  0  0  0  0  0  0  0  0  0
  -18.7490   -0.5820  -32.0580 C   0  0  0  0  0  0  0  0  0  0  0  0
  -17.3400   -0.6710  -32.0820 N   0  0  0  0  0  0  0  0  0  0  0  0
  -19.3070    6.0730  -23.4450 B   0  0  0  0  0  0  0  0  0  0  0  0
  -18.1130    5.3610  -20.7530 O   0  0  0  0  0  0  0  0  0  0  0  0
  -18.6400    3.5510  -24.8640 H   0  0  0  0  0  0  0  0  0  0  0  0
  -15.6490    0.6950  -22.3870 H   0  0  0  0  0  0  0  0  0  0  0  0
  -17.3320    1.4490  -25.5650 H   0  0  0  0  0  0  0  0  0  0  0  0
  -16.4000   -1.5160  -25.2710 H   0  0  0  0  0  0  0  0  0  0  0  0
  -19.6030   -3.1060  -27.7380 H   0  0  0  0  0  0  0  0  0  0  0  0
  -18.8100   -3.1940  -29.3420 H   0  0  0  0  0  0  0  0  0  0  0  0
  -22.0670   -3.2230  -27.6930 H   0  0  0  0  0  0  0  0  0  0  0  0
  -22.4570   -4.0780  -29.2080 H   0  0  0  0  0  0  0  0  0  0  0  0
  -19.9990   -4.6910  -27.4570 H   0  0  0  0  0  0  0  0  0  0  0  0
  -21.4990   -5.7000  -27.7230 H   0  0  0  0  0  0  0  0  0  0  0  0
  -20.1410   -5.4920  -31.2910 H   0  0  0  0  0  0  0  0  0  0  0  0
  -21.8010   -5.3440  -30.6440 H   0  0  0  0  0  0  0  0  0  0  0  0
  -21.3730   -3.1990  -31.3510 H   0  0  0  0  0  0  0  0  0  0  0  0
  -19.5980   -3.3240  -31.0680 H   0  0  0  0  0  0  0  0  0  0  0  0
  -16.8100   -0.4540  -31.2180 H   0  0  0  0  0  0  0  0  0  0  0  0
  -16.8120   -0.9450  -32.9300 H   0  0  0  0  0  0  0  0  0  0  0  0
  -18.9460    5.9260  -20.7650 H   0  0  0  0  0  0  0  0  0  0  0  0
  2  1  1  0  0  0  0
  3  2  1  0  0  0  0
  3 33  1  0  0  0  0
  4  3  2  0  0  0  0
  5  6  2  0  0  0  0
  5  4  1  0  0  0  0
  6  7  1  0  0  0  0
  7  8  1  0  0  0  0
  7  2  2  0  0  0  0
  9 10  2  0  0  0  0
  9  6  1  0  0  0  0
 11 10  1  0  0  0  0
 12 13  2  0  0  0  0
 12 11  1  0  0  0  0
 14 12  1  0  0  0  0
 15 14  1  0  0  0  0
 16 15  2  0  0  0  0
 17 16  1  0  0  0  0
 17 18  1  0  0  0  0
 18 14  2  0  0  0  0
 19 18  1  0  0  0  0
 19 38  1  0  0  0  0
 20 19  1  0  0  0  0
 20 21  1  0  0  0  0
 21 22  1  0  0  0  0
 21 40  1  0  0  0  0
 22 43  1  0  0  0  0
 22 42  1  0  0  0  0
 23 22  1  0  0  0  0
 24 23  1  0  0  0  0
 25 24  1  0  0  0  0
 25 20  1  0  0  0  0
 26 17  1  0  0  0  0
 27 26  2  0  0  0  0
 28 27  1  0  0  0  0
 29 28  1  0  0  0  0
 29 30  2  0  0  0  0
 30 26  1  0  0  0  0
 31 30  1  0  0  0  0
 31 48  1  0  0  0  0
 32  4  1  0  0  0  0
 34  5  1  0  0  0  0
 35  8  1  0  0  0  0
 36  9  1  0  0  0  0
 37 11  1  0  0  0  0
 39 19  1  0  0  0  0
 41 21  1  0  0  0  0
 44 24  1  0  0  0  0
 45 24  1  0  0  0  0
 46 25  1  0  0  0  0
 47 25  1  0  0  0  0
 49 31  1  0  0  0  0
 50 33  1  0  0  0  0
M  END
>  <Pose>
1

>  <Score>
-8.44

$$$$
