
 OpenBabel03222201593D

 50 53  0  0  0  0  0  0  0  0999 V2000
  -19.7980   -2.5830  -26.6860 B   0  0  0  0  0  0  0  0  0  0  0  0
  -19.8730   -2.6020  -28.5790 C   0  0  0  0  0  0  0  0  0  0  0  0
  -20.6680   -3.5060  -29.2210 C   0  0  0  0  0  0  0  0  0  0  0  0
  -20.7020   -3.4960  -30.6130 C   0  0  0  0  0  0  0  0  0  0  0  0
  -19.9300   -2.5750  -31.3130 C   0  0  0  0  0  0  0  0  0  0  0  0
  -19.1290   -1.6650  -30.6760 C   0  0  0  0  0  0  0  0  0  0  0  0
  -19.1060   -1.6860  -29.2990 C   0  0  0  0  0  0  0  0  0  0  0  0
  -18.2920   -0.7600  -28.6650 O   0  0  0  0  0  0  0  0  0  0  0  0
  -18.3290   -0.7090  -31.4270 C   0  0  0  0  0  0  0  0  0  0  0  0
  -18.4970   -0.4680  -32.6780 N   0  0  0  0  0  0  0  0  0  0  0  0
  -17.6530    0.4970  -33.3250 N   0  0  0  0  0  0  0  0  0  0  0  0
  -18.2790    1.5560  -33.9690 C   0  0  0  0  0  0  0  0  0  0  0  0
  -18.5550    2.5860  -33.2460 O   0  0  0  0  0  0  0  0  0  0  0  0
  -18.6750    1.6740  -35.3590 C   0  0  0  0  0  0  0  0  0  0  0  0
  -17.9060    2.2150  -36.3580 N   0  0  0  0  0  0  0  0  0  0  0  0
  -18.5590    2.1610  -37.4860 N   0  0  0  0  0  0  0  0  0  0  0  0
  -19.7510    1.6100  -37.3270 N   0  0  0  0  0  0  0  0  0  0  0  0
  -19.8470    1.2980  -36.0240 C   0  0  0  0  0  0  0  0  0  0  0  0
  -20.9990    0.6950  -35.3460 C   0  0  0  0  0  0  0  0  0  0  0  0
  -22.2840    1.3220  -35.6650 N   0  0  0  0  0  0  0  0  0  0  0  0
  -22.8530    1.8800  -34.4230 C   0  0  0  0  0  0  0  0  0  0  0  0
  -22.7640    0.8730  -33.3300 C   0  0  0  0  0  0  0  0  0  0  0  0
  -23.3510   -0.3010  -33.7360 O   0  0  0  0  0  0  0  0  0  0  0  0
  -24.0370   -0.2120  -34.9180 C   0  0  0  0  0  0  0  0  0  0  0  0
  -23.2200    0.2560  -36.0940 C   0  0  0  0  0  0  0  0  0  0  0  0
  -20.6940    1.4490  -38.3710 C   0  0  0  0  0  0  0  0  0  0  0  0
  -21.4710    2.3740  -38.9760 N   0  0  0  0  0  0  0  0  0  0  0  0
  -22.1960    1.8050  -39.9020 O   0  0  0  0  0  0  0  0  0  0  0  0
  -21.9450    0.5220  -39.9540 N   0  0  0  0  0  0  0  0  0  0  0  0
  -21.0170    0.2660  -39.0180 C   0  0  0  0  0  0  0  0  0  0  0  0
  -20.4800   -1.0140  -38.7610 N   0  0  0  0  0  0  0  0  0  0  0  0
  -21.7970   -4.7380  -31.5360 B   0  0  0  0  0  0  0  0  0  0  0  0
  -21.4460   -4.4330  -28.5420 O   0  0  0  0  0  0  0  0  0  0  0  0
  -19.9560   -2.5680  -32.3830 H   0  0  0  0  0  0  0  0  0  0  0  0
  -17.3060   -0.9520  -28.5370 H   0  0  0  0  0  0  0  0  0  0  0  0
  -17.5400   -0.1590  -30.9200 H   0  0  0  0  0  0  0  0  0  0  0  0
  -16.6240    0.3140  -33.2560 H   0  0  0  0  0  0  0  0  0  0  0  0
  -20.8990    0.7350  -34.2590 H   0  0  0  0  0  0  0  0  0  0  0  0
  -21.1100   -0.3490  -35.6690 H   0  0  0  0  0  0  0  0  0  0  0  0
  -22.3750    2.8390  -34.1680 H   0  0  0  0  0  0  0  0  0  0  0  0
  -23.9170    2.0830  -34.6440 H   0  0  0  0  0  0  0  0  0  0  0  0
  -21.7320    0.6700  -32.9980 H   0  0  0  0  0  0  0  0  0  0  0  0
  -23.3800    1.2480  -32.4610 H   0  0  0  0  0  0  0  0  0  0  0  0
  -24.3570   -1.2690  -35.1700 H   0  0  0  0  0  0  0  0  0  0  0  0
  -24.9770    0.3650  -34.7900 H   0  0  0  0  0  0  0  0  0  0  0  0
  -23.9220    0.7120  -36.8030 H   0  0  0  0  0  0  0  0  0  0  0  0
  -22.7090   -0.5920  -36.5370 H   0  0  0  0  0  0  0  0  0  0  0  0
  -20.7500   -1.5050  -37.8900 H   0  0  0  0  0  0  0  0  0  0  0  0
  -19.8240   -1.4850  -39.4110 H   0  0  0  0  0  0  0  0  0  0  0  0
  -21.5800   -5.3630  -28.9040 H   0  0  0  0  0  0  0  0  0  0  0  0
  2  1  1  0  0  0  0
  3  2  1  0  0  0  0
  3 33  1  0  0  0  0
  4  3  2  0  0  0  0
  5  6  2  0  0  0  0
  5  4  1  0  0  0  0
  6  7  1  0  0  0  0
  7  8  1  0  0  0  0
  7  2  2  0  0  0  0
  8 35  1  0  0  0  0
  9 36  1  0  0  0  0
  9  6  1  0  0  0  0
 10  9  2  0  0  0  0
 11 37  1  0  0  0  0
 11 10  1  0  0  0  0
 12 11  1  0  0  0  0
 12 13  2  0  0  0  0
 14 12  1  0  0  0  0
 15 14  1  0  0  0  0
 16 17  1  0  0  0  0
 16 15  2  0  0  0  0
 17 18  1  0  0  0  0
 18 14  2  0  0  0  0
 18 19  1  0  0  0  0
 19 38  1  0  0  0  0
 20 19  1  0  0  0  0
 20 21  1  0  0  0  0
 21 40  1  0  0  0  0
 21 22  1  0  0  0  0
 22 42  1  0  0  0  0
 22 43  1  0  0  0  0
 23 22  1  0  0  0  0
 24 45  1  0  0  0  0
 24 23  1  0  0  0  0
 25 20  1  0  0  0  0
 25 24  1  0  0  0  0
 26 17  1  0  0  0  0
 27 26  2  0  0  0  0
 28 27  1  0  0  0  0
 29 28  1  0  0  0  0
 29 30  2  0  0  0  0
 30 31  1  0  0  0  0
 30 26  1  0  0  0  0
 31 48  1  0  0  0  0
 32  4  1  0  0  0  0
 34  5  1  0  0  0  0
 39 19  1  0  0  0  0
 41 21  1  0  0  0  0
 44 24  1  0  0  0  0
 46 25  1  0  0  0  0
 47 25  1  0  0  0  0
 49 31  1  0  0  0  0
 50 33  1  0  0  0  0
M  END
>  <Pose>
1

>  <Score>
-9.01

$$$$
