
 OpenBabel03222201593D

 52 55  0  0  0  0  0  0  0  0999 V2000
  -20.4490   -5.2550  -27.5470 B   0  0  0  0  0  0  0  0  0  0  0  0
  -19.7380   -3.4850  -27.6610 C   0  0  0  0  0  0  0  0  0  0  0  0
  -19.9770   -2.7720  -28.8190 C   0  0  0  0  0  0  0  0  0  0  0  0
  -19.4660   -1.4950  -28.9070 C   0  0  0  0  0  0  0  0  0  0  0  0
  -18.7380   -0.9360  -27.8720 C   0  0  0  0  0  0  0  0  0  0  0  0
  -18.4950   -1.6390  -26.7150 C   0  0  0  0  0  0  0  0  0  0  0  0
  -19.0070   -2.9170  -26.6290 C   0  0  0  0  0  0  0  0  0  0  0  0
  -18.7780   -3.6370  -25.4810 O   0  0  0  0  0  0  0  0  0  0  0  0
  -17.7260   -1.0280  -25.6430 C   0  0  0  0  0  0  0  0  0  0  0  0
  -18.2420   -0.4330  -24.6410 N   0  0  0  0  0  0  0  0  0  0  0  0
  -17.4750    0.1520  -23.6140 N   0  0  0  0  0  0  0  0  0  0  0  0
  -17.1470    1.5330  -23.6970 C   0  0  0  0  0  0  0  0  0  0  0  0
  -16.4120    2.1190  -22.7550 N   0  0  0  0  0  4  0  0  0  0  0  0
  -16.0770    3.4410  -22.7990 C   0  0  0  0  0  0  0  0  0  0  0  0
  -16.5290    4.1250  -23.8470 N   0  0  0  0  0  0  0  0  0  0  0  0
  -17.2800    3.6100  -24.8460 C   0  0  0  0  0  0  0  0  0  0  0  0
  -17.5690    2.2800  -24.7240 N   0  0  0  0  0  0  0  0  0  0  0  0
  -17.7360    4.3730  -25.9370 N   0  0  0  0  0  0  0  0  0  0  0  0
  -17.6400    3.8730  -27.2720 C   0  0  0  0  0  0  0  0  0  0  0  0
  -16.9590    4.9560  -28.1130 C   0  0  0  0  0  0  0  0  0  0  0  0
  -16.5720    6.0360  -27.3480 O   0  0  0  0  0  0  0  0  0  0  0  0
  -17.5940    6.6380  -26.6570 C   0  0  0  0  0  0  0  0  0  0  0  0
  -18.3050    5.6680  -25.7200 C   0  0  0  0  0  0  0  0  0  0  0  0
  -15.2970    4.0430  -21.7890 N   0  0  0  0  0  0  0  0  0  0  0  0
  -14.0620    4.6980  -22.1200 C   0  0  0  0  0  0  0  0  0  0  0  0
  -13.0160    4.2170  -21.1270 C   0  0  0  0  0  0  0  0  0  0  0  0
  -13.4840    4.2540  -19.8190 O   0  0  0  0  0  0  0  0  0  0  0  0
  -14.5720    3.4400  -19.6030 C   0  0  0  0  0  0  0  0  0  0  0  0
  -15.7390    4.0020  -20.4240 C   0  0  0  0  0  0  0  0  0  0  0  0
  -19.7890   -0.4950  -30.5080 B   0  0  0  0  0  0  0  0  0  0  0  0
  -20.7120   -3.3500  -29.8510 O   0  0  0  0  0  0  0  0  0  0  0  0
  -18.3390    0.0810  -27.9590 H   0  0  0  0  0  0  0  0  0  0  0  0
  -19.3250   -4.4780  -25.2730 H   0  0  0  0  0  0  0  0  0  0  0  0
  -16.6510   -1.0770  -25.6960 H   0  0  0  0  0  0  0  0  0  0  0  0
  -17.1910   -0.4640  -22.8460 H   0  0  0  0  0  0  0  0  0  0  0  0
  -18.6760    3.7820  -27.6780 H   0  0  0  0  0  0  0  0  0  0  0  0
  -17.0900    2.9160  -27.3150 H   0  0  0  0  0  0  0  0  0  0  0  0
  -17.5610    5.2490  -28.9780 H   0  0  0  0  0  0  0  0  0  0  0  0
  -16.0220    4.4950  -28.5190 H   0  0  0  0  0  0  0  0  0  0  0  0
  -18.3180    7.1510  -27.3240 H   0  0  0  0  0  0  0  0  0  0  0  0
  -17.1480    7.4270  -26.0150 H   0  0  0  0  0  0  0  0  0  0  0  0
  -18.2050    5.9710  -24.6590 H   0  0  0  0  0  0  0  0  0  0  0  0
  -19.3880    5.7160  -25.9520 H   0  0  0  0  0  0  0  0  0  0  0  0
  -13.6730    4.4130  -23.1320 H   0  0  0  0  0  0  0  0  0  0  0  0
  -14.1340    5.7990  -22.0070 H   0  0  0  0  0  0  0  0  0  0  0  0
  -12.6680    3.2100  -21.4130 H   0  0  0  0  0  0  0  0  0  0  0  0
  -12.1480    4.9080  -21.1820 H   0  0  0  0  0  0  0  0  0  0  0  0
  -14.3640    2.4360  -20.0140 H   0  0  0  0  0  0  0  0  0  0  0  0
  -14.8010    3.4360  -18.5310 H   0  0  0  0  0  0  0  0  0  0  0  0
  -15.8530    5.0630  -20.0750 H   0  0  0  0  0  0  0  0  0  0  0  0
  -16.6550    3.4090  -20.2780 H   0  0  0  0  0  0  0  0  0  0  0  0
  -21.6990   -3.1680  -29.9190 H   0  0  0  0  0  0  0  0  0  0  0  0
  2  1  1  0  0  0  0
  2  7  1  0  0  0  0
  3  2  2  0  0  0  0
  4  3  1  0  0  0  0
  4  5  2  0  0  0  0
  5  6  1  0  0  0  0
  6  7  2  0  0  0  0
  6  9  1  0  0  0  0
  7  8  1  0  0  0  0
  8 33  1  0  0  0  0
  9 10  2  0  0  0  0
 10 11  1  0  0  0  0
 11 35  1  0  0  0  0
 12 11  1  0  0  0  0
 12 13  2  0  0  0  0
 14 13  2  0  0  0  0
 14 24  1  0  0  0  0
 15 14  1  0  0  0  0
 16 17  1  0  0  0  0
 16 15  2  0  0  0  0
 17 12  1  0  0  0  0
 18 23  1  0  0  0  0
 18 16  1  0  0  0  0
 19 18  1  0  0  0  0
 20 21  1  0  0  0  0
 20 19  1  0  0  0  0
 21 22  1  0  0  0  0
 22 41  1  0  0  0  0
 22 23  1  0  0  0  0
 23 42  1  0  0  0  0
 24 29  1  0  0  0  0
 25 45  1  0  0  0  0
 25 24  1  0  0  0  0
 25 26  1  0  0  0  0
 26 27  1  0  0  0  0
 27 28  1  0  0  0  0
 28 49  1  0  0  0  0
 29 51  1  0  0  0  0
 29 50  1  0  0  0  0
 29 28  1  0  0  0  0
 30  4  1  0  0  0  0
 31  3  1  0  0  0  0
 32  5  1  0  0  0  0
 34  9  1  0  0  0  0
 36 19  1  0  0  0  0
 37 19  1  0  0  0  0
 38 20  1  0  0  0  0
 39 20  1  0  0  0  0
 40 22  1  0  0  0  0
 43 23  1  0  0  0  0
 44 25  1  0  0  0  0
 46 26  1  0  0  0  0
 47 26  1  0  0  0  0
 48 28  1  0  0  0  0
 52 31  1  0  0  0  0
M  END
>  <Pose>
1

>  <Score>
-7.83

$$$$
