
 OpenBabel03222201593D

 58 61  0  0  0  0  0  0  0  0999 V2000
  -23.3670    1.3770  -33.4230 B   0  0  0  0  0  0  0  0  0  0  0  0
  -22.0710    0.8510  -34.7370 C   0  0  0  0  0  0  0  0  0  0  0  0
  -22.4950    0.4210  -35.9640 C   0  0  0  0  0  0  0  0  0  0  0  0
  -21.5530    0.0240  -36.9110 C   0  0  0  0  0  0  0  0  0  0  0  0
  -20.1990    0.0630  -36.6070 C   0  0  0  0  0  0  0  0  0  0  0  0
  -19.7650    0.4810  -35.3830 C   0  0  0  0  0  0  0  0  0  0  0  0
  -20.7200    0.8710  -34.4700 C   0  0  0  0  0  0  0  0  0  0  0  0
  -18.3800    0.3480  -34.8870 C   0  0  0  0  0  0  0  0  0  0  0  0
  -17.9790    0.2640  -33.8010 N   0  0  0  0  0  0  0  0  0  0  0  0
  -17.5050    0.1700  -32.5840 N   0  0  0  0  0  0  0  0  0  0  0  0
  -18.4480   -0.5910  -31.7310 C   0  0  0  0  0  0  0  0  0  0  0  0
  -18.5030   -0.4970  -30.4160 N   0  0  0  0  0  4  0  0  0  0  0  0
  -19.2510   -1.3700  -29.6810 C   0  0  0  0  0  0  0  0  0  0  0  0
  -19.9140   -2.3170  -30.3860 N   0  0  0  0  0  0  0  0  0  0  0  0
  -19.8970   -2.4600  -31.7250 C   0  0  0  0  0  0  0  0  0  0  0  0
  -19.1400   -1.5600  -32.3910 N   0  0  0  0  0  0  0  0  0  0  0  0
  -20.4790   -3.5420  -32.3620 N   0  0  0  0  0  0  0  0  0  0  0  0
  -21.8290   -3.7770  -32.7000 C   0  0  0  0  0  0  0  0  0  0  0  0
  -22.2580   -5.0330  -31.9360 C   0  0  0  0  0  0  0  0  0  0  0  0
  -21.3770   -6.0410  -32.2610 O   0  0  0  0  0  0  0  0  0  0  0  0
  -20.0630   -5.8170  -31.9200 C   0  0  0  0  0  0  0  0  0  0  0  0
  -19.5270   -4.6220  -32.7600 C   0  0  0  0  0  0  0  0  0  0  0  0
  -19.2680   -1.3570  -28.2670 N   0  0  0  0  0  0  0  0  0  0  0  0
  -18.8120   -0.1580  -27.5460 C   0  0  0  0  0  0  0  0  0  0  0  0
  -17.8710   -0.6950  -26.4370 C   0  0  0  0  0  0  0  0  0  0  0  0
  -18.6980   -1.3750  -25.5890 O   0  0  0  0  0  0  0  0  0  0  0  0
  -19.1990   -2.5340  -26.1110 C   0  0  0  0  0  0  0  0  0  0  0  0
  -19.6810   -2.4850  -27.5230 C   0  0  0  0  0  0  0  0  0  0  0  0
  -22.0600   -0.3820  -38.1060 O   0  0  0  0  0  0  0  0  0  0  0  0
  -21.6720   -1.4310  -38.9210 C   0  0  0  0  0  0  0  0  0  0  0  0
  -22.8450   -2.2810  -39.3880 C   0  0  0  0  0  0  0  0  0  0  0  0
  -23.8490    0.3950  -36.2180 O   0  0  0  0  0  0  0  0  0  0  0  0
  -19.4600   -0.2160  -37.3300 H   0  0  0  0  0  0  0  0  0  0  0  0
  -20.4380    1.2400  -33.5050 H   0  0  0  0  0  0  0  0  0  0  0  0
  -17.5880    0.3230  -35.6730 H   0  0  0  0  0  0  0  0  0  0  0  0
  -16.6690    0.4790  -32.1290 H   0  0  0  0  0  0  0  0  0  0  0  0
  -22.5490   -2.9760  -32.5450 H   0  0  0  0  0  0  0  0  0  0  0  0
  -21.8220   -4.0850  -33.8040 H   0  0  0  0  0  0  0  0  0  0  0  0
  -23.2470   -5.3440  -32.3580 H   0  0  0  0  0  0  0  0  0  0  0  0
  -22.3080   -4.7900  -30.8720 H   0  0  0  0  0  0  0  0  0  0  0  0
  -19.4540   -6.6620  -32.1990 H   0  0  0  0  0  0  0  0  0  0  0  0
  -19.8940   -5.6180  -30.8370 H   0  0  0  0  0  0  0  0  0  0  0  0
  -18.5370   -4.3800  -32.4510 H   0  0  0  0  0  0  0  0  0  0  0  0
  -19.6910   -4.8100  -33.8130 H   0  0  0  0  0  0  0  0  0  0  0  0
  -18.1960    0.4830  -28.1790 H   0  0  0  0  0  0  0  0  0  0  0  0
  -19.6310    0.4080  -27.1460 H   0  0  0  0  0  0  0  0  0  0  0  0
  -17.3940    0.1470  -25.9580 H   0  0  0  0  0  0  0  0  0  0  0  0
  -17.1390   -1.3550  -26.9700 H   0  0  0  0  0  0  0  0  0  0  0  0
  -20.0730   -2.8550  -25.4630 H   0  0  0  0  0  0  0  0  0  0  0  0
  -18.4570   -3.3490  -25.9840 H   0  0  0  0  0  0  0  0  0  0  0  0
  -20.7960   -2.5850  -27.5680 H   0  0  0  0  0  0  0  0  0  0  0  0
  -19.2460   -3.3900  -28.0560 H   0  0  0  0  0  0  0  0  0  0  0  0
  -21.2230   -0.9510  -39.8550 H   0  0  0  0  0  0  0  0  0  0  0  0
  -20.9340   -2.0790  -38.4650 H   0  0  0  0  0  0  0  0  0  0  0  0
  -23.7750   -2.0480  -38.8630 H   0  0  0  0  0  0  0  0  0  0  0  0
  -22.5760   -3.3610  -39.2560 H   0  0  0  0  0  0  0  0  0  0  0  0
  -23.0020   -2.1270  -40.4840 H   0  0  0  0  0  0  0  0  0  0  0  0
  -24.4860    1.0940  -35.9200 H   0  0  0  0  0  0  0  0  0  0  0  0
  2  7  1  0  0  0  0
  2  1  1  0  0  0  0
  3  2  2  0  0  0  0
  4  5  2  0  0  0  0
  4  3  1  0  0  0  0
  5  6  1  0  0  0  0
  6  8  1  0  0  0  0
  6  7  2  0  0  0  0
  7 34  1  0  0  0  0
  8  9  1  0  0  0  0
  9 10  1  0  0  0  0
 10 36  1  0  0  0  0
 10 11  1  0  0  0  0
 11 12  2  0  0  0  0
 12 13  2  0  0  0  0
 13 23  1  0  0  0  0
 14 13  1  0  0  0  0
 15 14  2  0  0  0  0
 16 11  1  0  0  0  0
 16 15  1  0  0  0  0
 17 15  1  0  0  0  0
 18 37  1  0  0  0  0
 18 17  1  0  0  0  0
 18 19  1  0  0  0  0
 19 40  1  0  0  0  0
 20 19  1  0  0  0  0
 20 21  1  0  0  0  0
 21 42  1  0  0  0  0
 22 43  1  0  0  0  0
 22 17  1  0  0  0  0
 22 21  1  0  0  0  0
 23 24  1  0  0  0  0
 23 28  1  0  0  0  0
 24 46  1  0  0  0  0
 24 25  1  0  0  0  0
 25 47  1  0  0  0  0
 25 26  1  0  0  0  0
 27 50  1  0  0  0  0
 27 26  1  0  0  0  0
 27 49  1  0  0  0  0
 28 27  1  0  0  0  0
 29  4  1  0  0  0  0
 30 54  1  0  0  0  0
 30 29  1  0  0  0  0
 31 56  1  0  0  0  0
 31 30  1  0  0  0  0
 31 55  1  0  0  0  0
 32  3  1  0  0  0  0
 32 58  1  0  0  0  0
 33  5  1  0  0  0  0
 35  8  1  0  0  0  0
 38 18  1  0  0  0  0
 39 19  1  0  0  0  0
 41 21  1  0  0  0  0
 44 22  1  0  0  0  0
 45 24  1  0  0  0  0
 48 25  1  0  0  0  0
 51 28  1  0  0  0  0
 52 28  1  0  0  0  0
 53 30  1  0  0  0  0
 57 31  1  0  0  0  0
M  END
>  <Pose>
1

>  <Score>
-7.10

$$$$
