
 OpenBabel03222201593D

 39 42  0  0  1  0  0  0  0  0999 V2000
  -24.1850    0.6070  -34.1370 B   0  0  0  0  0  0  0  0  0  0  0  0
  -22.4060   -0.0610  -34.1910 C   0  0  0  0  0  0  0  0  0  0  0  0
  -21.4410    0.6130  -34.8990 C   0  0  0  0  0  0  0  0  0  0  0  0
  -20.1590    0.1060  -34.9200 C   0  0  0  0  0  0  0  0  0  0  0  0
  -19.7810   -1.0480  -34.2690 C   0  0  0  0  0  0  0  0  0  0  0  0
  -20.7550   -1.7190  -33.5600 C   0  0  0  0  0  0  0  0  0  0  0  0
  -22.0430   -1.2340  -33.5220 C   0  0  0  0  0  0  0  0  0  0  0  0
  -20.4710   -2.9750  -32.8100 C   0  0  2  0  0  0  0  0  0  0  0  0
  -21.5640   -3.8460  -32.9320 N   0  0  0  0  0  4  0  0  0  0  0  0
  -22.0360   -4.5390  -31.7930 C   0  0  1  0  0  0  0  0  0  0  0  0
  -21.0570   -4.6580  -30.6570 C   0  0  0  0  0  0  0  0  0  0  0  0
  -20.3620   -3.3770  -30.3850 C   0  0  0  0  0  0  0  0  0  0  0  0
  -19.9120   -2.7970  -29.2300 C   0  0  0  0  0  0  0  0  0  0  0  0
  -19.3470   -1.5980  -29.6280 C   0  0  0  0  0  0  0  0  0  0  0  0
  -19.4630   -1.4800  -30.9780 N   0  0  0  0  0  0  0  0  0  0  0  0
  -20.0850   -2.5700  -31.4460 C   0  0  0  0  0  0  0  0  0  0  0  0
  -18.8090   -0.8050  -28.6370 C   0  0  0  0  0  0  0  0  0  0  0  0
  -18.8320   -1.1860  -27.3120 C   0  0  0  0  0  0  0  0  0  0  0  0
  -19.3950   -2.3820  -26.9170 C   0  0  0  0  0  0  0  0  0  0  0  0
  -19.9400   -3.1910  -27.9000 C   0  0  0  0  0  0  0  0  0  0  0  0
  -23.2860   -3.9510  -31.2370 C   0  0  0  0  0  0  0  0  0  0  0  0
  -24.3800   -4.6060  -31.3290 O   0  0  0  0  0  0  0  0  0  0  0  0
  -23.2490   -2.7050  -30.6320 O   0  0  0  0  0  0  0  0  0  0  0  0
  -18.8370    1.0570  -35.9100 B   0  0  0  0  0  0  0  0  0  0  0  0
  -21.7470    1.8010  -35.5930 O   0  0  0  0  0  0  0  0  0  0  0  0
  -18.7980   -1.4620  -34.2690 H   0  0  0  0  0  0  0  0  0  0  0  0
  -22.8610   -1.7040  -32.9850 H   0  0  0  0  0  0  0  0  0  0  0  0
  -19.5450   -3.4040  -33.2830 H   0  0  0  0  0  0  0  0  0  0  0  0
  -22.3940   -3.3760  -33.3950 H   0  0  0  0  0  0  0  0  0  0  0  0
  -21.3090   -4.5820  -33.6660 H   0  0  0  0  0  0  0  0  0  0  0  0
  -22.3200   -5.6050  -32.0510 H   0  0  0  0  0  0  0  0  0  0  0  0
  -20.2830   -5.4350  -30.8220 H   0  0  0  0  0  0  0  0  0  0  0  0
  -21.6080   -4.9400  -29.7350 H   0  0  0  0  0  0  0  0  0  0  0  0
  -19.0960   -0.6410  -31.4780 H   0  0  0  0  0  0  0  0  0  0  0  0
  -18.3630    0.1330  -28.9190 H   0  0  0  0  0  0  0  0  0  0  0  0
  -18.3990   -0.5480  -26.5250 H   0  0  0  0  0  0  0  0  0  0  0  0
  -19.3930   -2.6470  -25.8690 H   0  0  0  0  0  0  0  0  0  0  0  0
  -20.3890   -4.1340  -27.6180 H   0  0  0  0  0  0  0  0  0  0  0  0
  -21.0290    2.1990  -36.1830 H   0  0  0  0  0  0  0  0  0  0  0  0
  2  1  1  0  0  0  0
  2  7  1  0  0  0  0
  3  2  2  0  0  0  0
  4  3  1  0  0  0  0
  4  5  2  0  0  0  0
  5  6  1  0  0  0  0
  6  7  2  0  0  0  0
  6  8  1  0  0  0  0
  7 27  1  0  0  0  0
  8 28  1  6  0  0  0
  8 16  1  0  0  0  0
  9  8  1  0  0  0  0
  9 10  1  0  0  0  0
 10 31  1  6  0  0  0
 10 21  1  0  0  0  0
 10 11  1  0  0  0  0
 11 12  1  0  0  0  0
 11 33  1  0  0  0  0
 12 13  1  0  0  0  0
 13 20  1  0  0  0  0
 14 13  2  0  0  0  0
 14 17  1  0  0  0  0
 15 14  1  0  0  0  0
 16 15  1  0  0  0  0
 16 12  2  0  0  0  0
 17 18  2  0  0  0  0
 18 19  1  0  0  0  0
 18 36  1  0  0  0  0
 19 37  1  0  0  0  0
 20 38  1  0  0  0  0
 20 19  2  0  0  0  0
 21 23  1  0  0  0  0
 22 21  2  0  0  0  0
 24  4  1  0  0  0  0
 25  3  1  0  0  0  0
 26  5  1  0  0  0  0
 29  9  1  0  0  0  0
 30  9  1  0  0  0  0
 32 11  1  0  0  0  0
 34 15  1  0  0  0  0
 35 17  1  0  0  0  0
 39 25  1  0  0  0  0
M  END
>  <Pose>
1

>  <Score>
-4.74

$$$$
