
 OpenBabel03222201593D

 47 50  0  0  1  0  0  0  0  0999 V2000
  -20.4440   -4.6970  -29.0850 B   0  0  0  0  0  0  0  0  0  0  0  0
  -20.9240   -4.0300  -30.8210 C   0  0  0  0  0  0  0  0  0  0  0  0
  -20.4500   -2.8510  -31.2750 C   0  0  0  0  0  0  0  0  0  0  0  0
  -20.8640   -2.3380  -32.5390 C   0  0  0  0  0  0  0  0  0  0  0  0
  -21.7490   -3.0680  -33.2540 C   0  0  0  0  0  0  0  0  0  0  0  0
  -22.2310   -4.2660  -32.7660 C   0  0  0  0  0  0  0  0  0  0  0  0
  -21.8300   -4.7580  -31.5620 C   0  0  0  0  0  0  0  0  0  0  0  0
  -20.5860   -0.8970  -32.6970 C   0  0  0  0  0  0  0  0  0  0  0  0
  -21.2180   -0.1300  -33.6910 N   0  0  2  0  0  4  0  0  0  0  0  0
  -22.5830    0.0400  -33.7300 C   0  0  0  0  0  0  0  0  0  0  0  0
  -22.9920    0.9840  -34.7670 N   0  0  2  0  0  0  0  0  0  0  0  0
  -22.5100    0.4720  -36.0400 C   0  0  0  0  0  0  0  0  0  0  0  0
  -21.0790    0.2450  -36.0300 N   0  0  2  0  0  0  0  0  0  0  0  0
  -20.6480   -0.6100  -34.9960 C   0  0  0  0  0  0  0  0  0  0  0  0
  -20.4220    1.5310  -35.9200 C   0  0  0  0  0  0  0  0  0  0  0  0
  -20.9070    2.1440  -34.6300 C   0  0  2  0  0  0  0  0  0  0  0  0
  -20.5580    1.2130  -33.5290 C   0  0  0  0  0  0  0  0  0  0  0  0
  -22.4250    2.3000  -34.6010 C   0  0  0  0  0  0  0  0  0  0  0  0
  -19.5740   -2.1230  -30.5530 O   0  0  0  0  0  0  0  0  0  0  0  0
  -19.9580   -1.0450  -29.6750 C   0  0  0  0  0  0  0  0  0  0  0  0
  -19.3480   -1.0130  -28.3480 C   0  0  0  0  0  0  0  0  0  0  0  0
  -18.4700   -0.2400  -27.9940 O   0  0  0  0  0  0  0  0  0  0  0  0
  -19.8340   -1.9180  -27.3980 O   0  0  0  0  0  0  0  0  0  0  0  0
  -19.0660   -2.3820  -26.3190 C   0  0  0  0  0  0  0  0  0  0  0  0
  -22.1240   -2.6890  -34.2030 H   0  0  0  0  0  0  0  0  0  0  0  0
  -22.9710   -4.8220  -33.3850 H   0  0  0  0  0  0  0  0  0  0  0  0
  -22.1720   -5.7150  -31.2020 H   0  0  0  0  0  0  0  0  0  0  0  0
  -19.6080   -0.5580  -32.3410 H   0  0  0  0  0  0  0  0  0  0  0  0
  -21.2240   -0.4260  -31.7150 H   0  0  0  0  0  0  0  0  0  0  0  0
  -23.0030    0.2920  -32.7530 H   0  0  0  0  0  0  0  0  0  0  0  0
  -23.0490   -0.9340  -34.0350 H   0  0  0  0  0  0  0  0  0  0  0  0
  -22.6800    1.2690  -36.7980 H   0  0  0  0  0  0  0  0  0  0  0  0
  -23.0770   -0.4130  -36.3620 H   0  0  0  0  0  0  0  0  0  0  0  0
  -20.9440   -1.6470  -35.1890 H   0  0  0  0  0  0  0  0  0  0  0  0
  -19.5380   -0.5050  -34.8650 H   0  0  0  0  0  0  0  0  0  0  0  0
  -19.3270    1.3300  -35.7710 H   0  0  0  0  0  0  0  0  0  0  0  0
  -20.6260    2.1930  -36.7580 H   0  0  0  0  0  0  0  0  0  0  0  0
  -20.4070    3.1130  -34.4020 H   0  0  0  0  0  0  0  0  0  0  0  0
  -19.4710    0.9950  -33.4300 H   0  0  0  0  0  0  0  0  0  0  0  0
  -20.9500    1.5610  -32.5300 H   0  0  0  0  0  0  0  0  0  0  0  0
  -22.6960    2.9160  -35.4590 H   0  0  0  0  0  0  0  0  0  0  0  0
  -22.6670    2.7290  -33.6190 H   0  0  0  0  0  0  0  0  0  0  0  0
  -21.0920   -0.9930  -29.6690 H   0  0  0  0  0  0  0  0  0  0  0  0
  -19.6510   -0.0750  -30.1850 H   0  0  0  0  0  0  0  0  0  0  0  0
  -19.7160   -2.8250  -25.5350 H   0  0  0  0  0  0  0  0  0  0  0  0
  -18.4560   -1.5400  -25.9220 H   0  0  0  0  0  0  0  0  0  0  0  0
  -18.3920   -3.1750  -26.7500 H   0  0  0  0  0  0  0  0  0  0  0  0
  2  1  1  0  0  0  0
  3  2  1  0  0  0  0
  3 19  1  0  0  0  0
  4  3  2  0  0  0  0
  5  6  2  0  0  0  0
  5  4  1  0  0  0  0
  6  7  1  0  0  0  0
  7 27  1  0  0  0  0
  7  2  2  0  0  0  0
  8  4  1  0  0  0  0
  8 28  1  0  0  0  0
  8 29  1  0  0  0  0
  9 17  1  0  0  0  0
  9  8  1  1  0  0  0
 10  9  1  0  0  0  0
 10 30  1  0  0  0  0
 11 12  1  6  0  0  0
 11 18  1  0  0  0  0
 11 10  1  0  0  0  0
 13 12  1  1  0  0  0
 13 15  1  0  0  0  0
 13 14  1  0  0  0  0
 14 35  1  0  0  0  0
 14  9  1  0  0  0  0
 15 36  1  0  0  0  0
 15 16  1  0  0  0  0
 16 18  1  0  0  0  0
 16 38  1  1  0  0  0
 16 17  1  0  0  0  0
 17 39  1  0  0  0  0
 17 40  1  0  0  0  0
 18 42  1  0  0  0  0
 19 20  1  0  0  0  0
 20 43  1  0  0  0  0
 20 21  1  0  0  0  0
 21 22  2  0  0  0  0
 21 23  1  0  0  0  0
 23 24  1  0  0  0  0
 24 46  1  0  0  0  0
 24 45  1  0  0  0  0
 25  5  1  0  0  0  0
 26  6  1  0  0  0  0
 31 10  1  0  0  0  0
 32 12  1  0  0  0  0
 33 12  1  0  0  0  0
 34 14  1  0  0  0  0
 37 15  1  0  0  0  0
 41 18  1  0  0  0  0
 44 20  1  0  0  0  0
 47 24  1  0  0  0  0
M  END
>  <Pose>
1

>  <Score>
-5.29

$$$$
