
 OpenBabel03222201593D

 52 55  0  0  0  0  0  0  0  0999 V2000
  -21.0950    4.6790  -36.0080 B   0  0  0  0  0  0  0  0  0  0  0  0
  -20.2710    2.9950  -36.3250 C   0  0  0  0  0  0  0  0  0  0  0  0
  -20.3600    2.4520  -37.5970 C   0  0  0  0  0  0  0  0  0  0  0  0
  -19.7570    1.2260  -37.8020 C   0  0  0  0  0  0  0  0  0  0  0  0
  -19.1030    0.5780  -36.7860 C   0  0  0  0  0  0  0  0  0  0  0  0
  -18.9990    1.1050  -35.4990 C   0  0  0  0  0  0  0  0  0  0  0  0
  -19.6050    2.3280  -35.3140 C   0  0  0  0  0  0  0  0  0  0  0  0
  -18.2730    0.3800  -34.4770 C   0  0  0  0  0  0  0  0  0  0  0  0
  -18.7130    0.2730  -33.2700 N   0  0  0  0  0  0  0  0  0  0  0  0
  -18.0540   -0.4060  -32.2590 N   0  0  0  0  0  0  0  0  0  0  0  0
  -18.7780   -1.2180  -31.3430 C   0  0  0  0  0  0  0  0  0  0  0  0
  -19.5080   -2.2310  -31.7800 N   0  0  0  0  0  4  0  0  0  0  0  0
  -20.1990   -3.0660  -30.9850 C   0  0  0  0  0  0  0  0  0  0  0  0
  -20.1280   -2.8340  -29.6560 N   0  0  0  0  0  0  0  0  0  0  0  0
  -19.3960   -1.8070  -29.1460 C   0  0  0  0  0  0  0  0  0  0  0  0
  -18.7260   -1.0060  -30.0110 N   0  0  0  0  0  0  0  0  0  0  0  0
  -19.3180   -1.5860  -27.7560 N   0  0  0  0  0  0  0  0  0  0  0  0
  -20.0090   -2.4370  -26.8210 C   0  0  0  0  0  0  0  0  0  0  0  0
  -18.9360   -2.8950  -25.8220 C   0  0  0  0  0  0  0  0  0  0  0  0
  -18.2900   -1.7840  -25.3180 O   0  0  0  0  0  0  0  0  0  0  0  0
  -17.5020   -1.1890  -26.3010 C   0  0  0  0  0  0  0  0  0  0  0  0
  -18.5180   -0.5040  -27.2410 C   0  0  0  0  0  0  0  0  0  0  0  0
  -20.9750   -4.1580  -31.5060 N   0  0  0  0  0  0  0  0  0  0  0  0
  -21.0130   -5.4310  -30.8450 C   0  0  0  0  0  0  0  0  0  0  0  0
  -22.0310   -6.3950  -31.3170 C   0  0  0  0  0  0  0  0  0  0  0  0
  -22.5710   -6.1010  -32.5610 O   0  0  0  0  0  0  0  0  0  0  0  0
  -22.9750   -4.7760  -32.6560 C   0  0  0  0  0  0  0  0  0  0  0  0
  -21.7180   -3.9430  -32.7130 C   0  0  0  0  0  0  0  0  0  0  0  0
  -18.4970   -0.6640  -37.0000 O   0  0  0  0  0  0  0  0  0  0  0  0
  -21.0230    3.1010  -38.6360 O   0  0  0  0  0  0  0  0  0  0  0  0
  -19.8390    0.8120  -38.8120 H   0  0  0  0  0  0  0  0  0  0  0  0
  -19.5340    2.7570  -34.3030 H   0  0  0  0  0  0  0  0  0  0  0  0
  -17.3350   -0.0910  -34.7220 H   0  0  0  0  0  0  0  0  0  0  0  0
  -17.0350   -0.3260  -32.1650 H   0  0  0  0  0  0  0  0  0  0  0  0
  -20.7830   -1.8540  -26.2820 H   0  0  0  0  0  0  0  0  0  0  0  0
  -20.4480   -3.3330  -27.3280 H   0  0  0  0  0  0  0  0  0  0  0  0
  -19.4380   -3.4920  -25.0410 H   0  0  0  0  0  0  0  0  0  0  0  0
  -18.2360   -3.5430  -26.4050 H   0  0  0  0  0  0  0  0  0  0  0  0
  -17.0460   -2.0200  -26.9180 H   0  0  0  0  0  0  0  0  0  0  0  0
  -16.7650   -0.4970  -25.9010 H   0  0  0  0  0  0  0  0  0  0  0  0
  -19.1810    0.0960  -26.5530 H   0  0  0  0  0  0  0  0  0  0  0  0
  -18.0280    0.1080  -28.0040 H   0  0  0  0  0  0  0  0  0  0  0  0
  -19.9770   -5.8620  -30.9180 H   0  0  0  0  0  0  0  0  0  0  0  0
  -21.2110   -5.2170  -29.7490 H   0  0  0  0  0  0  0  0  0  0  0  0
  -22.8500   -6.5110  -30.5620 H   0  0  0  0  0  0  0  0  0  0  0  0
  -21.5510   -7.4040  -31.4030 H   0  0  0  0  0  0  0  0  0  0  0  0
  -23.6050   -4.6790  -33.5440 H   0  0  0  0  0  0  0  0  0  0  0  0
  -23.5240   -4.4280  -31.7410 H   0  0  0  0  0  0  0  0  0  0  0  0
  -22.0750   -2.8830  -32.7990 H   0  0  0  0  0  0  0  0  0  0  0  0
  -21.1140   -4.1540  -33.6210 H   0  0  0  0  0  0  0  0  0  0  0  0
  -18.8590   -1.4690  -36.4960 H   0  0  0  0  0  0  0  0  0  0  0  0
  -21.9570    2.8670  -38.9380 H   0  0  0  0  0  0  0  0  0  0  0  0
  2  1  1  0  0  0  0
  2  7  1  0  0  0  0
  3  2  2  0  0  0  0
  4  3  1  0  0  0  0
  4  5  2  0  0  0  0
  5  6  1  0  0  0  0
  6  7  2  0  0  0  0
  6  8  1  0  0  0  0
  7 32  1  0  0  0  0
  8  9  2  0  0  0  0
  9 10  1  0  0  0  0
 10 34  1  0  0  0  0
 10 11  1  0  0  0  0
 11 16  1  0  0  0  0
 12 11  2  0  0  0  0
 12 13  2  0  0  0  0
 13 14  1  0  0  0  0
 14 15  2  0  0  0  0
 15 17  1  0  0  0  0
 16 15  1  0  0  0  0
 17 22  1  0  0  0  0
 17 18  1  0  0  0  0
 18 35  1  0  0  0  0
 18 19  1  0  0  0  0
 19 20  1  0  0  0  0
 19 37  1  0  0  0  0
 21 40  1  0  0  0  0
 21 20  1  0  0  0  0
 22 41  1  0  0  0  0
 22 21  1  0  0  0  0
 23 13  1  0  0  0  0
 23 24  1  0  0  0  0
 24 44  1  0  0  0  0
 25 24  1  0  0  0  0
 25 45  1  0  0  0  0
 26 25  1  0  0  0  0
 27 26  1  0  0  0  0
 27 48  1  0  0  0  0
 28 27  1  0  0  0  0
 28 23  1  0  0  0  0
 29  5  1  0  0  0  0
 29 51  1  0  0  0  0
 30  3  1  0  0  0  0
 31  4  1  0  0  0  0
 33  8  1  0  0  0  0
 36 18  1  0  0  0  0
 38 19  1  0  0  0  0
 39 21  1  0  0  0  0
 42 22  1  0  0  0  0
 43 24  1  0  0  0  0
 46 25  1  0  0  0  0
 47 27  1  0  0  0  0
 49 28  1  0  0  0  0
 50 28  1  0  0  0  0
 52 30  1  0  0  0  0
M  END
>  <Pose>
1

>  <Score>
-7.10

$$$$
