
 OpenBabel03222201593D

 52 55  0  0  0  0  0  0  0  0999 V2000
  -21.7690   -2.7650  -33.6110 B   0  0  0  0  0  0  0  0  0  0  0  0
  -21.3650   -1.4300  -34.9100 C   0  0  0  0  0  0  0  0  0  0  0  0
  -22.0720   -1.3700  -36.0970 C   0  0  0  0  0  0  0  0  0  0  0  0
  -21.7580   -0.3890  -37.0260 C   0  0  0  0  0  0  0  0  0  0  0  0
  -20.7490    0.5080  -36.7550 C   0  0  0  0  0  0  0  0  0  0  0  0
  -20.0640    0.4150  -35.5530 C   0  0  0  0  0  0  0  0  0  0  0  0
  -20.3540   -0.5460  -34.6150 C   0  0  0  0  0  0  0  0  0  0  0  0
  -19.6090   -0.6090  -33.3820 C   0  0  0  0  0  0  0  0  0  0  0  0
  -18.3230   -0.7080  -33.3060 N   0  0  0  0  0  0  0  0  0  0  0  0
  -17.6760   -0.7630  -32.0400 N   0  0  0  0  0  0  0  0  0  0  0  0
  -18.3930   -0.9870  -30.8470 C   0  0  0  0  0  0  0  0  0  0  0  0
  -18.3550   -0.0680  -29.8770 N   0  0  0  0  0  4  0  0  0  0  0  0
  -19.0180   -0.2280  -28.7010 C   0  0  0  0  0  0  0  0  0  0  0  0
  -19.7350   -1.3470  -28.5090 N   0  0  0  0  0  0  0  0  0  0  0  0
  -19.7930   -2.2880  -29.4630 C   0  0  0  0  0  0  0  0  0  0  0  0
  -19.1130   -2.0920  -30.6320 N   0  0  0  0  0  0  0  0  0  0  0  0
  -20.5540   -3.4800  -29.2690 N   0  0  0  0  0  0  0  0  0  0  0  0
  -20.6580   -4.1620  -28.0010 C   0  0  0  0  0  0  0  0  0  0  0  0
  -20.4730   -5.6540  -28.1760 C   0  0  0  0  0  0  0  0  0  0  0  0
  -20.2270   -6.0080  -29.4940 O   0  0  0  0  0  0  0  0  0  0  0  0
  -21.2950   -5.5580  -30.2940 C   0  0  0  0  0  0  0  0  0  0  0  0
  -21.2600   -4.0460  -30.4010 C   0  0  0  0  0  0  0  0  0  0  0  0
  -18.9140    0.8040  -27.7460 N   0  0  0  0  0  0  0  0  0  0  0  0
  -18.5250    0.4830  -26.4000 C   0  0  0  0  0  0  0  0  0  0  0  0
  -17.2880    1.3520  -26.1210 C   0  0  0  0  0  0  0  0  0  0  0  0
  -17.7320    2.6710  -26.2140 O   0  0  0  0  0  0  0  0  0  0  0  0
  -18.0580    3.0220  -27.5200 C   0  0  0  0  0  0  0  0  0  0  0  0
  -19.1920    2.1820  -28.0730 C   0  0  0  0  0  0  0  0  0  0  0  0
  -20.4680    1.4710  -37.7110 O   0  0  0  0  0  0  0  0  0  0  0  0
  -23.0830   -2.2730  -36.3650 O   0  0  0  0  0  0  0  0  0  0  0  0
  -22.3220   -0.3570  -37.9490 H   0  0  0  0  0  0  0  0  0  0  0  0
  -19.2850    1.1510  -35.4040 H   0  0  0  0  0  0  0  0  0  0  0  0
  -20.1290   -0.5740  -32.4250 H   0  0  0  0  0  0  0  0  0  0  0  0
  -16.6450   -0.6390  -31.9750 H   0  0  0  0  0  0  0  0  0  0  0  0
  -21.7150   -4.0070  -27.6360 H   0  0  0  0  0  0  0  0  0  0  0  0
  -19.9490   -3.7800  -27.2410 H   0  0  0  0  0  0  0  0  0  0  0  0
  -21.3800   -6.2270  -27.8530 H   0  0  0  0  0  0  0  0  0  0  0  0
  -19.5880   -6.0110  -27.5810 H   0  0  0  0  0  0  0  0  0  0  0  0
  -21.1540   -6.0240  -31.2950 H   0  0  0  0  0  0  0  0  0  0  0  0
  -22.2820   -5.8950  -29.8650 H   0  0  0  0  0  0  0  0  0  0  0  0
  -22.2850   -3.6450  -30.3810 H   0  0  0  0  0  0  0  0  0  0  0  0
  -20.7430   -3.7670  -31.3650 H   0  0  0  0  0  0  0  0  0  0  0  0
  -18.2650   -0.5930  -26.3130 H   0  0  0  0  0  0  0  0  0  0  0  0
  -19.3530    0.7690  -25.7110 H   0  0  0  0  0  0  0  0  0  0  0  0
  -16.8560    1.1770  -25.1380 H   0  0  0  0  0  0  0  0  0  0  0  0
  -16.5780    1.1150  -26.9600 H   0  0  0  0  0  0  0  0  0  0  0  0
  -17.1890    3.0360  -28.1980 H   0  0  0  0  0  0  0  0  0  0  0  0
  -18.4600    4.0640  -27.4660 H   0  0  0  0  0  0  0  0  0  0  0  0
  -20.1280    2.4810  -27.5330 H   0  0  0  0  0  0  0  0  0  0  0  0
  -19.2710    2.3580  -29.1590 H   0  0  0  0  0  0  0  0  0  0  0  0
  -19.9340    1.2990  -38.5520 H   0  0  0  0  0  0  0  0  0  0  0  0
  -22.8680   -3.0770  -36.9400 H   0  0  0  0  0  0  0  0  0  0  0  0
  2  7  1  0  0  0  0
  2  1  1  0  0  0  0
  3  2  2  0  0  0  0
  4  5  2  0  0  0  0
  4  3  1  0  0  0  0
  5  6  1  0  0  0  0
  6 32  1  0  0  0  0
  6  7  2  0  0  0  0
  7  8  1  0  0  0  0
  8  9  2  0  0  0  0
  8 33  1  0  0  0  0
  9 10  1  0  0  0  0
 10 34  1  0  0  0  0
 10 11  1  0  0  0  0
 11 16  1  0  0  0  0
 11 12  2  0  0  0  0
 12 13  2  0  0  0  0
 13 14  1  0  0  0  0
 13 23  1  0  0  0  0
 15 17  1  0  0  0  0
 15 14  2  0  0  0  0
 16 15  1  0  0  0  0
 17 18  1  0  0  0  0
 18 35  1  0  0  0  0
 18 36  1  0  0  0  0
 19 18  1  0  0  0  0
 19 37  1  0  0  0  0
 19 38  1  0  0  0  0
 20 19  1  0  0  0  0
 21 40  1  0  0  0  0
 21 20  1  0  0  0  0
 22 41  1  0  0  0  0
 22 21  1  0  0  0  0
 22 17  1  0  0  0  0
 23 24  1  0  0  0  0
 24 43  1  0  0  0  0
 24 25  1  0  0  0  0
 24 44  1  0  0  0  0
 25 45  1  0  0  0  0
 26 25  1  0  0  0  0
 27 48  1  0  0  0  0
 27 26  1  0  0  0  0
 28 23  1  0  0  0  0
 28 49  1  0  0  0  0
 28 27  1  0  0  0  0
 29  5  1  0  0  0  0
 30  3  1  0  0  0  0
 31  4  1  0  0  0  0
 39 21  1  0  0  0  0
 42 22  1  0  0  0  0
 46 25  1  0  0  0  0
 47 27  1  0  0  0  0
 50 28  1  0  0  0  0
 51 29  1  0  0  0  0
 52 30  1  0  0  0  0
M  END
>  <Pose>
1

>  <Score>
-7.30

$$$$
