
 OpenBabel03222201593D

 46 49  0  0  1  0  0  0  0  0999 V2000
  -21.2120   -4.4050  -31.1390 B   0  0  0  0  0  0  0  0  0  0  0  0
  -20.4370   -3.2390  -29.8460 C   0  0  0  0  0  0  0  0  0  0  0  0
  -20.2380   -3.7160  -28.5560 C   0  0  0  0  0  0  0  0  0  0  0  0
  -19.6780   -2.8610  -27.6460 C   0  0  0  0  0  0  0  0  0  0  0  0
  -19.2990   -1.5640  -27.9130 C   0  0  0  0  0  0  0  0  0  0  0  0
  -19.5150   -1.1230  -29.2210 C   0  0  0  0  0  0  0  0  0  0  0  0
  -20.0770   -1.9480  -30.1750 C   0  0  0  0  0  0  0  0  0  0  0  0
  -18.7200   -0.6890  -26.9540 N   0  0  0  0  0  0  0  0  0  0  0  0
  -18.4470    0.7080  -27.1980 C   0  0  0  0  0  0  0  0  0  0  0  0
  -18.6360    1.3060  -25.8210 C   0  0  1  0  0  0  0  0  0  0  0  0
  -17.8790    0.3090  -24.9610 C   0  0  0  0  0  0  0  0  0  0  0  0
  -18.2960   -0.9530  -25.6290 C   0  0  0  0  0  0  0  0  0  0  0  0
  -18.2700   -2.0790  -25.0870 O   0  0  0  0  0  0  0  0  0  0  0  0
  -18.0650    2.6660  -25.7200 C   0  0  0  0  0  0  0  0  0  0  0  0
  -17.1010    2.9120  -24.9570 O   0  0  0  0  0  0  0  0  0  0  0  0
  -18.6220    3.7000  -26.5010 N   0  0  0  0  0  0  0  0  0  0  0  0
  -18.0000    5.0000  -26.5570 C   0  0  0  0  0  0  0  0  0  0  0  0
  -17.3250    5.2190  -27.8670 C   0  0  0  0  0  0  0  0  0  0  0  0
  -17.8330    5.8170  -28.9740 N   0  0  0  0  0  0  0  0  0  0  0  0
  -16.9050    5.8190  -29.9460 C   0  0  0  0  0  0  0  0  0  0  0  0
  -15.8200    5.2080  -29.4060 N   0  0  0  0  0  0  0  0  0  0  0  0
  -16.0690    4.8480  -28.1630 N   0  0  0  0  0  0  0  0  0  0  0  0
  -17.4340    6.4740  -31.1870 C   0  0  0  0  0  0  0  0  0  0  0  0
  -18.9220    6.5110  -30.9190 C   0  0  0  0  0  0  0  0  0  0  0  0
  -19.0660    6.4450  -29.4130 C   0  0  0  0  0  0  0  0  0  0  0  0
  -20.6380   -5.1130  -28.2320 C   0  0  0  0  0  0  0  0  0  0  0  0
  -19.5270   -3.2540  -26.6330 H   0  0  0  0  0  0  0  0  0  0  0  0
  -19.2560   -0.1260  -29.5420 H   0  0  0  0  0  0  0  0  0  0  0  0
  -20.2500   -1.6230  -31.1900 H   0  0  0  0  0  0  0  0  0  0  0  0
  -17.3900    0.7810  -27.5450 H   0  0  0  0  0  0  0  0  0  0  0  0
  -19.1410    1.1560  -27.9390 H   0  0  0  0  0  0  0  0  0  0  0  0
  -19.7140    1.2550  -25.5910 H   0  0  0  0  0  0  0  0  0  0  0  0
  -18.3060    0.3930  -23.9410 H   0  0  0  0  0  0  0  0  0  0  0  0
  -16.8030    0.4760  -24.9960 H   0  0  0  0  0  0  0  0  0  0  0  0
  -19.4870    3.5360  -27.0450 H   0  0  0  0  0  0  0  0  0  0  0  0
  -18.7180    5.8220  -26.3830 H   0  0  0  0  0  0  0  0  0  0  0  0
  -17.2280    5.0980  -25.7450 H   0  0  0  0  0  0  0  0  0  0  0  0
  -16.9920    7.4750  -31.2850 H   0  0  0  0  0  0  0  0  0  0  0  0
  -17.2920    5.8280  -32.0790 H   0  0  0  0  0  0  0  0  0  0  0  0
  -19.4610    5.6810  -31.4260 H   0  0  0  0  0  0  0  0  0  0  0  0
  -19.3140    7.4490  -31.3470 H   0  0  0  0  0  0  0  0  0  0  0  0
  -19.9450    5.8610  -29.0950 H   0  0  0  0  0  0  0  0  0  0  0  0
  -19.1820    7.4820  -29.0370 H   0  0  0  0  0  0  0  0  0  0  0  0
  -20.5060   -5.2970  -27.1490 H   0  0  0  0  0  0  0  0  0  0  0  0
  -21.6650   -5.3320  -28.5820 H   0  0  0  0  0  0  0  0  0  0  0  0
  -19.8820   -5.7680  -28.7410 H   0  0  0  0  0  0  0  0  0  0  0  0
  1  2  1  0  0  0  0
  2  3  1  0  0  0  0
  3 26  1  0  0  0  0
  3  4  2  0  0  0  0
  4 27  1  0  0  0  0
  5  4  1  0  0  0  0
  5  8  1  0  0  0  0
  6  5  2  0  0  0  0
  7  2  2  0  0  0  0
  7  6  1  0  0  0  0
  8 12  1  0  0  0  0
  9  8  1  0  0  0  0
  9 10  1  0  0  0  0
 10 14  1  0  0  0  0
 10 32  1  1  0  0  0
 10 11  1  0  0  0  0
 11 33  1  0  0  0  0
 12 13  2  0  0  0  0
 12 11  1  0  0  0  0
 14 15  2  0  0  0  0
 16 14  1  0  0  0  0
 17 16  1  0  0  0  0
 17 36  1  0  0  0  0
 17 37  1  0  0  0  0
 18 17  1  0  0  0  0
 19 18  1  0  0  0  0
 20 21  2  0  0  0  0
 20 19  1  0  0  0  0
 21 22  1  0  0  0  0
 22 18  2  0  0  0  0
 23 24  1  0  0  0  0
 23 20  1  0  0  0  0
 24 25  1  0  0  0  0
 25 42  1  0  0  0  0
 25 43  1  0  0  0  0
 25 19  1  0  0  0  0
 26 44  1  0  0  0  0
 28  6  1  0  0  0  0
 29  7  1  0  0  0  0
 30  9  1  0  0  0  0
 31  9  1  0  0  0  0
 34 11  1  0  0  0  0
 35 16  1  0  0  0  0
 38 23  1  0  0  0  0
 39 23  1  0  0  0  0
 40 24  1  0  0  0  0
 41 24  1  0  0  0  0
 45 26  1  0  0  0  0
 46 26  1  0  0  0  0
M  END
>  <Pose>
1

>  <Score>
-6.76

$$$$
