
 OpenBabel03222201593D

 41 43  0  0  1  0  0  0  0  0999 V2000
  -20.8830   -3.3790  -32.6460 B   0  0  0  0  0  0  0  0  0  0  0  0
  -19.9840   -2.3390  -31.3020 C   0  0  0  0  0  0  0  0  0  0  0  0
  -19.0450   -1.4080  -31.7710 C   0  0  0  0  0  0  0  0  0  0  0  0
  -18.4170   -0.6750  -30.7860 C   0  0  0  0  0  0  0  0  0  0  0  0
  -18.7070   -0.8610  -29.4330 C   0  0  0  0  0  0  0  0  0  0  0  0
  -19.6310   -1.7790  -28.9980 C   0  0  0  0  0  0  0  0  0  0  0  0
  -20.2650   -2.5150  -29.9690 C   0  0  0  0  0  0  0  0  0  0  0  0
  -19.9280   -1.9620  -27.5450 C   0  0  0  0  0  0  0  0  0  0  0  0
  -18.8000   -1.2730  -33.1570 N   0  0  0  0  0  0  0  0  0  0  0  0
  -19.5340   -0.5580  -34.1040 C   0  0  0  0  0  0  0  0  0  0  0  0
  -19.2120    0.5900  -34.4410 O   0  0  0  0  0  0  0  0  0  0  0  0
  -20.7210   -1.1900  -34.7140 C   0  0  0  0  0  0  0  0  0  0  0  0
  -21.8970   -0.3860  -34.7710 N   0  0  1  0  0  4  0  0  0  0  0  0
  -23.0470   -1.2920  -34.9130 C   0  0  0  0  0  0  0  0  0  0  0  0
  -24.2580   -0.5600  -34.3900 C   0  0  0  0  0  0  0  0  0  0  0  0
  -24.1130    0.8260  -34.8340 N   0  0  1  0  0  0  0  0  0  0  0  0
  -23.1940    1.4450  -33.8840 C   0  0  0  0  0  0  0  0  0  0  0  0
  -22.0860    0.4450  -33.5840 C   0  0  0  0  0  0  0  0  0  0  0  0
  -23.4510    0.8440  -36.1290 C   0  0  0  0  0  0  0  0  0  0  0  0
  -21.9680    0.4960  -35.9180 C   0  0  0  0  0  0  0  0  0  0  0  0
  -17.6750    0.0660  -31.0640 H   0  0  0  0  0  0  0  0  0  0  0  0
  -18.2000   -0.2730  -28.6660 H   0  0  0  0  0  0  0  0  0  0  0  0
  -21.0020   -3.2510  -29.6600 H   0  0  0  0  0  0  0  0  0  0  0  0
  -20.3650   -2.9640  -27.3490 H   0  0  0  0  0  0  0  0  0  0  0  0
  -20.6220   -1.2070  -27.1690 H   0  0  0  0  0  0  0  0  0  0  0  0
  -18.9440   -1.9550  -27.0290 H   0  0  0  0  0  0  0  0  0  0  0  0
  -17.9420   -1.7840  -33.5230 H   0  0  0  0  0  0  0  0  0  0  0  0
  -21.0110   -2.1200  -34.1370 H   0  0  0  0  0  0  0  0  0  0  0  0
  -20.5200   -1.5290  -35.7620 H   0  0  0  0  0  0  0  0  0  0  0  0
  -23.1140   -1.5410  -35.9870 H   0  0  0  0  0  0  0  0  0  0  0  0
  -22.8490   -2.2310  -34.3560 H   0  0  0  0  0  0  0  0  0  0  0  0
  -24.2500   -0.6350  -33.2900 H   0  0  0  0  0  0  0  0  0  0  0  0
  -25.2080   -0.9880  -34.8210 H   0  0  0  0  0  0  0  0  0  0  0  0
  -23.7300    1.6220  -32.9290 H   0  0  0  0  0  0  0  0  0  0  0  0
  -22.7630    2.3930  -34.2870 H   0  0  0  0  0  0  0  0  0  0  0  0
  -21.1760    1.0280  -33.4310 H   0  0  0  0  0  0  0  0  0  0  0  0
  -22.3310   -0.2290  -32.7490 H   0  0  0  0  0  0  0  0  0  0  0  0
  -23.9630    0.1200  -36.7770 H   0  0  0  0  0  0  0  0  0  0  0  0
  -23.5470    1.8620  -36.5650 H   0  0  0  0  0  0  0  0  0  0  0  0
  -21.4630    1.4640  -35.6950 H   0  0  0  0  0  0  0  0  0  0  0  0
  -21.6330    0.0290  -36.8490 H   0  0  0  0  0  0  0  0  0  0  0  0
  1  2  1  0  0  0  0
  2  7  1  0  0  0  0
  3  2  2  0  0  0  0
  3  4  1  0  0  0  0
  4  5  2  0  0  0  0
  5  6  1  0  0  0  0
  5 22  1  0  0  0  0
  6  8  1  0  0  0  0
  7 23  1  0  0  0  0
  7  6  2  0  0  0  0
  8 24  1  0  0  0  0
  8 25  1  0  0  0  0
  8 26  1  0  0  0  0
  9  3  1  0  0  0  0
 10  9  1  0  0  0  0
 11 10  2  0  0  0  0
 12 28  1  0  0  0  0
 12 10  1  0  0  0  0
 13 12  1  1  0  0  0
 13 18  1  0  0  0  0
 14 13  1  0  0  0  0
 14 15  1  0  0  0  0
 14 31  1  0  0  0  0
 15 32  1  0  0  0  0
 16 19  1  6  0  0  0
 16 15  1  0  0  0  0
 16 17  1  0  0  0  0
 17 18  1  0  0  0  0
 17 34  1  0  0  0  0
 18 36  1  0  0  0  0
 18 37  1  0  0  0  0
 19 20  1  0  0  0  0
 20 40  1  0  0  0  0
 20 13  1  0  0  0  0
 21  4  1  0  0  0  0
 27  9  1  0  0  0  0
 29 12  1  0  0  0  0
 30 14  1  0  0  0  0
 33 15  1  0  0  0  0
 35 17  1  0  0  0  0
 38 19  1  0  0  0  0
 39 19  1  0  0  0  0
 41 20  1  0  0  0  0
M  END
>  <Pose>
1

>  <Score>
-5.11

$$$$
