
 OpenBabel03222201593D

 33 36  0  0  1  0  0  0  0  0999 V2000
  -23.9380   -3.2620  -38.6230 B   0  0  0  0  0  0  0  0  0  0  0  0
  -22.8460   -1.8780  -39.3540 C   0  0  0  0  0  0  0  0  0  0  0  0
  -22.3210   -0.8810  -38.5710 C   0  0  0  0  0  0  0  0  0  0  0  0
  -21.5440    0.1030  -39.1340 C   0  0  0  0  0  0  0  0  0  0  0  0
  -21.2680    0.1200  -40.4940 C   0  0  0  0  0  0  0  0  0  0  0  0
  -21.7840   -0.8680  -41.2980 C   0  0  0  0  0  0  0  0  0  0  0  0
  -22.5730   -1.8660  -40.7160 C   0  0  0  0  0  0  0  0  0  0  0  0
  -22.5560   -0.8220  -37.1050 C   0  0  1  0  0  0  0  0  0  0  0  0
  -21.9190    0.2010  -36.4000 C   0  0  1  0  0  0  0  0  0  0  0  0
  -22.0160    1.6820  -36.2870 C   0  0  0  0  0  0  0  0  0  0  0  0
  -22.8940    1.6470  -35.0900 N   0  0  0  0  0  0  0  0  0  0  0  0
  -23.7450    0.6830  -35.2520 C   0  0  1  0  0  0  0  0  0  0  0  0
  -23.4700    0.0820  -36.5190 C   0  0  2  0  0  0  0  0  0  0  0  0
  -24.1420    0.9120  -37.5640 C   0  0  0  0  0  0  0  0  0  0  0  0
  -24.6910    1.5480  -38.3960 N   0  0  0  0  0  0  0  0  0  0  0  0
  -24.7750    0.3010  -34.3130 N   0  0  0  0  0  0  0  0  0  0  0  0
  -20.7590    2.1730  -35.9160 O   0  0  0  0  0  0  0  0  0  0  0  0
  -20.4500    3.1950  -36.7920 C   0  0  0  0  0  0  0  0  0  0  0  0
  -21.8230    3.6570  -37.2490 C   0  0  0  0  0  0  0  0  0  0  0  0
  -22.4720    2.3990  -37.3180 O   0  0  0  0  0  0  0  0  0  0  0  0
  -21.3480   -0.2770  -35.0900 C   0  0  0  0  0  0  0  0  0  0  0  0
  -20.8990   -0.6730  -34.0720 N   0  0  0  0  0  0  0  0  0  0  0  0
  -21.0970    0.9260  -38.5550 H   0  0  0  0  0  0  0  0  0  0  0  0
  -20.6620    0.8810  -40.9510 H   0  0  0  0  0  0  0  0  0  0  0  0
  -21.5810   -0.8720  -42.3390 H   0  0  0  0  0  0  0  0  0  0  0  0
  -23.0010   -2.6690  -41.3120 H   0  0  0  0  0  0  0  0  0  0  0  0
  -22.5870   -1.8740  -36.7040 H   0  0  0  0  0  0  0  0  0  0  0  0
  -24.6020   -0.4260  -33.5930 H   0  0  0  0  0  0  0  0  0  0  0  0
  -25.7100    0.7490  -34.3410 H   0  0  0  0  0  0  0  0  0  0  0  0
  -19.9000    2.7670  -37.6570 H   0  0  0  0  0  0  0  0  0  0  0  0
  -19.8740    4.0110  -36.3050 H   0  0  0  0  0  0  0  0  0  0  0  0
  -22.2940    4.2880  -36.4640 H   0  0  0  0  0  0  0  0  0  0  0  0
  -21.8070    4.1600  -38.2240 H   0  0  0  0  0  0  0  0  0  0  0  0
  2  1  1  0  0  0  0
  2  3  1  0  0  0  0
  3  8  1  0  0  0  0
  4  3  2  0  0  0  0
  4 23  1  0  0  0  0
  5  4  1  0  0  0  0
  6  7  1  0  0  0  0
  6  5  2  0  0  0  0
  7  2  2  0  0  0  0
  8 27  1  1  0  0  0
  8 13  1  0  0  0  0
  8  9  1  0  0  0  0
  9 10  1  0  0  0  0
  9 21  1  1  0  0  0
 10 17  1  0  0  0  0
 10 11  1  0  0  0  0
 12 11  1  0  0  0  0
 12 16  1  1  0  0  0
 13 14  1  6  0  0  0
 13  9  1  0  0  0  0
 13 12  1  0  0  0  0
 15 14  3  0  0  0  0
 16 28  1  0  0  0  0
 18 31  1  0  0  0  0
 18 17  1  0  0  0  0
 19 18  1  0  0  0  0
 19 32  1  0  0  0  0
 20 19  1  0  0  0  0
 20 10  1  0  0  0  0
 21 22  3  0  0  0  0
 24  5  1  0  0  0  0
 25  6  1  0  0  0  0
 26  7  1  0  0  0  0
 29 16  1  0  0  0  0
 30 18  1  0  0  0  0
 33 19  1  0  0  0  0
M  END
>  <Pose>
1

>  <Score>
-4.98

$$$$
