
 OpenBabel03222201593D

 40 43  0  0  0  0  0  0  0  0999 V2000
  -17.5360    2.7170  -27.0760 B   0  0  0  0  0  0  0  0  0  0  0  0
  -16.9020    2.8250  -25.2780 C   0  0  0  0  0  0  0  0  0  0  0  0
  -17.1940    2.0300  -24.2180 C   0  0  0  0  0  0  0  0  0  0  0  0
  -16.5140    2.5080  -23.1200 N   0  0  0  0  0  0  0  0  0  0  0  0
  -15.8400    3.5530  -23.5210 N   0  0  0  0  0  0  0  0  0  0  0  0
  -16.0170    3.8160  -24.8110 C   0  0  0  0  0  0  0  0  0  0  0  0
  -16.5420    1.9580  -21.7900 C   0  0  0  0  0  0  0  0  0  0  0  0
  -18.0550    0.8310  -24.1610 C   0  0  0  0  0  0  0  0  0  0  0  0
  -19.1810    0.9650  -23.5510 O   0  0  0  0  0  0  0  0  0  0  0  0
  -17.7120   -0.3970  -24.7200 N   0  0  0  0  0  0  0  0  0  0  0  0
  -18.1320   -0.8690  -25.9890 C   0  0  0  0  0  0  0  0  0  0  0  0
  -18.8410   -2.0870  -26.0160 C   0  0  0  0  0  0  0  0  0  0  0  0
  -19.2090   -2.9220  -25.0070 N   0  0  0  0  0  0  0  0  0  0  0  0
  -19.8480   -3.9150  -25.5460 O   0  0  0  0  0  0  0  0  0  0  0  0
  -19.9130   -3.7710  -26.8330 N   0  0  0  0  0  0  0  0  0  0  0  0
  -19.2950   -2.6370  -27.1870 C   0  0  0  0  0  0  0  0  0  0  0  0
  -19.0890   -2.0380  -28.4130 C   0  0  0  0  0  0  0  0  0  0  0  0
  -18.3930   -0.8440  -28.3820 C   0  0  0  0  0  0  0  0  0  0  0  0
  -17.9270   -0.2760  -27.1980 C   0  0  0  0  0  0  0  0  0  0  0  0
  -19.5470   -2.5900  -29.6230 N   0  0  0  0  0  0  0  0  0  0  0  0
  -19.4890   -1.7670  -30.8280 C   0  0  0  0  0  0  0  0  0  0  0  0
  -20.1720   -2.4340  -31.9890 C   0  0  0  0  0  0  0  0  0  0  0  0
  -21.3170   -3.1020  -31.7040 O   0  0  0  0  0  0  0  0  0  0  0  0
  -21.4510   -3.6710  -30.4720 C   0  0  0  0  0  0  0  0  0  0  0  0
  -20.0850   -3.8960  -29.8580 C   0  0  0  0  0  0  0  0  0  0  0  0
  -15.6160    4.5860  -25.4350 H   0  0  0  0  0  0  0  0  0  0  0  0
  -16.3430    0.8620  -21.8220 H   0  0  0  0  0  0  0  0  0  0  0  0
  -17.5420    2.1070  -21.3470 H   0  0  0  0  0  0  0  0  0  0  0  0
  -15.8040    2.4830  -21.1670 H   0  0  0  0  0  0  0  0  0  0  0  0
  -17.0920   -1.0150  -24.1140 H   0  0  0  0  0  0  0  0  0  0  0  0
  -18.2200   -0.3580  -29.3310 H   0  0  0  0  0  0  0  0  0  0  0  0
  -17.3950    0.6510  -27.2490 H   0  0  0  0  0  0  0  0  0  0  0  0
  -19.9840   -0.7850  -30.6700 H   0  0  0  0  0  0  0  0  0  0  0  0
  -18.4310   -1.5710  -31.1240 H   0  0  0  0  0  0  0  0  0  0  0  0
  -20.4230   -1.6160  -32.7210 H   0  0  0  0  0  0  0  0  0  0  0  0
  -19.4030   -3.0570  -32.5210 H   0  0  0  0  0  0  0  0  0  0  0  0
  -21.9920   -2.9430  -29.8130 H   0  0  0  0  0  0  0  0  0  0  0  0
  -22.0070   -4.6370  -30.4730 H   0  0  0  0  0  0  0  0  0  0  0  0
  -19.4420   -4.3460  -30.6750 H   0  0  0  0  0  0  0  0  0  0  0  0
  -20.0750   -4.6070  -29.0540 H   0  0  0  0  0  0  0  0  0  0  0  0
  1  2  1  0  0  0  0
  2  6  1  0  0  0  0
  2  3  2  0  0  0  0
  3  8  1  0  0  0  0
  3  4  1  0  0  0  0
  4  7  1  0  0  0  0
  5  4  1  0  0  0  0
  6  5  2  0  0  0  0
  7 28  1  0  0  0  0
  7 29  1  0  0  0  0
  8  9  2  0  0  0  0
 10  8  1  0  0  0  0
 10 30  1  0  0  0  0
 11 10  1  0  0  0  0
 12 11  1  0  0  0  0
 12 13  2  0  0  0  0
 14 13  1  0  0  0  0
 15 14  1  0  0  0  0
 16 15  2  0  0  0  0
 16 12  1  0  0  0  0
 17 18  2  0  0  0  0
 17 16  1  0  0  0  0
 18 19  1  0  0  0  0
 19 11  2  0  0  0  0
 20 17  1  0  0  0  0
 21 33  1  0  0  0  0
 21 20  1  0  0  0  0
 22 23  1  0  0  0  0
 22 21  1  0  0  0  0
 23 24  1  0  0  0  0
 24 25  1  0  0  0  0
 24 37  1  0  0  0  0
 25 20  1  0  0  0  0
 25 40  1  0  0  0  0
 26  6  1  0  0  0  0
 27  7  1  0  0  0  0
 31 18  1  0  0  0  0
 32 19  1  0  0  0  0
 34 21  1  0  0  0  0
 35 22  1  0  0  0  0
 36 22  1  0  0  0  0
 38 24  1  0  0  0  0
 39 25  1  0  0  0  0
M  END
>  <Pose>
1

>  <Score>
-7.18

$$$$
