
 OpenBabel03222201593D

 36 39  0  0  0  0  0  0  0  0999 V2000
  -21.4730   -4.7800  -32.3180 B   0  0  0  0  0  0  0  0  0  0  0  0
  -21.5220   -2.9880  -32.9260 C   0  0  0  0  0  0  0  0  0  0  0  0
  -22.6550   -2.5200  -33.6040 C   0  0  0  0  0  0  0  0  0  0  0  0
  -22.6730   -1.2190  -34.0370 C   0  0  0  0  0  0  0  0  0  0  0  0
  -21.6080   -0.3850  -33.8170 C   0  0  0  0  0  0  0  0  0  0  0  0
  -20.4700   -0.8500  -33.1360 C   0  0  0  0  0  0  0  0  0  0  0  0
  -20.4510   -2.1600  -32.7000 C   0  0  0  0  0  0  0  0  0  0  0  0
  -21.6940    0.9440  -34.2980 N   0  0  0  0  0  0  0  0  0  0  0  0
  -22.4700    1.8680  -33.7650 N   0  0  0  0  0  0  0  0  0  0  0  0
  -22.3510    3.0080  -34.4110 N   0  0  0  0  0  0  0  0  0  0  0  0
  -21.4790    2.8370  -35.3910 N   0  0  0  0  0  0  0  0  0  0  0  0
  -21.0790    1.5630  -35.3170 C   0  0  0  0  0  0  0  0  0  0  0  0
  -23.8690   -0.6490  -34.7630 C   0  0  0  0  0  0  0  0  0  0  0  0
  -24.6870    0.0030  -34.0370 O   0  0  0  0  0  0  0  0  0  0  0  0
  -23.9820   -0.8700  -36.1150 N   0  0  0  0  0  0  0  0  0  0  0  0
  -24.0950   -1.0890  -37.4590 C   0  0  0  0  0  0  0  0  0  0  0  0
  -24.5270    0.1340  -38.2510 C   0  0  0  0  0  0  0  0  0  0  0  0
  -23.7800    0.7520  -39.1920 N   0  0  0  0  0  0  0  0  0  0  0  0
  -24.4470    1.7950  -39.7010 C   0  0  0  0  0  0  0  0  0  0  0  0
  -25.6270    1.8190  -39.0620 N   0  0  0  0  0  0  0  0  0  0  0  0
  -25.6780    0.8110  -38.1790 N   0  0  0  0  0  0  0  0  0  0  0  0
  -23.8720    2.5920  -40.6990 C   0  0  0  0  0  0  0  0  0  0  0  0
  -22.6180    2.3120  -41.1670 C   0  0  0  0  0  0  0  0  0  0  0  0
  -21.9310    1.2360  -40.6420 C   0  0  0  0  0  0  0  0  0  0  0  0
  -22.5290    0.4680  -39.6540 C   0  0  0  0  0  0  0  0  0  0  0  0
  -23.5010   -3.1650  -33.7890 H   0  0  0  0  0  0  0  0  0  0  0  0
  -19.6570   -0.1630  -32.9820 H   0  0  0  0  0  0  0  0  0  0  0  0
  -19.5700   -2.5190  -32.1760 H   0  0  0  0  0  0  0  0  0  0  0  0
  -20.3660    1.1070  -35.9750 H   0  0  0  0  0  0  0  0  0  0  0  0
  -22.8560   -0.1390  -36.3420 H   0  0  0  0  0  0  0  0  0  0  0  0
  -24.7950   -1.9120  -37.7830 H   0  0  0  0  0  0  0  0  0  0  0  0
  -23.1300   -1.3830  -37.9850 H   0  0  0  0  0  0  0  0  0  0  0  0
  -24.4530    3.4230  -41.0690 H   0  0  0  0  0  0  0  0  0  0  0  0
  -22.1340    2.9150  -41.9490 H   0  0  0  0  0  0  0  0  0  0  0  0
  -20.9530    0.9610  -40.9640 H   0  0  0  0  0  0  0  0  0  0  0  0
  -22.0250   -0.3790  -39.2170 H   0  0  0  0  0  0  0  0  0  0  0  0
  2  7  1  0  0  0  0
  2  1  1  0  0  0  0
  3  2  2  0  0  0  0
  4  5  2  0  0  0  0
  4  3  1  0  0  0  0
  5  6  1  0  0  0  0
  6 27  1  0  0  0  0
  6  7  2  0  0  0  0
  7 28  1  0  0  0  0
  8  5  1  0  0  0  0
  8  9  1  0  0  0  0
 10  9  2  0  0  0  0
 11 12  2  0  0  0  0
 11 10  1  0  0  0  0
 12  8  1  0  0  0  0
 13  4  1  0  0  0  0
 13 14  2  0  0  0  0
 15 13  1  0  0  0  0
 16 15  1  0  0  0  0
 17 21  2  0  0  0  0
 17 16  1  0  0  0  0
 18 17  1  0  0  0  0
 19 18  1  0  0  0  0
 19 20  2  0  0  0  0
 20 21  1  0  0  0  0
 22 19  1  0  0  0  0
 23 22  2  0  0  0  0
 23 24  1  0  0  0  0
 24 25  2  0  0  0  0
 25 36  1  0  0  0  0
 25 18  1  0  0  0  0
 26  3  1  0  0  0  0
 29 12  1  0  0  0  0
 30 15  1  0  0  0  0
 31 16  1  0  0  0  0
 32 16  1  0  0  0  0
 33 22  1  0  0  0  0
 34 23  1  0  0  0  0
 35 24  1  0  0  0  0
M  END
>  <Pose>
1

>  <Score>
-6.52

$$$$
