
 OpenBabel03222201593D

 50 53  0  0  0  0  0  0  0  0999 V2000
  -19.1330   -2.8120  -25.8560 B   0  0  0  0  0  0  0  0  0  0  0  0
  -19.6770   -3.0930  -27.6570 C   0  0  0  0  0  0  0  0  0  0  0  0
  -19.3040   -2.2350  -28.6830 C   0  0  0  0  0  0  0  0  0  0  0  0
  -19.6960   -2.4350  -29.9800 C   0  0  0  0  0  0  0  0  0  0  0  0
  -20.4850   -3.5220  -30.2790 C   0  0  0  0  0  0  0  0  0  0  0  0
  -20.8560   -4.3740  -29.2690 C   0  0  0  0  0  0  0  0  0  0  0  0
  -20.4670   -4.1840  -27.9500 C   0  0  0  0  0  0  0  0  0  0  0  0
  -19.2850   -1.5120  -31.0330 C   0  0  0  0  0  0  0  0  0  0  0  0
  -18.1860   -1.6370  -31.6330 O   0  0  0  0  0  0  0  0  0  0  0  0
  -20.1760   -0.4110  -31.4010 C   0  0  0  0  0  0  0  0  0  0  0  0
  -20.3700   -0.2630  -32.7900 N   0  0  0  0  0  0  0  0  0  0  0  0
  -21.5000    0.4840  -33.2000 C   0  0  0  0  0  0  0  0  0  0  0  0
  -21.7540    0.5350  -34.6580 C   0  0  0  0  0  0  0  0  0  0  0  0
  -21.7760   -0.7750  -35.2250 N   0  0  0  0  0  0  0  0  0  0  0  0
  -21.1220   -1.8380  -34.5180 C   0  0  0  0  0  0  0  0  0  0  0  0
  -20.0140   -1.3750  -33.6020 C   0  0  0  0  0  0  0  0  0  0  0  0
  -22.3980   -1.0520  -36.4710 C   0  0  0  0  0  0  0  0  0  0  0  0
  -21.6900   -0.8490  -37.5810 C   0  0  0  0  0  0  0  0  0  0  0  0
  -20.3800   -0.3940  -37.8680 N   0  0  0  0  0  0  0  0  0  0  0  0
  -20.2780   -0.4220  -39.2770 N   0  0  0  0  0  0  0  0  0  0  0  0
  -21.5020   -0.8830  -39.8170 C   0  0  0  0  0  0  0  0  0  0  0  0
  -22.3740   -1.1520  -38.8580 C   0  0  0  0  0  0  0  0  0  0  0  0
  -23.7150   -1.6300  -38.8500 N   0  0  0  0  0  0  0  0  0  0  0  0
  -24.3550   -1.8100  -37.7480 C   0  0  0  0  0  0  0  0  0  0  0  0
  -23.7550   -1.5390  -36.5030 N   0  0  0  0  0  0  0  0  0  0  0  0
  -21.8260   -1.0650  -41.2570 C   0  0  0  0  0  0  0  0  0  0  0  0
  -19.3700    0.0110  -36.9200 C   0  0  0  0  0  0  0  0  0  0  0  0
  -18.6860   -1.4010  -28.3830 H   0  0  0  0  0  0  0  0  0  0  0  0
  -20.7820   -3.6580  -31.3190 H   0  0  0  0  0  0  0  0  0  0  0  0
  -21.4760   -5.2340  -29.4820 H   0  0  0  0  0  0  0  0  0  0  0  0
  -20.7840   -4.8890  -27.1670 H   0  0  0  0  0  0  0  0  0  0  0  0
  -19.7930    0.5510  -30.9650 H   0  0  0  0  0  0  0  0  0  0  0  0
  -21.1900   -0.5330  -30.9160 H   0  0  0  0  0  0  0  0  0  0  0  0
  -22.3900    0.1830  -32.6170 H   0  0  0  0  0  0  0  0  0  0  0  0
  -21.3060    1.5520  -32.8670 H   0  0  0  0  0  0  0  0  0  0  0  0
  -20.9090    1.1010  -35.1360 H   0  0  0  0  0  0  0  0  0  0  0  0
  -22.6560    1.1360  -34.8880 H   0  0  0  0  0  0  0  0  0  0  0  0
  -21.7830   -2.5750  -34.0490 H   0  0  0  0  0  0  0  0  0  0  0  0
  -20.5880   -2.4300  -35.3290 H   0  0  0  0  0  0  0  0  0  0  0  0
  -19.7630   -2.2310  -32.9410 H   0  0  0  0  0  0  0  0  0  0  0  0
  -19.0820   -1.1220  -34.1520 H   0  0  0  0  0  0  0  0  0  0  0  0
  -19.4080   -0.1340  -39.7700 H   0  0  0  0  0  0  0  0  0  0  0  0
  -25.3950   -2.1840  -37.8080 H   0  0  0  0  0  0  0  0  0  0  0  0
  -24.2290   -1.6670  -35.5920 H   0  0  0  0  0  0  0  0  0  0  0  0
  -21.0940   -0.5050  -41.8700 H   0  0  0  0  0  0  0  0  0  0  0  0
  -22.8700   -0.8380  -41.4850 H   0  0  0  0  0  0  0  0  0  0  0  0
  -21.6610   -2.1530  -41.4930 H   0  0  0  0  0  0  0  0  0  0  0  0
  -19.7090    0.6820  -36.1370 H   0  0  0  0  0  0  0  0  0  0  0  0
  -18.8040   -0.8810  -36.5790 H   0  0  0  0  0  0  0  0  0  0  0  0
  -18.6350    0.6350  -37.5270 H   0  0  0  0  0  0  0  0  0  0  0  0
  2  1  1  0  0  0  0
  3 28  1  0  0  0  0
  3  2  2  0  0  0  0
  4  3  1  0  0  0  0
  5  4  2  0  0  0  0
  5  6  1  0  0  0  0
  6  7  2  0  0  0  0
  7  2  1  0  0  0  0
  7 31  1  0  0  0  0
  8  4  1  0  0  0  0
  9  8  2  0  0  0  0
 10  8  1  0  0  0  0
 10 32  1  0  0  0  0
 10 33  1  0  0  0  0
 11 10  1  0  0  0  0
 12 35  1  0  0  0  0
 12 11  1  0  0  0  0
 12 34  1  0  0  0  0
 13 12  1  0  0  0  0
 14 13  1  0  0  0  0
 14 15  1  0  0  0  0
 15 38  1  0  0  0  0
 15 16  1  0  0  0  0
 16 40  1  0  0  0  0
 16 11  1  0  0  0  0
 17 14  1  0  0  0  0
 18 17  2  0  0  0  0
 19 18  1  0  0  0  0
 19 27  1  0  0  0  0
 20 19  1  0  0  0  0
 21 20  1  0  0  0  0
 21 22  2  0  0  0  0
 22 23  1  0  0  0  0
 22 18  1  0  0  0  0
 23 24  2  0  0  0  0
 24 25  1  0  0  0  0
 25 17  1  0  0  0  0
 25 44  1  0  0  0  0
 26 21  1  0  0  0  0
 27 49  1  0  0  0  0
 27 48  1  0  0  0  0
 29  5  1  0  0  0  0
 30  6  1  0  0  0  0
 36 13  1  0  0  0  0
 37 13  1  0  0  0  0
 39 15  1  0  0  0  0
 41 16  1  0  0  0  0
 42 20  1  0  0  0  0
 43 24  1  0  0  0  0
 45 26  1  0  0  0  0
 46 26  1  0  0  0  0
 47 26  1  0  0  0  0
 50 27  1  0  0  0  0
M  END
>  <Pose>
1

>  <Score>
-6.61

$$$$
