
 OpenBabel03222201593D

 52 55  0  0  1  0  0  0  0  0999 V2000
  -24.0620   -1.6690  -37.7560 B   0  0  0  0  0  0  0  0  0  0  0  0
  -23.3860   -0.9150  -36.1160 C   0  0  0  0  0  0  0  0  0  0  0  0
  -22.2880   -1.4790  -35.5120 C   0  0  0  0  0  0  0  0  0  0  0  0
  -21.8150   -0.9430  -34.3340 C   0  0  0  0  0  0  0  0  0  0  0  0
  -22.4200    0.1350  -33.7720 C   0  0  0  0  0  0  0  0  0  0  0  0
  -23.5100    0.6840  -34.3900 C   0  0  0  0  0  0  0  0  0  0  0  0
  -24.0340    0.1800  -35.5820 C   0  0  0  0  0  0  0  0  0  0  0  0
  -20.5800   -1.5740  -33.7360 C   0  0  0  0  0  0  0  0  0  0  0  0
  -20.7720   -2.4210  -32.8820 O   0  0  0  0  0  0  0  0  0  0  0  0
  -19.3930   -1.0850  -34.2750 N   0  0  0  0  0  0  0  0  0  0  0  0
  -18.8600    0.2060  -34.0380 C   0  0  1  0  0  0  0  0  0  0  0  0
  -19.2600    1.2610  -35.0570 C   0  0  0  0  0  0  0  0  0  0  0  0
  -19.0880    0.7120  -32.6920 C   0  0  0  0  0  0  0  0  0  0  0  0
  -19.5730    1.8820  -32.5960 O   0  0  0  0  0  0  0  0  0  0  0  0
  -18.7770   -0.0400  -31.5220 N   0  0  0  0  0  0  0  0  0  0  0  0
  -19.5240    0.0870  -30.2970 C   0  0  0  0  0  0  0  0  0  0  0  0
  -20.1900   -1.3030  -30.1550 C   0  0  0  0  0  0  0  0  0  0  0  0
  -19.0710   -2.2210  -29.7450 C   0  0  2  0  0  0  0  0  0  0  0  0
  -19.5550   -3.5840  -29.9570 N   0  0  0  0  0  0  0  0  0  0  0  0
  -20.7500   -3.8700  -29.2550 C   0  0  0  0  0  0  0  0  0  0  0  0
  -20.5850   -3.8110  -27.7470 C   0  0  0  0  0  0  0  0  0  0  0  0
  -19.6080   -2.7830  -27.3430 C   0  0  0  0  0  0  0  0  0  0  0  0
  -19.2460   -2.3930  -26.1090 N   0  0  0  0  0  0  0  0  0  0  0  0
  -18.3120   -1.4260  -26.2500 C   0  0  0  0  0  0  0  0  0  0  0  0
  -18.1080   -1.2290  -27.5770 N   0  0  0  0  0  0  0  0  0  0  0  0
  -18.9030   -2.0570  -28.2830 C   0  0  0  0  0  0  0  0  0  0  0  0
  -17.8010   -2.0580  -30.5030 C   0  0  0  0  0  0  0  0  0  0  0  0
  -17.7080   -0.9730  -31.5220 C   0  0  0  0  0  0  0  0  0  0  0  0
  -21.7570   -2.3460  -35.9340 H   0  0  0  0  0  0  0  0  0  0  0  0
  -22.0180    0.5650  -32.8300 H   0  0  0  0  0  0  0  0  0  0  0  0
  -24.0240    1.5520  -33.9680 H   0  0  0  0  0  0  0  0  0  0  0  0
  -24.8870    0.6150  -36.0870 H   0  0  0  0  0  0  0  0  0  0  0  0
  -18.8480   -1.6870  -34.9630 H   0  0  0  0  0  0  0  0  0  0  0  0
  -17.7530    0.1020  -34.2510 H   0  0  0  0  0  0  0  0  0  0  0  0
  -19.2620    2.2770  -34.5490 H   0  0  0  0  0  0  0  0  0  0  0  0
  -18.4410    1.3830  -35.8560 H   0  0  0  0  0  0  0  0  0  0  0  0
  -20.2140    1.1150  -35.5140 H   0  0  0  0  0  0  0  0  0  0  0  0
  -20.3590    0.8040  -30.2910 H   0  0  0  0  0  0  0  0  0  0  0  0
  -18.9410    0.2100  -29.3910 H   0  0  0  0  0  0  0  0  0  0  0  0
  -20.8930   -1.1570  -29.3120 H   0  0  0  0  0  0  0  0  0  0  0  0
  -20.7500   -1.5860  -31.0330 H   0  0  0  0  0  0  0  0  0  0  0  0
  -18.8030   -4.3010  -29.7940 H   0  0  0  0  0  0  0  0  0  0  0  0
  -21.5710   -3.2410  -29.6140 H   0  0  0  0  0  0  0  0  0  0  0  0
  -21.0440   -4.9180  -29.4790 H   0  0  0  0  0  0  0  0  0  0  0  0
  -20.2190   -4.7970  -27.3500 H   0  0  0  0  0  0  0  0  0  0  0  0
  -21.5910   -3.6050  -27.3180 H   0  0  0  0  0  0  0  0  0  0  0  0
  -17.8150   -0.9060  -25.4230 H   0  0  0  0  0  0  0  0  0  0  0  0
  -17.4130   -0.5170  -27.8790 H   0  0  0  0  0  0  0  0  0  0  0  0
  -16.9830   -1.8900  -29.7730 H   0  0  0  0  0  0  0  0  0  0  0  0
  -17.5200   -3.0240  -31.0210 H   0  0  0  0  0  0  0  0  0  0  0  0
  -17.6250   -1.3810  -32.5390 H   0  0  0  0  0  0  0  0  0  0  0  0
  -16.7610   -0.3650  -31.3710 H   0  0  0  0  0  0  0  0  0  0  0  0
  1  2  1  0  0  0  0
  2  7  2  0  0  0  0
  2  3  1  0  0  0  0
  3  4  2  0  0  0  0
  4  5  1  0  0  0  0
  4  8  1  0  0  0  0
  5 30  1  0  0  0  0
  6 31  1  0  0  0  0
  6  5  2  0  0  0  0
  7  6  1  0  0  0  0
  8  9  2  0  0  0  0
 10 11  1  0  0  0  0
 10  8  1  0  0  0  0
 11 34  1  6  0  0  0
 11 13  1  0  0  0  0
 12 35  1  0  0  0  0
 12 11  1  0  0  0  0
 13 14  2  0  0  0  0
 13 15  1  0  0  0  0
 15 28  1  0  0  0  0
 15 16  1  0  0  0  0
 16 38  1  0  0  0  0
 16 17  1  0  0  0  0
 16 39  1  0  0  0  0
 17 18  1  0  0  0  0
 17 40  1  0  0  0  0
 18 26  1  1  0  0  0
 19 42  1  0  0  0  0
 19 18  1  0  0  0  0
 19 20  1  0  0  0  0
 20 21  1  0  0  0  0
 21 45  1  0  0  0  0
 21 22  1  0  0  0  0
 21 46  1  0  0  0  0
 22 23  1  0  0  0  0
 24 23  2  0  0  0  0
 24 47  1  0  0  0  0
 25 24  1  0  0  0  0
 26 25  1  0  0  0  0
 26 22  2  0  0  0  0
 27 49  1  0  0  0  0
 27 18  1  0  0  0  0
 28 52  1  0  0  0  0
 28 27  1  0  0  0  0
 29  3  1  0  0  0  0
 32  7  1  0  0  0  0
 33 10  1  0  0  0  0
 36 12  1  0  0  0  0
 37 12  1  0  0  0  0
 41 17  1  0  0  0  0
 43 20  1  0  0  0  0
 44 20  1  0  0  0  0
 48 25  1  0  0  0  0
 50 27  1  0  0  0  0
 51 28  1  0  0  0  0
M  END
>  <Pose>
1

>  <Score>
-6.30

$$$$
