
 OpenBabel03222201593D

 49 52  0  0  0  0  0  0  0  0999 V2000
  -18.6920   -0.3830  -29.0050 B   0  0  0  0  0  0  0  0  0  0  0  0
  -19.6400   -1.9980  -29.2360 C   0  0  0  0  0  0  0  0  0  0  0  0
  -19.9590   -2.4250  -30.5160 C   0  0  0  0  0  0  0  0  0  0  0  0
  -20.6510   -3.5900  -30.7170 C   0  0  0  0  0  0  0  0  0  0  0  0
  -21.0580   -4.3830  -29.6860 C   0  0  0  0  0  0  0  0  0  0  0  0
  -20.7390   -3.9590  -28.3920 C   0  0  0  0  0  0  0  0  0  0  0  0
  -20.0400   -2.7840  -28.1850 C   0  0  0  0  0  0  0  0  0  0  0  0
  -20.9720   -4.0840  -32.1020 C   0  0  0  0  0  0  0  0  0  0  0  0
  -20.6720   -5.3170  -32.2820 O   0  0  0  0  0  0  0  0  0  0  0  0
  -21.5110   -3.2330  -32.9600 N   0  0  0  0  0  0  0  0  0  0  0  0
  -22.0760   -2.3410  -33.8580 C   0  0  0  0  0  0  0  0  0  0  0  0
  -21.0690   -1.3270  -34.3370 C   0  0  0  0  0  0  0  0  0  0  0  0
  -19.8690   -1.5420  -33.9440 O   0  0  0  0  0  0  0  0  0  0  0  0
  -21.3860   -0.2270  -35.1470 N   0  0  0  0  0  0  0  0  0  0  0  0
  -20.6990    0.0660  -36.3630 C   0  0  0  0  0  0  0  0  0  0  0  0
  -21.6040    0.6320  -37.4200 C   0  0  0  0  0  0  0  0  0  0  0  0
  -23.0720    0.3190  -37.2330 C   0  0  0  0  0  0  0  0  0  0  0  0
  -23.7380    1.2030  -38.1810 N   0  0  0  0  0  0  0  0  0  0  0  0
  -25.1190    0.9800  -38.3760 C   0  0  0  0  0  0  0  0  0  0  0  0
  -25.6800   -0.3270  -37.9500 C   0  0  0  0  0  0  0  0  0  0  0  0
  -24.6500   -1.4110  -37.9890 C   0  0  0  0  0  0  0  0  0  0  0  0
  -24.7280   -2.7010  -38.3130 N   0  0  0  0  0  0  0  0  0  0  0  0
  -23.4810   -3.1940  -38.1650 C   0  0  0  0  0  0  0  0  0  0  0  0
  -22.6390   -2.2220  -37.7520 N   0  0  0  0  0  0  0  0  0  0  0  0
  -23.3690   -1.0750  -37.6330 C   0  0  0  0  0  0  0  0  0  0  0  0
  -23.5780    0.5720  -35.8360 C   0  0  0  0  0  0  0  0  0  0  0  0
  -22.4700    0.6870  -34.8050 C   0  0  0  0  0  0  0  0  0  0  0  0
  -19.6630   -1.8410  -31.3560 H   0  0  0  0  0  0  0  0  0  0  0  0
  -21.5960   -5.2900  -29.8730 H   0  0  0  0  0  0  0  0  0  0  0  0
  -21.0430   -4.5550  -27.5510 H   0  0  0  0  0  0  0  0  0  0  0  0
  -19.7930   -2.4590  -27.1850 H   0  0  0  0  0  0  0  0  0  0  0  0
  -20.3280   -2.5180  -33.0150 H   0  0  0  0  0  0  0  0  0  0  0  0
  -22.9350   -1.7600  -33.3730 H   0  0  0  0  0  0  0  0  0  0  0  0
  -22.5820   -2.8480  -34.7150 H   0  0  0  0  0  0  0  0  0  0  0  0
  -19.9650    0.8890  -36.1060 H   0  0  0  0  0  0  0  0  0  0  0  0
  -20.0540   -0.7560  -36.7260 H   0  0  0  0  0  0  0  0  0  0  0  0
  -21.4830    1.7200  -37.4770 H   0  0  0  0  0  0  0  0  0  0  0  0
  -21.3070    0.1520  -38.3770 H   0  0  0  0  0  0  0  0  0  0  0  0
  -23.5470    2.1730  -37.7980 H   0  0  0  0  0  0  0  0  0  0  0  0
  -25.3170    1.0740  -39.4870 H   0  0  0  0  0  0  0  0  0  0  0  0
  -25.6970    1.8360  -37.9170 H   0  0  0  0  0  0  0  0  0  0  0  0
  -26.1180   -0.2340  -36.9290 H   0  0  0  0  0  0  0  0  0  0  0  0
  -26.5600   -0.5860  -38.6050 H   0  0  0  0  0  0  0  0  0  0  0  0
  -23.2360   -4.2210  -38.3580 H   0  0  0  0  0  0  0  0  0  0  0  0
  -21.6290   -2.3380  -37.5630 H   0  0  0  0  0  0  0  0  0  0  0  0
  -24.2010   -0.3160  -35.5100 H   0  0  0  0  0  0  0  0  0  0  0  0
  -24.1990    1.4770  -35.7440 H   0  0  0  0  0  0  0  0  0  0  0  0
  -22.1000    1.7350  -34.7140 H   0  0  0  0  0  0  0  0  0  0  0  0
  -22.8920    0.3630  -33.8360 H   0  0  0  0  0  0  0  0  0  0  0  0
  2  1  1  0  0  0  0
  2  7  1  0  0  0  0
  3  2  2  0  0  0  0
  4  3  1  0  0  0  0
  4  5  2  0  0  0  0
  5  6  1  0  0  0  0
  6  7  2  0  0  0  0
  6 30  1  0  0  0  0
  7 31  1  0  0  0  0
  8  4  1  0  0  0  0
  9  8  2  0  0  0  0
 10  8  1  0  0  0  0
 11 33  1  0  0  0  0
 11 10  1  0  0  0  0
 12 13  2  0  0  0  0
 12 11  1  0  0  0  0
 14 27  1  0  0  0  0
 14 12  1  0  0  0  0
 15 35  1  0  0  0  0
 15 14  1  0  0  0  0
 16 17  1  0  0  0  0
 16 15  1  0  0  0  0
 17 26  1  0  0  0  0
 18 39  1  0  0  0  0
 18 17  1  0  0  0  0
 19 18  1  0  0  0  0
 19 20  1  0  0  0  0
 19 41  1  0  0  0  0
 20 42  1  0  0  0  0
 21 20  1  0  0  0  0
 21 25  2  0  0  0  0
 22 23  2  0  0  0  0
 22 21  1  0  0  0  0
 23 24  1  0  0  0  0
 24 25  1  0  0  0  0
 24 45  1  0  0  0  0
 25 17  1  0  0  0  0
 26 47  1  0  0  0  0
 26 46  1  0  0  0  0
 26 27  1  0  0  0  0
 27 48  1  0  0  0  0
 27 49  1  0  0  0  0
 28  3  1  0  0  0  0
 29  5  1  0  0  0  0
 32 10  1  0  0  0  0
 34 11  1  0  0  0  0
 36 15  1  0  0  0  0
 37 16  1  0  0  0  0
 38 16  1  0  0  0  0
 40 19  1  0  0  0  0
 43 20  1  0  0  0  0
 44 23  1  0  0  0  0
M  END
>  <Pose>
1

>  <Score>
-7.29

$$$$
