
 OpenBabel03222201593D

 49 52  0  0  0  0  0  0  0  0999 V2000
  -23.6620   -2.8670  -39.6450 B   0  0  0  0  0  0  0  0  0  0  0  0
  -23.0280   -1.5520  -38.4380 C   0  0  0  0  0  0  0  0  0  0  0  0
  -21.6860   -1.2160  -38.4500 C   0  0  0  0  0  0  0  0  0  0  0  0
  -21.1600   -0.2660  -37.5950 C   0  0  0  0  0  0  0  0  0  0  0  0
  -22.0260    0.3570  -36.7080 C   0  0  0  0  0  0  0  0  0  0  0  0
  -23.3590    0.0180  -36.7010 C   0  0  0  0  0  0  0  0  0  0  0  0
  -23.8990   -0.9260  -37.5450 C   0  0  0  0  0  0  0  0  0  0  0  0
  -19.7530    0.1090  -37.5840 C   0  0  0  0  0  0  0  0  0  0  0  0
  -19.2480    0.6470  -38.6030 O   0  0  0  0  0  0  0  0  0  0  0  0
  -18.9080   -0.1030  -36.4720 N   0  0  0  0  0  0  0  0  0  0  0  0
  -18.4420    0.9890  -35.6440 C   0  0  0  0  0  0  0  0  0  0  0  0
  -19.0380    0.9380  -34.2830 C   0  0  0  0  0  0  0  0  0  0  0  0
  -19.5910    1.9840  -33.8640 O   0  0  0  0  0  0  0  0  0  0  0  0
  -19.0110   -0.2000  -33.4630 N   0  0  0  0  0  0  0  0  0  0  0  0
  -19.9500   -1.2840  -33.6100 C   0  0  0  0  0  0  0  0  0  0  0  0
  -20.7700   -1.3300  -32.3390 C   0  0  0  0  0  0  0  0  0  0  0  0
  -19.8510   -1.3420  -31.1410 C   0  0  0  0  0  0  0  0  0  0  0  0
  -20.1000   -0.1400  -30.3740 N   0  0  0  0  0  0  0  0  0  0  0  0
  -19.3980   -0.0610  -29.1410 C   0  0  0  0  0  0  0  0  0  0  0  0
  -19.2740   -1.3120  -28.3500 C   0  0  0  0  0  0  0  0  0  0  0  0
  -19.9940   -2.4720  -28.9140 C   0  0  0  0  0  0  0  0  0  0  0  0
  -20.4810   -3.6200  -28.3500 N   0  0  0  0  0  0  0  0  0  0  0  0
  -21.0430   -4.3240  -29.3400 C   0  0  0  0  0  0  0  0  0  0  0  0
  -20.9190   -3.6450  -30.4920 N   0  0  0  0  0  0  0  0  0  0  0  0
  -20.2650   -2.4780  -30.2640 C   0  0  0  0  0  0  0  0  0  0  0  0
  -18.3990   -1.4640  -31.4770 C   0  0  0  0  0  0  0  0  0  0  0  0
  -18.0190   -0.3220  -32.4250 C   0  0  0  0  0  0  0  0  0  0  0  0
  -21.0560   -1.7150  -39.1440 H   0  0  0  0  0  0  0  0  0  0  0  0
  -21.6960    1.1150  -36.0020 H   0  0  0  0  0  0  0  0  0  0  0  0
  -24.0520    0.4940  -36.0140 H   0  0  0  0  0  0  0  0  0  0  0  0
  -24.9250   -1.2120  -37.5670 H   0  0  0  0  0  0  0  0  0  0  0  0
  -18.6130   -1.0730  -36.2430 H   0  0  0  0  0  0  0  0  0  0  0  0
  -18.7370    1.9670  -36.0780 H   0  0  0  0  0  0  0  0  0  0  0  0
  -17.3370    0.9260  -35.6270 H   0  0  0  0  0  0  0  0  0  0  0  0
  -19.4120   -2.2590  -33.7240 H   0  0  0  0  0  0  0  0  0  0  0  0
  -20.5820   -1.1890  -34.5110 H   0  0  0  0  0  0  0  0  0  0  0  0
  -21.4630   -2.1980  -32.3290 H   0  0  0  0  0  0  0  0  0  0  0  0
  -21.3970   -0.3970  -32.3540 H   0  0  0  0  0  0  0  0  0  0  0  0
  -19.8210    0.6890  -30.9620 H   0  0  0  0  0  0  0  0  0  0  0  0
  -19.9600    0.6800  -28.4980 H   0  0  0  0  0  0  0  0  0  0  0  0
  -18.3860    0.4160  -29.2490 H   0  0  0  0  0  0  0  0  0  0  0  0
  -19.6350   -1.1870  -27.2860 H   0  0  0  0  0  0  0  0  0  0  0  0
  -18.1960   -1.6120  -28.2110 H   0  0  0  0  0  0  0  0  0  0  0  0
  -20.4010   -3.8610  -27.3190 H   0  0  0  0  0  0  0  0  0  0  0  0
  -21.5220   -5.2840  -29.2320 H   0  0  0  0  0  0  0  0  0  0  0  0
  -18.1180   -2.4410  -31.8690 H   0  0  0  0  0  0  0  0  0  0  0  0
  -17.8210   -1.2900  -30.5530 H   0  0  0  0  0  0  0  0  0  0  0  0
  -17.0350   -0.5230  -32.8970 H   0  0  0  0  0  0  0  0  0  0  0  0
  -17.9160    0.5750  -31.8100 H   0  0  0  0  0  0  0  0  0  0  0  0
  1  2  1  0  0  0  0
  2  7  1  0  0  0  0
  3  2  2  0  0  0  0
  3  4  1  0  0  0  0
  4  8  1  0  0  0  0
  4  5  2  0  0  0  0
  5  6  1  0  0  0  0
  5 29  1  0  0  0  0
  6 30  1  0  0  0  0
  7  6  2  0  0  0  0
  8 10  1  0  0  0  0
  9  8  2  0  0  0  0
 10 32  1  0  0  0  0
 10 11  1  0  0  0  0
 11 34  1  0  0  0  0
 11 12  1  0  0  0  0
 12 13  2  0  0  0  0
 12 14  1  0  0  0  0
 14 27  1  0  0  0  0
 15 14  1  0  0  0  0
 15 16  1  0  0  0  0
 16 37  1  0  0  0  0
 16 17  1  0  0  0  0
 17 18  1  0  0  0  0
 17 25  1  0  0  0  0
 18 19  1  0  0  0  0
 19 40  1  0  0  0  0
 19 20  1  0  0  0  0
 20 43  1  0  0  0  0
 20 42  1  0  0  0  0
 21 20  1  0  0  0  0
 21 22  1  0  0  0  0
 22 44  1  0  0  0  0
 23 45  1  0  0  0  0
 23 22  1  0  0  0  0
 24 25  1  0  0  0  0
 24 23  2  0  0  0  0
 25 21  2  0  0  0  0
 26 17  1  0  0  0  0
 26 47  1  0  0  0  0
 27 49  1  0  0  0  0
 27 26  1  0  0  0  0
 28  3  1  0  0  0  0
 31  7  1  0  0  0  0
 33 11  1  0  0  0  0
 35 15  1  0  0  0  0
 36 15  1  0  0  0  0
 38 16  1  0  0  0  0
 39 18  1  0  0  0  0
 41 19  1  0  0  0  0
 46 26  1  0  0  0  0
 48 27  1  0  0  0  0
M  END
>  <Pose>
1

>  <Score>
-7.01

$$$$
