
 OpenBabel03222201593D

 48 51  0  0  1  0  0  0  0  0999 V2000
  -17.0360    1.9120  -22.7330 B   0  0  0  0  0  0  0  0  0  0  0  0
  -17.5680    1.2270  -24.4380 C   0  0  0  0  0  0  0  0  0  0  0  0
  -18.0100   -0.0620  -24.5550 C   0  0  0  0  0  0  0  0  0  0  0  0
  -18.3980   -0.5670  -25.7890 C   0  0  0  0  0  0  0  0  0  0  0  0
  -18.3240    0.2540  -26.8700 C   0  0  0  0  0  0  0  0  0  0  0  0
  -17.8740    1.5590  -26.7420 C   0  0  0  0  0  0  0  0  0  0  0  0
  -17.4910    2.0570  -25.5200 C   0  0  0  0  0  0  0  0  0  0  0  0
  -18.8630   -1.9390  -25.9090 C   0  0  0  0  0  0  0  0  0  0  0  0
  -18.3100   -2.8370  -25.1720 O   0  0  0  0  0  0  0  0  0  0  0  0
  -19.8900   -2.3100  -26.7990 N   0  0  0  0  0  0  0  0  0  0  0  0
  -19.5600   -2.3770  -28.2120 C   0  0  2  0  0  0  0  0  0  0  0  0
  -20.0380   -1.1430  -28.9530 C   0  0  0  0  0  0  0  0  0  0  0  0
  -20.1770   -1.6180  -30.3160 N   0  0  0  0  0  0  0  0  0  0  0  0
  -20.0200   -3.0570  -30.3830 C   0  0  1  0  0  0  0  0  0  0  0  0
  -20.3000   -3.4690  -28.9310 C   0  0  0  0  0  0  0  0  0  0  0  0
  -21.0240   -3.5930  -31.3010 C   0  0  0  0  0  0  0  0  0  0  0  0
  -21.7900   -4.5060  -30.9630 O   0  0  0  0  0  0  0  0  0  0  0  0
  -21.0960   -3.0340  -32.6030 N   0  0  0  0  0  0  0  0  0  0  0  0
  -20.6660   -1.6700  -32.8170 C   0  0  1  0  0  0  0  0  0  0  0  0
  -20.4310   -0.9370  -31.5530 C   0  0  0  0  0  0  0  0  0  0  0  0
  -20.4520    0.3220  -31.5490 O   0  0  0  0  0  0  0  0  0  0  0  0
  -19.4840   -1.5750  -33.7590 C   0  0  0  0  0  0  0  0  0  0  0  0
  -19.3750   -0.2660  -34.4240 C   0  0  0  0  0  0  0  0  0  0  0  0
  -18.5810    0.7220  -33.8710 C   0  0  0  0  0  0  0  0  0  0  0  0
  -18.4740    1.9480  -34.4870 C   0  0  0  0  0  0  0  0  0  0  0  0
  -19.1370    2.2540  -35.6600 C   0  0  0  0  0  0  0  0  0  0  0  0
  -19.9300    1.2710  -36.2130 C   0  0  0  0  0  0  0  0  0  0  0  0
  -20.0490    0.0340  -35.6090 C   0  0  0  0  0  0  0  0  0  0  0  0
  -18.0800   -0.7450  -23.7050 H   0  0  0  0  0  0  0  0  0  0  0  0
  -18.6190   -0.1160  -27.8550 H   0  0  0  0  0  0  0  0  0  0  0  0
  -17.8150    2.2110  -27.5980 H   0  0  0  0  0  0  0  0  0  0  0  0
  -17.1330    3.0780  -25.3890 H   0  0  0  0  0  0  0  0  0  0  0  0
  -20.8290   -2.5250  -26.4370 H   0  0  0  0  0  0  0  0  0  0  0  0
  -18.4920   -2.4740  -28.3950 H   0  0  0  0  0  0  0  0  0  0  0  0
  -21.0270   -0.7880  -28.5890 H   0  0  0  0  0  0  0  0  0  0  0  0
  -19.3020   -0.3120  -28.8850 H   0  0  0  0  0  0  0  0  0  0  0  0
  -18.9950   -3.3660  -30.6730 H   0  0  0  0  0  0  0  0  0  0  0  0
  -19.8480   -4.4660  -28.8130 H   0  0  0  0  0  0  0  0  0  0  0  0
  -21.3860   -3.4380  -28.7900 H   0  0  0  0  0  0  0  0  0  0  0  0
  -21.4520   -3.5700  -33.4260 H   0  0  0  0  0  0  0  0  0  0  0  0
  -21.5200   -1.1780  -33.3740 H   0  0  0  0  0  0  0  0  0  0  0  0
  -18.5670   -1.8120  -33.1870 H   0  0  0  0  0  0  0  0  0  0  0  0
  -19.6300   -2.3390  -34.5380 H   0  0  0  0  0  0  0  0  0  0  0  0
  -18.0200    0.5820  -32.9540 H   0  0  0  0  0  0  0  0  0  0  0  0
  -17.8540    2.7250  -34.0600 H   0  0  0  0  0  0  0  0  0  0  0  0
  -19.0260    3.2400  -36.1180 H   0  0  0  0  0  0  0  0  0  0  0  0
  -20.4530    1.5130  -37.1400 H   0  0  0  0  0  0  0  0  0  0  0  0
  -20.6810   -0.7140  -36.0700 H   0  0  0  0  0  0  0  0  0  0  0  0
  2  1  1  0  0  0  0
  3  2  1  0  0  0  0
  3 29  1  0  0  0  0
  4  3  2  0  0  0  0
  5  6  2  0  0  0  0
  5  4  1  0  0  0  0
  6  7  1  0  0  0  0
  7 32  1  0  0  0  0
  7  2  2  0  0  0  0
  8  4  1  0  0  0  0
  8  9  2  0  0  0  0
 10 33  1  0  0  0  0
 10  8  1  0  0  0  0
 11 34  1  6  0  0  0
 11 10  1  0  0  0  0
 12 36  1  0  0  0  0
 12 35  1  0  0  0  0
 12 11  1  0  0  0  0
 13 12  1  0  0  0  0
 14 37  1  6  0  0  0
 14 13  1  0  0  0  0
 14 15  1  0  0  0  0
 15 38  1  0  0  0  0
 15 39  1  0  0  0  0
 15 11  1  0  0  0  0
 16 17  2  0  0  0  0
 16 14  1  0  0  0  0
 18 16  1  0  0  0  0
 19 41  1  6  0  0  0
 19 18  1  0  0  0  0
 19 20  1  0  0  0  0
 20 21  2  0  0  0  0
 20 13  1  0  0  0  0
 22 42  1  0  0  0  0
 22 19  1  0  0  0  0
 23 24  1  0  0  0  0
 23 22  1  0  0  0  0
 24 44  1  0  0  0  0
 25 45  1  0  0  0  0
 25 24  2  0  0  0  0
 26 25  1  0  0  0  0
 27 26  2  0  0  0  0
 27 28  1  0  0  0  0
 28 23  2  0  0  0  0
 30  5  1  0  0  0  0
 31  6  1  0  0  0  0
 40 18  1  0  0  0  0
 43 22  1  0  0  0  0
 46 26  1  0  0  0  0
 47 27  1  0  0  0  0
 48 28  1  0  0  0  0
M  END
>  <Pose>
1

>  <Score>
-7.05

$$$$
