
 OpenBabel03222201593D

 35 38  0  0  1  0  0  0  0  0999 V2000
  -20.2800   -4.5930  -28.7180 B   0  0  0  0  0  0  0  0  0  0  0  0
  -19.9200   -2.9860  -29.6730 C   0  0  0  0  0  0  0  0  0  0  0  0
  -20.1490   -2.9590  -31.0270 C   0  0  0  0  0  0  0  0  0  0  0  0
  -19.9060   -1.8070  -31.7700 C   0  0  0  0  0  0  0  0  0  0  0  0
  -19.4340   -0.7100  -31.1190 C   0  0  0  0  0  0  0  0  0  0  0  0
  -19.2050   -0.7430  -29.7610 C   0  0  0  0  0  0  0  0  0  0  0  0
  -19.4370   -1.8670  -29.0060 C   0  0  0  0  0  0  0  0  0  0  0  0
  -20.1580   -1.8280  -33.1980 C   0  0  0  0  0  0  0  0  0  0  0  0
  -21.1930   -2.3950  -33.5890 O   0  0  0  0  0  0  0  0  0  0  0  0
  -19.2690   -1.2290  -34.1070 N   0  0  0  0  0  0  0  0  0  0  0  0
  -19.5950   -0.2050  -35.0180 N   0  0  0  0  0  0  0  0  0  0  0  0
  -20.4650    0.8780  -34.6380 C   0  0  0  0  0  0  0  0  0  0  0  0
  -21.0290    1.0700  -33.5150 O   0  0  0  0  0  0  0  0  0  0  0  0
  -20.6130    1.7660  -35.7750 C   0  0  1  0  0  0  0  0  0  0  0  0
  -19.4360    1.4550  -36.7210 C   0  0  2  0  0  0  0  0  0  0  0  0
  -19.9970    1.5150  -38.1040 C   0  0  2  0  0  0  0  0  0  0  0  0
  -21.3000    2.3100  -37.8850 C   0  0  0  0  0  0  0  0  0  0  0  0
  -21.7530    1.4070  -36.7180 C   0  0  1  0  0  0  0  0  0  0  0  0
  -21.5160    0.0760  -37.3470 C   0  0  0  0  0  0  0  0  0  0  0  0
  -20.6480    0.1790  -38.3630 C   0  0  0  0  0  0  0  0  0  0  0  0
  -19.2200    0.0010  -36.3520 C   0  0  0  0  0  0  0  0  0  0  0  0
  -18.7750   -0.8610  -37.1430 O   0  0  0  0  0  0  0  0  0  0  0  0
  -20.5290   -3.8500  -31.5240 H   0  0  0  0  0  0  0  0  0  0  0  0
  -19.2280    0.1970  -31.6410 H   0  0  0  0  0  0  0  0  0  0  0  0
  -18.8240    0.1340  -29.2230 H   0  0  0  0  0  0  0  0  0  0  0  0
  -19.2790   -1.9480  -27.9550 H   0  0  0  0  0  0  0  0  0  0  0  0
  -18.2680   -1.6030  -34.0760 H   0  0  0  0  0  0  0  0  0  0  0  0
  -20.6870    2.8290  -35.5400 H   0  0  0  0  0  0  0  0  0  0  0  0
  -18.5580    2.0620  -36.5250 H   0  0  0  0  0  0  0  0  0  0  0  0
  -19.3700    1.8810  -38.8760 H   0  0  0  0  0  0  0  0  0  0  0  0
  -21.9800    2.2030  -38.7380 H   0  0  0  0  0  0  0  0  0  0  0  0
  -21.1210    3.3350  -37.5650 H   0  0  0  0  0  0  0  0  0  0  0  0
  -22.7370    1.6140  -36.3730 H   0  0  0  0  0  0  0  0  0  0  0  0
  -21.9670   -0.8750  -37.0490 H   0  0  0  0  0  0  0  0  0  0  0  0
  -20.4030   -0.4460  -39.1790 H   0  0  0  0  0  0  0  0  0  0  0  0
  2  7  1  0  0  0  0
  2  1  1  0  0  0  0
  3  2  2  0  0  0  0
  4  5  2  0  0  0  0
  4  3  1  0  0  0  0
  5  6  1  0  0  0  0
  6 25  1  0  0  0  0
  6  7  2  0  0  0  0
  7 26  1  0  0  0  0
  8  4  1  0  0  0  0
  9  8  2  0  0  0  0
 10 27  1  0  0  0  0
 10  8  1  0  0  0  0
 11 12  1  0  0  0  0
 11 10  1  0  0  0  0
 12 13  2  0  0  0  0
 14 28  1  1  0  0  0
 14 12  1  0  0  0  0
 15 29  1  1  0  0  0
 15 21  1  0  0  0  0
 15 14  1  0  0  0  0
 16 30  1  6  0  0  0
 16 17  1  0  0  0  0
 16 15  1  0  0  0  0
 17 32  1  0  0  0  0
 17 18  1  0  0  0  0
 18 33  1  1  0  0  0
 18 14  1  0  0  0  0
 19 34  1  0  0  0  0
 19 18  1  0  0  0  0
 20 16  1  0  0  0  0
 20 19  1  0  0  0  0
 21 11  1  0  0  0  0
 22 21  2  0  0  0  0
 23  3  1  0  0  0  0
 24  5  1  0  0  0  0
 31 17  1  0  0  0  0
 35 20  1  0  0  0  0
M  END
>  <Pose>
1

>  <Score>
-5.42

$$$$
