
 OpenBabel03222201593D

 44 47  0  0  0  0  0  0  0  0999 V2000
  -23.0490    1.7240  -34.2390 B   0  0  0  0  0  0  0  0  0  0  0  0
  -21.4250    0.8350  -33.7760 C   0  0  0  0  0  0  0  0  0  0  0  0
  -21.5200   -0.4280  -33.1750 C   0  0  0  0  0  0  0  0  0  0  0  0
  -20.3790   -1.1610  -32.8180 C   0  0  0  0  0  0  0  0  0  0  0  0
  -19.1670   -0.5860  -33.0740 C   0  0  0  0  0  0  0  0  0  0  0  0
  -19.0430    0.6840  -33.6790 C   0  0  0  0  0  0  0  0  0  0  0  0
  -20.2240    1.3900  -34.0280 C   0  0  0  0  0  0  0  0  0  0  0  0
  -20.5100   -2.6210  -32.5590 C   0  0  0  0  0  0  0  0  0  0  0  0
  -20.3620   -3.0950  -31.3170 C   0  0  0  0  0  0  0  0  0  0  0  0
  -20.0870   -2.3800  -30.2260 O   0  0  0  0  0  0  0  0  0  0  0  0
  -20.0390   -3.2290  -29.0920 C   0  0  0  0  0  0  0  0  0  0  0  0
  -20.2880   -4.5140  -29.4380 C   0  0  0  0  0  0  0  0  0  0  0  0
  -20.3520   -5.4650  -28.4230 C   0  0  0  0  0  0  0  0  0  0  0  0
  -20.1460   -5.1080  -27.1270 C   0  0  0  0  0  0  0  0  0  0  0  0
  -19.8630   -3.7940  -26.8100 C   0  0  0  0  0  0  0  0  0  0  0  0
  -19.7910   -2.8020  -27.7580 C   0  0  0  0  0  0  0  0  0  0  0  0
  -19.0810   -1.5420  -27.6810 C   0  0  0  0  0  0  0  0  0  0  0  0
  -19.1130   -0.3420  -27.0680 N   0  0  0  0  0  4  0  0  0  0  0  0
  -18.2060    0.1550  -26.1300 C   0  0  0  0  0  0  0  0  0  0  0  0
  -17.1020    1.0490  -26.7370 C   0  0  0  0  0  0  0  0  0  0  0  0
  -17.5820    2.2220  -27.2710 O   0  0  0  0  0  0  0  0  0  0  0  0
  -18.7980    1.9780  -27.9180 C   0  0  0  0  0  0  0  0  0  0  0  0
  -18.9780    0.6030  -28.2960 C   0  0  0  0  0  0  0  0  0  0  0  0
  -19.6480   -3.4780  -25.4660 O   0  0  0  0  0  0  0  0  0  0  0  0
  -20.5010   -4.4980  -30.9050 C   0  0  0  0  0  0  0  0  0  0  0  0
  -20.7410   -5.4770  -31.6350 O   0  0  0  0  0  0  0  0  0  0  0  0
  -22.4780   -0.8130  -33.0400 H   0  0  0  0  0  0  0  0  0  0  0  0
  -18.2530   -1.0660  -32.8460 H   0  0  0  0  0  0  0  0  0  0  0  0
  -18.1310    1.1810  -33.9170 H   0  0  0  0  0  0  0  0  0  0  0  0
  -20.1530    2.3420  -34.5020 H   0  0  0  0  0  0  0  0  0  0  0  0
  -20.6890   -3.3080  -33.3530 H   0  0  0  0  0  0  0  0  0  0  0  0
  -20.5530   -6.4730  -28.6770 H   0  0  0  0  0  0  0  0  0  0  0  0
  -20.2100   -5.8650  -26.3140 H   0  0  0  0  0  0  0  0  0  0  0  0
  -18.0360   -2.0380  -27.0610 H   0  0  0  0  0  0  0  0  0  0  0  0
  -18.3990   -1.5030  -28.6850 H   0  0  0  0  0  0  0  0  0  0  0  0
  -20.1260   -0.1380  -26.7250 H   0  0  0  0  0  0  0  0  0  0  0  0
  -17.7040   -0.6010  -25.5030 H   0  0  0  0  0  0  0  0  0  0  0  0
  -18.7420    0.8820  -25.3860 H   0  0  0  0  0  0  0  0  0  0  0  0
  -16.4920    0.4350  -27.4310 H   0  0  0  0  0  0  0  0  0  0  0  0
  -16.4690    1.3450  -25.8460 H   0  0  0  0  0  0  0  0  0  0  0  0
  -19.6840    2.3750  -27.4150 H   0  0  0  0  0  0  0  0  0  0  0  0
  -18.7380    2.5540  -28.9080 H   0  0  0  0  0  0  0  0  0  0  0  0
  -18.0800    0.1290  -28.8320 H   0  0  0  0  0  0  0  0  0  0  0  0
  -19.8500    0.3990  -28.8520 H   0  0  0  0  0  0  0  0  0  0  0  0
  1  2  1  0  0  0  0
  2  3  1  0  0  0  0
  3 27  1  0  0  0  0
  3  4  2  0  0  0  0
  4  8  1  0  0  0  0
  5 28  1  0  0  0  0
  5  4  1  0  0  0  0
  6  5  2  0  0  0  0
  7  2  2  0  0  0  0
  7  6  1  0  0  0  0
  8  9  2  0  0  0  0
  9 25  1  0  0  0  0
  9 10  1  0  0  0  0
 10 11  1  0  0  0  0
 11 16  1  0  0  0  0
 12 11  2  0  0  0  0
 12 13  1  0  0  0  0
 13 14  2  0  0  0  0
 14 15  1  0  0  0  0
 14 33  1  0  0  0  0
 15 24  1  0  0  0  0
 16 17  1  0  0  0  0
 16 15  2  0  0  0  0
 17 18  1  0  0  0  0
 17 34  1  0  0  0  0
 18 36  1  0  0  0  0
 18 19  1  0  0  0  0
 19 37  1  0  0  0  0
 19 38  1  0  0  0  0
 20 19  1  0  0  0  0
 20 40  1  0  0  0  0
 21 20  1  0  0  0  0
 22 41  1  0  0  0  0
 22 21  1  0  0  0  0
 23 22  1  0  0  0  0
 23 18  1  0  0  0  0
 25 12  1  0  0  0  0
 26 25  2  0  0  0  0
 29  6  1  0  0  0  0
 30  7  1  0  0  0  0
 31  8  1  0  0  0  0
 32 13  1  0  0  0  0
 35 17  1  0  0  0  0
 39 20  1  0  0  0  0
 42 22  1  0  0  0  0
 43 23  1  0  0  0  0
 44 23  1  0  0  0  0
M  END
>  <Pose>
1

>  <Score>
-6.75

$$$$
