
 OpenBabel03222201593D

 52 55  0  0  0  0  0  0  0  0999 V2000
  -19.0620    5.7550  -22.5520 B   0  0  0  0  0  0  0  0  0  0  0  0
  -18.1270    4.1670  -22.0200 C   0  0  0  0  0  0  0  0  0  0  0  0
  -17.9020    3.1180  -22.9100 C   0  0  0  0  0  0  0  0  0  0  0  0
  -17.2530    1.9820  -22.4670 C   0  0  0  0  0  0  0  0  0  0  0  0
  -16.8440    1.9400  -21.1470 C   0  0  0  0  0  0  0  0  0  0  0  0
  -17.0820    2.9920  -20.3110 C   0  0  0  0  0  0  0  0  0  0  0  0
  -17.7310    4.1380  -20.6870 C   0  0  0  0  0  0  0  0  0  0  0  0
  -17.0700    0.7470  -23.2540 C   0  0  0  0  0  0  0  0  0  0  0  0
  -17.9500    0.3280  -24.1210 N   0  0  0  0  0  0  0  0  0  0  0  0
  -17.9040   -0.7580  -24.8610 N   0  0  0  0  0  0  0  0  0  0  0  0
  -18.2940   -1.5730  -25.8840 C   0  0  0  0  0  0  0  0  0  0  0  0
  -18.5780   -2.7900  -25.8390 O   0  0  0  0  0  0  0  0  0  0  0  0
  -18.4120   -0.8920  -27.2400 C   0  0  0  0  0  0  0  0  0  0  0  0
  -17.6450   -0.0480  -27.8410 N   0  0  0  0  0  0  0  0  0  0  0  0
  -18.0470    0.1160  -29.0980 N   0  0  0  0  0  0  0  0  0  0  0  0
  -19.1290   -0.6780  -29.3140 N   0  0  0  0  0  0  0  0  0  0  0  0
  -19.4110   -1.2900  -28.2120 C   0  0  0  0  0  0  0  0  0  0  0  0
  -20.4540   -2.2050  -27.7600 C   0  0  0  0  0  0  0  0  0  0  0  0
  -20.9140   -3.2780  -28.5170 N   0  0  0  0  0  0  0  0  0  0  0  0
  -20.3850   -4.1300  -29.4100 C   0  0  0  0  0  0  0  0  0  0  0  0
  -20.2730   -5.5300  -28.7470 C   0  0  0  0  0  0  0  0  0  0  0  0
  -20.1980   -5.3270  -27.3440 N   0  0  0  0  0  0  0  0  0  0  0  0
  -21.4560   -4.8850  -26.8210 C   0  0  0  0  0  0  0  0  0  0  0  0
  -22.0790   -3.9330  -27.8490 C   0  0  0  0  0  0  0  0  0  0  0  0
  -19.4640   -6.2180  -26.5500 C   0  0  0  0  0  0  0  0  0  0  0  0
  -19.4270   -1.0140  -30.6990 C   0  0  0  0  0  0  0  0  0  0  0  0
  -20.8220   -1.2970  -30.9340 N   0  0  0  0  0  0  0  0  0  0  0  0
  -21.0250   -1.5850  -32.1310 O   0  0  0  0  0  0  0  0  0  0  0  0
  -19.9000   -1.5410  -32.7760 N   0  0  0  0  0  0  0  0  0  0  0  0
  -18.9080   -1.1790  -31.8660 C   0  0  0  0  0  0  0  0  0  0  0  0
  -17.5770   -1.0500  -32.3110 N   0  0  0  0  0  0  0  0  0  0  0  0
  -18.2390    3.1940  -23.9170 H   0  0  0  0  0  0  0  0  0  0  0  0
  -16.3280    1.0420  -20.8240 H   0  0  0  0  0  0  0  0  0  0  0  0
  -16.7370    2.9590  -19.2520 H   0  0  0  0  0  0  0  0  0  0  0  0
  -17.9050    4.9350  -19.9930 H   0  0  0  0  0  0  0  0  0  0  0  0
  -16.2510    0.0850  -23.0780 H   0  0  0  0  0  0  0  0  0  0  0  0
  -16.9300   -1.3410  -24.4030 H   0  0  0  0  0  0  0  0  0  0  0  0
  -19.8840   -2.7150  -26.7860 H   0  0  0  0  0  0  0  0  0  0  0  0
  -21.2810   -1.7450  -27.2130 H   0  0  0  0  0  0  0  0  0  0  0  0
  -19.4870   -3.9080  -29.9520 H   0  0  0  0  0  0  0  0  0  0  0  0
  -21.1730   -4.2960  -30.2530 H   0  0  0  0  0  0  0  0  0  0  0  0
  -21.1390   -6.1110  -29.0050 H   0  0  0  0  0  0  0  0  0  0  0  0
  -19.3340   -5.9600  -29.1090 H   0  0  0  0  0  0  0  0  0  0  0  0
  -21.3840   -4.3250  -25.8380 H   0  0  0  0  0  0  0  0  0  0  0  0
  -22.1120   -5.7430  -26.6410 H   0  0  0  0  0  0  0  0  0  0  0  0
  -22.7470   -3.2120  -27.4540 H   0  0  0  0  0  0  0  0  0  0  0  0
  -22.5680   -4.5130  -28.6090 H   0  0  0  0  0  0  0  0  0  0  0  0
  -19.0320   -7.0100  -27.2300 H   0  0  0  0  0  0  0  0  0  0  0  0
  -18.5840   -5.6520  -26.1080 H   0  0  0  0  0  0  0  0  0  0  0  0
  -20.0450   -6.6990  -25.7630 H   0  0  0  0  0  0  0  0  0  0  0  0
  -17.3430   -1.7240  -33.1220 H   0  0  0  0  0  0  0  0  0  0  0  0
  -16.8220   -0.4610  -32.0180 H   0  0  0  0  0  0  0  0  0  0  0  0
  1  2  1  0  0  0  0
  2  7  1  0  0  0  0
  3  4  1  0  0  0  0
  3  2  2  0  0  0  0
  4  5  2  0  0  0  0
  5 33  1  0  0  0  0
  5  6  1  0  0  0  0
  6 34  1  0  0  0  0
  7  6  2  0  0  0  0
  7 35  1  0  0  0  0
  8 36  1  0  0  0  0
  8  4  1  0  0  0  0
  9  8  2  0  0  0  0
 10 37  1  0  0  0  0
 10  9  1  0  0  0  0
 11 12  2  0  0  0  0
 11 10  1  0  0  0  0
 13 11  1  0  0  0  0
 14 13  1  0  0  0  0
 15 14  2  0  0  0  0
 16 15  1  0  0  0  0
 16 17  1  0  0  0  0
 17 18  1  0  0  0  0
 17 13  2  0  0  0  0
 18 39  1  0  0  0  0
 18 38  1  0  0  0  0
 19 24  1  0  0  0  0
 19 18  1  0  0  0  0
 20 21  1  0  0  0  0
 20 19  1  0  0  0  0
 21 22  1  0  0  0  0
 22 23  1  0  0  0  0
 22 25  1  0  0  0  0
 23 45  1  0  0  0  0
 23 44  1  0  0  0  0
 24 46  1  0  0  0  0
 24 23  1  0  0  0  0
 25 49  1  0  0  0  0
 25 50  1  0  0  0  0
 26 16  1  0  0  0  0
 27 26  2  0  0  0  0
 28 27  1  0  0  0  0
 29 28  1  0  0  0  0
 29 30  2  0  0  0  0
 30 26  1  0  0  0  0
 31 52  1  0  0  0  0
 31 30  1  0  0  0  0
 32  3  1  0  0  0  0
 40 20  1  0  0  0  0
 41 20  1  0  0  0  0
 42 21  1  0  0  0  0
 43 21  1  0  0  0  0
 47 24  1  0  0  0  0
 48 25  1  0  0  0  0
 51 31  1  0  0  0  0
M  END
>  <Pose>
1

>  <Score>
-7.16

$$$$
