
 OpenBabel03222201593D

 50 53  0  0  0  0  0  0  0  0999 V2000
  -14.8750    6.2750  -33.0530 B   0  0  0  0  0  0  0  0  0  0  0  0
  -15.2460    6.7160  -31.2260 C   0  0  0  0  0  0  0  0  0  0  0  0
  -16.1590    6.0000  -30.4900 C   0  0  0  0  0  0  0  0  0  0  0  0
  -16.4610    6.2800  -29.1690 C   0  0  0  0  0  0  0  0  0  0  0  0
  -15.7890    7.3390  -28.5980 C   0  0  0  0  0  0  0  0  0  0  0  0
  -14.8570    8.0890  -29.3100 C   0  0  0  0  0  0  0  0  0  0  0  0
  -14.5910    7.7710  -30.6250 C   0  0  0  0  0  0  0  0  0  0  0  0
  -17.4340    5.5000  -28.4160 C   0  0  0  0  0  0  0  0  0  0  0  0
  -17.9170    4.3920  -28.8210 N   0  0  0  0  0  0  0  0  0  0  0  0
  -18.8520    3.6250  -28.1200 N   0  0  0  0  0  0  0  0  0  0  0  0
  -18.4460    2.6400  -27.1770 C   0  0  0  0  0  0  0  0  0  0  0  0
  -17.9000    3.0090  -26.0140 N   0  0  0  0  0  4  0  0  0  0  0  0
  -17.4900    2.1170  -25.0690 C   0  0  0  0  0  0  0  0  0  0  0  0
  -17.6710    0.8150  -25.3800 N   0  0  0  0  0  0  0  0  0  0  0  0
  -18.2130    0.3820  -26.5310 C   0  0  0  0  0  0  0  0  0  0  0  0
  -18.5920    1.3380  -27.4140 N   0  0  0  0  0  0  0  0  0  0  0  0
  -18.3900   -0.9790  -26.8290 N   0  0  0  0  0  0  0  0  0  0  0  0
  -18.0790   -2.0160  -25.8820 C   0  0  0  0  0  0  0  0  0  0  0  0
  -19.1620   -3.0880  -26.0630 C   0  0  0  0  0  0  0  0  0  0  0  0
  -20.3310   -2.5140  -26.5570 O   0  0  0  0  0  0  0  0  0  0  0  0
  -20.2370   -2.0720  -27.8520 C   0  0  0  0  0  0  0  0  0  0  0  0
  -18.8950   -1.3740  -28.1130 C   0  0  0  0  0  0  0  0  0  0  0  0
  -16.9160    2.5310  -23.8480 N   0  0  0  0  0  0  0  0  0  0  0  0
  -16.0210    3.6540  -23.8000 C   0  0  0  0  0  0  0  0  0  0  0  0
  -16.5710    4.6140  -22.7520 C   0  0  0  0  0  0  0  0  0  0  0  0
  -16.5930    3.9090  -21.5510 O   0  0  0  0  0  0  0  0  0  0  0  0
  -17.5280    2.8900  -21.5570 C   0  0  0  0  0  0  0  0  0  0  0  0
  -17.2090    1.8440  -22.6200 C   0  0  0  0  0  0  0  0  0  0  0  0
  -16.6920    5.1590  -30.9390 H   0  0  0  0  0  0  0  0  0  0  0  0
  -15.9740    7.6190  -27.5610 H   0  0  0  0  0  0  0  0  0  0  0  0
  -14.3280    8.9230  -28.8660 H   0  0  0  0  0  0  0  0  0  0  0  0
  -13.8680    8.3630  -31.1570 H   0  0  0  0  0  0  0  0  0  0  0  0
  -17.7610    5.8870  -27.4620 H   0  0  0  0  0  0  0  0  0  0  0  0
  -19.8620    3.7910  -28.3070 H   0  0  0  0  0  0  0  0  0  0  0  0
  -18.0580   -1.6550  -24.8360 H   0  0  0  0  0  0  0  0  0  0  0  0
  -17.1300   -2.4840  -26.1940 H   0  0  0  0  0  0  0  0  0  0  0  0
  -19.3920   -3.4640  -25.0550 H   0  0  0  0  0  0  0  0  0  0  0  0
  -18.8200   -3.9030  -26.7110 H   0  0  0  0  0  0  0  0  0  0  0  0
  -20.4520   -2.8220  -28.6160 H   0  0  0  0  0  0  0  0  0  0  0  0
  -21.0080   -1.2560  -27.9810 H   0  0  0  0  0  0  0  0  0  0  0  0
  -19.0280   -0.4870  -28.7390 H   0  0  0  0  0  0  0  0  0  0  0  0
  -18.2100   -2.1280  -28.6060 H   0  0  0  0  0  0  0  0  0  0  0  0
  -15.8800    4.1480  -24.7740 H   0  0  0  0  0  0  0  0  0  0  0  0
  -15.0490    3.2790  -23.3780 H   0  0  0  0  0  0  0  0  0  0  0  0
  -17.6180    4.8180  -23.0310 H   0  0  0  0  0  0  0  0  0  0  0  0
  -15.9540    5.5070  -22.6380 H   0  0  0  0  0  0  0  0  0  0  0  0
  -18.5210    3.3660  -21.7480 H   0  0  0  0  0  0  0  0  0  0  0  0
  -17.5130    2.4210  -20.5540 H   0  0  0  0  0  0  0  0  0  0  0  0
  -16.2940    1.3200  -22.2740 H   0  0  0  0  0  0  0  0  0  0  0  0
  -18.0610    1.1490  -22.6940 H   0  0  0  0  0  0  0  0  0  0  0  0
  1  2  1  0  0  0  0
  2  7  2  0  0  0  0
  2  3  1  0  0  0  0
  3  4  2  0  0  0  0
  4  5  1  0  0  0  0
  4  8  1  0  0  0  0
  5 30  1  0  0  0  0
  6 31  1  0  0  0  0
  6  5  2  0  0  0  0
  7  6  1  0  0  0  0
  8 33  1  0  0  0  0
  9  8  2  0  0  0  0
  9 10  1  0  0  0  0
 10 11  1  0  0  0  0
 11 12  2  0  0  0  0
 12 13  2  0  0  0  0
 13 23  1  0  0  0  0
 14 13  1  0  0  0  0
 15 14  2  0  0  0  0
 16 11  1  0  0  0  0
 16 15  1  0  0  0  0
 17 15  1  0  0  0  0
 17 18  1  0  0  0  0
 18 35  1  0  0  0  0
 19 18  1  0  0  0  0
 19 37  1  0  0  0  0
 20 19  1  0  0  0  0
 21 20  1  0  0  0  0
 22 21  1  0  0  0  0
 22 17  1  0  0  0  0
 23 24  1  0  0  0  0
 23 28  1  0  0  0  0
 24 44  1  0  0  0  0
 24 25  1  0  0  0  0
 25 46  1  0  0  0  0
 25 26  1  0  0  0  0
 27 26  1  0  0  0  0
 27 48  1  0  0  0  0
 28 49  1  0  0  0  0
 28 27  1  0  0  0  0
 29  3  1  0  0  0  0
 32  7  1  0  0  0  0
 34 10  1  0  0  0  0
 36 18  1  0  0  0  0
 38 19  1  0  0  0  0
 39 21  1  0  0  0  0
 40 21  1  0  0  0  0
 41 22  1  0  0  0  0
 42 22  1  0  0  0  0
 43 24  1  0  0  0  0
 45 25  1  0  0  0  0
 47 27  1  0  0  0  0
 50 28  1  0  0  0  0
M  END
>  <Pose>
1

>  <Score>
-6.55

$$$$
