
 OpenBabel03222201593D

 63 66  0  0  1  0  0  0  0  0999 V2000
  -20.2050    1.0700  -39.0300 B   0  0  0  0  0  0  0  0  0  0  0  0
  -19.6440    0.7990  -37.2270 C   0  0  0  0  0  0  0  0  0  0  0  0
  -20.2140   -0.2080  -36.4770 C   0  0  0  0  0  0  0  0  0  0  0  0
  -19.8400   -0.4450  -35.1600 C   0  0  0  0  0  0  0  0  0  0  0  0
  -18.8580    0.3940  -34.6550 C   0  0  0  0  0  0  0  0  0  0  0  0
  -18.2820    1.4030  -35.3980 C   0  0  0  0  0  0  0  0  0  0  0  0
  -18.6700    1.6190  -36.7010 C   0  0  0  0  0  0  0  0  0  0  0  0
  -20.4500   -1.5350  -34.3620 C   0  0  2  0  0  0  0  0  0  0  0  0
  -21.8920   -1.3850  -34.4120 N   0  0  0  0  0  0  0  0  0  0  0  0
  -22.2110   -0.3240  -33.5230 C   0  0  0  0  0  0  0  0  0  0  0  0
  -23.2130    0.4230  -33.5610 O   0  0  0  0  0  0  0  0  0  0  0  0
  -21.1210   -0.2590  -32.5250 C   0  0  0  0  0  0  0  0  0  0  0  0
  -21.0190    0.5330  -31.5630 O   0  0  0  0  0  0  0  0  0  0  0  0
  -20.1910   -1.3170  -32.8960 C   0  0  0  0  0  0  0  0  0  0  0  0
  -19.3780   -1.9310  -32.0920 C   0  0  0  0  0  0  0  0  0  0  0  0
  -18.5910   -2.9780  -32.6170 O   0  0  0  0  0  0  0  0  0  0  0  0
  -19.1940   -1.6340  -30.6790 C   0  0  0  0  0  0  0  0  0  0  0  0
  -18.5910   -0.6250  -30.0070 C   0  0  0  0  0  0  0  0  0  0  0  0
  -18.7700   -0.8300  -28.6860 N   0  0  0  0  0  0  0  0  0  0  0  0
  -19.4720   -1.9480  -28.4600 C   0  0  0  0  0  0  0  0  0  0  0  0
  -19.7510   -2.4730  -29.6930 C   0  0  0  0  0  0  0  0  0  0  0  0
  -20.5210   -3.7300  -29.9420 C   0  0  0  0  0  0  0  0  0  0  0  0
  -19.8650   -2.5020  -27.1480 C   0  0  0  0  0  0  0  0  0  0  0  0
  -21.0590   -2.7600  -26.9340 O   0  0  0  0  0  0  0  0  0  0  0  0
  -18.9190   -2.7320  -26.1670 O   0  0  0  0  0  0  0  0  0  0  0  0
  -18.3070   -1.7100  -25.4150 C   0  0  0  0  0  0  0  0  0  0  0  0
  -17.8030    0.5200  -30.5770 C   0  0  0  0  0  0  0  0  0  0  0  0
  -22.8400   -2.1660  -35.2100 C   0  0  0  0  0  0  0  0  0  0  0  0
  -23.3020   -1.3890  -36.4230 C   0  0  0  0  0  0  0  0  0  0  0  0
  -22.9030   -1.9640  -37.6660 N   0  0  0  0  0  4  0  0  0  0  0  0
  -22.6560   -0.9840  -38.7170 C   0  0  0  0  0  0  0  0  0  0  0  0
  -21.8300   -1.6570  -39.7790 C   0  0  0  0  0  0  0  0  0  0  0  0
  -22.0150   -3.0160  -39.7070 O   0  0  0  0  0  0  0  0  0  0  0  0
  -23.3300   -3.4040  -39.5190 C   0  0  0  0  0  0  0  0  0  0  0  0
  -23.9100   -2.8660  -38.2110 C   0  0  0  0  0  0  0  0  0  0  0  0
  -20.9850   -0.8470  -36.8920 H   0  0  0  0  0  0  0  0  0  0  0  0
  -18.5490    0.2260  -33.6250 H   0  0  0  0  0  0  0  0  0  0  0  0
  -17.5130    2.0530  -34.9860 H   0  0  0  0  0  0  0  0  0  0  0  0
  -18.2170    2.4210  -37.3030 H   0  0  0  0  0  0  0  0  0  0  0  0
  -20.1080   -2.5350  -34.6810 H   0  0  0  0  0  0  0  0  0  0  0  0
  -18.3970   -0.1850  -27.9310 H   0  0  0  0  0  0  0  0  0  0  0  0
  -20.1230   -4.5620  -29.3260 H   0  0  0  0  0  0  0  0  0  0  0  0
  -20.3880   -4.0280  -30.9950 H   0  0  0  0  0  0  0  0  0  0  0  0
  -21.5880   -3.6230  -29.6990 H   0  0  0  0  0  0  0  0  0  0  0  0
  -19.0240   -0.9160  -25.1070 H   0  0  0  0  0  0  0  0  0  0  0  0
  -17.4250   -1.2720  -25.9540 H   0  0  0  0  0  0  0  0  0  0  0  0
  -17.8970   -2.2020  -24.4940 H   0  0  0  0  0  0  0  0  0  0  0  0
  -18.3640    1.4670  -30.5150 H   0  0  0  0  0  0  0  0  0  0  0  0
  -17.5090    0.3000  -31.6130 H   0  0  0  0  0  0  0  0  0  0  0  0
  -16.8770    0.5760  -29.9210 H   0  0  0  0  0  0  0  0  0  0  0  0
  -22.3800   -3.1160  -35.5520 H   0  0  0  0  0  0  0  0  0  0  0  0
  -23.7550   -2.3810  -34.6150 H   0  0  0  0  0  0  0  0  0  0  0  0
  -22.9210   -0.3290  -36.3190 H   0  0  0  0  0  0  0  0  0  0  0  0
  -24.4010   -1.2890  -36.4330 H   0  0  0  0  0  0  0  0  0  0  0  0
  -22.0590   -2.5470  -37.5200 H   0  0  0  0  0  0  0  0  0  0  0  0
  -23.6620   -0.7670  -39.1810 H   0  0  0  0  0  0  0  0  0  0  0  0
  -22.2610   -0.0370  -38.3570 H   0  0  0  0  0  0  0  0  0  0  0  0
  -22.0490   -1.3020  -40.8010 H   0  0  0  0  0  0  0  0  0  0  0  0
  -20.7390   -1.4590  -39.6030 H   0  0  0  0  0  0  0  0  0  0  0  0
  -23.3040   -4.5260  -39.4090 H   0  0  0  0  0  0  0  0  0  0  0  0
  -23.9870   -3.1800  -40.3820 H   0  0  0  0  0  0  0  0  0  0  0  0
  -24.1860   -3.6650  -37.5220 H   0  0  0  0  0  0  0  0  0  0  0  0
  -24.8080   -2.2580  -38.4940 H   0  0  0  0  0  0  0  0  0  0  0  0
  1  2  1  0  0  0  0
  2  7  2  0  0  0  0
  2  3  1  0  0  0  0
  3  4  2  0  0  0  0
  4  5  1  0  0  0  0
  4  8  1  0  0  0  0
  5 37  1  0  0  0  0
  6 38  1  0  0  0  0
  6  5  2  0  0  0  0
  7  6  1  0  0  0  0
  8 40  1  6  0  0  0
  8 14  1  0  0  0  0
  9  8  1  0  0  0  0
  9 10  1  0  0  0  0
 10 12  1  0  0  0  0
 11 10  2  0  0  0  0
 12 13  2  0  0  0  0
 14 12  1  0  0  0  0
 14 15  2  0  0  0  0
 15 17  1  0  0  0  0
 16 15  1  0  0  0  0
 17 18  2  0  0  0  0
 17 21  1  0  0  0  0
 18 19  1  0  0  0  0
 19 20  1  0  0  0  0
 19 41  1  0  0  0  0
 20 23  1  0  0  0  0
 21 20  2  0  0  0  0
 22 44  1  0  0  0  0
 22 21  1  0  0  0  0
 22 42  1  0  0  0  0
 23 24  2  0  0  0  0
 23 25  1  0  0  0  0
 25 26  1  0  0  0  0
 26 45  1  0  0  0  0
 26 47  1  0  0  0  0
 27 48  1  0  0  0  0
 27 18  1  0  0  0  0
 27 50  1  0  0  0  0
 28 52  1  0  0  0  0
 28  9  1  0  0  0  0
 29 53  1  0  0  0  0
 29 28  1  0  0  0  0
 30 55  1  0  0  0  0
 30 29  1  0  0  0  0
 31 57  1  0  0  0  0
 31 30  1  0  0  0  0
 32 33  1  0  0  0  0
 32 59  1  0  0  0  0
 32 31  1  0  0  0  0
 33 34  1  0  0  0  0
 34 60  1  0  0  0  0
 34 35  1  0  0  0  0
 35 30  1  0  0  0  0
 35 62  1  0  0  0  0
 36  3  1  0  0  0  0
 39  7  1  0  0  0  0
 43 22  1  0  0  0  0
 46 26  1  0  0  0  0
 49 27  1  0  0  0  0
 51 28  1  0  0  0  0
 54 29  1  0  0  0  0
 56 31  1  0  0  0  0
 58 32  1  0  0  0  0
 61 34  1  0  0  0  0
 63 35  1  0  0  0  0
M  END
>  <Pose>
1

>  <Score>
-6.41

$$$$
