
 OpenBabel03222201593D

 63 66  0  0  1  0  0  0  0  0999 V2000
  -23.9790   -1.6860  -37.7470 B   0  0  0  0  0  0  0  0  0  0  0  0
  -23.2870   -0.9040  -36.1540 C   0  0  0  0  0  0  0  0  0  0  0  0
  -22.0180   -1.2410  -35.6970 C   0  0  0  0  0  0  0  0  0  0  0  0
  -21.5030   -0.6830  -34.5490 C   0  0  0  0  0  0  0  0  0  0  0  0
  -22.2690    0.2220  -33.8490 C   0  0  0  0  0  0  0  0  0  0  0  0
  -23.5300    0.5610  -34.2980 C   0  0  0  0  0  0  0  0  0  0  0  0
  -24.0550    0.0080  -35.4470 C   0  0  0  0  0  0  0  0  0  0  0  0
  -20.1600   -1.0260  -34.0470 C   0  0  1  0  0  0  0  0  0  0  0  0
  -19.2520    0.1040  -34.0270 N   0  0  0  0  0  0  0  0  0  0  0  0
  -19.2910    0.7550  -32.7750 C   0  0  0  0  0  0  0  0  0  0  0  0
  -18.9210    1.9060  -32.4300 O   0  0  0  0  0  0  0  0  0  0  0  0
  -19.8960   -0.2220  -31.8340 C   0  0  0  0  0  0  0  0  0  0  0  0
  -20.0840    0.0120  -30.6240 O   0  0  0  0  0  0  0  0  0  0  0  0
  -20.1920   -1.4220  -32.5960 C   0  0  0  0  0  0  0  0  0  0  0  0
  -20.3900   -2.6160  -32.1000 C   0  0  0  0  0  0  0  0  0  0  0  0
  -20.5960   -3.6960  -32.9750 O   0  0  0  0  0  0  0  0  0  0  0  0
  -20.4120   -2.8680  -30.6840 C   0  0  0  0  0  0  0  0  0  0  0  0
  -19.7270   -1.9540  -29.8700 C   0  0  0  0  0  0  0  0  0  0  0  0
  -19.6610   -2.1380  -28.5160 C   0  0  0  0  0  0  0  0  0  0  0  0
  -20.2610   -3.2240  -27.8920 C   0  0  0  0  0  0  0  0  0  0  0  0
  -20.9180   -4.0980  -28.7010 C   0  0  0  0  0  0  0  0  0  0  0  0
  -20.9940   -3.9290  -30.0690 C   0  0  0  0  0  0  0  0  0  0  0  0
  -20.1490   -3.3370  -26.5210 O   0  0  0  0  0  0  0  0  0  0  0  0
  -19.0720   -4.0530  -25.9350 C   0  0  0  0  0  0  0  0  0  0  0  0
  -18.9260   -1.1520  -27.6610 C   0  0  0  0  0  0  0  0  0  0  0  0
  -18.3880    0.5360  -35.1370 C   0  0  0  0  0  0  0  0  0  0  0  0
  -19.2100    0.7200  -36.3820 C   0  0  0  0  0  0  0  0  0  0  0  0
  -19.2620   -0.4640  -37.2860 C   0  0  0  0  0  0  0  0  0  0  0  0
  -19.6750   -0.1480  -38.6360 N   0  0  0  0  0  4  0  0  0  0  0  0
  -20.8830   -0.8560  -39.0100 C   0  0  0  0  0  0  0  0  0  0  0  0
  -22.0140    0.1070  -39.2520 C   0  0  0  0  0  0  0  0  0  0  0  0
  -21.6390    0.9470  -40.3200 O   0  0  0  0  0  0  0  0  0  0  0  0
  -20.5390    1.7240  -39.9670 C   0  0  0  0  0  0  0  0  0  0  0  0
  -19.8840    1.3020  -38.6910 C   0  0  0  0  0  0  0  0  0  0  0  0
  -21.4290   -1.9450  -36.2460 H   0  0  0  0  0  0  0  0  0  0  0  0
  -21.9200    0.6960  -32.9370 H   0  0  0  0  0  0  0  0  0  0  0  0
  -24.1210    1.2720  -33.7400 H   0  0  0  0  0  0  0  0  0  0  0  0
  -25.0420    0.2720  -35.7970 H   0  0  0  0  0  0  0  0  0  0  0  0
  -19.6640   -1.8060  -34.6650 H   0  0  0  0  0  0  0  0  0  0  0  0
  -19.2400   -1.0820  -30.3330 H   0  0  0  0  0  0  0  0  0  0  0  0
  -21.4000   -4.9620  -28.2510 H   0  0  0  0  0  0  0  0  0  0  0  0
  -21.5090   -4.6760  -30.6930 H   0  0  0  0  0  0  0  0  0  0  0  0
  -18.9870   -3.8640  -24.8590 H   0  0  0  0  0  0  0  0  0  0  0  0
  -18.1000   -3.8350  -26.4410 H   0  0  0  0  0  0  0  0  0  0  0  0
  -19.2200   -5.1620  -26.0570 H   0  0  0  0  0  0  0  0  0  0  0  0
  -17.8840   -1.1300  -28.0690 H   0  0  0  0  0  0  0  0  0  0  0  0
  -18.8760   -1.5000  -26.6330 H   0  0  0  0  0  0  0  0  0  0  0  0
  -19.3840   -0.1390  -27.7090 H   0  0  0  0  0  0  0  0  0  0  0  0
  -17.5800   -0.1970  -35.3050 H   0  0  0  0  0  0  0  0  0  0  0  0
  -17.9740    1.5440  -34.8620 H   0  0  0  0  0  0  0  0  0  0  0  0
  -20.2780    0.9690  -36.1280 H   0  0  0  0  0  0  0  0  0  0  0  0
  -18.8140    1.5750  -36.9940 H   0  0  0  0  0  0  0  0  0  0  0  0
  -19.9660   -1.1990  -36.8160 H   0  0  0  0  0  0  0  0  0  0  0  0
  -18.2960   -1.0010  -37.3640 H   0  0  0  0  0  0  0  0  0  0  0  0
  -18.9420   -0.3420  -39.3500 H   0  0  0  0  0  0  0  0  0  0  0  0
  -21.2040   -1.5550  -38.2100 H   0  0  0  0  0  0  0  0  0  0  0  0
  -20.7330   -1.4070  -39.9850 H   0  0  0  0  0  0  0  0  0  0  0  0
  -22.9180   -0.4140  -39.5750 H   0  0  0  0  0  0  0  0  0  0  0  0
  -22.2450    0.7150  -38.3530 H   0  0  0  0  0  0  0  0  0  0  0  0
  -19.7720    1.6990  -40.7700 H   0  0  0  0  0  0  0  0  0  0  0  0
  -20.8940    2.7760  -39.8260 H   0  0  0  0  0  0  0  0  0  0  0  0
  -18.8370    1.7260  -38.7220 H   0  0  0  0  0  0  0  0  0  0  0  0
  -20.3710    1.6820  -37.7770 H   0  0  0  0  0  0  0  0  0  0  0  0
  1  2  1  0  0  0  0
  2  3  2  0  0  0  0
  2  7  1  0  0  0  0
  3  4  1  0  0  0  0
  4  8  1  0  0  0  0
  4  5  2  0  0  0  0
  5 36  1  0  0  0  0
  6  5  1  0  0  0  0
  6 37  1  0  0  0  0
  7  6  2  0  0  0  0
  8 39  1  6  0  0  0
  8  9  1  0  0  0  0
  8 14  1  0  0  0  0
  9 10  1  0  0  0  0
 10 11  2  0  0  0  0
 10 12  1  0  0  0  0
 12 13  2  0  0  0  0
 14 15  2  0  0  0  0
 14 12  1  0  0  0  0
 15 17  1  0  0  0  0
 16 15  1  0  0  0  0
 17 22  2  0  0  0  0
 17 18  1  0  0  0  0
 18 19  2  0  0  0  0
 19 20  1  0  0  0  0
 19 25  1  0  0  0  0
 20 23  1  0  0  0  0
 21 41  1  0  0  0  0
 21 20  2  0  0  0  0
 22 21  1  0  0  0  0
 23 24  1  0  0  0  0
 24 43  1  0  0  0  0
 25 47  1  0  0  0  0
 26 50  1  0  0  0  0
 26  9  1  0  0  0  0
 27 51  1  0  0  0  0
 27 26  1  0  0  0  0
 28 53  1  0  0  0  0
 28 27  1  0  0  0  0
 29 28  1  0  0  0  0
 30 29  1  0  0  0  0
 30 56  1  0  0  0  0
 31 30  1  0  0  0  0
 31 59  1  0  0  0  0
 32 33  1  0  0  0  0
 32 31  1  0  0  0  0
 33 61  1  0  0  0  0
 33 34  1  0  0  0  0
 34 29  1  0  0  0  0
 34 63  1  0  0  0  0
 35  3  1  0  0  0  0
 38  7  1  0  0  0  0
 40 18  1  0  0  0  0
 42 22  1  0  0  0  0
 44 24  1  0  0  0  0
 45 24  1  0  0  0  0
 46 25  1  0  0  0  0
 48 25  1  0  0  0  0
 49 26  1  0  0  0  0
 52 27  1  0  0  0  0
 54 28  1  0  0  0  0
 55 29  1  0  0  0  0
 57 30  1  0  0  0  0
 58 31  1  0  0  0  0
 60 33  1  0  0  0  0
 62 34  1  0  0  0  0
M  END
>  <Pose>
1

>  <Score>
-6.57

$$$$
