
 OpenBabel03222201593D

 56 59  0  0  1  0  0  0  0  0999 V2000
  -21.5140   -5.5690  -31.7230 B   0  0  0  0  0  0  0  0  0  0  0  0
  -20.7040   -4.6200  -30.2770 C   0  0  0  0  0  0  0  0  0  0  0  0
  -20.1510   -3.3570  -30.4650 C   0  0  0  0  0  0  0  0  0  0  0  0
  -19.5590   -2.6470  -29.4410 C   0  0  0  0  0  0  0  0  0  0  0  0
  -19.5390   -3.2600  -28.1960 C   0  0  0  0  0  0  0  0  0  0  0  0
  -20.0800   -4.5110  -27.9890 C   0  0  0  0  0  0  0  0  0  0  0  0
  -20.6580   -5.1780  -29.0380 C   0  0  0  0  0  0  0  0  0  0  0  0
  -18.9680   -1.2950  -29.6450 C   0  0  2  0  0  0  0  0  0  0  0  0
  -19.5090   -0.3110  -28.7560 N   0  0  0  0  0  0  0  0  0  0  0  0
  -20.6300    0.2530  -29.4190 C   0  0  0  0  0  0  0  0  0  0  0  0
  -21.5630    0.8920  -28.8720 O   0  0  0  0  0  0  0  0  0  0  0  0
  -20.5300   -0.0290  -30.8700 C   0  0  0  0  0  0  0  0  0  0  0  0
  -21.3220    0.3070  -31.7670 O   0  0  0  0  0  0  0  0  0  0  0  0
  -19.3020   -0.7860  -31.0230 C   0  0  0  0  0  0  0  0  0  0  0  0
  -18.5880   -0.9580  -32.1140 C   0  0  0  0  0  0  0  0  0  0  0  0
  -17.4020   -1.6580  -32.0540 O   0  0  0  0  0  0  0  0  0  0  0  0
  -19.0130   -0.4370  -33.3880 C   0  0  0  0  0  0  0  0  0  0  0  0
  -18.5430    0.6850  -34.0060 C   0  0  0  0  0  0  0  0  0  0  0  0
  -19.0150    1.0470  -35.2540 C   0  0  0  0  0  0  0  0  0  0  0  0
  -19.9650    0.3300  -35.9450 C   0  0  0  0  0  0  0  0  0  0  0  0
  -20.4400   -0.8030  -35.3180 C   0  0  0  0  0  0  0  0  0  0  0  0
  -19.9850   -1.1800  -34.0790 C   0  0  0  0  0  0  0  0  0  0  0  0
  -20.4580    0.7420  -37.2890 C   0  0  0  0  0  0  0  0  0  0  0  0
  -19.0310    0.0670  -27.4110 C   0  0  0  0  0  0  0  0  0  0  0  0
  -18.1280    1.2570  -27.5770 C   0  0  0  0  0  0  0  0  0  0  0  0
  -18.4790    2.3960  -26.8080 N   0  0  0  0  0  4  0  0  0  0  0  0
  -17.8480    2.5100  -25.5260 C   0  0  0  0  0  0  0  0  0  0  0  0
  -16.5610    3.2890  -25.5370 C   0  0  0  0  0  0  0  0  0  0  0  0
  -16.6010    4.4180  -26.3240 O   0  0  0  0  0  0  0  0  0  0  0  0
  -16.9500    4.1360  -27.6240 C   0  0  0  0  0  0  0  0  0  0  0  0
  -18.3490    3.5820  -27.6170 C   0  0  0  0  0  0  0  0  0  0  0  0
  -20.1990   -2.9430  -31.4400 H   0  0  0  0  0  0  0  0  0  0  0  0
  -19.0890   -2.7510  -27.3640 H   0  0  0  0  0  0  0  0  0  0  0  0
  -20.0480   -4.9600  -27.0060 H   0  0  0  0  0  0  0  0  0  0  0  0
  -21.0890   -6.1700  -28.8760 H   0  0  0  0  0  0  0  0  0  0  0  0
  -17.8920   -1.3600  -29.4850 H   0  0  0  0  0  0  0  0  0  0  0  0
  -17.8150    1.2890  -33.4730 H   0  0  0  0  0  0  0  0  0  0  0  0
  -18.6240    1.9420  -35.7220 H   0  0  0  0  0  0  0  0  0  0  0  0
  -21.1980   -1.3810  -35.8600 H   0  0  0  0  0  0  0  0  0  0  0  0
  -20.4010   -2.0840  -33.6420 H   0  0  0  0  0  0  0  0  0  0  0  0
  -19.6600    1.2720  -37.8760 H   0  0  0  0  0  0  0  0  0  0  0  0
  -20.6690   -0.1860  -37.8980 H   0  0  0  0  0  0  0  0  0  0  0  0
  -21.3850    1.3130  -37.2530 H   0  0  0  0  0  0  0  0  0  0  0  0
  -19.9040    0.3960  -26.8030 H   0  0  0  0  0  0  0  0  0  0  0  0
  -18.5360   -0.8260  -27.0250 H   0  0  0  0  0  0  0  0  0  0  0  0
  -18.0930    1.4660  -28.6870 H   0  0  0  0  0  0  0  0  0  0  0  0
  -17.0940    0.9100  -27.3350 H   0  0  0  0  0  0  0  0  0  0  0  0
  -19.5240    2.3200  -26.6200 H   0  0  0  0  0  0  0  0  0  0  0  0
  -17.6210    1.5220  -25.0770 H   0  0  0  0  0  0  0  0  0  0  0  0
  -18.5190    3.0200  -24.7990 H   0  0  0  0  0  0  0  0  0  0  0  0
  -16.3500    3.6320  -24.4890 H   0  0  0  0  0  0  0  0  0  0  0  0
  -15.6830    2.6890  -25.8270 H   0  0  0  0  0  0  0  0  0  0  0  0
  -16.2280    3.4790  -28.1460 H   0  0  0  0  0  0  0  0  0  0  0  0
  -16.9780    5.0900  -28.1900 H   0  0  0  0  0  0  0  0  0  0  0  0
  -18.7000    3.3070  -28.6410 H   0  0  0  0  0  0  0  0  0  0  0  0
  -19.0310    4.3830  -27.2620 H   0  0  0  0  0  0  0  0  0  0  0  0
  1  2  1  0  0  0  0
  2  7  1  0  0  0  0
  3  2  2  0  0  0  0
  3  4  1  0  0  0  0
  4  5  2  0  0  0  0
  5  6  1  0  0  0  0
  5 33  1  0  0  0  0
  6 34  1  0  0  0  0
  7 35  1  0  0  0  0
  7  6  2  0  0  0  0
  8 36  1  1  0  0  0
  8  4  1  0  0  0  0
  8  9  1  0  0  0  0
  9 24  1  0  0  0  0
 10 11  2  0  0  0  0
 10  9  1  0  0  0  0
 12 10  1  0  0  0  0
 13 12  2  0  0  0  0
 14 12  1  0  0  0  0
 14  8  1  0  0  0  0
 15 16  1  0  0  0  0
 15 14  2  0  0  0  0
 17 15  1  0  0  0  0
 18 37  1  0  0  0  0
 18 17  1  0  0  0  0
 19 18  2  0  0  0  0
 20 21  2  0  0  0  0
 20 19  1  0  0  0  0
 21 22  1  0  0  0  0
 22 40  1  0  0  0  0
 22 17  2  0  0  0  0
 23 43  1  0  0  0  0
 23 20  1  0  0  0  0
 24 45  1  0  0  0  0
 24 44  1  0  0  0  0
 25 24  1  0  0  0  0
 25 47  1  0  0  0  0
 25 26  1  0  0  0  0
 26 48  1  0  0  0  0
 26 27  1  0  0  0  0
 27 49  1  0  0  0  0
 27 50  1  0  0  0  0
 28 27  1  0  0  0  0
 28 51  1  0  0  0  0
 29 28  1  0  0  0  0
 30 31  1  0  0  0  0
 30 29  1  0  0  0  0
 31 56  1  0  0  0  0
 31 26  1  0  0  0  0
 32  3  1  0  0  0  0
 38 19  1  0  0  0  0
 39 21  1  0  0  0  0
 41 23  1  0  0  0  0
 42 23  1  0  0  0  0
 46 25  1  0  0  0  0
 52 28  1  0  0  0  0
 53 30  1  0  0  0  0
 54 30  1  0  0  0  0
 55 31  1  0  0  0  0
M  END
>  <Pose>
1

>  <Score>
-6.12

$$$$
