
 OpenBabel03222201593D

 56 59  0  0  1  0  0  0  0  0999 V2000
  -20.4950    7.6330  -27.0780 B   0  0  0  0  0  0  0  0  0  0  0  0
  -19.7640    6.4660  -25.7700 C   0  0  0  0  0  0  0  0  0  0  0  0
  -18.7340    5.5780  -26.0490 C   0  0  0  0  0  0  0  0  0  0  0  0
  -18.2130    4.7320  -25.0960 C   0  0  0  0  0  0  0  0  0  0  0  0
  -18.7410    4.7820  -23.8400 C   0  0  0  0  0  0  0  0  0  0  0  0
  -19.7800    5.6750  -23.5460 C   0  0  0  0  0  0  0  0  0  0  0  0
  -20.3000    6.5190  -24.5000 C   0  0  0  0  0  0  0  0  0  0  0  0
  -17.1090    3.8030  -25.4460 C   0  0  1  0  0  0  0  0  0  0  0  0
  -16.2480    3.5730  -24.2970 N   0  0  0  0  0  0  0  0  0  0  0  0
  -16.7500    2.3990  -23.6260 C   0  0  0  0  0  0  0  0  0  0  0  0
  -16.4830    2.0850  -22.4400 O   0  0  0  0  0  0  0  0  0  0  0  0
  -17.5890    1.6950  -24.5720 C   0  0  0  0  0  0  0  0  0  0  0  0
  -18.2330    0.6140  -24.3990 O   0  0  0  0  0  0  0  0  0  0  0  0
  -17.5820    2.4560  -25.8150 C   0  0  0  0  0  0  0  0  0  0  0  0
  -17.9680    1.9980  -26.9970 C   0  0  0  0  0  0  0  0  0  0  0  0
  -17.9160    2.9570  -28.0300 O   0  0  0  0  0  0  0  0  0  0  0  0
  -18.4110    0.6380  -27.2570 C   0  0  0  0  0  0  0  0  0  0  0  0
  -17.7840   -0.5020  -26.8120 C   0  0  0  0  0  0  0  0  0  0  0  0
  -18.2700   -1.7690  -27.0620 C   0  0  0  0  0  0  0  0  0  0  0  0
  -19.4280   -1.9440  -27.7860 C   0  0  0  0  0  0  0  0  0  0  0  0
  -20.0710   -0.8100  -28.2420 C   0  0  0  0  0  0  0  0  0  0  0  0
  -19.5770    0.4530  -27.9860 C   0  0  0  0  0  0  0  0  0  0  0  0
  -20.0710   -3.5560  -28.1190 Cl  0  0  0  0  0  0  0  0  0  0  0  0
  -15.1830    4.4220  -23.8720 C   0  0  0  0  0  0  0  0  0  0  0  0
  -15.0260    4.7210  -22.4370 C   0  0  0  0  0  0  0  0  0  0  0  0
  -14.8670    3.6180  -21.4590 C   0  0  0  0  0  0  0  0  0  0  0  0
  -13.6010    2.9730  -21.3670 N   0  0  0  0  0  4  0  0  0  0  0  0
  -12.7540    3.3440  -22.4720 C   0  0  0  0  0  0  0  0  0  0  0  0
  -11.8590    4.5280  -22.1690 C   0  0  0  0  0  0  0  0  0  0  0  0
  -10.9390    4.1900  -21.1740 O   0  0  0  0  0  0  0  0  0  0  0  0
  -11.4300    3.1570  -20.3720 C   0  0  0  0  0  0  0  0  0  0  0  0
  -12.8880    3.4360  -20.1360 C   0  0  0  0  0  0  0  0  0  0  0  0
  -18.3340    5.5570  -27.0480 H   0  0  0  0  0  0  0  0  0  0  0  0
  -18.3680    4.1450  -23.0690 H   0  0  0  0  0  0  0  0  0  0  0  0
  -20.1970    5.7200  -22.5590 H   0  0  0  0  0  0  0  0  0  0  0  0
  -21.1100    7.2170  -24.2750 H   0  0  0  0  0  0  0  0  0  0  0  0
  -16.4850    4.2750  -26.2320 H   0  0  0  0  0  0  0  0  0  0  0  0
  -16.8630   -0.4160  -26.2590 H   0  0  0  0  0  0  0  0  0  0  0  0
  -17.7740   -2.6640  -26.7090 H   0  0  0  0  0  0  0  0  0  0  0  0
  -20.9800   -0.9690  -28.8100 H   0  0  0  0  0  0  0  0  0  0  0  0
  -20.0920    1.3400  -28.3510 H   0  0  0  0  0  0  0  0  0  0  0  0
  -15.3380    5.4090  -24.4230 H   0  0  0  0  0  0  0  0  0  0  0  0
  -14.2070    3.9780  -24.2820 H   0  0  0  0  0  0  0  0  0  0  0  0
  -15.8720    5.4200  -22.0760 H   0  0  0  0  0  0  0  0  0  0  0  0
  -14.1010    5.3940  -22.2900 H   0  0  0  0  0  0  0  0  0  0  0  0
  -15.6270    2.8050  -21.6360 H   0  0  0  0  0  0  0  0  0  0  0  0
  -15.1260    3.9880  -20.4080 H   0  0  0  0  0  0  0  0  0  0  0  0
  -13.6740    1.9680  -21.2280 H   0  0  0  0  0  0  0  0  0  0  0  0
  -13.3740    3.5940  -23.3580 H   0  0  0  0  0  0  0  0  0  0  0  0
  -12.1070    2.4940  -22.7500 H   0  0  0  0  0  0  0  0  0  0  0  0
  -12.4870    5.3960  -21.8900 H   0  0  0  0  0  0  0  0  0  0  0  0
  -11.3130    4.7830  -23.0790 H   0  0  0  0  0  0  0  0  0  0  0  0
  -11.2790    2.2100  -20.9150 H   0  0  0  0  0  0  0  0  0  0  0  0
  -10.8420    3.1450  -19.4290 H   0  0  0  0  0  0  0  0  0  0  0  0
  -13.0790    4.5240  -20.0390 H   0  0  0  0  0  0  0  0  0  0  0  0
  -13.2640    2.8450  -19.2800 H   0  0  0  0  0  0  0  0  0  0  0  0
  1  2  1  0  0  0  0
  2  7  1  0  0  0  0
  3  2  2  0  0  0  0
  3  4  1  0  0  0  0
  4  5  2  0  0  0  0
  5  6  1  0  0  0  0
  5 34  1  0  0  0  0
  6 35  1  0  0  0  0
  7 36  1  0  0  0  0
  7  6  2  0  0  0  0
  8 37  1  6  0  0  0
  8  4  1  0  0  0  0
  8  9  1  0  0  0  0
  9 24  1  0  0  0  0
  9 10  1  0  0  0  0
 10 11  2  0  0  0  0
 12 13  2  0  0  0  0
 12 10  1  0  0  0  0
 14  8  1  0  0  0  0
 14 12  1  0  0  0  0
 15 14  2  0  0  0  0
 16 15  1  0  0  0  0
 17 15  1  0  0  0  0
 17 18  1  0  0  0  0
 18 38  1  0  0  0  0
 19 18  2  0  0  0  0
 19 39  1  0  0  0  0
 20 19  1  0  0  0  0
 21 22  1  0  0  0  0
 21 20  2  0  0  0  0
 22 17  2  0  0  0  0
 23 20  1  0  0  0  0
 24 25  1  0  0  0  0
 25 45  1  0  0  0  0
 25 44  1  0  0  0  0
 25 26  1  0  0  0  0
 26 27  1  0  0  0  0
 26 47  1  0  0  0  0
 27 48  1  0  0  0  0
 27 32  1  0  0  0  0
 28 29  1  0  0  0  0
 28 27  1  0  0  0  0
 29 51  1  0  0  0  0
 29 30  1  0  0  0  0
 30 31  1  0  0  0  0
 31 32  1  0  0  0  0
 31 54  1  0  0  0  0
 32 55  1  0  0  0  0
 32 56  1  0  0  0  0
 33  3  1  0  0  0  0
 40 21  1  0  0  0  0
 41 22  1  0  0  0  0
 42 24  1  0  0  0  0
 43 24  1  0  0  0  0
 46 26  1  0  0  0  0
 49 28  1  0  0  0  0
 50 28  1  0  0  0  0
 52 29  1  0  0  0  0
 53 31  1  0  0  0  0
M  END
>  <Pose>
1

>  <Score>
-6.36

$$$$
