
 OpenBabel03222201593D

 62 66  0  0  1  0  0  0  0  0999 V2000
  -20.4130   -4.6050  -28.1050 B   0  0  0  0  0  0  0  0  0  0  0  0
  -20.7100   -4.2640  -29.9660 C   0  0  0  0  0  0  0  0  0  0  0  0
  -20.3800   -3.0550  -30.5210 C   0  0  0  0  0  0  0  0  0  0  0  0
  -20.5790   -2.7520  -31.8830 C   0  0  0  0  0  0  0  0  0  0  0  0
  -21.1340   -3.7910  -32.5970 C   0  0  0  0  0  0  0  0  0  0  0  0
  -21.4740   -5.0140  -32.0600 C   0  0  0  0  0  0  0  0  0  0  0  0
  -21.2610   -5.2630  -30.7230 C   0  0  0  0  0  0  0  0  0  0  0  0
  -20.1910   -1.4650  -32.3780 C   0  0  2  0  0  0  0  0  0  0  0  0
  -20.0370   -0.3590  -31.4990 N   0  0  0  0  0  0  0  0  0  0  0  0
  -19.7520    0.7560  -32.4070 C   0  0  0  0  0  0  0  0  0  0  0  0
  -19.1000    1.7770  -32.1340 O   0  0  0  0  0  0  0  0  0  0  0  0
  -20.3920    0.4160  -33.6890 C   0  0  0  0  0  0  0  0  0  0  0  0
  -20.4090    1.0870  -34.7460 O   0  0  0  0  0  0  0  0  0  0  0  0
  -21.0210   -0.8850  -33.4750 C   0  0  0  0  0  0  0  0  0  0  0  0
  -22.0760   -1.3580  -34.0860 C   0  0  0  0  0  0  0  0  0  0  0  0
  -22.5470   -2.6220  -33.6690 O   0  0  0  0  0  0  0  0  0  0  0  0
  -22.7560   -0.6490  -35.1590 C   0  0  0  0  0  0  0  0  0  0  0  0
  -22.7830   -0.8450  -36.4860 N   0  0  0  0  0  0  0  0  0  0  0  0
  -23.5230    0.1040  -37.0660 C   0  0  0  0  0  0  0  0  0  0  0  0
  -23.9770    0.9210  -36.0790 N   0  0  0  0  0  0  0  0  0  0  0  0
  -23.5290    0.4920  -34.8920 C   0  0  0  0  0  0  0  0  0  0  0  0
  -23.7950    1.1030  -33.5590 C   0  0  0  0  0  0  0  0  0  0  0  0
  -23.7310    0.1300  -38.4430 C   0  0  0  0  0  0  0  0  0  0  0  0
  -23.1400   -0.8710  -39.1890 C   0  0  0  0  0  0  0  0  0  0  0  0
  -22.3820   -1.8390  -38.5570 C   0  0  0  0  0  0  0  0  0  0  0  0
  -22.1900   -1.8440  -37.1970 C   0  0  0  0  0  0  0  0  0  0  0  0
  -24.5600    1.2090  -39.0330 C   0  0  0  0  0  0  0  0  0  0  0  0
  -20.0600   -0.1910  -30.0570 C   0  0  0  0  0  0  0  0  0  0  0  0
  -18.7550   -0.4030  -29.3710 C   0  0  0  0  0  0  0  0  0  0  0  0
  -18.7630   -1.5490  -28.4840 N   0  0  0  0  0  4  0  0  0  0  0  0
  -17.4620   -2.1780  -28.4190 C   0  0  0  0  0  0  0  0  0  0  0  0
  -16.5040   -1.2950  -27.6120 C   0  0  0  0  0  0  0  0  0  0  0  0
  -17.0050   -1.2880  -26.3050 O   0  0  0  0  0  0  0  0  0  0  0  0
  -18.1830   -0.5140  -26.3550 C   0  0  0  0  0  0  0  0  0  0  0  0
  -19.2570   -1.1990  -27.1670 C   0  0  0  0  0  0  0  0  0  0  0  0
  -19.9440   -2.2990  -29.8610 H   0  0  0  0  0  0  0  0  0  0  0  0
  -21.3040   -3.6570  -33.6340 H   0  0  0  0  0  0  0  0  0  0  0  0
  -21.9090   -5.8030  -32.6530 H   0  0  0  0  0  0  0  0  0  0  0  0
  -21.5070   -6.1990  -30.2530 H   0  0  0  0  0  0  0  0  0  0  0  0
  -19.1670   -1.5800  -32.8750 H   0  0  0  0  0  0  0  0  0  0  0  0
  -22.9780    1.8180  -33.3360 H   0  0  0  0  0  0  0  0  0  0  0  0
  -23.7700    0.2980  -32.8140 H   0  0  0  0  0  0  0  0  0  0  0  0
  -24.7850    1.6240  -33.5710 H   0  0  0  0  0  0  0  0  0  0  0  0
  -23.2850   -0.8790  -40.2750 H   0  0  0  0  0  0  0  0  0  0  0  0
  -21.9170   -2.6260  -39.1330 H   0  0  0  0  0  0  0  0  0  0  0  0
  -21.6020   -2.5910  -36.6910 H   0  0  0  0  0  0  0  0  0  0  0  0
  -24.5060    1.1520  -40.1400 H   0  0  0  0  0  0  0  0  0  0  0  0
  -24.1660    2.2020  -38.6970 H   0  0  0  0  0  0  0  0  0  0  0  0
  -25.6170    1.1430  -38.7580 H   0  0  0  0  0  0  0  0  0  0  0  0
  -20.3740    0.8590  -29.8550 H   0  0  0  0  0  0  0  0  0  0  0  0
  -20.8800   -0.8160  -29.6150 H   0  0  0  0  0  0  0  0  0  0  0  0
  -18.0200   -0.6490  -30.2050 H   0  0  0  0  0  0  0  0  0  0  0  0
  -18.3140    0.4190  -28.8390 H   0  0  0  0  0  0  0  0  0  0  0  0
  -19.4220   -2.2710  -28.8660 H   0  0  0  0  0  0  0  0  0  0  0  0
  -17.0610   -2.1920  -29.4500 H   0  0  0  0  0  0  0  0  0  0  0  0
  -17.4970   -3.2030  -28.0500 H   0  0  0  0  0  0  0  0  0  0  0  0
  -15.4800   -1.6710  -27.6840 H   0  0  0  0  0  0  0  0  0  0  0  0
  -16.6030   -0.2630  -27.9870 H   0  0  0  0  0  0  0  0  0  0  0  0
  -17.9120    0.4180  -26.9080 H   0  0  0  0  0  0  0  0  0  0  0  0
  -18.5690   -0.2870  -25.3610 H   0  0  0  0  0  0  0  0  0  0  0  0
  -20.0680   -0.4560  -27.3130 H   0  0  0  0  0  0  0  0  0  0  0  0
  -19.7060   -2.0660  -26.6440 H   0  0  0  0  0  0  0  0  0  0  0  0
  2  1  1  0  0  0  0
  3  2  1  0  0  0  0
  3 36  1  0  0  0  0
  4  3  2  0  0  0  0
  5  6  2  0  0  0  0
  5  4  1  0  0  0  0
  6  7  1  0  0  0  0
  7 39  1  0  0  0  0
  7  2  2  0  0  0  0
  8 40  1  6  0  0  0
  8  4  1  0  0  0  0
  8  9  1  0  0  0  0
  9 28  1  0  0  0  0
 10 11  2  0  0  0  0
 10  9  1  0  0  0  0
 12 14  1  0  0  0  0
 12 10  1  0  0  0  0
 13 12  2  0  0  0  0
 14  8  1  0  0  0  0
 15 16  1  0  0  0  0
 15 14  2  0  0  0  0
 17 21  2  0  0  0  0
 17 15  1  0  0  0  0
 18 17  1  0  0  0  0
 19 18  1  0  0  0  0
 19 20  2  0  0  0  0
 20 21  1  0  0  0  0
 21 22  1  0  0  0  0
 22 41  1  0  0  0  0
 22 42  1  0  0  0  0
 23 19  1  0  0  0  0
 24 25  1  0  0  0  0
 24 23  2  0  0  0  0
 25 26  2  0  0  0  0
 26 46  1  0  0  0  0
 26 18  1  0  0  0  0
 27 49  1  0  0  0  0
 27 48  1  0  0  0  0
 27 23  1  0  0  0  0
 28 50  1  0  0  0  0
 28 51  1  0  0  0  0
 28 29  1  0  0  0  0
 29 53  1  0  0  0  0
 29 30  1  0  0  0  0
 30 31  1  0  0  0  0
 30 35  1  0  0  0  0
 31 56  1  0  0  0  0
 31 32  1  0  0  0  0
 32 33  1  0  0  0  0
 34 33  1  0  0  0  0
 34 60  1  0  0  0  0
 35 62  1  0  0  0  0
 35 34  1  0  0  0  0
 37  5  1  0  0  0  0
 38  6  1  0  0  0  0
 43 22  1  0  0  0  0
 44 24  1  0  0  0  0
 45 25  1  0  0  0  0
 47 27  1  0  0  0  0
 52 29  1  0  0  0  0
 54 30  1  0  0  0  0
 55 31  1  0  0  0  0
 57 32  1  0  0  0  0
 58 32  1  0  0  0  0
 59 34  1  0  0  0  0
 61 35  1  0  0  0  0
M  END
>  <Pose>
1

>  <Score>
-5.69

$$$$
