
 OpenBabel03222201593D

 37 40  0  0  1  0  0  0  0  0999 V2000
  -21.7140   -5.0130  -31.9390 B   0  0  0  0  0  0  0  0  0  0  0  0
  -20.7780   -3.4120  -31.4960 C   0  0  0  0  0  0  0  0  0  0  0  0
  -20.3560   -3.1290  -30.2210 C   0  0  0  0  0  0  0  0  0  0  0  0
  -19.6680   -1.9690  -29.8700 C   0  0  0  0  0  0  0  0  0  0  0  0
  -19.4250   -1.0860  -30.9100 C   0  0  0  0  0  0  0  0  0  0  0  0
  -19.8430   -1.3580  -32.1900 C   0  0  0  0  0  0  0  0  0  0  0  0
  -20.5290   -2.5240  -32.5220 C   0  0  0  0  0  0  0  0  0  0  0  0
  -19.2530   -1.7180  -28.5430 N   0  0  0  0  0  0  0  0  0  0  0  0
  -19.4990   -2.4850  -27.3480 C   0  0  0  0  0  0  0  0  0  0  0  0
  -20.4510   -3.3070  -27.2270 O   0  0  0  0  0  0  0  0  0  0  0  0
  -18.4880   -2.1520  -26.3460 C   0  0  2  0  0  0  0  0  0  0  0  0
  -18.8690   -2.1150  -25.0340 O   0  0  0  0  0  0  0  0  0  0  0  0
  -18.0750   -1.0900  -24.5260 N   0  0  0  0  0  0  0  0  0  0  0  0
  -18.0050   -0.0700  -25.4950 C   0  0  0  0  0  0  0  0  0  0  0  0
  -18.2650   -0.6890  -26.6550 C   0  0  0  0  0  0  0  0  0  0  0  0
  -18.4760   -0.5940  -28.0940 C   0  0  0  0  0  0  0  0  0  0  0  0
  -18.0500    0.3250  -28.8250 O   0  0  0  0  0  0  0  0  0  0  0  0
  -17.6740    1.3370  -25.3290 C   0  0  0  0  0  0  0  0  0  0  0  0
  -17.2960    1.9260  -24.1190 C   0  0  0  0  0  0  0  0  0  0  0  0
  -17.0440    3.2020  -24.3390 N   0  0  0  0  0  0  0  0  0  0  0  0
  -17.2450    3.4540  -25.6300 N   0  0  0  0  0  0  0  0  0  0  0  0
  -17.6260    2.3480  -26.2470 C   0  0  0  0  0  0  0  0  0  0  0  0
  -16.6230    4.1950  -23.3520 C   0  0  0  0  0  0  0  0  0  0  0  0
  -17.2160    1.2490  -22.8040 C   0  0  0  0  0  0  0  0  0  0  0  0
  -20.5510   -3.8180  -29.4060 H   0  0  0  0  0  0  0  0  0  0  0  0
  -18.8920   -0.1670  -30.6840 H   0  0  0  0  0  0  0  0  0  0  0  0
  -19.6660   -0.6770  -33.0330 H   0  0  0  0  0  0  0  0  0  0  0  0
  -20.8540   -2.7260  -33.5280 H   0  0  0  0  0  0  0  0  0  0  0  0
  -17.5450   -2.7230  -26.5030 H   0  0  0  0  0  0  0  0  0  0  0  0
  -17.6200   -1.0790  -23.6050 H   0  0  0  0  0  0  0  0  0  0  0  0
  -17.8590    2.2480  -27.2910 H   0  0  0  0  0  0  0  0  0  0  0  0
  -15.6920    4.7060  -23.7100 H   0  0  0  0  0  0  0  0  0  0  0  0
  -17.4080    4.9370  -23.1280 H   0  0  0  0  0  0  0  0  0  0  0  0
  -16.3660    3.6610  -22.4040 H   0  0  0  0  0  0  0  0  0  0  0  0
  -17.6820    0.2340  -22.8450 H   0  0  0  0  0  0  0  0  0  0  0  0
  -16.1550    1.2330  -22.5010 H   0  0  0  0  0  0  0  0  0  0  0  0
  -17.7810    1.8810  -22.0960 H   0  0  0  0  0  0  0  0  0  0  0  0
  1  2  1  0  0  0  0
  2  3  1  0  0  0  0
  3  4  2  0  0  0  0
  3 25  1  0  0  0  0
  4  8  1  0  0  0  0
  5 26  1  0  0  0  0
  5  4  1  0  0  0  0
  6  5  2  0  0  0  0
  7  6  1  0  0  0  0
  7  2  2  0  0  0  0
  8 16  1  0  0  0  0
  8  9  1  0  0  0  0
  9 10  2  0  0  0  0
  9 11  1  0  0  0  0
 11 29  1  6  0  0  0
 11 12  1  0  0  0  0
 12 13  1  0  0  0  0
 13 30  1  0  0  0  0
 14 18  1  0  0  0  0
 14 13  1  0  0  0  0
 15 11  1  0  0  0  0
 15 14  2  0  0  0  0
 16 15  1  0  0  0  0
 17 16  2  0  0  0  0
 18 19  2  0  0  0  0
 19 24  1  0  0  0  0
 20 19  1  0  0  0  0
 20 23  1  0  0  0  0
 21 20  1  0  0  0  0
 22 21  2  0  0  0  0
 22 18  1  0  0  0  0
 23 33  1  0  0  0  0
 23 34  1  0  0  0  0
 24 36  1  0  0  0  0
 24 37  1  0  0  0  0
 27  6  1  0  0  0  0
 28  7  1  0  0  0  0
 31 22  1  0  0  0  0
 32 23  1  0  0  0  0
 35 24  1  0  0  0  0
M  END
>  <Pose>
1

>  <Score>
-7.27

$$$$
