
 OpenBabel03222201593D

 33 36  0  0  1  0  0  0  0  0999 V2000
  -18.2470    1.0480  -27.2320 B   0  0  0  0  0  0  0  0  0  0  0  0
  -18.9570   -0.2570  -28.4320 C   0  0  0  0  0  0  0  0  0  0  0  0
  -19.0740    0.0310  -29.7540 C   0  0  0  0  0  0  0  0  0  0  0  0
  -19.5740   -0.8400  -30.7090 C   0  0  0  0  0  0  0  0  0  0  0  0
  -19.9730   -2.0760  -30.2540 C   0  0  0  0  0  0  0  0  0  0  0  0
  -19.8680   -2.4040  -28.9000 C   0  0  0  0  0  0  0  0  0  0  0  0
  -19.3620   -1.5010  -27.9880 C   0  0  0  0  0  0  0  0  0  0  0  0
  -19.6730   -0.4720  -32.1040 N   0  0  0  0  0  0  0  0  0  0  0  0
  -19.7580   -1.3590  -33.2110 C   0  0  0  0  0  0  0  0  0  0  0  0
  -19.3010   -2.5610  -33.2220 O   0  0  0  0  0  0  0  0  0  0  0  0
  -20.4450   -0.6780  -34.3180 C   0  0  1  0  0  0  0  0  0  0  0  0
  -21.9050   -1.0030  -34.2370 C   0  0  1  0  0  0  0  0  0  0  0  0
  -22.2500   -0.2630  -33.0770 O   0  0  0  0  0  0  0  0  0  0  0  0
  -21.8950    1.0110  -33.5960 C   0  0  1  0  0  0  0  0  0  0  0  0
  -20.4320    0.7710  -33.9180 C   0  0  1  0  0  0  0  0  0  0  0  0
  -19.7030    0.8420  -32.6360 C   0  0  0  0  0  0  0  0  0  0  0  0
  -19.2080    1.8810  -32.1270 O   0  0  0  0  0  0  0  0  0  0  0  0
  -22.7110    1.0180  -34.8320 C   0  0  0  0  0  0  0  0  0  0  0  0
  -22.7350   -0.2680  -35.2300 C   0  0  0  0  0  0  0  0  0  0  0  0
  -22.2310   -2.4440  -34.1300 C   0  0  0  0  0  0  0  0  0  0  0  0
  -22.8470   -2.8530  -35.3150 O   0  0  0  0  0  0  0  0  0  0  0  0
  -18.7520    1.0190  -30.1030 H   0  0  0  0  0  0  0  0  0  0  0  0
  -20.3730   -2.8080  -30.9310 H   0  0  0  0  0  0  0  0  0  0  0  0
  -20.1720   -3.3650  -28.5130 H   0  0  0  0  0  0  0  0  0  0  0  0
  -19.2600   -1.7010  -26.9390 H   0  0  0  0  0  0  0  0  0  0  0  0
  -20.0030   -0.8680  -35.3120 H   0  0  0  0  0  0  0  0  0  0  0  0
  -22.0800    1.8160  -32.9080 H   0  0  0  0  0  0  0  0  0  0  0  0
  -20.0380    1.4460  -34.6900 H   0  0  0  0  0  0  0  0  0  0  0  0
  -23.1940    1.8460  -35.3320 H   0  0  0  0  0  0  0  0  0  0  0  0
  -23.2630   -0.6500  -36.1000 H   0  0  0  0  0  0  0  0  0  0  0  0
  -21.3340   -3.0850  -34.0180 H   0  0  0  0  0  0  0  0  0  0  0  0
  -22.9050   -2.6600  -33.2970 H   0  0  0  0  0  0  0  0  0  0  0  0
  -22.1820   -3.2600  -35.9240 H   0  0  0  0  0  0  0  0  0  0  0  0
  2  7  1  0  0  0  0
  2  1  1  0  0  0  0
  3  2  2  0  0  0  0
  4  5  2  0  0  0  0
  4  3  1  0  0  0  0
  5  6  1  0  0  0  0
  6 24  1  0  0  0  0
  6  7  2  0  0  0  0
  7 25  1  0  0  0  0
  8  4  1  0  0  0  0
  9  8  1  0  0  0  0
 10  9  2  0  0  0  0
 11 26  1  6  0  0  0
 11 12  1  0  0  0  0
 11 15  1  0  0  0  0
 11  9  1  0  0  0  0
 12 20  1  1  0  0  0
 12 13  1  0  0  0  0
 14 13  1  0  0  0  0
 14 27  1  1  0  0  0
 15 28  1  6  0  0  0
 15 14  1  0  0  0  0
 15 16  1  0  0  0  0
 16 17  2  0  0  0  0
 16  8  1  0  0  0  0
 18 14  1  0  0  0  0
 19 18  2  0  0  0  0
 19 12  1  0  0  0  0
 20 31  1  0  0  0  0
 20 32  1  0  0  0  0
 21 20  1  0  0  0  0
 22  3  1  0  0  0  0
 23  5  1  0  0  0  0
 29 18  1  0  0  0  0
 30 19  1  0  0  0  0
 33 21  1  0  0  0  0
M  END
>  <Pose>
1

>  <Score>
-4.83

$$$$
