
 OpenBabel03222201593D

 37 40  0  0  1  0  0  0  0  0999 V2000
  -22.8990   -1.5220  -36.0460 B   0  0  0  0  0  0  0  0  0  0  0  0
  -21.4580   -1.3770  -34.8130 C   0  0  0  0  0  0  0  0  0  0  0  0
  -21.4800   -2.0890  -33.6090 C   0  0  0  0  0  0  0  0  0  0  0  0
  -20.4470   -1.9990  -32.7040 C   0  0  0  0  0  0  0  0  0  0  0  0
  -19.3920   -1.1820  -33.0250 C   0  0  0  0  0  0  0  0  0  0  0  0
  -19.3650   -0.4660  -34.2300 C   0  0  0  0  0  0  0  0  0  0  0  0
  -20.4010   -0.5580  -35.1350 C   0  0  0  0  0  0  0  0  0  0  0  0
  -20.4920   -2.7340  -31.4980 N   0  0  0  0  0  0  0  0  0  0  0  0
  -20.7050   -4.1580  -31.3790 C   0  0  0  0  0  0  0  0  0  0  0  0
  -20.4860   -5.0350  -32.2210 O   0  0  0  0  0  0  0  0  0  0  0  0
  -21.2550   -4.4160  -30.0160 C   0  0  1  0  0  0  0  0  0  0  0  0
  -20.8220   -5.5970  -29.4420 O   0  0  0  0  0  0  0  0  0  0  0  0
  -20.8310   -5.2740  -28.1060 N   0  0  0  0  0  0  0  0  0  0  0  0
  -20.2300   -3.9680  -28.0510 C   0  0  0  0  0  0  0  0  0  0  0  0
  -20.4670   -3.4040  -29.2100 C   0  0  0  0  0  0  0  0  0  0  0  0
  -20.3450   -2.2720  -30.1370 C   0  0  0  0  0  0  0  0  0  0  0  0
  -20.1450   -1.1150  -29.7520 O   0  0  0  0  0  0  0  0  0  0  0  0
  -19.4970   -3.3630  -26.9710 C   0  0  0  0  0  0  0  0  0  0  0  0
  -18.9930   -2.0660  -27.0440 C   0  0  0  0  0  0  0  0  0  0  0  0
  -18.3700   -1.7610  -25.8920 N   0  0  0  0  0  0  0  0  0  0  0  0
  -18.4840   -2.8330  -25.1270 N   0  0  0  0  0  0  0  0  0  0  0  0
  -19.1490   -3.8210  -25.7220 C   0  0  0  0  0  0  0  0  0  0  0  0
  -19.4830   -5.1790  -25.1720 C   0  0  0  0  0  0  0  0  0  0  0  0
  -17.7020   -0.4910  -25.5640 C   0  0  0  0  0  0  0  0  0  0  0  0
  -22.3220   -2.7080  -33.4050 H   0  0  0  0  0  0  0  0  0  0  0  0
  -18.5760   -1.0920  -32.3410 H   0  0  0  0  0  0  0  0  0  0  0  0
  -18.5120    0.1740  -34.4560 H   0  0  0  0  0  0  0  0  0  0  0  0
  -20.3630    0.0050  -36.0680 H   0  0  0  0  0  0  0  0  0  0  0  0
  -22.3350   -4.2360  -29.9600 H   0  0  0  0  0  0  0  0  0  0  0  0
  -21.1790   -5.8180  -27.3090 H   0  0  0  0  0  0  0  0  0  0  0  0
  -19.0790   -1.3910  -27.8930 H   0  0  0  0  0  0  0  0  0  0  0  0
  -18.6130   -5.8380  -25.1630 H   0  0  0  0  0  0  0  0  0  0  0  0
  -20.3650   -5.5730  -25.6730 H   0  0  0  0  0  0  0  0  0  0  0  0
  -19.7570   -4.9940  -24.1010 H   0  0  0  0  0  0  0  0  0  0  0  0
  -18.5180    0.1330  -25.1000 H   0  0  0  0  0  0  0  0  0  0  0  0
  -17.3120   -0.0150  -26.4690 H   0  0  0  0  0  0  0  0  0  0  0  0
  -16.9780   -0.6880  -24.7790 H   0  0  0  0  0  0  0  0  0  0  0  0
  1  2  1  0  0  0  0
  2  3  1  0  0  0  0
  3 25  1  0  0  0  0
  3  4  2  0  0  0  0
  4  8  1  0  0  0  0
  5  4  1  0  0  0  0
  5 26  1  0  0  0  0
  6  5  2  0  0  0  0
  7  2  2  0  0  0  0
  7  6  1  0  0  0  0
  8  9  1  0  0  0  0
  8 16  1  0  0  0  0
  9 11  1  0  0  0  0
 10  9  2  0  0  0  0
 11 29  1  1  0  0  0
 11 12  1  0  0  0  0
 11 15  1  0  0  0  0
 12 13  1  0  0  0  0
 13 14  1  0  0  0  0
 13 30  1  0  0  0  0
 14 18  1  0  0  0  0
 15 14  2  0  0  0  0
 16 17  2  0  0  0  0
 16 15  1  0  0  0  0
 18 22  1  0  0  0  0
 19 18  2  0  0  0  0
 19 20  1  0  0  0  0
 20 24  1  0  0  0  0
 20 21  1  0  0  0  0
 22 23  1  0  0  0  0
 22 21  2  0  0  0  0
 23 32  1  0  0  0  0
 23 34  1  0  0  0  0
 24 35  1  0  0  0  0
 24 37  1  0  0  0  0
 27  6  1  0  0  0  0
 28  7  1  0  0  0  0
 31 19  1  0  0  0  0
 33 23  1  0  0  0  0
 36 24  1  0  0  0  0
M  END
>  <Pose>
1

>  <Score>
-6.43

$$$$
