
 OpenBabel03222201593D

 52 55  0  0  1  0  0  0  0  0999 V2000
  -17.2230    2.2240  -23.3920 B   0  0  0  0  0  0  0  0  0  0  0  0
  -17.7010    1.6740  -25.1350 C   0  0  0  0  0  0  0  0  0  0  0  0
  -18.2620    0.4160  -25.3200 C   0  0  0  0  0  0  0  0  0  0  0  0
  -18.6370   -0.0560  -26.5650 C   0  0  0  0  0  0  0  0  0  0  0  0
  -18.4210    0.8010  -27.6210 C   0  0  0  0  0  0  0  0  0  0  0  0
  -17.8700    2.0610  -27.5090 C   0  0  0  0  0  0  0  0  0  0  0  0
  -17.5110    2.4890  -26.2490 C   0  0  0  0  0  0  0  0  0  0  0  0
  -19.2090   -1.3430  -26.6860 N   0  0  0  0  0  0  0  0  0  0  0  0
  -20.3020   -1.6820  -27.5840 C   0  0  0  0  0  0  0  0  0  0  0  0
  -19.6700   -2.9630  -28.1680 C   0  0  1  0  0  0  0  0  0  0  0  0
  -19.4880   -3.7050  -26.8390 C   0  0  0  0  0  0  0  0  0  0  0  0
  -18.9210   -2.5810  -26.0450 C   0  0  0  0  0  0  0  0  0  0  0  0
  -18.2850   -2.7040  -24.9730 O   0  0  0  0  0  0  0  0  0  0  0  0
  -20.5490   -3.6350  -29.1050 C   0  0  0  0  0  0  0  0  0  0  0  0
  -21.6670   -4.0310  -28.6920 O   0  0  0  0  0  0  0  0  0  0  0  0
  -20.1390   -3.8260  -30.4410 N   0  0  0  0  0  0  0  0  0  0  0  0
  -18.8510   -3.3810  -30.9550 C   0  0  0  0  0  0  0  0  0  0  0  0
  -18.9870   -3.1000  -32.4460 C   0  0  0  0  0  0  0  0  0  0  0  0
  -20.3350   -2.7250  -32.8260 N   0  0  0  0  0  0  0  0  0  0  0  0
  -21.1920   -3.8480  -32.6780 C   0  0  0  0  0  0  0  0  0  0  0  0
  -21.0730   -4.5080  -31.3460 C   0  0  0  0  0  0  0  0  0  0  0  0
  -20.7490   -1.5060  -32.2280 C   0  0  0  0  0  0  0  0  0  0  0  0
  -20.9380   -0.3740  -33.2050 C   0  0  0  0  0  0  0  0  0  0  0  0
  -22.2910   -0.2030  -33.6490 N   0  0  0  0  0  0  0  0  0  0  0  0
  -23.0890   -1.0910  -34.2440 C   0  0  0  0  0  0  0  0  0  0  0  0
  -24.2850   -0.5200  -34.5030 N   0  0  0  0  0  0  0  0  0  0  0  0
  -24.2470    0.7450  -34.0680 C   0  0  0  0  0  0  0  0  0  0  0  0
  -22.9930    0.9330  -33.5350 C   0  0  0  0  0  0  0  0  0  0  0  0
  -18.4170   -0.2300  -24.4730 H   0  0  0  0  0  0  0  0  0  0  0  0
  -18.6990    0.4680  -28.6080 H   0  0  0  0  0  0  0  0  0  0  0  0
  -17.7080    2.7230  -28.3480 H   0  0  0  0  0  0  0  0  0  0  0  0
  -17.0740    3.4740  -26.1040 H   0  0  0  0  0  0  0  0  0  0  0  0
  -20.4500   -0.9300  -28.3800 H   0  0  0  0  0  0  0  0  0  0  0  0
  -21.2000   -1.9180  -27.0030 H   0  0  0  0  0  0  0  0  0  0  0  0
  -18.6930   -2.6480  -28.5400 H   0  0  0  0  0  0  0  0  0  0  0  0
  -20.4690   -4.0480  -26.4640 H   0  0  0  0  0  0  0  0  0  0  0  0
  -18.7730   -4.5380  -26.9490 H   0  0  0  0  0  0  0  0  0  0  0  0
  -18.1310   -4.2020  -30.7670 H   0  0  0  0  0  0  0  0  0  0  0  0
  -18.4630   -2.4760  -30.4900 H   0  0  0  0  0  0  0  0  0  0  0  0
  -18.7140   -4.0090  -32.9820 H   0  0  0  0  0  0  0  0  0  0  0  0
  -18.2920   -2.3000  -32.7800 H   0  0  0  0  0  0  0  0  0  0  0  0
  -22.2510   -3.5540  -32.8760 H   0  0  0  0  0  0  0  0  0  0  0  0
  -20.9060   -4.5770  -33.4880 H   0  0  0  0  0  0  0  0  0  0  0  0
  -22.0800   -4.5790  -30.8790 H   0  0  0  0  0  0  0  0  0  0  0  0
  -20.6900   -5.5600  -31.4980 H   0  0  0  0  0  0  0  0  0  0  0  0
  -21.7240   -1.6020  -31.6870 H   0  0  0  0  0  0  0  0  0  0  0  0
  -20.0020   -1.1720  -31.4480 H   0  0  0  0  0  0  0  0  0  0  0  0
  -20.5130    0.5700  -32.7730 H   0  0  0  0  0  0  0  0  0  0  0  0
  -20.2580   -0.6010  -34.0780 H   0  0  0  0  0  0  0  0  0  0  0  0
  -22.8620   -2.1090  -34.4930 H   0  0  0  0  0  0  0  0  0  0  0  0
  -25.0710    1.4640  -34.1400 H   0  0  0  0  0  0  0  0  0  0  0  0
  -22.6820    1.8860  -33.1020 H   0  0  0  0  0  0  0  0  0  0  0  0
  2  1  1  0  0  0  0
  3  2  1  0  0  0  0
  3 29  1  0  0  0  0
  4  3  2  0  0  0  0
  5  6  2  0  0  0  0
  5  4  1  0  0  0  0
  6  7  1  0  0  0  0
  7 32  1  0  0  0  0
  7  2  2  0  0  0  0
  8  4  1  0  0  0  0
  8 12  1  0  0  0  0
  9 34  1  0  0  0  0
  9  8  1  0  0  0  0
 10 35  1  6  0  0  0
 10  9  1  0  0  0  0
 10 11  1  0  0  0  0
 11 36  1  0  0  0  0
 11 12  1  0  0  0  0
 12 13  2  0  0  0  0
 14 15  2  0  0  0  0
 14 10  1  0  0  0  0
 16 14  1  0  0  0  0
 17 38  1  0  0  0  0
 17 39  1  0  0  0  0
 17 16  1  0  0  0  0
 18 17  1  0  0  0  0
 19 20  1  0  0  0  0
 19 18  1  0  0  0  0
 19 22  1  0  0  0  0
 20 21  1  0  0  0  0
 21 44  1  0  0  0  0
 21 16  1  0  0  0  0
 22 46  1  0  0  0  0
 22 47  1  0  0  0  0
 23 48  1  0  0  0  0
 23 22  1  0  0  0  0
 24 28  1  0  0  0  0
 24 23  1  0  0  0  0
 25 24  1  0  0  0  0
 26 25  2  0  0  0  0
 26 27  1  0  0  0  0
 27 28  2  0  0  0  0
 28 52  1  0  0  0  0
 30  5  1  0  0  0  0
 31  6  1  0  0  0  0
 33  9  1  0  0  0  0
 37 11  1  0  0  0  0
 40 18  1  0  0  0  0
 41 18  1  0  0  0  0
 42 20  1  0  0  0  0
 43 20  1  0  0  0  0
 45 21  1  0  0  0  0
 49 23  1  0  0  0  0
 50 25  1  0  0  0  0
 51 27  1  0  0  0  0
M  END
>  <Pose>
1

>  <Score>
-6.58

$$$$
