
 OpenBabel03222201593D

 45 48  0  0  1  0  0  0  0  0999 V2000
  -19.3590   -3.2360  -26.2930 B   0  0  0  0  0  0  0  0  0  0  0  0
  -19.6740   -2.2720  -27.9110 C   0  0  0  0  0  0  0  0  0  0  0  0
  -20.0170   -2.9030  -29.0760 C   0  0  0  0  0  0  0  0  0  0  0  0
  -20.2550   -2.2180  -30.2810 C   0  0  0  0  0  0  0  0  0  0  0  0
  -20.1140   -0.8180  -30.2010 C   0  0  0  0  0  0  0  0  0  0  0  0
  -19.7710   -0.1820  -29.0330 C   0  0  0  0  0  0  0  0  0  0  0  0
  -19.5490   -0.9100  -27.8810 C   0  0  0  0  0  0  0  0  0  0  0  0
  -20.5730   -2.8680  -31.3390 O   0  0  0  0  0  0  0  0  0  0  0  0
  -20.8890   -3.4410  -32.4550 C   0  0  0  0  0  0  0  0  0  0  0  0
  -21.7060   -2.5110  -33.3660 C   0  0  0  0  0  0  0  0  0  0  0  0
  -20.9070   -2.0590  -34.4640 N   0  0  0  0  0  0  0  0  0  0  0  0
  -19.9930   -0.9760  -34.3560 C   0  0  0  0  0  0  0  0  0  0  0  0
  -18.8720   -1.2670  -33.8090 O   0  0  0  0  0  0  0  0  0  0  0  0
  -20.2530    0.4030  -34.8180 C   0  0  0  0  0  0  0  0  0  0  0  0
  -20.6190    0.5140  -36.2030 N   0  0  0  0  0  0  0  0  0  0  0  0
  -21.8890    1.0460  -36.6160 C   0  0  0  0  0  0  0  0  0  0  0  0
  -22.9240    1.1970  -35.9190 O   0  0  0  0  0  0  0  0  0  0  0  0
  -21.7830    1.3980  -38.0320 C   0  0  1  0  0  0  0  0  0  0  0  0
  -20.3470    1.0520  -38.4730 C   0  0  2  0  0  0  0  0  0  0  0  0
  -20.4780    0.2460  -39.7170 C   0  0  2  0  0  0  0  0  0  0  0  0
  -21.8080    0.7940  -40.2770 C   0  0  0  0  0  0  0  0  0  0  0  0
  -22.5700    0.5190  -38.9650 C   0  0  1  0  0  0  0  0  0  0  0  0
  -22.1350   -0.9020  -38.7480 C   0  0  0  0  0  0  0  0  0  0  0  0
  -20.9550   -1.1030  -39.3250 C   0  0  0  0  0  0  0  0  0  0  0  0
  -19.8680    0.1710  -37.3760 C   0  0  0  0  0  0  0  0  0  0  0  0
  -18.9900   -0.7060  -37.4300 O   0  0  0  0  0  0  0  0  0  0  0  0
  -20.1180   -3.9910  -29.1030 H   0  0  0  0  0  0  0  0  0  0  0  0
  -20.2930   -0.2850  -31.1140 H   0  0  0  0  0  0  0  0  0  0  0  0
  -19.6650    0.8890  -28.9810 H   0  0  0  0  0  0  0  0  0  0  0  0
  -19.2800   -0.3970  -26.9740 H   0  0  0  0  0  0  0  0  0  0  0  0
  -19.9510   -3.6700  -33.0740 H   0  0  0  0  0  0  0  0  0  0  0  0
  -21.4350   -4.4390  -32.4050 H   0  0  0  0  0  0  0  0  0  0  0  0
  -22.6460   -3.0000  -33.6770 H   0  0  0  0  0  0  0  0  0  0  0  0
  -22.0140   -1.6660  -32.6830 H   0  0  0  0  0  0  0  0  0  0  0  0
  -20.9960   -2.5400  -35.3840 H   0  0  0  0  0  0  0  0  0  0  0  0
  -19.2790    0.9630  -34.6800 H   0  0  0  0  0  0  0  0  0  0  0  0
  -21.0100    0.9140  -34.1490 H   0  0  0  0  0  0  0  0  0  0  0  0
  -22.0060    2.4700  -38.2490 H   0  0  0  0  0  0  0  0  0  0  0  0
  -19.7360    1.9650  -38.5740 H   0  0  0  0  0  0  0  0  0  0  0  0
  -19.6750    0.2770  -40.4170 H   0  0  0  0  0  0  0  0  0  0  0  0
  -21.7500    1.8570  -40.5060 H   0  0  0  0  0  0  0  0  0  0  0  0
  -22.1930    0.1570  -41.0830 H   0  0  0  0  0  0  0  0  0  0  0  0
  -23.6180    0.6840  -39.0260 H   0  0  0  0  0  0  0  0  0  0  0  0
  -22.6610   -1.6840  -38.2140 H   0  0  0  0  0  0  0  0  0  0  0  0
  -20.3870   -2.0010  -39.5160 H   0  0  0  0  0  0  0  0  0  0  0  0
  2  7  1  0  0  0  0
  2  1  1  0  0  0  0
  3  2  2  0  0  0  0
  4  5  2  0  0  0  0
  4  3  1  0  0  0  0
  5  6  1  0  0  0  0
  6 29  1  0  0  0  0
  6  7  2  0  0  0  0
  7 30  1  0  0  0  0
  8  4  1  0  0  0  0
  9 32  1  0  0  0  0
  9  8  1  0  0  0  0
 10 34  1  0  0  0  0
 10  9  1  0  0  0  0
 11 12  1  0  0  0  0
 11 10  1  0  0  0  0
 12 13  2  0  0  0  0
 14 36  1  0  0  0  0
 14 12  1  0  0  0  0
 14 37  1  0  0  0  0
 15 14  1  0  0  0  0
 16 15  1  0  0  0  0
 16 17  2  0  0  0  0
 18 38  1  6  0  0  0
 18 16  1  0  0  0  0
 19 39  1  6  0  0  0
 19 18  1  0  0  0  0
 19 25  1  0  0  0  0
 20 40  1  6  0  0  0
 20 24  1  0  0  0  0
 20 19  1  0  0  0  0
 21 20  1  0  0  0  0
 21 22  1  0  0  0  0
 22 43  1  6  0  0  0
 22 23  1  0  0  0  0
 22 18  1  0  0  0  0
 23 44  1  0  0  0  0
 24 23  2  0  0  0  0
 25 15  1  0  0  0  0
 26 25  2  0  0  0  0
 27  3  1  0  0  0  0
 28  5  1  0  0  0  0
 31  9  1  0  0  0  0
 33 10  1  0  0  0  0
 35 11  1  0  0  0  0
 41 21  1  0  0  0  0
 42 21  1  0  0  0  0
 45 24  1  0  0  0  0
M  END
>  <Pose>
1

>  <Score>
-5.97

$$$$
