
 OpenBabel03222201593D

 50 53  0  0  0  0  0  0  0  0999 V2000
  -24.2830    1.2410  -38.8150 B   0  0  0  0  0  0  0  0  0  0  0  0
  -23.6880    0.1070  -37.4090 C   0  0  0  0  0  0  0  0  0  0  0  0
  -23.8500    0.4910  -36.0860 C   0  0  0  0  0  0  0  0  0  0  0  0
  -23.4270   -0.3140  -35.0410 C   0  0  0  0  0  0  0  0  0  0  0  0
  -22.8270   -1.5280  -35.2670 C   0  0  0  0  0  0  0  0  0  0  0  0
  -22.6710   -1.9000  -36.5900 C   0  0  0  0  0  0  0  0  0  0  0  0
  -23.0870   -1.1110  -37.6390 C   0  0  0  0  0  0  0  0  0  0  0  0
  -22.3820   -2.3800  -34.1670 C   0  0  0  0  0  0  0  0  0  0  0  0
  -23.2400   -2.9180  -33.4480 O   0  0  0  0  0  0  0  0  0  0  0  0
  -20.9240   -2.6010  -33.9100 C   0  0  0  0  0  0  0  0  0  0  0  0
  -20.5380   -2.3050  -32.5600 N   0  0  0  0  0  0  0  0  0  0  0  0
  -20.5860   -3.1290  -31.5000 C   0  0  0  0  0  0  0  0  0  0  0  0
  -20.1350   -2.4670  -30.3740 C   0  0  0  0  0  0  0  0  0  0  0  0
  -19.8230   -1.2360  -30.7970 N   0  0  0  0  0  0  0  0  0  0  0  0
  -20.0570   -1.1090  -32.1150 C   0  0  0  0  0  0  0  0  0  0  0  0
  -19.8690    0.0210  -32.9470 N   0  0  0  0  0  0  0  0  0  0  0  0
  -21.0090    0.7720  -33.3640 C   0  0  0  0  0  0  0  0  0  0  0  0
  -20.7620    2.1230  -33.9230 C   0  0  0  0  0  0  0  0  0  0  0  0
  -19.4670    2.3340  -34.4980 N   0  0  0  0  0  0  0  0  0  0  0  0
  -18.4730    1.9180  -33.5280 C   0  0  0  0  0  0  0  0  0  0  0  0
  -18.5510    0.4010  -33.3530 C   0  0  0  0  0  0  0  0  0  0  0  0
  -19.2950    1.7080  -35.7780 C   0  0  0  0  0  0  0  0  0  0  0  0
  -20.0970   -3.1000  -29.1870 N   0  0  0  0  0  0  0  0  0  0  0  0
  -20.4940   -4.3810  -29.0800 C   0  0  0  0  0  0  0  0  0  0  0  0
  -20.4750   -5.0090  -27.9930 O   0  0  0  0  0  0  0  0  0  0  0  0
  -20.9410   -5.0450  -30.1810 N   0  0  0  0  0  0  0  0  0  0  0  0
  -20.9980   -4.4550  -31.3890 C   0  0  0  0  0  0  0  0  0  0  0  0
  -21.4200   -5.1110  -32.3960 O   0  0  0  0  0  0  0  0  0  0  0  0
  -19.6290   -2.4350  -27.9890 C   0  0  0  0  0  0  0  0  0  0  0  0
  -24.3250    1.4520  -35.9030 H   0  0  0  0  0  0  0  0  0  0  0  0
  -23.5690    0.0190  -34.0030 H   0  0  0  0  0  0  0  0  0  0  0  0
  -22.1980   -2.8600  -36.7900 H   0  0  0  0  0  0  0  0  0  0  0  0
  -22.9530   -1.4240  -38.6590 H   0  0  0  0  0  0  0  0  0  0  0  0
  -20.6400   -3.6280  -34.2260 H   0  0  0  0  0  0  0  0  0  0  0  0
  -20.3810   -1.9250  -34.5980 H   0  0  0  0  0  0  0  0  0  0  0  0
  -21.5200    0.1410  -34.1400 H   0  0  0  0  0  0  0  0  0  0  0  0
  -21.7320    0.8730  -32.5190 H   0  0  0  0  0  0  0  0  0  0  0  0
  -20.9560    2.9290  -33.1730 H   0  0  0  0  0  0  0  0  0  0  0  0
  -21.4900    2.2740  -34.7790 H   0  0  0  0  0  0  0  0  0  0  0  0
  -18.7920    2.3470  -32.5470 H   0  0  0  0  0  0  0  0  0  0  0  0
  -17.4540    2.2160  -33.7450 H   0  0  0  0  0  0  0  0  0  0  0  0
  -18.2240   -0.1110  -34.2930 H   0  0  0  0  0  0  0  0  0  0  0  0
  -17.7680    0.1620  -32.6030 H   0  0  0  0  0  0  0  0  0  0  0  0
  -19.9470    0.7880  -35.8240 H   0  0  0  0  0  0  0  0  0  0  0  0
  -18.2450    1.4230  -35.9840 H   0  0  0  0  0  0  0  0  0  0  0  0
  -19.6420    2.3440  -36.6140 H   0  0  0  0  0  0  0  0  0  0  0  0
  -21.2420   -6.0390  -30.0550 H   0  0  0  0  0  0  0  0  0  0  0  0
  -18.5210   -2.4230  -28.0510 H   0  0  0  0  0  0  0  0  0  0  0  0
  -19.9700   -1.3810  -28.0050 H   0  0  0  0  0  0  0  0  0  0  0  0
  -19.9640   -2.9680  -27.0780 H   0  0  0  0  0  0  0  0  0  0  0  0
  1  2  1  0  0  0  0
  2  3  1  0  0  0  0
  3 30  1  0  0  0  0
  3  4  2  0  0  0  0
  4 31  1  0  0  0  0
  5  4  1  0  0  0  0
  5  8  1  0  0  0  0
  6  5  2  0  0  0  0
  7  2  2  0  0  0  0
  7  6  1  0  0  0  0
  8 10  1  0  0  0  0
  8  9  2  0  0  0  0
 10 11  1  0  0  0  0
 11 15  1  0  0  0  0
 11 12  1  0  0  0  0
 12 27  1  0  0  0  0
 12 13  2  0  0  0  0
 13 23  1  0  0  0  0
 14 13  1  0  0  0  0
 15 14  2  0  0  0  0
 16 15  1  0  0  0  0
 17 16  1  0  0  0  0
 17 37  1  0  0  0  0
 18 17  1  0  0  0  0
 18 38  1  0  0  0  0
 19 18  1  0  0  0  0
 19 20  1  0  0  0  0
 20 21  1  0  0  0  0
 20 40  1  0  0  0  0
 21 16  1  0  0  0  0
 21 43  1  0  0  0  0
 22 19  1  0  0  0  0
 23 24  1  0  0  0  0
 23 29  1  0  0  0  0
 24 25  2  0  0  0  0
 26 47  1  0  0  0  0
 26 24  1  0  0  0  0
 27 26  1  0  0  0  0
 28 27  2  0  0  0  0
 29 50  1  0  0  0  0
 32  6  1  0  0  0  0
 33  7  1  0  0  0  0
 34 10  1  0  0  0  0
 35 10  1  0  0  0  0
 36 17  1  0  0  0  0
 39 18  1  0  0  0  0
 41 20  1  0  0  0  0
 42 21  1  0  0  0  0
 44 22  1  0  0  0  0
 45 22  1  0  0  0  0
 46 22  1  0  0  0  0
 48 29  1  0  0  0  0
 49 29  1  0  0  0  0
M  END
>  <Pose>
1

>  <Score>
-6.75

$$$$
