
 OpenBabel03222201593D

 41 44  0  0  1  0  0  0  0  0999 V2000
  -17.5240    2.2500  -22.7200 B   0  0  0  0  0  0  0  0  0  0  0  0
  -17.6390    1.5680  -24.5000 C   0  0  0  0  0  0  0  0  0  0  0  0
  -17.8990    0.2370  -24.7390 C   0  0  0  0  0  0  0  0  0  0  0  0
  -17.9910   -0.3010  -26.0030 C   0  0  0  0  0  0  0  0  0  0  0  0
  -17.8220    0.5000  -27.1030 C   0  0  0  0  0  0  0  0  0  0  0  0
  -17.5600    1.8410  -26.8750 C   0  0  0  0  0  0  0  0  0  0  0  0
  -17.4700    2.3690  -25.6080 C   0  0  0  0  0  0  0  0  0  0  0  0
  -17.9020   -0.0080  -28.4540 C   0  0  0  0  0  0  0  0  0  0  0  0
  -16.8670   -0.5590  -28.9510 O   0  0  0  0  0  0  0  0  0  0  0  0
  -19.0880    0.0560  -29.3200 C   0  0  1  0  0  0  0  0  0  0  0  0
  -18.7760   -0.3540  -30.6800 N   0  0  0  0  0  0  0  0  0  0  0  0
  -17.6470   -0.6760  -31.4040 N   0  0  0  0  0  0  0  0  0  0  0  0
  -17.6780   -1.1290  -32.6080 C   0  0  0  0  0  0  0  0  0  0  0  0
  -18.9490   -1.3110  -33.2700 C   0  0  0  0  0  0  0  0  0  0  0  0
  -20.0670   -1.0000  -32.6560 C   0  0  0  0  0  0  0  0  0  0  0  0
  -20.0890   -0.4570  -31.3110 C   0  0  1  0  0  0  0  0  0  0  0  0
  -20.8380   -1.2430  -30.2940 C   0  0  2  0  0  0  0  0  0  0  0  0
  -20.1380   -0.9720  -28.9570 C   0  0  1  0  0  0  0  0  0  0  0  0
  -19.5680   -2.2660  -28.5880 C   0  0  0  0  0  0  0  0  0  0  0  0
  -18.6900   -2.4550  -27.7020 O   0  0  0  0  0  0  0  0  0  0  0  0
  -20.1600   -3.2720  -29.3880 N   0  0  0  0  0  0  0  0  0  0  0  0
  -20.8010   -2.6930  -30.5170 C   0  0  0  0  0  0  0  0  0  0  0  0
  -21.2530   -3.2990  -31.5190 O   0  0  0  0  0  0  0  0  0  0  0  0
  -20.1330   -4.6900  -29.1170 C   0  0  0  0  0  0  0  0  0  0  0  0
  -20.3570   -5.0300  -27.6750 C   0  0  0  0  0  0  0  0  0  0  0  0
  -18.0420   -0.4400  -23.8880 H   0  0  0  0  0  0  0  0  0  0  0  0
  -18.2030   -1.3650  -26.1620 H   0  0  0  0  0  0  0  0  0  0  0  0
  -17.4190    2.5100  -27.7390 H   0  0  0  0  0  0  0  0  0  0  0  0
  -17.2650    3.4190  -25.4740 H   0  0  0  0  0  0  0  0  0  0  0  0
  -19.5300    1.0470  -29.2590 H   0  0  0  0  0  0  0  0  0  0  0  0
  -16.7650   -1.3880  -33.1650 H   0  0  0  0  0  0  0  0  0  0  0  0
  -18.9540   -1.7100  -34.2880 H   0  0  0  0  0  0  0  0  0  0  0  0
  -21.0100   -1.1540  -33.1690 H   0  0  0  0  0  0  0  0  0  0  0  0
  -20.4610    0.6070  -31.3700 H   0  0  0  0  0  0  0  0  0  0  0  0
  -21.9090   -0.9430  -30.2620 H   0  0  0  0  0  0  0  0  0  0  0  0
  -20.9200   -0.6100  -28.2820 H   0  0  0  0  0  0  0  0  0  0  0  0
  -19.1750   -5.1620  -29.4350 H   0  0  0  0  0  0  0  0  0  0  0  0
  -20.9280   -5.2270  -29.7020 H   0  0  0  0  0  0  0  0  0  0  0  0
  -20.0250   -4.2210  -26.9870 H   0  0  0  0  0  0  0  0  0  0  0  0
  -21.4250   -5.3060  -27.4940 H   0  0  0  0  0  0  0  0  0  0  0  0
  -19.7670   -5.9420  -27.3970 H   0  0  0  0  0  0  0  0  0  0  0  0
  2  1  1  0  0  0  0
  3  2  1  0  0  0  0
  3 26  1  0  0  0  0
  4  3  2  0  0  0  0
  5  6  2  0  0  0  0
  5  4  1  0  0  0  0
  6  7  1  0  0  0  0
  7 29  1  0  0  0  0
  7  2  2  0  0  0  0
  8  5  1  0  0  0  0
  9  8  2  0  0  0  0
 10 30  1  1  0  0  0
 10 18  1  0  0  0  0
 10  8  1  0  0  0  0
 11 10  1  0  0  0  0
 12 11  1  0  0  0  0
 13 12  2  0  0  0  0
 14 15  2  0  0  0  0
 14 13  1  0  0  0  0
 15 16  1  0  0  0  0
 16 34  1  6  0  0  0
 16 11  1  0  0  0  0
 16 17  1  0  0  0  0
 17 35  1  1  0  0  0
 17 18  1  0  0  0  0
 18 19  1  0  0  0  0
 18 36  1  1  0  0  0
 19 20  2  0  0  0  0
 21 24  1  0  0  0  0
 21 19  1  0  0  0  0
 22 17  1  0  0  0  0
 22 21  1  0  0  0  0
 23 22  2  0  0  0  0
 24 25  1  0  0  0  0
 25 40  1  0  0  0  0
 25 41  1  0  0  0  0
 25 39  1  0  0  0  0
 27  4  1  0  0  0  0
 28  6  1  0  0  0  0
 31 13  1  0  0  0  0
 32 14  1  0  0  0  0
 33 15  1  0  0  0  0
 37 24  1  0  0  0  0
 38 24  1  0  0  0  0
M  END
>  <Pose>
1

>  <Score>
-5.43

$$$$
