
 OpenBabel03222201593D

 48 51  0  0  1  0  0  0  0  0999 V2000
  -22.2540   -1.1180  -40.7740 B   0  0  0  0  0  0  0  0  0  0  0  0
  -22.5660   -1.1150  -38.9000 C   0  0  0  0  0  0  0  0  0  0  0  0
  -21.7870   -0.4110  -38.0040 C   0  0  0  0  0  0  0  0  0  0  0  0
  -22.0400   -0.4300  -36.6480 C   0  0  0  0  0  0  0  0  0  0  0  0
  -23.0860   -1.1550  -36.1140 C   0  0  0  0  0  0  0  0  0  0  0  0
  -23.8620   -1.8570  -37.0080 C   0  0  0  0  0  0  0  0  0  0  0  0
  -23.6190   -1.8450  -38.3600 C   0  0  0  0  0  0  0  0  0  0  0  0
  -23.3550   -1.1750  -34.6690 C   0  0  0  0  0  0  0  0  0  0  0  0
  -23.9340   -0.1380  -34.1990 O   0  0  0  0  0  0  0  0  0  0  0  0
  -23.0130   -2.2430  -33.8360 N   0  0  0  0  0  0  0  0  0  0  0  0
  -21.7130   -2.8580  -33.9170 C   0  0  2  0  0  0  0  0  0  0  0  0
  -21.3650   -3.6350  -32.6700 C   0  0  0  0  0  0  0  0  0  0  0  0
  -20.6380   -2.6900  -31.8510 N   0  0  0  0  0  0  0  0  0  0  0  0
  -20.1570   -1.5890  -32.6710 C   0  0  1  0  0  0  0  0  0  0  0  0
  -20.6890   -1.7650  -34.0500 C   0  0  0  0  0  0  0  0  0  0  0  0
  -20.6270   -0.3510  -32.0090 C   0  0  0  0  0  0  0  0  0  0  0  0
  -21.1970    0.5300  -32.6890 O   0  0  0  0  0  0  0  0  0  0  0  0
  -20.4090   -0.2150  -30.6160 N   0  0  0  0  0  0  0  0  0  0  0  0
  -20.1190   -1.3240  -29.7370 C   0  0  1  0  0  0  0  0  0  0  0  0
  -20.3050   -2.6080  -30.4720 C   0  0  0  0  0  0  0  0  0  0  0  0
  -20.1650   -3.7210  -29.8480 O   0  0  0  0  0  0  0  0  0  0  0  0
  -18.7400   -1.1990  -29.1350 C   0  0  0  0  0  0  0  0  0  0  0  0
  -18.7640   -1.4370  -27.6640 C   0  0  0  0  0  0  0  0  0  0  0  0
  -18.3540   -0.4390  -26.7790 C   0  0  0  0  0  0  0  0  0  0  0  0
  -18.3980   -0.7140  -25.4300 C   0  0  0  0  0  0  0  0  0  0  0  0
  -18.8300   -1.9260  -24.9200 C   0  0  0  0  0  0  0  0  0  0  0  0
  -19.2240   -2.8770  -25.8320 C   0  0  0  0  0  0  0  0  0  0  0  0
  -19.2010   -2.6610  -27.1920 C   0  0  0  0  0  0  0  0  0  0  0  0
  -20.9600    0.1610  -38.4350 H   0  0  0  0  0  0  0  0  0  0  0  0
  -21.3950    0.1390  -36.0230 H   0  0  0  0  0  0  0  0  0  0  0  0
  -24.6890   -2.4370  -36.6380 H   0  0  0  0  0  0  0  0  0  0  0  0
  -24.2420   -2.4070  -39.0660 H   0  0  0  0  0  0  0  0  0  0  0  0
  -23.6900   -2.6110  -33.1470 H   0  0  0  0  0  0  0  0  0  0  0  0
  -21.7040   -3.5690  -34.7520 H   0  0  0  0  0  0  0  0  0  0  0  0
  -22.3020   -3.9770  -32.2210 H   0  0  0  0  0  0  0  0  0  0  0  0
  -20.7260   -4.5080  -32.8540 H   0  0  0  0  0  0  0  0  0  0  0  0
  -19.0480   -1.6280  -32.7040 H   0  0  0  0  0  0  0  0  0  0  0  0
  -21.0910   -0.8340  -34.4700 H   0  0  0  0  0  0  0  0  0  0  0  0
  -19.8900   -2.1270  -34.7260 H   0  0  0  0  0  0  0  0  0  0  0  0
  -20.4710    0.7640  -30.2310 H   0  0  0  0  0  0  0  0  0  0  0  0
  -20.8870   -1.3210  -28.9370 H   0  0  0  0  0  0  0  0  0  0  0  0
  -18.2970   -0.2090  -29.3450 H   0  0  0  0  0  0  0  0  0  0  0  0
  -18.1260   -2.0070  -29.5810 H   0  0  0  0  0  0  0  0  0  0  0  0
  -18.0200    0.5000  -27.1910 H   0  0  0  0  0  0  0  0  0  0  0  0
  -18.0790    0.0600  -24.7170 H   0  0  0  0  0  0  0  0  0  0  0  0
  -18.8440   -2.0860  -23.8490 H   0  0  0  0  0  0  0  0  0  0  0  0
  -19.5680   -3.8410  -25.4420 H   0  0  0  0  0  0  0  0  0  0  0  0
  -19.5120   -3.4120  -27.8990 H   0  0  0  0  0  0  0  0  0  0  0  0
  1  2  1  0  0  0  0
  2  7  2  0  0  0  0
  2  3  1  0  0  0  0
  3  4  2  0  0  0  0
  4  5  1  0  0  0  0
  4 30  1  0  0  0  0
  5  8  1  0  0  0  0
  6 31  1  0  0  0  0
  6  5  2  0  0  0  0
  7  6  1  0  0  0  0
  8  9  2  0  0  0  0
  8 10  1  0  0  0  0
 10 33  1  0  0  0  0
 11 34  1  6  0  0  0
 11 10  1  0  0  0  0
 11 12  1  0  0  0  0
 12 35  1  0  0  0  0
 12 13  1  0  0  0  0
 13 20  1  0  0  0  0
 14 37  1  6  0  0  0
 14 16  1  0  0  0  0
 14 13  1  0  0  0  0
 15 11  1  0  0  0  0
 15 14  1  0  0  0  0
 16 18  1  0  0  0  0
 17 16  2  0  0  0  0
 18 40  1  0  0  0  0
 18 19  1  0  0  0  0
 19 22  1  0  0  0  0
 19 41  1  1  0  0  0
 20 21  2  0  0  0  0
 20 19  1  0  0  0  0
 22 23  1  0  0  0  0
 23 28  2  0  0  0  0
 23 24  1  0  0  0  0
 24 25  2  0  0  0  0
 25 26  1  0  0  0  0
 25 45  1  0  0  0  0
 26 46  1  0  0  0  0
 27 47  1  0  0  0  0
 27 26  2  0  0  0  0
 28 27  1  0  0  0  0
 29  3  1  0  0  0  0
 32  7  1  0  0  0  0
 36 12  1  0  0  0  0
 38 15  1  0  0  0  0
 39 15  1  0  0  0  0
 42 22  1  0  0  0  0
 43 22  1  0  0  0  0
 44 24  1  0  0  0  0
 48 28  1  0  0  0  0
M  END
>  <Pose>
1

>  <Score>
-6.54

$$$$
