
 OpenBabel03222201593D

 42 45  0  0  1  0  0  0  0  0999 V2000
  -20.3500   -5.0160  -28.4750 B   0  0  0  0  0  0  0  0  0  0  0  0
  -20.5750   -3.9970  -30.0610 C   0  0  0  0  0  0  0  0  0  0  0  0
  -20.1140   -2.6930  -30.1110 C   0  0  0  0  0  0  0  0  0  0  0  0
  -20.2510   -1.9110  -31.2370 C   0  0  0  0  0  0  0  0  0  0  0  0
  -20.8610   -2.4100  -32.3660 C   0  0  0  0  0  0  0  0  0  0  0  0
  -21.3170   -3.6930  -32.3240 C   0  0  0  0  0  0  0  0  0  0  0  0
  -21.1870   -4.4990  -31.1950 C   0  0  0  0  0  0  0  0  0  0  0  0
  -20.9920   -1.5450  -33.5550 C   0  0  0  0  0  0  0  0  0  0  0  0
  -20.5970   -0.3620  -33.4880 O   0  0  0  0  0  0  0  0  0  0  0  0
  -21.5540   -2.0310  -34.7620 N   0  0  0  0  0  0  0  0  0  0  0  0
  -22.9680   -1.9940  -34.9480 C   0  0  2  0  0  0  0  0  0  0  0  0
  -23.4710   -3.0350  -35.9210 C   0  0  0  0  0  0  0  0  0  0  0  0
  -23.2800   -2.3950  -37.2100 N   0  0  0  0  0  0  0  0  0  0  0  0
  -23.3110   -0.9570  -37.0350 C   0  0  1  0  0  0  0  0  0  0  0  0
  -23.3250   -0.6670  -35.5720 C   0  0  0  0  0  0  0  0  0  0  0  0
  -22.1100   -0.4200  -37.7240 C   0  0  0  0  0  0  0  0  0  0  0  0
  -21.3470    0.4380  -37.2210 O   0  0  0  0  0  0  0  0  0  0  0  0
  -21.7830   -0.8830  -39.0210 N   0  0  0  0  0  0  0  0  0  0  0  0
  -22.1720   -2.1940  -39.4990 C   0  0  2  0  0  0  0  0  0  0  0  0
  -22.8010   -1.8410  -40.8090 C   0  0  0  0  0  0  0  0  0  0  0  0
  -21.8370   -0.7700  -41.3320 C   0  0  0  0  0  0  0  0  0  0  0  0
  -21.0690   -0.2690  -40.1050 C   0  0  0  0  0  0  0  0  0  0  0  0
  -23.0810   -2.8670  -38.5370 C   0  0  0  0  0  0  0  0  0  0  0  0
  -23.7200   -3.9150  -38.8950 O   0  0  0  0  0  0  0  0  0  0  0  0
  -19.6290   -2.2540  -29.2560 H   0  0  0  0  0  0  0  0  0  0  0  0
  -19.8830   -0.8780  -31.2660 H   0  0  0  0  0  0  0  0  0  0  0  0
  -21.7940   -4.1310  -33.1620 H   0  0  0  0  0  0  0  0  0  0  0  0
  -21.5540   -5.5160  -31.1750 H   0  0  0  0  0  0  0  0  0  0  0  0
  -20.9630   -2.4230  -35.5370 H   0  0  0  0  0  0  0  0  0  0  0  0
  -23.4670   -2.0830  -33.9640 H   0  0  0  0  0  0  0  0  0  0  0  0
  -24.5380   -3.2070  -35.7200 H   0  0  0  0  0  0  0  0  0  0  0  0
  -22.9310   -3.9690  -35.8040 H   0  0  0  0  0  0  0  0  0  0  0  0
  -24.2010   -0.4960  -37.5380 H   0  0  0  0  0  0  0  0  0  0  0  0
  -22.6830    0.1520  -35.2470 H   0  0  0  0  0  0  0  0  0  0  0  0
  -24.3760   -0.4370  -35.2410 H   0  0  0  0  0  0  0  0  0  0  0  0
  -21.2940   -2.8460  -39.6860 H   0  0  0  0  0  0  0  0  0  0  0  0
  -22.8200   -2.7160  -41.4690 H   0  0  0  0  0  0  0  0  0  0  0  0
  -23.8260   -1.4050  -40.6620 H   0  0  0  0  0  0  0  0  0  0  0  0
  -22.3940    0.0530  -41.8260 H   0  0  0  0  0  0  0  0  0  0  0  0
  -21.0990   -1.1980  -42.0240 H   0  0  0  0  0  0  0  0  0  0  0  0
  -20.0110   -0.5910  -40.1440 H   0  0  0  0  0  0  0  0  0  0  0  0
  -21.0840    0.8370  -40.0710 H   0  0  0  0  0  0  0  0  0  0  0  0
  2  1  1  0  0  0  0
  3  2  1  0  0  0  0
  3 25  1  0  0  0  0
  4  3  2  0  0  0  0
  5  6  2  0  0  0  0
  5  4  1  0  0  0  0
  6  7  1  0  0  0  0
  7 28  1  0  0  0  0
  7  2  2  0  0  0  0
  8  9  2  0  0  0  0
  8  5  1  0  0  0  0
 10  8  1  0  0  0  0
 11 10  1  0  0  0  0
 11 30  1  1  0  0  0
 12 32  1  0  0  0  0
 12 31  1  0  0  0  0
 12 11  1  0  0  0  0
 13 14  1  0  0  0  0
 13 12  1  0  0  0  0
 14 33  1  6  0  0  0
 14 15  1  0  0  0  0
 15 34  1  0  0  0  0
 15 35  1  0  0  0  0
 15 11  1  0  0  0  0
 16 17  2  0  0  0  0
 16 14  1  0  0  0  0
 18 16  1  0  0  0  0
 19 36  1  6  0  0  0
 19 18  1  0  0  0  0
 19 23  1  0  0  0  0
 20 38  1  0  0  0  0
 20 19  1  0  0  0  0
 21 20  1  0  0  0  0
 21 22  1  0  0  0  0
 22 42  1  0  0  0  0
 22 18  1  0  0  0  0
 23 13  1  0  0  0  0
 24 23  2  0  0  0  0
 26  4  1  0  0  0  0
 27  6  1  0  0  0  0
 29 10  1  0  0  0  0
 37 20  1  0  0  0  0
 39 21  1  0  0  0  0
 40 21  1  0  0  0  0
 41 22  1  0  0  0  0
M  END
>  <Pose>
1

>  <Score>
-5.82

$$$$
