
 OpenBabel03222201593D

 49 52  0  0  1  0  0  0  0  0999 V2000
  -19.3390   -3.0400  -26.2460 B   0  0  0  0  0  0  0  0  0  0  0  0
  -19.7030   -2.6400  -28.0730 C   0  0  0  0  0  0  0  0  0  0  0  0
  -19.8880   -3.6110  -29.0350 C   0  0  0  0  0  0  0  0  0  0  0  0
  -20.1500   -3.3030  -30.3520 C   0  0  0  0  0  0  0  0  0  0  0  0
  -20.2410   -1.9700  -30.7740 C   0  0  0  0  0  0  0  0  0  0  0  0
  -20.0540   -1.0130  -29.8000 C   0  0  0  0  0  0  0  0  0  0  0  0
  -19.7880   -1.3220  -28.4680 C   0  0  0  0  0  0  0  0  0  0  0  0
  -20.5500   -1.6790  -32.1630 C   0  0  0  0  0  0  0  0  0  0  0  0
  -19.8380   -0.8010  -32.8230 C   0  0  0  0  0  0  0  0  0  0  0  0
  -19.9920   -0.3550  -34.2450 C   0  0  2  0  0  0  0  0  0  0  0  0
  -19.7070    1.0690  -34.1170 N   0  0  0  0  0  0  0  0  0  0  0  0
  -18.6170    1.1310  -33.1760 C   0  0  0  0  0  0  0  0  0  0  0  0
  -17.7890    2.0550  -33.1200 O   0  0  0  0  0  0  0  0  0  0  0  0
  -18.6810   -0.0700  -32.3290 C   0  0  0  0  0  0  0  0  0  0  0  0
  -17.9100   -0.3980  -31.3900 O   0  0  0  0  0  0  0  0  0  0  0  0
  -20.3650    2.1500  -34.7920 C   0  0  0  0  0  0  0  0  0  0  0  0
  -19.6680    2.5190  -36.0930 C   0  0  0  0  0  0  0  0  0  0  0  0
  -20.7460    2.6800  -37.1650 C   0  0  0  0  0  0  0  0  0  0  0  0
  -20.3710    2.0240  -38.4020 N   0  0  0  0  0  0  0  0  0  0  0  0
  -19.9100    0.7600  -38.5570 C   0  0  0  0  0  0  0  0  0  0  0  0
  -19.6790    0.5380  -39.8620 N   0  0  0  0  0  0  0  0  0  0  0  0
  -19.9820    1.6380  -40.5660 C   0  0  0  0  0  0  0  0  0  0  0  0
  -20.4140    2.5580  -39.6320 C   0  0  0  0  0  0  0  0  0  0  0  0
  -21.3640   -0.6300  -34.7380 C   0  0  0  0  0  0  0  0  0  0  0  0
  -21.5010   -1.4620  -35.7830 N   0  0  0  0  0  0  0  0  0  0  0  0
  -22.6850   -1.7920  -36.3060 C   0  0  0  0  0  0  0  0  0  0  0  0
  -23.8150   -1.2490  -35.7410 C   0  0  0  0  0  0  0  0  0  0  0  0
  -23.7220   -0.3920  -34.6690 C   0  0  0  0  0  0  0  0  0  0  0  0
  -22.4820   -0.0860  -34.1700 C   0  0  0  0  0  0  0  0  0  0  0  0
  -21.6110   -2.3240  -32.8280 O   0  0  0  0  0  0  0  0  0  0  0  0
  -19.8170   -4.6420  -28.7060 H   0  0  0  0  0  0  0  0  0  0  0  0
  -20.2950   -4.0700  -31.1080 H   0  0  0  0  0  0  0  0  0  0  0  0
  -20.1340    0.0310  -30.0720 H   0  0  0  0  0  0  0  0  0  0  0  0
  -19.6490   -0.5150  -27.7360 H   0  0  0  0  0  0  0  0  0  0  0  0
  -19.2600   -0.8550  -34.8990 H   0  0  0  0  0  0  0  0  0  0  0  0
  -20.2650    3.0640  -34.1480 H   0  0  0  0  0  0  0  0  0  0  0  0
  -21.4220    2.0100  -35.0050 H   0  0  0  0  0  0  0  0  0  0  0  0
  -19.1350    3.4740  -36.0360 H   0  0  0  0  0  0  0  0  0  0  0  0
  -19.0150    1.6980  -36.4340 H   0  0  0  0  0  0  0  0  0  0  0  0
  -21.6800    2.2390  -36.7470 H   0  0  0  0  0  0  0  0  0  0  0  0
  -20.9660    3.7700  -37.3290 H   0  0  0  0  0  0  0  0  0  0  0  0
  -19.7460    0.0300  -37.7780 H   0  0  0  0  0  0  0  0  0  0  0  0
  -19.3150   -0.3590  -40.2910 H   0  0  0  0  0  0  0  0  0  0  0  0
  -19.9180    1.8080  -41.6310 H   0  0  0  0  0  0  0  0  0  0  0  0
  -20.7450    3.5760  -39.8510 H   0  0  0  0  0  0  0  0  0  0  0  0
  -22.7860   -2.4720  -37.1590 H   0  0  0  0  0  0  0  0  0  0  0  0
  -24.7930   -1.5110  -36.1610 H   0  0  0  0  0  0  0  0  0  0  0  0
  -24.6040    0.0400  -34.2180 H   0  0  0  0  0  0  0  0  0  0  0  0
  -22.3420    0.5800  -33.3180 H   0  0  0  0  0  0  0  0  0  0  0  0
  2  1  1  0  0  0  0
  3 31  1  0  0  0  0
  3  2  2  0  0  0  0
  4  3  1  0  0  0  0
  5  4  2  0  0  0  0
  5  6  1  0  0  0  0
  6  7  2  0  0  0  0
  7  2  1  0  0  0  0
  7 34  1  0  0  0  0
  8  5  1  0  0  0  0
  9 14  1  0  0  0  0
  9  8  2  0  0  0  0
 10 35  1  6  0  0  0
 10 11  1  0  0  0  0
 10  9  1  0  0  0  0
 11 12  1  0  0  0  0
 12 13  2  0  0  0  0
 12 14  1  0  0  0  0
 14 15  2  0  0  0  0
 16 36  1  0  0  0  0
 16 11  1  0  0  0  0
 17 38  1  0  0  0  0
 17 16  1  0  0  0  0
 18 40  1  0  0  0  0
 18 17  1  0  0  0  0
 19 18  1  0  0  0  0
 20 19  1  0  0  0  0
 20 42  1  0  0  0  0
 21 20  1  0  0  0  0
 22 21  1  0  0  0  0
 22 23  2  0  0  0  0
 23 19  1  0  0  0  0
 24 10  1  0  0  0  0
 24 29  1  0  0  0  0
 25 24  2  0  0  0  0
 26 25  1  0  0  0  0
 26 27  2  0  0  0  0
 27 28  1  0  0  0  0
 28 48  1  0  0  0  0
 28 29  2  0  0  0  0
 29 49  1  0  0  0  0
 30  8  1  0  0  0  0
 32  4  1  0  0  0  0
 33  6  1  0  0  0  0
 37 16  1  0  0  0  0
 39 17  1  0  0  0  0
 41 18  1  0  0  0  0
 43 21  1  0  0  0  0
 44 22  1  0  0  0  0
 45 23  1  0  0  0  0
 46 26  1  0  0  0  0
 47 27  1  0  0  0  0
M  END
>  <Pose>
1

>  <Score>
-6.93

$$$$
