
 OpenBabel03222201593D

 59 62  0  0  1  0  0  0  0  0999 V2000
  -20.3380   -4.8010  -29.1430 B   0  0  0  0  0  0  0  0  0  0  0  0
  -20.3580   -3.5750  -30.6120 C   0  0  0  0  0  0  0  0  0  0  0  0
  -19.8430   -2.3070  -30.4510 C   0  0  0  0  0  0  0  0  0  0  0  0
  -19.8460   -1.4110  -31.4990 C   0  0  0  0  0  0  0  0  0  0  0  0
  -20.3610   -1.7230  -32.7640 C   0  0  0  0  0  0  0  0  0  0  0  0
  -20.8710   -2.9910  -32.9050 C   0  0  0  0  0  0  0  0  0  0  0  0
  -20.8700   -3.9060  -31.8440 C   0  0  0  0  0  0  0  0  0  0  0  0
  -20.3700   -0.7200  -33.8190 C   0  0  0  0  0  0  0  0  0  0  0  0
  -21.3030    0.1960  -33.9500 C   0  0  0  0  0  0  0  0  0  0  0  0
  -21.3560    1.2570  -35.0190 C   0  0  2  0  0  0  0  0  0  0  0  0
  -22.4860    2.0650  -34.7180 N   0  0  0  0  0  0  0  0  0  0  0  0
  -23.2390    1.5160  -33.6160 C   0  0  0  0  0  0  0  0  0  0  0  0
  -24.3070    1.9170  -33.1310 O   0  0  0  0  0  0  0  0  0  0  0  0
  -22.4880    0.3340  -33.1360 C   0  0  0  0  0  0  0  0  0  0  0  0
  -22.8500   -0.4150  -32.1710 O   0  0  0  0  0  0  0  0  0  0  0  0
  -22.9100    3.2750  -35.3700 C   0  0  0  0  0  0  0  0  0  0  0  0
  -21.8150    4.1050  -35.9470 C   0  0  0  0  0  0  0  0  0  0  0  0
  -22.0520    5.5180  -35.9510 N   0  0  0  0  0  4  0  0  0  0  0  0
  -22.2500    6.0790  -37.2710 C   0  0  0  0  0  0  0  0  0  0  0  0
  -22.6780    7.5200  -37.0840 C   0  0  0  0  0  0  0  0  0  0  0  0
  -21.5480    8.1890  -36.5550 O   0  0  0  0  0  0  0  0  0  0  0  0
  -21.3880    7.6920  -35.2580 C   0  0  0  0  0  0  0  0  0  0  0  0
  -20.9100    6.2540  -35.3730 C   0  0  0  0  0  0  0  0  0  0  0  0
  -21.5470    0.4960  -36.2920 C   0  0  0  0  0  0  0  0  0  0  0  0
  -22.7170   -0.1720  -36.4720 C   0  0  0  0  0  0  0  0  0  0  0  0
  -22.9450   -0.8950  -37.6250 C   0  0  0  0  0  0  0  0  0  0  0  0
  -21.9870   -0.9420  -38.6010 C   0  0  0  0  0  0  0  0  0  0  0  0
  -20.8080   -0.2660  -38.4180 C   0  0  0  0  0  0  0  0  0  0  0  0
  -20.5740    0.4610  -37.2630 C   0  0  0  0  0  0  0  0  0  0  0  0
  -22.2150   -1.7090  -39.8280 C   0  0  0  0  0  0  0  0  0  0  0  0
  -22.2330   -1.1120  -40.9350 O   0  0  0  0  0  0  0  0  0  0  0  0
  -22.4150   -3.0620  -39.8380 O   0  0  0  0  0  0  0  0  0  0  0  0
  -23.6290   -3.6620  -39.4430 C   0  0  0  0  0  0  0  0  0  0  0  0
  -19.3380   -0.6850  -34.7850 O   0  0  0  0  0  0  0  0  0  0  0  0
  -19.4350   -2.0410  -29.4700 H   0  0  0  0  0  0  0  0  0  0  0  0
  -19.4420   -0.4280  -31.3520 H   0  0  0  0  0  0  0  0  0  0  0  0
  -21.3110   -3.2870  -33.8650 H   0  0  0  0  0  0  0  0  0  0  0  0
  -21.2770   -4.8960  -31.9860 H   0  0  0  0  0  0  0  0  0  0  0  0
  -20.3750    1.7540  -34.9830 H   0  0  0  0  0  0  0  0  0  0  0  0
  -23.6690    3.0590  -36.1790 H   0  0  0  0  0  0  0  0  0  0  0  0
  -23.4690    3.9410  -34.6520 H   0  0  0  0  0  0  0  0  0  0  0  0
  -21.7170    3.8050  -37.0320 H   0  0  0  0  0  0  0  0  0  0  0  0
  -20.8200    3.8800  -35.5150 H   0  0  0  0  0  0  0  0  0  0  0  0
  -22.8480    5.7860  -35.3130 H   0  0  0  0  0  0  0  0  0  0  0  0
  -22.9720    5.5090  -37.8900 H   0  0  0  0  0  0  0  0  0  0  0  0
  -21.2590    6.1090  -37.7880 H   0  0  0  0  0  0  0  0  0  0  0  0
  -22.9310    7.9720  -38.0680 H   0  0  0  0  0  0  0  0  0  0  0  0
  -23.5330    7.5910  -36.3560 H   0  0  0  0  0  0  0  0  0  0  0  0
  -22.4160    7.6350  -34.8040 H   0  0  0  0  0  0  0  0  0  0  0  0
  -20.6890    8.3100  -34.6640 H   0  0  0  0  0  0  0  0  0  0  0  0
  -20.0730    6.1560  -36.1110 H   0  0  0  0  0  0  0  0  0  0  0  0
  -20.6230    5.8360  -34.3870 H   0  0  0  0  0  0  0  0  0  0  0  0
  -23.4900   -0.1620  -35.7350 H   0  0  0  0  0  0  0  0  0  0  0  0
  -23.8660   -1.4160  -37.7520 H   0  0  0  0  0  0  0  0  0  0  0  0
  -20.0580   -0.3200  -39.2180 H   0  0  0  0  0  0  0  0  0  0  0  0
  -19.6590    0.9840  -37.1240 H   0  0  0  0  0  0  0  0  0  0  0  0
  -23.5990   -4.0740  -38.4330 H   0  0  0  0  0  0  0  0  0  0  0  0
  -24.4730   -2.9320  -39.5110 H   0  0  0  0  0  0  0  0  0  0  0  0
  -23.8840   -4.5100  -40.1390 H   0  0  0  0  0  0  0  0  0  0  0  0
  2  3  1  0  0  0  0
  2  1  1  0  0  0  0
  3 35  1  0  0  0  0
  4 36  1  0  0  0  0
  4  3  2  0  0  0  0
  5  4  1  0  0  0  0
  6  5  2  0  0  0  0
  6  7  1  0  0  0  0
  7  2  2  0  0  0  0
  8  5  1  0  0  0  0
  9  8  2  0  0  0  0
  9 14  1  0  0  0  0
 10 39  1  6  0  0  0
 10 11  1  0  0  0  0
 10  9  1  0  0  0  0
 11 12  1  0  0  0  0
 12 14  1  0  0  0  0
 12 13  2  0  0  0  0
 14 15  2  0  0  0  0
 16 11  1  0  0  0  0
 16 41  1  0  0  0  0
 17 43  1  0  0  0  0
 17 16  1  0  0  0  0
 18 17  1  0  0  0  0
 18 23  1  0  0  0  0
 18 44  1  0  0  0  0
 19 20  1  0  0  0  0
 19 18  1  0  0  0  0
 20 21  1  0  0  0  0
 20 48  1  0  0  0  0
 21 22  1  0  0  0  0
 22 49  1  0  0  0  0
 22 50  1  0  0  0  0
 23 22  1  0  0  0  0
 23 52  1  0  0  0  0
 24 10  1  0  0  0  0
 25 24  1  0  0  0  0
 25 53  1  0  0  0  0
 26 25  2  0  0  0  0
 27 28  2  0  0  0  0
 27 26  1  0  0  0  0
 28 29  1  0  0  0  0
 29 56  1  0  0  0  0
 29 24  2  0  0  0  0
 30 27  1  0  0  0  0
 31 30  2  0  0  0  0
 32 30  1  0  0  0  0
 32 33  1  0  0  0  0
 33 57  1  0  0  0  0
 34  8  1  0  0  0  0
 37  6  1  0  0  0  0
 38  7  1  0  0  0  0
 40 16  1  0  0  0  0
 42 17  1  0  0  0  0
 45 19  1  0  0  0  0
 46 19  1  0  0  0  0
 47 20  1  0  0  0  0
 51 23  1  0  0  0  0
 54 26  1  0  0  0  0
 55 28  1  0  0  0  0
 58 33  1  0  0  0  0
 59 33  1  0  0  0  0
M  END
>  <Pose>
1

>  <Score>
-5.99

$$$$
