
 OpenBabel03222201593D

 53 56  0  0  1  0  0  0  0  0999 V2000
  -20.2120    0.7080  -37.5010 B   0  0  0  0  0  0  0  0  0  0  0  0
  -19.6670    0.1920  -35.7360 C   0  0  0  0  0  0  0  0  0  0  0  0
  -18.6680    0.8670  -35.0730 C   0  0  0  0  0  0  0  0  0  0  0  0
  -18.2780    0.4870  -33.7970 C   0  0  0  0  0  0  0  0  0  0  0  0
  -18.8690   -0.5710  -33.1440 C   0  0  0  0  0  0  0  0  0  0  0  0
  -19.8680   -1.2440  -33.8090 C   0  0  0  0  0  0  0  0  0  0  0  0
  -20.2660   -0.8660  -35.0950 C   0  0  0  0  0  0  0  0  0  0  0  0
  -18.4770   -0.9460  -31.7960 C   0  0  0  0  0  0  0  0  0  0  0  0
  -19.1680   -0.6700  -30.7060 C   0  0  0  0  0  0  0  0  0  0  0  0
  -18.8740   -0.9910  -29.2800 C   0  0  1  0  0  0  0  0  0  0  0  0
  -19.4300    0.1680  -28.5620 N   0  0  0  0  0  0  0  0  0  0  0  0
  -20.5830    0.5300  -29.2970 C   0  0  0  0  0  0  0  0  0  0  0  0
  -21.5350    1.1770  -28.8430 O   0  0  0  0  0  0  0  0  0  0  0  0
  -20.4560    0.0170  -30.6560 C   0  0  0  0  0  0  0  0  0  0  0  0
  -21.2380    0.0980  -31.6360 O   0  0  0  0  0  0  0  0  0  0  0  0
  -18.8340    0.7000  -27.3910 C   0  0  0  0  0  0  0  0  0  0  0  0
  -17.9310    1.8570  -27.5160 C   0  0  0  0  0  0  0  0  0  0  0  0
  -18.4740    3.1300  -27.1520 N   0  0  0  0  0  4  0  0  0  0  0  0
  -17.9990    4.2440  -27.8960 C   0  0  0  0  0  0  0  0  0  0  0  0
  -17.0540    5.0450  -27.0280 C   0  0  0  0  0  0  0  0  0  0  0  0
  -16.2260    4.2330  -26.2580 O   0  0  0  0  0  0  0  0  0  0  0  0
  -16.9230    3.5320  -25.2910 C   0  0  0  0  0  0  0  0  0  0  0  0
  -18.3630    3.4120  -25.7380 C   0  0  0  0  0  0  0  0  0  0  0  0
  -19.4310   -2.2670  -28.8240 C   0  0  0  0  0  0  0  0  0  0  0  0
  -19.9640   -3.1850  -29.7370 C   0  0  0  0  0  0  0  0  0  0  0  0
  -20.4940   -4.3860  -29.3780 C   0  0  0  0  0  0  0  0  0  0  0  0
  -20.5270   -4.7530  -28.0460 C   0  0  0  0  0  0  0  0  0  0  0  0
  -20.0140   -3.8780  -27.1310 C   0  0  0  0  0  0  0  0  0  0  0  0
  -19.4690   -2.6450  -27.5010 C   0  0  0  0  0  0  0  0  0  0  0  0
  -17.2710   -1.6560  -31.6370 O   0  0  0  0  0  0  0  0  0  0  0  0
  -18.1950    1.6980  -35.5700 H   0  0  0  0  0  0  0  0  0  0  0  0
  -17.4920    1.0070  -33.2590 H   0  0  0  0  0  0  0  0  0  0  0  0
  -20.4180   -2.0770  -33.3970 H   0  0  0  0  0  0  0  0  0  0  0  0
  -21.0550   -1.4030  -35.6140 H   0  0  0  0  0  0  0  0  0  0  0  0
  -17.7730   -1.0340  -29.1480 H   0  0  0  0  0  0  0  0  0  0  0  0
  -19.6650    0.9320  -26.6700 H   0  0  0  0  0  0  0  0  0  0  0  0
  -18.3060   -0.1600  -26.8770 H   0  0  0  0  0  0  0  0  0  0  0  0
  -17.6750    1.9440  -28.6170 H   0  0  0  0  0  0  0  0  0  0  0  0
  -16.9550    1.7490  -27.0170 H   0  0  0  0  0  0  0  0  0  0  0  0
  -19.5190    3.0470  -27.3440 H   0  0  0  0  0  0  0  0  0  0  0  0
  -17.5410    3.9760  -28.8710 H   0  0  0  0  0  0  0  0  0  0  0  0
  -18.8600    4.9330  -28.1400 H   0  0  0  0  0  0  0  0  0  0  0  0
  -17.6810    5.7230  -26.4090 H   0  0  0  0  0  0  0  0  0  0  0  0
  -16.4580    5.6920  -27.7080 H   0  0  0  0  0  0  0  0  0  0  0  0
  -16.8970    4.0700  -24.3240 H   0  0  0  0  0  0  0  0  0  0  0  0
  -16.4590    2.5410  -25.1090 H   0  0  0  0  0  0  0  0  0  0  0  0
  -18.9120    2.6380  -25.1260 H   0  0  0  0  0  0  0  0  0  0  0  0
  -18.8580    4.3670  -25.4760 H   0  0  0  0  0  0  0  0  0  0  0  0
  -19.9500   -2.9190  -30.7900 H   0  0  0  0  0  0  0  0  0  0  0  0
  -20.8940   -5.0630  -30.1170 H   0  0  0  0  0  0  0  0  0  0  0  0
  -20.9510   -5.7120  -27.7680 H   0  0  0  0  0  0  0  0  0  0  0  0
  -20.0130   -4.1140  -26.0840 H   0  0  0  0  0  0  0  0  0  0  0  0
  -19.0870   -2.0080  -26.7420 H   0  0  0  0  0  0  0  0  0  0  0  0
  1  2  1  0  0  0  0
  2  7  2  0  0  0  0
  2  3  1  0  0  0  0
  3  4  2  0  0  0  0
  4 32  1  0  0  0  0
  4  5  1  0  0  0  0
  5  8  1  0  0  0  0
  6 33  1  0  0  0  0
  6  5  2  0  0  0  0
  7  6  1  0  0  0  0
  8 30  1  0  0  0  0
  8  9  2  0  0  0  0
  9 14  1  0  0  0  0
  9 10  1  0  0  0  0
 10 35  1  1  0  0  0
 10 24  1  0  0  0  0
 10 11  1  0  0  0  0
 11 16  1  0  0  0  0
 12 13  2  0  0  0  0
 12 11  1  0  0  0  0
 14 12  1  0  0  0  0
 15 14  2  0  0  0  0
 16 37  1  0  0  0  0
 16 36  1  0  0  0  0
 17 16  1  0  0  0  0
 17 18  1  0  0  0  0
 17 39  1  0  0  0  0
 18 23  1  0  0  0  0
 19 18  1  0  0  0  0
 19 20  1  0  0  0  0
 20 43  1  0  0  0  0
 20 21  1  0  0  0  0
 21 22  1  0  0  0  0
 22 46  1  0  0  0  0
 22 45  1  0  0  0  0
 23 48  1  0  0  0  0
 23 22  1  0  0  0  0
 23 47  1  0  0  0  0
 24 29  1  0  0  0  0
 25 26  1  0  0  0  0
 25 24  2  0  0  0  0
 26 27  2  0  0  0  0
 27 51  1  0  0  0  0
 27 28  1  0  0  0  0
 28 52  1  0  0  0  0
 29 28  2  0  0  0  0
 29 53  1  0  0  0  0
 31  3  1  0  0  0  0
 34  7  1  0  0  0  0
 38 17  1  0  0  0  0
 40 18  1  0  0  0  0
 41 19  1  0  0  0  0
 42 19  1  0  0  0  0
 44 20  1  0  0  0  0
 49 25  1  0  0  0  0
 50 26  1  0  0  0  0
M  END
>  <Pose>
1

>  <Score>
-6.14

$$$$
