
 OpenBabel03222201593D

 48 51  0  0  1  0  0  0  0  0999 V2000
  -17.2390    2.6390  -23.1810 B   0  0  0  0  0  0  0  0  0  0  0  0
  -17.6750    1.4580  -24.6230 C   0  0  0  0  0  0  0  0  0  0  0  0
  -17.9330    0.1330  -24.3540 C   0  0  0  0  0  0  0  0  0  0  0  0
  -18.2440   -0.7060  -25.3910 C   0  0  0  0  0  0  0  0  0  0  0  0
  -18.2950   -0.2280  -26.6760 C   0  0  0  0  0  0  0  0  0  0  0  0
  -18.0310    1.1010  -26.9070 C   0  0  0  0  0  0  0  0  0  0  0  0
  -17.7120    1.9890  -25.8920 C   0  0  0  0  0  0  0  0  0  0  0  0
  -18.6340   -1.1570  -27.8190 C   0  0  1  0  0  0  0  0  0  0  0  0
  -18.5100   -2.4470  -27.3410 O   0  0  0  0  0  0  0  0  0  0  0  0
  -19.9870   -0.8360  -28.3790 C   0  0  0  0  0  0  0  0  0  0  0  0
  -20.1090   -1.1270  -29.7780 N   0  0  0  0  0  0  0  0  0  0  0  0
  -20.4370   -2.3610  -30.2280 C   0  0  0  0  0  0  0  0  0  0  0  0
  -20.4600   -2.2740  -31.6110 C   0  0  0  0  0  0  0  0  0  0  0  0
  -20.7790   -3.4040  -32.3420 C   0  0  0  0  0  0  0  0  0  0  0  0
  -21.0760   -4.6250  -31.7240 C   0  0  0  0  0  0  0  0  0  0  0  0
  -21.0410   -4.6620  -30.3370 C   0  0  0  0  0  0  0  0  0  0  0  0
  -20.7280   -3.5550  -29.5860 C   0  0  0  0  0  0  0  0  0  0  0  0
  -20.1470   -1.0030  -32.0030 N   0  0  0  0  0  0  0  0  0  0  0  0
  -19.9380   -0.3230  -30.8440 C   0  0  1  0  0  0  0  0  0  0  0  0
  -19.6200    0.9270  -30.8060 N   0  0  0  0  0  0  0  0  0  0  0  0
  -20.0670   -0.5820  -33.3690 C   0  0  0  0  0  0  0  0  0  0  0  0
  -21.4080   -0.3370  -34.0030 C   0  0  0  0  0  0  0  0  0  0  0  0
  -22.1030    0.8150  -33.6760 C   0  0  0  0  0  0  0  0  0  0  0  0
  -23.3390    1.1120  -34.2170 C   0  0  0  0  0  0  0  0  0  0  0  0
  -23.8730    0.2150  -35.1080 C   0  0  0  0  0  0  0  0  0  0  0  0
  -23.2060   -0.9330  -35.4480 C   0  0  0  0  0  0  0  0  0  0  0  0
  -21.9830   -1.1980  -34.8950 C   0  0  0  0  0  0  0  0  0  0  0  0
  -17.8880   -0.2420  -23.3110 H   0  0  0  0  0  0  0  0  0  0  0  0
  -18.4500   -1.7520  -25.1940 H   0  0  0  0  0  0  0  0  0  0  0  0
  -18.0660    1.5010  -27.9350 H   0  0  0  0  0  0  0  0  0  0  0  0
  -17.5040    3.0450  -26.0890 H   0  0  0  0  0  0  0  0  0  0  0  0
  -17.8210   -1.0280  -28.5800 H   0  0  0  0  0  0  0  0  0  0  0  0
  -17.6470   -2.6300  -26.9210 H   0  0  0  0  0  0  0  0  0  0  0  0
  -20.7100   -1.5260  -27.8530 H   0  0  0  0  0  0  0  0  0  0  0  0
  -20.3310    0.1780  -28.1380 H   0  0  0  0  0  0  0  0  0  0  0  0
  -20.8040   -3.3250  -33.4180 H   0  0  0  0  0  0  0  0  0  0  0  0
  -21.3160   -5.4690  -32.3300 H   0  0  0  0  0  0  0  0  0  0  0  0
  -21.2690   -5.6000  -29.8420 H   0  0  0  0  0  0  0  0  0  0  0  0
  -20.7100   -3.6230  -28.5110 H   0  0  0  0  0  0  0  0  0  0  0  0
  -19.4720    1.3910  -29.8600 H   0  0  0  0  0  0  0  0  0  0  0  0
  -19.4940    1.5490  -31.6080 H   0  0  0  0  0  0  0  0  0  0  0  0
  -19.5550   -1.3440  -34.0020 H   0  0  0  0  0  0  0  0  0  0  0  0
  -19.5050    0.3730  -33.4190 H   0  0  0  0  0  0  0  0  0  0  0  0
  -21.7070    1.5550  -32.9600 H   0  0  0  0  0  0  0  0  0  0  0  0
  -23.8770    2.0310  -33.9480 H   0  0  0  0  0  0  0  0  0  0  0  0
  -24.8440    0.4020  -35.5630 H   0  0  0  0  0  0  0  0  0  0  0  0
  -23.6770   -1.6250  -36.1700 H   0  0  0  0  0  0  0  0  0  0  0  0
  -21.4830   -2.0960  -35.1690 H   0  0  0  0  0  0  0  0  0  0  0  0
  2  3  1  0  0  0  0
  2  1  1  0  0  0  0
  3 28  1  0  0  0  0
  4 29  1  0  0  0  0
  4  3  2  0  0  0  0
  5  4  1  0  0  0  0
  6  5  2  0  0  0  0
  6  7  1  0  0  0  0
  7  2  2  0  0  0  0
  8 32  1  6  0  0  0
  8  9  1  0  0  0  0
  8  5  1  0  0  0  0
  9 33  1  0  0  0  0
 10 35  1  0  0  0  0
 10 34  1  0  0  0  0
 10  8  1  0  0  0  0
 11 10  1  0  0  0  0
 12 11  1  0  0  0  0
 12 17  1  0  0  0  0
 13 12  2  0  0  0  0
 14 15  2  0  0  0  0
 14 13  1  0  0  0  0
 15 16  1  0  0  0  0
 16 38  1  0  0  0  0
 16 17  2  0  0  0  0
 17 39  1  0  0  0  0
 18 13  1  0  0  0  0
 18 19  1  0  0  0  0
 19 20  1  1  0  0  0
 19 11  1  0  0  0  0
 20 40  1  0  0  0  0
 21 18  1  0  0  0  0
 22 23  1  0  0  0  0
 22 21  1  0  0  0  0
 23 44  1  0  0  0  0
 24 45  1  0  0  0  0
 24 23  2  0  0  0  0
 25 24  1  0  0  0  0
 26 25  2  0  0  0  0
 26 27  1  0  0  0  0
 27 22  2  0  0  0  0
 30  6  1  0  0  0  0
 31  7  1  0  0  0  0
 36 14  1  0  0  0  0
 37 15  1  0  0  0  0
 41 20  1  0  0  0  0
 42 21  1  0  0  0  0
 43 21  1  0  0  0  0
 46 25  1  0  0  0  0
 47 26  1  0  0  0  0
 48 27  1  0  0  0  0
M  END
>  <Pose>
1

>  <Score>
-6.18

$$$$
