
 OpenBabel03222201593D

 55 58  0  0  0  0  0  0  0  0999 V2000
  -24.5410    0.3800  -38.1780 B   0  0  0  0  0  0  0  0  0  0  0  0
  -23.5180    0.0940  -36.5760 C   0  0  0  0  0  0  0  0  0  0  0  0
  -23.0380   -1.1610  -36.2630 C   0  0  0  0  0  0  0  0  0  0  0  0
  -22.3020   -1.3710  -35.1070 C   0  0  0  0  0  0  0  0  0  0  0  0
  -22.0420   -0.3260  -34.2560 C   0  0  0  0  0  0  0  0  0  0  0  0
  -22.5140    0.9350  -34.5550 C   0  0  0  0  0  0  0  0  0  0  0  0
  -23.2450    1.1280  -35.7090 C   0  0  0  0  0  0  0  0  0  0  0  0
  -21.2670   -0.6030  -33.0310 C   0  0  0  0  0  0  0  0  0  0  0  0
  -20.0530    0.1360  -32.9180 N   0  0  0  0  0  0  0  0  0  0  0  0
  -20.0860    1.2570  -32.0780 C   0  0  0  0  0  0  0  0  0  0  0  0
  -19.2050    1.0890  -30.8440 C   0  0  0  0  0  0  0  0  0  0  0  0
  -18.7020   -0.2400  -30.8650 N   0  0  0  0  0  0  0  0  0  0  0  0
  -17.8910   -0.6020  -32.0020 C   0  0  0  0  0  0  0  0  0  0  0  0
  -18.8490   -0.5310  -33.1980 C   0  0  0  0  0  0  0  0  0  0  0  0
  -18.9710   -1.1910  -29.8650 C   0  0  0  0  0  0  0  0  0  0  0  0
  -19.7180   -2.3040  -29.9560 N   0  0  0  0  0  0  0  0  0  0  0  0
  -19.7580   -2.9140  -28.7480 C   0  0  0  0  0  0  0  0  0  0  0  0
  -19.0140   -2.1720  -27.8570 C   0  0  0  0  0  0  0  0  0  0  0  0
  -18.5490   -1.1380  -28.5570 N   0  0  0  0  0  0  0  0  0  0  0  0
  -18.9060   -2.5830  -26.5800 N   0  0  0  0  0  0  0  0  0  0  0  0
  -19.5040   -3.7000  -26.1430 C   0  0  0  0  0  0  0  0  0  0  0  0
  -19.3810   -4.0550  -24.9270 O   0  0  0  0  0  0  0  0  0  0  0  0
  -20.2350   -4.4370  -26.9960 N   0  0  0  0  0  0  0  0  0  0  0  0
  -20.3630   -4.0570  -28.2750 C   0  0  0  0  0  0  0  0  0  0  0  0
  -21.0470   -4.7470  -29.0700 O   0  0  0  0  0  0  0  0  0  0  0  0
  -18.1100   -1.7660  -25.6580 C   0  0  0  0  0  0  0  0  0  0  0  0
  -20.3640   -2.8560  -31.1160 C   0  0  0  0  0  0  0  0  0  0  0  0
  -20.7220   -4.3130  -30.9300 C   0  0  0  0  0  0  0  0  0  0  0  0
  -20.8780   -5.0080  -32.1120 O   0  0  0  0  0  0  0  0  0  0  0  0
  -22.2430   -5.3720  -32.1680 C   0  0  0  0  0  0  0  0  0  0  0  0
  -23.2510   -1.9670  -36.9370 H   0  0  0  0  0  0  0  0  0  0  0  0
  -21.9600   -2.3850  -34.9350 H   0  0  0  0  0  0  0  0  0  0  0  0
  -22.3190    1.7940  -33.8940 H   0  0  0  0  0  0  0  0  0  0  0  0
  -23.6100    2.1340  -35.9240 H   0  0  0  0  0  0  0  0  0  0  0  0
  -21.1140   -1.6870  -32.8880 H   0  0  0  0  0  0  0  0  0  0  0  0
  -21.9210   -0.2650  -32.1720 H   0  0  0  0  0  0  0  0  0  0  0  0
  -21.1360    1.3370  -31.6500 H   0  0  0  0  0  0  0  0  0  0  0  0
  -19.9140    2.2470  -32.5690 H   0  0  0  0  0  0  0  0  0  0  0  0
  -18.3720    1.8510  -30.9810 H   0  0  0  0  0  0  0  0  0  0  0  0
  -19.7130    1.4160  -29.9260 H   0  0  0  0  0  0  0  0  0  0  0  0
  -17.4710   -1.6020  -31.8770 H   0  0  0  0  0  0  0  0  0  0  0  0
  -17.0640    0.1430  -32.1830 H   0  0  0  0  0  0  0  0  0  0  0  0
  -19.0830   -1.5900  -33.4500 H   0  0  0  0  0  0  0  0  0  0  0  0
  -18.3070   -0.1390  -34.0820 H   0  0  0  0  0  0  0  0  0  0  0  0
  -20.7110   -5.3230  -26.6570 H   0  0  0  0  0  0  0  0  0  0  0  0
  -18.7600   -0.9190  -25.3360 H   0  0  0  0  0  0  0  0  0  0  0  0
  -17.7170   -2.3330  -24.8180 H   0  0  0  0  0  0  0  0  0  0  0  0
  -17.2910   -1.3110  -26.2670 H   0  0  0  0  0  0  0  0  0  0  0  0
  -21.2900   -2.3240  -31.4130 H   0  0  0  0  0  0  0  0  0  0  0  0
  -19.6870   -2.7800  -32.0200 H   0  0  0  0  0  0  0  0  0  0  0  0
  -21.6250   -4.3920  -30.2720 H   0  0  0  0  0  0  0  0  0  0  0  0
  -19.9200   -4.8170  -30.3640 H   0  0  0  0  0  0  0  0  0  0  0  0
  -22.8450   -4.4220  -32.1590 H   0  0  0  0  0  0  0  0  0  0  0  0
  -22.5650   -5.9250  -31.2770 H   0  0  0  0  0  0  0  0  0  0  0  0
  -22.4190   -5.9330  -33.1050 H   0  0  0  0  0  0  0  0  0  0  0  0
  1  2  1  0  0  0  0
  2  3  2  0  0  0  0
  2  7  1  0  0  0  0
  3  4  1  0  0  0  0
  4 32  1  0  0  0  0
  4  5  2  0  0  0  0
  5  8  1  0  0  0  0
  6  5  1  0  0  0  0
  6 33  1  0  0  0  0
  7  6  2  0  0  0  0
  8  9  1  0  0  0  0
  8 35  1  0  0  0  0
  8 36  1  0  0  0  0
  9 10  1  0  0  0  0
 10 37  1  0  0  0  0
 10 11  1  0  0  0  0
 11 40  1  0  0  0  0
 12 11  1  0  0  0  0
 12 15  1  0  0  0  0
 13 41  1  0  0  0  0
 13 12  1  0  0  0  0
 14  9  1  0  0  0  0
 14 13  1  0  0  0  0
 15 19  2  0  0  0  0
 16 15  1  0  0  0  0
 16 17  1  0  0  0  0
 17 24  1  0  0  0  0
 17 18  2  0  0  0  0
 18 20  1  0  0  0  0
 19 18  1  0  0  0  0
 20 21  1  0  0  0  0
 20 26  1  0  0  0  0
 21 22  2  0  0  0  0
 23 45  1  0  0  0  0
 23 21  1  0  0  0  0
 24 23  1  0  0  0  0
 25 24  2  0  0  0  0
 26 46  1  0  0  0  0
 26 47  1  0  0  0  0
 27 28  1  0  0  0  0
 27 16  1  0  0  0  0
 28 52  1  0  0  0  0
 28 51  1  0  0  0  0
 29 28  1  0  0  0  0
 30 53  1  0  0  0  0
 30 29  1  0  0  0  0
 30 54  1  0  0  0  0
 31  3  1  0  0  0  0
 34  7  1  0  0  0  0
 38 10  1  0  0  0  0
 39 11  1  0  0  0  0
 42 13  1  0  0  0  0
 43 14  1  0  0  0  0
 44 14  1  0  0  0  0
 48 26  1  0  0  0  0
 49 27  1  0  0  0  0
 50 27  1  0  0  0  0
 55 30  1  0  0  0  0
M  END
>  <Pose>
1

>  <Score>
-6.33

$$$$
