
 OpenBabel03222201593D

 42 45  0  0  0  0  0  0  0  0999 V2000
  -23.6890    1.3820  -39.4250 B   0  0  0  0  0  0  0  0  0  0  0  0
  -22.2940    0.8850  -38.2210 C   0  0  0  0  0  0  0  0  0  0  0  0
  -20.9900    0.7270  -38.6660 C   0  0  0  0  0  0  0  0  0  0  0  0
  -19.9630    0.3670  -37.8110 C   0  0  0  0  0  0  0  0  0  0  0  0
  -20.2090    0.1520  -36.4720 C   0  0  0  0  0  0  0  0  0  0  0  0
  -21.5080    0.3110  -36.0390 C   0  0  0  0  0  0  0  0  0  0  0  0
  -22.5410    0.6700  -36.8810 C   0  0  0  0  0  0  0  0  0  0  0  0
  -19.1430   -0.2290  -35.5510 C   0  0  0  0  0  0  0  0  0  0  0  0
  -18.9860    0.3020  -34.4030 N   0  0  0  0  0  0  0  0  0  0  0  0
  -17.9990   -0.0200  -33.4970 N   0  0  0  0  0  0  0  0  0  0  0  0
  -18.3220   -0.8010  -32.3610 C   0  0  0  0  0  0  0  0  0  0  0  0
  -17.4760   -1.6060  -31.9120 O   0  0  0  0  0  0  0  0  0  0  0  0
  -19.6480   -0.6760  -31.7000 C   0  0  0  0  0  0  0  0  0  0  0  0
  -19.7550   -1.5680  -30.5620 N   0  0  0  0  0  0  0  0  0  0  0  0
  -19.2530   -1.1820  -29.3500 N   0  0  0  0  0  0  0  0  0  0  0  0
  -19.4500   -2.1700  -28.4660 C   0  0  0  0  0  0  0  0  0  0  0  0
  -20.0650   -3.1390  -29.1420 N   0  0  0  0  0  0  0  0  0  0  0  0
  -20.2620   -2.7690  -30.4630 C   0  0  0  0  0  0  0  0  0  0  0  0
  -20.9110   -3.6380  -31.4220 C   0  0  0  0  0  0  0  0  0  0  0  0
  -21.1940   -4.9700  -31.1330 N   0  0  0  0  0  0  0  0  0  0  0  0
  -21.7790   -5.5110  -32.1290 O   0  0  0  0  0  0  0  0  0  0  0  0
  -21.9180   -4.6620  -33.0690 N   0  0  0  0  0  0  0  0  0  0  0  0
  -21.3830   -3.4720  -32.6600 C   0  0  0  0  0  0  0  0  0  0  0  0
  -21.4120   -2.3530  -33.5010 N   0  0  0  0  0  0  0  0  0  0  0  0
  -19.0740   -2.1890  -27.0570 C   0  0  0  0  0  0  0  0  0  0  0  0
  -18.5590   -1.1830  -26.3450 N   0  0  0  0  0  0  0  0  0  0  0  0
  -18.3530   -1.5900  -25.1040 O   0  0  0  0  0  0  0  0  0  0  0  0
  -18.7150   -2.8340  -24.9700 N   0  0  0  0  0  0  0  0  0  0  0  0
  -19.1770   -3.2470  -26.1900 C   0  0  0  0  0  0  0  0  0  0  0  0
  -19.6650   -4.5540  -26.4460 N   0  0  0  0  0  0  0  0  0  0  0  0
  -20.7820    0.8900  -39.7010 H   0  0  0  0  0  0  0  0  0  0  0  0
  -18.9360    0.2450  -38.1740 H   0  0  0  0  0  0  0  0  0  0  0  0
  -21.6830    0.1350  -34.9700 H   0  0  0  0  0  0  0  0  0  0  0  0
  -23.5640    0.7850  -36.4920 H   0  0  0  0  0  0  0  0  0  0  0  0
  -18.4540   -0.9990  -35.8610 H   0  0  0  0  0  0  0  0  0  0  0  0
  -17.0030    0.3220  -33.6610 H   0  0  0  0  0  0  0  0  0  0  0  0
  -20.0570    0.3110  -31.5870 H   0  0  0  0  0  0  0  0  0  0  0  0
  -20.3850   -1.1330  -32.4820 H   0  0  0  0  0  0  0  0  0  0  0  0
  -22.0700   -1.5680  -33.2860 H   0  0  0  0  0  0  0  0  0  0  0  0
  -20.8080   -2.2320  -34.3410 H   0  0  0  0  0  0  0  0  0  0  0  0
  -19.9500   -4.8240  -27.4290 H   0  0  0  0  0  0  0  0  0  0  0  0
  -19.7650   -5.2870  -25.7180 H   0  0  0  0  0  0  0  0  0  0  0  0
  1  2  1  0  0  0  0
  2  7  1  0  0  0  0
  3  2  2  0  0  0  0
  3  4  1  0  0  0  0
  4  5  2  0  0  0  0
  5  6  1  0  0  0  0
  5  8  1  0  0  0  0
  6 33  1  0  0  0  0
  7 34  1  0  0  0  0
  7  6  2  0  0  0  0
  8  9  2  0  0  0  0
  9 10  1  0  0  0  0
 10 11  1  0  0  0  0
 11 12  2  0  0  0  0
 11 13  1  0  0  0  0
 13 37  1  0  0  0  0
 13 14  1  0  0  0  0
 14 18  1  0  0  0  0
 14 15  1  0  0  0  0
 15 16  2  0  0  0  0
 16 25  1  0  0  0  0
 17 16  1  0  0  0  0
 18 17  2  0  0  0  0
 19 20  2  0  0  0  0
 19 18  1  0  0  0  0
 21 20  1  0  0  0  0
 22 23  2  0  0  0  0
 22 21  1  0  0  0  0
 23 19  1  0  0  0  0
 24 39  1  0  0  0  0
 24 23  1  0  0  0  0
 25 26  2  0  0  0  0
 25 29  1  0  0  0  0
 26 27  1  0  0  0  0
 27 28  1  0  0  0  0
 29 28  2  0  0  0  0
 30 29  1  0  0  0  0
 30 42  1  0  0  0  0
 31  3  1  0  0  0  0
 32  4  1  0  0  0  0
 35  8  1  0  0  0  0
 36 10  1  0  0  0  0
 38 13  1  0  0  0  0
 40 24  1  0  0  0  0
 41 30  1  0  0  0  0
M  END
>  <Pose>
1

>  <Score>
-9.21

$$$$
