
 OpenBabel03222201593D

 50 54  0  0  1  0  0  0  0  0999 V2000
  -16.1650    4.0500  -21.8790 B   0  0  0  0  0  0  0  0  0  0  0  0
  -16.7800    2.8820  -23.2420 C   0  0  0  0  0  0  0  0  0  0  0  0
  -16.8220    3.3040  -24.5570 C   0  0  0  0  0  0  0  0  0  0  0  0
  -17.2730    2.4450  -25.5560 C   0  0  0  0  0  0  0  0  0  0  0  0
  -17.6880    1.1630  -25.2760 C   0  0  0  0  0  0  0  0  0  0  0  0
  -17.6420    0.7500  -23.9630 C   0  0  0  0  0  0  0  0  0  0  0  0
  -17.1930    1.5990  -22.9480 C   0  0  0  0  0  0  0  0  0  0  0  0
  -18.1610    0.2620  -26.3220 C   0  0  0  0  0  0  0  0  0  0  0  0
  -18.1970    0.5120  -27.6470 N   0  0  0  0  0  0  0  0  0  0  0  0
  -18.6990   -0.5590  -28.3090 C   0  0  1  0  0  0  0  0  0  0  0  0
  -18.9930   -1.5120  -27.4080 N   0  0  0  0  0  0  0  0  0  0  0  0
  -18.6660   -1.0160  -26.1930 C   0  0  0  0  0  0  0  0  0  0  0  0
  -19.4860   -2.5490  -28.1120 C   0  0  0  0  0  0  0  0  0  0  0  0
  -19.5030   -2.2460  -29.4560 C   0  0  0  0  0  0  0  0  0  0  0  0
  -19.9650   -3.1440  -30.4120 C   0  0  0  0  0  0  0  0  0  0  0  0
  -20.4250   -4.3790  -30.0170 C   0  0  0  0  0  0  0  0  0  0  0  0
  -20.4050   -4.6730  -28.6700 C   0  0  0  0  0  0  0  0  0  0  0  0
  -19.9520   -3.8030  -27.7020 C   0  0  0  0  0  0  0  0  0  0  0  0
  -19.0000   -0.9860  -29.5460 N   0  0  0  0  0  0  0  0  0  0  0  0
  -18.8520   -0.2980  -30.8120 C   0  0  0  0  0  0  0  0  0  0  0  0
  -17.9590   -1.0630  -31.7640 C   0  0  0  0  0  0  0  0  0  0  0  0
  -18.4460   -0.9460  -33.1080 N   0  0  0  0  0  4  0  0  0  0  0  0
  -18.0720    0.3340  -33.6720 C   0  0  0  0  0  0  0  0  0  0  0  0
  -19.2100    1.0040  -34.4030 C   0  0  0  0  0  0  0  0  0  0  0  0
  -19.7560    0.0970  -35.3140 O   0  0  0  0  0  0  0  0  0  0  0  0
  -20.2200   -1.0460  -34.6980 C   0  0  0  0  0  0  0  0  0  0  0  0
  -19.8660   -1.0860  -33.2350 C   0  0  0  0  0  0  0  0  0  0  0  0
  -16.4960    4.3160  -24.7870 H   0  0  0  0  0  0  0  0  0  0  0  0
  -17.2910    2.8100  -26.5610 H   0  0  0  0  0  0  0  0  0  0  0  0
  -17.9540   -0.2430  -23.6810 H   0  0  0  0  0  0  0  0  0  0  0  0
  -17.1630    1.2560  -21.9120 H   0  0  0  0  0  0  0  0  0  0  0  0
  -17.8890    1.3880  -28.1150 H   0  0  0  0  0  0  0  0  0  0  0  0
  -18.7790   -1.5330  -25.2510 H   0  0  0  0  0  0  0  0  0  0  0  0
  -19.9510   -2.8460  -31.4420 H   0  0  0  0  0  0  0  0  0  0  0  0
  -20.7990   -5.1160  -30.7450 H   0  0  0  0  0  0  0  0  0  0  0  0
  -20.7630   -5.6360  -28.3520 H   0  0  0  0  0  0  0  0  0  0  0  0
  -19.9300   -4.0120  -26.6600 H   0  0  0  0  0  0  0  0  0  0  0  0
  -19.8510   -0.1910  -31.2970 H   0  0  0  0  0  0  0  0  0  0  0  0
  -18.4660    0.7240  -30.6280 H   0  0  0  0  0  0  0  0  0  0  0  0
  -17.9130   -2.1200  -31.5020 H   0  0  0  0  0  0  0  0  0  0  0  0
  -16.9500   -0.6110  -31.7040 H   0  0  0  0  0  0  0  0  0  0  0  0
  -18.0070   -1.6770  -33.7220 H   0  0  0  0  0  0  0  0  0  0  0  0
  -17.7080    1.0290  -32.8640 H   0  0  0  0  0  0  0  0  0  0  0  0
  -17.2290    0.2430  -34.3920 H   0  0  0  0  0  0  0  0  0  0  0  0
  -18.7700    1.8500  -34.9710 H   0  0  0  0  0  0  0  0  0  0  0  0
  -19.9510    1.3970  -33.6870 H   0  0  0  0  0  0  0  0  0  0  0  0
  -21.3430   -1.0200  -34.7840 H   0  0  0  0  0  0  0  0  0  0  0  0
  -19.8580   -1.9780  -35.1860 H   0  0  0  0  0  0  0  0  0  0  0  0
  -20.1380   -2.1200  -32.8780 H   0  0  0  0  0  0  0  0  0  0  0  0
  -20.4440   -0.3190  -32.7020 H   0  0  0  0  0  0  0  0  0  0  0  0
  2  7  1  0  0  0  0
  2  1  1  0  0  0  0
  3  2  2  0  0  0  0
  4  5  2  0  0  0  0
  4  3  1  0  0  0  0
  5  6  1  0  0  0  0
  6 30  1  0  0  0  0
  6  7  2  0  0  0  0
  7 31  1  0  0  0  0
  8 12  2  0  0  0  0
  8  5  1  0  0  0  0
  9  8  1  0  0  0  0
 10 19  1  1  0  0  0
 10  9  1  0  0  0  0
 10 11  1  0  0  0  0
 11 12  1  0  0  0  0
 12 33  1  0  0  0  0
 13 18  1  0  0  0  0
 13 11  1  0  0  0  0
 14 13  2  0  0  0  0
 15 16  2  0  0  0  0
 15 14  1  0  0  0  0
 16 17  1  0  0  0  0
 17 36  1  0  0  0  0
 17 18  2  0  0  0  0
 18 37  1  0  0  0  0
 19 14  1  0  0  0  0
 20 39  1  0  0  0  0
 20 19  1  0  0  0  0
 21 41  1  0  0  0  0
 21 40  1  0  0  0  0
 21 20  1  0  0  0  0
 22 21  1  0  0  0  0
 23 22  1  0  0  0  0
 23 43  1  0  0  0  0
 24 46  1  0  0  0  0
 24 23  1  0  0  0  0
 25 26  1  0  0  0  0
 25 24  1  0  0  0  0
 26 27  1  0  0  0  0
 27 22  1  0  0  0  0
 27 49  1  0  0  0  0
 27 50  1  0  0  0  0
 28  3  1  0  0  0  0
 29  4  1  0  0  0  0
 32  9  1  0  0  0  0
 34 15  1  0  0  0  0
 35 16  1  0  0  0  0
 38 20  1  0  0  0  0
 42 22  1  0  0  0  0
 44 23  1  0  0  0  0
 45 24  1  0  0  0  0
 47 26  1  0  0  0  0
 48 26  1  0  0  0  0
M  END
>  <Pose>
1

>  <Score>
-6.95

$$$$
