
 OpenBabel03222201593D

 57 60  0  0  0  0  0  0  0  0999 V2000
  -23.5060    1.5510  -39.0240 B   0  0  0  0  0  0  0  0  0  0  0  0
  -22.8970    0.6470  -37.4530 C   0  0  0  0  0  0  0  0  0  0  0  0
  -21.5790    0.3080  -37.3630 C   0  0  0  0  0  0  0  0  0  0  0  0
  -21.1290   -0.3460  -36.2380 C   0  0  0  0  0  0  0  0  0  0  0  0
  -21.9540   -0.6870  -35.1690 C   0  0  0  0  0  0  0  0  0  0  0  0
  -23.2730   -0.3350  -35.2840 C   0  0  0  0  0  0  0  0  0  0  0  0
  -23.7570    0.3330  -36.4210 C   0  0  0  0  0  0  0  0  0  0  0  0
  -21.4840   -1.3830  -34.0010 C   0  0  0  0  0  0  0  0  0  0  0  0
  -20.5630   -0.8040  -33.1620 C   0  0  0  0  0  0  0  0  0  0  0  0
  -20.0840   -1.4140  -32.0950 O   0  0  0  0  0  0  0  0  0  0  0  0
  -20.4610   -2.6230  -31.7690 C   0  0  0  0  0  0  0  0  0  0  0  0
  -21.3660   -3.2460  -32.5530 C   0  0  0  0  0  0  0  0  0  0  0  0
  -21.7800   -4.5210  -32.2380 C   0  0  0  0  0  0  0  0  0  0  0  0
  -21.2540   -5.1220  -31.1240 C   0  0  0  0  0  0  0  0  0  0  0  0
  -20.3110   -4.4640  -30.3120 C   0  0  0  0  0  0  0  0  0  0  0  0
  -19.8860   -3.2020  -30.6040 C   0  0  0  0  0  0  0  0  0  0  0  0
  -18.9480   -2.3950  -29.8620 C   0  0  0  0  0  0  0  0  0  0  0  0
  -19.3200   -1.5580  -28.7960 N   0  0  0  0  0  4  0  0  0  0  0  0
  -19.7910   -0.2930  -29.2360 C   0  0  0  0  0  0  0  0  0  0  0  0
  -19.6440    0.8800  -28.3490 C   0  0  0  0  0  0  0  0  0  0  0  0
  -18.6870    0.7110  -27.3430 N   0  0  0  0  0  0  0  0  0  0  0  0
  -18.6570   -0.4960  -26.6400 C   0  0  0  0  0  0  0  0  0  0  0  0
  -18.6070   -1.6640  -27.5740 C   0  0  0  0  0  0  0  0  0  0  0  0
  -17.7690    1.7320  -27.0540 C   0  0  0  0  0  0  0  0  0  0  0  0
  -19.8910   -5.2260  -29.2340 O   0  0  0  0  0  0  0  0  0  0  0  0
  -21.9130   -2.6730  -33.6850 C   0  0  0  0  0  0  0  0  0  0  0  0
  -22.7410   -3.2450  -34.4020 O   0  0  0  0  0  0  0  0  0  0  0  0
  -20.0990    0.5570  -33.4760 C   0  0  0  0  0  0  0  0  0  0  0  0
  -20.9210    1.5000  -33.3590 O   0  0  0  0  0  0  0  0  0  0  0  0
  -18.8340    0.8480  -33.8830 O   0  0  0  0  0  0  0  0  0  0  0  0
  -18.6070    1.8130  -34.8820 C   0  0  0  0  0  0  0  0  0  0  0  0
  -18.4750    1.1220  -36.2110 C   0  0  0  0  0  0  0  0  0  0  0  0
  -20.9120    0.5660  -38.1950 H   0  0  0  0  0  0  0  0  0  0  0  0
  -20.1030   -0.6090  -36.1710 H   0  0  0  0  0  0  0  0  0  0  0  0
  -24.0020   -0.5480  -34.5170 H   0  0  0  0  0  0  0  0  0  0  0  0
  -24.7930    0.6050  -36.5080 H   0  0  0  0  0  0  0  0  0  0  0  0
  -22.5120   -5.0090  -32.8790 H   0  0  0  0  0  0  0  0  0  0  0  0
  -21.5720   -6.1170  -30.8640 H   0  0  0  0  0  0  0  0  0  0  0  0
  -18.3350   -1.7370  -30.5960 H   0  0  0  0  0  0  0  0  0  0  0  0
  -18.1090   -3.0660  -29.4720 H   0  0  0  0  0  0  0  0  0  0  0  0
  -20.3030   -2.0420  -28.4910 H   0  0  0  0  0  0  0  0  0  0  0  0
  -19.3160   -0.0540  -30.2300 H   0  0  0  0  0  0  0  0  0  0  0  0
  -20.8990   -0.3480  -29.5450 H   0  0  0  0  0  0  0  0  0  0  0  0
  -20.6400    1.1950  -27.8910 H   0  0  0  0  0  0  0  0  0  0  0  0
  -19.3620    1.8150  -28.9310 H   0  0  0  0  0  0  0  0  0  0  0  0
  -19.5180   -0.6390  -25.9280 H   0  0  0  0  0  0  0  0  0  0  0  0
  -17.7550   -0.5110  -25.9760 H   0  0  0  0  0  0  0  0  0  0  0  0
  -17.5570   -1.9660  -27.7560 H   0  0  0  0  0  0  0  0  0  0  0  0
  -18.9910   -2.5440  -26.9450 H   0  0  0  0  0  0  0  0  0  0  0  0
  -16.7620    1.2910  -26.8930 H   0  0  0  0  0  0  0  0  0  0  0  0
  -17.6410    2.3800  -27.9700 H   0  0  0  0  0  0  0  0  0  0  0  0
  -18.0500    2.4400  -26.2500 H   0  0  0  0  0  0  0  0  0  0  0  0
  -19.4140    2.5910  -34.8970 H   0  0  0  0  0  0  0  0  0  0  0  0
  -17.6740    2.4070  -34.6500 H   0  0  0  0  0  0  0  0  0  0  0  0
  -17.6160    1.5350  -36.8040 H   0  0  0  0  0  0  0  0  0  0  0  0
  -18.4080    0.0330  -36.0450 H   0  0  0  0  0  0  0  0  0  0  0  0
  -19.4370    1.3160  -36.7560 H   0  0  0  0  0  0  0  0  0  0  0  0
  1  2  1  0  0  0  0
  2  3  2  0  0  0  0
  2  7  1  0  0  0  0
  3  4  1  0  0  0  0
  4 34  1  0  0  0  0
  4  5  2  0  0  0  0
  5  8  1  0  0  0  0
  6  5  1  0  0  0  0
  6 35  1  0  0  0  0
  7  6  2  0  0  0  0
  8 26  1  0  0  0  0
  8  9  2  0  0  0  0
  9 10  1  0  0  0  0
 10 11  1  0  0  0  0
 11 16  1  0  0  0  0
 12 13  1  0  0  0  0
 12 11  2  0  0  0  0
 13 14  2  0  0  0  0
 14 38  1  0  0  0  0
 14 15  1  0  0  0  0
 15 25  1  0  0  0  0
 16 15  2  0  0  0  0
 16 17  1  0  0  0  0
 17 40  1  0  0  0  0
 17 18  1  0  0  0  0
 18 41  1  0  0  0  0
 18 23  1  0  0  0  0
 19 18  1  0  0  0  0
 19 20  1  0  0  0  0
 20 44  1  0  0  0  0
 20 21  1  0  0  0  0
 21 24  1  0  0  0  0
 21 22  1  0  0  0  0
 22 47  1  0  0  0  0
 22 46  1  0  0  0  0
 23 49  1  0  0  0  0
 23 22  1  0  0  0  0
 24 50  1  0  0  0  0
 24 52  1  0  0  0  0
 26 12  1  0  0  0  0
 27 26  2  0  0  0  0
 28 29  2  0  0  0  0
 28  9  1  0  0  0  0
 30 28  1  0  0  0  0
 31 54  1  0  0  0  0
 31 30  1  0  0  0  0
 32 56  1  0  0  0  0
 32 31  1  0  0  0  0
 33  3  1  0  0  0  0
 36  7  1  0  0  0  0
 37 13  1  0  0  0  0
 39 17  1  0  0  0  0
 42 19  1  0  0  0  0
 43 19  1  0  0  0  0
 45 20  1  0  0  0  0
 48 23  1  0  0  0  0
 51 24  1  0  0  0  0
 53 31  1  0  0  0  0
 55 32  1  0  0  0  0
 57 32  1  0  0  0  0
M  END
>  <Pose>
1

>  <Score>
-6.69

$$$$
