
 OpenBabel03222201593D

 58 62  0  0  1  0  0  0  0  0999 V2000
  -19.5470    3.6520  -35.6290 B   0  0  0  0  0  0  0  0  0  0  0  0
  -19.7840    2.2270  -34.3560 C   0  0  0  0  0  0  0  0  0  0  0  0
  -18.7260    1.5230  -33.8670 C   0  0  0  0  0  0  0  0  0  0  0  0
  -18.8990    0.5140  -32.9640 C   0  0  0  0  0  0  0  0  0  0  0  0
  -20.1470    0.1510  -32.5010 C   0  0  0  0  0  0  0  0  0  0  0  0
  -21.2010    0.8490  -32.9860 C   0  0  0  0  0  0  0  0  0  0  0  0
  -21.0380    1.8990  -33.9220 C   0  0  0  0  0  0  0  0  0  0  0  0
  -20.2460   -0.9380  -31.5530 C   0  0  0  0  0  0  0  0  0  0  0  0
  -19.6980   -0.8740  -30.2610 C   0  0  0  0  0  0  0  0  0  0  0  0
  -19.9850   -2.0250  -29.6680 N   0  0  0  0  0  0  0  0  0  0  0  0
  -19.7940   -2.6460  -28.4640 C   0  0  0  0  0  0  0  0  0  0  0  0
  -20.4070   -3.8680  -28.5850 C   0  0  0  0  0  0  0  0  0  0  0  0
  -20.9210   -3.9320  -29.8030 N   0  0  0  0  0  0  0  0  0  0  0  0
  -20.6640   -2.7850  -30.4940 C   0  0  1  0  0  0  0  0  0  0  0  0
  -20.8400   -2.1290  -31.6800 N   0  0  0  0  0  0  0  0  0  0  0  0
  -21.5650   -2.7260  -32.7600 C   0  0  0  0  0  0  0  0  0  0  0  0
  -21.5940   -1.9990  -34.0430 C   0  0  0  0  0  0  0  0  0  0  0  0
  -22.5300   -2.4530  -35.1040 C   0  0  0  0  0  0  0  0  0  0  0  0
  -22.0850   -2.0630  -36.4230 N   0  0  0  0  0  4  0  0  0  0  0  0
  -22.7660   -0.9100  -36.9330 C   0  0  0  0  0  0  0  0  0  0  0  0
  -21.8720    0.1930  -37.4230 C   0  0  0  0  0  0  0  0  0  0  0  0
  -22.7360    1.4630  -37.4510 C   0  0  0  0  0  0  0  0  0  0  0  0
  -23.8490    1.2570  -38.4190 C   0  0  0  0  0  0  0  0  0  0  0  0
  -24.6470   -0.0030  -38.1720 C   0  0  0  0  0  0  0  0  0  0  0  0
  -23.7180   -1.2190  -38.0810 C   0  0  0  0  0  0  0  0  0  0  0  0
  -20.4140   -4.7860  -27.5320 C   0  0  0  0  0  0  0  0  0  0  0  0
  -19.7930   -4.4670  -26.3430 C   0  0  0  0  0  0  0  0  0  0  0  0
  -19.1850   -3.2360  -26.2480 C   0  0  0  0  0  0  0  0  0  0  0  0
  -19.1740   -2.3160  -27.2900 C   0  0  0  0  0  0  0  0  0  0  0  0
  -17.7090    1.7760  -34.2070 H   0  0  0  0  0  0  0  0  0  0  0  0
  -17.9940   -0.0170  -32.6040 H   0  0  0  0  0  0  0  0  0  0  0  0
  -22.2110    0.6890  -32.7340 H   0  0  0  0  0  0  0  0  0  0  0  0
  -21.8810    2.4490  -34.3030 H   0  0  0  0  0  0  0  0  0  0  0  0
  -19.1440   -0.0460  -29.8280 H   0  0  0  0  0  0  0  0  0  0  0  0
  -21.4520   -4.7550  -30.1480 H   0  0  0  0  0  0  0  0  0  0  0  0
  -22.5460   -3.0800  -32.4580 H   0  0  0  0  0  0  0  0  0  0  0  0
  -20.9900   -3.7080  -33.0170 H   0  0  0  0  0  0  0  0  0  0  0  0
  -21.9480   -0.9450  -33.7760 H   0  0  0  0  0  0  0  0  0  0  0  0
  -20.5700   -1.7710  -34.4720 H   0  0  0  0  0  0  0  0  0  0  0  0
  -23.5640   -2.0670  -34.9830 H   0  0  0  0  0  0  0  0  0  0  0  0
  -22.5030   -3.5790  -35.0920 H   0  0  0  0  0  0  0  0  0  0  0  0
  -21.0790   -2.0120  -36.5660 H   0  0  0  0  0  0  0  0  0  0  0  0
  -22.3920   -2.8740  -37.0740 H   0  0  0  0  0  0  0  0  0  0  0  0
  -23.4340   -0.4490  -36.1430 H   0  0  0  0  0  0  0  0  0  0  0  0
  -20.9700    0.3440  -36.8300 H   0  0  0  0  0  0  0  0  0  0  0  0
  -21.6230   -0.0020  -38.5050 H   0  0  0  0  0  0  0  0  0  0  0  0
  -23.1210    1.6550  -36.4170 H   0  0  0  0  0  0  0  0  0  0  0  0
  -22.1220    2.3080  -37.8070 H   0  0  0  0  0  0  0  0  0  0  0  0
  -24.5540    2.1070  -38.3220 H   0  0  0  0  0  0  0  0  0  0  0  0
  -23.4420    1.2540  -39.4460 H   0  0  0  0  0  0  0  0  0  0  0  0
  -25.3170   -0.1390  -39.0360 H   0  0  0  0  0  0  0  0  0  0  0  0
  -25.1840    0.1050  -37.2280 H   0  0  0  0  0  0  0  0  0  0  0  0
  -23.1490   -1.2990  -39.0420 H   0  0  0  0  0  0  0  0  0  0  0  0
  -24.3110   -2.0950  -37.8240 H   0  0  0  0  0  0  0  0  0  0  0  0
  -20.8920   -5.7470  -27.6170 H   0  0  0  0  0  0  0  0  0  0  0  0
  -19.7780   -5.1630  -25.4930 H   0  0  0  0  0  0  0  0  0  0  0  0
  -18.7020   -2.9860  -25.3210 H   0  0  0  0  0  0  0  0  0  0  0  0
  -18.7010   -1.3590  -27.2130 H   0  0  0  0  0  0  0  0  0  0  0  0
  1  2  1  0  0  0  0
  2  7  2  0  0  0  0
  2  3  1  0  0  0  0
  3  4  2  0  0  0  0
  4 31  1  0  0  0  0
  4  5  1  0  0  0  0
  5  8  1  0  0  0  0
  6 32  1  0  0  0  0
  6  5  2  0  0  0  0
  7  6  1  0  0  0  0
  8  9  2  0  0  0  0
  9 34  1  0  0  0  0
  9 10  1  0  0  0  0
 10 11  1  0  0  0  0
 11 29  1  0  0  0  0
 12 11  2  0  0  0  0
 12 26  1  0  0  0  0
 13 12  1  0  0  0  0
 14 15  1  1  0  0  0
 14 13  1  0  0  0  0
 14 10  1  0  0  0  0
 15  8  1  0  0  0  0
 16 36  1  0  0  0  0
 16 15  1  0  0  0  0
 17 38  1  0  0  0  0
 17 16  1  0  0  0  0
 18 41  1  0  0  0  0
 18 40  1  0  0  0  0
 18 17  1  0  0  0  0
 19 18  1  0  0  0  0
 20 19  1  0  0  0  0
 20 44  1  0  0  0  0
 21 20  1  0  0  0  0
 21 45  1  0  0  0  0
 22 21  1  0  0  0  0
 22 47  1  0  0  0  0
 23 49  1  0  0  0  0
 23 24  1  0  0  0  0
 23 22  1  0  0  0  0
 24 25  1  0  0  0  0
 24 52  1  0  0  0  0
 25 54  1  0  0  0  0
 25 20  1  0  0  0  0
 26 27  2  0  0  0  0
 27 28  1  0  0  0  0
 27 56  1  0  0  0  0
 28 57  1  0  0  0  0
 29 58  1  0  0  0  0
 29 28  2  0  0  0  0
 30  3  1  0  0  0  0
 33  7  1  0  0  0  0
 35 13  1  0  0  0  0
 37 16  1  0  0  0  0
 39 17  1  0  0  0  0
 42 19  1  0  0  0  0
 43 19  1  0  0  0  0
 46 21  1  0  0  0  0
 48 22  1  0  0  0  0
 50 23  1  0  0  0  0
 51 24  1  0  0  0  0
 53 25  1  0  0  0  0
 55 26  1  0  0  0  0
M  END
>  <Pose>
1

>  <Score>
-6.65

$$$$
