
 OpenBabel03222201593D

 61 65  0  0  1  0  0  0  0  0999 V2000
  -20.3120   -7.0840  -27.6980 B   0  0  0  0  0  0  0  0  0  0  0  0
  -20.0290   -5.1930  -27.5480 C   0  0  0  0  0  0  0  0  0  0  0  0
  -20.3000   -4.3540  -28.5980 C   0  0  0  0  0  0  0  0  0  0  0  0
  -20.0920   -2.9700  -28.4870 C   0  0  0  0  0  0  0  0  0  0  0  0
  -19.6180   -2.3830  -27.3570 C   0  0  0  0  0  0  0  0  0  0  0  0
  -19.3500   -3.2550  -26.3010 C   0  0  0  0  0  0  0  0  0  0  0  0
  -19.5520   -4.6220  -26.4010 C   0  0  0  0  0  0  0  0  0  0  0  0
  -19.3320   -0.9600  -27.1780 C   0  0  0  0  0  0  0  0  0  0  0  0
  -18.6340   -0.4410  -26.0720 C   0  0  0  0  0  0  0  0  0  0  0  0
  -18.4840    0.8830  -26.1830 N   0  0  0  0  0  0  0  0  0  0  0  0
  -17.9710    1.9840  -25.5810 C   0  0  0  0  0  0  0  0  0  0  0  0
  -18.2600    3.0420  -26.4070 C   0  0  0  0  0  0  0  0  0  0  0  0
  -18.9390    2.5600  -27.4850 N   0  0  0  0  0  0  0  0  0  0  0  0
  -19.0660    1.2290  -27.3270 C   0  0  1  0  0  0  0  0  0  0  0  0
  -19.5860    0.1060  -27.9400 N   0  0  0  0  0  0  0  0  0  0  0  0
  -20.2640    0.1560  -29.2180 C   0  0  0  0  0  0  0  0  0  0  0  0
  -19.3380    0.3290  -30.3980 C   0  0  0  0  0  0  0  0  0  0  0  0
  -20.0150   -0.0680  -31.6860 C   0  0  0  0  0  0  0  0  0  0  0  0
  -19.1260   -0.5030  -32.7280 N   0  0  0  0  0  0  0  0  0  0  0  0
  -19.2350    0.4910  -33.7840 C   0  0  0  0  0  0  0  0  0  0  0  0
  -19.3680   -0.0670  -35.1510 C   0  0  0  0  0  0  0  0  0  0  0  0
  -20.2930   -1.1570  -35.3010 N   0  0  0  0  0  4  0  0  0  0  0  0
  -20.5720   -1.8540  -34.0630 C   0  0  0  0  0  0  0  0  0  0  0  0
  -19.3200   -1.8300  -33.2110 C   0  0  0  0  0  0  0  0  0  0  0  0
  -21.4490   -0.7820  -36.0520 C   0  0  0  0  0  0  0  0  0  0  0  0
  -22.7230   -1.4570  -35.6740 C   0  0  0  0  0  0  0  0  0  0  0  0
  -23.0440   -2.5460  -36.4830 O   0  0  0  0  0  0  0  0  0  0  0  0
  -17.8430    4.2990  -26.0220 C   0  0  0  0  0  0  0  0  0  0  0  0
  -17.1480    4.5080  -24.8370 C   0  0  0  0  0  0  0  0  0  0  0  0
  -16.8580    3.4490  -24.0130 C   0  0  0  0  0  0  0  0  0  0  0  0
  -17.2830    2.1740  -24.4050 C   0  0  0  0  0  0  0  0  0  0  0  0
  -20.6790   -4.7670  -29.5220 H   0  0  0  0  0  0  0  0  0  0  0  0
  -20.3500   -2.4080  -29.3500 H   0  0  0  0  0  0  0  0  0  0  0  0
  -18.9690   -2.8280  -25.3890 H   0  0  0  0  0  0  0  0  0  0  0  0
  -19.3300   -5.2540  -25.5610 H   0  0  0  0  0  0  0  0  0  0  0  0
  -18.2710   -1.0510  -25.2380 H   0  0  0  0  0  0  0  0  0  0  0  0
  -19.2850    3.1460  -28.2760 H   0  0  0  0  0  0  0  0  0  0  0  0
  -20.7430   -0.8810  -29.3990 H   0  0  0  0  0  0  0  0  0  0  0  0
  -21.1020    0.8240  -29.2730 H   0  0  0  0  0  0  0  0  0  0  0  0
  -19.1850    1.4450  -30.4820 H   0  0  0  0  0  0  0  0  0  0  0  0
  -18.3480   -0.0980  -30.2820 H   0  0  0  0  0  0  0  0  0  0  0  0
  -20.6010    0.7790  -32.0980 H   0  0  0  0  0  0  0  0  0  0  0  0
  -20.7910   -0.8550  -31.4510 H   0  0  0  0  0  0  0  0  0  0  0  0
  -20.0020    1.2600  -33.5920 H   0  0  0  0  0  0  0  0  0  0  0  0
  -18.2550    1.0510  -33.7510 H   0  0  0  0  0  0  0  0  0  0  0  0
  -18.3400   -0.3100  -35.5510 H   0  0  0  0  0  0  0  0  0  0  0  0
  -19.7070    0.7840  -35.8130 H   0  0  0  0  0  0  0  0  0  0  0  0
  -19.7880   -1.8810  -35.9030 H   0  0  0  0  0  0  0  0  0  0  0  0
  -20.7920   -2.9250  -34.2870 H   0  0  0  0  0  0  0  0  0  0  0  0
  -21.3910   -1.4480  -33.4780 H   0  0  0  0  0  0  0  0  0  0  0  0
  -18.4220   -2.1320  -33.8120 H   0  0  0  0  0  0  0  0  0  0  0  0
  -19.4240   -2.5720  -32.4240 H   0  0  0  0  0  0  0  0  0  0  0  0
  -21.3270   -0.9320  -37.1640 H   0  0  0  0  0  0  0  0  0  0  0  0
  -21.6130    0.3260  -35.9480 H   0  0  0  0  0  0  0  0  0  0  0  0
  -22.5490   -1.8980  -34.6480 H   0  0  0  0  0  0  0  0  0  0  0  0
  -23.5770   -0.7660  -35.5440 H   0  0  0  0  0  0  0  0  0  0  0  0
  -22.2500   -2.8510  -36.9550 H   0  0  0  0  0  0  0  0  0  0  0  0
  -18.0500    5.1570  -26.6420 H   0  0  0  0  0  0  0  0  0  0  0  0
  -16.8190    5.4830  -24.5310 H   0  0  0  0  0  0  0  0  0  0  0  0
  -16.3180    3.6070  -23.0910 H   0  0  0  0  0  0  0  0  0  0  0  0
  -17.0660    1.3310  -23.7710 H   0  0  0  0  0  0  0  0  0  0  0  0
  1  2  1  0  0  0  0
  2  7  1  0  0  0  0
  3  4  1  0  0  0  0
  3  2  2  0  0  0  0
  4  5  2  0  0  0  0
  5  8  1  0  0  0  0
  5  6  1  0  0  0  0
  6 34  1  0  0  0  0
  7  6  2  0  0  0  0
  7 35  1  0  0  0  0
  8  9  2  0  0  0  0
  9 36  1  0  0  0  0
 10  9  1  0  0  0  0
 10 11  1  0  0  0  0
 11 31  1  0  0  0  0
 12 28  1  0  0  0  0
 12 11  2  0  0  0  0
 13 14  1  0  0  0  0
 13 12  1  0  0  0  0
 14 15  1  6  0  0  0
 14 10  1  0  0  0  0
 15  8  1  0  0  0  0
 16 15  1  0  0  0  0
 17 41  1  0  0  0  0
 17 16  1  0  0  0  0
 18 43  1  0  0  0  0
 18 17  1  0  0  0  0
 19 18  1  0  0  0  0
 20 45  1  0  0  0  0
 20 44  1  0  0  0  0
 20 19  1  0  0  0  0
 21 20  1  0  0  0  0
 22 21  1  0  0  0  0
 22 23  1  0  0  0  0
 23 50  1  0  0  0  0
 23 24  1  0  0  0  0
 24 19  1  0  0  0  0
 24 52  1  0  0  0  0
 25 54  1  0  0  0  0
 25 26  1  0  0  0  0
 25 22  1  0  0  0  0
 26 56  1  0  0  0  0
 26 55  1  0  0  0  0
 27 26  1  0  0  0  0
 28 29  2  0  0  0  0
 29 59  1  0  0  0  0
 29 30  1  0  0  0  0
 30 60  1  0  0  0  0
 31 30  2  0  0  0  0
 31 61  1  0  0  0  0
 32  3  1  0  0  0  0
 33  4  1  0  0  0  0
 37 13  1  0  0  0  0
 38 16  1  0  0  0  0
 39 16  1  0  0  0  0
 40 17  1  0  0  0  0
 42 18  1  0  0  0  0
 46 21  1  0  0  0  0
 47 21  1  0  0  0  0
 48 22  1  0  0  0  0
 49 23  1  0  0  0  0
 51 24  1  0  0  0  0
 53 25  1  0  0  0  0
 57 27  1  0  0  0  0
 58 28  1  0  0  0  0
M  END
>  <Pose>
1

>  <Score>
-7.34

$$$$
