
 OpenBabel03222201593D

 53 56  0  0  1  0  0  0  0  0999 V2000
  -19.5980   -1.9120  -29.3860 B   0  0  0  0  0  0  0  0  0  0  0  0
  -19.3970   -1.1270  -31.1060 C   0  0  0  0  0  0  0  0  0  0  0  0
  -20.4560   -0.6470  -31.8430 C   0  0  0  0  0  0  0  0  0  0  0  0
  -20.2680   -0.0730  -33.1090 C   0  0  0  0  0  0  0  0  0  0  0  0
  -19.0200    0.0290  -33.6550 C   0  0  0  0  0  0  0  0  0  0  0  0
  -17.9790   -0.4600  -32.8940 C   0  0  0  0  0  0  0  0  0  0  0  0
  -18.1450   -1.0250  -31.6500 C   0  0  0  0  0  0  0  0  0  0  0  0
  -18.7760    0.5830  -34.9320 C   0  0  1  0  0  0  0  0  0  0  0  0
  -19.6510    0.4030  -36.0320 N   0  0  0  0  0  0  0  0  0  0  0  0
  -19.0210    1.1820  -37.0930 C   0  0  0  0  0  0  0  0  0  0  0  0
  -19.1060    0.9570  -38.3320 O   0  0  0  0  0  0  0  0  0  0  0  0
  -18.2900    2.2540  -36.4190 C   0  0  0  0  0  0  0  0  0  0  0  0
  -17.6020    3.1730  -36.9340 O   0  0  0  0  0  0  0  0  0  0  0  0
  -18.5180    2.0530  -34.9870 C   0  0  0  0  0  0  0  0  0  0  0  0
  -18.5310    2.9680  -34.0350 C   0  0  0  0  0  0  0  0  0  0  0  0
  -18.8290    2.6140  -32.7280 O   0  0  0  0  0  0  0  0  0  0  0  0
  -18.2360    4.3750  -34.2650 C   0  0  0  0  0  0  0  0  0  0  0  0
  -17.2810    4.9210  -33.3960 C   0  0  0  0  0  0  0  0  0  0  0  0
  -16.8590    6.2250  -33.5030 C   0  0  0  0  0  0  0  0  0  0  0  0
  -17.4070    7.0130  -34.5100 C   0  0  0  0  0  0  0  0  0  0  0  0
  -18.3440    6.4700  -35.3600 C   0  0  0  0  0  0  0  0  0  0  0  0
  -18.7600    5.1600  -35.2450 C   0  0  0  0  0  0  0  0  0  0  0  0
  -16.8630    8.6710  -34.6360 Cl  0  0  0  0  0  0  0  0  0  0  0  0
  -20.8730   -0.3770  -36.2420 C   0  0  0  0  0  0  0  0  0  0  0  0
  -21.9720    0.3680  -36.9350 C   0  0  0  0  0  0  0  0  0  0  0  0
  -23.2880   -0.0930  -36.5560 N   0  0  0  0  0  4  0  0  0  0  0  0
  -23.3660   -1.5210  -36.4300 C   0  0  0  0  0  0  0  0  0  0  0  0
  -23.2770   -2.2540  -37.7370 C   0  0  0  0  0  0  0  0  0  0  0  0
  -24.1900   -1.7710  -38.6750 O   0  0  0  0  0  0  0  0  0  0  0  0
  -23.8670   -0.4200  -38.8750 C   0  0  0  0  0  0  0  0  0  0  0  0
  -24.2180    0.3090  -37.5960 C   0  0  0  0  0  0  0  0  0  0  0  0
  -21.4310   -0.7310  -31.4110 H   0  0  0  0  0  0  0  0  0  0  0  0
  -21.1780    0.2710  -33.5670 H   0  0  0  0  0  0  0  0  0  0  0  0
  -16.9370   -0.4210  -33.2490 H   0  0  0  0  0  0  0  0  0  0  0  0
  -17.3000   -1.3980  -31.0810 H   0  0  0  0  0  0  0  0  0  0  0  0
  -17.7720    0.1490  -35.2980 H   0  0  0  0  0  0  0  0  0  0  0  0
  -16.8400    4.3290  -32.6060 H   0  0  0  0  0  0  0  0  0  0  0  0
  -16.1190    6.6100  -32.8120 H   0  0  0  0  0  0  0  0  0  0  0  0
  -18.7490    7.1070  -36.1290 H   0  0  0  0  0  0  0  0  0  0  0  0
  -19.4780    4.7440  -35.9440 H   0  0  0  0  0  0  0  0  0  0  0  0
  -21.2740   -0.6320  -35.2160 H   0  0  0  0  0  0  0  0  0  0  0  0
  -20.6700   -1.2900  -36.8260 H   0  0  0  0  0  0  0  0  0  0  0  0
  -21.8760    0.1110  -38.0240 H   0  0  0  0  0  0  0  0  0  0  0  0
  -21.9210    1.4600  -36.9000 H   0  0  0  0  0  0  0  0  0  0  0  0
  -23.6210    0.3320  -35.6690 H   0  0  0  0  0  0  0  0  0  0  0  0
  -22.6460   -1.9540  -35.7290 H   0  0  0  0  0  0  0  0  0  0  0  0
  -24.3870   -1.7450  -36.0100 H   0  0  0  0  0  0  0  0  0  0  0  0
  -22.2440   -2.2680  -38.1470 H   0  0  0  0  0  0  0  0  0  0  0  0
  -23.5740   -3.3130  -37.5400 H   0  0  0  0  0  0  0  0  0  0  0  0
  -24.4310    0.0110  -39.7260 H   0  0  0  0  0  0  0  0  0  0  0  0
  -22.8060   -0.3790  -39.1260 H   0  0  0  0  0  0  0  0  0  0  0  0
  -24.2040    1.4180  -37.7450 H   0  0  0  0  0  0  0  0  0  0  0  0
  -25.2530   -0.0220  -37.3210 H   0  0  0  0  0  0  0  0  0  0  0  0
  2  1  1  0  0  0  0
  3 32  1  0  0  0  0
  3  2  2  0  0  0  0
  4  3  1  0  0  0  0
  5  4  2  0  0  0  0
  5  6  1  0  0  0  0
  6  7  2  0  0  0  0
  7  2  1  0  0  0  0
  7 35  1  0  0  0  0
  8 36  1  6  0  0  0
  8  5  1  0  0  0  0
  9  8  1  0  0  0  0
 10 12  1  0  0  0  0
 10  9  1  0  0  0  0
 11 10  2  0  0  0  0
 12 14  1  0  0  0  0
 13 12  2  0  0  0  0
 14  8  1  0  0  0  0
 14 15  2  0  0  0  0
 15 16  1  0  0  0  0
 17 15  1  0  0  0  0
 17 18  1  0  0  0  0
 18 37  1  0  0  0  0
 19 18  2  0  0  0  0
 19 38  1  0  0  0  0
 20 19  1  0  0  0  0
 21 22  1  0  0  0  0
 21 20  2  0  0  0  0
 22 17  2  0  0  0  0
 23 20  1  0  0  0  0
 24  9  1  0  0  0  0
 24 41  1  0  0  0  0
 25 44  1  0  0  0  0
 25 26  1  0  0  0  0
 25 24  1  0  0  0  0
 26 27  1  0  0  0  0
 26 45  1  0  0  0  0
 27 47  1  0  0  0  0
 27 46  1  0  0  0  0
 28 49  1  0  0  0  0
 28 27  1  0  0  0  0
 29 28  1  0  0  0  0
 30 29  1  0  0  0  0
 30 31  1  0  0  0  0
 31 53  1  0  0  0  0
 31 26  1  0  0  0  0
 33  4  1  0  0  0  0
 34  6  1  0  0  0  0
 39 21  1  0  0  0  0
 40 22  1  0  0  0  0
 42 24  1  0  0  0  0
 43 25  1  0  0  0  0
 48 28  1  0  0  0  0
 50 30  1  0  0  0  0
 51 30  1  0  0  0  0
 52 31  1  0  0  0  0
M  END
>  <Pose>
1

>  <Score>
-5.58

$$$$
