
 OpenBabel03222201593D

 55 58  0  0  1  0  0  0  0  0999 V2000
  -18.3040    2.3800  -33.9370 B   0  0  0  0  0  0  0  0  0  0  0  0
  -19.1860    0.8450  -33.2230 C   0  0  0  0  0  0  0  0  0  0  0  0
  -20.4410    0.9140  -32.6590 C   0  0  0  0  0  0  0  0  0  0  0  0
  -21.0660   -0.2070  -32.1470 C   0  0  0  0  0  0  0  0  0  0  0  0
  -20.4890   -1.4310  -32.1660 C   0  0  0  0  0  0  0  0  0  0  0  0
  -19.2100   -1.4890  -32.7440 C   0  0  0  0  0  0  0  0  0  0  0  0
  -18.5690   -0.3870  -33.2600 C   0  0  0  0  0  0  0  0  0  0  0  0
  -21.0340   -2.6680  -31.6410 C   0  0  1  0  0  0  0  0  0  0  0  0
  -20.8180   -3.8730  -32.3750 N   0  0  0  0  0  0  0  0  0  0  0  0
  -21.0070   -4.9490  -31.4210 C   0  0  0  0  0  0  0  0  0  0  0  0
  -21.2620   -6.1420  -31.7310 O   0  0  0  0  0  0  0  0  0  0  0  0
  -20.8480   -4.3970  -30.0890 C   0  0  0  0  0  0  0  0  0  0  0  0
  -20.9320   -5.0070  -28.9800 O   0  0  0  0  0  0  0  0  0  0  0  0
  -20.5680   -2.9860  -30.2650 C   0  0  0  0  0  0  0  0  0  0  0  0
  -19.9910   -2.1940  -29.3790 C   0  0  0  0  0  0  0  0  0  0  0  0
  -19.7750   -0.8560  -29.7890 O   0  0  0  0  0  0  0  0  0  0  0  0
  -19.5870   -2.6050  -28.0500 C   0  0  0  0  0  0  0  0  0  0  0  0
  -18.8470   -1.6710  -27.3150 C   0  0  0  0  0  0  0  0  0  0  0  0
  -18.4330   -1.9130  -26.0210 C   0  0  0  0  0  0  0  0  0  0  0  0
  -18.7440   -3.0820  -25.4340 N   0  0  0  0  0  0  0  0  0  0  0  0
  -19.4570   -4.0010  -26.1180 C   0  0  0  0  0  0  0  0  0  0  0  0
  -19.8810   -3.7680  -27.4250 C   0  0  0  0  0  0  0  0  0  0  0  0
  -20.5480   -4.1240  -33.7920 C   0  0  0  0  0  0  0  0  0  0  0  0
  -21.5980   -3.6390  -34.7330 C   0  0  0  0  0  0  0  0  0  0  0  0
  -21.7540   -2.1270  -34.6820 C   0  0  0  0  0  0  0  0  0  0  0  0
  -22.0090   -1.5810  -35.9950 N   0  0  0  0  0  4  0  0  0  0  0  0
  -23.2560   -2.0460  -36.5570 C   0  0  0  0  0  0  0  0  0  0  0  0
  -23.6020   -1.0930  -37.7040 C   0  0  0  0  0  0  0  0  0  0  0  0
  -24.0750    0.1000  -37.1570 O   0  0  0  0  0  0  0  0  0  0  0  0
  -23.3450    0.4720  -36.0290 C   0  0  0  0  0  0  0  0  0  0  0  0
  -21.9640   -0.1520  -36.0300 C   0  0  0  0  0  0  0  0  0  0  0  0
  -20.9160    1.8840  -32.6350 H   0  0  0  0  0  0  0  0  0  0  0  0
  -22.0740   -0.1100  -31.7200 H   0  0  0  0  0  0  0  0  0  0  0  0
  -18.6750   -2.4290  -32.8020 H   0  0  0  0  0  0  0  0  0  0  0  0
  -17.5690   -0.4780  -33.7040 H   0  0  0  0  0  0  0  0  0  0  0  0
  -22.1510   -2.5800  -31.5340 H   0  0  0  0  0  0  0  0  0  0  0  0
  -18.5730   -0.7180  -27.7450 H   0  0  0  0  0  0  0  0  0  0  0  0
  -17.8620   -1.1980  -25.4470 H   0  0  0  0  0  0  0  0  0  0  0  0
  -19.7110   -4.9480  -25.6460 H   0  0  0  0  0  0  0  0  0  0  0  0
  -20.4720   -4.5240  -27.9100 H   0  0  0  0  0  0  0  0  0  0  0  0
  -20.4460   -5.2150  -33.9110 H   0  0  0  0  0  0  0  0  0  0  0  0
  -19.5800   -3.6810  -34.1050 H   0  0  0  0  0  0  0  0  0  0  0  0
  -21.3510   -3.9380  -35.8030 H   0  0  0  0  0  0  0  0  0  0  0  0
  -22.5730   -4.0790  -34.5100 H   0  0  0  0  0  0  0  0  0  0  0  0
  -22.6140   -1.8940  -34.0530 H   0  0  0  0  0  0  0  0  0  0  0  0
  -20.7970   -1.7150  -34.3250 H   0  0  0  0  0  0  0  0  0  0  0  0
  -21.2440   -1.9380  -36.6170 H   0  0  0  0  0  0  0  0  0  0  0  0
  -23.1960   -3.0510  -37.0000 H   0  0  0  0  0  0  0  0  0  0  0  0
  -24.0690   -2.0200  -35.8180 H   0  0  0  0  0  0  0  0  0  0  0  0
  -24.2990   -1.5490  -38.4050 H   0  0  0  0  0  0  0  0  0  0  0  0
  -22.6470   -0.8720  -38.2160 H   0  0  0  0  0  0  0  0  0  0  0  0
  -23.1950    1.5700  -36.0110 H   0  0  0  0  0  0  0  0  0  0  0  0
  -23.8850    0.1490  -35.1100 H   0  0  0  0  0  0  0  0  0  0  0  0
  -21.4210    0.2220  -35.1650 H   0  0  0  0  0  0  0  0  0  0  0  0
  -21.4490    0.2400  -36.9440 H   0  0  0  0  0  0  0  0  0  0  0  0
  1  2  1  0  0  0  0
  2  3  1  0  0  0  0
  3 32  1  0  0  0  0
  3  4  2  0  0  0  0
  4 33  1  0  0  0  0
  5  4  1  0  0  0  0
  5  8  1  0  0  0  0
  6  5  2  0  0  0  0
  7  2  2  0  0  0  0
  7  6  1  0  0  0  0
  8 36  1  1  0  0  0
  8 14  1  0  0  0  0
  9  8  1  0  0  0  0
  9 10  1  0  0  0  0
 10 12  1  0  0  0  0
 11 10  2  0  0  0  0
 12 13  2  0  0  0  0
 14 12  1  0  0  0  0
 14 15  2  0  0  0  0
 15 17  1  0  0  0  0
 16 15  1  0  0  0  0
 17 22  2  0  0  0  0
 17 18  1  0  0  0  0
 18 19  2  0  0  0  0
 19 38  1  0  0  0  0
 19 20  1  0  0  0  0
 21 39  1  0  0  0  0
 21 20  2  0  0  0  0
 22 21  1  0  0  0  0
 23  9  1  0  0  0  0
 24 25  1  0  0  0  0
 24 44  1  0  0  0  0
 24 23  1  0  0  0  0
 25 46  1  0  0  0  0
 25 45  1  0  0  0  0
 26 25  1  0  0  0  0
 27 26  1  0  0  0  0
 27 49  1  0  0  0  0
 28 29  1  0  0  0  0
 28 27  1  0  0  0  0
 29 30  1  0  0  0  0
 30 52  1  0  0  0  0
 30 53  1  0  0  0  0
 31 30  1  0  0  0  0
 31 26  1  0  0  0  0
 31 54  1  0  0  0  0
 34  6  1  0  0  0  0
 35  7  1  0  0  0  0
 37 18  1  0  0  0  0
 40 22  1  0  0  0  0
 41 23  1  0  0  0  0
 42 23  1  0  0  0  0
 43 24  1  0  0  0  0
 47 26  1  0  0  0  0
 48 27  1  0  0  0  0
 50 28  1  0  0  0  0
 51 28  1  0  0  0  0
 55 31  1  0  0  0  0
M  END
>  <Pose>
1

>  <Score>
-6.84

$$$$
