
 OpenBabel03222201593D

 57 60  0  0  1  0  0  0  0  0999 V2000
  -16.8660    6.1670  -33.8610 B   0  0  0  0  0  0  0  0  0  0  0  0
  -17.7860    4.4900  -34.0480 C   0  0  0  0  0  0  0  0  0  0  0  0
  -17.6880    3.7580  -35.2170 C   0  0  0  0  0  0  0  0  0  0  0  0
  -18.3600    2.5430  -35.3380 C   0  0  0  0  0  0  0  0  0  0  0  0
  -19.1340    2.0290  -34.3250 C   0  0  0  0  0  0  0  0  0  0  0  0
  -19.2180    2.7750  -33.1690 C   0  0  0  0  0  0  0  0  0  0  0  0
  -18.5590    3.9750  -33.0390 C   0  0  0  0  0  0  0  0  0  0  0  0
  -19.8510    0.7440  -34.4790 C   0  0  1  0  0  0  0  0  0  0  0  0
  -19.1520   -0.1330  -35.4360 N   0  0  0  0  0  0  0  0  0  0  0  0
  -18.0130   -0.6000  -34.7230 C   0  0  0  0  0  0  0  0  0  0  0  0
  -16.9430   -0.9930  -35.2710 O   0  0  0  0  0  0  0  0  0  0  0  0
  -18.2980   -0.5470  -33.2930 C   0  0  0  0  0  0  0  0  0  0  0  0
  -17.5370   -0.8840  -32.3630 O   0  0  0  0  0  0  0  0  0  0  0  0
  -19.6480   -0.0260  -33.1960 C   0  0  0  0  0  0  0  0  0  0  0  0
  -20.5200   -0.2070  -32.2380 C   0  0  0  0  0  0  0  0  0  0  0  0
  -21.7990    0.3240  -32.3240 O   0  0  0  0  0  0  0  0  0  0  0  0
  -20.1960   -0.9640  -31.0440 C   0  0  0  0  0  0  0  0  0  0  0  0
  -19.7440   -0.5770  -29.8330 N   0  0  0  0  0  0  0  0  0  0  0  0
  -19.5470   -1.6370  -29.0360 C   0  0  0  0  0  0  0  0  0  0  0  0
  -19.8840   -2.7220  -29.7670 N   0  0  0  0  0  0  0  0  0  0  0  0
  -20.2800   -2.3720  -30.9750 C   0  0  0  0  0  0  0  0  0  0  0  0
  -20.7450   -3.2290  -32.1130 C   0  0  0  0  0  0  0  0  0  0  0  0
  -19.0990   -1.5260  -27.7190 C   0  0  0  0  0  0  0  0  0  0  0  0
  -18.8390   -0.2860  -27.1840 C   0  0  0  0  0  0  0  0  0  0  0  0
  -19.0490    0.7900  -28.0150 C   0  0  0  0  0  0  0  0  0  0  0  0
  -19.4910    0.6500  -29.3090 C   0  0  0  0  0  0  0  0  0  0  0  0
  -19.5570   -0.4140  -36.7890 C   0  0  0  0  0  0  0  0  0  0  0  0
  -20.7470    0.2610  -37.3460 C   0  0  0  0  0  0  0  0  0  0  0  0
  -21.5310   -0.3650  -38.4300 C   0  0  0  0  0  0  0  0  0  0  0  0
  -22.0820   -1.6660  -38.1990 N   0  0  0  0  0  4  0  0  0  0  0  0
  -23.2910   -1.4700  -37.3490 C   0  0  0  0  0  0  0  0  0  0  0  0
  -22.6040   -2.2080  -39.4360 C   0  0  0  0  0  0  0  0  0  0  0  0
  -17.0750    4.1510  -36.0370 H   0  0  0  0  0  0  0  0  0  0  0  0
  -18.2650    1.9920  -36.2580 H   0  0  0  0  0  0  0  0  0  0  0  0
  -19.8330    2.3840  -32.3720 H   0  0  0  0  0  0  0  0  0  0  0  0
  -18.6500    4.5240  -32.1240 H   0  0  0  0  0  0  0  0  0  0  0  0
  -20.9100    0.8580  -34.7200 H   0  0  0  0  0  0  0  0  0  0  0  0
  -20.3960   -2.8430  -33.0770 H   0  0  0  0  0  0  0  0  0  0  0  0
  -21.8730   -3.3010  -32.1010 H   0  0  0  0  0  0  0  0  0  0  0  0
  -20.3640   -4.2630  -31.9850 H   0  0  0  0  0  0  0  0  0  0  0  0
  -18.9500   -2.4050  -27.1060 H   0  0  0  0  0  0  0  0  0  0  0  0
  -18.4890   -0.1750  -26.1600 H   0  0  0  0  0  0  0  0  0  0  0  0
  -18.8440    1.7740  -27.5880 H   0  0  0  0  0  0  0  0  0  0  0  0
  -19.6500    1.4950  -29.9500 H   0  0  0  0  0  0  0  0  0  0  0  0
  -19.6420   -1.5280  -36.9560 H   0  0  0  0  0  0  0  0  0  0  0  0
  -18.6710   -0.0930  -37.4370 H   0  0  0  0  0  0  0  0  0  0  0  0
  -20.5470    1.3560  -37.5550 H   0  0  0  0  0  0  0  0  0  0  0  0
  -21.4800    0.3380  -36.4570 H   0  0  0  0  0  0  0  0  0  0  0  0
  -20.9620   -0.3570  -39.4120 H   0  0  0  0  0  0  0  0  0  0  0  0
  -22.3980    0.3300  -38.6750 H   0  0  0  0  0  0  0  0  0  0  0  0
  -21.4770   -2.3500  -37.7440 H   0  0  0  0  0  0  0  0  0  0  0  0
  -23.7740   -2.4340  -37.1420 H   0  0  0  0  0  0  0  0  0  0  0  0
  -22.9990   -0.9440  -36.4180 H   0  0  0  0  0  0  0  0  0  0  0  0
  -23.9790   -0.8780  -37.9870 H   0  0  0  0  0  0  0  0  0  0  0  0
  -22.0770   -1.7860  -40.3230 H   0  0  0  0  0  0  0  0  0  0  0  0
  -22.3990   -3.2970  -39.4410 H   0  0  0  0  0  0  0  0  0  0  0  0
  -23.7010   -2.1030  -39.5290 H   0  0  0  0  0  0  0  0  0  0  0  0
  2  1  1  0  0  0  0
  2  7  1  0  0  0  0
  3  2  2  0  0  0  0
  4  3  1  0  0  0  0
  4  5  2  0  0  0  0
  5  6  1  0  0  0  0
  6  7  2  0  0  0  0
  6 35  1  0  0  0  0
  7 36  1  0  0  0  0
  8 37  1  6  0  0  0
  8  5  1  0  0  0  0
  8 14  1  0  0  0  0
  9 10  1  0  0  0  0
  9  8  1  0  0  0  0
 10 12  1  0  0  0  0
 11 10  2  0  0  0  0
 12 14  1  0  0  0  0
 12 13  2  0  0  0  0
 14 15  2  0  0  0  0
 15 17  1  0  0  0  0
 16 15  1  0  0  0  0
 17 21  2  0  0  0  0
 17 18  1  0  0  0  0
 18 26  1  0  0  0  0
 18 19  1  0  0  0  0
 19 23  1  0  0  0  0
 20 19  2  0  0  0  0
 21 20  1  0  0  0  0
 22 39  1  0  0  0  0
 22 40  1  0  0  0  0
 22 21  1  0  0  0  0
 23 24  2  0  0  0  0
 23 41  1  0  0  0  0
 24 42  1  0  0  0  0
 25 43  1  0  0  0  0
 25 24  1  0  0  0  0
 26 25  2  0  0  0  0
 27  9  1  0  0  0  0
 28 27  1  0  0  0  0
 28 48  1  0  0  0  0
 29 30  1  0  0  0  0
 29 28  1  0  0  0  0
 30 51  1  0  0  0  0
 30 31  1  0  0  0  0
 31 52  1  0  0  0  0
 31 53  1  0  0  0  0
 32 30  1  0  0  0  0
 33  3  1  0  0  0  0
 34  4  1  0  0  0  0
 38 22  1  0  0  0  0
 44 26  1  0  0  0  0
 45 27  1  0  0  0  0
 46 27  1  0  0  0  0
 47 28  1  0  0  0  0
 49 29  1  0  0  0  0
 50 29  1  0  0  0  0
 54 31  1  0  0  0  0
 55 32  1  0  0  0  0
 56 32  1  0  0  0  0
 57 32  1  0  0  0  0
M  END
>  <Pose>
1

>  <Score>
-5.72

$$$$
