
 OpenBabel03222201593D

 62 65  0  0  1  0  0  0  0  0999 V2000
  -18.0840    3.8530  -33.7110 B   0  0  0  0  0  0  0  0  0  0  0  0
  -18.8580    2.1160  -33.5500 C   0  0  0  0  0  0  0  0  0  0  0  0
  -20.2140    1.9320  -33.3550 C   0  0  0  0  0  0  0  0  0  0  0  0
  -20.7740    0.6770  -33.2390 C   0  0  0  0  0  0  0  0  0  0  0  0
  -19.9880   -0.4370  -33.3160 C   0  0  0  0  0  0  0  0  0  0  0  0
  -18.6470   -0.2590  -33.5090 C   0  0  0  0  0  0  0  0  0  0  0  0
  -18.0700    0.9840  -33.6270 C   0  0  0  0  0  0  0  0  0  0  0  0
  -20.5140   -1.7630  -33.2200 C   0  0  2  0  0  0  0  0  0  0  0  0
  -21.7970   -2.1170  -33.6640 N   0  0  0  0  0  0  0  0  0  0  0  0
  -21.9000   -3.5100  -33.2650 C   0  0  0  0  0  0  0  0  0  0  0  0
  -22.6190   -4.4280  -33.7900 O   0  0  0  0  0  0  0  0  0  0  0  0
  -21.0190   -3.7070  -32.1200 C   0  0  0  0  0  0  0  0  0  0  0  0
  -20.7700   -4.7470  -31.4300 O   0  0  0  0  0  0  0  0  0  0  0  0
  -20.4160   -2.3970  -31.8800 C   0  0  0  0  0  0  0  0  0  0  0  0
  -19.8860   -1.9290  -30.7660 C   0  0  0  0  0  0  0  0  0  0  0  0
  -19.3080   -0.6670  -30.7490 O   0  0  0  0  0  0  0  0  0  0  0  0
  -19.8770   -2.6830  -29.5220 C   0  0  0  0  0  0  0  0  0  0  0  0
  -19.4250   -2.2880  -28.3200 N   0  0  0  0  0  0  0  0  0  0  0  0
  -19.6270   -3.2640  -27.4040 C   0  0  0  0  0  0  0  0  0  0  0  0
  -20.2150   -4.2790  -28.0580 N   0  0  0  0  0  0  0  0  0  0  0  0
  -20.3840   -3.9710  -29.3420 C   0  0  0  0  0  0  0  0  0  0  0  0
  -20.9850   -4.7720  -30.4420 C   0  0  0  0  0  0  0  0  0  0  0  0
  -19.2490   -3.1310  -26.0850 C   0  0  0  0  0  0  0  0  0  0  0  0
  -18.6380   -1.9840  -25.6370 C   0  0  0  0  0  0  0  0  0  0  0  0
  -18.4230   -0.9810  -26.5560 C   0  0  0  0  0  0  0  0  0  0  0  0
  -18.8160   -1.1620  -27.8460 C   0  0  0  0  0  0  0  0  0  0  0  0
  -22.9030   -1.5460  -34.3610 C   0  0  0  0  0  0  0  0  0  0  0  0
  -23.2300   -1.8640  -35.7340 C   0  0  0  0  0  0  0  0  0  0  0  0
  -23.0130   -0.7940  -36.7790 C   0  0  0  0  0  0  0  0  0  0  0  0
  -21.8100   -1.0540  -37.5640 N   0  0  0  0  0  4  0  0  0  0  0  0
  -21.0460    0.1190  -37.8670 C   0  0  0  0  0  0  0  0  0  0  0  0
  -21.4610    0.8330  -39.1200 C   0  0  0  0  0  0  0  0  0  0  0  0
  -22.6790    0.4360  -39.6040 O   0  0  0  0  0  0  0  0  0  0  0  0
  -22.8320   -0.9150  -39.7780 C   0  0  0  0  0  0  0  0  0  0  0  0
  -22.0990   -1.7510  -38.7820 C   0  0  0  0  0  0  0  0  0  0  0  0
  -20.8550    2.8130  -33.2910 H   0  0  0  0  0  0  0  0  0  0  0  0
  -21.8780    0.6170  -33.0820 H   0  0  0  0  0  0  0  0  0  0  0  0
  -17.9490   -1.1130  -33.5900 H   0  0  0  0  0  0  0  0  0  0  0  0
  -16.9900    1.1210  -33.7820 H   0  0  0  0  0  0  0  0  0  0  0  0
  -19.8100   -2.4090  -33.8460 H   0  0  0  0  0  0  0  0  0  0  0  0
  -21.6360   -4.1060  -31.0410 H   0  0  0  0  0  0  0  0  0  0  0  0
  -21.5980   -5.5570  -29.9820 H   0  0  0  0  0  0  0  0  0  0  0  0
  -20.1570   -5.2000  -31.0350 H   0  0  0  0  0  0  0  0  0  0  0  0
  -19.4260   -3.9280  -25.3830 H   0  0  0  0  0  0  0  0  0  0  0  0
  -18.3290   -1.8360  -24.6270 H   0  0  0  0  0  0  0  0  0  0  0  0
  -17.9490   -0.0760  -26.2220 H   0  0  0  0  0  0  0  0  0  0  0  0
  -18.6370   -0.3650  -28.5850 H   0  0  0  0  0  0  0  0  0  0  0  0
  -22.9150   -0.4150  -34.2380 H   0  0  0  0  0  0  0  0  0  0  0  0
  -23.8110   -1.8360  -33.7400 H   0  0  0  0  0  0  0  0  0  0  0  0
  -22.9660   -2.8900  -36.1100 H   0  0  0  0  0  0  0  0  0  0  0  0
  -24.3720   -1.9800  -35.7480 H   0  0  0  0  0  0  0  0  0  0  0  0
  -22.8340    0.2030  -36.3170 H   0  0  0  0  0  0  0  0  0  0  0  0
  -23.8620   -0.8140  -37.4810 H   0  0  0  0  0  0  0  0  0  0  0  0
  -21.2010   -1.6680  -36.9680 H   0  0  0  0  0  0  0  0  0  0  0  0
  -20.9160    0.8230  -37.0190 H   0  0  0  0  0  0  0  0  0  0  0  0
  -19.9960   -0.2540  -38.0740 H   0  0  0  0  0  0  0  0  0  0  0  0
  -20.6660    0.8270  -39.9180 H   0  0  0  0  0  0  0  0  0  0  0  0
  -21.5560    1.9260  -38.8590 H   0  0  0  0  0  0  0  0  0  0  0  0
  -22.6050   -1.2350  -40.8330 H   0  0  0  0  0  0  0  0  0  0  0  0
  -23.9310   -1.1430  -39.6570 H   0  0  0  0  0  0  0  0  0  0  0  0
  -21.1190   -2.0320  -39.2380 H   0  0  0  0  0  0  0  0  0  0  0  0
  -22.6030   -2.7070  -38.5370 H   0  0  0  0  0  0  0  0  0  0  0  0
  1  2  1  0  0  0  0
  2  3  1  0  0  0  0
  3 36  1  0  0  0  0
  3  4  2  0  0  0  0
  4 37  1  0  0  0  0
  5  4  1  0  0  0  0
  5  8  1  0  0  0  0
  6  5  2  0  0  0  0
  7  2  2  0  0  0  0
  7  6  1  0  0  0  0
  8 40  1  6  0  0  0
  8 14  1  0  0  0  0
  9 10  1  0  0  0  0
  9  8  1  0  0  0  0
 10 12  1  0  0  0  0
 11 10  2  0  0  0  0
 12 14  1  0  0  0  0
 13 43  1  0  0  0  0
 13 22  1  0  0  0  0
 14 15  2  0  0  0  0
 15 16  1  0  0  0  0
 15 17  1  0  0  0  0
 17 21  2  0  0  0  0
 17 18  1  0  0  0  0
 18 26  1  0  0  0  0
 18 19  1  0  0  0  0
 19 23  1  0  0  0  0
 20 19  2  0  0  0  0
 21 20  1  0  0  0  0
 22 42  1  0  0  0  0
 23 24  2  0  0  0  0
 23 44  1  0  0  0  0
 24 45  1  0  0  0  0
 25 46  1  0  0  0  0
 25 24  1  0  0  0  0
 26 25  2  0  0  0  0
 27 48  1  0  0  0  0
 27 49  1  0  0  0  0
 27  9  1  0  0  0  0
 28 27  1  0  0  0  0
 29 52  1  0  0  0  0
 29 28  1  0  0  0  0
 30 54  1  0  0  0  0
 30 29  1  0  0  0  0
 31 30  1  0  0  0  0
 31 55  1  0  0  0  0
 32 58  1  0  0  0  0
 32 31  1  0  0  0  0
 33 32  1  0  0  0  0
 34 60  1  0  0  0  0
 34 33  1  0  0  0  0
 34 35  1  0  0  0  0
 35 62  1  0  0  0  0
 35 30  1  0  0  0  0
 38  6  1  0  0  0  0
 39  7  1  0  0  0  0
 41 22  1  0  0  0  0
 47 26  1  0  0  0  0
 50 28  1  0  0  0  0
 51 28  1  0  0  0  0
 53 29  1  0  0  0  0
 56 31  1  0  0  0  0
 57 32  1  0  0  0  0
 59 34  1  0  0  0  0
 61 35  1  0  0  0  0
M  END
>  <Pose>
1

>  <Score>
-6.83

$$$$
