
 OpenBabel03222201593D

 44 47  0  0  0  0  0  0  0  0999 V2000
  -24.6410    0.5500  -38.1340 B   0  0  0  0  0  0  0  0  0  0  0  0
  -23.0870    0.1240  -37.1070 C   0  0  0  0  0  0  0  0  0  0  0  0
  -21.9330    0.8580  -37.2020 C   0  0  0  0  0  0  0  0  0  0  0  0
  -20.7990    0.5330  -36.4450 C   0  0  0  0  0  0  0  0  0  0  0  0
  -20.7620   -0.5240  -35.5710 C   0  0  0  0  0  0  0  0  0  0  0  0
  -21.9640   -1.2550  -35.4980 C   0  0  0  0  0  0  0  0  0  0  0  0
  -23.0740   -0.9450  -36.2330 C   0  0  0  0  0  0  0  0  0  0  0  0
  -19.6780   -0.9440  -34.7960 N   0  0  0  0  0  0  0  0  0  0  0  0
  -19.6190   -0.9330  -33.3970 C   0  0  0  0  0  0  0  0  0  0  0  0
  -18.4610   -0.8770  -32.8190 O   0  0  0  0  0  0  0  0  0  0  0  0
  -20.7320   -0.9780  -32.4500 C   0  0  0  0  0  0  0  0  0  0  0  0
  -20.6810   -2.2090  -31.6440 N   0  0  0  0  0  0  0  0  0  0  0  0
  -20.3140   -2.2080  -30.3650 N   0  0  0  0  0  0  0  0  0  0  0  0
  -20.2420   -3.3600  -29.6390 C   0  0  0  0  0  0  0  0  0  0  0  0
  -20.5510   -4.5260  -30.2270 N   0  0  0  0  0  0  0  0  0  0  0  0
  -20.4340   -5.6150  -29.2820 C   0  0  0  0  0  0  0  0  0  0  0  0
  -19.9930   -5.0180  -27.9790 C   0  0  0  0  0  0  0  0  0  0  0  0
  -19.8450   -3.6090  -28.2960 N   0  0  0  0  0  0  0  0  0  0  0  0
  -19.3670   -2.6610  -27.3620 C   0  0  0  0  0  0  0  0  0  0  0  0
  -19.1320   -1.3460  -27.6620 C   0  0  0  0  0  0  0  0  0  0  0  0
  -18.6490   -0.4460  -26.7290 C   0  0  0  0  0  0  0  0  0  0  0  0
  -18.3890   -0.8730  -25.4410 C   0  0  0  0  0  0  0  0  0  0  0  0
  -18.6160   -2.1740  -25.1210 C   0  0  0  0  0  0  0  0  0  0  0  0
  -19.0960   -3.0650  -26.0580 C   0  0  0  0  0  0  0  0  0  0  0  0
  -20.9270   -4.5910  -31.5110 C   0  0  0  0  0  0  0  0  0  0  0  0
  -21.2150   -5.6820  -32.0580 O   0  0  0  0  0  0  0  0  0  0  0  0
  -20.9820   -3.3950  -32.2000 C   0  0  0  0  0  0  0  0  0  0  0  0
  -21.3310   -3.4050  -33.4070 O   0  0  0  0  0  0  0  0  0  0  0  0
  -21.9070    1.7020  -37.8750 H   0  0  0  0  0  0  0  0  0  0  0  0
  -19.9090    1.1500  -36.5410 H   0  0  0  0  0  0  0  0  0  0  0  0
  -21.9840   -2.0990  -34.8210 H   0  0  0  0  0  0  0  0  0  0  0  0
  -24.0000   -1.5230  -36.1700 H   0  0  0  0  0  0  0  0  0  0  0  0
  -18.8170   -1.3010  -35.3000 H   0  0  0  0  0  0  0  0  0  0  0  0
  -21.7290   -1.0010  -32.9520 H   0  0  0  0  0  0  0  0  0  0  0  0
  -20.6880   -0.1220  -31.7530 H   0  0  0  0  0  0  0  0  0  0  0  0
  -21.4680   -6.0010  -29.1170 H   0  0  0  0  0  0  0  0  0  0  0  0
  -19.7590   -6.4260  -29.6420 H   0  0  0  0  0  0  0  0  0  0  0  0
  -18.9800   -5.4520  -27.7700 H   0  0  0  0  0  0  0  0  0  0  0  0
  -20.6910   -5.1850  -27.1340 H   0  0  0  0  0  0  0  0  0  0  0  0
  -19.3320   -1.0160  -28.6540 H   0  0  0  0  0  0  0  0  0  0  0  0
  -18.4690    0.5880  -26.9970 H   0  0  0  0  0  0  0  0  0  0  0  0
  -18.0030   -0.1540  -24.7060 H   0  0  0  0  0  0  0  0  0  0  0  0
  -18.4200   -2.5320  -24.1270 H   0  0  0  0  0  0  0  0  0  0  0  0
  -19.2670   -4.0790  -25.7980 H   0  0  0  0  0  0  0  0  0  0  0  0
  1  2  1  0  0  0  0
  2  7  1  0  0  0  0
  3  2  2  0  0  0  0
  3  4  1  0  0  0  0
  4  5  2  0  0  0  0
  5  6  1  0  0  0  0
  5  8  1  0  0  0  0
  6 31  1  0  0  0  0
  7 32  1  0  0  0  0
  7  6  2  0  0  0  0
  8  9  1  0  0  0  0
  9 10  2  0  0  0  0
  9 11  1  0  0  0  0
 11 35  1  0  0  0  0
 11 12  1  0  0  0  0
 12 13  1  0  0  0  0
 13 14  2  0  0  0  0
 14 18  1  0  0  0  0
 15 14  1  0  0  0  0
 15 16  1  0  0  0  0
 16 36  1  0  0  0  0
 16 17  1  0  0  0  0
 17 38  1  0  0  0  0
 17 39  1  0  0  0  0
 18 17  1  0  0  0  0
 18 19  1  0  0  0  0
 19 24  1  0  0  0  0
 20 19  2  0  0  0  0
 20 21  1  0  0  0  0
 21 22  2  0  0  0  0
 22 23  1  0  0  0  0
 22 42  1  0  0  0  0
 23 43  1  0  0  0  0
 24 44  1  0  0  0  0
 24 23  2  0  0  0  0
 25 15  1  0  0  0  0
 26 25  2  0  0  0  0
 27 12  1  0  0  0  0
 27 25  1  0  0  0  0
 28 27  2  0  0  0  0
 29  3  1  0  0  0  0
 30  4  1  0  0  0  0
 33  8  1  0  0  0  0
 34 11  1  0  0  0  0
 37 16  1  0  0  0  0
 40 20  1  0  0  0  0
 41 21  1  0  0  0  0
M  END
>  <Pose>
1

>  <Score>
-7.97

$$$$
