
 OpenBabel03222201593D

 44 47  0  0  0  0  0  0  0  0999 V2000
  -16.2490    7.2660  -32.5850 B   0  0  0  0  0  0  0  0  0  0  0  0
  -16.9810    6.3280  -31.1030 C   0  0  0  0  0  0  0  0  0  0  0  0
  -18.2740    5.8710  -31.0810 C   0  0  0  0  0  0  0  0  0  0  0  0
  -18.7600    5.1910  -29.9730 C   0  0  0  0  0  0  0  0  0  0  0  0
  -18.0020    4.9370  -28.8510 C   0  0  0  0  0  0  0  0  0  0  0  0
  -16.6800    5.4200  -28.9090 C   0  0  0  0  0  0  0  0  0  0  0  0
  -16.2020    6.0850  -29.9920 C   0  0  0  0  0  0  0  0  0  0  0  0
  -18.4550    4.2730  -27.6880 N   0  0  0  0  0  0  0  0  0  0  0  0
  -17.6840    3.4510  -26.8550 C   0  0  0  0  0  0  0  0  0  0  0  0
  -16.6980    2.8270  -27.2980 O   0  0  0  0  0  0  0  0  0  0  0  0
  -18.0480    3.3050  -25.3870 C   0  0  0  0  0  0  0  0  0  0  0  0
  -17.8790    1.9170  -25.0060 N   0  0  0  0  0  0  0  0  0  0  0  0
  -17.3150    1.5100  -23.8680 N   0  0  0  0  0  0  0  0  0  0  0  0
  -17.3160    0.1980  -23.8240 N   0  0  0  0  0  0  0  0  0  0  0  0
  -17.8910   -0.2680  -24.9590 C   0  0  0  0  0  0  0  0  0  0  0  0
  -18.2330    0.8080  -25.6780 C   0  0  0  0  0  0  0  0  0  0  0  0
  -18.8120    0.2940  -26.8190 C   0  0  0  0  0  0  0  0  0  0  0  0
  -19.2630    1.0310  -27.7460 O   0  0  0  0  0  0  0  0  0  0  0  0
  -18.8320   -1.0480  -26.8140 N   0  0  0  0  0  0  0  0  0  0  0  0
  -18.2490   -1.4100  -25.6350 C   0  0  0  0  0  0  0  0  0  0  0  0
  -18.0970   -2.6130  -25.2900 O   0  0  0  0  0  0  0  0  0  0  0  0
  -19.3430   -1.9460  -27.8100 C   0  0  0  0  0  0  0  0  0  0  0  0
  -20.1400   -3.0140  -27.4590 C   0  0  0  0  0  0  0  0  0  0  0  0
  -20.6450   -3.8750  -28.4120 C   0  0  0  0  0  0  0  0  0  0  0  0
  -20.3780   -3.7160  -29.7600 C   0  0  0  0  0  0  0  0  0  0  0  0
  -19.5800   -2.6480  -30.1140 C   0  0  0  0  0  0  0  0  0  0  0  0
  -19.0770   -1.7860  -29.1530 C   0  0  0  0  0  0  0  0  0  0  0  0
  -20.9420   -4.6610  -30.7620 C   0  0  0  0  0  0  0  0  0  0  0  0
  -18.8990    6.0470  -31.9360 H   0  0  0  0  0  0  0  0  0  0  0  0
  -19.8000    4.8250  -29.9850 H   0  0  0  0  0  0  0  0  0  0  0  0
  -16.0640    5.2200  -28.0150 H   0  0  0  0  0  0  0  0  0  0  0  0
  -15.1710    6.4440  -29.9940 H   0  0  0  0  0  0  0  0  0  0  0  0
  -19.4820    4.4290  -27.4380 H   0  0  0  0  0  0  0  0  0  0  0  0
  -19.0940    3.5900  -25.2350 H   0  0  0  0  0  0  0  0  0  0  0  0
  -17.3260    3.9320  -24.8070 H   0  0  0  0  0  0  0  0  0  0  0  0
  -16.9440    2.1680  -23.1510 H   0  0  0  0  0  0  0  0  0  0  0  0
  -16.9490   -0.4320  -23.0690 H   0  0  0  0  0  0  0  0  0  0  0  0
  -20.3590   -3.1520  -26.4050 H   0  0  0  0  0  0  0  0  0  0  0  0
  -21.2810   -4.7270  -28.1440 H   0  0  0  0  0  0  0  0  0  0  0  0
  -19.3540   -2.5000  -31.1750 H   0  0  0  0  0  0  0  0  0  0  0  0
  -18.4480   -0.9450  -29.4290 H   0  0  0  0  0  0  0  0  0  0  0  0
  -20.6360   -5.7140  -30.5670 H   0  0  0  0  0  0  0  0  0  0  0  0
  -20.4880   -4.3970  -31.7480 H   0  0  0  0  0  0  0  0  0  0  0  0
  -22.0340   -4.5660  -30.8640 H   0  0  0  0  0  0  0  0  0  0  0  0
  1  2  1  0  0  0  0
  2  3  2  0  0  0  0
  2  7  1  0  0  0  0
  3  4  1  0  0  0  0
  4  5  2  0  0  0  0
  5  8  1  0  0  0  0
  6  5  1  0  0  0  0
  6 31  1  0  0  0  0
  7  6  2  0  0  0  0
  8 33  1  0  0  0  0
  8  9  1  0  0  0  0
  9 11  1  0  0  0  0
 10  9  2  0  0  0  0
 11 34  1  0  0  0  0
 11 12  1  0  0  0  0
 11 35  1  0  0  0  0
 12 13  1  0  0  0  0
 13 14  1  0  0  0  0
 13 36  1  0  0  0  0
 14 37  1  0  0  0  0
 15 14  1  0  0  0  0
 16 12  1  0  0  0  0
 16 15  2  0  0  0  0
 17 19  1  0  0  0  0
 17 16  1  0  0  0  0
 18 17  2  0  0  0  0
 19 20  1  0  0  0  0
 20 21  2  0  0  0  0
 20 15  1  0  0  0  0
 22 23  1  0  0  0  0
 22 19  1  0  0  0  0
 23 38  1  0  0  0  0
 24 39  1  0  0  0  0
 24 23  2  0  0  0  0
 25 24  1  0  0  0  0
 26 25  2  0  0  0  0
 26 27  1  0  0  0  0
 27 22  2  0  0  0  0
 28 42  1  0  0  0  0
 28 25  1  0  0  0  0
 29  3  1  0  0  0  0
 30  4  1  0  0  0  0
 32  7  1  0  0  0  0
 40 26  1  0  0  0  0
 41 27  1  0  0  0  0
 43 28  1  0  0  0  0
 44 28  1  0  0  0  0
M  END
>  <Pose>
1

>  <Score>
-7.88

$$$$
