
 OpenBabel03222201593D

 52 55  0  0  1  0  0  0  0  0999 V2000
  -22.3460   -6.1690  -32.6720 B   0  0  0  0  0  0  0  0  0  0  0  0
  -21.4850   -4.7570  -31.7520 C   0  0  0  0  0  0  0  0  0  0  0  0
  -21.0680   -4.9410  -30.4450 C   0  0  0  0  0  0  0  0  0  0  0  0
  -20.4450   -3.9810  -29.7200 C   0  0  0  0  0  0  0  0  0  0  0  0
  -20.2130   -2.7170  -30.3520 C   0  0  0  0  0  0  0  0  0  0  0  0
  -20.6400   -2.5670  -31.6500 C   0  0  0  0  0  0  0  0  0  0  0  0
  -21.2710   -3.5580  -32.3690 C   0  0  0  0  0  0  0  0  0  0  0  0
  -19.5160   -1.8220  -29.5790 N   0  0  0  0  0  0  0  0  0  0  0  0
  -18.8330   -0.9430  -28.8210 C   0  0  0  0  0  0  0  0  0  0  0  0
  -18.3570    0.2220  -29.1710 O   0  0  0  0  0  0  0  0  0  0  0  0
  -18.5180   -1.2000  -27.3900 C   0  0  2  0  0  0  0  0  0  0  0  0
  -19.4420   -2.2010  -26.7220 C   0  0  0  0  0  0  0  0  0  0  0  0
  -18.8010   -2.6330  -25.4430 C   0  0  0  0  0  0  0  0  0  0  0  0
  -18.7060   -3.8140  -25.1610 O   0  0  0  0  0  0  0  0  0  0  0  0
  -18.3290   -1.6120  -24.6060 N   0  0  0  0  0  0  0  0  0  0  0  0
  -18.0400   -0.3280  -25.1200 C   0  0  0  0  0  0  0  0  0  0  0  0
  -17.6800    0.6880  -24.3110 N   0  0  0  0  0  0  0  0  0  0  0  0
  -17.4790    1.9490  -24.6970 C   0  0  0  0  0  0  0  0  0  0  0  0
  -17.6640    2.1800  -26.0220 N   0  0  0  0  0  0  0  0  0  0  0  0
  -18.0240    1.2050  -26.8970 C   0  0  0  0  0  0  0  0  0  0  0  0
  -18.2240   -0.0820  -26.5020 C   0  0  0  0  0  0  0  0  0  0  0  0
  -18.1960    1.5300  -28.2400 O   0  0  0  0  0  0  0  0  0  0  0  0
  -17.0520    2.9860  -23.8350 N   0  0  0  0  0  0  0  0  0  0  0  0
  -16.0540    3.9840  -24.1210 C   0  0  0  0  0  0  0  0  0  0  0  0
  -16.5160    5.3090  -23.5230 C   0  0  0  0  0  0  0  0  0  0  0  0
  -18.0120    5.4170  -23.4720 C   0  0  2  0  0  0  0  0  0  0  0  0
  -18.6120    4.3320  -22.6490 C   0  0  0  0  0  0  0  0  0  0  0  0
  -17.6750    3.1090  -22.5130 C   0  0  0  0  0  0  0  0  0  0  0  0
  -18.6080    5.5130  -24.8260 C   0  0  0  0  0  0  0  0  0  0  0  0
  -18.2750    6.4820  -25.5380 O   0  0  0  0  0  0  0  0  0  0  0  0
  -19.5290    4.5790  -25.3480 N   0  0  0  0  0  0  0  0  0  0  0  0
  -21.2510   -5.9200  -29.9600 H   0  0  0  0  0  0  0  0  0  0  0  0
  -20.1230   -4.1340  -28.6890 H   0  0  0  0  0  0  0  0  0  0  0  0
  -20.4630   -1.6210  -32.1650 H   0  0  0  0  0  0  0  0  0  0  0  0
  -21.5970   -3.4150  -33.3920 H   0  0  0  0  0  0  0  0  0  0  0  0
  -20.6750   -1.2220  -29.2460 H   0  0  0  0  0  0  0  0  0  0  0  0
  -17.5460   -1.8470  -27.4940 H   0  0  0  0  0  0  0  0  0  0  0  0
  -19.5840   -3.1130  -27.3340 H   0  0  0  0  0  0  0  0  0  0  0  0
  -20.4230   -1.7710  -26.5020 H   0  0  0  0  0  0  0  0  0  0  0  0
  -18.1740   -1.7470  -23.5700 H   0  0  0  0  0  0  0  0  0  0  0  0
  -18.9810    2.0890  -28.5680 H   0  0  0  0  0  0  0  0  0  0  0  0
  -15.9210    4.1310  -25.2070 H   0  0  0  0  0  0  0  0  0  0  0  0
  -15.0510    3.7820  -23.7080 H   0  0  0  0  0  0  0  0  0  0  0  0
  -16.0210    5.4830  -22.5540 H   0  0  0  0  0  0  0  0  0  0  0  0
  -16.1350    6.1210  -24.1880 H   0  0  0  0  0  0  0  0  0  0  0  0
  -18.2580    6.3860  -22.9590 H   0  0  0  0  0  0  0  0  0  0  0  0
  -19.5590    3.9570  -23.1310 H   0  0  0  0  0  0  0  0  0  0  0  0
  -18.9050    4.6460  -21.6320 H   0  0  0  0  0  0  0  0  0  0  0  0
  -16.9400    3.3170  -21.7350 H   0  0  0  0  0  0  0  0  0  0  0  0
  -18.3380    2.2490  -22.3050 H   0  0  0  0  0  0  0  0  0  0  0  0
  -19.8790    4.6220  -26.3230 H   0  0  0  0  0  0  0  0  0  0  0  0
  -19.8710    3.8150  -24.7290 H   0  0  0  0  0  0  0  0  0  0  0  0
  1  2  1  0  0  0  0
  2  3  1  0  0  0  0
  3 32  1  0  0  0  0
  3  4  2  0  0  0  0
  4 33  1  0  0  0  0
  5  4  1  0  0  0  0
  5  8  1  0  0  0  0
  6  5  2  0  0  0  0
  7  2  2  0  0  0  0
  7  6  1  0  0  0  0
  8 36  1  0  0  0  0
  8  9  1  0  0  0  0
  9 11  1  0  0  0  0
 10  9  2  0  0  0  0
 11 37  1  6  0  0  0
 11 12  1  0  0  0  0
 11 21  1  0  0  0  0
 12 39  1  0  0  0  0
 12 13  1  0  0  0  0
 13 14  2  0  0  0  0
 13 15  1  0  0  0  0
 15 40  1  0  0  0  0
 16 15  1  0  0  0  0
 16 17  1  0  0  0  0
 18 17  2  0  0  0  0
 18 23  1  0  0  0  0
 19 18  1  0  0  0  0
 20 21  1  0  0  0  0
 20 19  2  0  0  0  0
 21 16  2  0  0  0  0
 22 20  1  0  0  0  0
 23 28  1  0  0  0  0
 24 23  1  0  0  0  0
 24 43  1  0  0  0  0
 24 25  1  0  0  0  0
 25 26  1  0  0  0  0
 25 44  1  0  0  0  0
 26 46  1  1  0  0  0
 26 27  1  0  0  0  0
 27 28  1  0  0  0  0
 27 48  1  0  0  0  0
 28 50  1  0  0  0  0
 28 49  1  0  0  0  0
 29 26  1  0  0  0  0
 30 29  2  0  0  0  0
 31 29  1  0  0  0  0
 31 52  1  0  0  0  0
 34  6  1  0  0  0  0
 35  7  1  0  0  0  0
 38 12  1  0  0  0  0
 41 22  1  0  0  0  0
 42 24  1  0  0  0  0
 45 25  1  0  0  0  0
 47 27  1  0  0  0  0
 51 31  1  0  0  0  0
M  END
>  <Pose>
1

>  <Score>
-7.68

$$$$
