
 OpenBabel03222201593D

 47 50  0  0  1  0  0  0  0  0999 V2000
  -22.0910   -1.8330  -35.3060 B   0  0  0  0  0  0  0  0  0  0  0  0
  -21.6180   -2.5390  -33.5900 C   0  0  0  0  0  0  0  0  0  0  0  0
  -20.6670   -1.9250  -32.8020 C   0  0  0  0  0  0  0  0  0  0  0  0
  -20.3110   -2.4220  -31.5570 C   0  0  0  0  0  0  0  0  0  0  0  0
  -20.9080   -3.5620  -31.0610 C   0  0  0  0  0  0  0  0  0  0  0  0
  -21.8600   -4.1700  -31.8550 C   0  0  0  0  0  0  0  0  0  0  0  0
  -22.2150   -3.6790  -33.0940 C   0  0  0  0  0  0  0  0  0  0  0  0
  -20.5360   -4.0680  -29.7770 N   0  0  0  0  0  0  0  0  0  0  0  0
  -20.4520   -5.3290  -29.3890 N   0  0  0  0  0  0  0  0  0  0  0  0
  -20.0750   -5.4220  -28.1250 N   0  0  0  0  0  0  0  0  0  0  0  0
  -19.8940   -4.1670  -27.6320 C   0  0  0  0  0  0  0  0  0  0  0  0
  -20.1930   -3.3390  -28.7000 C   0  0  0  0  0  0  0  0  0  0  0  0
  -20.0960   -2.0210  -28.4930 N   0  0  0  0  0  0  0  0  0  0  0  0
  -19.7240   -1.5370  -27.2950 C   0  0  0  0  0  0  0  0  0  0  0  0
  -19.4300   -2.3400  -26.2460 N   0  0  0  0  0  0  0  0  0  0  0  0
  -19.5130   -3.6650  -26.4110 C   0  0  0  0  0  0  0  0  0  0  0  0
  -19.2420   -4.4100  -25.4430 O   0  0  0  0  0  0  0  0  0  0  0  0
  -19.0360   -1.7230  -24.9930 C   0  0  0  0  0  0  0  0  0  0  0  0
  -17.7670   -0.9310  -25.1800 C   0  0  0  0  0  0  0  0  0  0  0  0
  -16.6720   -1.5150  -25.3960 O   0  0  0  0  0  0  0  0  0  0  0  0
  -17.7790    0.4820  -25.1170 N   0  0  0  0  0  0  0  0  0  0  0  0
  -18.1890    1.2800  -26.2480 C   0  0  0  0  0  0  0  0  0  0  0  0
  -17.1780    2.4060  -26.3830 C   0  0  2  0  0  0  0  0  0  0  0  0
  -17.0260    3.1470  -25.2400 O   0  0  0  0  0  0  0  0  0  0  0  0
  -17.6490    2.6340  -24.1300 C   0  0  1  0  0  0  0  0  0  0  0  0
  -17.3750    1.1600  -23.9080 C   0  0  0  0  0  0  0  0  0  0  0  0
  -17.3560    3.3970  -22.8720 C   0  0  0  0  0  0  0  0  0  0  0  0
  -17.7310    3.3470  -27.4590 C   0  0  0  0  0  0  0  0  0  0  0  0
  -20.1970   -1.0360  -33.1830 H   0  0  0  0  0  0  0  0  0  0  0  0
  -19.5660   -1.9360  -30.9480 H   0  0  0  0  0  0  0  0  0  0  0  0
  -22.3420   -5.0630  -31.4940 H   0  0  0  0  0  0  0  0  0  0  0  0
  -22.9670   -4.1610  -33.7190 H   0  0  0  0  0  0  0  0  0  0  0  0
  -19.6520   -0.4510  -27.1560 H   0  0  0  0  0  0  0  0  0  0  0  0
  -19.8080   -1.0220  -24.6240 H   0  0  0  0  0  0  0  0  0  0  0  0
  -18.7900   -2.4970  -24.2380 H   0  0  0  0  0  0  0  0  0  0  0  0
  -19.2170    1.6810  -26.1270 H   0  0  0  0  0  0  0  0  0  0  0  0
  -18.1570    0.6330  -27.1390 H   0  0  0  0  0  0  0  0  0  0  0  0
  -16.2300    1.9600  -26.7650 H   0  0  0  0  0  0  0  0  0  0  0  0
  -18.7620    2.7080  -24.3040 H   0  0  0  0  0  0  0  0  0  0  0  0
  -17.9670    0.8460  -23.0290 H   0  0  0  0  0  0  0  0  0  0  0  0
  -16.3050    0.9470  -23.7430 H   0  0  0  0  0  0  0  0  0  0  0  0
  -18.2470    3.3830  -22.2090 H   0  0  0  0  0  0  0  0  0  0  0  0
  -16.5180    2.9450  -22.2850 H   0  0  0  0  0  0  0  0  0  0  0  0
  -17.1500    4.4740  -23.0930 H   0  0  0  0  0  0  0  0  0  0  0  0
  -18.2330    2.7040  -28.2040 H   0  0  0  0  0  0  0  0  0  0  0  0
  -18.4670    4.0440  -27.0500 H   0  0  0  0  0  0  0  0  0  0  0  0
  -16.8860    3.8670  -27.9830 H   0  0  0  0  0  0  0  0  0  0  0  0
  1  2  1  0  0  0  0
  2  7  2  0  0  0  0
  2  3  1  0  0  0  0
  3  4  2  0  0  0  0
  4  5  1  0  0  0  0
  4 30  1  0  0  0  0
  5  8  1  0  0  0  0
  6 31  1  0  0  0  0
  6  5  2  0  0  0  0
  7  6  1  0  0  0  0
  8  9  1  0  0  0  0
  8 12  1  0  0  0  0
  9 10  2  0  0  0  0
 10 11  1  0  0  0  0
 11 16  1  0  0  0  0
 12 13  1  0  0  0  0
 12 11  2  0  0  0  0
 13 14  2  0  0  0  0
 14 33  1  0  0  0  0
 14 15  1  0  0  0  0
 15 18  1  0  0  0  0
 16 15  1  0  0  0  0
 16 17  2  0  0  0  0
 18 34  1  0  0  0  0
 18 35  1  0  0  0  0
 19 21  1  0  0  0  0
 19 18  1  0  0  0  0
 20 19  2  0  0  0  0
 21 26  1  0  0  0  0
 22 36  1  0  0  0  0
 22 21  1  0  0  0  0
 23 38  1  6  0  0  0
 23 22  1  0  0  0  0
 23 24  1  0  0  0  0
 24 25  1  0  0  0  0
 25 39  1  6  0  0  0
 25 26  1  0  0  0  0
 25 27  1  0  0  0  0
 26 41  1  0  0  0  0
 26 40  1  0  0  0  0
 27 43  1  0  0  0  0
 27 42  1  0  0  0  0
 28 46  1  0  0  0  0
 28 23  1  0  0  0  0
 29  3  1  0  0  0  0
 32  7  1  0  0  0  0
 37 22  1  0  0  0  0
 44 27  1  0  0  0  0
 45 28  1  0  0  0  0
 47 28  1  0  0  0  0
M  END
>  <Pose>
1

>  <Score>
-7.50

$$$$
