
 OpenBabel03222201593D

 56 58  0  0  1  0  0  0  0  0999 V2000
  -22.2660   -1.1780  -39.9550 B   0  0  0  0  0  0  0  0  0  0  0  0
  -21.6710   -0.7060  -38.2000 C   0  0  0  0  0  0  0  0  0  0  0  0
  -20.4180   -0.1870  -37.9670 C   0  0  0  0  0  0  0  0  0  0  0  0
  -19.9890    0.1560  -36.6790 C   0  0  0  0  0  0  0  0  0  0  0  0
  -20.8120   -0.0160  -35.5980 C   0  0  0  0  0  0  0  0  0  0  0  0
  -22.0630   -0.5360  -35.8420 C   0  0  0  0  0  0  0  0  0  0  0  0
  -22.4990   -0.8780  -37.1120 C   0  0  0  0  0  0  0  0  0  0  0  0
  -20.3560    0.3390  -34.2900 N   0  0  0  0  0  0  0  0  0  0  0  0
  -21.1620    0.5160  -33.1200 C   0  0  0  0  0  0  0  0  0  0  0  0
  -22.3730    0.8390  -33.0650 O   0  0  0  0  0  0  0  0  0  0  0  0
  -20.3050    0.2460  -31.9370 C   0  0  2  0  0  0  0  0  0  0  0  0
  -18.8770    0.2130  -32.4350 C   0  0  0  0  0  0  0  0  0  0  0  0
  -19.0230    0.5940  -33.8650 C   0  0  0  0  0  0  0  0  0  0  0  0
  -18.1040    1.0770  -34.6170 O   0  0  0  0  0  0  0  0  0  0  0  0
  -20.7240   -0.9410  -31.3090 N   0  0  2  0  0  0  0  0  0  0  0  0
  -21.3350   -0.8750  -30.0440 C   0  0  0  0  0  0  0  0  0  0  0  0
  -21.5620   -2.3050  -29.5340 C   0  0  0  0  0  0  0  0  0  0  0  0
  -20.2480   -2.9950  -29.2420 C   0  0  1  0  0  0  0  0  0  0  0  0
  -19.2710   -2.6670  -30.2970 C   0  0  0  0  0  0  0  0  0  0  0  0
  -19.9320   -2.0920  -31.5240 C   0  0  0  0  0  0  0  0  0  0  0  0
  -19.8770   -2.7030  -27.9190 N   0  0  0  0  0  0  0  0  0  0  0  0
  -19.7350   -1.3610  -27.5370 C   0  0  0  0  0  0  0  0  0  0  0  0
  -18.3190   -1.2130  -26.9540 C   0  0  0  0  0  0  0  0  0  0  0  0
  -18.3040   -2.0550  -25.6950 C   0  0  0  0  0  0  0  0  0  0  0  0
  -19.4280   -3.0340  -25.6200 C   0  0  0  0  0  0  0  0  0  0  0  0
  -19.7320   -3.6980  -26.9710 C   0  0  0  0  0  0  0  0  0  0  0  0
  -20.5480   -4.4690  -29.3180 C   0  0  0  0  0  0  0  0  0  0  0  0
  -20.7460   -5.0150  -30.4450 O   0  0  0  0  0  0  0  0  0  0  0  0
  -20.6220   -5.2980  -28.1730 N   0  0  0  0  0  0  0  0  0  0  0  0
  -19.7800   -0.0570  -38.8190 H   0  0  0  0  0  0  0  0  0  0  0  0
  -18.9870    0.5580  -36.5760 H   0  0  0  0  0  0  0  0  0  0  0  0
  -22.7320   -0.6850  -35.0130 H   0  0  0  0  0  0  0  0  0  0  0  0
  -23.4960   -1.2900  -37.2820 H   0  0  0  0  0  0  0  0  0  0  0  0
  -20.3920    1.1560  -31.2840 H   0  0  0  0  0  0  0  0  0  0  0  0
  -18.4350   -0.8050  -32.4260 H   0  0  0  0  0  0  0  0  0  0  0  0
  -18.2500    0.9730  -31.9530 H   0  0  0  0  0  0  0  0  0  0  0  0
  -20.6550   -0.3610  -29.3190 H   0  0  0  0  0  0  0  0  0  0  0  0
  -22.3550   -0.4130  -30.0280 H   0  0  0  0  0  0  0  0  0  0  0  0
  -21.9990   -2.8430  -30.4180 H   0  0  0  0  0  0  0  0  0  0  0  0
  -22.2650   -2.3160  -28.7050 H   0  0  0  0  0  0  0  0  0  0  0  0
  -18.7970   -3.6320  -30.6540 H   0  0  0  0  0  0  0  0  0  0  0  0
  -18.3990   -2.0730  -29.9630 H   0  0  0  0  0  0  0  0  0  0  0  0
  -19.1750   -1.9600  -32.3520 H   0  0  0  0  0  0  0  0  0  0  0  0
  -20.6260   -2.8770  -31.9620 H   0  0  0  0  0  0  0  0  0  0  0  0
  -19.8340   -0.6880  -28.3910 H   0  0  0  0  0  0  0  0  0  0  0  0
  -20.4460   -1.1350  -26.7150 H   0  0  0  0  0  0  0  0  0  0  0  0
  -17.5670   -1.6440  -27.6640 H   0  0  0  0  0  0  0  0  0  0  0  0
  -18.1130   -0.1480  -26.7650 H   0  0  0  0  0  0  0  0  0  0  0  0
  -17.3090   -2.5150  -25.5170 H   0  0  0  0  0  0  0  0  0  0  0  0
  -18.4300   -1.3230  -24.8480 H   0  0  0  0  0  0  0  0  0  0  0  0
  -19.1110   -3.8680  -24.9360 H   0  0  0  0  0  0  0  0  0  0  0  0
  -20.3700   -2.6030  -25.1970 H   0  0  0  0  0  0  0  0  0  0  0  0
  -20.5730   -4.3770  -26.7900 H   0  0  0  0  0  0  0  0  0  0  0  0
  -18.8530   -4.3440  -27.2000 H   0  0  0  0  0  0  0  0  0  0  0  0
  -20.0190   -5.1050  -27.3650 H   0  0  0  0  0  0  0  0  0  0  0  0
  -21.2800   -6.1000  -28.1370 H   0  0  0  0  0  0  0  0  0  0  0  0
  1  2  1  0  0  0  0
  2  3  2  0  0  0  0
  2  7  1  0  0  0  0
  3  4  1  0  0  0  0
  4 31  1  0  0  0  0
  4  5  2  0  0  0  0
  5  8  1  0  0  0  0
  6  5  1  0  0  0  0
  6 32  1  0  0  0  0
  7  6  2  0  0  0  0
  8 13  1  0  0  0  0
  8  9  1  0  0  0  0
  9 10  2  0  0  0  0
  9 11  1  0  0  0  0
 11 15  1  0  0  0  0
 11 34  1  1  0  0  0
 12 35  1  0  0  0  0
 12 36  1  0  0  0  0
 12 11  1  0  0  0  0
 13 12  1  0  0  0  0
 14 13  2  0  0  0  0
 15 20  1  1  0  0  0
 15 16  1  0  0  0  0
 16 38  1  0  0  0  0
 16 17  1  0  0  0  0
 16 37  1  0  0  0  0
 17 18  1  0  0  0  0
 17 40  1  0  0  0  0
 18 27  1  6  0  0  0
 18 21  1  0  0  0  0
 19 42  1  0  0  0  0
 19 18  1  0  0  0  0
 20 19  1  0  0  0  0
 21 22  1  0  0  0  0
 21 26  1  0  0  0  0
 22 23  1  0  0  0  0
 22 46  1  0  0  0  0
 23 48  1  0  0  0  0
 23 24  1  0  0  0  0
 24 25  1  0  0  0  0
 24 49  1  0  0  0  0
 24 50  1  0  0  0  0
 25 52  1  0  0  0  0
 25 51  1  0  0  0  0
 26 53  1  0  0  0  0
 27 29  1  0  0  0  0
 28 27  2  0  0  0  0
 29 56  1  0  0  0  0
 29 55  1  0  0  0  0
 30  3  1  0  0  0  0
 33  7  1  0  0  0  0
 39 17  1  0  0  0  0
 41 19  1  0  0  0  0
 43 20  1  0  0  0  0
 44 20  1  0  0  0  0
 45 22  1  0  0  0  0
 47 23  1  0  0  0  0
 54 26  1  0  0  0  0
M  END
>  <Pose>
1

>  <Score>
-4.90

$$$$
