
 OpenBabel03222201593D

 44 47  0  0  0  0  0  0  0  0999 V2000
  -19.4590   -2.9600  -25.7210 B   0  0  0  0  0  0  0  0  0  0  0  0
  -19.4690   -2.3000  -27.5240 C   0  0  0  0  0  0  0  0  0  0  0  0
  -20.0520   -3.0220  -28.5430 C   0  0  0  0  0  0  0  0  0  0  0  0
  -20.0610   -2.5500  -29.8410 C   0  0  0  0  0  0  0  0  0  0  0  0
  -19.4850   -1.3350  -30.1730 C   0  0  0  0  0  0  0  0  0  0  0  0
  -18.9070   -0.6280  -29.1390 C   0  0  0  0  0  0  0  0  0  0  0  0
  -18.8940   -1.0900  -27.8430 C   0  0  0  0  0  0  0  0  0  0  0  0
  -19.5070   -0.8680  -31.5190 N   0  0  0  0  0  0  0  0  0  0  0  0
  -20.5230   -0.2640  -32.1590 C   0  0  0  0  0  0  0  0  0  0  0  0
  -21.6470   -0.0200  -31.6220 O   0  0  0  0  0  0  0  0  0  0  0  0
  -20.1720    0.0500  -33.4720 C   0  0  0  0  0  0  0  0  0  0  0  0
  -18.9200   -0.3760  -33.6150 C   0  0  0  0  0  0  0  0  0  0  0  0
  -18.6030   -0.0640  -34.8840 N   0  0  0  0  0  0  0  0  0  0  0  0
  -19.6250    0.5280  -35.4810 N   0  0  0  0  0  0  0  0  0  0  0  0
  -20.6040    0.6040  -34.6120 N   0  0  0  0  0  0  0  0  0  0  0  0
  -21.9120    1.1710  -34.8170 C   0  0  0  0  0  0  0  0  0  0  0  0
  -22.7080    0.3910  -35.8240 C   0  0  0  0  0  0  0  0  0  0  0  0
  -23.8850    0.1400  -35.4710 O   0  0  0  0  0  0  0  0  0  0  0  0
  -22.1760   -0.0180  -37.0490 N   0  0  0  0  0  0  0  0  0  0  0  0
  -22.6340   -1.0570  -37.8680 C   0  0  0  0  0  0  0  0  0  0  0  0
  -22.0980   -1.1370  -39.1630 C   0  0  0  0  0  0  0  0  0  0  0  0
  -22.5180   -2.1400  -40.0000 C   0  0  0  0  0  0  0  0  0  0  0  0
  -23.4500   -3.0850  -39.6270 C   0  0  0  0  0  0  0  0  0  0  0  0
  -23.9760   -3.0140  -38.3710 C   0  0  0  0  0  0  0  0  0  0  0  0
  -23.5610   -2.0090  -37.5210 C   0  0  0  0  0  0  0  0  0  0  0  0
  -21.0950   -0.1660  -39.6420 C   0  0  0  0  0  0  0  0  0  0  0  0
  -18.5050   -0.9390  -32.4250 C   0  0  0  0  0  0  0  0  0  0  0  0
  -17.3890   -1.4470  -32.1790 O   0  0  0  0  0  0  0  0  0  0  0  0
  -20.5160   -3.9810  -28.3270 H   0  0  0  0  0  0  0  0  0  0  0  0
  -20.5220   -3.1160  -30.6540 H   0  0  0  0  0  0  0  0  0  0  0  0
  -18.4520    0.3200  -29.3670 H   0  0  0  0  0  0  0  0  0  0  0  0
  -18.4400   -0.5400  -27.0170 H   0  0  0  0  0  0  0  0  0  0  0  0
  -17.6560   -0.2880  -35.2810 H   0  0  0  0  0  0  0  0  0  0  0  0
  -19.5950    0.8550  -36.4740 H   0  0  0  0  0  0  0  0  0  0  0  0
  -22.5180    1.1190  -33.8710 H   0  0  0  0  0  0  0  0  0  0  0  0
  -21.7730    2.2240  -35.1460 H   0  0  0  0  0  0  0  0  0  0  0  0
  -21.3210    0.5480  -37.3720 H   0  0  0  0  0  0  0  0  0  0  0  0
  -22.1230   -2.2380  -41.0200 H   0  0  0  0  0  0  0  0  0  0  0  0
  -23.7770   -3.8800  -40.3030 H   0  0  0  0  0  0  0  0  0  0  0  0
  -24.7180   -3.7550  -38.0580 H   0  0  0  0  0  0  0  0  0  0  0  0
  -24.0060   -2.0010  -36.5490 H   0  0  0  0  0  0  0  0  0  0  0  0
  -20.9720   -0.2660  -40.7380 H   0  0  0  0  0  0  0  0  0  0  0  0
  -21.4540    0.8790  -39.4720 H   0  0  0  0  0  0  0  0  0  0  0  0
  -20.1000   -0.2930  -39.1870 H   0  0  0  0  0  0  0  0  0  0  0  0
  2  1  1  0  0  0  0
  3 29  1  0  0  0  0
  3  2  2  0  0  0  0
  4  3  1  0  0  0  0
  5  4  2  0  0  0  0
  5  6  1  0  0  0  0
  6  7  2  0  0  0  0
  7  2  1  0  0  0  0
  7 32  1  0  0  0  0
  8  5  1  0  0  0  0
  9 10  2  0  0  0  0
  9  8  1  0  0  0  0
 11  9  1  0  0  0  0
 12 11  2  0  0  0  0
 12 27  1  0  0  0  0
 13 12  1  0  0  0  0
 14 13  1  0  0  0  0
 14 15  1  0  0  0  0
 15 11  1  0  0  0  0
 16 15  1  0  0  0  0
 16 35  1  0  0  0  0
 17 18  2  0  0  0  0
 17 16  1  0  0  0  0
 19 17  1  0  0  0  0
 20 25  1  0  0  0  0
 20 19  1  0  0  0  0
 21 20  2  0  0  0  0
 22 23  2  0  0  0  0
 22 21  1  0  0  0  0
 23 24  1  0  0  0  0
 24 40  1  0  0  0  0
 24 25  2  0  0  0  0
 25 41  1  0  0  0  0
 26 43  1  0  0  0  0
 26 44  1  0  0  0  0
 26 21  1  0  0  0  0
 27 28  2  0  0  0  0
 27  8  1  0  0  0  0
 30  4  1  0  0  0  0
 31  6  1  0  0  0  0
 33 13  1  0  0  0  0
 34 14  1  0  0  0  0
 36 16  1  0  0  0  0
 37 19  1  0  0  0  0
 38 22  1  0  0  0  0
 39 23  1  0  0  0  0
 42 26  1  0  0  0  0
M  END
>  <Pose>
1

>  <Score>
-7.13

$$$$
