
 OpenBabel03222201593D

 49 52  0  0  0  0  0  0  0  0999 V2000
  -21.8070   -5.3290  -32.0000 B   0  0  0  0  0  0  0  0  0  0  0  0
  -21.0040   -4.2500  -30.6370 C   0  0  0  0  0  0  0  0  0  0  0  0
  -20.5450   -2.9760  -30.9080 C   0  0  0  0  0  0  0  0  0  0  0  0
  -19.9630   -2.1960  -29.9130 C   0  0  0  0  0  0  0  0  0  0  0  0
  -19.8200   -2.6640  -28.6230 C   0  0  0  0  0  0  0  0  0  0  0  0
  -20.2780   -3.9360  -28.3590 C   0  0  0  0  0  0  0  0  0  0  0  0
  -20.8570   -4.7100  -29.3440 C   0  0  0  0  0  0  0  0  0  0  0  0
  -19.2290   -1.8950  -27.5820 N   0  0  0  0  0  0  0  0  0  0  0  0
  -18.7450   -0.6430  -27.6000 C   0  0  0  0  0  0  0  0  0  0  0  0
  -18.7560    0.0700  -28.6360 O   0  0  0  0  0  0  0  0  0  0  0  0
  -18.2570   -0.2770  -26.3570 C   0  0  0  0  0  0  0  0  0  0  0  0
  -18.4480   -1.3270  -25.5690 C   0  0  0  0  0  0  0  0  0  0  0  0
  -17.9740   -0.9730  -24.3650 N   0  0  0  0  0  0  0  0  0  0  0  0
  -17.5060    0.2620  -24.4160 N   0  0  0  0  0  0  0  0  0  0  0  0
  -17.6710    0.7080  -25.6330 N   0  0  0  0  0  0  0  0  0  0  0  0
  -17.3090    2.0040  -26.1540 C   0  0  0  0  0  0  0  0  0  0  0  0
  -17.1880    2.9820  -25.0080 C   0  0  0  0  0  0  0  0  0  0  0  0
  -18.2230    3.5140  -24.5480 O   0  0  0  0  0  0  0  0  0  0  0  0
  -15.9280    3.2840  -24.4710 N   0  0  0  0  0  0  0  0  0  0  0  0
  -15.5930    3.2900  -23.1030 C   0  0  0  0  0  0  0  0  0  0  0  0
  -16.4050    2.8860  -22.0730 C   0  0  0  0  0  0  0  0  0  0  0  0
  -16.0220    2.9330  -20.7480 C   0  0  0  0  0  0  0  0  0  0  0  0
  -14.7620    3.4100  -20.4540 C   0  0  0  0  0  0  0  0  0  0  0  0
  -13.9120    3.8280  -21.4650 C   0  0  0  0  0  0  0  0  0  0  0  0
  -14.3120    3.7730  -22.7720 C   0  0  0  0  0  0  0  0  0  0  0  0
  -14.3570    3.4660  -19.1230 O   0  0  0  0  0  0  0  0  0  0  0  0
  -13.4150    2.5240  -18.6500 C   0  0  0  0  0  0  0  0  0  0  0  0
  -16.8690    2.5160  -19.7240 O   0  0  0  0  0  0  0  0  0  0  0  0
  -17.9240    3.4030  -19.3320 C   0  0  0  0  0  0  0  0  0  0  0  0
  -19.0440   -2.3240  -26.3140 C   0  0  0  0  0  0  0  0  0  0  0  0
  -19.3720   -3.4770  -25.8750 O   0  0  0  0  0  0  0  0  0  0  0  0
  -20.6620   -2.6140  -31.9280 H   0  0  0  0  0  0  0  0  0  0  0  0
  -19.6080   -1.2040  -30.1340 H   0  0  0  0  0  0  0  0  0  0  0  0
  -20.1630   -4.2980  -27.3400 H   0  0  0  0  0  0  0  0  0  0  0  0
  -21.2120   -5.7160  -29.1040 H   0  0  0  0  0  0  0  0  0  0  0  0
  -17.9600   -1.5520  -23.5020 H   0  0  0  0  0  0  0  0  0  0  0  0
  -17.0680    0.8180  -23.6230 H   0  0  0  0  0  0  0  0  0  0  0  0
  -18.0710    2.4150  -26.8560 H   0  0  0  0  0  0  0  0  0  0  0  0
  -16.3220    1.9810  -26.6420 H   0  0  0  0  0  0  0  0  0  0  0  0
  -15.1540    3.5270  -25.1720 H   0  0  0  0  0  0  0  0  0  0  0  0
  -17.3940    2.5000  -22.2770 H   0  0  0  0  0  0  0  0  0  0  0  0
  -12.9220    4.2010  -21.1960 H   0  0  0  0  0  0  0  0  0  0  0  0
  -13.6240    4.1100  -23.5670 H   0  0  0  0  0  0  0  0  0  0  0  0
  -12.5380    2.5860  -19.3370 H   0  0  0  0  0  0  0  0  0  0  0  0
  -13.8440    1.5150  -18.7080 H   0  0  0  0  0  0  0  0  0  0  0  0
  -13.1070    2.8090  -17.6170 H   0  0  0  0  0  0  0  0  0  0  0  0
  -18.6520    3.5270  -20.1810 H   0  0  0  0  0  0  0  0  0  0  0  0
  -18.4550    3.0100  -18.4430 H   0  0  0  0  0  0  0  0  0  0  0  0
  -17.5140    4.4040  -19.0840 H   0  0  0  0  0  0  0  0  0  0  0  0
  1  2  1  0  0  0  0
  2  7  1  0  0  0  0
  3  2  2  0  0  0  0
  3  4  1  0  0  0  0
  4  5  2  0  0  0  0
  5  6  1  0  0  0  0
  5  8  1  0  0  0  0
  6 34  1  0  0  0  0
  7 35  1  0  0  0  0
  7  6  2  0  0  0  0
  8 30  1  0  0  0  0
  9  8  1  0  0  0  0
  9 11  1  0  0  0  0
 10  9  2  0  0  0  0
 11 15  1  0  0  0  0
 11 12  2  0  0  0  0
 12 13  1  0  0  0  0
 13 36  1  0  0  0  0
 14 13  1  0  0  0  0
 14 37  1  0  0  0  0
 15 14  1  0  0  0  0
 16 15  1  0  0  0  0
 16 17  1  0  0  0  0
 17 18  2  0  0  0  0
 17 19  1  0  0  0  0
 19 20  1  0  0  0  0
 20 25  2  0  0  0  0
 20 21  1  0  0  0  0
 21 22  2  0  0  0  0
 22 23  1  0  0  0  0
 22 28  1  0  0  0  0
 23 26  1  0  0  0  0
 24 42  1  0  0  0  0
 24 23  2  0  0  0  0
 25 24  1  0  0  0  0
 26 27  1  0  0  0  0
 27 46  1  0  0  0  0
 28 29  1  0  0  0  0
 29 49  1  0  0  0  0
 29 48  1  0  0  0  0
 30 31  2  0  0  0  0
 30 12  1  0  0  0  0
 32  3  1  0  0  0  0
 33  4  1  0  0  0  0
 38 16  1  0  0  0  0
 39 16  1  0  0  0  0
 40 19  1  0  0  0  0
 41 21  1  0  0  0  0
 43 25  1  0  0  0  0
 44 27  1  0  0  0  0
 45 27  1  0  0  0  0
 47 29  1  0  0  0  0
M  END
>  <Pose>
1

>  <Score>
-7.52

$$$$
