
 OpenBabel03222201593D

 49 52  0  0  0  0  0  0  0  0999 V2000
  -17.5740    8.2800  -28.3830 B   0  0  0  0  0  0  0  0  0  0  0  0
  -17.6630    6.4710  -27.7220 C   0  0  0  0  0  0  0  0  0  0  0  0
  -18.5820    6.1080  -26.7670 C   0  0  0  0  0  0  0  0  0  0  0  0
  -18.6430    4.7910  -26.2850 C   0  0  0  0  0  0  0  0  0  0  0  0
  -17.7810    3.8330  -26.7610 C   0  0  0  0  0  0  0  0  0  0  0  0
  -16.8700    4.2220  -27.7190 C   0  0  0  0  0  0  0  0  0  0  0  0
  -16.8010    5.5090  -28.1960 C   0  0  0  0  0  0  0  0  0  0  0  0
  -17.8360    2.4900  -26.2730 N   0  0  0  0  0  0  0  0  0  0  0  0
  -18.0180    1.3440  -26.9340 C   0  0  0  0  0  0  0  0  0  0  0  0
  -18.1890    1.2660  -28.1960 O   0  0  0  0  0  0  0  0  0  0  0  0
  -18.0070    0.2340  -26.1200 C   0  0  0  0  0  0  0  0  0  0  0  0
  -17.8050    0.7360  -24.8870 C   0  0  0  0  0  0  0  0  0  0  0  0
  -17.7890   -0.3400  -24.0630 N   0  0  0  0  0  0  0  0  0  0  0  0
  -17.9720   -1.4480  -24.7590 N   0  0  0  0  0  0  0  0  0  0  0  0
  -18.1050   -1.1010  -26.0230 N   0  0  0  0  0  0  0  0  0  0  0  0
  -18.3180   -2.0190  -27.1040 C   0  0  0  0  0  0  0  0  0  0  0  0
  -19.7160   -2.1410  -27.5080 C   0  0  0  0  0  0  0  0  0  0  0  0
  -20.5870   -1.2700  -27.2180 O   0  0  0  0  0  0  0  0  0  0  0  0
  -20.0990   -3.2840  -28.2460 N   0  0  0  0  0  0  0  0  0  0  0  0
  -20.2850   -3.1650  -29.6470 C   0  0  0  0  0  0  0  0  0  0  0  0
  -19.7180   -2.0700  -30.2500 C   0  0  0  0  0  0  0  0  0  0  0  0
  -19.8810   -1.8640  -31.6250 C   0  0  0  0  0  0  0  0  0  0  0  0
  -20.6080   -2.7570  -32.3670 C   0  0  0  0  0  0  0  0  0  0  0  0
  -21.1890   -3.8730  -31.7690 C   0  0  0  0  0  0  0  0  0  0  0  0
  -21.0080   -4.0490  -30.4060 C   0  0  0  0  0  0  0  0  0  0  0  0
  -21.9100   -4.7260  -32.5770 O   0  0  0  0  0  0  0  0  0  0  0  0
  -22.2310   -6.0580  -32.3210 C   0  0  0  0  0  0  0  0  0  0  0  0
  -19.2690   -0.7380  -32.1230 O   0  0  0  0  0  0  0  0  0  0  0  0
  -17.9190   -0.6350  -32.3940 C   0  0  0  0  0  0  0  0  0  0  0  0
  -17.7000    2.1050  -24.9660 C   0  0  0  0  0  0  0  0  0  0  0  0
  -17.5100    2.9290  -24.0380 O   0  0  0  0  0  0  0  0  0  0  0  0
  -19.2610    6.8540  -26.3900 H   0  0  0  0  0  0  0  0  0  0  0  0
  -19.3720    4.5310  -25.5300 H   0  0  0  0  0  0  0  0  0  0  0  0
  -16.1950    3.4430  -28.0790 H   0  0  0  0  0  0  0  0  0  0  0  0
  -16.0780    5.8020  -28.9530 H   0  0  0  0  0  0  0  0  0  0  0  0
  -17.6530   -0.2740  -23.0270 H   0  0  0  0  0  0  0  0  0  0  0  0
  -17.9980   -2.4060  -24.3190 H   0  0  0  0  0  0  0  0  0  0  0  0
  -17.7110   -1.7480  -28.0080 H   0  0  0  0  0  0  0  0  0  0  0  0
  -17.9560   -3.0570  -26.8470 H   0  0  0  0  0  0  0  0  0  0  0  0
  -20.2490   -4.2200  -27.7580 H   0  0  0  0  0  0  0  0  0  0  0  0
  -19.1370   -1.3580  -29.6500 H   0  0  0  0  0  0  0  0  0  0  0  0
  -20.7180   -2.5770  -33.4280 H   0  0  0  0  0  0  0  0  0  0  0  0
  -21.4550   -4.9180  -29.9370 H   0  0  0  0  0  0  0  0  0  0  0  0
  -22.2790   -6.6280  -33.2770 H   0  0  0  0  0  0  0  0  0  0  0  0
  -23.2710   -6.1560  -31.8880 H   0  0  0  0  0  0  0  0  0  0  0  0
  -21.5240   -6.5780  -31.6490 H   0  0  0  0  0  0  0  0  0  0  0  0
  -17.7620   -0.0420  -33.3270 H   0  0  0  0  0  0  0  0  0  0  0  0
  -17.4140   -1.5910  -32.5110 H   0  0  0  0  0  0  0  0  0  0  0  0
  -17.4530   -0.0200  -31.5670 H   0  0  0  0  0  0  0  0  0  0  0  0
  1  2  1  0  0  0  0
  2  3  1  0  0  0  0
  3 32  1  0  0  0  0
  3  4  2  0  0  0  0
  4 33  1  0  0  0  0
  5  4  1  0  0  0  0
  5  8  1  0  0  0  0
  6  5  2  0  0  0  0
  7  2  2  0  0  0  0
  7  6  1  0  0  0  0
  8 30  1  0  0  0  0
  9  8  1  0  0  0  0
  9 11  1  0  0  0  0
 10  9  2  0  0  0  0
 11 15  1  0  0  0  0
 11 12  2  0  0  0  0
 12 13  1  0  0  0  0
 13 36  1  0  0  0  0
 14 37  1  0  0  0  0
 14 13  1  0  0  0  0
 15 14  1  0  0  0  0
 16 39  1  0  0  0  0
 16 15  1  0  0  0  0
 17 18  2  0  0  0  0
 17 16  1  0  0  0  0
 19 40  1  0  0  0  0
 19 17  1  0  0  0  0
 20 19  1  0  0  0  0
 21 41  1  0  0  0  0
 21 20  1  0  0  0  0
 22 21  2  0  0  0  0
 23 24  2  0  0  0  0
 23 22  1  0  0  0  0
 24 25  1  0  0  0  0
 25 43  1  0  0  0  0
 25 20  2  0  0  0  0
 26 27  1  0  0  0  0
 26 24  1  0  0  0  0
 27 45  1  0  0  0  0
 27 46  1  0  0  0  0
 28 22  1  0  0  0  0
 29 28  1  0  0  0  0
 29 49  1  0  0  0  0
 30 12  1  0  0  0  0
 30 31  2  0  0  0  0
 34  6  1  0  0  0  0
 35  7  1  0  0  0  0
 38 16  1  0  0  0  0
 42 23  1  0  0  0  0
 44 27  1  0  0  0  0
 47 29  1  0  0  0  0
 48 29  1  0  0  0  0
M  END
>  <Pose>
1

>  <Score>
-7.69

$$$$
