
 OpenBabel03222201593D

 48 51  0  0  0  0  0  0  0  0999 V2000
  -24.6730    7.1170  -41.0050 B   0  0  0  0  0  0  0  0  0  0  0  0
  -24.2680    5.2920  -40.6250 C   0  0  0  0  0  0  0  0  0  0  0  0
  -24.7590    4.2560  -41.3910 C   0  0  0  0  0  0  0  0  0  0  0  0
  -24.4530    2.9340  -41.1030 C   0  0  0  0  0  0  0  0  0  0  0  0
  -23.6440    2.5870  -40.0400 C   0  0  0  0  0  0  0  0  0  0  0  0
  -23.1500    3.6240  -39.2690 C   0  0  0  0  0  0  0  0  0  0  0  0
  -23.4550    4.9390  -39.5550 C   0  0  0  0  0  0  0  0  0  0  0  0
  -23.3010    1.2440  -39.7140 N   0  0  0  0  0  0  0  0  0  0  0  0
  -23.6860    0.5250  -38.6230 C   0  0  0  0  0  0  0  0  0  0  0  0
  -24.4340    0.9740  -37.7210 O   0  0  0  0  0  0  0  0  0  0  0  0
  -23.1460   -0.7430  -38.6520 C   0  0  0  0  0  0  0  0  0  0  0  0
  -22.4270   -0.8040  -39.7630 C   0  0  0  0  0  0  0  0  0  0  0  0
  -21.8840   -2.0340  -39.8180 N   0  0  0  0  0  0  0  0  0  0  0  0
  -22.2770   -2.7040  -38.7450 N   0  0  0  0  0  0  0  0  0  0  0  0
  -23.0560   -1.9380  -38.0040 N   0  0  0  0  0  0  0  0  0  0  0  0
  -23.6870   -2.2580  -36.7570 C   0  0  0  0  0  0  0  0  0  0  0  0
  -22.9630   -1.6960  -35.5570 C   0  0  0  0  0  0  0  0  0  0  0  0
  -23.4960   -0.6990  -35.0230 O   0  0  0  0  0  0  0  0  0  0  0  0
  -21.7820   -2.2590  -35.0780 N   0  0  0  0  0  0  0  0  0  0  0  0
  -21.5000   -2.8520  -33.8360 C   0  0  0  0  0  0  0  0  0  0  0  0
  -22.1430   -4.0320  -33.4630 C   0  0  0  0  0  0  0  0  0  0  0  0
  -21.9110   -4.6340  -32.2560 C   0  0  0  0  0  0  0  0  0  0  0  0
  -21.0110   -4.0720  -31.3500 C   0  0  0  0  0  0  0  0  0  0  0  0
  -20.3930   -2.9110  -31.7470 C   0  0  0  0  0  0  0  0  0  0  0  0
  -20.6200   -2.3030  -32.9590 C   0  0  0  0  0  0  0  0  0  0  0  0
  -20.8110   -4.7080  -30.1460 O   0  0  0  0  0  0  0  0  0  0  0  0
  -20.6280   -4.1070  -28.9050 C   0  0  0  0  0  0  0  0  0  0  0  0
  -20.3120   -5.0560  -27.8010 C   0  0  0  0  0  0  0  0  0  0  0  0
  -22.5210    0.4060  -40.4120 C   0  0  0  0  0  0  0  0  0  0  0  0
  -21.9660    0.7240  -41.5110 O   0  0  0  0  0  0  0  0  0  0  0  0
  -25.3970    4.5270  -42.2290 H   0  0  0  0  0  0  0  0  0  0  0  0
  -24.8380    2.1260  -41.7030 H   0  0  0  0  0  0  0  0  0  0  0  0
  -22.5150    3.3470  -38.4340 H   0  0  0  0  0  0  0  0  0  0  0  0
  -23.0560    5.7290  -38.9390 H   0  0  0  0  0  0  0  0  0  0  0  0
  -21.2680   -2.4240  -40.5520 H   0  0  0  0  0  0  0  0  0  0  0  0
  -22.0020   -3.7050  -38.5250 H   0  0  0  0  0  0  0  0  0  0  0  0
  -24.7300   -1.8420  -36.7350 H   0  0  0  0  0  0  0  0  0  0  0  0
  -23.7420   -3.3650  -36.5720 H   0  0  0  0  0  0  0  0  0  0  0  0
  -20.9510   -2.2360  -35.7670 H   0  0  0  0  0  0  0  0  0  0  0  0
  -22.8410   -4.4830  -34.1440 H   0  0  0  0  0  0  0  0  0  0  0  0
  -22.4340   -5.5630  -31.9930 H   0  0  0  0  0  0  0  0  0  0  0  0
  -19.6900   -2.4410  -31.0800 H   0  0  0  0  0  0  0  0  0  0  0  0
  -20.0880   -1.3770  -33.2160 H   0  0  0  0  0  0  0  0  0  0  0  0
  -19.7480   -3.4000  -28.9930 H   0  0  0  0  0  0  0  0  0  0  0  0
  -21.5020   -3.4880  -28.6090 H   0  0  0  0  0  0  0  0  0  0  0  0
  -19.2950   -4.9570  -27.3710 H   0  0  0  0  0  0  0  0  0  0  0  0
  -21.0070   -4.9000  -26.9420 H   0  0  0  0  0  0  0  0  0  0  0  0
  -20.4410   -6.1350  -28.0800 H   0  0  0  0  0  0  0  0  0  0  0  0
  1  2  1  0  0  0  0
  2  7  1  0  0  0  0
  3  4  1  0  0  0  0
  3  2  2  0  0  0  0
  4  5  2  0  0  0  0
  5  8  1  0  0  0  0
  5  6  1  0  0  0  0
  6 33  1  0  0  0  0
  7  6  2  0  0  0  0
  7 34  1  0  0  0  0
  8  9  1  0  0  0  0
  9 10  2  0  0  0  0
 11  9  1  0  0  0  0
 11 15  1  0  0  0  0
 12 11  2  0  0  0  0
 13 12  1  0  0  0  0
 13 14  1  0  0  0  0
 14 36  1  0  0  0  0
 14 15  1  0  0  0  0
 15 16  1  0  0  0  0
 16 37  1  0  0  0  0
 16 38  1  0  0  0  0
 16 17  1  0  0  0  0
 17 19  1  0  0  0  0
 17 18  2  0  0  0  0
 19 20  1  0  0  0  0
 20 21  2  0  0  0  0
 20 25  1  0  0  0  0
 21 22  1  0  0  0  0
 22 41  1  0  0  0  0
 22 23  2  0  0  0  0
 23 26  1  0  0  0  0
 24 23  1  0  0  0  0
 24 42  1  0  0  0  0
 25 24  2  0  0  0  0
 26 27  1  0  0  0  0
 27 45  1  0  0  0  0
 27 28  1  0  0  0  0
 28 46  1  0  0  0  0
 28 47  1  0  0  0  0
 29 12  1  0  0  0  0
 29  8  1  0  0  0  0
 30 29  2  0  0  0  0
 31  3  1  0  0  0  0
 32  4  1  0  0  0  0
 35 13  1  0  0  0  0
 39 19  1  0  0  0  0
 40 21  1  0  0  0  0
 43 25  1  0  0  0  0
 44 27  1  0  0  0  0
 48 28  1  0  0  0  0
M  END
>  <Pose>
1

>  <Score>
-7.74

$$$$
