
 OpenBabel03222201593D

 36 39  0  0  0  0  0  0  0  0999 V2000
  -17.9050    7.5110  -26.7420 B   0  0  0  0  0  0  0  0  0  0  0  0
  -18.0040    5.6060  -26.5830 C   0  0  0  0  0  0  0  0  0  0  0  0
  -17.6960    4.7740  -27.6400 C   0  0  0  0  0  0  0  0  0  0  0  0
  -17.7740    3.3900  -27.5100 C   0  0  0  0  0  0  0  0  0  0  0  0
  -18.1590    2.8060  -26.3220 C   0  0  0  0  0  0  0  0  0  0  0  0
  -18.4640    3.6500  -25.2740 C   0  0  0  0  0  0  0  0  0  0  0  0
  -18.3910    5.0250  -25.3930 C   0  0  0  0  0  0  0  0  0  0  0  0
  -18.2480    1.3850  -26.1550 N   0  0  0  0  0  0  0  0  0  0  0  0
  -18.7180    0.5060  -27.0680 C   0  0  0  0  0  0  0  0  0  0  0  0
  -19.1640    0.7610  -28.2320 O   0  0  0  0  0  0  0  0  0  0  0  0
  -18.6620   -0.7870  -26.5790 C   0  0  0  0  0  0  0  0  0  0  0  0
  -18.1490   -0.6720  -25.3520 C   0  0  0  0  0  0  0  0  0  0  0  0
  -18.0920   -1.9370  -24.8710 N   0  0  0  0  0  0  0  0  0  0  0  0
  -18.5590   -2.7600  -25.7950 N   0  0  0  0  0  0  0  0  0  0  0  0
  -18.9210   -2.0740  -26.8670 N   0  0  0  0  0  0  0  0  0  0  0  0
  -19.4730   -2.6040  -28.0790 C   0  0  0  0  0  0  0  0  0  0  0  0
  -19.1650   -2.0490  -29.3040 C   0  0  0  0  0  0  0  0  0  0  0  0
  -19.6830   -2.5410  -30.4950 C   0  0  0  0  0  0  0  0  0  0  0  0
  -20.5400   -3.6210  -30.4810 C   0  0  0  0  0  0  0  0  0  0  0  0
  -20.8500   -4.1770  -29.2580 C   0  0  0  0  0  0  0  0  0  0  0  0
  -20.3300   -3.6850  -28.0720 C   0  0  0  0  0  0  0  0  0  0  0  0
  -21.0880   -4.1480  -31.6860 N   0  0  0  0  0  0  0  0  0  0  0  0
  -20.8690   -5.3160  -32.0600 O   0  0  0  0  0  0  0  0  0  0  0  0
  -21.8760   -3.3560  -32.4590 O   0  0  0  0  0  0  0  0  0  0  0  0
  -17.8920    0.6560  -25.0840 C   0  0  0  0  0  0  0  0  0  0  0  0
  -17.4100    1.1570  -24.0370 O   0  0  0  0  0  0  0  0  0  0  0  0
  -17.3930    5.2450  -28.5730 H   0  0  0  0  0  0  0  0  0  0  0  0
  -17.5360    2.7450  -28.3240 H   0  0  0  0  0  0  0  0  0  0  0  0
  -18.7700    3.2030  -24.3270 H   0  0  0  0  0  0  0  0  0  0  0  0
  -18.6350    5.6820  -24.5530 H   0  0  0  0  0  0  0  0  0  0  0  0
  -17.7310   -2.1930  -23.9160 H   0  0  0  0  0  0  0  0  0  0  0  0
  -18.6500   -3.8070  -25.7320 H   0  0  0  0  0  0  0  0  0  0  0  0
  -18.4970   -1.2050  -29.3370 H   0  0  0  0  0  0  0  0  0  0  0  0
  -19.4270   -2.0870  -31.4600 H   0  0  0  0  0  0  0  0  0  0  0  0
  -21.5210   -5.0230  -29.2670 H   0  0  0  0  0  0  0  0  0  0  0  0
  -20.5790   -4.1280  -27.1190 H   0  0  0  0  0  0  0  0  0  0  0  0
  1  2  1  0  0  0  0
  2  7  1  0  0  0  0
  3  4  1  0  0  0  0
  3  2  2  0  0  0  0
  4  5  2  0  0  0  0
  5  8  1  0  0  0  0
  5  6  1  0  0  0  0
  6 29  1  0  0  0  0
  7  6  2  0  0  0  0
  7 30  1  0  0  0  0
  8 25  1  0  0  0  0
  9 11  1  0  0  0  0
  9  8  1  0  0  0  0
 10  9  2  0  0  0  0
 11 12  2  0  0  0  0
 12 25  1  0  0  0  0
 12 13  1  0  0  0  0
 13 31  1  0  0  0  0
 14 32  1  0  0  0  0
 14 13  1  0  0  0  0
 15 11  1  0  0  0  0
 15 14  1  0  0  0  0
 16 21  1  0  0  0  0
 16 15  1  0  0  0  0
 17 16  2  0  0  0  0
 18 19  2  0  0  0  0
 18 17  1  0  0  0  0
 19 20  1  0  0  0  0
 20 21  2  0  0  0  0
 21 36  1  0  0  0  0
 22 19  1  0  0  0  0
 23 22  2  0  0  0  0
 24 22  2  0  0  0  0
 25 26  2  0  0  0  0
 27  3  1  0  0  0  0
 28  4  1  0  0  0  0
 33 17  1  0  0  0  0
 34 18  1  0  0  0  0
 35 20  1  0  0  0  0
M  END
>  <Pose>
1

>  <Score>
-7.50

$$$$
