
 OpenBabel03222201593D

 41 44  0  0  1  0  0  0  0  0999 V2000
  -20.1500    0.1030  -35.9740 B   0  0  0  0  0  0  0  0  0  0  0  0
  -20.2530   -0.8710  -34.3140 C   0  0  0  0  0  0  0  0  0  0  0  0
  -19.3720   -0.5810  -33.3030 C   0  0  0  0  0  0  0  0  0  0  0  0
  -19.4590   -1.2770  -32.1410 C   0  0  0  0  0  0  0  0  0  0  0  0
  -20.3990   -2.2870  -31.9020 C   0  0  0  0  0  0  0  0  0  0  0  0
  -21.2660   -2.5580  -32.9260 C   0  0  0  0  0  0  0  0  0  0  0  0
  -21.1960   -1.8600  -34.1170 C   0  0  0  0  0  0  0  0  0  0  0  0
  -20.4180   -2.9620  -30.6610 N   0  0  0  0  0  0  0  0  0  0  0  0
  -20.6700   -4.3560  -30.4020 C   0  0  0  0  0  0  0  0  0  0  0  0
  -20.4950   -5.3090  -31.2130 O   0  0  0  0  0  0  0  0  0  0  0  0
  -21.1680   -4.4510  -29.0110 C   0  0  1  0  0  0  0  0  0  0  0  0
  -20.7680   -5.6560  -28.3110 N   0  0  0  0  0  0  0  0  0  0  0  0
  -20.5860   -5.0970  -27.0080 N   0  0  0  0  0  0  0  0  0  0  0  0
  -19.9480   -3.8270  -27.1430 C   0  0  0  0  0  0  0  0  0  0  0  0
  -20.2870   -3.4110  -28.3580 C   0  0  0  0  0  0  0  0  0  0  0  0
  -20.1790   -2.3740  -29.3770 C   0  0  0  0  0  0  0  0  0  0  0  0
  -19.9120   -1.1770  -29.0760 O   0  0  0  0  0  0  0  0  0  0  0  0
  -19.1140   -3.1270  -26.1730 C   0  0  0  0  0  0  0  0  0  0  0  0
  -18.3530   -3.7420  -25.3910 O   0  0  0  0  0  0  0  0  0  0  0  0
  -19.1160   -1.7440  -26.0590 O   0  0  0  0  0  0  0  0  0  0  0  0
  -18.3240   -0.9240  -26.9070 C   0  0  0  0  0  0  0  0  0  0  0  0
  -17.9720    0.3430  -26.1820 C   0  0  0  0  0  0  0  0  0  0  0  0
  -17.9070    0.3630  -24.7900 C   0  0  0  0  0  0  0  0  0  0  0  0
  -17.5860    1.4940  -24.0910 C   0  0  0  0  0  0  0  0  0  0  0  0
  -17.3150    2.6660  -24.7920 C   0  0  0  0  0  0  0  0  0  0  0  0
  -17.3810    2.6420  -26.1680 C   0  0  0  0  0  0  0  0  0  0  0  0
  -17.7090    1.4810  -26.8720 C   0  0  0  0  0  0  0  0  0  0  0  0
  -18.6260    0.2010  -33.4540 H   0  0  0  0  0  0  0  0  0  0  0  0
  -18.7670   -1.0510  -31.3420 H   0  0  0  0  0  0  0  0  0  0  0  0
  -22.0230   -3.3240  -32.8170 H   0  0  0  0  0  0  0  0  0  0  0  0
  -21.8770   -2.0670  -34.9300 H   0  0  0  0  0  0  0  0  0  0  0  0
  -22.2290   -4.2210  -28.8990 H   0  0  0  0  0  0  0  0  0  0  0  0
  -19.7860   -5.8570  -28.6520 H   0  0  0  0  0  0  0  0  0  0  0  0
  -20.8650   -5.5340  -26.1080 H   0  0  0  0  0  0  0  0  0  0  0  0
  -17.4350   -1.4300  -27.2810 H   0  0  0  0  0  0  0  0  0  0  0  0
  -18.9490   -0.6270  -27.7710 H   0  0  0  0  0  0  0  0  0  0  0  0
  -18.1120   -0.5310  -24.2420 H   0  0  0  0  0  0  0  0  0  0  0  0
  -17.5350    1.5180  -23.0130 H   0  0  0  0  0  0  0  0  0  0  0  0
  -17.0570    3.5850  -24.2680 H   0  0  0  0  0  0  0  0  0  0  0  0
  -17.1820    3.5110  -26.7620 H   0  0  0  0  0  0  0  0  0  0  0  0
  -17.7500    1.4960  -27.9490 H   0  0  0  0  0  0  0  0  0  0  0  0
  1  2  1  0  0  0  0
  2  7  2  0  0  0  0
  2  3  1  0  0  0  0
  3  4  2  0  0  0  0
  4  5  1  0  0  0  0
  4 29  1  0  0  0  0
  5  8  1  0  0  0  0
  6 30  1  0  0  0  0
  6  5  2  0  0  0  0
  7  6  1  0  0  0  0
  8  9  1  0  0  0  0
  8 16  1  0  0  0  0
  9 11  1  0  0  0  0
 10  9  2  0  0  0  0
 11 32  1  1  0  0  0
 11 15  1  0  0  0  0
 11 12  1  0  0  0  0
 12 13  1  0  0  0  0
 13 34  1  0  0  0  0
 14 13  1  0  0  0  0
 14 18  1  0  0  0  0
 15 14  2  0  0  0  0
 16 17  2  0  0  0  0
 16 15  1  0  0  0  0
 18 20  1  0  0  0  0
 18 19  2  0  0  0  0
 21 22  1  0  0  0  0
 21 20  1  0  0  0  0
 22 23  1  0  0  0  0
 23 37  1  0  0  0  0
 23 24  2  0  0  0  0
 24 38  1  0  0  0  0
 25 39  1  0  0  0  0
 25 24  1  0  0  0  0
 26 25  2  0  0  0  0
 27 22  2  0  0  0  0
 27 26  1  0  0  0  0
 28  3  1  0  0  0  0
 31  7  1  0  0  0  0
 33 12  1  0  0  0  0
 35 21  1  0  0  0  0
 36 21  1  0  0  0  0
 40 26  1  0  0  0  0
 41 27  1  0  0  0  0
M  END
>  <Pose>
1

>  <Score>
-6.87

$$$$
