
 OpenBabel03222201593D

 50 53  0  0  0  0  0  0  0  0999 V2000
  -16.6860    3.1560  -26.4870 B   0  0  0  0  0  0  0  0  0  0  0  0
  -17.4840    1.4290  -26.6970 C   0  0  0  0  0  0  0  0  0  0  0  0
  -16.8950    0.3040  -26.1450 C   0  0  0  0  0  0  0  0  0  0  0  0
  -17.4780   -0.9380  -26.3010 C   0  0  0  0  0  0  0  0  0  0  0  0
  -18.6550   -1.1110  -27.0030 C   0  0  0  0  0  0  0  0  0  0  0  0
  -19.2540   -0.0000  -27.5590 C   0  0  0  0  0  0  0  0  0  0  0  0
  -18.6580    1.2330  -27.3920 C   0  0  0  0  0  0  0  0  0  0  0  0
  -19.2070   -2.3890  -27.1360 N   0  0  0  0  0  0  0  0  0  0  0  0
  -19.2490   -3.2630  -26.0070 C   0  0  0  0  0  0  0  0  0  0  0  0
  -18.7710   -2.8280  -24.9110 O   0  0  0  0  0  0  0  0  0  0  0  0
  -19.8060   -4.5580  -26.1400 N   0  0  0  0  0  0  0  0  0  0  0  0
  -20.3460   -5.0670  -27.3570 C   0  0  0  0  0  0  0  0  0  0  0  0
  -20.8370   -6.2260  -27.4450 O   0  0  0  0  0  0  0  0  0  0  0  0
  -20.3200   -4.1910  -28.5420 C   0  0  0  0  0  0  0  0  0  0  0  0
  -20.8050   -4.6070  -29.7020 C   0  0  0  0  0  0  0  0  0  0  0  0
  -20.7650   -3.7400  -30.8270 N   0  0  0  0  0  0  0  0  0  0  0  0
  -21.0370   -4.1110  -32.1340 N   0  0  0  0  0  0  0  0  0  0  0  0
  -21.3740   -3.2050  -33.1780 C   0  0  0  0  0  0  0  0  0  0  0  0
  -20.6950   -2.0940  -33.4820 N   0  0  0  0  0  0  0  0  0  0  0  0
  -21.2840   -1.4780  -34.5200 C   0  0  0  0  0  0  0  0  0  0  0  0
  -22.3860   -2.2420  -34.8800 C   0  0  0  0  0  0  0  0  0  0  0  0
  -22.3920   -3.2730  -34.0360 N   0  0  0  0  0  0  0  0  0  0  0  0
  -23.1920   -1.8850  -35.8960 N   0  0  0  0  0  0  0  0  0  0  0  0
  -22.9200   -0.7680  -36.5710 C   0  0  0  0  0  0  0  0  0  0  0  0
  -23.6550   -0.3960  -37.5370 O   0  0  0  0  0  0  0  0  0  0  0  0
  -21.8580    0.0270  -36.2720 N   0  0  0  0  0  0  0  0  0  0  0  0
  -21.0540   -0.3410  -35.2470 C   0  0  0  0  0  0  0  0  0  0  0  0
  -20.0780    0.3860  -34.9690 O   0  0  0  0  0  0  0  0  0  0  0  0
  -21.6060    1.2240  -37.0330 C   0  0  0  0  0  0  0  0  0  0  0  0
  -24.3110   -2.7240  -36.2080 C   0  0  0  0  0  0  0  0  0  0  0  0
  -19.4880   -1.5440  -32.8530 C   0  0  0  0  0  0  0  0  0  0  0  0
  -19.7400   -2.8640  -28.3720 C   0  0  0  0  0  0  0  0  0  0  0  0
  -19.6960   -2.0820  -29.3560 O   0  0  0  0  0  0  0  0  0  0  0  0
  -15.9750    0.4640  -25.6000 H   0  0  0  0  0  0  0  0  0  0  0  0
  -16.9430   -1.7710  -25.8330 H   0  0  0  0  0  0  0  0  0  0  0  0
  -20.1930   -0.0720  -28.1290 H   0  0  0  0  0  0  0  0  0  0  0  0
  -19.1580    2.0790  -27.8430 H   0  0  0  0  0  0  0  0  0  0  0  0
  -19.8180   -5.1670  -25.2890 H   0  0  0  0  0  0  0  0  0  0  0  0
  -21.2280   -5.5790  -29.8260 H   0  0  0  0  0  0  0  0  0  0  0  0
  -20.5060   -2.7380  -30.6170 H   0  0  0  0  0  0  0  0  0  0  0  0
  -20.9760   -5.1530  -32.3230 H   0  0  0  0  0  0  0  0  0  0  0  0
  -22.2650    1.2260  -37.9260 H   0  0  0  0  0  0  0  0  0  0  0  0
  -20.5660    1.2460  -37.4270 H   0  0  0  0  0  0  0  0  0  0  0  0
  -21.7860    2.1130  -36.4040 H   0  0  0  0  0  0  0  0  0  0  0  0
  -25.2580   -2.3640  -35.7610 H   0  0  0  0  0  0  0  0  0  0  0  0
  -24.3910   -2.7970  -37.3130 H   0  0  0  0  0  0  0  0  0  0  0  0
  -24.1380   -3.7540  -35.8320 H   0  0  0  0  0  0  0  0  0  0  0  0
  -18.6040   -1.8870  -33.4640 H   0  0  0  0  0  0  0  0  0  0  0  0
  -19.4810   -0.4540  -32.8700 H   0  0  0  0  0  0  0  0  0  0  0  0
  -19.3660   -1.9850  -31.8450 H   0  0  0  0  0  0  0  0  0  0  0  0
  2  1  1  0  0  0  0
  2  3  1  0  0  0  0
  3 34  1  0  0  0  0
  4  3  2  0  0  0  0
  4 35  1  0  0  0  0
  5  4  1  0  0  0  0
  6  7  1  0  0  0  0
  6  5  2  0  0  0  0
  7  2  2  0  0  0  0
  8  5  1  0  0  0  0
  8  9  1  0  0  0  0
  9 10  2  0  0  0  0
 11  9  1  0  0  0  0
 11 38  1  0  0  0  0
 12 11  1  0  0  0  0
 13 12  2  0  0  0  0
 14 32  1  0  0  0  0
 14 12  1  0  0  0  0
 15 14  2  0  0  0  0
 16 40  1  0  0  0  0
 16 15  1  0  0  0  0
 17 16  1  0  0  0  0
 18 17  1  0  0  0  0
 19 18  1  0  0  0  0
 19 31  1  0  0  0  0
 20 19  1  0  0  0  0
 21 20  2  0  0  0  0
 21 22  1  0  0  0  0
 22 18  2  0  0  0  0
 23 21  1  0  0  0  0
 24 26  1  0  0  0  0
 24 23  1  0  0  0  0
 25 24  2  0  0  0  0
 26 27  1  0  0  0  0
 27 28  2  0  0  0  0
 27 20  1  0  0  0  0
 29 44  1  0  0  0  0
 29 26  1  0  0  0  0
 30 23  1  0  0  0  0
 30 47  1  0  0  0  0
 30 45  1  0  0  0  0
 31 50  1  0  0  0  0
 32  8  1  0  0  0  0
 33 32  2  0  0  0  0
 36  6  1  0  0  0  0
 37  7  1  0  0  0  0
 39 15  1  0  0  0  0
 41 17  1  0  0  0  0
 42 29  1  0  0  0  0
 43 29  1  0  0  0  0
 46 30  1  0  0  0  0
 48 31  1  0  0  0  0
 49 31  1  0  0  0  0
M  END
>  <Pose>
1

>  <Score>
-8.52

$$$$
