
 OpenBabel03222201593D

 47 51  0  0  1  0  0  0  0  0999 V2000
  -20.0790   -0.7460  -34.8350 B   0  0  0  0  0  0  0  0  0  0  0  0
  -19.6500   -0.7220  -32.9610 C   0  0  0  0  0  0  0  0  0  0  0  0
  -18.3960   -1.0070  -32.5070 C   0  0  0  0  0  0  0  0  0  0  0  0
  -18.1250   -0.9790  -31.1410 C   0  0  0  0  0  0  0  0  0  0  0  0
  -19.1000   -0.6680  -30.2160 C   0  0  0  0  0  0  0  0  0  0  0  0
  -20.3540   -0.3870  -30.7110 C   0  0  0  0  0  0  0  0  0  0  0  0
  -20.6490   -0.4070  -32.0550 C   0  0  0  0  0  0  0  0  0  0  0  0
  -18.7870   -0.6490  -28.8280 N   0  0  0  0  0  0  0  0  0  0  0  0
  -18.5010   -1.6820  -28.0430 N   0  0  0  0  0  0  0  0  0  0  0  0
  -18.2580   -1.2660  -26.7870 C   0  0  0  0  0  0  0  0  0  0  0  0
  -17.9440   -2.0340  -25.7510 C   0  0  0  0  0  0  0  0  0  0  0  0
  -18.3920    0.1070  -26.7460 C   0  0  0  0  0  0  0  0  0  0  0  0
  -18.2400    0.9290  -25.7040 C   0  0  0  0  0  0  0  0  0  0  0  0
  -18.4340    2.3220  -25.9220 N   0  0  0  0  0  4  0  0  0  0  0  0
  -17.7400    3.3190  -25.1600 C   0  0  2  0  0  0  0  0  0  0  0  0
  -16.2860    3.3400  -25.5110 C   0  0  0  0  0  0  0  0  0  0  0  0
  -15.6380    4.4270  -24.7900 N   0  0  1  0  0  0  0  0  0  0  0  0
  -16.2780    5.6720  -25.1980 C   0  0  0  0  0  0  0  0  0  0  0  0
  -17.6670    5.7110  -24.8100 N   0  0  2  0  0  0  0  0  0  0  0  0
  -17.7810    5.4600  -23.3770 C   0  0  0  0  0  0  0  0  0  0  0  0
  -17.1840    4.1960  -23.0060 N   0  0  2  0  0  0  0  0  0  0  0  0
  -15.7880    4.2100  -23.3740 C   0  0  0  0  0  0  0  0  0  0  0  0
  -17.8610    3.1070  -23.6690 C   0  0  0  0  0  0  0  0  0  0  0  0
  -18.3840    4.6680  -25.4960 C   0  0  0  0  0  0  0  0  0  0  0  0
  -18.7240    0.4510  -28.0480 C   0  0  0  0  0  0  0  0  0  0  0  0
  -18.9310    1.6260  -28.4280 O   0  0  0  0  0  0  0  0  0  0  0  0
  -17.6220   -1.2510  -33.2120 H   0  0  0  0  0  0  0  0  0  0  0  0
  -17.1300   -1.2050  -30.7870 H   0  0  0  0  0  0  0  0  0  0  0  0
  -21.1280   -0.1420  -30.0010 H   0  0  0  0  0  0  0  0  0  0  0  0
  -21.6370   -0.1860  -32.4530 H   0  0  0  0  0  0  0  0  0  0  0  0
  -18.4690   -2.6730  -28.3560 H   0  0  0  0  0  0  0  0  0  0  0  0
  -17.8610   -3.1040  -25.8790 H   0  0  0  0  0  0  0  0  0  0  0  0
  -17.7590   -1.6490  -24.7680 H   0  0  0  0  0  0  0  0  0  0  0  0
  -17.9800    0.5100  -24.7490 H   0  0  0  0  0  0  0  0  0  0  0  0
  -19.1000    2.6070  -26.6550 H   0  0  0  0  0  0  0  0  0  0  0  0
  -16.1630    3.4330  -26.5940 H   0  0  0  0  0  0  0  0  0  0  0  0
  -15.8470    2.3700  -25.1840 H   0  0  0  0  0  0  0  0  0  0  0  0
  -16.2040    5.7500  -26.2900 H   0  0  0  0  0  0  0  0  0  0  0  0
  -15.7650    6.5180  -24.6820 H   0  0  0  0  0  0  0  0  0  0  0  0
  -18.8310    5.5480  -23.0790 H   0  0  0  0  0  0  0  0  0  0  0  0
  -17.2170    6.2770  -22.8810 H   0  0  0  0  0  0  0  0  0  0  0  0
  -15.3190    3.2170  -23.1510 H   0  0  0  0  0  0  0  0  0  0  0  0
  -15.2500    5.0150  -22.8460 H   0  0  0  0  0  0  0  0  0  0  0  0
  -17.3650    2.1550  -23.3930 H   0  0  0  0  0  0  0  0  0  0  0  0
  -18.9210    3.0670  -23.3370 H   0  0  0  0  0  0  0  0  0  0  0  0
  -18.2610    4.7900  -26.5910 H   0  0  0  0  0  0  0  0  0  0  0  0
  -19.4440    4.6180  -25.1780 H   0  0  0  0  0  0  0  0  0  0  0  0
  1  2  1  0  0  0  0
  2  3  2  0  0  0  0
  2  7  1  0  0  0  0
  3  4  1  0  0  0  0
  4 28  1  0  0  0  0
  4  5  2  0  0  0  0
  5  8  1  0  0  0  0
  6  5  1  0  0  0  0
  6 29  1  0  0  0  0
  7  6  2  0  0  0  0
  8 25  1  0  0  0  0
  8  9  1  0  0  0  0
  9 10  1  0  0  0  0
 10 12  2  0  0  0  0
 10 11  1  0  0  0  0
 11 33  1  0  0  0  0
 12 13  1  0  0  0  0
 13 34  1  0  0  0  0
 14 13  2  0  0  0  0
 15 14  1  6  0  0  0
 15 23  1  0  0  0  0
 16 37  1  0  0  0  0
 16 15  1  0  0  0  0
 17 16  1  6  0  0  0
 17 22  1  0  0  0  0
 18 19  1  0  0  0  0
 18 17  1  0  0  0  0
 18 39  1  0  0  0  0
 19 24  1  6  0  0  0
 19 20  1  0  0  0  0
 20 40  1  0  0  0  0
 20 21  1  0  0  0  0
 20 41  1  0  0  0  0
 21 23  1  6  0  0  0
 22 42  1  0  0  0  0
 22 21  1  0  0  0  0
 22 43  1  0  0  0  0
 23 44  1  0  0  0  0
 23 45  1  0  0  0  0
 24 47  1  0  0  0  0
 24 15  1  0  0  0  0
 25 12  1  0  0  0  0
 26 25  2  0  0  0  0
 27  3  1  0  0  0  0
 30  7  1  0  0  0  0
 31  9  1  0  0  0  0
 32 11  1  0  0  0  0
 35 14  1  0  0  0  0
 36 16  1  0  0  0  0
 38 18  1  0  0  0  0
 46 24  1  0  0  0  0
M  END
>  <Pose>
1

>  <Score>
-5.64

$$$$
