
 OpenBabel03222201593D

 39 43  0  0  1  0  0  0  0  0999 V2000
  -21.7830   -4.4610  -32.4830 B   0  0  0  0  0  0  0  0  0  0  0  0
  -20.7070   -3.0870  -31.6990 C   0  0  0  0  0  0  0  0  0  0  0  0
  -20.3570   -3.1530  -30.3620 C   0  0  0  0  0  0  0  0  0  0  0  0
  -19.5870   -2.1660  -29.7800 C   0  0  0  0  0  0  0  0  0  0  0  0
  -19.1170   -1.0610  -30.4490 C   0  0  0  0  0  0  0  0  0  0  0  0
  -19.4680   -1.0010  -31.7700 C   0  0  0  0  0  0  0  0  0  0  0  0
  -20.2430   -1.9690  -32.4130 C   0  0  0  0  0  0  0  0  0  0  0  0
  -20.7200   -1.7980  -33.7850 C   0  0  0  0  0  0  0  0  0  0  0  0
  -21.8280   -0.9800  -34.0540 N   0  0  2  0  0  4  0  0  0  0  0  0
  -21.5110   -0.5290  -35.4560 C   0  0  0  0  0  0  0  0  0  0  0  0
  -22.2840    0.5460  -35.9150 N   0  0  2  0  0  0  0  0  0  0  0  0
  -22.1100    1.6380  -34.9730 C   0  0  0  0  0  0  0  0  0  0  0  0
  -22.6700    1.2080  -33.7150 N   0  0  2  0  0  0  0  0  0  0  0  0
  -21.9010    0.1550  -33.1360 C   0  0  0  0  0  0  0  0  0  0  0  0
  -24.0640    0.7600  -33.8130 C   0  0  0  0  0  0  0  0  0  0  0  0
  -24.0730   -0.4110  -34.6750 N   0  0  2  0  0  0  0  0  0  0  0  0
  -23.1690   -1.4630  -34.1640 C   0  0  0  0  0  0  0  0  0  0  0  0
  -23.6660    0.0560  -35.9780 C   0  0  0  0  0  0  0  0  0  0  0  0
  -18.4130   -0.3370  -29.5000 O   0  0  0  0  0  0  0  0  0  0  0  0
  -18.9880   -0.6380  -28.1990 C   0  0  0  0  0  0  0  0  0  0  0  0
  -19.1380   -2.0720  -28.4270 O   0  0  0  0  0  0  0  0  0  0  0  0
  -20.7480   -4.0040  -29.8590 H   0  0  0  0  0  0  0  0  0  0  0  0
  -19.0950   -0.1070  -32.3500 H   0  0  0  0  0  0  0  0  0  0  0  0
  -21.0580   -2.8550  -34.1390 H   0  0  0  0  0  0  0  0  0  0  0  0
  -19.8050   -1.6380  -34.4100 H   0  0  0  0  0  0  0  0  0  0  0  0
  -21.7670   -1.4650  -36.0400 H   0  0  0  0  0  0  0  0  0  0  0  0
  -20.4460   -0.3710  -35.5850 H   0  0  0  0  0  0  0  0  0  0  0  0
  -22.4990    2.6050  -35.3040 H   0  0  0  0  0  0  0  0  0  0  0  0
  -20.9930    1.6950  -34.8090 H   0  0  0  0  0  0  0  0  0  0  0  0
  -20.9620    0.5520  -32.8050 H   0  0  0  0  0  0  0  0  0  0  0  0
  -22.5340   -0.2530  -32.2860 H   0  0  0  0  0  0  0  0  0  0  0  0
  -24.4280    0.6020  -32.8080 H   0  0  0  0  0  0  0  0  0  0  0  0
  -24.5910    1.5570  -34.3730 H   0  0  0  0  0  0  0  0  0  0  0  0
  -23.3130   -2.3430  -34.8380 H   0  0  0  0  0  0  0  0  0  0  0  0
  -23.5560   -1.7150  -33.1370 H   0  0  0  0  0  0  0  0  0  0  0  0
  -23.7120   -0.6920  -36.7530 H   0  0  0  0  0  0  0  0  0  0  0  0
  -24.2880    0.9570  -36.1780 H   0  0  0  0  0  0  0  0  0  0  0  0
  -20.0670   -0.3130  -28.1360 H   0  0  0  0  0  0  0  0  0  0  0  0
  -18.3540   -0.3970  -27.3770 H   0  0  0  0  0  0  0  0  0  0  0  0
  1  2  1  0  0  0  0
  2  3  1  0  0  0  0
  3 22  1  0  0  0  0
  3  4  2  0  0  0  0
  4 21  1  0  0  0  0
  5  4  1  0  0  0  0
  5 19  1  0  0  0  0
  6  5  2  0  0  0  0
  7  6  1  0  0  0  0
  7  2  2  0  0  0  0
  8  7  1  0  0  0  0
  9  8  1  1  0  0  0
  9 14  1  0  0  0  0
 10  9  1  0  0  0  0
 11 18  1  1  0  0  0
 11 10  1  0  0  0  0
 11 12  1  0  0  0  0
 12 29  1  0  0  0  0
 13 12  1  6  0  0  0
 13 14  1  0  0  0  0
 14 30  1  0  0  0  0
 14 31  1  0  0  0  0
 15 13  1  0  0  0  0
 15 32  1  0  0  0  0
 16 18  1  6  0  0  0
 16 17  1  0  0  0  0
 16 15  1  0  0  0  0
 17  9  1  0  0  0  0
 17 35  1  0  0  0  0
 19 20  1  0  0  0  0
 20 38  1  0  0  0  0
 20 39  1  0  0  0  0
 21 20  1  0  0  0  0
 23  6  1  0  0  0  0
 24  8  1  0  0  0  0
 25  8  1  0  0  0  0
 26 10  1  0  0  0  0
 27 10  1  0  0  0  0
 28 12  1  0  0  0  0
 33 15  1  0  0  0  0
 34 17  1  0  0  0  0
 36 18  1  0  0  0  0
 37 18  1  0  0  0  0
M  END
>  <Pose>
1

>  <Score>
-5.23

$$$$
