
 OpenBabel03222201593D

 49 52  0  0  0  0  0  0  0  0999 V2000
  -19.0540   -2.3500  -26.2750 B   0  0  0  0  0  0  0  0  0  0  0  0
  -18.7550   -0.5430  -26.8170 C   0  0  0  0  0  0  0  0  0  0  0  0
  -17.9490    0.2840  -26.0700 C   0  0  0  0  0  0  0  0  0  0  0  0
  -17.7230    1.5850  -26.4470 C   0  0  0  0  0  0  0  0  0  0  0  0
  -18.3250    2.0340  -27.5880 C   0  0  0  0  0  0  0  0  0  0  0  0
  -19.1410    1.1930  -28.3420 C   0  0  0  0  0  0  0  0  0  0  0  0
  -19.3830   -0.1170  -27.9850 C   0  0  0  0  0  0  0  0  0  0  0  0
  -20.2290   -1.0410  -28.7830 C   0  0  0  0  0  0  0  0  0  0  0  0
  -19.7380   -1.1290  -30.1440 N   0  0  0  0  0  0  0  0  0  0  0  0
  -18.2830   -1.4300  -30.1230 C   0  0  0  0  0  0  0  0  0  0  0  0
  -17.8740   -1.2660  -31.5830 C   0  0  0  0  0  0  0  0  0  0  0  0
  -18.9670   -1.1630  -32.4780 N   0  0  0  0  0  0  0  0  0  0  0  0
  -19.9620   -2.1840  -32.2740 C   0  0  0  0  0  0  0  0  0  0  0  0
  -20.2880   -2.3090  -30.8150 C   0  0  0  0  0  0  0  0  0  0  0  0
  -19.4580    0.1270  -32.7850 C   0  0  0  0  0  0  0  0  0  0  0  0
  -18.6660    0.9170  -33.7090 C   0  0  0  0  0  0  0  0  0  0  0  0
  -18.2670    2.0600  -33.4020 O   0  0  0  0  0  0  0  0  0  0  0  0
  -18.3200    0.4150  -34.9840 N   0  0  0  0  0  0  0  0  0  0  0  0
  -19.0030    0.8320  -36.2020 C   0  0  0  0  0  0  0  0  0  0  0  0
  -20.2650    0.1920  -36.6090 C   0  0  0  0  0  0  0  0  0  0  0  0
  -19.0070   -0.2070  -37.3200 C   0  0  0  0  0  0  0  0  0  0  0  0
  -18.1100    3.3440  -27.9860 O   0  0  0  0  0  0  0  0  0  0  0  0
  -17.5290    4.3220  -27.1620 C   0  0  0  0  0  0  0  0  0  0  0  0
  -16.5520    3.7190  -26.2040 C   0  0  0  0  0  0  0  0  0  0  0  0
  -16.9160    2.4510  -25.7210 O   0  0  0  0  0  0  0  0  0  0  0  0
  -17.4580   -0.0540  -25.1550 H   0  0  0  0  0  0  0  0  0  0  0  0
  -19.5580    1.6220  -29.2190 H   0  0  0  0  0  0  0  0  0  0  0  0
  -21.2920   -0.7730  -28.7620 H   0  0  0  0  0  0  0  0  0  0  0  0
  -20.1190   -2.0570  -28.3310 H   0  0  0  0  0  0  0  0  0  0  0  0
  -17.7390   -0.7790  -29.4430 H   0  0  0  0  0  0  0  0  0  0  0  0
  -18.1980   -2.4850  -29.7910 H   0  0  0  0  0  0  0  0  0  0  0  0
  -17.3100   -2.2120  -31.8440 H   0  0  0  0  0  0  0  0  0  0  0  0
  -17.1220   -0.4610  -31.7000 H   0  0  0  0  0  0  0  0  0  0  0  0
  -19.6050   -3.1480  -32.7120 H   0  0  0  0  0  0  0  0  0  0  0  0
  -20.8850   -1.9450  -32.8780 H   0  0  0  0  0  0  0  0  0  0  0  0
  -21.3160   -2.5400  -30.5650 H   0  0  0  0  0  0  0  0  0  0  0  0
  -19.7010   -3.2130  -30.4530 H   0  0  0  0  0  0  0  0  0  0  0  0
  -20.5090    0.0700  -33.1550 H   0  0  0  0  0  0  0  0  0  0  0  0
  -19.5440    0.7120  -31.8240 H   0  0  0  0  0  0  0  0  0  0  0  0
  -17.5420   -0.2930  -35.1260 H   0  0  0  0  0  0  0  0  0  0  0  0
  -18.8160    1.8770  -36.4650 H   0  0  0  0  0  0  0  0  0  0  0  0
  -20.7500   -0.6160  -36.0120 H   0  0  0  0  0  0  0  0  0  0  0  0
  -20.9870    0.7860  -37.2050 H   0  0  0  0  0  0  0  0  0  0  0  0
  -18.5890   -1.2040  -37.0810 H   0  0  0  0  0  0  0  0  0  0  0  0
  -18.7880    0.2300  -38.3140 H   0  0  0  0  0  0  0  0  0  0  0  0
  -18.3350    4.8920  -26.6730 H   0  0  0  0  0  0  0  0  0  0  0  0
  -16.9420    5.0000  -27.8440 H   0  0  0  0  0  0  0  0  0  0  0  0
  -15.5480    3.6380  -26.7080 H   0  0  0  0  0  0  0  0  0  0  0  0
  -16.4880    4.3910  -25.3170 H   0  0  0  0  0  0  0  0  0  0  0  0
  2  1  1  0  0  0  0
  2  3  1  0  0  0  0
  3 26  1  0  0  0  0
  4  3  2  0  0  0  0
  4 25  1  0  0  0  0
  5  4  1  0  0  0  0
  6  7  1  0  0  0  0
  6  5  2  0  0  0  0
  7  2  2  0  0  0  0
  8 28  1  0  0  0  0
  8 29  1  0  0  0  0
  8  7  1  0  0  0  0
  9 10  1  0  0  0  0
  9  8  1  0  0  0  0
 10 31  1  0  0  0  0
 10 30  1  0  0  0  0
 11 10  1  0  0  0  0
 12 13  1  0  0  0  0
 12 11  1  0  0  0  0
 13 14  1  0  0  0  0
 14 36  1  0  0  0  0
 14 37  1  0  0  0  0
 14  9  1  0  0  0  0
 15 12  1  0  0  0  0
 15 39  1  0  0  0  0
 16 17  2  0  0  0  0
 16 15  1  0  0  0  0
 18 16  1  0  0  0  0
 19 18  1  0  0  0  0
 20 19  1  0  0  0  0
 20 42  1  0  0  0  0
 21 44  1  0  0  0  0
 21 20  1  0  0  0  0
 21 19  1  0  0  0  0
 22  5  1  0  0  0  0
 22 23  1  0  0  0  0
 23 46  1  0  0  0  0
 23 24  1  0  0  0  0
 24 25  1  0  0  0  0
 24 49  1  0  0  0  0
 27  6  1  0  0  0  0
 32 11  1  0  0  0  0
 33 11  1  0  0  0  0
 34 13  1  0  0  0  0
 35 13  1  0  0  0  0
 38 15  1  0  0  0  0
 40 18  1  0  0  0  0
 41 19  1  0  0  0  0
 43 20  1  0  0  0  0
 45 21  1  0  0  0  0
 47 23  1  0  0  0  0
 48 24  1  0  0  0  0
M  END
>  <Pose>
1

>  <Score>
-6.19

$$$$
