
 OpenBabel03222201593D

 44 47  0  0  1  0  0  0  0  0999 V2000
  -20.3420   -4.4150  -28.5820 B   0  0  0  0  0  0  0  0  0  0  0  0
  -19.5670   -2.8520  -27.8410 C   0  0  0  0  0  0  0  0  0  0  0  0
  -19.2200   -2.8170  -26.5030 C   0  0  0  0  0  0  0  0  0  0  0  0
  -18.6490   -1.6880  -25.9130 C   0  0  0  0  0  0  0  0  0  0  0  0
  -18.4310   -0.5750  -26.7210 C   0  0  0  0  0  0  0  0  0  0  0  0
  -18.7860   -0.6340  -28.0530 C   0  0  0  0  0  0  0  0  0  0  0  0
  -19.3570   -1.7570  -28.6480 C   0  0  0  0  0  0  0  0  0  0  0  0
  -19.7140   -1.7590  -30.0520 C   0  0  0  0  0  0  0  0  0  0  0  0
  -18.8380   -1.8110  -30.9630 N   0  0  0  0  0  0  0  0  0  0  0  0
  -19.0230   -1.8180  -32.3310 N   0  0  0  0  0  0  0  0  0  0  0  0
  -20.1920   -2.3230  -32.9410 C   0  0  1  0  0  0  0  0  0  0  0  0
  -20.6520   -1.6460  -34.0060 N   0  0  0  0  0  0  0  0  0  0  0  0
  -21.7490   -2.0370  -34.7080 C   0  0  0  0  0  0  0  0  0  0  0  0
  -22.3520   -3.1430  -34.2750 N   0  0  0  0  0  0  0  0  0  0  0  0
  -21.9480   -3.8590  -33.2290 C   0  0  0  0  0  0  0  0  0  0  0  0
  -20.8410   -3.4220  -32.5580 N   0  0  0  0  0  0  0  0  0  0  0  0
  -22.5980   -5.0050  -32.8040 O   0  0  0  0  0  0  0  0  0  0  0  0
  -21.8840   -6.0510  -32.2000 C   0  0  0  0  0  0  0  0  0  0  0  0
  -22.1660   -1.2700  -35.7980 N   0  0  0  0  0  0  0  0  0  0  0  0
  -21.2760   -0.3340  -36.4420 C   0  0  0  0  0  0  0  0  0  0  0  0
  -21.7980    0.0660  -37.8060 C   0  0  0  0  0  0  0  0  0  0  0  0
  -22.4700   -0.8960  -38.4860 O   0  0  0  0  0  0  0  0  0  0  0  0
  -23.2900   -1.7430  -37.8060 C   0  0  0  0  0  0  0  0  0  0  0  0
  -23.4970   -1.3950  -36.3350 C   0  0  0  0  0  0  0  0  0  0  0  0
  -17.8690    0.3890  -25.9160 O   0  0  0  0  0  0  0  0  0  0  0  0
  -17.8840   -0.0100  -24.5590 C   0  0  0  0  0  0  0  0  0  0  0  0
  -18.2130   -1.3730  -24.6360 O   0  0  0  0  0  0  0  0  0  0  0  0
  -19.3940   -3.6990  -25.8710 H   0  0  0  0  0  0  0  0  0  0  0  0
  -18.5920    0.2740  -28.6470 H   0  0  0  0  0  0  0  0  0  0  0  0
  -20.7480   -1.7130  -30.3330 H   0  0  0  0  0  0  0  0  0  0  0  0
  -18.2670   -1.4350  -32.9390 H   0  0  0  0  0  0  0  0  0  0  0  0
  -21.8070   -6.8790  -32.9550 H   0  0  0  0  0  0  0  0  0  0  0  0
  -22.4370   -6.4950  -31.3340 H   0  0  0  0  0  0  0  0  0  0  0  0
  -20.8950   -5.7130  -31.8250 H   0  0  0  0  0  0  0  0  0  0  0  0
  -20.2250   -0.6450  -36.4910 H   0  0  0  0  0  0  0  0  0  0  0  0
  -21.2960    0.6140  -35.8180 H   0  0  0  0  0  0  0  0  0  0  0  0
  -22.4160    1.0090  -37.7680 H   0  0  0  0  0  0  0  0  0  0  0  0
  -20.8890    0.3540  -38.4120 H   0  0  0  0  0  0  0  0  0  0  0  0
  -24.2590   -1.9320  -38.3260 H   0  0  0  0  0  0  0  0  0  0  0  0
  -22.7700   -2.7470  -37.7780 H   0  0  0  0  0  0  0  0  0  0  0  0
  -23.9420   -0.3680  -36.2820 H   0  0  0  0  0  0  0  0  0  0  0  0
  -24.1220   -2.1570  -35.8800 H   0  0  0  0  0  0  0  0  0  0  0  0
  -18.5840    0.5790  -23.9320 H   0  0  0  0  0  0  0  0  0  0  0  0
  -16.8330    0.0890  -24.1950 H   0  0  0  0  0  0  0  0  0  0  0  0
  1  2  1  0  0  0  0
  2  3  1  0  0  0  0
  3  4  2  0  0  0  0
  3 28  1  0  0  0  0
  4 27  1  0  0  0  0
  5 25  1  0  0  0  0
  5  4  1  0  0  0  0
  6  5  2  0  0  0  0
  7  6  1  0  0  0  0
  7  2  2  0  0  0  0
  8  7  1  0  0  0  0
  9  8  2  0  0  0  0
 10  9  1  0  0  0  0
 11 16  1  0  0  0  0
 11 10  1  6  0  0  0
 12 11  1  0  0  0  0
 13 14  1  0  0  0  0
 13 12  2  0  0  0  0
 14 15  2  0  0  0  0
 15 17  1  0  0  0  0
 15 16  2  0  0  0  0
 17 18  1  0  0  0  0
 18 34  1  0  0  0  0
 18 33  1  0  0  0  0
 19 13  1  0  0  0  0
 20 36  1  0  0  0  0
 20 19  1  0  0  0  0
 21 37  1  0  0  0  0
 21 20  1  0  0  0  0
 22 23  1  0  0  0  0
 22 21  1  0  0  0  0
 23 40  1  0  0  0  0
 23 24  1  0  0  0  0
 24 41  1  0  0  0  0
 24 42  1  0  0  0  0
 24 19  1  0  0  0  0
 25 26  1  0  0  0  0
 26 44  1  0  0  0  0
 26 43  1  0  0  0  0
 27 26  1  0  0  0  0
 29  6  1  0  0  0  0
 30  8  1  0  0  0  0
 31 10  1  0  0  0  0
 32 18  1  0  0  0  0
 35 20  1  0  0  0  0
 38 21  1  0  0  0  0
 39 23  1  0  0  0  0
M  END
>  <Pose>
1

>  <Score>
-7.32

$$$$
