
 OpenBabel03222201593D

 44 47  0  0  0  0  0  0  0  0999 V2000
  -17.3720    2.6900  -26.5810 B   0  0  0  0  0  0  0  0  0  0  0  0
  -18.0020    0.8910  -26.5220 C   0  0  0  0  0  0  0  0  0  0  0  0
  -18.5790    0.3150  -27.6400 C   0  0  0  0  0  0  0  0  0  0  0  0
  -19.0470   -0.9910  -27.6270 C   0  0  0  0  0  0  0  0  0  0  0  0
  -18.9010   -1.6780  -26.4370 C   0  0  0  0  0  0  0  0  0  0  0  0
  -18.3340   -1.1310  -25.3130 C   0  0  0  0  0  0  0  0  0  0  0  0
  -17.8790    0.1650  -25.3530 C   0  0  0  0  0  0  0  0  0  0  0  0
  -19.3660   -2.9800  -26.4180 C   0  0  0  0  0  0  0  0  0  0  0  0
  -19.2640   -3.6700  -25.3510 O   0  0  0  0  0  0  0  0  0  0  0  0
  -19.9320   -3.5030  -27.5620 C   0  0  0  0  0  0  0  0  0  0  0  0
  -20.0470   -2.7680  -28.7190 C   0  0  0  0  0  0  0  0  0  0  0  0
  -19.5930   -1.5410  -28.6850 O   0  0  0  0  0  0  0  0  0  0  0  0
  -20.6580   -3.3690  -29.9120 C   0  0  0  0  0  0  0  0  0  0  0  0
  -21.5970   -4.1990  -29.7410 O   0  0  0  0  0  0  0  0  0  0  0  0
  -20.2390   -3.0600  -31.2210 N   0  0  0  0  0  0  0  0  0  0  0  0
  -20.7590   -3.8330  -32.3200 C   0  0  0  0  0  0  0  0  0  0  0  0
  -21.4040   -2.9750  -33.3880 C   0  0  0  0  0  0  0  0  0  0  0  0
  -20.7470   -1.7220  -33.4150 N   0  0  0  0  0  0  0  0  0  0  0  0
  -19.3790   -1.8100  -33.0860 C   0  0  0  0  0  0  0  0  0  0  0  0
  -19.3100   -2.0090  -31.5610 C   0  0  0  0  0  0  0  0  0  0  0  0
  -21.4660   -0.6080  -32.9430 C   0  0  0  0  0  0  0  0  0  0  0  0
  -22.6460   -0.2390  -33.7200 C   0  0  0  0  0  0  0  0  0  0  0  0
  -23.6960   -1.0380  -33.9690 N   0  0  0  0  0  0  0  0  0  0  0  0
  -24.5280   -0.3640  -34.6810 O   0  0  0  0  0  0  0  0  0  0  0  0
  -24.0840    0.8450  -34.9180 N   0  0  0  0  0  0  0  0  0  0  0  0
  -22.8790    0.9690  -34.3200 C   0  0  0  0  0  0  0  0  0  0  0  0
  -21.9950    2.1730  -34.3200 C   0  0  0  0  0  0  0  0  0  0  0  0
  -18.6650    0.8950  -28.5390 H   0  0  0  0  0  0  0  0  0  0  0  0
  -18.2540   -1.7290  -24.4160 H   0  0  0  0  0  0  0  0  0  0  0  0
  -17.4250    0.6120  -24.4660 H   0  0  0  0  0  0  0  0  0  0  0  0
  -20.2920   -4.5290  -27.5310 H   0  0  0  0  0  0  0  0  0  0  0  0
  -21.4730   -4.6230  -31.9590 H   0  0  0  0  0  0  0  0  0  0  0  0
  -19.9030   -4.3890  -32.8060 H   0  0  0  0  0  0  0  0  0  0  0  0
  -22.5020   -2.8830  -33.1840 H   0  0  0  0  0  0  0  0  0  0  0  0
  -21.3170   -3.5000  -34.3850 H   0  0  0  0  0  0  0  0  0  0  0  0
  -18.9580   -2.7320  -33.5360 H   0  0  0  0  0  0  0  0  0  0  0  0
  -18.7600   -0.9470  -33.3360 H   0  0  0  0  0  0  0  0  0  0  0  0
  -18.2830   -2.2960  -31.2560 H   0  0  0  0  0  0  0  0  0  0  0  0
  -19.5310   -1.0560  -31.0430 H   0  0  0  0  0  0  0  0  0  0  0  0
  -20.7860    0.2650  -32.8630 H   0  0  0  0  0  0  0  0  0  0  0  0
  -21.7920   -0.8180  -31.8840 H   0  0  0  0  0  0  0  0  0  0  0  0
  -21.3600    2.1940  -33.3940 H   0  0  0  0  0  0  0  0  0  0  0  0
  -21.3380    2.1150  -35.1910 H   0  0  0  0  0  0  0  0  0  0  0  0
  -22.6090    3.0980  -34.2780 H   0  0  0  0  0  0  0  0  0  0  0  0
  1  2  1  0  0  0  0
  2  7  1  0  0  0  0
  3  4  1  0  0  0  0
  3  2  2  0  0  0  0
  4  5  2  0  0  0  0
  5  8  1  0  0  0  0
  5  6  1  0  0  0  0
  6 29  1  0  0  0  0
  7  6  2  0  0  0  0
  7 30  1  0  0  0  0
  8  9  2  0  0  0  0
 10 31  1  0  0  0  0
 10  8  1  0  0  0  0
 11 12  1  0  0  0  0
 11 10  2  0  0  0  0
 12  4  1  0  0  0  0
 13 14  2  0  0  0  0
 13 11  1  0  0  0  0
 15 13  1  0  0  0  0
 16 32  1  0  0  0  0
 16 15  1  0  0  0  0
 17 34  1  0  0  0  0
 17 16  1  0  0  0  0
 18 17  1  0  0  0  0
 18 19  1  0  0  0  0
 18 21  1  0  0  0  0
 19 20  1  0  0  0  0
 20 38  1  0  0  0  0
 20 15  1  0  0  0  0
 20 39  1  0  0  0  0
 21 40  1  0  0  0  0
 21 41  1  0  0  0  0
 22 21  1  0  0  0  0
 23 22  2  0  0  0  0
 24 23  1  0  0  0  0
 25 24  1  0  0  0  0
 25 26  2  0  0  0  0
 26 27  1  0  0  0  0
 26 22  1  0  0  0  0
 27 44  1  0  0  0  0
 27 42  1  0  0  0  0
 28  3  1  0  0  0  0
 33 16  1  0  0  0  0
 35 17  1  0  0  0  0
 36 19  1  0  0  0  0
 37 19  1  0  0  0  0
 43 27  1  0  0  0  0
M  END
>  <Pose>
1

>  <Score>
-7.39

$$$$
