
 OpenBabel03222201593D

 49 52  0  0  0  0  0  0  0  0999 V2000
  -23.3040   -3.2370  -39.5190 B   0  0  0  0  0  0  0  0  0  0  0  0
  -22.9320   -1.6790  -38.4820 C   0  0  0  0  0  0  0  0  0  0  0  0
  -21.7190   -1.0400  -38.6470 C   0  0  0  0  0  0  0  0  0  0  0  0
  -21.4010    0.0930  -37.9210 C   0  0  0  0  0  0  0  0  0  0  0  0
  -22.3380    0.5630  -37.0220 C   0  0  0  0  0  0  0  0  0  0  0  0
  -23.5470   -0.0840  -36.8650 C   0  0  0  0  0  0  0  0  0  0  0  0
  -23.8720   -1.2150  -37.5870 C   0  0  0  0  0  0  0  0  0  0  0  0
  -21.7730    1.7440  -36.3940 C   0  0  0  0  0  0  0  0  0  0  0  0
  -22.3760    2.4310  -35.5080 O   0  0  0  0  0  0  0  0  0  0  0  0
  -20.4810    1.9620  -36.9400 N   0  0  0  0  0  0  0  0  0  0  0  0
  -20.2130    0.9600  -37.8890 C   0  0  0  0  0  0  0  0  0  0  0  0
  -19.1750    0.8080  -38.5890 O   0  0  0  0  0  0  0  0  0  0  0  0
  -19.6280    3.0590  -36.5380 C   0  0  0  0  0  0  0  0  0  0  0  0
  -18.4930    2.6460  -35.6760 C   0  0  0  0  0  0  0  0  0  0  0  0
  -18.8090    1.3380  -35.0090 C   0  0  0  0  0  0  0  0  0  0  0  0
  -18.9480    1.4220  -33.5370 C   0  0  0  0  0  0  0  0  0  0  0  0
  -18.8510    2.4960  -32.8880 O   0  0  0  0  0  0  0  0  0  0  0  0
  -19.2120    0.2370  -32.7590 N   0  0  0  0  0  0  0  0  0  0  0  0
  -18.1900   -0.7660  -32.5670 C   0  0  0  0  0  0  0  0  0  0  0  0
  -18.1010   -1.2660  -31.1640 C   0  0  0  0  0  0  0  0  0  0  0  0
  -19.0540   -0.6690  -30.2580 N   0  0  0  0  0  0  0  0  0  0  0  0
  -20.3460   -0.1690  -30.6440 C   0  0  0  0  0  0  0  0  0  0  0  0
  -20.4990   -0.0060  -32.1360 C   0  0  0  0  0  0  0  0  0  0  0  0
  -18.6860   -0.5670  -28.8790 C   0  0  0  0  0  0  0  0  0  0  0  0
  -18.0820    0.5460  -28.3820 N   0  0  0  0  0  0  0  0  0  0  0  0
  -17.7240    0.6810  -27.1060 C   0  0  0  0  0  0  0  0  0  0  0  0
  -17.9750   -0.3630  -26.2280 C   0  0  0  0  0  0  0  0  0  0  0  0
  -18.5760   -1.4860  -26.6900 N   0  0  0  0  0  0  0  0  0  0  0  0
  -18.9220   -1.5850  -27.9830 C   0  0  0  0  0  0  0  0  0  0  0  0
  -20.9560   -1.3800  -39.3450 H   0  0  0  0  0  0  0  0  0  0  0  0
  -24.2500    0.3230  -36.1470 H   0  0  0  0  0  0  0  0  0  0  0  0
  -24.8270   -1.6960  -37.4380 H   0  0  0  0  0  0  0  0  0  0  0  0
  -20.2570    3.7890  -36.0060 H   0  0  0  0  0  0  0  0  0  0  0  0
  -19.2180    3.5120  -37.4900 H   0  0  0  0  0  0  0  0  0  0  0  0
  -18.1680    3.4160  -34.9540 H   0  0  0  0  0  0  0  0  0  0  0  0
  -17.5700    2.4600  -36.3040 H   0  0  0  0  0  0  0  0  0  0  0  0
  -19.7380    0.8750  -35.4190 H   0  0  0  0  0  0  0  0  0  0  0  0
  -18.0000    0.6070  -35.2200 H   0  0  0  0  0  0  0  0  0  0  0  0
  -17.2170   -0.4080  -32.9570 H   0  0  0  0  0  0  0  0  0  0  0  0
  -18.4740   -1.6250  -33.2380 H   0  0  0  0  0  0  0  0  0  0  0  0
  -18.2820   -2.3770  -31.1160 H   0  0  0  0  0  0  0  0  0  0  0  0
  -17.0730   -1.1290  -30.7590 H   0  0  0  0  0  0  0  0  0  0  0  0
  -21.1170   -0.8580  -30.2900 H   0  0  0  0  0  0  0  0  0  0  0  0
  -20.4320    0.8600  -30.2030 H   0  0  0  0  0  0  0  0  0  0  0  0
  -21.2410    0.7750  -32.3980 H   0  0  0  0  0  0  0  0  0  0  0  0
  -20.8480   -0.9980  -32.5470 H   0  0  0  0  0  0  0  0  0  0  0  0
  -17.2440    1.5750  -26.7280 H   0  0  0  0  0  0  0  0  0  0  0  0
  -17.7010   -0.2890  -25.1980 H   0  0  0  0  0  0  0  0  0  0  0  0
  -19.3980   -2.4930  -28.3170 H   0  0  0  0  0  0  0  0  0  0  0  0
  1  2  1  0  0  0  0
  2  7  1  0  0  0  0
  3  2  2  0  0  0  0
  3  4  1  0  0  0  0
  4 11  1  0  0  0  0
  4  5  2  0  0  0  0
  5  6  1  0  0  0  0
  5  8  1  0  0  0  0
  6 31  1  0  0  0  0
  7 32  1  0  0  0  0
  7  6  2  0  0  0  0
  8  9  2  0  0  0  0
 10 13  1  0  0  0  0
 10  8  1  0  0  0  0
 11 10  1  0  0  0  0
 12 11  2  0  0  0  0
 13 33  1  0  0  0  0
 13 14  1  0  0  0  0
 14 15  1  0  0  0  0
 14 35  1  0  0  0  0
 15 16  1  0  0  0  0
 16 17  2  0  0  0  0
 16 18  1  0  0  0  0
 18 19  1  0  0  0  0
 18 23  1  0  0  0  0
 19 20  1  0  0  0  0
 20 41  1  0  0  0  0
 20 42  1  0  0  0  0
 20 21  1  0  0  0  0
 21 24  1  0  0  0  0
 22 43  1  0  0  0  0
 22 21  1  0  0  0  0
 22 44  1  0  0  0  0
 23 22  1  0  0  0  0
 24 25  2  0  0  0  0
 24 29  1  0  0  0  0
 25 26  1  0  0  0  0
 26 47  1  0  0  0  0
 26 27  2  0  0  0  0
 27 48  1  0  0  0  0
 28 27  1  0  0  0  0
 29 28  2  0  0  0  0
 30  3  1  0  0  0  0
 34 13  1  0  0  0  0
 36 14  1  0  0  0  0
 37 15  1  0  0  0  0
 38 15  1  0  0  0  0
 39 19  1  0  0  0  0
 40 19  1  0  0  0  0
 45 23  1  0  0  0  0
 46 23  1  0  0  0  0
 49 29  1  0  0  0  0
M  END
>  <Pose>
1

>  <Score>
-6.53

$$$$
