
 OpenBabel03222201593D

 44 47  0  0  0  0  0  0  0  0999 V2000
  -19.4230   -4.0420  -26.0740 B   0  0  0  0  0  0  0  0  0  0  0  0
  -18.8870   -2.2190  -26.0420 C   0  0  0  0  0  0  0  0  0  0  0  0
  -19.0800   -1.3740  -27.1420 C   0  0  0  0  0  0  0  0  0  0  0  0
  -18.6930   -0.0510  -27.1230 C   0  0  0  0  0  0  0  0  0  0  0  0
  -18.0880    0.4660  -25.9720 C   0  0  0  0  0  0  0  0  0  0  0  0
  -17.9020   -0.3800  -24.8880 C   0  0  0  0  0  0  0  0  0  0  0  0
  -18.2940   -1.6970  -24.9260 C   0  0  0  0  0  0  0  0  0  0  0  0
  -17.7650    1.8400  -26.1530 N   0  0  0  0  0  0  0  0  0  0  0  0
  -18.1840    2.1920  -27.4630 C   0  0  0  0  0  0  0  0  0  0  0  0
  -18.1060    3.2970  -28.0660 O   0  0  0  0  0  0  0  0  0  0  0  0
  -18.7830    1.0090  -28.1170 C   0  0  0  0  0  0  0  0  0  0  0  0
  -19.2740    0.9450  -29.3070 N   0  0  0  0  0  0  0  0  0  0  0  0
  -19.8180   -0.2320  -29.8260 N   0  0  0  0  0  0  0  0  0  0  0  0
  -19.0150   -1.3150  -30.2620 C   0  0  0  0  0  0  0  0  0  0  0  0
  -18.6710   -2.1890  -29.4350 O   0  0  0  0  0  0  0  0  0  0  0  0
  -18.5980   -1.4060  -31.6540 C   0  0  0  0  0  0  0  0  0  0  0  0
  -19.6960   -1.6880  -32.5590 N   0  0  0  0  0  0  0  0  0  0  0  0
  -20.4680   -2.7610  -32.5700 N   0  0  0  0  0  0  0  0  0  0  0  0
  -21.3660   -2.6720  -33.5380 N   0  0  0  0  0  0  0  0  0  0  0  0
  -21.1720   -1.5070  -34.1780 C   0  0  0  0  0  0  0  0  0  0  0  0
  -20.1400   -0.9280  -33.5510 N   0  0  0  0  0  0  0  0  0  0  0  0
  -21.9530   -1.0230  -35.3120 C   0  0  0  0  0  0  0  0  0  0  0  0
  -22.8950   -1.8390  -35.9010 C   0  0  0  0  0  0  0  0  0  0  0  0
  -23.6440   -1.3790  -36.9860 C   0  0  0  0  0  0  0  0  0  0  0  0
  -23.4710   -0.1130  -37.4990 C   0  0  0  0  0  0  0  0  0  0  0  0
  -22.5260    0.7080  -36.9080 C   0  0  0  0  0  0  0  0  0  0  0  0
  -21.7860    0.2430  -35.8300 C   0  0  0  0  0  0  0  0  0  0  0  0
  -17.1360    2.7710  -25.2380 C   0  0  0  0  0  0  0  0  0  0  0  0
  -18.0150    3.8990  -24.9750 C   0  0  0  0  0  0  0  0  0  0  0  0
  -18.7550    4.8220  -24.7550 C   0  0  0  0  0  0  0  0  0  0  0  0
  -19.5520   -1.8090  -28.0150 H   0  0  0  0  0  0  0  0  0  0  0  0
  -17.4390   -0.0260  -23.9790 H   0  0  0  0  0  0  0  0  0  0  0  0
  -18.1470   -2.3680  -24.0700 H   0  0  0  0  0  0  0  0  0  0  0  0
  -20.8520   -0.3040  -29.9010 H   0  0  0  0  0  0  0  0  0  0  0  0
  -17.8120   -2.1750  -31.7790 H   0  0  0  0  0  0  0  0  0  0  0  0
  -18.1220   -0.4360  -31.9380 H   0  0  0  0  0  0  0  0  0  0  0  0
  -23.0500   -2.8450  -35.5140 H   0  0  0  0  0  0  0  0  0  0  0  0
  -24.3890   -2.0220  -37.4540 H   0  0  0  0  0  0  0  0  0  0  0  0
  -24.0710    0.2260  -38.3510 H   0  0  0  0  0  0  0  0  0  0  0  0
  -22.3850    1.7080  -37.3060 H   0  0  0  0  0  0  0  0  0  0  0  0
  -21.0410    0.8770  -35.3560 H   0  0  0  0  0  0  0  0  0  0  0  0
  -16.8870    2.2890  -24.2600 H   0  0  0  0  0  0  0  0  0  0  0  0
  -16.1570    3.0790  -25.6790 H   0  0  0  0  0  0  0  0  0  0  0  0
  -19.4260    5.6440  -24.5700 H   0  0  0  0  0  0  0  0  0  0  0  0
  1  2  1  0  0  0  0
  2  7  1  0  0  0  0
  3  4  1  0  0  0  0
  3  2  2  0  0  0  0
  4  5  2  0  0  0  0
  5  6  1  0  0  0  0
  6 32  1  0  0  0  0
  7  6  2  0  0  0  0
  7 33  1  0  0  0  0
  8  5  1  0  0  0  0
  8 28  1  0  0  0  0
  9  8  1  0  0  0  0
 10  9  2  0  0  0  0
 11  9  1  0  0  0  0
 11  4  1  0  0  0  0
 12 11  2  0  0  0  0
 13 12  1  0  0  0  0
 14 13  1  0  0  0  0
 14 15  2  0  0  0  0
 16 14  1  0  0  0  0
 17 16  1  0  0  0  0
 18 17  1  0  0  0  0
 19 18  1  0  0  0  0
 20 21  1  0  0  0  0
 20 19  2  0  0  0  0
 21 17  1  0  0  0  0
 22 20  1  0  0  0  0
 23 37  1  0  0  0  0
 23 22  2  0  0  0  0
 24 23  1  0  0  0  0
 25 24  2  0  0  0  0
 25 26  1  0  0  0  0
 26 27  2  0  0  0  0
 27 41  1  0  0  0  0
 27 22  1  0  0  0  0
 28 29  1  0  0  0  0
 28 42  1  0  0  0  0
 29 30  3  0  0  0  0
 30 44  1  0  0  0  0
 31  3  1  0  0  0  0
 34 13  1  0  0  0  0
 35 16  1  0  0  0  0
 36 16  1  0  0  0  0
 38 24  1  0  0  0  0
 39 25  1  0  0  0  0
 40 26  1  0  0  0  0
 43 28  1  0  0  0  0
M  END
>  <Pose>
1

>  <Score>
-7.35

$$$$
