
 OpenBabel03222201593D

 58 61  0  0  0  0  0  0  0  0999 V2000
  -19.0790    0.1270  -31.9630 B   0  0  0  0  0  0  0  0  0  0  0  0
  -19.2690   -1.0840  -30.4980 C   0  0  0  0  0  0  0  0  0  0  0  0
  -19.8860   -2.3340  -30.6540 C   0  0  0  0  0  0  0  0  0  0  0  0
  -19.9580   -3.1200  -29.5400 C   0  0  0  0  0  0  0  0  0  0  0  0
  -19.4710   -2.7560  -28.3020 C   0  0  0  0  0  0  0  0  0  0  0  0
  -18.8710   -1.5270  -28.1510 C   0  0  0  0  0  0  0  0  0  0  0  0
  -18.7720   -0.6920  -29.2740 C   0  0  0  0  0  0  0  0  0  0  0  0
  -19.6840   -3.7700  -27.3290 N   0  0  0  0  0  0  0  0  0  0  0  0
  -20.3680   -4.8500  -28.0170 C   0  0  0  0  0  0  0  0  0  0  0  0
  -20.7130   -5.9300  -27.4950 O   0  0  0  0  0  0  0  0  0  0  0  0
  -20.5390   -4.4170  -29.3860 C   0  0  0  0  0  0  0  0  0  0  0  0
  -21.2230   -4.9670  -30.3140 N   0  0  0  0  0  0  0  0  0  0  0  0
  -21.6590   -4.8860  -31.3930 N   0  0  0  0  0  0  0  0  0  0  0  0
  -22.2070   -4.7800  -32.6920 C   0  0  0  0  0  0  0  0  0  0  0  0
  -22.5200   -5.6060  -33.5180 O   0  0  0  0  0  0  0  0  0  0  0  0
  -22.3920   -3.2860  -33.0440 C   0  0  0  0  0  0  0  0  0  0  0  0
  -21.1620   -2.9330  -33.7130 O   0  0  0  0  0  0  0  0  0  0  0  0
  -21.3280   -2.0650  -34.8300 N   0  0  0  0  0  0  0  0  0  0  0  0
  -22.4730   -1.6030  -35.1490 C   0  0  0  0  0  0  0  0  0  0  0  0
  -22.6180   -0.7380  -36.2970 C   0  0  0  0  0  0  0  0  0  0  0  0
  -22.4360    0.6050  -36.2990 C   0  0  0  0  0  0  0  0  0  0  0  0
  -22.7040    1.2780  -37.5180 C   0  0  0  0  0  0  0  0  0  0  0  0
  -23.1030    0.7310  -38.6650 C   0  0  0  0  0  0  0  0  0  0  0  0
  -23.2660   -0.6120  -38.6130 C   0  0  0  0  0  0  0  0  0  0  0  0
  -23.0760   -1.4180  -37.5560 C   0  0  0  0  0  0  0  0  0  0  0  0
  -23.3240    1.5190  -39.8000 O   0  0  0  0  0  0  0  0  0  0  0  0
  -24.4070    2.4410  -39.8430 C   0  0  0  0  0  0  0  0  0  0  0  0
  -19.3030   -3.8750  -25.9290 C   0  0  0  0  0  0  0  0  0  0  0  0
  -19.4440   -2.6760  -25.2620 N   0  0  0  0  0  0  0  0  0  0  0  0
  -20.3100   -2.7680  -24.1580 C   0  0  0  0  0  0  0  0  0  0  0  0
  -19.6920   -2.0430  -22.9590 C   0  0  0  0  0  0  0  0  0  0  0  0
  -18.3920   -2.6120  -22.8730 O   0  0  0  0  0  0  0  0  0  0  0  0
  -17.5860   -2.0620  -23.8790 C   0  0  0  0  0  0  0  0  0  0  0  0
  -18.3070   -1.8510  -25.1740 C   0  0  0  0  0  0  0  0  0  0  0  0
  -20.2020   -2.5560  -31.6070 H   0  0  0  0  0  0  0  0  0  0  0  0
  -18.4560   -1.1740  -27.2110 H   0  0  0  0  0  0  0  0  0  0  0  0
  -18.3300    0.2710  -29.1500 H   0  0  0  0  0  0  0  0  0  0  0  0
  -22.9090   -4.4950  -30.9300 H   0  0  0  0  0  0  0  0  0  0  0  0
  -23.0730   -3.4690  -33.9890 H   0  0  0  0  0  0  0  0  0  0  0  0
  -22.8460   -2.6840  -32.3840 H   0  0  0  0  0  0  0  0  0  0  0  0
  -23.3590   -1.8330  -34.5620 H   0  0  0  0  0  0  0  0  0  0  0  0
  -22.1100    1.1350  -35.4380 H   0  0  0  0  0  0  0  0  0  0  0  0
  -22.5350    2.3710  -37.4760 H   0  0  0  0  0  0  0  0  0  0  0  0
  -23.6090   -1.0680  -39.5820 H   0  0  0  0  0  0  0  0  0  0  0  0
  -23.1760   -2.4590  -37.4680 H   0  0  0  0  0  0  0  0  0  0  0  0
  -24.1540    3.3650  -39.2590 H   0  0  0  0  0  0  0  0  0  0  0  0
  -24.4870    2.7890  -40.9220 H   0  0  0  0  0  0  0  0  0  0  0  0
  -25.3800    2.0080  -39.5550 H   0  0  0  0  0  0  0  0  0  0  0  0
  -18.2780   -4.2990  -25.9520 H   0  0  0  0  0  0  0  0  0  0  0  0
  -19.9230   -4.7220  -25.5090 H   0  0  0  0  0  0  0  0  0  0  0  0
  -21.3320   -2.3740  -24.3690 H   0  0  0  0  0  0  0  0  0  0  0  0
  -20.4550   -3.8260  -23.8880 H   0  0  0  0  0  0  0  0  0  0  0  0
  -20.2530   -2.3410  -22.0820 H   0  0  0  0  0  0  0  0  0  0  0  0
  -19.6400   -0.9680  -23.0970 H   0  0  0  0  0  0  0  0  0  0  0  0
  -16.6990   -2.6870  -24.0400 H   0  0  0  0  0  0  0  0  0  0  0  0
  -17.2500   -1.0670  -23.4990 H   0  0  0  0  0  0  0  0  0  0  0  0
  -18.6190   -0.7340  -25.2570 H   0  0  0  0  0  0  0  0  0  0  0  0
  -17.6300   -1.9970  -26.0210 H   0  0  0  0  0  0  0  0  0  0  0  0
  1  2  1  0  0  0  0
  2  7  1  0  0  0  0
  3  2  2  0  0  0  0
  3  4  1  0  0  0  0
  4 11  1  0  0  0  0
  4  5  2  0  0  0  0
  5  6  1  0  0  0  0
  5  8  1  0  0  0  0
  6 36  1  0  0  0  0
  7 37  1  0  0  0  0
  7  6  2  0  0  0  0
  8 28  1  0  0  0  0
  9 10  2  0  0  0  0
  9  8  1  0  0  0  0
 11  9  1  0  0  0  0
 12 11  2  0  0  0  0
 13 38  1  0  0  0  0
 13 12  1  0  0  0  0
 14 13  1  0  0  0  0
 15 14  2  0  0  0  0
 16 14  1  0  0  0  0
 16 40  1  0  0  0  0
 17 16  1  0  0  0  0
 18 17  1  0  0  0  0
 19 18  2  0  0  0  0
 19 41  1  0  0  0  0
 20 19  1  0  0  0  0
 21 20  1  0  0  0  0
 21 42  1  0  0  0  0
 22 43  1  0  0  0  0
 22 21  2  0  0  0  0
 23 24  2  0  0  0  0
 23 22  1  0  0  0  0
 24 25  1  0  0  0  0
 25 45  1  0  0  0  0
 25 20  2  0  0  0  0
 26 23  1  0  0  0  0
 27 26  1  0  0  0  0
 27 48  1  0  0  0  0
 27 46  1  0  0  0  0
 28 50  1  0  0  0  0
 28 29  1  0  0  0  0
 29 34  1  0  0  0  0
 29 30  1  0  0  0  0
 30 52  1  0  0  0  0
 30 31  1  0  0  0  0
 31 32  1  0  0  0  0
 31 53  1  0  0  0  0
 33 56  1  0  0  0  0
 33 32  1  0  0  0  0
 34 33  1  0  0  0  0
 35  3  1  0  0  0  0
 39 16  1  0  0  0  0
 44 24  1  0  0  0  0
 47 27  1  0  0  0  0
 49 28  1  0  0  0  0
 51 30  1  0  0  0  0
 54 31  1  0  0  0  0
 55 33  1  0  0  0  0
 57 34  1  0  0  0  0
 58 34  1  0  0  0  0
M  END
>  <Pose>
1

>  <Score>
-6.10

$$$$
