
 OpenBabel03222201593D

 59 62  0  0  0  0  0  0  0  0999 V2000
  -23.5890   -1.9960  -37.5620 B   0  0  0  0  0  0  0  0  0  0  0  0
  -22.5860   -0.5910  -36.7170 C   0  0  0  0  0  0  0  0  0  0  0  0
  -21.5430   -0.8660  -35.8630 C   0  0  0  0  0  0  0  0  0  0  0  0
  -20.7890    0.1160  -35.2280 C   0  0  0  0  0  0  0  0  0  0  0  0
  -21.1100    1.4540  -35.4740 C   0  0  0  0  0  0  0  0  0  0  0  0
  -22.1550    1.7310  -36.3310 C   0  0  0  0  0  0  0  0  0  0  0  0
  -22.8960    0.7310  -36.9560 C   0  0  0  0  0  0  0  0  0  0  0  0
  -20.2270    2.3120  -34.7370 N   0  0  0  0  0  0  0  0  0  0  0  0
  -19.3400    1.4650  -34.0190 C   0  0  0  0  0  0  0  0  0  0  0  0
  -18.4230    1.8520  -33.2610 O   0  0  0  0  0  0  0  0  0  0  0  0
  -19.6680    0.0820  -34.3080 C   0  0  0  0  0  0  0  0  0  0  0  0
  -19.0900   -0.9690  -33.8460 N   0  0  0  0  0  0  0  0  0  0  0  0
  -18.0170   -0.9220  -32.9640 N   0  0  0  0  0  0  0  0  0  0  0  0
  -18.2490   -0.7050  -31.5890 C   0  0  0  0  0  0  0  0  0  0  0  0
  -17.2860   -0.5020  -30.7720 O   0  0  0  0  0  0  0  0  0  0  0  0
  -19.6030   -0.6920  -30.9820 C   0  0  0  0  0  0  0  0  0  0  0  0
  -19.8810   -1.9540  -30.3760 O   0  0  0  0  0  0  0  0  0  0  0  0
  -19.6470   -2.1360  -29.0230 C   0  0  0  0  0  0  0  0  0  0  0  0
  -20.0730   -3.2880  -28.3960 C   0  0  0  0  0  0  0  0  0  0  0  0
  -19.8340   -3.4640  -27.0360 C   0  0  0  0  0  0  0  0  0  0  0  0
  -19.1740   -2.4930  -26.3080 C   0  0  0  0  0  0  0  0  0  0  0  0
  -18.7600   -1.3590  -26.9430 C   0  0  0  0  0  0  0  0  0  0  0  0
  -18.9980   -1.1840  -28.2960 C   0  0  0  0  0  0  0  0  0  0  0  0
  -20.7300   -4.2720  -29.0900 O   0  0  0  0  0  0  0  0  0  0  0  0
  -20.3570   -5.6190  -28.9480 C   0  0  0  0  0  0  0  0  0  0  0  0
  -20.2710    3.7650  -34.7590 C   0  0  0  0  0  0  0  0  0  0  0  0
  -19.3490    4.3780  -35.6460 N   0  0  0  0  0  0  0  0  0  0  0  0
  -19.7590    4.4670  -37.0060 C   0  0  0  0  0  0  0  0  0  0  0  0
  -18.6680    5.0700  -37.8950 C   0  0  0  0  0  0  0  0  0  0  0  0
  -17.4570    5.0700  -37.1250 N   0  0  0  0  0  0  0  0  0  0  0  0
  -17.5070    5.9550  -36.0020 C   0  0  0  0  0  0  0  0  0  0  0  0
  -18.6880    5.5470  -35.1410 C   0  0  0  0  0  0  0  0  0  0  0  0
  -16.2650    5.1760  -37.9150 C   0  0  0  0  0  0  0  0  0  0  0  0
  -21.2970   -1.9100  -35.6750 H   0  0  0  0  0  0  0  0  0  0  0  0
  -22.4440    2.7630  -36.5550 H   0  0  0  0  0  0  0  0  0  0  0  0
  -23.7140    0.9400  -37.6260 H   0  0  0  0  0  0  0  0  0  0  0  0
  -17.0590   -1.0450  -33.3210 H   0  0  0  0  0  0  0  0  0  0  0  0
  -19.7210    0.0810  -30.2050 H   0  0  0  0  0  0  0  0  0  0  0  0
  -20.3740   -0.4950  -31.7480 H   0  0  0  0  0  0  0  0  0  0  0  0
  -20.1750   -4.3800  -26.5530 H   0  0  0  0  0  0  0  0  0  0  0  0
  -18.9750   -2.6050  -25.2420 H   0  0  0  0  0  0  0  0  0  0  0  0
  -18.2500   -0.6000  -26.3960 H   0  0  0  0  0  0  0  0  0  0  0  0
  -18.6480   -0.2700  -28.7440 H   0  0  0  0  0  0  0  0  0  0  0  0
  -19.2780   -5.7870  -29.1570 H   0  0  0  0  0  0  0  0  0  0  0  0
  -20.4920   -5.8980  -27.8700 H   0  0  0  0  0  0  0  0  0  0  0  0
  -21.0230   -6.2220  -29.6010 H   0  0  0  0  0  0  0  0  0  0  0  0
  -21.3110    4.1330  -34.9270 H   0  0  0  0  0  0  0  0  0  0  0  0
  -20.0150    4.0990  -33.7190 H   0  0  0  0  0  0  0  0  0  0  0  0
  -19.9150    3.4390  -37.3950 H   0  0  0  0  0  0  0  0  0  0  0  0
  -20.7140    5.0130  -37.1520 H   0  0  0  0  0  0  0  0  0  0  0  0
  -18.5130    4.4870  -38.8140 H   0  0  0  0  0  0  0  0  0  0  0  0
  -19.0100    6.0820  -38.1870 H   0  0  0  0  0  0  0  0  0  0  0  0
  -17.5990    7.0250  -36.2650 H   0  0  0  0  0  0  0  0  0  0  0  0
  -16.5380    5.8390  -35.4530 H   0  0  0  0  0  0  0  0  0  0  0  0
  -19.4350    6.3850  -35.1050 H   0  0  0  0  0  0  0  0  0  0  0  0
  -18.2890    5.3200  -34.1340 H   0  0  0  0  0  0  0  0  0  0  0  0
  -15.4560    4.5080  -37.5100 H   0  0  0  0  0  0  0  0  0  0  0  0
  -15.8730    6.2070  -37.9970 H   0  0  0  0  0  0  0  0  0  0  0  0
  -16.5020    4.7620  -38.9280 H   0  0  0  0  0  0  0  0  0  0  0  0
  1  2  1  0  0  0  0
  2  3  1  0  0  0  0
  3 34  1  0  0  0  0
  3  4  2  0  0  0  0
  4 11  1  0  0  0  0
  5  4  1  0  0  0  0
  5  8  1  0  0  0  0
  6  5  2  0  0  0  0
  7  2  2  0  0  0  0
  7  6  1  0  0  0  0
  8  9  1  0  0  0  0
  9 10  2  0  0  0  0
 11  9  1  0  0  0  0
 11 12  2  0  0  0  0
 12 13  1  0  0  0  0
 13 14  1  0  0  0  0
 14 16  1  0  0  0  0
 14 15  2  0  0  0  0
 16 17  1  0  0  0  0
 16 38  1  0  0  0  0
 17 18  1  0  0  0  0
 18 19  2  0  0  0  0
 18 23  1  0  0  0  0
 19 20  1  0  0  0  0
 20 40  1  0  0  0  0
 20 21  2  0  0  0  0
 21 41  1  0  0  0  0
 22 42  1  0  0  0  0
 22 21  1  0  0  0  0
 23 22  2  0  0  0  0
 24 25  1  0  0  0  0
 24 19  1  0  0  0  0
 25 45  1  0  0  0  0
 26  8  1  0  0  0  0
 26 48  1  0  0  0  0
 27 32  1  0  0  0  0
 27 26  1  0  0  0  0
 28 27  1  0  0  0  0
 29 30  1  0  0  0  0
 29 28  1  0  0  0  0
 30 31  1  0  0  0  0
 31 54  1  0  0  0  0
 31 32  1  0  0  0  0
 32 55  1  0  0  0  0
 32 56  1  0  0  0  0
 33 57  1  0  0  0  0
 33 30  1  0  0  0  0
 35  6  1  0  0  0  0
 36  7  1  0  0  0  0
 37 13  1  0  0  0  0
 39 16  1  0  0  0  0
 43 23  1  0  0  0  0
 44 25  1  0  0  0  0
 46 25  1  0  0  0  0
 47 26  1  0  0  0  0
 49 28  1  0  0  0  0
 50 28  1  0  0  0  0
 51 29  1  0  0  0  0
 52 29  1  0  0  0  0
 53 31  1  0  0  0  0
 58 33  1  0  0  0  0
 59 33  1  0  0  0  0
M  END
>  <Pose>
1

>  <Score>
-6.93

$$$$
