
 OpenBabel03222201593D

 41 44  0  0  1  0  0  0  0  0999 V2000
  -21.0910   -4.0160  -32.1010 B   0  0  0  0  0  0  0  0  0  0  0  0
  -20.5530   -2.2810  -32.6570 C   0  0  0  0  0  0  0  0  0  0  0  0
  -21.3950   -1.4040  -33.2980 C   0  0  0  0  0  0  0  0  0  0  0  0
  -20.9220   -0.1470  -33.6740 C   0  0  0  0  0  0  0  0  0  0  0  0
  -19.6550    0.2700  -33.4400 C   0  0  0  0  0  0  0  0  0  0  0  0
  -18.8000   -0.6220  -32.7870 C   0  0  0  0  0  0  0  0  0  0  0  0
  -19.2490   -1.8670  -32.4080 C   0  0  0  0  0  0  0  0  0  0  0  0
  -19.4280    1.5820  -33.9170 N   0  0  0  0  0  0  0  0  0  0  0  0
  -20.6280    2.0360  -34.4970 C   0  0  0  0  0  0  0  0  0  0  0  0
  -20.8160    3.1640  -35.0320 O   0  0  0  0  0  0  0  0  0  0  0  0
  -21.6500    0.9600  -34.3750 C   0  0  1  0  0  0  0  0  0  0  0  0
  -22.0820    0.5000  -35.7190 C   0  0  0  0  0  0  0  0  0  0  0  0
  -23.3160    0.4500  -36.0700 C   0  0  0  0  0  0  0  0  0  0  0  0
  -24.4020    0.8380  -35.1830 N   0  0  0  0  0  0  0  0  0  0  0  0
  -24.0050    1.2760  -33.9010 C   0  0  0  0  0  0  0  0  0  0  0  0
  -22.7570    1.3360  -33.5240 C   0  0  0  0  0  0  0  0  0  0  0  0
  -22.5000    1.8090  -32.1690 C   0  0  0  0  0  0  0  0  0  0  0  0
  -22.2870    2.1670  -31.0880 N   0  0  0  0  0  0  0  0  0  0  0  0
  -25.0490    1.6770  -32.9710 N   0  0  0  0  0  0  0  0  0  0  0  0
  -23.3950   -0.0530  -37.4760 C   0  0  0  0  0  0  0  0  0  0  0  0
  -22.0890   -0.2720  -37.8610 O   0  0  0  0  0  0  0  0  0  0  0  0
  -21.2230    0.0360  -36.8570 C   0  0  0  0  0  0  0  0  0  0  0  0
  -19.9570   -0.0280  -36.8210 O   0  0  0  0  0  0  0  0  0  0  0  0
  -24.1220    0.9550  -38.3460 C   0  0  0  0  0  0  0  0  0  0  0  0
  -24.1310   -1.3790  -37.5300 C   0  0  0  0  0  0  0  0  0  0  0  0
  -18.1830    2.3630  -33.8430 C   0  0  0  0  0  0  0  0  0  0  0  0
  -22.4060   -1.7220  -33.4920 H   0  0  0  0  0  0  0  0  0  0  0  0
  -17.7850   -0.2850  -32.6000 H   0  0  0  0  0  0  0  0  0  0  0  0
  -18.5510   -2.5270  -31.9050 H   0  0  0  0  0  0  0  0  0  0  0  0
  -25.3790    0.7770  -35.5170 H   0  0  0  0  0  0  0  0  0  0  0  0
  -26.0230    1.6900  -33.3360 H   0  0  0  0  0  0  0  0  0  0  0  0
  -24.8340    1.9360  -31.9980 H   0  0  0  0  0  0  0  0  0  0  0  0
  -23.4110    1.5810  -38.9410 H   0  0  0  0  0  0  0  0  0  0  0  0
  -24.8330    0.4130  -38.9970 H   0  0  0  0  0  0  0  0  0  0  0  0
  -24.7000    1.6070  -37.6730 H   0  0  0  0  0  0  0  0  0  0  0  0
  -23.4130   -2.2010  -37.3430 H   0  0  0  0  0  0  0  0  0  0  0  0
  -24.6210   -1.5140  -38.5120 H   0  0  0  0  0  0  0  0  0  0  0  0
  -24.9270   -1.4330  -36.7620 H   0  0  0  0  0  0  0  0  0  0  0  0
  -18.3620    3.2320  -33.1530 H   0  0  0  0  0  0  0  0  0  0  0  0
  -17.3830    1.7520  -33.3710 H   0  0  0  0  0  0  0  0  0  0  0  0
  -17.8640    2.7180  -34.8230 H   0  0  0  0  0  0  0  0  0  0  0  0
  2  7  1  0  0  0  0
  2  1  1  0  0  0  0
  3  2  2  0  0  0  0
  4  5  2  0  0  0  0
  4  3  1  0  0  0  0
  5  6  1  0  0  0  0
  6 28  1  0  0  0  0
  6  7  2  0  0  0  0
  7 29  1  0  0  0  0
  8 26  1  0  0  0  0
  8  5  1  0  0  0  0
  9 11  1  0  0  0  0
  9  8  1  0  0  0  0
 10  9  2  0  0  0  0
 11 12  1  6  0  0  0
 11  4  1  0  0  0  0
 11 16  1  0  0  0  0
 13 12  2  0  0  0  0
 13 14  1  0  0  0  0
 14 15  1  0  0  0  0
 15 16  2  0  0  0  0
 15 19  1  0  0  0  0
 16 17  1  0  0  0  0
 17 18  3  0  0  0  0
 19 32  1  0  0  0  0
 20 13  1  0  0  0  0
 21 20  1  0  0  0  0
 21 22  1  0  0  0  0
 22 23  2  0  0  0  0
 22 12  1  0  0  0  0
 24 35  1  0  0  0  0
 24 20  1  0  0  0  0
 25 20  1  0  0  0  0
 25 36  1  0  0  0  0
 25 38  1  0  0  0  0
 26 40  1  0  0  0  0
 26 39  1  0  0  0  0
 27  3  1  0  0  0  0
 30 14  1  0  0  0  0
 31 19  1  0  0  0  0
 33 24  1  0  0  0  0
 34 24  1  0  0  0  0
 37 25  1  0  0  0  0
 41 26  1  0  0  0  0
M  END
>  <Pose>
1

>  <Score>
-4.92

$$$$
