
 OpenBabel03222201593D

 41 44  0  0  0  0  0  0  0  0999 V2000
  -17.9870    5.2860  -28.5470 B   0  0  0  0  0  0  0  0  0  0  0  0
  -17.5280    4.7240  -26.7930 C   0  0  0  0  0  0  0  0  0  0  0  0
  -17.7110    3.4370  -26.3740 C   0  0  0  0  0  0  0  0  0  0  0  0
  -17.3770    3.0420  -25.0970 C   0  0  0  0  0  0  0  0  0  0  0  0
  -16.8490    3.9000  -24.1850 C   0  0  0  0  0  0  0  0  0  0  0  0
  -16.6580    5.2200  -24.6060 C   0  0  0  0  0  0  0  0  0  0  0  0
  -16.9890    5.6190  -25.8770 C   0  0  0  0  0  0  0  0  0  0  0  0
  -16.5920    3.2630  -22.9520 N   0  0  0  0  0  0  0  0  0  0  0  0
  -16.9790    1.8900  -23.0470 C   0  0  0  0  0  0  0  0  0  0  0  0
  -16.9330    0.9780  -22.2180 O   0  0  0  0  0  0  0  0  0  0  0  0
  -17.4920    1.7340  -24.4410 C   0  0  0  0  0  0  0  0  0  0  0  0
  -17.8820    0.6770  -24.8300 N   0  0  0  0  0  0  0  0  0  0  0  0
  -18.0750   -0.5990  -24.4370 N   0  0  0  0  0  0  0  0  0  0  0  0
  -18.1150   -1.6390  -25.3840 C   0  0  0  0  0  0  0  0  0  0  0  0
  -18.7510   -2.7090  -25.0800 O   0  0  0  0  0  0  0  0  0  0  0  0
  -17.5110   -1.6520  -26.7200 C   0  0  0  0  0  0  0  0  0  0  0  0
  -18.2260   -0.9510  -27.7480 N   0  0  0  0  0  0  0  0  0  0  0  0
  -19.5850   -1.2490  -28.0490 C   0  0  0  0  0  0  0  0  0  0  0  0
  -20.4600   -0.4500  -27.5340 O   0  0  0  0  0  0  0  0  0  0  0  0
  -20.0600   -2.3330  -28.8530 C   0  0  0  0  0  0  0  0  0  0  0  0
  -20.5840   -2.2180  -30.1320 C   0  0  0  0  0  0  0  0  0  0  0  0
  -21.0090   -3.2880  -30.8430 C   0  0  0  0  0  0  0  0  0  0  0  0
  -20.9390   -4.5640  -30.3210 C   0  0  0  0  0  0  0  0  0  0  0  0
  -20.4360   -4.7250  -29.0680 C   0  0  0  0  0  0  0  0  0  0  0  0
  -19.9880   -3.6280  -28.3170 C   0  0  0  0  0  0  0  0  0  0  0  0
  -21.4380   -5.4640  -31.2770 O   0  0  0  0  0  0  0  0  0  0  0  0
  -21.0790   -4.8120  -32.5200 C   0  0  0  0  0  0  0  0  0  0  0  0
  -21.5740   -3.4740  -32.1590 O   0  0  0  0  0  0  0  0  0  0  0  0
  -18.1200    2.7170  -27.0450 H   0  0  0  0  0  0  0  0  0  0  0  0
  -16.2510    5.9060  -23.9140 H   0  0  0  0  0  0  0  0  0  0  0  0
  -16.8540    6.6230  -26.2460 H   0  0  0  0  0  0  0  0  0  0  0  0
  -16.1920    3.6900  -22.0830 H   0  0  0  0  0  0  0  0  0  0  0  0
  -18.2010   -0.8320  -23.4140 H   0  0  0  0  0  0  0  0  0  0  0  0
  -16.5110   -1.1480  -26.6310 H   0  0  0  0  0  0  0  0  0  0  0  0
  -17.3240   -2.7010  -27.0390 H   0  0  0  0  0  0  0  0  0  0  0  0
  -17.7840   -0.2170  -28.3220 H   0  0  0  0  0  0  0  0  0  0  0  0
  -20.6640   -1.2110  -30.5810 H   0  0  0  0  0  0  0  0  0  0  0  0
  -20.3800   -5.7420  -28.6400 H   0  0  0  0  0  0  0  0  0  0  0  0
  -19.6000   -3.7380  -27.3560 H   0  0  0  0  0  0  0  0  0  0  0  0
  -21.5370   -5.2000  -33.3950 H   0  0  0  0  0  0  0  0  0  0  0  0
  -19.9900   -4.7660  -32.5930 H   0  0  0  0  0  0  0  0  0  0  0  0
  1  2  1  0  0  0  0
  2  3  2  0  0  0  0
  2  7  1  0  0  0  0
  3  4  1  0  0  0  0
  4 11  1  0  0  0  0
  4  5  2  0  0  0  0
  5  8  1  0  0  0  0
  6  5  1  0  0  0  0
  6 30  1  0  0  0  0
  7  6  2  0  0  0  0
  8 32  1  0  0  0  0
  9  8  1  0  0  0  0
  9 10  2  0  0  0  0
 11  9  1  0  0  0  0
 12 11  2  0  0  0  0
 12 13  1  0  0  0  0
 13 33  1  0  0  0  0
 14 15  2  0  0  0  0
 14 13  1  0  0  0  0
 16 34  1  0  0  0  0
 16 14  1  0  0  0  0
 17 16  1  0  0  0  0
 18 17  1  0  0  0  0
 18 19  2  0  0  0  0
 20 25  1  0  0  0  0
 20 18  1  0  0  0  0
 21 20  2  0  0  0  0
 22 23  2  0  0  0  0
 22 21  1  0  0  0  0
 23 24  1  0  0  0  0
 24 38  1  0  0  0  0
 24 25  2  0  0  0  0
 25 39  1  0  0  0  0
 26 23  1  0  0  0  0
 27 28  1  0  0  0  0
 27 26  1  0  0  0  0
 28 22  1  0  0  0  0
 29  3  1  0  0  0  0
 31  7  1  0  0  0  0
 35 16  1  0  0  0  0
 36 17  1  0  0  0  0
 37 21  1  0  0  0  0
 40 27  1  0  0  0  0
 41 27  1  0  0  0  0
M  END
>  <Pose>
1

>  <Score>
-7.19

$$$$
