
 OpenBabel03222201593D

 51 56  0  0  1  0  0  0  0  0999 V2000
  -20.2690    5.0430  -38.6870 B   0  0  0  0  0  0  0  0  0  0  0  0
  -20.9760    4.2060  -37.1270 C   0  0  0  0  0  0  0  0  0  0  0  0
  -21.3660    2.8710  -37.1160 C   0  0  0  0  0  0  0  0  0  0  0  0
  -21.8730    2.2760  -35.9930 C   0  0  0  0  0  0  0  0  0  0  0  0
  -21.9830    3.0600  -34.8540 C   0  0  0  0  0  0  0  0  0  0  0  0
  -21.5990    4.3850  -34.8570 C   0  0  0  0  0  0  0  0  0  0  0  0
  -21.0920    4.9720  -35.9930 C   0  0  0  0  0  0  0  0  0  0  0  0
  -22.5230    2.2900  -33.7770 N   0  0  0  0  0  0  0  0  0  0  0  0
  -22.7640    0.9780  -34.2360 C   0  0  0  0  0  0  0  0  0  0  0  0
  -23.2270    0.0660  -33.5360 O   0  0  0  0  0  0  0  0  0  0  0  0
  -22.3620    0.9410  -35.6590 C   0  0  1  0  0  0  0  0  0  0  0  0
  -23.4920    0.4790  -36.4070 N   0  0  2  0  0  0  0  0  0  0  0  0
  -23.5290   -0.9580  -36.1420 C   0  0  2  0  0  0  0  0  0  0  0  0
  -22.1100   -1.3910  -35.9700 C   0  0  1  0  0  0  0  0  0  0  0  0
  -21.3300   -0.1230  -35.9400 C   0  0  2  0  0  0  0  0  0  0  0  0
  -20.3640   -0.3000  -34.8600 C   0  0  0  0  0  0  0  0  0  0  0  0
  -19.4150    0.4660  -34.5820 O   0  0  0  0  0  0  0  0  0  0  0  0
  -20.6600   -1.4820  -34.1590 N   0  0  0  0  0  0  0  0  0  0  0  0
  -21.8750   -2.0660  -34.6540 C   0  0  0  0  0  0  0  0  0  0  0  0
  -22.6030   -2.9440  -34.1260 O   0  0  0  0  0  0  0  0  0  0  0  0
  -19.8850   -2.0490  -33.1000 C   0  0  0  0  0  0  0  0  0  0  0  0
  -20.1490   -1.4900  -31.7500 C   0  0  2  0  0  0  0  0  0  0  0  0
  -19.2690   -0.4800  -31.3780 O   0  0  0  0  0  0  0  0  0  0  0  0
  -19.5420   -0.2870  -30.0300 C   0  0  0  0  0  0  0  0  0  0  0  0
  -19.8530   -1.6180  -29.4210 C   0  0  0  0  0  0  0  0  0  0  0  0
  -20.1850   -2.4810  -30.6380 C   0  0  0  0  0  0  0  0  0  0  0  0
  -24.0680   -1.5920  -37.4160 C   0  0  0  0  0  0  0  0  0  0  0  0
  -24.3600   -0.4450  -38.3610 C   0  0  0  0  0  0  0  0  0  0  0  0
  -23.3580    0.5960  -37.8440 C   0  0  0  0  0  0  0  0  0  0  0  0
  -21.2370    2.3420  -38.0620 H   0  0  0  0  0  0  0  0  0  0  0  0
  -21.6800    5.0230  -33.9650 H   0  0  0  0  0  0  0  0  0  0  0  0
  -20.7860    6.0340  -35.9850 H   0  0  0  0  0  0  0  0  0  0  0  0
  -22.7040    2.6660  -32.8000 H   0  0  0  0  0  0  0  0  0  0  0  0
  -24.1730   -1.1850  -35.2790 H   0  0  0  0  0  0  0  0  0  0  0  0
  -21.7840   -2.0820  -36.7930 H   0  0  0  0  0  0  0  0  0  0  0  0
  -20.8630    0.1190  -36.9150 H   0  0  0  0  0  0  0  0  0  0  0  0
  -20.1080   -3.1380  -33.0670 H   0  0  0  0  0  0  0  0  0  0  0  0
  -18.7840   -1.9820  -33.2820 H   0  0  0  0  0  0  0  0  0  0  0  0
  -21.1630   -1.0030  -31.7880 H   0  0  0  0  0  0  0  0  0  0  0  0
  -18.5850    0.0760  -29.5590 H   0  0  0  0  0  0  0  0  0  0  0  0
  -20.3220    0.4810  -29.8550 H   0  0  0  0  0  0  0  0  0  0  0  0
  -20.7160   -1.5900  -28.7250 H   0  0  0  0  0  0  0  0  0  0  0  0
  -18.9540   -2.0690  -28.9510 H   0  0  0  0  0  0  0  0  0  0  0  0
  -19.5130   -3.3310  -30.7350 H   0  0  0  0  0  0  0  0  0  0  0  0
  -21.2240   -2.9070  -30.5150 H   0  0  0  0  0  0  0  0  0  0  0  0
  -24.9350   -2.2360  -37.2330 H   0  0  0  0  0  0  0  0  0  0  0  0
  -23.2980   -2.2330  -37.9140 H   0  0  0  0  0  0  0  0  0  0  0  0
  -25.3810   -0.0650  -38.2920 H   0  0  0  0  0  0  0  0  0  0  0  0
  -24.1170   -0.6600  -39.4010 H   0  0  0  0  0  0  0  0  0  0  0  0
  -23.6330    1.5760  -38.2350 H   0  0  0  0  0  0  0  0  0  0  0  0
  -22.3890    0.2730  -38.2390 H   0  0  0  0  0  0  0  0  0  0  0  0
  1  2  1  0  0  0  0
  2  3  2  0  0  0  0
  2  7  1  0  0  0  0
  3  4  1  0  0  0  0
  4  5  2  0  0  0  0
  5  8  1  0  0  0  0
  6  5  1  0  0  0  0
  6 31  1  0  0  0  0
  7 32  1  0  0  0  0
  7  6  2  0  0  0  0
  8 33  1  0  0  0  0
  9  8  1  0  0  0  0
  9 10  2  0  0  0  0
 11  4  1  6  0  0  0
 11  9  1  0  0  0  0
 12 29  1  6  0  0  0
 12 13  1  0  0  0  0
 12 11  1  0  0  0  0
 13 14  1  0  0  0  0
 13 34  1  1  0  0  0
 14 35  1  6  0  0  0
 14 15  1  0  0  0  0
 14 19  1  0  0  0  0
 15 36  1  6  0  0  0
 15 11  1  0  0  0  0
 15 16  1  0  0  0  0
 16 17  2  0  0  0  0
 16 18  1  0  0  0  0
 18 21  1  0  0  0  0
 19 18  1  0  0  0  0
 19 20  2  0  0  0  0
 21 37  1  0  0  0  0
 21 22  1  0  0  0  0
 22 39  1  6  0  0  0
 22 23  1  0  0  0  0
 22 26  1  0  0  0  0
 23 24  1  0  0  0  0
 24 41  1  0  0  0  0
 24 40  1  0  0  0  0
 24 25  1  0  0  0  0
 25 43  1  0  0  0  0
 25 42  1  0  0  0  0
 26 45  1  0  0  0  0
 26 25  1  0  0  0  0
 27 46  1  0  0  0  0
 27 13  1  0  0  0  0
 28 48  1  0  0  0  0
 28 29  1  0  0  0  0
 28 27  1  0  0  0  0
 30  3  1  0  0  0  0
 38 21  1  0  0  0  0
 44 26  1  0  0  0  0
 47 27  1  0  0  0  0
 49 28  1  0  0  0  0
 50 29  1  0  0  0  0
 51 29  1  0  0  0  0
M  END
>  <Pose>
1

>  <Score>
-5.21

$$$$
