
 OpenBabel03222201593D

 53 57  0  0  1  0  0  0  0  0999 V2000
  -17.9950    1.4110  -37.8020 B   0  0  0  0  0  0  0  0  0  0  0  0
  -19.8020    1.9030  -38.1740 C   0  0  0  0  0  0  0  0  0  0  0  0
  -20.8440    1.0050  -38.1040 C   0  0  0  0  0  0  0  0  0  0  0  0
  -22.1700    1.3700  -38.3840 C   0  0  0  0  0  0  0  0  0  0  0  0
  -22.4020    2.6770  -38.7370 C   0  0  0  0  0  0  0  0  0  0  0  0
  -21.3570    3.5870  -38.8090 C   0  0  0  0  0  0  0  0  0  0  0  0
  -20.0590    3.2170  -38.5330 C   0  0  0  0  0  0  0  0  0  0  0  0
  -23.7740    2.8940  -39.0040 N   0  0  0  0  0  0  0  0  0  0  0  0
  -24.4410    1.6660  -38.8110 C   0  0  0  0  0  0  0  0  0  0  0  0
  -25.6870    1.5370  -38.9760 O   0  0  0  0  0  0  0  0  0  0  0  0
  -23.4440    0.6520  -38.4090 C   0  0  1  0  0  0  0  0  0  0  0  0
  -23.4090   -0.4440  -39.3820 N   0  0  0  0  0  0  0  0  0  0  0  0
  -23.0920   -1.6300  -38.6180 C   0  0  1  0  0  0  0  0  0  0  0  0
  -23.5380   -1.4150  -37.2260 C   0  0  2  0  0  0  0  0  0  0  0  0
  -23.9000    0.0570  -37.1300 C   0  0  1  0  0  0  0  0  0  0  0  0
  -23.2830    0.5320  -35.8970 C   0  0  0  0  0  0  0  0  0  0  0  0
  -23.2290    1.7220  -35.5000 O   0  0  0  0  0  0  0  0  0  0  0  0
  -22.7210   -0.5770  -35.1630 N   0  0  0  0  0  0  0  0  0  0  0  0
  -22.5140   -1.5840  -36.1760 C   0  0  0  0  0  0  0  0  0  0  0  0
  -21.6190   -2.4410  -36.1480 O   0  0  0  0  0  0  0  0  0  0  0  0
  -22.4530   -0.6950  -33.7650 C   0  0  0  0  0  0  0  0  0  0  0  0
  -21.5750    0.3660  -33.1690 C   0  0  0  0  0  0  0  0  0  0  0  0
  -20.3100   -0.1240  -32.5940 C   0  0  0  0  0  0  0  0  0  0  0  0
  -19.1390   -0.0220  -33.3360 C   0  0  0  0  0  0  0  0  0  0  0  0
  -17.9660   -0.4450  -32.8080 C   0  0  0  0  0  0  0  0  0  0  0  0
  -17.8720   -0.9780  -31.5550 C   0  0  0  0  0  0  0  0  0  0  0  0
  -19.0460   -1.0740  -30.8230 C   0  0  0  0  0  0  0  0  0  0  0  0
  -20.2410   -0.6560  -31.3330 C   0  0  0  0  0  0  0  0  0  0  0  0
  -23.6960   -2.8500  -39.2720 C   0  0  1  0  0  0  0  0  0  0  0  0
  -22.7150   -3.7930  -39.5090 O   0  0  0  0  0  0  0  0  0  0  0  0
  -24.8560   -3.4090  -38.4840 C   0  0  0  0  0  0  0  0  0  0  0  0
  -20.6160   -0.0100  -37.8210 H   0  0  0  0  0  0  0  0  0  0  0  0
  -21.5290    4.6270  -39.0880 H   0  0  0  0  0  0  0  0  0  0  0  0
  -19.2250    3.9190  -38.5840 H   0  0  0  0  0  0  0  0  0  0  0  0
  -24.2140    3.8100  -39.2930 H   0  0  0  0  0  0  0  0  0  0  0  0
  -22.6980   -0.2700  -40.1290 H   0  0  0  0  0  0  0  0  0  0  0  0
  -21.9960   -1.7660  -38.6450 H   0  0  0  0  0  0  0  0  0  0  0  0
  -24.4000   -2.0500  -36.9200 H   0  0  0  0  0  0  0  0  0  0  0  0
  -25.0060    0.1140  -36.9860 H   0  0  0  0  0  0  0  0  0  0  0  0
  -23.4590   -0.6970  -33.2440 H   0  0  0  0  0  0  0  0  0  0  0  0
  -21.9670   -1.6830  -33.5440 H   0  0  0  0  0  0  0  0  0  0  0  0
  -22.1270    0.9340  -32.3760 H   0  0  0  0  0  0  0  0  0  0  0  0
  -21.3780    1.1510  -33.9580 H   0  0  0  0  0  0  0  0  0  0  0  0
  -19.1720    0.3980  -34.3430 H   0  0  0  0  0  0  0  0  0  0  0  0
  -17.0680   -0.3420  -33.4370 H   0  0  0  0  0  0  0  0  0  0  0  0
  -16.9440   -1.3160  -31.1260 H   0  0  0  0  0  0  0  0  0  0  0  0
  -18.9720   -1.4970  -29.8200 H   0  0  0  0  0  0  0  0  0  0  0  0
  -21.1510   -0.7300  -30.7690 H   0  0  0  0  0  0  0  0  0  0  0  0
  -24.1020   -2.5190  -40.2550 H   0  0  0  0  0  0  0  0  0  0  0  0
  -22.1830   -3.9890  -38.7140 H   0  0  0  0  0  0  0  0  0  0  0  0
  -25.7970   -2.8710  -38.6650 H   0  0  0  0  0  0  0  0  0  0  0  0
  -24.6590   -3.4690  -37.4080 H   0  0  0  0  0  0  0  0  0  0  0  0
  -25.0160   -4.4570  -38.8410 H   0  0  0  0  0  0  0  0  0  0  0  0
  2  3  1  0  0  0  0
  2  1  1  0  0  0  0
  3 32  1  0  0  0  0
  4  3  2  0  0  0  0
  5  4  1  0  0  0  0
  6  5  2  0  0  0  0
  6  7  1  0  0  0  0
  7  2  2  0  0  0  0
  8  9  1  0  0  0  0
  8  5  1  0  0  0  0
 10  9  2  0  0  0  0
 11  9  1  6  0  0  0
 11  4  1  0  0  0  0
 11 15  1  0  0  0  0
 12 13  1  0  0  0  0
 12 11  1  0  0  0  0
 13 37  1  1  0  0  0
 13 14  1  0  0  0  0
 14 15  1  0  0  0  0
 14 38  1  1  0  0  0
 14 19  1  0  0  0  0
 15 39  1  1  0  0  0
 15 16  1  0  0  0  0
 16 17  2  0  0  0  0
 16 18  1  0  0  0  0
 18 21  1  0  0  0  0
 19 20  2  0  0  0  0
 19 18  1  0  0  0  0
 21 41  1  0  0  0  0
 21 40  1  0  0  0  0
 21 22  1  0  0  0  0
 22 23  1  0  0  0  0
 22 42  1  0  0  0  0
 23 28  1  0  0  0  0
 24 25  1  0  0  0  0
 24 23  2  0  0  0  0
 25 26  2  0  0  0  0
 26 46  1  0  0  0  0
 26 27  1  0  0  0  0
 27 47  1  0  0  0  0
 28 27  2  0  0  0  0
 28 48  1  0  0  0  0
 29 49  1  6  0  0  0
 29 13  1  0  0  0  0
 29 31  1  0  0  0  0
 30 29  1  0  0  0  0
 30 50  1  0  0  0  0
 31 52  1  0  0  0  0
 33  6  1  0  0  0  0
 34  7  1  0  0  0  0
 35  8  1  0  0  0  0
 36 12  1  0  0  0  0
 43 22  1  0  0  0  0
 44 24  1  0  0  0  0
 45 25  1  0  0  0  0
 51 31  1  0  0  0  0
 53 31  1  0  0  0  0
M  END
>  <Pose>
1

>  <Score>
-5.52

$$$$
