
 OpenBabel03222201593D

 47 50  0  0  1  0  0  0  0  0999 V2000
  -16.6860    1.4620  -22.8650 B   0  0  0  0  0  0  0  0  0  0  0  0
  -17.5390    1.8790  -24.5190 C   0  0  0  0  0  0  0  0  0  0  0  0
  -17.8960    0.9190  -25.4390 C   0  0  0  0  0  0  0  0  0  0  0  0
  -18.5200    1.2310  -26.6470 C   0  0  0  0  0  0  0  0  0  0  0  0
  -18.7920    2.5440  -26.9400 C   0  0  0  0  0  0  0  0  0  0  0  0
  -18.4430    3.5330  -26.0340 C   0  0  0  0  0  0  0  0  0  0  0  0
  -17.8190    3.1920  -24.8290 C   0  0  0  0  0  0  0  0  0  0  0  0
  -19.4340    2.6400  -28.2150 N   0  0  0  0  0  0  0  0  0  0  0  0
  -19.5700    1.3310  -28.7420 C   0  0  0  0  0  0  0  0  0  0  0  0
  -20.1050    1.0880  -29.8420 O   0  0  0  0  0  0  0  0  0  0  0  0
  -18.9920    0.3970  -27.7890 C   0  0  2  0  0  0  0  0  0  0  0  0
  -20.0620   -0.5030  -27.3610 N   0  0  0  0  0  0  0  0  0  0  0  0
  -19.4560   -1.7940  -27.2360 C   0  0  2  0  0  0  0  0  0  0  0  0
  -18.4770   -1.8380  -28.3510 C   0  0  2  0  0  0  0  0  0  0  0  0
  -17.8740   -0.4530  -28.3150 C   0  0  1  0  0  0  0  0  0  0  0  0
  -17.4690   -0.1920  -29.6900 C   0  0  0  0  0  0  0  0  0  0  0  0
  -16.6630    0.6880  -30.0620 O   0  0  0  0  0  0  0  0  0  0  0  0
  -18.1530   -1.1140  -30.5280 N   0  0  0  0  0  0  0  0  0  0  0  0
  -19.0690   -1.8810  -29.7110 C   0  0  0  0  0  0  0  0  0  0  0  0
  -20.0940   -2.4110  -30.1700 O   0  0  0  0  0  0  0  0  0  0  0  0
  -17.9410   -1.2350  -31.9420 C   0  0  0  0  0  0  0  0  0  0  0  0
  -18.7730   -0.3350  -32.7930 C   0  0  0  0  0  0  0  0  0  0  0  0
  -18.0650    0.2490  -33.8300 O   0  0  0  0  0  0  0  0  0  0  0  0
  -18.2790    1.6240  -33.8890 C   0  0  0  0  0  0  0  0  0  0  0  0
  -20.4350   -2.9180  -27.1980 C   0  0  0  0  0  0  0  0  0  0  0  0
  -19.8630   -4.0520  -26.4640 C   0  0  0  0  0  0  0  0  0  0  0  0
  -19.2210   -3.8460  -25.3960 O   0  0  0  0  0  0  0  0  0  0  0  0
  -20.0220   -5.3870  -26.9410 N   0  0  0  0  0  0  0  0  0  0  0  0
  -17.6670   -0.1070  -25.1750 H   0  0  0  0  0  0  0  0  0  0  0  0
  -18.6640    4.5620  -26.2780 H   0  0  0  0  0  0  0  0  0  0  0  0
  -17.5540    3.9790  -24.1340 H   0  0  0  0  0  0  0  0  0  0  0  0
  -19.7420    3.5480  -28.6620 H   0  0  0  0  0  0  0  0  0  0  0  0
  -20.8020   -0.5650  -28.1000 H   0  0  0  0  0  0  0  0  0  0  0  0
  -18.8570   -1.8660  -26.2870 H   0  0  0  0  0  0  0  0  0  0  0  0
  -17.7010   -2.6280  -28.2220 H   0  0  0  0  0  0  0  0  0  0  0  0
  -17.0190   -0.5110  -27.6020 H   0  0  0  0  0  0  0  0  0  0  0  0
  -18.1860   -2.2770  -32.2500 H   0  0  0  0  0  0  0  0  0  0  0  0
  -16.8710   -1.0060  -32.1950 H   0  0  0  0  0  0  0  0  0  0  0  0
  -19.3070    0.4470  -32.2060 H   0  0  0  0  0  0  0  0  0  0  0  0
  -19.5670   -0.9560  -33.2550 H   0  0  0  0  0  0  0  0  0  0  0  0
  -17.6630    1.9940  -34.7570 H   0  0  0  0  0  0  0  0  0  0  0  0
  -19.3140    1.8950  -34.1180 H   0  0  0  0  0  0  0  0  0  0  0  0
  -17.8610    2.1490  -33.0010 H   0  0  0  0  0  0  0  0  0  0  0  0
  -21.4350   -2.6590  -26.8210 H   0  0  0  0  0  0  0  0  0  0  0  0
  -20.5880   -3.2590  -28.2550 H   0  0  0  0  0  0  0  0  0  0  0  0
  -19.7230   -5.6390  -27.9050 H   0  0  0  0  0  0  0  0  0  0  0  0
  -20.4400   -6.1070  -26.3160 H   0  0  0  0  0  0  0  0  0  0  0  0
  2  1  1  0  0  0  0
  3 29  1  0  0  0  0
  3  2  2  0  0  0  0
  4  3  1  0  0  0  0
  5  4  2  0  0  0  0
  5  6  1  0  0  0  0
  6  7  2  0  0  0  0
  7  2  1  0  0  0  0
  7 31  1  0  0  0  0
  8  5  1  0  0  0  0
  9  8  1  0  0  0  0
 10  9  2  0  0  0  0
 11  9  1  6  0  0  0
 11 12  1  0  0  0  0
 11  4  1  0  0  0  0
 12 13  1  0  0  0  0
 13 25  1  0  0  0  0
 13 34  1  1  0  0  0
 14 15  1  0  0  0  0
 14 35  1  1  0  0  0
 14 13  1  0  0  0  0
 15 11  1  0  0  0  0
 15 36  1  1  0  0  0
 16 15  1  0  0  0  0
 17 16  2  0  0  0  0
 18 19  1  0  0  0  0
 18 16  1  0  0  0  0
 19 14  1  0  0  0  0
 20 19  2  0  0  0  0
 21 18  1  0  0  0  0
 22 39  1  0  0  0  0
 22 21  1  0  0  0  0
 23 22  1  0  0  0  0
 24 23  1  0  0  0  0
 24 43  1  0  0  0  0
 25 44  1  0  0  0  0
 25 26  1  0  0  0  0
 26 27  2  0  0  0  0
 28 26  1  0  0  0  0
 28 47  1  0  0  0  0
 30  6  1  0  0  0  0
 32  8  1  0  0  0  0
 33 12  1  0  0  0  0
 37 21  1  0  0  0  0
 38 21  1  0  0  0  0
 40 22  1  0  0  0  0
 41 24  1  0  0  0  0
 42 24  1  0  0  0  0
 45 25  1  0  0  0  0
 46 28  1  0  0  0  0
M  END
>  <Pose>
1

>  <Score>
-6.38

$$$$
