
 OpenBabel03222201593D

 37 40  0  0  0  0  0  0  0  0999 V2000
  -21.5650   -4.7730  -31.8990 B   0  0  0  0  0  0  0  0  0  0  0  0
  -20.8000   -3.9500  -30.3420 C   0  0  0  0  0  0  0  0  0  0  0  0
  -20.0210   -2.8190  -30.4610 C   0  0  0  0  0  0  0  0  0  0  0  0
  -19.4750   -2.2320  -29.3390 C   0  0  0  0  0  0  0  0  0  0  0  0
  -19.6700   -2.7280  -28.0640 C   0  0  0  0  0  0  0  0  0  0  0  0
  -20.4590   -3.8720  -27.9620 C   0  0  0  0  0  0  0  0  0  0  0  0
  -21.0090   -4.4640  -29.0790 C   0  0  0  0  0  0  0  0  0  0  0  0
  -19.1900   -2.2560  -26.8270 N   0  0  0  0  0  0  0  0  0  0  0  0
  -19.2310   -2.9640  -25.7090 N   0  0  0  0  0  0  0  0  0  0  0  0
  -18.7040   -2.2260  -24.7450 N   0  0  0  0  0  0  0  0  0  0  0  0
  -18.3380   -1.0730  -25.2520 N   0  0  0  0  0  0  0  0  0  0  0  0
  -18.6310   -1.0540  -26.5760 C   0  0  0  0  0  0  0  0  0  0  0  0
  -18.3270    0.1230  -27.3910 C   0  0  0  0  0  0  0  0  0  0  0  0
  -18.0720   -0.1030  -28.7710 N   0  0  0  0  0  0  0  0  0  0  0  0
  -18.6770   -1.0430  -29.6450 C   0  0  0  0  0  0  0  0  0  0  0  0
  -18.5420   -0.8830  -30.8870 O   0  0  0  0  0  0  0  0  0  0  0  0
  -19.4580    1.1610  -27.3240 C   0  0  0  0  0  0  0  0  0  0  0  0
  -18.8550    2.5400  -27.4160 C   0  0  0  0  0  0  0  0  0  0  0  0
  -18.2950    2.8560  -26.1220 N   0  0  0  0  0  0  0  0  0  0  0  0
  -17.4940    1.7480  -25.6730 C   0  0  0  0  0  0  0  0  0  0  0  0
  -17.1050    0.8070  -26.7870 C   0  0  0  0  0  0  0  0  0  0  0  0
  -19.4080    3.1220  -25.2120 C   0  0  0  0  0  0  0  0  0  0  0  0
  -19.8170   -2.3640  -31.4240 H   0  0  0  0  0  0  0  0  0  0  0  0
  -20.6150   -4.2650  -26.9680 H   0  0  0  0  0  0  0  0  0  0  0  0
  -21.6160   -5.3480  -28.9700 H   0  0  0  0  0  0  0  0  0  0  0  0
  -17.3420    0.5060  -29.1950 H   0  0  0  0  0  0  0  0  0  0  0  0
  -20.1280    1.0530  -28.2210 H   0  0  0  0  0  0  0  0  0  0  0  0
  -20.0720    0.9940  -26.4440 H   0  0  0  0  0  0  0  0  0  0  0  0
  -18.0450    2.5150  -28.1620 H   0  0  0  0  0  0  0  0  0  0  0  0
  -19.5950    3.2740  -27.7400 H   0  0  0  0  0  0  0  0  0  0  0  0
  -18.0130    1.2490  -24.8490 H   0  0  0  0  0  0  0  0  0  0  0  0
  -16.5530    2.1650  -25.2640 H   0  0  0  0  0  0  0  0  0  0  0  0
  -16.4960    1.3280  -27.5240 H   0  0  0  0  0  0  0  0  0  0  0  0
  -16.4810    0.0090  -26.3320 H   0  0  0  0  0  0  0  0  0  0  0  0
  -19.3630    2.3440  -24.4180 H   0  0  0  0  0  0  0  0  0  0  0  0
  -19.3570    4.1450  -24.7830 H   0  0  0  0  0  0  0  0  0  0  0  0
  -20.3890    3.0560  -25.7420 H   0  0  0  0  0  0  0  0  0  0  0  0
  1  2  1  0  0  0  0
  2  7  1  0  0  0  0
  3  2  2  0  0  0  0
  3  4  1  0  0  0  0
  4  5  2  0  0  0  0
  5  6  1  0  0  0  0
  5  8  1  0  0  0  0
  6 24  1  0  0  0  0
  7 25  1  0  0  0  0
  7  6  2  0  0  0  0
  8 12  1  0  0  0  0
  8  9  1  0  0  0  0
  9 10  2  0  0  0  0
 11 10  1  0  0  0  0
 12 11  2  0  0  0  0
 13 17  1  0  0  0  0
 13 21  1  0  0  0  0
 13 12  1  0  0  0  0
 14 13  1  0  0  0  0
 15  4  1  0  0  0  0
 15 14  1  0  0  0  0
 16 15  2  0  0  0  0
 17 28  1  0  0  0  0
 18 17  1  0  0  0  0
 18 19  1  0  0  0  0
 19 20  1  0  0  0  0
 19 22  1  0  0  0  0
 20 32  1  0  0  0  0
 20 31  1  0  0  0  0
 21 34  1  0  0  0  0
 21 20  1  0  0  0  0
 22 36  1  0  0  0  0
 22 35  1  0  0  0  0
 23  3  1  0  0  0  0
 26 14  1  0  0  0  0
 27 17  1  0  0  0  0
 29 18  1  0  0  0  0
 30 18  1  0  0  0  0
 33 21  1  0  0  0  0
 37 22  1  0  0  0  0
M  END
>  <Pose>
1

>  <Score>
-5.53

$$$$
