
 OpenBabel03222201593D

 33 36  0  0  1  0  0  0  0  0999 V2000
  -21.8070   -5.2660  -31.9950 B   0  0  0  0  0  0  0  0  0  0  0  0
  -20.9650   -4.5510  -30.4500 C   0  0  0  0  0  0  0  0  0  0  0  0
  -20.5200   -3.2580  -30.4770 C   0  0  0  0  0  0  0  0  0  0  0  0
  -19.9000   -2.7330  -29.3390 C   0  0  0  0  0  0  0  0  0  0  0  0
  -19.7600   -3.5210  -28.2460 C   0  0  0  0  0  0  0  0  0  0  0  0
  -20.2200   -4.8540  -28.2220 C   0  0  0  0  0  0  0  0  0  0  0  0
  -20.8280   -5.3670  -29.3420 C   0  0  0  0  0  0  0  0  0  0  0  0
  -19.1550   -3.0480  -27.0960 O   0  0  0  0  0  0  0  0  0  0  0  0
  -18.6920   -1.7500  -27.0800 C   0  0  0  0  0  0  0  0  0  0  0  0
  -18.7910   -0.9290  -28.0980 C   0  0  0  0  0  0  0  0  0  0  0  0
  -19.4130   -1.3370  -29.3510 C   0  0  1  0  0  0  0  0  0  0  0  0
  -18.5570   -1.0720  -30.5320 C   0  0  0  0  0  0  0  0  0  0  0  0
  -19.1880   -0.1590  -31.3310 C   0  0  0  0  0  0  0  0  0  0  0  0
  -18.3960    0.0830  -32.4170 N   0  0  0  0  0  0  0  0  0  0  0  0
  -17.3180   -0.6670  -32.2690 N   0  0  0  0  0  0  0  0  0  0  0  0
  -17.3730   -1.3850  -31.1390 C   0  0  0  0  0  0  0  0  0  0  0  0
  -16.3060   -2.3290  -30.6900 C   0  0  0  0  0  0  0  0  0  0  0  0
  -20.4280    0.2280  -30.7810 N   0  0  0  0  0  0  0  0  0  0  0  0
  -20.5930   -0.4740  -29.5750 C   0  0  0  0  0  0  0  0  0  0  0  0
  -21.5710   -0.4070  -28.7840 O   0  0  0  0  0  0  0  0  0  0  0  0
  -18.2820    0.4180  -28.0050 C   0  0  0  0  0  0  0  0  0  0  0  0
  -17.8720    1.4970  -27.9110 N   0  0  0  0  0  0  0  0  0  0  0  0
  -18.0650   -1.2740  -25.8790 N   0  0  0  0  0  0  0  0  0  0  0  0
  -20.6100   -2.5950  -31.3220 H   0  0  0  0  0  0  0  0  0  0  0  0
  -20.0940   -5.4620  -27.3310 H   0  0  0  0  0  0  0  0  0  0  0  0
  -21.2060   -6.3790  -29.3950 H   0  0  0  0  0  0  0  0  0  0  0  0
  -16.5420   -0.6630  -32.9830 H   0  0  0  0  0  0  0  0  0  0  0  0
  -16.6070   -2.8350  -29.7680 H   0  0  0  0  0  0  0  0  0  0  0  0
  -15.3530   -1.7570  -30.5710 H   0  0  0  0  0  0  0  0  0  0  0  0
  -16.0920   -3.1040  -31.4690 H   0  0  0  0  0  0  0  0  0  0  0  0
  -21.1070    0.9330  -31.2240 H   0  0  0  0  0  0  0  0  0  0  0  0
  -18.2590   -0.3040  -25.5470 H   0  0  0  0  0  0  0  0  0  0  0  0
  -17.4130   -1.8650  -25.3150 H   0  0  0  0  0  0  0  0  0  0  0  0
  1  2  1  0  0  0  0
  2  7  1  0  0  0  0
  3  2  2  0  0  0  0
  3  4  1  0  0  0  0
  4  5  2  0  0  0  0
  5  6  1  0  0  0  0
  5  8  1  0  0  0  0
  6 25  1  0  0  0  0
  7  6  2  0  0  0  0
  8  9  1  0  0  0  0
  9 23  1  0  0  0  0
 10 21  1  0  0  0  0
 10  9  2  0  0  0  0
 11 12  1  6  0  0  0
 11  4  1  0  0  0  0
 11 10  1  0  0  0  0
 13 18  1  0  0  0  0
 13 12  1  0  0  0  0
 14 15  1  0  0  0  0
 14 13  2  0  0  0  0
 15 16  1  0  0  0  0
 16 17  1  0  0  0  0
 16 12  2  0  0  0  0
 17 29  1  0  0  0  0
 17 28  1  0  0  0  0
 18 19  1  0  0  0  0
 19 11  1  0  0  0  0
 19 20  2  0  0  0  0
 21 22  3  0  0  0  0
 23 32  1  0  0  0  0
 23 33  1  0  0  0  0
 24  3  1  0  0  0  0
 26  7  1  0  0  0  0
 27 15  1  0  0  0  0
 30 17  1  0  0  0  0
 31 18  1  0  0  0  0
M  END
>  <Pose>
1

>  <Score>
-5.36

$$$$
