
 OpenBabel03222201593D

 44 47  0  0  0  0  0  0  0  0999 V2000
  -20.2570   -5.0140  -27.6630 B   0  0  0  0  0  0  0  0  0  0  0  0
  -20.0790   -3.2890  -28.4260 C   0  0  0  0  0  0  0  0  0  0  0  0
  -20.1110   -3.0970  -29.7960 C   0  0  0  0  0  0  0  0  0  0  0  0
  -19.9970   -1.8570  -30.3960 C   0  0  0  0  0  0  0  0  0  0  0  0
  -19.8460   -0.7600  -29.5720 C   0  0  0  0  0  0  0  0  0  0  0  0
  -19.8060   -0.8890  -28.1920 C   0  0  0  0  0  0  0  0  0  0  0  0
  -19.9220   -2.1410  -27.6360 C   0  0  0  0  0  0  0  0  0  0  0  0
  -19.7330    0.4500  -30.1250 O   0  0  0  0  0  0  0  0  0  0  0  0
  -19.7580    0.6490  -31.3960 C   0  0  0  0  0  0  0  0  0  0  0  0
  -19.6530    1.7970  -31.9300 O   0  0  0  0  0  0  0  0  0  0  0  0
  -19.9050   -0.4050  -32.2720 C   0  0  0  0  0  0  0  0  0  0  0  0
  -20.0240   -1.6760  -31.7560 C   0  0  0  0  0  0  0  0  0  0  0  0
  -19.8990   -0.1850  -33.7170 C   0  0  0  0  0  0  0  0  0  0  0  0
  -18.7390    0.1860  -34.3790 C   0  0  0  0  0  0  0  0  0  0  0  0
  -18.7360    0.3340  -35.7500 C   0  0  0  0  0  0  0  0  0  0  0  0
  -17.6340    0.6750  -36.2850 O   0  0  0  0  0  0  0  0  0  0  0  0
  -19.8150    0.1320  -36.4420 O   0  0  0  0  0  0  0  0  0  0  0  0
  -20.9160   -0.2110  -35.8940 C   0  0  0  0  0  0  0  0  0  0  0  0
  -21.0090   -0.3860  -34.5000 C   0  0  0  0  0  0  0  0  0  0  0  0
  -22.2020   -0.7410  -33.9420 C   0  0  0  0  0  0  0  0  0  0  0  0
  -23.2960   -0.9230  -34.7960 C   0  0  0  0  0  0  0  0  0  0  0  0
  -23.1710   -0.7480  -36.1590 C   0  0  0  0  0  0  0  0  0  0  0  0
  -21.9830   -0.3880  -36.7560 C   0  0  0  0  0  0  0  0  0  0  0  0
  -21.9080   -0.3230  -38.1900 C   0  0  0  0  0  0  0  0  0  0  0  0
  -21.7030   -1.4380  -39.0220 N   0  0  0  0  0  4  0  0  0  0  0  0
  -22.6760   -2.4930  -38.9710 C   0  0  0  0  0  0  0  0  0  0  0  0
  -21.3560   -1.0480  -40.4120 C   0  0  0  0  0  0  0  0  0  0  0  0
  -24.3340   -0.9630  -36.9310 O   0  0  0  0  0  0  0  0  0  0  0  0
  -20.2430   -3.9550  -30.4730 H   0  0  0  0  0  0  0  0  0  0  0  0
  -19.6770    0.0100  -27.6110 H   0  0  0  0  0  0  0  0  0  0  0  0
  -19.8990   -2.3180  -26.5670 H   0  0  0  0  0  0  0  0  0  0  0  0
  -20.1240   -2.5720  -32.4030 H   0  0  0  0  0  0  0  0  0  0  0  0
  -17.8480    0.3650  -33.7810 H   0  0  0  0  0  0  0  0  0  0  0  0
  -22.3110   -0.8510  -32.8700 H   0  0  0  0  0  0  0  0  0  0  0  0
  -24.2230   -1.2130  -34.3230 H   0  0  0  0  0  0  0  0  0  0  0  0
  -21.0280    0.3910  -38.4230 H   0  0  0  0  0  0  0  0  0  0  0  0
  -22.7650    0.2810  -38.6040 H   0  0  0  0  0  0  0  0  0  0  0  0
  -20.8150   -1.9120  -38.6870 H   0  0  0  0  0  0  0  0  0  0  0  0
  -23.4270   -2.4600  -39.8040 H   0  0  0  0  0  0  0  0  0  0  0  0
  -23.1790   -2.6130  -37.9840 H   0  0  0  0  0  0  0  0  0  0  0  0
  -22.2090   -3.5240  -39.1370 H   0  0  0  0  0  0  0  0  0  0  0  0
  -21.3920    0.0670  -40.5300 H   0  0  0  0  0  0  0  0  0  0  0  0
  -20.2830   -1.2680  -40.6570 H   0  0  0  0  0  0  0  0  0  0  0  0
  -21.9520   -1.6130  -41.1340 H   0  0  0  0  0  0  0  0  0  0  0  0
  2  1  1  0  0  0  0
  2  7  1  0  0  0  0
  3  2  2  0  0  0  0
  4  3  1  0  0  0  0
  4  5  2  0  0  0  0
  5  6  1  0  0  0  0
  6  7  2  0  0  0  0
  6 30  1  0  0  0  0
  7 31  1  0  0  0  0
  8  5  1  0  0  0  0
  9  8  1  0  0  0  0
 10  9  2  0  0  0  0
 11 12  2  0  0  0  0
 11  9  1  0  0  0  0
 12  4  1  0  0  0  0
 13 11  1  0  0  0  0
 14 33  1  0  0  0  0
 14 13  2  0  0  0  0
 15 14  1  0  0  0  0
 16 15  2  0  0  0  0
 17 18  1  0  0  0  0
 17 15  1  0  0  0  0
 18 19  1  0  0  0  0
 19 20  2  0  0  0  0
 19 13  1  0  0  0  0
 20 34  1  0  0  0  0
 21 35  1  0  0  0  0
 21 20  1  0  0  0  0
 22 21  2  0  0  0  0
 23 22  1  0  0  0  0
 23 18  2  0  0  0  0
 24 23  1  0  0  0  0
 25 26  1  0  0  0  0
 25 38  1  0  0  0  0
 25 24  1  0  0  0  0
 26 40  1  0  0  0  0
 27 25  1  0  0  0  0
 28 22  1  0  0  0  0
 29  3  1  0  0  0  0
 32 12  1  0  0  0  0
 36 24  1  0  0  0  0
 37 24  1  0  0  0  0
 39 26  1  0  0  0  0
 41 26  1  0  0  0  0
 42 27  1  0  0  0  0
 43 27  1  0  0  0  0
 44 27  1  0  0  0  0
M  END
>  <Pose>
1

>  <Score>
-6.16

$$$$
