
 OpenBabel03222201593D

 54 57  0  0  0  0  0  0  0  0999 V2000
  -24.3950    0.5400  -38.1900 B   0  0  0  0  0  0  0  0  0  0  0  0
  -23.5360    0.0070  -36.5670 C   0  0  0  0  0  0  0  0  0  0  0  0
  -22.5730    0.7890  -35.9550 C   0  0  0  0  0  0  0  0  0  0  0  0
  -21.9360    0.4330  -34.7870 C   0  0  0  0  0  0  0  0  0  0  0  0
  -22.2550   -0.7620  -34.1700 C   0  0  0  0  0  0  0  0  0  0  0  0
  -21.6340   -1.1350  -33.0230 N   0  0  0  0  0  0  0  0  0  0  0  0
  -20.6940   -0.3780  -32.4340 C   0  0  0  0  0  0  0  0  0  0  0  0
  -20.3820    0.7860  -33.0320 N   0  0  0  0  0  0  0  0  0  0  0  0
  -20.9720    1.2030  -34.1770 C   0  0  0  0  0  0  0  0  0  0  0  0
  -20.5950    2.4710  -34.7840 C   0  0  0  0  0  0  0  0  0  0  0  0
  -19.4220    2.6160  -35.5090 C   0  0  0  0  0  0  0  0  0  0  0  0
  -19.0440    3.8210  -36.0730 C   0  0  0  0  0  0  0  0  0  0  0  0
  -19.8960    4.9160  -35.8900 C   0  0  0  0  0  0  0  0  0  0  0  0
  -21.0700    4.8060  -35.1740 C   0  0  0  0  0  0  0  0  0  0  0  0
  -21.4010    3.6030  -34.6370 C   0  0  0  0  0  0  0  0  0  0  0  0
  -18.3710    1.2250  -35.7230 Cl  0  0  0  0  0  0  0  0  0  0  0  0
  -20.0640   -0.8020  -31.2300 N   0  0  0  0  0  4  0  0  0  0  0  0
  -19.6740    0.3320  -30.4220 C   0  0  0  0  0  0  0  0  0  0  0  0
  -19.4480   -0.1390  -29.0200 C   0  0  0  0  0  0  0  0  0  0  0  0
  -19.3360   -1.5830  -29.0290 N   0  0  0  0  0  0  0  0  0  0  0  0
  -18.5150   -2.1790  -30.0670 C   0  0  0  0  0  0  0  0  0  0  0  0
  -18.8930   -1.6120  -31.4410 C   0  0  0  0  0  0  0  0  0  0  0  0
  -20.0160   -2.3260  -28.0500 C   0  0  0  0  0  0  0  0  0  0  0  0
  -20.5680   -1.6960  -27.1140 O   0  0  0  0  0  0  0  0  0  0  0  0
  -20.0970   -3.7880  -28.0850 C   0  0  0  0  0  0  0  0  0  0  0  0
  -21.1520   -4.2170  -29.0630 C   0  0  0  0  0  0  0  0  0  0  0  0
  -20.5710   -4.8600  -30.3030 C   0  0  0  0  0  0  0  0  0  0  0  0
  -21.3550   -4.5830  -31.5220 C   0  0  0  0  0  0  0  0  0  0  0  0
  -20.9450   -5.0790  -32.5980 O   0  0  0  0  0  0  0  0  0  0  0  0
  -22.4980   -3.8010  -31.4510 O   0  0  0  0  0  0  0  0  0  0  0  0
  -23.2140   -1.5480  -34.7700 C   0  0  0  0  0  0  0  0  0  0  0  0
  -23.8530   -1.1830  -35.9500 C   0  0  0  0  0  0  0  0  0  0  0  0
  -22.3280    1.7140  -36.4570 H   0  0  0  0  0  0  0  0  0  0  0  0
  -18.1240    3.9300  -36.6410 H   0  0  0  0  0  0  0  0  0  0  0  0
  -19.5900    5.8670  -36.3390 H   0  0  0  0  0  0  0  0  0  0  0  0
  -21.7300    5.6700  -35.0390 H   0  0  0  0  0  0  0  0  0  0  0  0
  -22.3160    3.5120  -34.0710 H   0  0  0  0  0  0  0  0  0  0  0  0
  -20.7570   -1.3770  -30.7070 H   0  0  0  0  0  0  0  0  0  0  0  0
  -20.4970    1.0740  -30.4880 H   0  0  0  0  0  0  0  0  0  0  0  0
  -18.7720    0.7770  -30.8910 H   0  0  0  0  0  0  0  0  0  0  0  0
  -20.3080    0.2020  -28.4060 H   0  0  0  0  0  0  0  0  0  0  0  0
  -18.5320    0.3230  -28.5940 H   0  0  0  0  0  0  0  0  0  0  0  0
  -17.4730   -1.8520  -29.8720 H   0  0  0  0  0  0  0  0  0  0  0  0
  -18.5200   -3.2710  -30.0540 H   0  0  0  0  0  0  0  0  0  0  0  0
  -18.0610   -1.0660  -31.8980 H   0  0  0  0  0  0  0  0  0  0  0  0
  -19.1190   -2.4760  -32.0790 H   0  0  0  0  0  0  0  0  0  0  0  0
  -19.1360   -4.2630  -28.4370 H   0  0  0  0  0  0  0  0  0  0  0  0
  -20.2670   -4.2250  -27.0800 H   0  0  0  0  0  0  0  0  0  0  0  0
  -21.8340   -4.9850  -28.6150 H   0  0  0  0  0  0  0  0  0  0  0  0
  -21.7950   -3.3790  -29.3680 H   0  0  0  0  0  0  0  0  0  0  0  0
  -20.5690   -5.9550  -30.1350 H   0  0  0  0  0  0  0  0  0  0  0  0
  -19.5020   -4.5410  -30.4110 H   0  0  0  0  0  0  0  0  0  0  0  0
  -23.4660   -2.4840  -34.2890 H   0  0  0  0  0  0  0  0  0  0  0  0
  -24.6060   -1.7900  -36.4270 H   0  0  0  0  0  0  0  0  0  0  0  0
  1  2  1  0  0  0  0
  2  3  2  0  0  0  0
  2 32  1  0  0  0  0
  3  4  1  0  0  0  0
  4  9  1  0  0  0  0
  4  5  2  0  0  0  0
  5  6  1  0  0  0  0
  6  7  2  0  0  0  0
  7 17  1  0  0  0  0
  8  7  1  0  0  0  0
  9  8  2  0  0  0  0
 10 15  1  0  0  0  0
 10  9  1  0  0  0  0
 11 10  2  0  0  0  0
 12 13  2  0  0  0  0
 12 11  1  0  0  0  0
 13 14  1  0  0  0  0
 14 36  1  0  0  0  0
 14 15  2  0  0  0  0
 15 37  1  0  0  0  0
 16 11  1  0  0  0  0
 17 38  1  0  0  0  0
 17 18  1  0  0  0  0
 18 19  1  0  0  0  0
 19 42  1  0  0  0  0
 19 41  1  0  0  0  0
 20 19  1  0  0  0  0
 20 23  1  0  0  0  0
 21 44  1  0  0  0  0
 21 43  1  0  0  0  0
 21 20  1  0  0  0  0
 22 17  1  0  0  0  0
 22 21  1  0  0  0  0
 23 24  2  0  0  0  0
 25 23  1  0  0  0  0
 25 48  1  0  0  0  0
 26 49  1  0  0  0  0
 26 25  1  0  0  0  0
 27 51  1  0  0  0  0
 27 26  1  0  0  0  0
 28 30  1  0  0  0  0
 28 27  1  0  0  0  0
 29 28  2  0  0  0  0
 31 53  1  0  0  0  0
 31  5  1  0  0  0  0
 32 31  2  0  0  0  0
 33  3  1  0  0  0  0
 34 12  1  0  0  0  0
 35 13  1  0  0  0  0
 39 18  1  0  0  0  0
 40 18  1  0  0  0  0
 45 22  1  0  0  0  0
 46 22  1  0  0  0  0
 47 25  1  0  0  0  0
 50 26  1  0  0  0  0
 52 27  1  0  0  0  0
 54 32  1  0  0  0  0
M  END
>  <Pose>
1

>  <Score>
-5.01

$$$$
