
 OpenBabel03222201593D

 41 44  0  0  0  0  0  0  0  0999 V2000
  -18.6670   -2.0570  -25.1220 B   0  0  0  0  0  0  0  0  0  0  0  0
  -19.3620   -2.8500  -26.7050 C   0  0  0  0  0  0  0  0  0  0  0  0
  -19.4030   -2.1580  -27.8970 C   0  0  0  0  0  0  0  0  0  0  0  0
  -19.9040   -2.7200  -29.0540 C   0  0  0  0  0  0  0  0  0  0  0  0
  -20.3760   -4.0180  -28.9960 C   0  0  0  0  0  0  0  0  0  0  0  0
  -20.7970   -4.3040  -30.2410 N   0  0  0  0  0  0  0  0  0  0  0  0
  -20.6100   -3.2490  -31.0730 C   0  0  0  0  0  0  0  0  0  0  0  0
  -20.0430   -2.2310  -30.3350 C   0  0  0  0  0  0  0  0  0  0  0  0
  -19.7640   -1.0680  -30.9560 N   0  0  0  0  0  0  0  0  0  0  0  0
  -20.0210   -0.8760  -32.2640 C   0  0  0  0  0  0  0  0  0  0  0  0
  -20.5710   -1.8470  -33.0050 N   0  0  0  0  0  0  0  0  0  0  0  0
  -20.8570   -3.0130  -32.4060 C   0  0  0  0  0  0  0  0  0  0  0  0
  -21.3740   -3.9350  -33.0860 O   0  0  0  0  0  0  0  0  0  0  0  0
  -20.8570   -1.6430  -34.4360 C   0  0  0  0  0  0  0  0  0  0  0  0
  -22.3110   -1.4830  -34.6550 C   0  0  0  0  0  0  0  0  0  0  0  0
  -22.7120   -0.8770  -35.8720 N   0  0  0  0  0  0  0  0  0  0  0  0
  -23.8400   -1.4670  -36.5070 C   0  0  0  0  0  0  0  0  0  0  0  0
  -23.4770   -2.4520  -37.5810 C   0  0  0  0  0  0  0  0  0  0  0  0
  -22.3090   -2.0470  -38.3350 N   0  0  0  0  0  0  0  0  0  0  0  0
  -22.0260   -0.6340  -38.1480 C   0  0  0  0  0  0  0  0  0  0  0  0
  -21.6350   -0.4650  -36.7000 C   0  0  0  0  0  0  0  0  0  0  0  0
  -20.3290   -4.7000  -27.7940 C   0  0  0  0  0  0  0  0  0  0  0  0
  -19.8300   -4.1460  -26.6320 C   0  0  0  0  0  0  0  0  0  0  0  0
  -19.0360   -1.1400  -27.9540 H   0  0  0  0  0  0  0  0  0  0  0  0
  -21.2110   -5.2020  -30.5500 H   0  0  0  0  0  0  0  0  0  0  0  0
  -19.7880    0.0710  -32.7490 H   0  0  0  0  0  0  0  0  0  0  0  0
  -20.4690   -2.5620  -34.9310 H   0  0  0  0  0  0  0  0  0  0  0  0
  -20.2280   -0.8160  -34.7510 H   0  0  0  0  0  0  0  0  0  0  0  0
  -22.8190   -2.4630  -34.5540 H   0  0  0  0  0  0  0  0  0  0  0  0
  -22.7200   -0.8470  -33.8160 H   0  0  0  0  0  0  0  0  0  0  0  0
  -24.5140   -1.9470  -35.7710 H   0  0  0  0  0  0  0  0  0  0  0  0
  -24.4220   -0.6590  -37.0000 H   0  0  0  0  0  0  0  0  0  0  0  0
  -24.3030   -2.6240  -38.2980 H   0  0  0  0  0  0  0  0  0  0  0  0
  -23.2420   -3.4300  -37.1160 H   0  0  0  0  0  0  0  0  0  0  0  0
  -21.4700   -2.6290  -38.1100 H   0  0  0  0  0  0  0  0  0  0  0  0
  -22.9510   -0.0750  -38.3430 H   0  0  0  0  0  0  0  0  0  0  0  0
  -21.1980   -0.3940  -38.8450 H   0  0  0  0  0  0  0  0  0  0  0  0
  -21.4750    0.6320  -36.5030 H   0  0  0  0  0  0  0  0  0  0  0  0
  -20.6820   -0.9980  -36.5060 H   0  0  0  0  0  0  0  0  0  0  0  0
  -20.7010   -5.7230  -27.7500 H   0  0  0  0  0  0  0  0  0  0  0  0
  -19.7930   -4.6890  -25.6840 H   0  0  0  0  0  0  0  0  0  0  0  0
  2 23  1  0  0  0  0
  2  1  1  0  0  0  0
  3  2  2  0  0  0  0
  4  5  2  0  0  0  0
  4  3  1  0  0  0  0
  5 22  1  0  0  0  0
  6  5  1  0  0  0  0
  7  8  2  0  0  0  0
  7  6  1  0  0  0  0
  8  4  1  0  0  0  0
  9  8  1  0  0  0  0
 10  9  2  0  0  0  0
 11 12  1  0  0  0  0
 11 10  1  0  0  0  0
 12  7  1  0  0  0  0
 13 12  2  0  0  0  0
 14 11  1  0  0  0  0
 15 29  1  0  0  0  0
 15 14  1  0  0  0  0
 15 30  1  0  0  0  0
 16 15  1  0  0  0  0
 17 16  1  0  0  0  0
 17 31  1  0  0  0  0
 18 34  1  0  0  0  0
 18 17  1  0  0  0  0
 19 20  1  0  0  0  0
 19 35  1  0  0  0  0
 19 18  1  0  0  0  0
 20 21  1  0  0  0  0
 21 39  1  0  0  0  0
 21 38  1  0  0  0  0
 21 16  1  0  0  0  0
 22 40  1  0  0  0  0
 22 23  2  0  0  0  0
 23 41  1  0  0  0  0
 24  3  1  0  0  0  0
 25  6  1  0  0  0  0
 26 10  1  0  0  0  0
 27 14  1  0  0  0  0
 28 14  1  0  0  0  0
 32 17  1  0  0  0  0
 33 18  1  0  0  0  0
 36 20  1  0  0  0  0
 37 20  1  0  0  0  0
M  END
>  <Pose>
1

>  <Score>
-6.49

$$$$
