
 OpenBabel03222201593D

 37 40  0  0  0  0  0  0  0  0999 V2000
  -21.3070   -3.9220  -32.1740 B   0  0  0  0  0  0  0  0  0  0  0  0
  -20.5510   -3.5260  -30.4710 C   0  0  0  0  0  0  0  0  0  0  0  0
  -20.6540   -4.4600  -29.4620 C   0  0  0  0  0  0  0  0  0  0  0  0
  -20.1090   -4.1980  -28.1990 C   0  0  0  0  0  0  0  0  0  0  0  0
  -19.4840   -3.0090  -28.0040 C   0  0  0  0  0  0  0  0  0  0  0  0
  -19.3570   -2.0450  -28.9800 C   0  0  0  0  0  0  0  0  0  0  0  0
  -19.8990   -2.3240  -30.2080 C   0  0  0  0  0  0  0  0  0  0  0  0
  -18.7020   -0.8890  -28.6470 C   0  0  0  0  0  0  0  0  0  0  0  0
  -18.5800   -0.0120  -29.5180 O   0  0  0  0  0  0  0  0  0  0  0  0
  -18.1750   -0.6640  -27.3840 C   0  0  0  0  0  0  0  0  0  0  0  0
  -18.3360   -1.6680  -26.4540 C   0  0  0  0  0  0  0  0  0  0  0  0
  -18.9910   -2.8290  -26.7780 N   0  0  0  0  0  0  0  0  0  0  0  0
  -19.2950   -4.0190  -26.0140 C   0  0  0  0  0  0  0  0  0  0  0  0
  -20.0400   -4.9490  -26.9330 C   0  0  0  0  0  0  0  0  0  0  0  0
  -17.4790    0.5730  -27.0450 C   0  0  0  0  0  0  0  0  0  0  0  0
  -16.3170    0.7570  -27.4750 O   0  0  0  0  0  0  0  0  0  0  0  0
  -18.1100    1.5710  -26.2310 N   0  0  0  0  0  0  0  0  0  0  0  0
  -18.8680    2.6600  -26.8080 C   0  0  0  0  0  0  0  0  0  0  0  0
  -18.2690    3.9480  -26.2270 C   0  0  0  0  0  0  0  0  0  0  0  0
  -18.2510    3.8620  -24.8550 O   0  0  0  0  0  0  0  0  0  0  0  0
  -17.4240    2.8750  -24.3610 C   0  0  0  0  0  0  0  0  0  0  0  0
  -18.0120    1.5270  -24.7860 C   0  0  0  0  0  0  0  0  0  0  0  0
  -21.1460   -5.4110  -29.5980 H   0  0  0  0  0  0  0  0  0  0  0  0
  -19.8110   -1.5890  -30.9820 H   0  0  0  0  0  0  0  0  0  0  0  0
  -17.9620   -1.5870  -25.4470 H   0  0  0  0  0  0  0  0  0  0  0  0
  -19.9590   -3.7460  -25.1450 H   0  0  0  0  0  0  0  0  0  0  0  0
  -18.3790   -4.4920  -25.6010 H   0  0  0  0  0  0  0  0  0  0  0  0
  -19.4980   -5.9170  -27.0420 H   0  0  0  0  0  0  0  0  0  0  0  0
  -21.0890   -5.1360  -26.5670 H   0  0  0  0  0  0  0  0  0  0  0  0
  -19.9130    2.6240  -26.3810 H   0  0  0  0  0  0  0  0  0  0  0  0
  -18.8580    2.6730  -27.9030 H   0  0  0  0  0  0  0  0  0  0  0  0
  -18.8500    4.8250  -26.5280 H   0  0  0  0  0  0  0  0  0  0  0  0
  -17.2440    4.0770  -26.5950 H   0  0  0  0  0  0  0  0  0  0  0  0
  -17.4860    2.9070  -23.2550 H   0  0  0  0  0  0  0  0  0  0  0  0
  -16.3710    2.9560  -24.7310 H   0  0  0  0  0  0  0  0  0  0  0  0
  -19.0760    1.5550  -24.4070 H   0  0  0  0  0  0  0  0  0  0  0  0
  -17.4420    0.6840  -24.4030 H   0  0  0  0  0  0  0  0  0  0  0  0
  1  2  1  0  0  0  0
  2  7  2  0  0  0  0
  2  3  1  0  0  0  0
  3  4  2  0  0  0  0
  4  5  1  0  0  0  0
  4 14  1  0  0  0  0
  5 12  1  0  0  0  0
  6  8  1  0  0  0  0
  6  5  2  0  0  0  0
  7  6  1  0  0  0  0
  8 10  1  0  0  0  0
  9  8  2  0  0  0  0
 10 15  1  0  0  0  0
 10 11  2  0  0  0  0
 11 25  1  0  0  0  0
 12 11  1  0  0  0  0
 12 13  1  0  0  0  0
 13 27  1  0  0  0  0
 13 26  1  0  0  0  0
 14 29  1  0  0  0  0
 14 13  1  0  0  0  0
 15 17  1  0  0  0  0
 16 15  2  0  0  0  0
 17 22  1  0  0  0  0
 18 30  1  0  0  0  0
 18 17  1  0  0  0  0
 18 19  1  0  0  0  0
 19 20  1  0  0  0  0
 20 21  1  0  0  0  0
 21 34  1  0  0  0  0
 22 36  1  0  0  0  0
 22 37  1  0  0  0  0
 22 21  1  0  0  0  0
 23  3  1  0  0  0  0
 24  7  1  0  0  0  0
 28 14  1  0  0  0  0
 31 18  1  0  0  0  0
 32 19  1  0  0  0  0
 33 19  1  0  0  0  0
 35 21  1  0  0  0  0
M  END
>  <Pose>
1

>  <Score>
-5.28

$$$$
