
 OpenBabel03222201593D

 43 46  0  0  1  0  0  0  0  0999 V2000
  -17.9180   -0.5340  -25.9200 B   0  0  0  0  0  0  0  0  0  0  0  0
  -18.7830   -1.8320  -27.0310 C   0  0  0  0  0  0  0  0  0  0  0  0
  -19.1930   -3.0590  -26.5130 C   0  0  0  0  0  0  0  0  0  0  0  0
  -19.8050   -3.9390  -27.3750 C   0  0  0  0  0  0  0  0  0  0  0  0
  -20.3090   -5.1750  -27.2120 N   0  0  0  0  0  0  0  0  0  0  0  0
  -20.8010   -5.6130  -28.3670 N   0  0  0  0  0  0  0  0  0  0  0  0
  -20.6480   -4.6980  -29.3350 C   0  0  0  0  0  0  0  0  0  0  0  0
  -20.0060   -3.6220  -28.6900 C   0  0  0  0  0  0  0  0  0  0  0  0
  -19.6090   -2.4210  -29.2090 C   0  0  0  0  0  0  0  0  0  0  0  0
  -18.9940   -1.5270  -28.3680 C   0  0  0  0  0  0  0  0  0  0  0  0
  -21.0110   -4.7350  -30.6940 N   0  0  0  0  0  0  0  0  0  0  0  0
  -21.2830   -3.4980  -31.4580 C   0  0  0  0  0  0  0  0  0  0  0  0
  -22.4590   -3.8910  -32.3360 C   0  0  2  0  0  0  0  0  0  0  0  0
  -22.1970   -5.3570  -32.6100 C   0  0  0  0  0  0  0  0  0  0  0  0
  -21.2200   -5.8230  -31.5920 C   0  0  0  0  0  0  0  0  0  0  0  0
  -20.6790   -6.9340  -31.5210 O   0  0  0  0  0  0  0  0  0  0  0  0
  -22.3720   -3.0240  -33.5220 C   0  0  0  0  0  0  0  0  0  0  0  0
  -21.9550   -3.4630  -34.6190 O   0  0  0  0  0  0  0  0  0  0  0  0
  -22.7760   -1.6670  -33.3890 N   0  0  0  0  0  0  0  0  0  0  0  0
  -21.8640   -0.5740  -33.6460 C   0  0  0  0  0  0  0  0  0  0  0  0
  -21.1600   -0.0950  -32.3950 C   0  0  0  0  0  0  0  0  0  0  0  0
  -19.6960   -0.1150  -32.5760 C   0  0  0  0  0  0  0  0  0  0  0  0
  -18.9570    0.9810  -32.8100 N   0  0  0  0  0  0  0  0  0  0  0  0
  -17.6700    0.6500  -32.9240 C   0  0  0  0  0  0  0  0  0  0  0  0
  -17.5750   -0.6970  -32.7590 N   0  0  0  0  0  0  0  0  0  0  0  0
  -18.8140   -1.1520  -32.5470 C   0  0  0  0  0  0  0  0  0  0  0  0
  -19.0000   -3.2390  -25.4710 H   0  0  0  0  0  0  0  0  0  0  0  0
  -21.2400   -6.5490  -28.4690 H   0  0  0  0  0  0  0  0  0  0  0  0
  -19.7920   -2.2110  -30.2610 H   0  0  0  0  0  0  0  0  0  0  0  0
  -18.6700   -0.5700  -28.7460 H   0  0  0  0  0  0  0  0  0  0  0  0
  -21.5410   -2.6970  -30.7720 H   0  0  0  0  0  0  0  0  0  0  0  0
  -20.3750   -3.2540  -32.0190 H   0  0  0  0  0  0  0  0  0  0  0  0
  -23.4180   -3.7240  -31.8350 H   0  0  0  0  0  0  0  0  0  0  0  0
  -23.1570   -5.8960  -32.3450 H   0  0  0  0  0  0  0  0  0  0  0  0
  -21.9530   -5.6050  -33.6360 H   0  0  0  0  0  0  0  0  0  0  0  0
  -23.7530   -1.4740  -33.0970 H   0  0  0  0  0  0  0  0  0  0  0  0
  -21.0940   -0.9090  -34.3540 H   0  0  0  0  0  0  0  0  0  0  0  0
  -22.3960    0.2850  -34.1110 H   0  0  0  0  0  0  0  0  0  0  0  0
  -21.4700    0.9570  -32.2370 H   0  0  0  0  0  0  0  0  0  0  0  0
  -21.5020   -0.6340  -31.4810 H   0  0  0  0  0  0  0  0  0  0  0  0
  -16.8560    1.3280  -33.1110 H   0  0  0  0  0  0  0  0  0  0  0  0
  -16.6620   -1.2040  -32.8060 H   0  0  0  0  0  0  0  0  0  0  0  0
  -19.0470   -2.1890  -32.3800 H   0  0  0  0  0  0  0  0  0  0  0  0
  2  3  2  0  0  0  0
  2  1  1  0  0  0  0
  3 27  1  0  0  0  0
  4  5  2  0  0  0  0
  4  3  1  0  0  0  0
  6  5  1  0  0  0  0
  7  8  2  0  0  0  0
  7  6  1  0  0  0  0
  8  4  1  0  0  0  0
  9  8  1  0  0  0  0
  9 10  2  0  0  0  0
 10  2  1  0  0  0  0
 11  7  1  0  0  0  0
 12 31  1  0  0  0  0
 12 11  1  0  0  0  0
 13 33  1  1  0  0  0
 13 12  1  0  0  0  0
 14 34  1  0  0  0  0
 14 13  1  0  0  0  0
 14 15  1  0  0  0  0
 15 16  2  0  0  0  0
 15 11  1  0  0  0  0
 17 19  1  0  0  0  0
 17 13  1  0  0  0  0
 18 17  2  0  0  0  0
 19 36  1  0  0  0  0
 20 19  1  0  0  0  0
 20 21  1  0  0  0  0
 21 39  1  0  0  0  0
 21 40  1  0  0  0  0
 22 26  2  0  0  0  0
 22 21  1  0  0  0  0
 23 22  1  0  0  0  0
 24 23  2  0  0  0  0
 24 25  1  0  0  0  0
 25 26  1  0  0  0  0
 26 43  1  0  0  0  0
 28  6  1  0  0  0  0
 29  9  1  0  0  0  0
 30 10  1  0  0  0  0
 32 12  1  0  0  0  0
 35 14  1  0  0  0  0
 37 20  1  0  0  0  0
 38 20  1  0  0  0  0
 41 24  1  0  0  0  0
 42 25  1  0  0  0  0
M  END
>  <Pose>
1

>  <Score>
-8.61

$$$$
