
 OpenBabel03222201593D

 47 50  0  0  0  0  0  0  0  0999 V2000
  -23.7150    0.8420  -34.3150 B   0  0  0  0  0  0  0  0  0  0  0  0
  -22.5240   -0.5580  -33.7990 C   0  0  0  0  0  0  0  0  0  0  0  0
  -21.4260   -0.4670  -32.9740 C   0  0  0  0  0  0  0  0  0  0  0  0
  -20.8810   -1.6750  -32.8760 N   0  0  0  0  0  0  0  0  0  0  0  0
  -21.6130   -2.5050  -33.6160 N   0  0  0  0  0  0  0  0  0  0  0  0
  -22.6360   -1.8680  -34.2040 C   0  0  0  0  0  0  0  0  0  0  0  0
  -19.6860   -2.0590  -32.1010 C   0  0  0  0  0  0  0  0  0  0  0  0
  -18.8380   -0.8410  -31.9930 C   0  0  0  0  0  0  0  0  0  0  0  0
  -17.8680   -0.7300  -32.8090 O   0  0  0  0  0  0  0  0  0  0  0  0
  -19.1000    0.1250  -31.0450 N   0  0  0  0  0  0  0  0  0  0  0  0
  -20.0520    0.1060  -29.9500 C   0  0  0  0  0  0  0  0  0  0  0  0
  -19.4570   -0.3080  -28.6610 C   0  0  0  0  0  0  0  0  0  0  0  0
  -18.7330    0.5510  -27.8730 C   0  0  0  0  0  0  0  0  0  0  0  0
  -18.2230    0.1470  -26.6530 C   0  0  0  0  0  0  0  0  0  0  0  0
  -18.4270   -1.1330  -26.1880 C   0  0  0  0  0  0  0  0  0  0  0  0
  -19.1690   -2.0240  -26.9860 C   0  0  0  0  0  0  0  0  0  0  0  0
  -19.6740   -1.6250  -28.1950 C   0  0  0  0  0  0  0  0  0  0  0  0
  -20.4360   -2.5650  -29.0200 C   0  0  0  0  0  0  0  0  0  0  0  0
  -21.0410   -3.7310  -28.3470 C   0  0  0  0  0  0  0  0  0  0  0  0
  -20.2510   -4.2480  -27.2370 N   0  0  0  0  0  0  0  0  0  0  0  0
  -19.4460   -3.3620  -26.4720 C   0  0  0  0  0  0  0  0  0  0  0  0
  -18.9860   -3.7530  -25.3570 O   0  0  0  0  0  0  0  0  0  0  0  0
  -20.3540   -5.6640  -26.9670 C   0  0  0  0  0  0  0  0  0  0  0  0
  -17.9300   -1.5720  -24.9740 O   0  0  0  0  0  0  0  0  0  0  0  0
  -16.5920   -1.3220  -24.5970 C   0  0  0  0  0  0  0  0  0  0  0  0
  -17.5540    1.2360  -26.1280 O   0  0  0  0  0  0  0  0  0  0  0  0
  -17.4750    2.2710  -27.0760 C   0  0  0  0  0  0  0  0  0  0  0  0
  -18.3830    1.9000  -28.1100 O   0  0  0  0  0  0  0  0  0  0  0  0
  -21.0960    0.4630  -32.5060 H   0  0  0  0  0  0  0  0  0  0  0  0
  -23.4060   -2.2420  -34.8580 H   0  0  0  0  0  0  0  0  0  0  0  0
  -19.1590   -2.8550  -32.6830 H   0  0  0  0  0  0  0  0  0  0  0  0
  -19.9400   -2.4530  -31.1190 H   0  0  0  0  0  0  0  0  0  0  0  0
  -18.5440    1.0370  -31.0960 H   0  0  0  0  0  0  0  0  0  0  0  0
  -20.7410   -0.7480  -30.2670 H   0  0  0  0  0  0  0  0  0  0  0  0
  -20.6760    1.0000  -29.8840 H   0  0  0  0  0  0  0  0  0  0  0  0
  -19.8990   -2.8810  -29.9400 H   0  0  0  0  0  0  0  0  0  0  0  0
  -21.3130   -1.9680  -29.4320 H   0  0  0  0  0  0  0  0  0  0  0  0
  -22.0460   -3.4540  -27.9100 H   0  0  0  0  0  0  0  0  0  0  0  0
  -21.2380   -4.5300  -29.1130 H   0  0  0  0  0  0  0  0  0  0  0  0
  -21.3980   -5.9950  -27.1840 H   0  0  0  0  0  0  0  0  0  0  0  0
  -19.6770   -6.1880  -27.6660 H   0  0  0  0  0  0  0  0  0  0  0  0
  -20.0460   -5.9340  -25.9380 H   0  0  0  0  0  0  0  0  0  0  0  0
  -15.9850   -1.3240  -25.5450 H   0  0  0  0  0  0  0  0  0  0  0  0
  -16.1860   -2.1130  -23.9350 H   0  0  0  0  0  0  0  0  0  0  0  0
  -16.4800   -0.3320  -24.0800 H   0  0  0  0  0  0  0  0  0  0  0  0
  -16.4680    2.3590  -27.5430 H   0  0  0  0  0  0  0  0  0  0  0  0
  -17.8560    3.2310  -26.6640 H   0  0  0  0  0  0  0  0  0  0  0  0
  1  2  1  0  0  0  0
  2  3  2  0  0  0  0
  3  4  1  0  0  0  0
  3 29  1  0  0  0  0
  4  7  1  0  0  0  0
  5  4  1  0  0  0  0
  6  2  1  0  0  0  0
  6  5  2  0  0  0  0
  7  8  1  0  0  0  0
  7 32  1  0  0  0  0
  8 10  1  0  0  0  0
  9  8  2  0  0  0  0
 10 11  1  0  0  0  0
 11 35  1  0  0  0  0
 11 12  1  0  0  0  0
 12 17  2  0  0  0  0
 12 13  1  0  0  0  0
 13 14  2  0  0  0  0
 14 15  1  0  0  0  0
 14 26  1  0  0  0  0
 15 24  1  0  0  0  0
 16 21  1  0  0  0  0
 16 15  2  0  0  0  0
 17 16  1  0  0  0  0
 18 19  1  0  0  0  0
 18 17  1  0  0  0  0
 19 38  1  0  0  0  0
 19 20  1  0  0  0  0
 20 23  1  0  0  0  0
 20 21  1  0  0  0  0
 21 22  2  0  0  0  0
 23 42  1  0  0  0  0
 24 25  1  0  0  0  0
 25 45  1  0  0  0  0
 25 44  1  0  0  0  0
 27 47  1  0  0  0  0
 27 26  1  0  0  0  0
 28 13  1  0  0  0  0
 28 27  1  0  0  0  0
 30  6  1  0  0  0  0
 31  7  1  0  0  0  0
 33 10  1  0  0  0  0
 34 11  1  0  0  0  0
 36 18  1  0  0  0  0
 37 18  1  0  0  0  0
 39 19  1  0  0  0  0
 40 23  1  0  0  0  0
 41 23  1  0  0  0  0
 43 25  1  0  0  0  0
 46 27  1  0  0  0  0
M  END
>  <Pose>
1

>  <Score>
-6.63

$$$$
