
 OpenBabel03222201593D

 33 37  0  0  0  0  0  0  0  0999 V2000
  -20.6720    2.1140  -34.8980 B   0  0  0  0  0  0  0  0  0  0  0  0
  -20.6000    0.2370  -34.6760 C   0  0  0  0  0  0  0  0  0  0  0  0
  -21.6740   -0.6170  -34.5180 C   0  0  0  0  0  0  0  0  0  0  0  0
  -21.2010   -1.8680  -34.3930 N   0  0  0  0  0  0  0  0  0  0  0  0
  -19.8830   -1.8250  -34.4660 N   0  0  0  0  0  0  0  0  0  0  0  0
  -19.4700   -0.5490  -34.6410 C   0  0  0  0  0  0  0  0  0  0  0  0
  -21.9920   -3.0670  -34.2090 C   0  0  0  0  0  0  0  0  0  0  0  0
  -21.6830   -3.7220  -32.9350 N   0  0  0  0  0  0  0  0  0  0  0  0
  -21.1820   -3.1220  -31.8690 N   0  0  0  0  0  0  0  0  0  0  0  0
  -21.0110   -3.9930  -30.8600 C   0  0  0  0  0  0  0  0  0  0  0  0
  -21.4380   -5.2090  -31.3490 C   0  0  0  0  0  0  0  0  0  0  0  0
  -21.8590   -5.0260  -32.6620 C   0  0  0  0  0  0  0  0  0  0  0  0
  -20.4870   -3.7310  -29.5200 C   0  0  0  0  0  0  0  0  0  0  0  0
  -20.4760   -4.5910  -28.4900 N   0  0  0  0  0  0  0  0  0  0  0  0
  -19.9240   -4.0190  -27.4200 N   0  0  0  0  0  0  0  0  0  0  0  0
  -19.5680   -2.7510  -27.7730 C   0  0  0  0  0  0  0  0  0  0  0  0
  -19.9240   -2.6010  -29.0640 N   0  0  0  0  0  0  0  0  0  0  0  0
  -18.9700   -1.9490  -26.8240 C   0  0  0  0  0  0  0  0  0  0  0  0
  -18.7190   -2.3810  -25.5340 C   0  0  0  0  0  0  0  0  0  0  0  0
  -18.1320   -1.3890  -24.8430 N   0  0  0  0  0  0  0  0  0  0  0  0
  -18.0140   -0.3590  -25.6650 N   0  0  0  0  0  0  0  0  0  0  0  0
  -18.5130   -0.6600  -26.8820 C   0  0  0  0  0  0  0  0  0  0  0  0
  -19.0860   -3.6370  -25.2320 N   0  0  0  0  0  0  0  0  0  0  0  0
  -19.6680   -4.4140  -26.1590 C   0  0  0  0  0  0  0  0  0  0  0  0
  -22.6940   -0.2970  -34.5040 H   0  0  0  0  0  0  0  0  0  0  0  0
  -18.4650   -0.1900  -34.7350 H   0  0  0  0  0  0  0  0  0  0  0  0
  -21.8270   -3.8070  -35.0250 H   0  0  0  0  0  0  0  0  0  0  0  0
  -23.0940   -2.8290  -34.2480 H   0  0  0  0  0  0  0  0  0  0  0  0
  -21.4340   -6.1290  -30.7880 H   0  0  0  0  0  0  0  0  0  0  0  0
  -22.2550   -5.7640  -33.3450 H   0  0  0  0  0  0  0  0  0  0  0  0
  -17.8200   -1.3990  -23.8490 H   0  0  0  0  0  0  0  0  0  0  0  0
  -18.5630   -0.0250  -27.7710 H   0  0  0  0  0  0  0  0  0  0  0  0
  -19.9490   -5.4190  -25.8770 H   0  0  0  0  0  0  0  0  0  0  0  0
  1  2  1  0  0  0  0
  2  6  1  0  0  0  0
  2  3  2  0  0  0  0
  3 25  1  0  0  0  0
  3  4  1  0  0  0  0
  4  7  1  0  0  0  0
  5  4  1  0  0  0  0
  6  5  2  0  0  0  0
  7  8  1  0  0  0  0
  8 12  1  0  0  0  0
  8  9  1  0  0  0  0
  9 10  2  0  0  0  0
 10 13  1  0  0  0  0
 11 10  1  0  0  0  0
 11 29  1  0  0  0  0
 12 11  2  0  0  0  0
 13 17  1  0  0  0  0
 13 14  2  0  0  0  0
 14 15  1  0  0  0  0
 15 24  1  0  0  0  0
 16 15  1  0  0  0  0
 16 18  1  0  0  0  0
 17 16  2  0  0  0  0
 18 19  2  0  0  0  0
 19 23  1  0  0  0  0
 19 20  1  0  0  0  0
 20 31  1  0  0  0  0
 21 20  1  0  0  0  0
 22 18  1  0  0  0  0
 22 21  2  0  0  0  0
 24 33  1  0  0  0  0
 24 23  2  0  0  0  0
 26  6  1  0  0  0  0
 27  7  1  0  0  0  0
 28  7  1  0  0  0  0
 30 12  1  0  0  0  0
 32 22  1  0  0  0  0
M  END
>  <Pose>
1

>  <Score>
-8.22

$$$$
