
 OpenBabel03222201593D

 42 45  0  0  0  0  0  0  0  0999 V2000
  -15.8250    4.1240  -22.2850 B   0  0  0  0  0  0  0  0  0  0  0  0
  -16.5860    2.6140  -23.2060 C   0  0  0  0  0  0  0  0  0  0  0  0
  -17.0920    2.5850  -24.4870 C   0  0  0  0  0  0  0  0  0  0  0  0
  -17.5310    1.3440  -24.7650 N   0  0  0  0  0  0  0  0  0  0  0  0
  -17.3070    0.6170  -23.6900 N   0  0  0  0  0  0  0  0  0  0  0  0
  -16.7390    1.3340  -22.7220 C   0  0  0  0  0  0  0  0  0  0  0  0
  -18.1250    0.8610  -25.9610 C   0  0  0  0  0  0  0  0  0  0  0  0
  -18.4110    1.7160  -26.9970 C   0  0  0  0  0  0  0  0  0  0  0  0
  -18.9830    1.2780  -28.1610 C   0  0  0  0  0  0  0  0  0  0  0  0
  -19.3190   -0.0740  -28.3840 C   0  0  0  0  0  0  0  0  0  0  0  0
  -19.0280   -0.9190  -27.3390 C   0  0  0  0  0  0  0  0  0  0  0  0
  -18.4410   -0.4570  -26.1510 C   0  0  0  0  0  0  0  0  0  0  0  0
  -19.9580   -0.4480  -29.6250 C   0  0  0  0  0  0  0  0  0  0  0  0
  -21.1030    0.1240  -29.8280 O   0  0  0  0  0  0  0  0  0  0  0  0
  -19.5370   -1.3160  -30.6180 N   0  0  0  0  0  0  0  0  0  0  0  0
  -20.2240   -2.3670  -31.3190 C   0  0  0  0  0  0  0  0  0  0  0  0
  -20.6340   -1.8080  -32.6680 C   0  0  0  0  0  0  0  0  0  0  0  0
  -19.5540   -0.8930  -33.2100 C   0  0  0  0  0  0  0  0  0  0  0  0
  -19.4740   -1.1260  -34.6360 N   0  0  0  0  0  0  0  0  0  0  0  0
  -20.4540   -0.3140  -35.2660 C   0  0  0  0  0  0  0  0  0  0  0  0
  -20.9610   -0.4530  -36.4260 O   0  0  0  0  0  0  0  0  0  0  0  0
  -20.7840    0.7280  -34.3340 N   0  0  0  0  0  0  0  0  0  0  0  0
  -19.9860    0.5150  -33.1500 C   0  0  0  0  0  0  0  0  0  0  0  0
  -19.7500    1.3940  -32.2930 O   0  0  0  0  0  0  0  0  0  0  0  0
  -18.2070   -1.1420  -32.6140 C   0  0  0  0  0  0  0  0  0  0  0  0
  -18.1390   -1.1430  -31.1240 C   0  0  0  0  0  0  0  0  0  0  0  0
  -17.1300    3.4300  -25.1610 H   0  0  0  0  0  0  0  0  0  0  0  0
  -16.4290    1.0260  -21.7140 H   0  0  0  0  0  0  0  0  0  0  0  0
  -18.1530    2.7670  -26.8310 H   0  0  0  0  0  0  0  0  0  0  0  0
  -19.1900    1.9780  -28.9480 H   0  0  0  0  0  0  0  0  0  0  0  0
  -19.2780   -1.9630  -27.4180 H   0  0  0  0  0  0  0  0  0  0  0  0
  -18.2270   -1.1570  -25.3520 H   0  0  0  0  0  0  0  0  0  0  0  0
  -19.4090   -3.1410  -31.6200 H   0  0  0  0  0  0  0  0  0  0  0  0
  -20.9530   -2.9440  -30.7910 H   0  0  0  0  0  0  0  0  0  0  0  0
  -20.8510   -2.6120  -33.3700 H   0  0  0  0  0  0  0  0  0  0  0  0
  -21.5430   -1.2050  -32.5200 H   0  0  0  0  0  0  0  0  0  0  0  0
  -18.8330   -1.7610  -35.1500 H   0  0  0  0  0  0  0  0  0  0  0  0
  -21.4630    1.5130  -34.4390 H   0  0  0  0  0  0  0  0  0  0  0  0
  -17.5510   -0.2910  -32.9660 H   0  0  0  0  0  0  0  0  0  0  0  0
  -17.7280   -2.0500  -33.0500 H   0  0  0  0  0  0  0  0  0  0  0  0
  -17.6140   -2.0570  -30.7780 H   0  0  0  0  0  0  0  0  0  0  0  0
  -17.6650   -0.2730  -30.6670 H   0  0  0  0  0  0  0  0  0  0  0  0
  2  6  1  0  0  0  0
  2  1  1  0  0  0  0
  3  2  2  0  0  0  0
  4  3  1  0  0  0  0
  4  5  1  0  0  0  0
  5  6  2  0  0  0  0
  6 28  1  0  0  0  0
  7  4  1  0  0  0  0
  8 29  1  0  0  0  0
  8  7  2  0  0  0  0
  9  8  1  0  0  0  0
 10  9  2  0  0  0  0
 10 11  1  0  0  0  0
 11 12  2  0  0  0  0
 12  7  1  0  0  0  0
 12 32  1  0  0  0  0
 13 10  1  0  0  0  0
 14 13  2  0  0  0  0
 15 13  1  0  0  0  0
 16 34  1  0  0  0  0
 16 15  1  0  0  0  0
 17 36  1  0  0  0  0
 17 16  1  0  0  0  0
 18 23  1  0  0  0  0
 18 17  1  0  0  0  0
 18 25  1  0  0  0  0
 19 18  1  0  0  0  0
 20 19  1  0  0  0  0
 20 22  1  0  0  0  0
 21 20  2  0  0  0  0
 22 23  1  0  0  0  0
 23 24  2  0  0  0  0
 25 26  1  0  0  0  0
 26 41  1  0  0  0  0
 26 42  1  0  0  0  0
 26 15  1  0  0  0  0
 27  3  1  0  0  0  0
 30  9  1  0  0  0  0
 31 11  1  0  0  0  0
 33 16  1  0  0  0  0
 35 17  1  0  0  0  0
 37 19  1  0  0  0  0
 38 22  1  0  0  0  0
 39 25  1  0  0  0  0
 40 25  1  0  0  0  0
M  END
>  <Pose>
1

>  <Score>
-6.11

$$$$
