
 OpenBabel03222201593D

 41 44  0  0  0  0  0  0  0  0999 V2000
  -18.8320    5.4430  -19.6670 B   0  0  0  0  0  0  0  0  0  0  0  0
  -18.3280    3.9510  -20.7510 C   0  0  0  0  0  0  0  0  0  0  0  0
  -19.2410    3.2490  -21.4930 C   0  0  0  0  0  0  0  0  0  0  0  0
  -18.8630    2.2130  -22.2490 N   0  0  0  0  0  0  0  0  0  0  0  0
  -17.5780    1.7780  -22.3460 C   0  0  0  0  0  0  0  0  0  0  0  0
  -16.6520    2.5010  -21.5830 C   0  0  0  0  0  0  0  0  0  0  0  0
  -17.0080    3.5660  -20.8010 C   0  0  0  0  0  0  0  0  0  0  0  0
  -17.2290    0.6870  -23.1750 N   0  0  0  0  0  0  0  0  0  0  0  0
  -17.6990    0.6870  -24.5100 C   0  0  0  0  0  0  0  0  0  0  0  0
  -17.7860    1.6780  -25.3470 C   0  0  0  0  0  0  0  0  0  0  0  0
  -18.3370    1.1310  -26.5880 C   0  0  0  0  0  0  0  0  0  0  0  0
  -18.5580    1.8220  -27.6300 O   0  0  0  0  0  0  0  0  0  0  0  0
  -18.5890   -0.2770  -26.4630 N   0  0  0  0  0  0  0  0  0  0  0  0
  -18.1820   -0.5720  -25.1280 C   0  0  0  0  0  0  0  0  0  0  0  0
  -18.2260   -1.7030  -24.5740 O   0  0  0  0  0  0  0  0  0  0  0  0
  -19.1090   -1.1540  -27.4490 C   0  0  0  0  0  0  0  0  0  0  0  0
  -19.1200   -0.8640  -28.7890 C   0  0  0  0  0  0  0  0  0  0  0  0
  -19.6310   -1.7680  -29.7430 C   0  0  0  0  0  0  0  0  0  0  0  0
  -20.1390   -2.9850  -29.3480 C   0  0  0  0  0  0  0  0  0  0  0  0
  -20.1300   -3.2800  -28.0080 C   0  0  0  0  0  0  0  0  0  0  0  0
  -19.6210   -2.3730  -27.0780 C   0  0  0  0  0  0  0  0  0  0  0  0
  -17.4380    3.0490  -25.1450 N   0  0  0  0  0  0  0  0  0  0  0  0
  -16.2760    3.3660  -24.5460 C   0  0  0  0  0  0  0  0  0  0  0  0
  -15.9070    4.7040  -24.3240 C   0  0  0  0  0  0  0  0  0  0  0  0
  -16.7490    5.7250  -24.7230 C   0  0  0  0  0  0  0  0  0  0  0  0
  -17.9340    5.3750  -25.3350 C   0  0  0  0  0  0  0  0  0  0  0  0
  -18.2550    4.0580  -25.5330 C   0  0  0  0  0  0  0  0  0  0  0  0
  -20.2750    3.5470  -21.4520 H   0  0  0  0  0  0  0  0  0  0  0  0
  -15.6190    2.1680  -21.6440 H   0  0  0  0  0  0  0  0  0  0  0  0
  -16.2890    4.1310  -20.2050 H   0  0  0  0  0  0  0  0  0  0  0  0
  -16.6570   -0.0800  -22.8230 H   0  0  0  0  0  0  0  0  0  0  0  0
  -18.7300    0.0850  -29.1230 H   0  0  0  0  0  0  0  0  0  0  0  0
  -19.6180   -1.4910  -30.7950 H   0  0  0  0  0  0  0  0  0  0  0  0
  -20.5300   -3.6760  -30.0940 H   0  0  0  0  0  0  0  0  0  0  0  0
  -20.5300   -4.2350  -27.6890 H   0  0  0  0  0  0  0  0  0  0  0  0
  -19.6420   -2.6760  -26.0440 H   0  0  0  0  0  0  0  0  0  0  0  0
  -15.6300    2.5490  -24.2410 H   0  0  0  0  0  0  0  0  0  0  0  0
  -14.9520    4.9110  -23.8360 H   0  0  0  0  0  0  0  0  0  0  0  0
  -16.4770    6.7720  -24.5560 H   0  0  0  0  0  0  0  0  0  0  0  0
  -18.5980    6.1620  -25.6480 H   0  0  0  0  0  0  0  0  0  0  0  0
  -19.2000    3.7700  -26.0220 H   0  0  0  0  0  0  0  0  0  0  0  0
  2  1  1  0  0  0  0
  3 28  1  0  0  0  0
  3  2  2  0  0  0  0
  4  3  1  0  0  0  0
  5  4  2  0  0  0  0
  5  6  1  0  0  0  0
  6  7  2  0  0  0  0
  7  2  1  0  0  0  0
  7 30  1  0  0  0  0
  8 31  1  0  0  0  0
  8  5  1  0  0  0  0
  9  8  1  0  0  0  0
 10 22  1  0  0  0  0
 10  9  2  0  0  0  0
 11 13  1  0  0  0  0
 11 10  1  0  0  0  0
 12 11  2  0  0  0  0
 13 14  1  0  0  0  0
 14 15  2  0  0  0  0
 14  9  1  0  0  0  0
 16 21  1  0  0  0  0
 16 13  1  0  0  0  0
 17 16  2  0  0  0  0
 18 19  2  0  0  0  0
 18 17  1  0  0  0  0
 19 20  1  0  0  0  0
 20 35  1  0  0  0  0
 20 21  2  0  0  0  0
 21 36  1  0  0  0  0
 22 23  1  0  0  0  0
 23 24  1  0  0  0  0
 23 37  1  0  0  0  0
 24 38  1  0  0  0  0
 25 39  1  0  0  0  0
 25 24  2  0  0  0  0
 26 25  1  0  0  0  0
 27 26  2  0  0  0  0
 27 22  1  0  0  0  0
 29  6  1  0  0  0  0
 32 17  1  0  0  0  0
 33 18  1  0  0  0  0
 34 19  1  0  0  0  0
 40 26  1  0  0  0  0
 41 27  1  0  0  0  0
M  END
>  <Pose>
1

>  <Score>
-6.88

$$$$
