
 OpenBabel03222201593D

 38 41  0  0  0  0  0  0  0  0999 V2000
  -20.2170    0.6530  -36.7940 B   0  0  0  0  0  0  0  0  0  0  0  0
  -20.0530   -0.1110  -35.0480 C   0  0  0  0  0  0  0  0  0  0  0  0
  -20.1000    0.6890  -33.9280 C   0  0  0  0  0  0  0  0  0  0  0  0
  -19.9850    0.1400  -32.7270 N   0  0  0  0  0  0  0  0  0  0  0  0
  -19.8210   -1.1800  -32.4920 C   0  0  0  0  0  0  0  0  0  0  0  0
  -19.7740   -1.9680  -33.6070 N   0  0  0  0  0  0  0  0  0  0  0  0
  -19.8860   -1.4650  -34.8490 C   0  0  0  0  0  0  0  0  0  0  0  0
  -19.7000   -1.7380  -31.2140 N   0  0  0  0  0  0  0  0  0  0  0  0
  -18.6770   -1.8180  -30.2120 C   0  0  0  0  0  0  0  0  0  0  0  0
  -19.8110   -1.7000  -29.2130 C   0  0  0  0  0  0  0  0  0  0  0  0
  -20.5250   -2.4850  -30.3080 C   0  0  0  0  0  0  0  0  0  0  0  0
  -19.6240   -2.4370  -27.9250 C   0  0  0  0  0  0  0  0  0  0  0  0
  -19.0430   -1.5270  -26.9740 N   0  0  0  0  0  0  0  0  0  0  0  0
  -18.8230   -0.1940  -27.3180 N   0  0  0  0  0  0  0  0  0  0  0  0
  -18.2520    0.7420  -26.4130 C   0  0  0  0  0  0  0  0  0  0  0  0
  -18.0650    1.9920  -26.7900 C   0  0  0  0  0  0  0  0  0  0  0  0
  -18.1030    3.1420  -27.7150 C   0  0  0  0  0  0  0  0  0  0  0  0
  -17.5620    3.3620  -26.3820 C   0  0  0  0  0  0  0  0  0  0  0  0
  -17.8730    0.3280  -25.0760 C   0  0  0  0  0  0  0  0  0  0  0  0
  -18.0730   -0.9330  -24.7280 C   0  0  0  0  0  0  0  0  0  0  0  0
  -18.6660   -1.9130  -25.6610 C   0  0  0  0  0  0  0  0  0  0  0  0
  -18.8460   -3.1070  -25.3040 O   0  0  0  0  0  0  0  0  0  0  0  0
  -20.2320    1.7520  -34.1000 H   0  0  0  0  0  0  0  0  0  0  0  0
  -19.8520   -2.0800  -35.7400 H   0  0  0  0  0  0  0  0  0  0  0  0
  -18.2190   -2.8410  -30.0910 H   0  0  0  0  0  0  0  0  0  0  0  0
  -17.9440   -0.9960  -30.1850 H   0  0  0  0  0  0  0  0  0  0  0  0
  -20.1600   -0.6650  -29.1450 H   0  0  0  0  0  0  0  0  0  0  0  0
  -20.2880   -3.5680  -30.2280 H   0  0  0  0  0  0  0  0  0  0  0  0
  -21.6120   -2.3080  -30.3730 H   0  0  0  0  0  0  0  0  0  0  0  0
  -18.9470   -3.3080  -28.0740 H   0  0  0  0  0  0  0  0  0  0  0  0
  -20.5630   -2.8080  -27.5160 H   0  0  0  0  0  0  0  0  0  0  0  0
  -19.1020    0.1010  -28.2990 H   0  0  0  0  0  0  0  0  0  0  0  0
  -17.3770    3.1630  -28.5630 H   0  0  0  0  0  0  0  0  0  0  0  0
  -19.0660    3.6090  -27.9760 H   0  0  0  0  0  0  0  0  0  0  0  0
  -16.4540    3.4610  -26.2630 H   0  0  0  0  0  0  0  0  0  0  0  0
  -18.1660    3.8540  -25.5850 H   0  0  0  0  0  0  0  0  0  0  0  0
  -17.4270    1.0440  -24.3580 H   0  0  0  0  0  0  0  0  0  0  0  0
  -17.7860   -1.2250  -23.7300 H   0  0  0  0  0  0  0  0  0  0  0  0
  1  2  1  0  0  0  0
  2  7  1  0  0  0  0
  2  3  2  0  0  0  0
  3  4  1  0  0  0  0
  4  5  2  0  0  0  0
  5  8  1  0  0  0  0
  6  5  1  0  0  0  0
  7  6  2  0  0  0  0
  8 11  1  0  0  0  0
  8  9  1  0  0  0  0
  9 26  1  0  0  0  0
  9 25  1  0  0  0  0
  9 10  1  0  0  0  0
 10 27  1  0  0  0  0
 10 12  1  0  0  0  0
 11 28  1  0  0  0  0
 11 10  1  0  0  0  0
 12 31  1  0  0  0  0
 12 13  1  0  0  0  0
 13 21  1  0  0  0  0
 14 13  1  0  0  0  0
 14 15  1  0  0  0  0
 15 19  1  0  0  0  0
 16 15  2  0  0  0  0
 16 18  1  0  0  0  0
 17 16  1  0  0  0  0
 17 18  1  0  0  0  0
 18 35  1  0  0  0  0
 18 36  1  0  0  0  0
 19 20  2  0  0  0  0
 19 37  1  0  0  0  0
 20 38  1  0  0  0  0
 21 22  2  0  0  0  0
 21 20  1  0  0  0  0
 23  3  1  0  0  0  0
 24  7  1  0  0  0  0
 29 11  1  0  0  0  0
 30 12  1  0  0  0  0
 32 14  1  0  0  0  0
 33 17  1  0  0  0  0
 34 17  1  0  0  0  0
M  END
>  <Pose>
1

>  <Score>
-5.85

$$$$
