
 OpenBabel03222201593D

 40 43  0  0  1  0  0  0  0  0999 V2000
  -20.3760   -5.2020  -27.5860 B   0  0  0  0  0  0  0  0  0  0  0  0
  -19.5260   -3.5900  -27.0350 C   0  0  0  0  0  0  0  0  0  0  0  0
  -19.1190   -3.4580  -25.7290 C   0  0  0  0  0  0  0  0  0  0  0  0
  -18.5110   -2.3160  -25.3200 N   0  0  0  0  0  0  0  0  0  0  0  0
  -18.2990   -1.3040  -26.1680 C   0  0  0  0  0  0  0  0  0  0  0  0
  -18.6810   -1.3510  -27.5160 C   0  0  0  0  0  0  0  0  0  0  0  0
  -19.2930   -2.5250  -27.8920 C   0  0  0  0  0  0  0  0  0  0  0  0
  -18.4130   -0.2340  -28.3910 C   0  0  0  0  0  0  0  0  0  0  0  0
  -17.8570    0.7800  -27.8300 O   0  0  0  0  0  0  0  0  0  0  0  0
  -18.6900   -0.1400  -29.7680 N   0  0  0  0  0  0  0  0  0  0  0  0
  -18.6050    0.8080  -30.8340 C   0  0  0  0  0  0  0  0  0  0  0  0
  -18.4730   -0.3880  -31.7940 C   0  0  0  0  0  0  0  0  0  0  0  0
  -19.2680   -1.0790  -30.7520 C   0  0  0  0  0  0  0  0  0  0  0  0
  -19.1110   -0.1330  -33.0560 N   0  0  0  0  0  0  0  0  0  0  0  0
  -19.1240    1.0880  -33.8200 C   0  0  0  0  0  0  0  0  0  0  0  0
  -18.2570    1.9760  -33.7550 O   0  0  0  0  0  0  0  0  0  0  0  0
  -20.3680    1.0210  -34.6630 C   0  0  1  0  0  0  0  0  0  0  0  0
  -20.3560   -0.4430  -35.0350 C   0  0  2  0  0  0  0  0  0  0  0  0
  -21.7230   -0.9120  -35.4520 C   0  0  0  0  0  0  0  0  0  0  0  0
  -22.6850   -0.6940  -34.3390 C   0  0  0  0  0  0  0  0  0  0  0  0
  -22.5420    0.3920  -33.6070 C   0  0  0  0  0  0  0  0  0  0  0  0
  -21.5080    1.4200  -33.7910 C   0  0  0  0  0  0  0  0  0  0  0  0
  -19.8690   -1.0820  -33.7970 C   0  0  0  0  0  0  0  0  0  0  0  0
  -20.1150   -2.2760  -33.4960 O   0  0  0  0  0  0  0  0  0  0  0  0
  -19.2940   -4.2820  -25.0480 H   0  0  0  0  0  0  0  0  0  0  0  0
  -17.8140   -0.4170  -25.7990 H   0  0  0  0  0  0  0  0  0  0  0  0
  -19.6090   -2.6570  -28.8960 H   0  0  0  0  0  0  0  0  0  0  0  0
  -17.6670    1.3920  -30.9470 H   0  0  0  0  0  0  0  0  0  0  0  0
  -19.5340    1.4090  -31.0090 H   0  0  0  0  0  0  0  0  0  0  0  0
  -17.4390   -0.7450  -31.8310 H   0  0  0  0  0  0  0  0  0  0  0  0
  -20.3620   -0.9070  -30.7680 H   0  0  0  0  0  0  0  0  0  0  0  0
  -19.0160   -2.1300  -30.5280 H   0  0  0  0  0  0  0  0  0  0  0  0
  -20.2710    1.6680  -35.5570 H   0  0  0  0  0  0  0  0  0  0  0  0
  -19.6660   -0.5780  -35.8930 H   0  0  0  0  0  0  0  0  0  0  0  0
  -21.6560   -1.9610  -35.7660 H   0  0  0  0  0  0  0  0  0  0  0  0
  -22.0370   -0.2700  -36.3060 H   0  0  0  0  0  0  0  0  0  0  0  0
  -23.4670   -1.4410  -34.1760 H   0  0  0  0  0  0  0  0  0  0  0  0
  -23.2560    0.5430  -32.7890 H   0  0  0  0  0  0  0  0  0  0  0  0
  -21.1740    1.7360  -32.7600 H   0  0  0  0  0  0  0  0  0  0  0  0
  -22.0110    2.3210  -34.2020 H   0  0  0  0  0  0  0  0  0  0  0  0
  1  2  1  0  0  0  0
  2  3  1  0  0  0  0
  3  4  2  0  0  0  0
  3 25  1  0  0  0  0
  5 26  1  0  0  0  0
  5  4  1  0  0  0  0
  6  5  2  0  0  0  0
  7  6  1  0  0  0  0
  7  2  2  0  0  0  0
  8  9  2  0  0  0  0
  8  6  1  0  0  0  0
 10  8  1  0  0  0  0
 11 10  1  0  0  0  0
 12 11  1  0  0  0  0
 12 13  1  0  0  0  0
 13 32  1  0  0  0  0
 13 10  1  0  0  0  0
 14 12  1  0  0  0  0
 15 16  2  0  0  0  0
 15 14  1  0  0  0  0
 17 33  1  6  0  0  0
 17 15  1  0  0  0  0
 17 22  1  0  0  0  0
 18 34  1  6  0  0  0
 18 17  1  0  0  0  0
 18 23  1  0  0  0  0
 19 18  1  0  0  0  0
 19 20  1  0  0  0  0
 20 37  1  0  0  0  0
 20 21  2  0  0  0  0
 21 38  1  0  0  0  0
 22 21  1  0  0  0  0
 22 39  1  0  0  0  0
 23 24  2  0  0  0  0
 23 14  1  0  0  0  0
 27  7  1  0  0  0  0
 28 11  1  0  0  0  0
 29 11  1  0  0  0  0
 30 12  1  0  0  0  0
 31 13  1  0  0  0  0
 35 19  1  0  0  0  0
 36 19  1  0  0  0  0
 40 22  1  0  0  0  0
M  END
>  <Pose>
1

>  <Score>
-5.96

$$$$
