
 OpenBabel03222201593D

 37 40  0  0  1  0  0  0  0  0999 V2000
  -23.7160    0.9170  -34.9000 B   0  0  0  0  0  0  0  0  0  0  0  0
  -21.8710    0.4460  -35.1660 C   0  0  0  0  0  0  0  0  0  0  0  0
  -21.4420    0.1660  -36.4430 C   0  0  0  0  0  0  0  0  0  0  0  0
  -20.1550   -0.1580  -36.6020 N   0  0  0  0  0  0  0  0  0  0  0  0
  -19.2810   -0.2160  -35.5550 C   0  0  0  0  0  0  0  0  0  0  0  0
  -19.6480    0.0530  -34.2600 C   0  0  0  0  0  0  0  0  0  0  0  0
  -21.0040    0.3930  -34.1040 C   0  0  0  0  0  0  0  0  0  0  0  0
  -18.7960    0.0070  -33.0980 C   0  0  0  0  0  0  0  0  0  0  0  0
  -17.7650    0.7490  -33.0850 O   0  0  0  0  0  0  0  0  0  0  0  0
  -19.0460   -0.8130  -31.9910 N   0  0  0  0  0  0  0  0  0  0  0  0
  -18.4920   -1.1530  -30.7070 C   0  0  0  0  0  0  0  0  0  0  0  0
  -19.4820   -2.2910  -30.5100 C   0  0  0  0  0  0  0  0  0  0  0  0
  -20.1640   -1.7400  -31.7250 C   0  0  0  0  0  0  0  0  0  0  0  0
  -20.2240   -2.2850  -29.3300 O   0  0  0  0  0  0  0  0  0  0  0  0
  -19.9890   -3.0650  -28.2170 C   0  0  2  0  0  0  0  0  0  0  0  0
  -20.3810   -4.3360  -28.2070 C   0  0  0  0  0  0  0  0  0  0  0  0
  -20.1610   -5.2110  -27.0620 C   0  0  0  0  0  0  0  0  0  0  0  0
  -20.5630   -6.4700  -27.0860 C   0  0  0  0  0  0  0  0  0  0  0  0
  -19.5040   -4.6580  -25.9300 N   0  0  0  0  0  0  0  0  0  0  0  0
  -19.0930   -3.2830  -25.9700 C   0  0  0  0  0  0  0  0  0  0  0  0
  -19.3250   -2.5300  -27.0540 N   0  0  0  0  0  0  0  0  0  0  0  0
  -18.8520   -1.2990  -26.8330 N   0  0  0  0  0  0  0  0  0  0  0  0
  -18.3260   -1.2960  -25.6030 C   0  0  0  0  0  0  0  0  0  0  0  0
  -18.4720   -2.5130  -25.0700 N   0  0  0  0  0  0  0  0  0  0  0  0
  -22.1300    0.2060  -37.3020 H   0  0  0  0  0  0  0  0  0  0  0  0
  -18.2410   -0.4780  -35.7360 H   0  0  0  0  0  0  0  0  0  0  0  0
  -21.3570    0.6170  -33.1070 H   0  0  0  0  0  0  0  0  0  0  0  0
  -17.4550   -1.5770  -30.7490 H   0  0  0  0  0  0  0  0  0  0  0  0
  -18.6070   -0.3200  -30.0020 H   0  0  0  0  0  0  0  0  0  0  0  0
  -19.0040   -3.2930  -30.6640 H   0  0  0  0  0  0  0  0  0  0  0  0
  -21.0540   -1.1450  -31.5340 H   0  0  0  0  0  0  0  0  0  0  0  0
  -20.3120   -2.4800  -32.5220 H   0  0  0  0  0  0  0  0  0  0  0  0
  -20.8940   -4.7180  -29.1030 H   0  0  0  0  0  0  0  0  0  0  0  0
  -20.3850   -7.0830  -26.2280 H   0  0  0  0  0  0  0  0  0  0  0  0
  -21.0540   -6.8780  -27.9340 H   0  0  0  0  0  0  0  0  0  0  0  0
  -19.3420   -5.2700  -25.1120 H   0  0  0  0  0  0  0  0  0  0  0  0
  -17.8460   -0.4570  -25.0820 H   0  0  0  0  0  0  0  0  0  0  0  0
  2  1  1  0  0  0  0
  2  7  1  0  0  0  0
  3  2  2  0  0  0  0
  4  3  1  0  0  0  0
  4  5  2  0  0  0  0
  5  6  1  0  0  0  0
  6  7  2  0  0  0  0
  6  8  1  0  0  0  0
  7 27  1  0  0  0  0
  8  9  2  0  0  0  0
  8 10  1  0  0  0  0
 10 13  1  0  0  0  0
 10 11  1  0  0  0  0
 11 12  1  0  0  0  0
 11 29  1  0  0  0  0
 12 14  1  0  0  0  0
 13 31  1  0  0  0  0
 13 12  1  0  0  0  0
 15 14  1  1  0  0  0
 15 16  1  0  0  0  0
 15 21  1  0  0  0  0
 16 17  2  0  0  0  0
 17 19  1  0  0  0  0
 18 17  1  0  0  0  0
 18 34  1  0  0  0  0
 19 36  1  0  0  0  0
 20 19  1  0  0  0  0
 20 24  2  0  0  0  0
 21 22  1  0  0  0  0
 21 20  1  0  0  0  0
 22 23  2  0  0  0  0
 23 37  1  0  0  0  0
 23 24  1  0  0  0  0
 25  3  1  0  0  0  0
 26  5  1  0  0  0  0
 28 11  1  0  0  0  0
 30 12  1  0  0  0  0
 32 13  1  0  0  0  0
 33 16  1  0  0  0  0
 35 18  1  0  0  0  0
M  END
>  <Pose>
1

>  <Score>
-7.32

$$$$
