
 OpenBabel03222201593D

 45 39  0  0  1  0  0  0  0  0999 V2000
  -19.1790   -3.0630  -25.6380 B   0  0  0  0  0  0  0  0  0  0  0  0
  -19.7080   -2.9320  -27.4640 C   0  0  0  0  0  0  0  0  0  0  0  0
  -20.1270   -4.0290  -28.1860 C   0  0  0  0  0  0  0  0  0  0  0  0
  -20.5000   -3.9440  -29.4750 N   0  0  0  0  0  0  0  0  0  0  0  0
  -20.4640   -2.7470  -30.0780 C   0  0  0  0  0  0  0  0  0  0  0  0
  -20.0580   -1.6040  -29.4270 C   0  0  0  0  0  0  0  0  0  0  0  0
  -19.6820   -1.7180  -28.1150 C   0  0  0  0  0  0  0  0  0  0  0  0
  -20.0240   -0.3090  -30.0970 C   0  0  0  0  0  0  0  0  0  0  0  0
  -19.5910    0.6960  -29.4830 O   0  0  0  0  0  0  0  0  0  0  0  0
  -20.4760   -0.2350  -31.4070 O   0  0  0  0  0  0  0  0  0  0  0  0
  -20.3010   -3.0080  -31.7780 N   0  0  0  0  0  0  0  0  0  0  0  0
  -21.6650   -3.5680  -31.8290 C   0  0  0  0  0  0  0  0  0  0  0  0
  -21.5920   -5.0280  -31.5230 C   0  0  0  0  0  0  0  0  0  0  0  0
  -21.0380   -5.2170  -30.1360 C   0  0  0  0  0  0  0  0  0  0  0  0
  -20.3780   -4.0280  -29.5730 C   0  0  0  0  0  0  0  0  0  0  0  0
  -20.0190   -2.9590  -30.3640 C   0  0  2  0  0  0  0  0  0  0  0  0
  -19.4240   -1.9150  -29.7910 N   0  0  0  0  0  0  0  0  0  0  0  0
  -19.1500   -1.8420  -28.4710 C   0  0  0  0  0  0  0  0  0  0  0  0
  -19.4960   -2.8940  -27.6490 C   0  0  0  0  0  0  0  0  0  0  0  0
  -20.1140   -3.9960  -28.1970 C   0  0  0  0  0  0  0  0  0  0  0  0
  -20.4690   -5.0790  -27.3450 N   0  0  0  0  0  0  0  0  0  0  0  0
  -19.2140   -2.8220  -26.2830 C   0  0  0  0  0  0  0  0  0  0  0  0
  -18.5970   -1.7290  -25.7150 C   0  0  0  0  0  0  0  0  0  0  0  0
  -18.2530   -0.6800  -26.5430 C   0  0  0  0  0  0  0  0  0  0  0  0
  -18.5330   -0.7510  -27.8990 C   0  0  0  0  0  0  0  0  0  0  0  0
  -20.3960   -1.6770  -32.3430 C   0  0  0  0  0  0  0  0  0  0  0  0
  -20.1420   -4.9890  -27.6560 H   0  0  0  0  0  0  0  0  0  0  0  0
  -20.7660   -2.6870  -31.1140 H   0  0  0  0  0  0  0  0  0  0  0  0
  -19.3500   -0.8680  -27.5300 H   0  0  0  0  0  0  0  0  0  0  0  0
  -19.6380   -3.6150  -32.2870 H   0  0  0  0  0  0  0  0  0  0  0  0
  -22.1120   -3.4330  -32.8300 H   0  0  0  0  0  0  0  0  0  0  0  0
  -22.2350   -3.0330  -31.0360 H   0  0  0  0  0  0  0  0  0  0  0  0
  -22.6000   -5.4830  -31.6380 H   0  0  0  0  0  0  0  0  0  0  0  0
  -20.9160   -5.4920  -32.3000 H   0  0  0  0  0  0  0  0  0  0  0  0
  -21.8880   -5.5680  -29.5010 H   0  0  0  0  0  0  0  0  0  0  0  0
  -20.3430   -6.0940  -30.1910 H   0  0  0  0  0  0  0  0  0  0  0  0
  -21.2930   -5.6520  -27.6300 H   0  0  0  0  0  0  0  0  0  0  0  0
  -19.9750   -5.3330  -26.4780 H   0  0  0  0  0  0  0  0  0  0  0  0
  -19.4810   -3.6380  -25.6400 H   0  0  0  0  0  0  0  0  0  0  0  0
  -18.3950   -1.7140  -24.6460 H   0  0  0  0  0  0  0  0  0  0  0  0
  -17.7690    0.1700  -26.0810 H   0  0  0  0  0  0  0  0  0  0  0  0
  -18.2490    0.0910  -28.5220 H   0  0  0  0  0  0  0  0  0  0  0  0
  -20.9720   -1.0460  -31.6370 H   0  0  0  0  0  0  0  0  0  0  0  0
  -19.3640   -1.2730  -32.5160 H   0  0  0  0  0  0  0  0  0  0  0  0
  -20.9570   -1.7760  -33.2940 H   0  0  0  0  0  0  0  0  0  0  0  0
  4 20  2  0  0  0  0
  5  4  1  0  0  0  0
  6 18  1  0  0  0  0
  7 19  1  0  0  0  0
  8  9  2  0  0  0  0
 10  8  1  0  0  0  0
 11 28  1  0  0  0  0
 12 13  1  0  0  0  0
 12 32  1  0  0  0  0
 13 14  1  0  0  0  0
 14 15  1  0  0  0  0
 14 35  1  0  0  0  0
 16  5  1  1  0  0  0
 16 17  1  0  0  0  0
 16 15  1  0  0  0  0
 17  6  1  0  0  0  0
 18  7  1  0  0  0  0
 20  2  1  0  0  0  0
 21 38  1  0  0  0  0
 22  1  2  0  0  0  0
 23  1  1  0  0  0  0
 23 40  1  0  0  0  0
 24 41  1  0  0  0  0
 24 23  2  0  0  0  0
 25 29  1  0  0  0  0
 25 24  1  0  0  0  0
 26 11  1  0  0  0  0
 27 21  1  0  0  0  0
 30 11  1  0  0  0  0
 31 12  1  0  0  0  0
 33 13  1  0  0  0  0
 34 13  1  0  0  0  0
 36 14  1  0  0  0  0
 37 21  1  0  0  0  0
 39  1  1  0  0  0  0
 42 25  1  0  0  0  0
 43 10  1  0  0  0  0
 44 26  1  0  0  0  0
 45 26  1  0  0  0  0
M  END
>  <Pose>
1

>  <Score>
-7.52

$$$$
