
 OpenBabel03222201593D

 57 60  0  0  0  0  0  0  0  0999 V2000
  -22.0520   -4.6330  -32.4940 B   0  0  0  0  0  0  0  0  0  0  0  0
  -21.0950   -2.9920  -32.5390 C   0  0  0  0  0  0  0  0  0  0  0  0
  -21.2080   -2.1700  -33.6440 C   0  0  0  0  0  0  0  0  0  0  0  0
  -20.5290   -0.9460  -33.7420 C   0  0  0  0  0  0  0  0  0  0  0  0
  -19.7210   -0.5470  -32.7070 C   0  0  0  0  0  0  0  0  0  0  0  0
  -19.6040   -1.3640  -31.5990 C   0  0  0  0  0  0  0  0  0  0  0  0
  -20.2710   -2.5650  -31.5020 C   0  0  0  0  0  0  0  0  0  0  0  0
  -18.4930   -0.8400  -30.1450 B   0  0  0  0  0  0  0  0  0  0  0  0
  -20.6690   -0.1200  -34.9350 C   0  0  0  0  0  0  0  0  0  0  0  0
  -19.7320    0.6970  -35.1520 O   0  0  0  0  0  0  0  0  0  0  0  0
  -21.8170   -0.2230  -35.8290 C   0  0  0  0  0  0  0  0  0  0  0  0
  -22.6880   -1.4250  -35.3780 C   0  0  0  0  0  0  0  0  0  0  0  0
  -21.9820   -2.4370  -34.7600 O   0  0  0  0  0  0  0  0  0  0  0  0
  -22.7530    0.8960  -35.8690 C   0  0  0  0  0  0  0  0  0  0  0  0
  -22.4360    2.2430  -35.9920 N   0  0  0  0  0  4  0  0  0  0  0  0
  -21.4890    2.6880  -36.9660 C   0  0  0  0  0  0  0  0  0  0  0  0
  -21.8360    4.1710  -37.2550 C   0  0  0  0  0  0  0  0  0  0  0  0
  -21.3760    4.9290  -36.0270 C   0  0  0  0  0  0  0  0  0  0  0  0
  -21.1710    4.0110  -34.8430 C   0  0  0  0  0  0  0  0  0  0  0  0
  -22.2650    2.9690  -34.7430 C   0  0  0  0  0  0  0  0  0  0  0  0
  -21.2930   -0.5060  -37.2280 C   0  0  0  0  0  0  0  0  0  0  0  0
  -22.1080   -1.4480  -37.9550 N   0  0  0  0  0  4  0  0  0  0  0  0
  -21.5030   -1.6460  -39.2640 C   0  0  0  0  0  0  0  0  0  0  0  0
  -21.3170   -0.3180  -39.9200 C   0  0  0  0  0  0  0  0  0  0  0  0
  -22.5370    0.5240  -40.0010 C   0  0  0  0  0  0  0  0  0  0  0  0
  -23.4710    0.4130  -38.8460 C   0  0  0  0  0  0  0  0  0  0  0  0
  -23.4490   -0.9750  -38.2470 C   0  0  0  0  0  0  0  0  0  0  0  0
  -19.1790    0.4080  -32.7620 H   0  0  0  0  0  0  0  0  0  0  0  0
  -20.1830   -3.2090  -30.6370 H   0  0  0  0  0  0  0  0  0  0  0  0
  -23.3110   -1.7630  -36.2400 H   0  0  0  0  0  0  0  0  0  0  0  0
  -23.4250   -1.0020  -34.6670 H   0  0  0  0  0  0  0  0  0  0  0  0
  -23.4430    0.8290  -34.9610 H   0  0  0  0  0  0  0  0  0  0  0  0
  -23.4990    0.6380  -36.6980 H   0  0  0  0  0  0  0  0  0  0  0  0
  -23.3550    2.6810  -36.3710 H   0  0  0  0  0  0  0  0  0  0  0  0
  -21.5840    2.1540  -37.9190 H   0  0  0  0  0  0  0  0  0  0  0  0
  -20.4450    2.7950  -36.5950 H   0  0  0  0  0  0  0  0  0  0  0  0
  -22.9250    4.2780  -37.4140 H   0  0  0  0  0  0  0  0  0  0  0  0
  -21.2710    4.4690  -38.1600 H   0  0  0  0  0  0  0  0  0  0  0  0
  -20.3560    5.3340  -36.2800 H   0  0  0  0  0  0  0  0  0  0  0  0
  -22.0040    5.8010  -35.7990 H   0  0  0  0  0  0  0  0  0  0  0  0
  -21.3040    4.6700  -33.9340 H   0  0  0  0  0  0  0  0  0  0  0  0
  -20.1600    3.6060  -34.7540 H   0  0  0  0  0  0  0  0  0  0  0  0
  -23.1900    3.5540  -34.4520 H   0  0  0  0  0  0  0  0  0  0  0  0
  -22.0730    2.3390  -33.8740 H   0  0  0  0  0  0  0  0  0  0  0  0
  -21.1040    0.4200  -37.7780 H   0  0  0  0  0  0  0  0  0  0  0  0
  -20.3210   -1.0090  -37.0620 H   0  0  0  0  0  0  0  0  0  0  0  0
  -22.2170   -2.3390  -37.4370 H   0  0  0  0  0  0  0  0  0  0  0  0
  -20.5460   -2.1720  -39.2110 H   0  0  0  0  0  0  0  0  0  0  0  0
  -22.2500   -2.2120  -39.8800 H   0  0  0  0  0  0  0  0  0  0  0  0
  -20.9710   -0.5310  -40.9750 H   0  0  0  0  0  0  0  0  0  0  0  0
  -20.5000    0.2930  -39.4860 H   0  0  0  0  0  0  0  0  0  0  0  0
  -22.2340    1.6100  -40.0750 H   0  0  0  0  0  0  0  0  0  0  0  0
  -23.0520    0.3270  -40.9840 H   0  0  0  0  0  0  0  0  0  0  0  0
  -24.5150    0.5330  -39.2670 H   0  0  0  0  0  0  0  0  0  0  0  0
  -23.3840    1.2170  -38.0960 H   0  0  0  0  0  0  0  0  0  0  0  0
  -24.1710   -1.0920  -37.4460 H   0  0  0  0  0  0  0  0  0  0  0  0
  -23.8190   -1.6530  -39.0760 H   0  0  0  0  0  0  0  0  0  0  0  0
  2  1  1  0  0  0  0
  2  7  1  0  0  0  0
  3  2  2  0  0  0  0
  4  3  1  0  0  0  0
  4  5  2  0  0  0  0
  5  6  1  0  0  0  0
  6  7  2  0  0  0  0
  6  8  1  0  0  0  0
  7 29  1  0  0  0  0
  9  4  1  0  0  0  0
 10  9  2  0  0  0  0
 11 12  1  0  0  0  0
 11  9  1  0  0  0  0
 12 13  1  0  0  0  0
 12 31  1  0  0  0  0
 13  3  1  0  0  0  0
 14 11  1  0  0  0  0
 14 32  1  0  0  0  0
 15 14  1  0  0  0  0
 15 20  1  0  0  0  0
 16 36  1  0  0  0  0
 16 15  1  0  0  0  0
 17 16  1  0  0  0  0
 17 18  1  0  0  0  0
 18 40  1  0  0  0  0
 18 19  1  0  0  0  0
 19 42  1  0  0  0  0
 19 20  1  0  0  0  0
 19 41  1  0  0  0  0
 20 43  1  0  0  0  0
 20 44  1  0  0  0  0
 21 46  1  0  0  0  0
 21 11  1  0  0  0  0
 22 47  1  0  0  0  0
 22 21  1  0  0  0  0
 23 48  1  0  0  0  0
 23 22  1  0  0  0  0
 24 51  1  0  0  0  0
 24 23  1  0  0  0  0
 25 24  1  0  0  0  0
 25 26  1  0  0  0  0
 26 27  1  0  0  0  0
 26 55  1  0  0  0  0
 27 22  1  0  0  0  0
 27 56  1  0  0  0  0
 28  5  1  0  0  0  0
 30 12  1  0  0  0  0
 33 14  1  0  0  0  0
 34 15  1  0  0  0  0
 35 16  1  0  0  0  0
 37 17  1  0  0  0  0
 38 17  1  0  0  0  0
 39 18  1  0  0  0  0
 45 21  1  0  0  0  0
 49 23  1  0  0  0  0
 50 24  1  0  0  0  0
 52 25  1  0  0  0  0
 53 25  1  0  0  0  0
 54 26  1  0  0  0  0
 57 27  1  0  0  0  0
M  END
>  <Pose>
1

>  <Score>
-5.57

$$$$
