
 OpenBabel03222201593D

 44 47  0  0  1  0  0  0  0  0999 V2000
  -17.0380    1.5380  -22.7640 B   0  0  0  0  0  0  0  0  0  0  0  0
  -17.5930    1.3710  -24.5880 C   0  0  0  0  0  0  0  0  0  0  0  0
  -17.9870    0.1600  -25.1180 C   0  0  0  0  0  0  0  0  0  0  0  0
  -18.3920    0.0280  -26.4360 C   0  0  0  0  0  0  0  0  0  0  0  0
  -18.3830    1.1750  -27.1990 C   0  0  0  0  0  0  0  0  0  0  0  0
  -17.9970    2.4000  -26.7060 C   0  0  0  0  0  0  0  0  0  0  0  0
  -17.5940    2.5160  -25.3850 C   0  0  0  0  0  0  0  0  0  0  0  0
  -18.0090    3.9540  -27.8190 B   0  0  0  0  0  0  0  0  0  0  0  0
  -18.7560   -1.3490  -26.7360 C   0  0  0  0  0  0  0  0  0  0  0  0
  -19.1750   -1.8750  -27.8250 N   0  0  0  0  0  0  0  0  0  0  0  0
  -19.4830   -3.2340  -27.9420 N   0  0  0  0  0  0  0  0  0  0  0  0
  -20.5370   -3.6040  -28.8060 C   0  0  0  0  0  0  0  0  0  0  0  0
  -21.5540   -4.1730  -28.3560 O   0  0  0  0  0  0  0  0  0  0  0  0
  -20.4960   -3.3390  -30.2790 C   0  0  0  0  0  0  0  0  0  0  0  0
  -21.6960   -3.7770  -30.9370 N   0  0  0  0  0  0  0  0  0  0  0  0
  -21.6930   -4.3790  -32.2250 C   0  0  0  0  0  0  0  0  0  0  0  0
  -21.6680   -5.6270  -32.2970 O   0  0  0  0  0  0  0  0  0  0  0  0
  -21.7180   -3.6000  -33.4990 C   0  0  2  0  0  0  0  0  0  0  0  0
  -20.5480   -2.8570  -33.6800 O   0  0  0  0  0  0  0  0  0  0  0  0
  -20.4670   -1.4690  -33.6040 C   0  0  0  0  0  0  0  0  0  0  0  0
  -21.6390   -0.7700  -33.7270 C   0  0  0  0  0  0  0  0  0  0  0  0
  -21.5870    0.6220  -33.6570 C   0  0  0  0  0  0  0  0  0  0  0  0
  -20.4100    1.3100  -33.4710 C   0  0  0  0  0  0  0  0  0  0  0  0
  -19.2480    0.5710  -33.3520 C   0  0  0  0  0  0  0  0  0  0  0  0
  -19.2930   -0.8010  -33.4200 C   0  0  0  0  0  0  0  0  0  0  0  0
  -22.8150   -1.4440  -33.9120 O   0  0  0  0  0  0  0  0  0  0  0  0
  -22.9710   -2.8140  -33.6650 C   0  0  0  0  0  0  0  0  0  0  0  0
  -18.5470   -2.0940  -25.4890 C   0  0  0  0  0  0  0  0  0  0  0  0
  -18.7600   -3.3300  -25.3660 O   0  0  0  0  0  0  0  0  0  0  0  0
  -18.0860   -1.1420  -24.5510 N   0  0  0  0  0  0  0  0  0  0  0  0
  -18.6900    1.1220  -28.2300 H   0  0  0  0  0  0  0  0  0  0  0  0
  -17.2920    3.4550  -24.9820 H   0  0  0  0  0  0  0  0  0  0  0  0
  -18.9150   -3.9030  -27.3800 H   0  0  0  0  0  0  0  0  0  0  0  0
  -20.4210   -2.2340  -30.3800 H   0  0  0  0  0  0  0  0  0  0  0  0
  -19.5780   -3.7680  -30.7370 H   0  0  0  0  0  0  0  0  0  0  0  0
  -22.6340   -3.6700  -30.4860 H   0  0  0  0  0  0  0  0  0  0  0  0
  -21.6990   -4.3930  -34.3040 H   0  0  0  0  0  0  0  0  0  0  0  0
  -22.5260    1.1520  -33.7570 H   0  0  0  0  0  0  0  0  0  0  0  0
  -20.4140    2.3880  -33.4220 H   0  0  0  0  0  0  0  0  0  0  0  0
  -18.3070    1.1290  -33.2030 H   0  0  0  0  0  0  0  0  0  0  0  0
  -18.3690   -1.3550  -33.3250 H   0  0  0  0  0  0  0  0  0  0  0  0
  -23.6020   -3.2520  -34.5000 H   0  0  0  0  0  0  0  0  0  0  0  0
  -23.5920   -2.9100  -32.7440 H   0  0  0  0  0  0  0  0  0  0  0  0
  -17.8480   -1.3630  -23.5700 H   0  0  0  0  0  0  0  0  0  0  0  0
  2  1  1  0  0  0  0
  3  2  1  0  0  0  0
  3 30  1  0  0  0  0
  4  3  2  0  0  0  0
  5  6  2  0  0  0  0
  5  4  1  0  0  0  0
  6  7  1  0  0  0  0
  7 32  1  0  0  0  0
  7  2  2  0  0  0  0
  8  6  1  0  0  0  0
  9  4  1  0  0  0  0
  9 28  1  0  0  0  0
 10  9  2  0  0  0  0
 11 10  1  0  0  0  0
 11 33  1  0  0  0  0
 12 13  2  0  0  0  0
 12 11  1  0  0  0  0
 14 12  1  0  0  0  0
 15 36  1  0  0  0  0
 15 14  1  0  0  0  0
 16 15  1  0  0  0  0
 17 16  2  0  0  0  0
 18 37  1  6  0  0  0
 18 16  1  0  0  0  0
 19 20  1  0  0  0  0
 19 18  1  0  0  0  0
 20 25  1  0  0  0  0
 21 22  1  0  0  0  0
 21 20  2  0  0  0  0
 22 23  2  0  0  0  0
 23 39  1  0  0  0  0
 23 24  1  0  0  0  0
 24 40  1  0  0  0  0
 25 24  2  0  0  0  0
 25 41  1  0  0  0  0
 26 21  1  0  0  0  0
 26 27  1  0  0  0  0
 27 18  1  0  0  0  0
 27 43  1  0  0  0  0
 28 29  2  0  0  0  0
 28 30  1  0  0  0  0
 30 44  1  0  0  0  0
 31  5  1  0  0  0  0
 34 14  1  0  0  0  0
 35 14  1  0  0  0  0
 38 22  1  0  0  0  0
 42 27  1  0  0  0  0
M  END
>  <Pose>
1

>  <Score>
-9.16

$$$$
