
 OpenBabel03222201593D

 40 43  0  0  0  0  0  0  0  0999 V2000
  -20.4360   -4.8620  -28.2200 B   0  0  0  0  0  0  0  0  0  0  0  0
  -20.4430   -3.7730  -29.7880 C   0  0  0  0  0  0  0  0  0  0  0  0
  -19.7630   -2.6050  -29.8780 N   0  0  0  0  0  0  0  0  0  0  0  0
  -20.0050   -2.1250  -31.1200 C   0  0  0  0  0  0  0  0  0  0  0  0
  -20.8400   -2.9960  -31.8140 C   0  0  0  0  0  0  0  0  0  0  0  0
  -21.0840   -4.0020  -30.9440 N   0  0  0  0  0  0  0  0  0  0  0  0
  -21.2180   -2.7360  -33.0780 N   0  0  0  0  0  0  0  0  0  0  0  0
  -20.7940   -1.6240  -33.7040 C   0  0  0  0  0  0  0  0  0  0  0  0
  -21.1470   -1.3700  -34.8990 O   0  0  0  0  0  0  0  0  0  0  0  0
  -19.9840   -0.7480  -33.0830 N   0  0  0  0  0  0  0  0  0  0  0  0
  -19.6000   -1.0050  -31.8060 C   0  0  0  0  0  0  0  0  0  0  0  0
  -18.8360   -0.2070  -31.1890 O   0  0  0  0  0  0  0  0  0  0  0  0
  -22.0860   -3.6340  -33.8050 C   0  0  0  0  0  0  0  0  0  0  0  0
  -18.9560   -2.0450  -28.8480 C   0  0  0  0  0  0  0  0  0  0  0  0
  -19.5810   -1.0050  -27.9890 C   0  0  0  0  0  0  0  0  0  0  0  0
  -18.9730   -0.7070  -26.7400 N   0  0  0  0  0  0  0  0  0  0  0  0
  -18.4650    0.4670  -26.3310 C   0  0  0  0  0  0  0  0  0  0  0  0
  -17.9630    0.3200  -25.0550 C   0  0  0  0  0  0  0  0  0  0  0  0
  -18.1980   -0.9690  -24.7390 N   0  0  0  0  0  0  0  0  0  0  0  0
  -18.8050   -1.6120  -25.7300 C   0  0  0  0  0  0  0  0  0  0  0  0
  -19.3530   -3.4580  -25.7720 B   0  0  0  0  0  0  0  0  0  0  0  0
  -17.4080    1.3570  -24.4280 N   0  0  0  0  0  0  0  0  0  0  0  0
  -17.3300    2.5490  -25.0260 C   0  0  0  0  0  0  0  0  0  0  0  0
  -16.8020    3.5590  -24.4530 O   0  0  0  0  0  0  0  0  0  0  0  0
  -17.7950    2.7720  -26.2680 N   0  0  0  0  0  0  0  0  0  0  0  0
  -18.3540    1.7290  -26.8950 C   0  0  0  0  0  0  0  0  0  0  0  0
  -18.7930    1.9280  -28.0490 O   0  0  0  0  0  0  0  0  0  0  0  0
  -16.8770    1.2170  -23.0920 C   0  0  0  0  0  0  0  0  0  0  0  0
  -19.6430    0.1200  -33.5490 H   0  0  0  0  0  0  0  0  0  0  0  0
  -21.5250   -4.0290  -34.6900 H   0  0  0  0  0  0  0  0  0  0  0  0
  -22.9840   -3.0680  -34.0940 H   0  0  0  0  0  0  0  0  0  0  0  0
  -22.4030   -4.4680  -33.1310 H   0  0  0  0  0  0  0  0  0  0  0  0
  -17.9610   -1.7240  -29.2410 H   0  0  0  0  0  0  0  0  0  0  0  0
  -18.6740   -2.8890  -28.1390 H   0  0  0  0  0  0  0  0  0  0  0  0
  -20.6740   -1.2470  -27.8950 H   0  0  0  0  0  0  0  0  0  0  0  0
  -19.5600   -0.0460  -28.5980 H   0  0  0  0  0  0  0  0  0  0  0  0
  -17.7180    3.7240  -26.7100 H   0  0  0  0  0  0  0  0  0  0  0  0
  -17.4390    0.3980  -22.6050 H   0  0  0  0  0  0  0  0  0  0  0  0
  -15.8050    1.0160  -23.0570 H   0  0  0  0  0  0  0  0  0  0  0  0
  -17.0780    2.1290  -22.4750 H   0  0  0  0  0  0  0  0  0  0  0  0
  2  1  1  0  0  0  0
  3  2  1  0  0  0  0
  3 14  1  0  0  0  0
  4  3  1  0  0  0  0
  5  4  2  0  0  0  0
  5  6  1  0  0  0  0
  6  2  2  0  0  0  0
  7  5  1  0  0  0  0
  8 10  1  0  0  0  0
  8  7  1  0  0  0  0
  9  8  2  0  0  0  0
 10 11  1  0  0  0  0
 11 12  2  0  0  0  0
 11  4  1  0  0  0  0
 13 32  1  0  0  0  0
 13  7  1  0  0  0  0
 14 34  1  0  0  0  0
 14 15  1  0  0  0  0
 15 35  1  0  0  0  0
 15 16  1  0  0  0  0
 16 17  1  0  0  0  0
 16 20  1  0  0  0  0
 17 18  2  0  0  0  0
 18 19  1  0  0  0  0
 18 22  1  0  0  0  0
 20 19  2  0  0  0  0
 21 20  1  0  0  0  0
 22 28  1  0  0  0  0
 23 24  2  0  0  0  0
 23 22  1  0  0  0  0
 25 23  1  0  0  0  0
 26 17  1  0  0  0  0
 26 25  1  0  0  0  0
 27 26  2  0  0  0  0
 28 39  1  0  0  0  0
 28 38  1  0  0  0  0
 28 40  1  0  0  0  0
 29 10  1  0  0  0  0
 30 13  1  0  0  0  0
 31 13  1  0  0  0  0
 33 14  1  0  0  0  0
 36 15  1  0  0  0  0
 37 25  1  0  0  0  0
M  END
>  <Pose>
1

>  <Score>
-7.98

$$$$
