
 OpenBabel03222201593D

 50 54  0  0  1  0  0  0  0  0999 V2000
  -18.0310    0.7120  -27.2390 B   0  0  0  0  0  0  0  0  0  0  0  0
  -18.8840   -0.8540  -27.9440 C   0  0  0  0  0  0  0  0  0  0  0  0
  -19.2000   -1.1120  -29.2260 N   0  0  0  0  0  0  0  0  0  0  0  0
  -19.7820   -2.2990  -29.3370 N   0  0  0  0  0  0  0  0  0  0  0  0
  -19.8300   -2.7930  -28.0860 C   0  0  0  0  0  0  0  0  0  0  0  0
  -19.2850   -1.9240  -27.2210 N   0  0  0  0  0  0  0  0  0  0  0  0
  -20.2720   -2.9400  -30.5560 C   0  0  2  0  0  0  0  0  0  0  0  0
  -20.3890   -1.9030  -31.6510 C   0  0  0  0  0  0  0  0  0  0  0  0
  -20.6800   -2.5860  -32.9550 C   0  0  2  0  0  0  0  0  0  0  0  0
  -22.0770   -3.2050  -32.8100 C   0  0  0  0  0  0  0  0  0  0  0  0
  -22.0580   -4.1740  -31.6560 C   0  0  2  0  0  0  0  0  0  0  0  0
  -21.6500   -3.5310  -30.3560 C   0  0  0  0  0  0  0  0  0  0  0  0
  -21.1280   -5.2970  -31.9900 C   0  0  0  0  0  0  0  0  0  0  0  0
  -19.7390   -4.7300  -32.1790 C   0  0  2  0  0  0  0  0  0  0  0  0
  -19.3360   -4.0530  -30.9130 C   0  0  0  0  0  0  0  0  0  0  0  0
  -19.7470   -3.7020  -33.2890 C   0  0  0  0  0  0  0  0  0  0  0  0
  -20.7020   -1.6240  -34.0780 C   0  0  0  0  0  0  0  0  0  0  0  0
  -21.7680   -0.9930  -34.2940 O   0  0  0  0  0  0  0  0  0  0  0  0
  -19.5500   -1.4190  -34.8910 N   0  0  0  0  0  0  0  0  0  0  0  0
  -19.2700   -0.2340  -35.6210 C   0  0  0  0  0  0  0  0  0  0  0  0
  -18.7290    0.8980  -35.0790 C   0  0  0  0  0  0  0  0  0  0  0  0
  -18.6130    1.8030  -36.0800 N   0  0  0  0  0  0  0  0  0  0  0  0
  -19.0610    1.2630  -37.1940 N   0  0  0  0  0  0  0  0  0  0  0  0
  -19.4760    0.0130  -36.9620 C   0  0  0  0  0  0  0  0  0  0  0  0
  -18.0910    3.1560  -35.9980 C   0  0  0  0  0  0  0  0  0  0  0  0
  -18.3160    1.2040  -33.7250 C   0  0  0  0  0  0  0  0  0  0  0  0
  -18.8530    2.1340  -33.0730 O   0  0  0  0  0  0  0  0  0  0  0  0
  -17.2930    0.4930  -33.0400 N   0  0  0  0  0  0  0  0  0  0  0  0
  -20.2460   -3.7510  -27.8140 H   0  0  0  0  0  0  0  0  0  0  0  0
  -21.3090   -1.2990  -31.3980 H   0  0  0  0  0  0  0  0  0  0  0  0
  -19.5600   -1.1970  -31.6840 H   0  0  0  0  0  0  0  0  0  0  0  0
  -22.3640   -3.7530  -33.7130 H   0  0  0  0  0  0  0  0  0  0  0  0
  -22.8420   -2.4470  -32.6000 H   0  0  0  0  0  0  0  0  0  0  0  0
  -23.0760   -4.5830  -31.5230 H   0  0  0  0  0  0  0  0  0  0  0  0
  -22.3890   -2.7880  -30.0090 H   0  0  0  0  0  0  0  0  0  0  0  0
  -21.5980   -4.3250  -29.5950 H   0  0  0  0  0  0  0  0  0  0  0  0
  -21.4820   -5.8330  -32.9030 H   0  0  0  0  0  0  0  0  0  0  0  0
  -21.1090   -6.0450  -31.1790 H   0  0  0  0  0  0  0  0  0  0  0  0
  -18.9970   -5.5020  -32.4320 H   0  0  0  0  0  0  0  0  0  0  0  0
  -19.3410   -4.7830  -30.0910 H   0  0  0  0  0  0  0  0  0  0  0  0
  -18.3060   -3.6620  -31.0460 H   0  0  0  0  0  0  0  0  0  0  0  0
  -18.7240   -3.2890  -33.4050 H   0  0  0  0  0  0  0  0  0  0  0  0
  -20.1240   -4.2080  -34.1920 H   0  0  0  0  0  0  0  0  0  0  0  0
  -18.8770   -2.2060  -34.9420 H   0  0  0  0  0  0  0  0  0  0  0  0
  -19.8980   -0.6930  -37.6850 H   0  0  0  0  0  0  0  0  0  0  0  0
  -17.8820    3.5190  -37.0230 H   0  0  0  0  0  0  0  0  0  0  0  0
  -17.0750    3.0700  -35.5230 H   0  0  0  0  0  0  0  0  0  0  0  0
  -18.7650    3.8410  -35.4450 H   0  0  0  0  0  0  0  0  0  0  0  0
  -17.2430   -0.5580  -33.1810 H   0  0  0  0  0  0  0  0  0  0  0  0
  -16.5890    0.9210  -32.4090 H   0  0  0  0  0  0  0  0  0  0  0  0
  2  1  1  0  0  0  0
  2  6  1  0  0  0  0
  3  2  2  0  0  0  0
  4  3  1  0  0  0  0
  4  5  1  0  0  0  0
  5 29  1  0  0  0  0
  5  6  2  0  0  0  0
  7 12  1  0  0  0  0
  7  4  1  1  0  0  0
  8 30  1  0  0  0  0
  8  7  1  0  0  0  0
  9 17  1  6  0  0  0
  9 10  1  0  0  0  0
  9  8  1  0  0  0  0
 10 33  1  0  0  0  0
 10 11  1  0  0  0  0
 11 34  1  1  0  0  0
 11 12  1  0  0  0  0
 12 35  1  0  0  0  0
 12 36  1  0  0  0  0
 13 11  1  0  0  0  0
 13 38  1  0  0  0  0
 14 39  1  6  0  0  0
 14 13  1  0  0  0  0
 14 15  1  0  0  0  0
 15  7  1  0  0  0  0
 15 40  1  0  0  0  0
 16  9  1  0  0  0  0
 16 14  1  0  0  0  0
 18 17  2  0  0  0  0
 19 17  1  0  0  0  0
 20 21  2  0  0  0  0
 20 19  1  0  0  0  0
 21 26  1  0  0  0  0
 22 25  1  0  0  0  0
 22 21  1  0  0  0  0
 23 24  2  0  0  0  0
 23 22  1  0  0  0  0
 24 20  1  0  0  0  0
 25 47  1  0  0  0  0
 25 48  1  0  0  0  0
 26 27  2  0  0  0  0
 26 28  1  0  0  0  0
 28 50  1  0  0  0  0
 31  8  1  0  0  0  0
 32 10  1  0  0  0  0
 37 13  1  0  0  0  0
 41 15  1  0  0  0  0
 42 16  1  0  0  0  0
 43 16  1  0  0  0  0
 44 19  1  0  0  0  0
 45 24  1  0  0  0  0
 46 25  1  0  0  0  0
 49 28  1  0  0  0  0
M  END
>  <Pose>
1

>  <Score>
-5.92

$$$$
