
 OpenBabel03222201593D

 37 40  0  0  1  0  0  0  0  0999 V2000
  -22.6000   -2.1400  -33.7810 B   0  0  0  0  0  0  0  0  0  0  0  0
  -21.0210   -1.1200  -34.0800 C   0  0  0  0  0  0  0  0  0  0  0  0
  -20.7960   -0.2290  -35.0710 N   0  0  0  0  0  0  0  0  0  0  0  0
  -19.6080    0.3190  -34.9640 N   0  0  0  0  0  0  0  0  0  0  0  0
  -19.0390   -0.2280  -33.8750 C   0  0  0  0  0  0  0  0  0  0  0  0
  -17.8510   -0.0260  -33.2960 N   0  0  0  0  0  0  0  0  0  0  0  0
  -17.4920   -0.6850  -32.1800 C   0  0  0  0  0  0  0  0  0  0  0  0
  -18.3250   -1.5750  -31.6110 N   0  0  0  0  0  0  0  0  0  0  0  0
  -19.5570   -1.8350  -32.1460 C   0  0  0  0  0  0  0  0  0  0  0  0
  -19.9040   -1.1540  -33.2790 C   0  0  0  0  0  0  0  0  0  0  0  0
  -20.3790   -2.8370  -31.5280 N   0  0  0  0  0  0  0  0  0  0  0  0
  -20.8960   -2.6830  -30.2050 C   0  0  1  0  0  0  0  0  0  0  0  0
  -21.0680   -3.9650  -29.4860 C   0  0  0  0  0  0  0  0  0  0  0  0
  -20.9180   -5.1160  -30.2110 O   0  0  0  0  0  0  0  0  0  0  0  0
  -21.4110   -5.0110  -31.5070 C   0  0  0  0  0  0  0  0  0  0  0  0
  -20.6720   -3.9940  -32.3170 C   0  0  0  0  0  0  0  0  0  0  0  0
  -20.1390   -1.6690  -29.4360 C   0  0  0  0  0  0  0  0  0  0  0  0
  -20.3580   -0.3540  -29.4450 N   0  0  0  0  0  0  0  0  0  0  0  0
  -19.4370    0.1950  -28.6020 C   0  0  0  0  0  0  0  0  0  0  0  0
  -18.7020   -0.8250  -28.1240 N   0  0  0  0  0  0  0  0  0  0  0  0
  -19.1440   -1.9340  -28.6400 O   0  0  0  0  0  0  0  0  0  0  0  0
  -19.2670    1.6280  -28.2690 C   0  0  0  0  0  0  0  0  0  0  0  0
  -19.0420    1.3150  -35.8550 C   0  0  0  0  0  0  0  0  0  0  0  0
  -16.5020   -0.4640  -31.7660 H   0  0  0  0  0  0  0  0  0  0  0  0
  -21.9730   -2.2890  -30.3620 H   0  0  0  0  0  0  0  0  0  0  0  0
  -22.0260   -3.9950  -28.8800 H   0  0  0  0  0  0  0  0  0  0  0  0
  -20.2770   -3.9960  -28.6760 H   0  0  0  0  0  0  0  0  0  0  0  0
  -21.2600   -6.0040  -31.9860 H   0  0  0  0  0  0  0  0  0  0  0  0
  -22.5160   -4.8430  -31.5150 H   0  0  0  0  0  0  0  0  0  0  0  0
  -19.7670   -4.4180  -32.8150 H   0  0  0  0  0  0  0  0  0  0  0  0
  -21.3090   -3.6230  -33.1780 H   0  0  0  0  0  0  0  0  0  0  0  0
  -19.5660    2.2370  -29.1700 H   0  0  0  0  0  0  0  0  0  0  0  0
  -18.2170    1.8850  -28.0440 H   0  0  0  0  0  0  0  0  0  0  0  0
  -19.9250    1.9450  -27.4220 H   0  0  0  0  0  0  0  0  0  0  0  0
  -19.6100    1.3200  -36.8060 H   0  0  0  0  0  0  0  0  0  0  0  0
  -17.9790    1.0440  -36.0750 H   0  0  0  0  0  0  0  0  0  0  0  0
  -19.1260    2.3480  -35.4330 H   0  0  0  0  0  0  0  0  0  0  0  0
  2  1  1  0  0  0  0
  2 10  1  0  0  0  0
  3  4  1  0  0  0  0
  3  2  2  0  0  0  0
  4  5  1  0  0  0  0
  5  6  1  0  0  0  0
  5 10  2  0  0  0  0
  6  7  2  0  0  0  0
  7 24  1  0  0  0  0
  7  8  1  0  0  0  0
  9  8  2  0  0  0  0
  9 11  1  0  0  0  0
 10  9  1  0  0  0  0
 11 12  1  0  0  0  0
 12 25  1  6  0  0  0
 12 13  1  0  0  0  0
 12 17  1  0  0  0  0
 13 26  1  0  0  0  0
 13 27  1  0  0  0  0
 14 13  1  0  0  0  0
 15 14  1  0  0  0  0
 16 11  1  0  0  0  0
 16 15  1  0  0  0  0
 17 21  1  0  0  0  0
 18 17  2  0  0  0  0
 18 19  1  0  0  0  0
 19 22  1  0  0  0  0
 19 20  2  0  0  0  0
 21 20  1  0  0  0  0
 22 33  1  0  0  0  0
 22 34  1  0  0  0  0
 23 37  1  0  0  0  0
 23  4  1  0  0  0  0
 28 15  1  0  0  0  0
 29 15  1  0  0  0  0
 30 16  1  0  0  0  0
 31 16  1  0  0  0  0
 32 22  1  0  0  0  0
 35 23  1  0  0  0  0
 36 23  1  0  0  0  0
M  END
>  <Pose>
1

>  <Score>
-5.31

$$$$
