
 OpenBabel03222201593D

 35 38  0  0  0  0  0  0  0  0999 V2000
  -20.1510   -3.7310  -27.8630 B   0  0  0  0  0  0  0  0  0  0  0  0
  -19.2700   -2.6030  -26.6070 C   0  0  0  0  0  0  0  0  0  0  0  0
  -18.9570   -2.9300  -25.3190 N   0  0  0  0  0  0  0  0  0  0  0  0
  -18.3370   -1.9150  -24.7660 N   0  0  0  0  0  0  0  0  0  0  0  0
  -18.2250   -0.9110  -25.6510 C   0  0  0  0  0  0  0  0  0  0  0  0
  -17.6800    0.3150  -25.6010 N   0  0  0  0  0  0  0  0  0  0  0  0
  -17.6930    1.1330  -26.6500 C   0  0  0  0  0  0  0  0  0  0  0  0
  -18.2580    0.7390  -27.7870 N   0  0  0  0  0  0  0  0  0  0  0  0
  -18.8450   -0.4930  -27.9470 C   0  0  0  0  0  0  0  0  0  0  0  0
  -18.8200   -1.3240  -26.8540 C   0  0  0  0  0  0  0  0  0  0  0  0
  -19.4610   -0.8460  -29.1470 N   0  0  0  0  0  0  0  0  0  0  0  0
  -20.6960   -0.2220  -29.5690 C   0  0  0  0  0  0  0  0  0  0  0  0
  -20.3550    0.7160  -30.7450 C   0  0  0  0  0  0  0  0  0  0  0  0
  -19.3160    0.0850  -31.5870 C   0  0  0  0  0  0  0  0  0  0  0  0
  -18.8520    0.5320  -32.7770 N   0  0  0  0  0  0  0  0  0  0  0  0
  -17.9180   -0.3340  -33.2040 C   0  0  0  0  0  0  0  0  0  0  0  0
  -17.7700   -1.3230  -32.3250 N   0  0  0  0  0  0  0  0  0  0  0  0
  -18.6360   -1.0660  -31.3210 C   0  0  0  0  0  0  0  0  0  0  0  0
  -18.9190   -1.8110  -30.0700 C   0  0  0  0  0  0  0  0  0  0  0  0
  -19.2470    1.7130  -33.5010 C   0  0  0  0  0  0  0  0  0  0  0  0
  -17.8140   -1.8100  -23.3960 C   0  0  0  0  0  0  0  0  0  0  0  0
  -17.2500    2.1010  -26.5780 H   0  0  0  0  0  0  0  0  0  0  0  0
  -21.1720    0.4050  -28.8040 H   0  0  0  0  0  0  0  0  0  0  0  0
  -21.4500   -0.9660  -29.9220 H   0  0  0  0  0  0  0  0  0  0  0  0
  -19.9910    1.6930  -30.3760 H   0  0  0  0  0  0  0  0  0  0  0  0
  -21.3070    0.8920  -31.2760 H   0  0  0  0  0  0  0  0  0  0  0  0
  -17.3360   -0.2730  -34.1370 H   0  0  0  0  0  0  0  0  0  0  0  0
  -18.0310   -2.3400  -29.6740 H   0  0  0  0  0  0  0  0  0  0  0  0
  -19.7380   -2.5440  -30.3340 H   0  0  0  0  0  0  0  0  0  0  0  0
  -18.3680    2.2470  -33.9230 H   0  0  0  0  0  0  0  0  0  0  0  0
  -19.8760    1.4250  -34.3770 H   0  0  0  0  0  0  0  0  0  0  0  0
  -19.7790    2.4330  -32.8350 H   0  0  0  0  0  0  0  0  0  0  0  0
  -16.7390   -1.5450  -23.4270 H   0  0  0  0  0  0  0  0  0  0  0  0
  -17.9920   -2.7630  -22.8690 H   0  0  0  0  0  0  0  0  0  0  0  0
  -18.3820   -1.0250  -22.8460 H   0  0  0  0  0  0  0  0  0  0  0  0
  1  2  1  0  0  0  0
  2  3  2  0  0  0  0
  3  4  1  0  0  0  0
  4 21  1  0  0  0  0
  5  6  1  0  0  0  0
  5  4  1  0  0  0  0
  7 22  1  0  0  0  0
  7  6  2  0  0  0  0
  8  7  1  0  0  0  0
  9  8  2  0  0  0  0
  9 10  1  0  0  0  0
 10  2  1  0  0  0  0
 10  5  2  0  0  0  0
 11  9  1  0  0  0  0
 12 11  1  0  0  0  0
 12 23  1  0  0  0  0
 13 25  1  0  0  0  0
 13 12  1  0  0  0  0
 14 18  2  0  0  0  0
 14 13  1  0  0  0  0
 15 14  1  0  0  0  0
 16 15  1  0  0  0  0
 16 17  2  0  0  0  0
 17 18  1  0  0  0  0
 18 19  1  0  0  0  0
 19 28  1  0  0  0  0
 19 11  1  0  0  0  0
 20 32  1  0  0  0  0
 20 15  1  0  0  0  0
 21 34  1  0  0  0  0
 21 35  1  0  0  0  0
 24 12  1  0  0  0  0
 26 13  1  0  0  0  0
 27 16  1  0  0  0  0
 29 19  1  0  0  0  0
 30 20  1  0  0  0  0
 31 20  1  0  0  0  0
 33 21  1  0  0  0  0
M  END
>  <Pose>
1

>  <Score>
-5.88

$$$$
