
 OpenBabel03222201593D

 53 56  0  0  1  0  0  0  0  0999 V2000
  -18.8740   -0.6550  -28.5120 B   0  0  0  0  0  0  0  0  0  0  0  0
  -19.6400   -2.3630  -28.8110 C   0  0  0  0  0  0  0  0  0  0  0  0
  -19.9160   -3.3250  -27.9120 N   0  0  0  0  0  0  0  0  0  0  0  0
  -20.4260   -4.3860  -28.4770 N   0  0  0  0  0  0  0  0  0  0  0  0
  -20.5000   -4.1410  -29.8000 C   0  0  0  0  0  0  0  0  0  0  0  0
  -20.9260   -4.8690  -30.8460 N   0  0  0  0  0  0  0  0  0  0  0  0
  -20.8930   -4.4090  -32.1000 C   0  0  0  0  0  0  0  0  0  0  0  0
  -20.4240   -3.1880  -32.3300 N   0  0  0  0  0  0  0  0  0  0  0  0
  -19.9730   -2.3790  -31.3420 C   0  0  0  0  0  0  0  0  0  0  0  0
  -20.0080   -2.8620  -30.0390 C   0  0  0  0  0  0  0  0  0  0  0  0
  -19.5170   -1.0840  -31.6140 N   0  0  0  0  0  0  0  0  0  0  0  0
  -20.4070    0.0420  -31.6220 C   0  0  0  0  0  0  0  0  0  0  0  0
  -20.5470    0.4270  -33.0970 C   0  0  0  0  0  0  0  0  0  0  0  0
  -19.4320   -0.1100  -33.8860 N   0  0  0  0  0  0  0  0  0  0  0  0
  -18.1780    0.0900  -33.1560 C   0  0  0  0  0  0  0  0  0  0  0  0
  -18.1380   -0.8080  -31.9330 C   0  0  0  0  0  0  0  0  0  0  0  0
  -19.3790    0.6760  -35.1080 C   0  0  2  0  0  0  0  0  0  0  0  0
  -20.4140    1.8220  -34.9490 C   0  0  0  0  0  0  0  0  0  0  0  0
  -19.7560   -0.1340  -36.2800 C   0  0  0  0  0  0  0  0  0  0  0  0
  -18.7420   -0.4790  -37.0180 O   0  0  0  0  0  0  0  0  0  0  0  0
  -21.0330   -0.5560  -36.6830 N   0  0  0  0  0  0  0  0  0  0  0  0
  -21.6430   -0.4530  -37.9740 C   0  0  0  0  0  0  0  0  0  0  0  0
  -23.0760    0.0350  -37.9510 C   0  0  0  0  0  0  0  0  0  0  0  0
  -23.8670   -0.4260  -36.7760 C   0  0  0  0  0  0  0  0  0  0  0  0
  -23.0870   -0.3280  -35.4820 C   0  0  0  0  0  0  0  0  0  0  0  0
  -21.8760   -1.2080  -35.6540 C   0  0  0  0  0  0  0  0  0  0  0  0
  -20.8620   -5.6400  -27.8800 C   0  0  0  0  0  0  0  0  0  0  0  0
  -21.2540   -5.0410  -32.9430 H   0  0  0  0  0  0  0  0  0  0  0  0
  -19.8260    0.9230  -31.2030 H   0  0  0  0  0  0  0  0  0  0  0  0
  -21.3720   -0.1000  -31.1440 H   0  0  0  0  0  0  0  0  0  0  0  0
  -21.4570   -0.0810  -33.4690 H   0  0  0  0  0  0  0  0  0  0  0  0
  -20.6900    1.5120  -33.2430 H   0  0  0  0  0  0  0  0  0  0  0  0
  -17.3640   -0.2230  -33.8270 H   0  0  0  0  0  0  0  0  0  0  0  0
  -18.0590    1.1250  -32.8240 H   0  0  0  0  0  0  0  0  0  0  0  0
  -17.5140   -1.6800  -32.0950 H   0  0  0  0  0  0  0  0  0  0  0  0
  -17.7270   -0.2200  -31.0590 H   0  0  0  0  0  0  0  0  0  0  0  0
  -18.3880    1.1110  -35.2570 H   0  0  0  0  0  0  0  0  0  0  0  0
  -21.2290    1.4940  -34.2760 H   0  0  0  0  0  0  0  0  0  0  0  0
  -20.8720    2.0520  -35.9250 H   0  0  0  0  0  0  0  0  0  0  0  0
  -19.9220    2.7250  -34.5640 H   0  0  0  0  0  0  0  0  0  0  0  0
  -21.6620   -1.5210  -38.3720 H   0  0  0  0  0  0  0  0  0  0  0  0
  -21.1100    0.1380  -38.7090 H   0  0  0  0  0  0  0  0  0  0  0  0
  -23.5650   -0.4000  -38.8650 H   0  0  0  0  0  0  0  0  0  0  0  0
  -23.1170    1.1220  -38.0910 H   0  0  0  0  0  0  0  0  0  0  0  0
  -24.2090   -1.4640  -36.9300 H   0  0  0  0  0  0  0  0  0  0  0  0
  -24.7590    0.2090  -36.6790 H   0  0  0  0  0  0  0  0  0  0  0  0
  -22.8030    0.7400  -35.3140 H   0  0  0  0  0  0  0  0  0  0  0  0
  -23.7390   -0.6820  -34.6670 H   0  0  0  0  0  0  0  0  0  0  0  0
  -21.3300   -1.3650  -34.7200 H   0  0  0  0  0  0  0  0  0  0  0  0
  -22.2130   -2.1840  -36.0490 H   0  0  0  0  0  0  0  0  0  0  0  0
  -20.2080   -6.4900  -28.2030 H   0  0  0  0  0  0  0  0  0  0  0  0
  -21.8720   -5.8520  -28.2670 H   0  0  0  0  0  0  0  0  0  0  0  0
  -20.7930   -5.6030  -26.7820 H   0  0  0  0  0  0  0  0  0  0  0  0
  2  1  1  0  0  0  0
  2  3  2  0  0  0  0
  4  3  1  0  0  0  0
  4 27  1  0  0  0  0
  5  4  1  0  0  0  0
  6  5  1  0  0  0  0
  7  6  2  0  0  0  0
  8  7  1  0  0  0  0
  8  9  2  0  0  0  0
  9 10  1  0  0  0  0
 10  5  2  0  0  0  0
 10  2  1  0  0  0  0
 11  9  1  0  0  0  0
 12 11  1  0  0  0  0
 12 29  1  0  0  0  0
 12 30  1  0  0  0  0
 13 12  1  0  0  0  0
 14 15  1  0  0  0  0
 14 13  1  0  0  0  0
 15 34  1  0  0  0  0
 15 16  1  0  0  0  0
 16 11  1  0  0  0  0
 16 36  1  0  0  0  0
 17 37  1  6  0  0  0
 17 18  1  0  0  0  0
 17 14  1  0  0  0  0
 18 40  1  0  0  0  0
 18 38  1  0  0  0  0
 19 17  1  0  0  0  0
 20 19  2  0  0  0  0
 21 19  1  0  0  0  0
 21 26  1  0  0  0  0
 22 23  1  0  0  0  0
 22 21  1  0  0  0  0
 23 24  1  0  0  0  0
 24 46  1  0  0  0  0
 24 25  1  0  0  0  0
 25 47  1  0  0  0  0
 25 48  1  0  0  0  0
 26 25  1  0  0  0  0
 26 49  1  0  0  0  0
 27 53  1  0  0  0  0
 28  7  1  0  0  0  0
 31 13  1  0  0  0  0
 32 13  1  0  0  0  0
 33 15  1  0  0  0  0
 35 16  1  0  0  0  0
 39 18  1  0  0  0  0
 41 22  1  0  0  0  0
 42 22  1  0  0  0  0
 43 23  1  0  0  0  0
 44 23  1  0  0  0  0
 45 24  1  0  0  0  0
 50 26  1  0  0  0  0
 51 27  1  0  0  0  0
 52 27  1  0  0  0  0
M  END
>  <Pose>
1

>  <Score>
-6.08

$$$$
