
 OpenBabel03222201593D

 32 35  0  0  1  0  0  0  0  0999 V2000
  -21.5150   -0.7940  -33.6010 B   0  0  0  0  0  0  0  0  0  0  0  0
  -19.9320   -0.8090  -32.5200 C   0  0  0  0  0  0  0  0  0  0  0  0
  -19.8020   -0.4500  -31.2370 N   0  0  0  0  0  0  0  0  0  0  0  0
  -18.5360   -0.6090  -30.8570 C   0  0  0  0  0  0  0  0  0  0  0  0
  -17.8530   -1.0810  -31.9330 N   0  0  0  0  0  0  0  0  0  0  0  0
  -18.6940   -1.2140  -32.9730 C   0  0  0  0  0  0  0  0  0  0  0  0
  -18.1110   -0.2790  -29.4640 C   0  0  0  0  0  0  0  0  0  0  0  0
  -19.2020   -0.4890  -28.5450 N   0  0  2  0  0  0  0  0  0  0  0  0
  -20.5950   -0.4400  -28.9210 C   0  0  0  0  0  0  0  0  0  0  0  0
  -20.8130    0.0450  -30.3240 C   0  0  0  0  0  0  0  0  0  0  0  0
  -18.8870   -0.7560  -27.1980 C   0  0  2  0  0  0  0  0  0  0  0  0
  -18.3880    0.2020  -26.4520 C   0  0  0  0  0  0  0  0  0  0  0  0
  -18.0400   -0.0180  -25.0390 C   0  0  0  0  0  0  0  0  0  0  0  0
  -17.5380    0.9370  -24.2770 C   0  0  0  0  0  0  0  0  0  0  0  0
  -18.2820   -1.3290  -24.5530 N   0  0  0  0  0  0  0  0  0  0  0  0
  -18.8280   -2.3630  -25.3830 C   0  0  0  0  0  0  0  0  0  0  0  0
  -19.1130   -2.0500  -26.6760 N   0  0  0  0  0  0  0  0  0  0  0  0
  -19.6000   -3.1710  -27.2190 N   0  0  0  0  0  0  0  0  0  0  0  0
  -19.6310   -4.1690  -26.3230 C   0  0  0  0  0  0  0  0  0  0  0  0
  -19.1460   -3.6530  -25.1810 N   0  0  0  0  0  0  0  0  0  0  0  0
  -18.4510   -1.5710  -33.9830 H   0  0  0  0  0  0  0  0  0  0  0  0
  -17.2130   -0.8740  -29.2060 H   0  0  0  0  0  0  0  0  0  0  0  0
  -17.8410    0.8090  -29.4050 H   0  0  0  0  0  0  0  0  0  0  0  0
  -21.0930    0.2920  -28.2310 H   0  0  0  0  0  0  0  0  0  0  0  0
  -21.0420   -1.4180  -28.7290 H   0  0  0  0  0  0  0  0  0  0  0  0
  -21.8250   -0.2890  -30.6350 H   0  0  0  0  0  0  0  0  0  0  0  0
  -20.8170    1.1510  -30.4050 H   0  0  0  0  0  0  0  0  0  0  0  0
  -18.2030    1.2110  -26.8320 H   0  0  0  0  0  0  0  0  0  0  0  0
  -17.3500    1.9390  -24.6410 H   0  0  0  0  0  0  0  0  0  0  0  0
  -17.2830    0.7720  -23.2400 H   0  0  0  0  0  0  0  0  0  0  0  0
  -18.0570   -1.5500  -23.5590 H   0  0  0  0  0  0  0  0  0  0  0  0
  -19.9830   -5.1980  -26.4950 H   0  0  0  0  0  0  0  0  0  0  0  0
  1  2  1  0  0  0  0
  2  3  1  0  0  0  0
  3  4  1  0  0  0  0
  3 10  1  0  0  0  0
  4  7  1  0  0  0  0
  5  4  2  0  0  0  0
  6  2  2  0  0  0  0
  6  5  1  0  0  0  0
  7 23  1  0  0  0  0
  7 22  1  0  0  0  0
  8  7  1  1  0  0  0
  8 11  1  0  0  0  0
  9 25  1  0  0  0  0
  9  8  1  0  0  0  0
  9 24  1  0  0  0  0
 10  9  1  0  0  0  0
 11 17  1  0  0  0  0
 11 12  1  6  0  0  0
 12 13  2  0  0  0  0
 13 15  1  0  0  0  0
 13 14  1  0  0  0  0
 14 30  1  0  0  0  0
 15 31  1  0  0  0  0
 16 20  2  0  0  0  0
 16 15  1  0  0  0  0
 17 16  1  0  0  0  0
 18 17  1  0  0  0  0
 18 19  2  0  0  0  0
 19 20  1  0  0  0  0
 21  6  1  0  0  0  0
 26 10  1  0  0  0  0
 27 10  1  0  0  0  0
 28 12  1  0  0  0  0
 29 14  1  0  0  0  0
 32 19  1  0  0  0  0
M  END
>  <Pose>
1

>  <Score>
-6.68

$$$$
