
 OpenBabel03222201593D

 49 52  0  0  1  0  0  0  0  0999 V2000
  -17.3890    4.5630  -27.5200 B   0  0  0  0  0  0  0  0  0  0  0  0
  -17.8400    2.7090  -27.2620 C   0  0  0  0  0  0  0  0  0  0  0  0
  -18.5330    1.9710  -28.0890 O   0  0  0  0  0  0  0  0  0  0  0  0
  -18.6660    0.7330  -27.6110 C   0  0  0  0  0  0  0  0  0  0  0  0
  -18.0090    0.7040  -26.4010 C   0  0  0  0  0  0  0  0  0  0  0  0
  -17.4790    1.9460  -26.1620 C   0  0  0  0  0  0  0  0  0  0  0  0
  -19.3790   -0.3450  -28.2790 C   0  0  0  0  0  0  0  0  0  0  0  0
  -20.6220   -0.4140  -28.1880 O   0  0  0  0  0  0  0  0  0  0  0  0
  -18.6830   -1.3100  -29.0280 N   0  0  0  0  0  0  0  0  0  0  0  0
  -19.0730   -1.7150  -30.3640 C   0  0  1  0  0  0  0  0  0  0  0  0
  -20.2570   -2.6060  -30.2690 C   0  0  0  0  0  0  0  0  0  0  0  0
  -19.2180   -0.5670  -31.2750 C   0  0  0  0  0  0  0  0  0  0  0  0
  -19.1210    0.5900  -30.7340 O   0  0  0  0  0  0  0  0  0  0  0  0
  -19.4470   -0.6050  -32.6550 N   0  0  0  0  0  0  0  0  0  0  0  0
  -19.5910   -1.8430  -33.3930 C   0  0  0  0  0  0  0  0  0  0  0  0
  -20.9650   -1.8670  -33.9880 C   0  0  0  0  0  0  0  0  0  0  0  0
  -21.2660   -0.6250  -34.7650 C   0  0  1  0  0  0  0  0  0  0  0  0
  -21.6310   -1.0070  -36.1180 N   0  0  0  0  0  0  0  0  0  0  0  0
  -22.8730   -1.7530  -36.0520 C   0  0  0  0  0  0  0  0  0  0  0  0
  -23.9920   -0.7090  -35.9610 C   0  0  0  0  0  0  0  0  0  0  0  0
  -23.6830    0.1060  -34.7620 C   0  0  0  0  0  0  0  0  0  0  0  0
  -24.4920    0.9000  -34.0340 N   0  0  0  0  0  0  0  0  0  0  0  0
  -23.7510    1.4250  -33.0450 C   0  0  0  0  0  0  0  0  0  0  0  0
  -22.4970    0.9540  -33.1680 N   0  0  0  0  0  0  0  0  0  0  0  0
  -22.4190    0.1300  -34.2260 C   0  0  0  0  0  0  0  0  0  0  0  0
  -20.0210    0.2590  -34.8260 C   0  0  0  0  0  0  0  0  0  0  0  0
  -19.5500    0.6040  -33.4510 C   0  0  0  0  0  0  0  0  0  0  0  0
  -17.9410   -0.1640  -25.7740 H   0  0  0  0  0  0  0  0  0  0  0  0
  -16.8970    2.2790  -25.3020 H   0  0  0  0  0  0  0  0  0  0  0  0
  -17.8450   -1.7630  -28.6110 H   0  0  0  0  0  0  0  0  0  0  0  0
  -18.2230   -2.3400  -30.7690 H   0  0  0  0  0  0  0  0  0  0  0  0
  -20.5270   -2.7320  -29.2000 H   0  0  0  0  0  0  0  0  0  0  0  0
  -20.1020   -3.6410  -30.6400 H   0  0  0  0  0  0  0  0  0  0  0  0
  -21.1690   -2.1620  -30.7330 H   0  0  0  0  0  0  0  0  0  0  0  0
  -19.3430   -2.7290  -32.8040 H   0  0  0  0  0  0  0  0  0  0  0  0
  -18.8430   -1.8510  -34.2420 H   0  0  0  0  0  0  0  0  0  0  0  0
  -20.9960   -2.7580  -34.6800 H   0  0  0  0  0  0  0  0  0  0  0  0
  -21.7110   -2.0700  -33.1920 H   0  0  0  0  0  0  0  0  0  0  0  0
  -20.9160   -1.6680  -36.5340 H   0  0  0  0  0  0  0  0  0  0  0  0
  -23.0150   -2.4430  -36.8880 H   0  0  0  0  0  0  0  0  0  0  0  0
  -22.9470   -2.3280  -35.0880 H   0  0  0  0  0  0  0  0  0  0  0  0
  -23.8760   -0.0330  -36.8450 H   0  0  0  0  0  0  0  0  0  0  0  0
  -24.9780   -1.1810  -35.9210 H   0  0  0  0  0  0  0  0  0  0  0  0
  -25.5140    1.1080  -34.1660 H   0  0  0  0  0  0  0  0  0  0  0  0
  -24.0760    2.1020  -32.2790 H   0  0  0  0  0  0  0  0  0  0  0  0
  -20.3270    1.1820  -35.3710 H   0  0  0  0  0  0  0  0  0  0  0  0
  -19.2810   -0.2700  -35.4370 H   0  0  0  0  0  0  0  0  0  0  0  0
  -18.4880    0.9740  -33.5570 H   0  0  0  0  0  0  0  0  0  0  0  0
  -20.1360    1.3870  -32.9600 H   0  0  0  0  0  0  0  0  0  0  0  0
  1  2  1  0  0  0  0
  2  6  2  0  0  0  0
  3  4  1  0  0  0  0
  3  2  1  0  0  0  0
  4  5  2  0  0  0  0
  5  6  1  0  0  0  0
  5 28  1  0  0  0  0
  6 29  1  0  0  0  0
  7  8  2  0  0  0  0
  7  4  1  0  0  0  0
  9 30  1  0  0  0  0
  9  7  1  0  0  0  0
 10 31  1  6  0  0  0
 10 11  1  0  0  0  0
 10  9  1  0  0  0  0
 11 32  1  0  0  0  0
 12 13  2  0  0  0  0
 12 10  1  0  0  0  0
 14 12  1  0  0  0  0
 15 35  1  0  0  0  0
 15 14  1  0  0  0  0
 16 15  1  0  0  0  0
 16 38  1  0  0  0  0
 17 25  1  1  0  0  0
 17 16  1  0  0  0  0
 18 19  1  0  0  0  0
 18 17  1  0  0  0  0
 19 20  1  0  0  0  0
 19 41  1  0  0  0  0
 20 43  1  0  0  0  0
 20 21  1  0  0  0  0
 21 25  2  0  0  0  0
 21 22  1  0  0  0  0
 22 23  1  0  0  0  0
 23 45  1  0  0  0  0
 24 23  2  0  0  0  0
 25 24  1  0  0  0  0
 26 17  1  0  0  0  0
 26 27  1  0  0  0  0
 27 49  1  0  0  0  0
 27 14  1  0  0  0  0
 33 11  1  0  0  0  0
 34 11  1  0  0  0  0
 36 15  1  0  0  0  0
 37 16  1  0  0  0  0
 39 18  1  0  0  0  0
 40 19  1  0  0  0  0
 42 20  1  0  0  0  0
 44 22  1  0  0  0  0
 46 26  1  0  0  0  0
 47 26  1  0  0  0  0
 48 27  1  0  0  0  0
M  END
>  <Pose>
1

>  <Score>
-7.64

$$$$
