
 OpenBabel03222201593D

 49 52  0  0  0  0  0  0  0  0999 V2000
  -19.7590    1.1270  -38.3130 B   0  0  0  0  0  0  0  0  0  0  0  0
  -19.2430    1.7200  -36.5460 C   0  0  0  0  0  0  0  0  0  0  0  0
  -19.5370    1.1910  -35.4140 O   0  0  0  0  0  0  0  0  0  0  0  0
  -19.0230    1.8490  -34.4190 C   0  0  0  0  0  0  0  0  0  0  0  0
  -18.3260    2.9080  -34.9520 C   0  0  0  0  0  0  0  0  0  0  0  0
  -18.4660    2.8280  -36.3140 C   0  0  0  0  0  0  0  0  0  0  0  0
  -19.1330    1.5600  -32.9780 C   0  0  0  0  0  0  0  0  0  0  0  0
  -19.2100    2.5090  -32.1850 O   0  0  0  0  0  0  0  0  0  0  0  0
  -19.1520    0.2300  -32.4890 N   0  0  0  0  0  0  0  0  0  0  0  0
  -20.4180   -0.4360  -32.2650 C   0  0  0  0  0  0  0  0  0  0  0  0
  -20.6010   -0.8440  -30.8230 C   0  0  0  0  0  0  0  0  0  0  0  0
  -19.2510   -1.0900  -30.2870 N   0  0  0  0  0  0  0  0  0  0  0  0
  -18.3140   -1.6650  -31.1900 C   0  0  0  0  0  0  0  0  0  0  0  0
  -17.9630   -0.5430  -32.1850 C   0  0  0  0  0  0  0  0  0  0  0  0
  -19.0260   -0.7310  -28.9360 C   0  0  0  0  0  0  0  0  0  0  0  0
  -18.7710    0.5570  -28.5730 N   0  0  0  0  0  0  0  0  0  0  0  0
  -18.5530    0.9100  -27.2970 C   0  0  0  0  0  0  0  0  0  0  0  0
  -18.5830   -0.0240  -26.3210 N   0  0  0  0  0  0  0  0  0  0  0  0
  -18.8270   -1.3190  -26.5840 C   0  0  0  0  0  0  0  0  0  0  0  0
  -19.0490   -1.6520  -27.9290 C   0  0  0  0  0  0  0  0  0  0  0  0
  -18.8650   -2.3640  -25.5260 C   0  0  0  0  0  0  0  0  0  0  0  0
  -18.2930    2.2650  -26.9710 N   0  0  0  0  0  0  0  0  0  0  0  0
  -17.6670    2.6760  -25.7370 C   0  0  0  0  0  0  0  0  0  0  0  0
  -16.4940    3.5630  -26.0270 C   0  0  0  0  0  0  0  0  0  0  0  0
  -16.4290    3.9650  -27.3600 O   0  0  0  0  0  0  0  0  0  0  0  0
  -17.6680    4.4280  -27.7960 C   0  0  0  0  0  0  0  0  0  0  0  0
  -18.6650    3.3010  -27.9090 C   0  0  0  0  0  0  0  0  0  0  0  0
  -17.7630    3.6760  -34.3950 H   0  0  0  0  0  0  0  0  0  0  0  0
  -18.0360    3.5170  -37.0470 H   0  0  0  0  0  0  0  0  0  0  0  0
  -20.5530   -1.3150  -32.9270 H   0  0  0  0  0  0  0  0  0  0  0  0
  -21.2730    0.2650  -32.4950 H   0  0  0  0  0  0  0  0  0  0  0  0
  -21.1000   -0.0830  -30.2250 H   0  0  0  0  0  0  0  0  0  0  0  0
  -21.1140   -1.8460  -30.7480 H   0  0  0  0  0  0  0  0  0  0  0  0
  -17.4110   -1.9900  -30.6700 H   0  0  0  0  0  0  0  0  0  0  0  0
  -18.7890   -2.4970  -31.7680 H   0  0  0  0  0  0  0  0  0  0  0  0
  -17.1640    0.0150  -31.7080 H   0  0  0  0  0  0  0  0  0  0  0  0
  -17.5830   -0.9560  -33.1390 H   0  0  0  0  0  0  0  0  0  0  0  0
  -19.2410   -2.6940  -28.1130 H   0  0  0  0  0  0  0  0  0  0  0  0
  -18.0830   -3.1280  -25.7100 H   0  0  0  0  0  0  0  0  0  0  0  0
  -18.8010   -1.8750  -24.5550 H   0  0  0  0  0  0  0  0  0  0  0  0
  -19.8580   -2.8630  -25.6070 H   0  0  0  0  0  0  0  0  0  0  0  0
  -17.2930    1.7840  -25.1650 H   0  0  0  0  0  0  0  0  0  0  0  0
  -18.4040    3.2180  -25.0910 H   0  0  0  0  0  0  0  0  0  0  0  0
  -16.5650    4.5030  -25.4120 H   0  0  0  0  0  0  0  0  0  0  0  0
  -15.5390    3.0700  -25.7580 H   0  0  0  0  0  0  0  0  0  0  0  0
  -17.5480    4.9050  -28.7830 H   0  0  0  0  0  0  0  0  0  0  0  0
  -18.0390    5.2250  -27.0970 H   0  0  0  0  0  0  0  0  0  0  0  0
  -18.6870    2.9260  -28.9590 H   0  0  0  0  0  0  0  0  0  0  0  0
  -19.6720    3.7040  -27.6330 H   0  0  0  0  0  0  0  0  0  0  0  0
  1  2  1  0  0  0  0
  2  6  2  0  0  0  0
  2  3  1  0  0  0  0
  3  4  1  0  0  0  0
  4  7  1  0  0  0  0
  5  4  2  0  0  0  0
  5 28  1  0  0  0  0
  6  5  1  0  0  0  0
  7  9  1  0  0  0  0
  7  8  2  0  0  0  0
  9 10  1  0  0  0  0
  9 14  1  0  0  0  0
 10 11  1  0  0  0  0
 11 33  1  0  0  0  0
 11 12  1  0  0  0  0
 11 32  1  0  0  0  0
 12 15  1  0  0  0  0
 13 34  1  0  0  0  0
 13 12  1  0  0  0  0
 14 36  1  0  0  0  0
 14 13  1  0  0  0  0
 15 16  1  0  0  0  0
 15 20  2  0  0  0  0
 16 17  2  0  0  0  0
 17 22  1  0  0  0  0
 17 18  1  0  0  0  0
 19 18  2  0  0  0  0
 19 21  1  0  0  0  0
 20 19  1  0  0  0  0
 21 40  1  0  0  0  0
 22 23  1  0  0  0  0
 23 42  1  0  0  0  0
 23 43  1  0  0  0  0
 24 45  1  0  0  0  0
 24 23  1  0  0  0  0
 24 44  1  0  0  0  0
 25 24  1  0  0  0  0
 26 25  1  0  0  0  0
 26 47  1  0  0  0  0
 27 26  1  0  0  0  0
 27 49  1  0  0  0  0
 27 22  1  0  0  0  0
 29  6  1  0  0  0  0
 30 10  1  0  0  0  0
 31 10  1  0  0  0  0
 35 13  1  0  0  0  0
 37 14  1  0  0  0  0
 38 20  1  0  0  0  0
 39 21  1  0  0  0  0
 41 21  1  0  0  0  0
 46 26  1  0  0  0  0
 48 27  1  0  0  0  0
M  END
>  <Pose>
1

>  <Score>
-5.87

$$$$
