
 OpenBabel03222201593D

 53 56  0  0  0  0  0  0  0  0999 V2000
  -23.5140   -3.3840  -39.4360 B   0  0  0  0  0  0  0  0  0  0  0  0
  -23.5770   -2.1500  -37.9780 C   0  0  0  0  0  0  0  0  0  0  0  0
  -23.3350   -2.4330  -36.7230 O   0  0  0  0  0  0  0  0  0  0  0  0
  -23.4550   -1.3860  -35.9460 C   0  0  0  0  0  0  0  0  0  0  0  0
  -23.8030   -0.3370  -36.7620 C   0  0  0  0  0  0  0  0  0  0  0  0
  -23.8830   -0.8080  -38.0470 C   0  0  0  0  0  0  0  0  0  0  0  0
  -23.2540   -1.3440  -34.4790 C   0  0  0  0  0  0  0  0  0  0  0  0
  -24.0260   -0.6790  -33.7720 O   0  0  0  0  0  0  0  0  0  0  0  0
  -22.1770   -2.0680  -33.9030 N   0  0  0  0  0  0  0  0  0  0  0  0
  -22.3580   -3.4510  -33.4690 C   0  0  0  0  0  0  0  0  0  0  0  0
  -21.0720   -3.9690  -32.8290 C   0  0  0  0  0  0  0  0  0  0  0  0
  -20.6540   -2.9870  -31.8480 N   0  0  0  0  0  0  0  0  0  0  0  0
  -20.4220   -1.6360  -32.2810 C   0  0  0  0  0  0  0  0  0  0  0  0
  -20.8630   -1.4880  -33.7150 C   0  0  0  0  0  0  0  0  0  0  0  0
  -20.4720   -3.3380  -30.4700 C   0  0  0  0  0  0  0  0  0  0  0  0
  -21.0410   -4.4310  -29.9420 N   0  0  0  0  0  0  0  0  0  0  0  0
  -20.8530   -4.7320  -28.6520 C   0  0  0  0  0  0  0  0  0  0  0  0
  -20.0980   -3.9610  -27.8450 N   0  0  0  0  0  0  0  0  0  0  0  0
  -19.5000   -2.8510  -28.3120 C   0  0  0  0  0  0  0  0  0  0  0  0
  -19.7050   -2.5580  -29.6440 C   0  0  0  0  0  0  0  0  0  0  0  0
  -18.6970   -2.0090  -27.5050 N   0  0  0  0  0  0  0  0  0  0  0  0
  -19.1080   -1.6790  -26.1560 C   0  0  0  0  0  0  0  0  0  0  0  0
  -17.9200   -1.0430  -25.4660 C   0  0  0  0  0  0  0  0  0  0  0  0
  -17.5670    0.1610  -26.1690 N   0  0  0  0  0  0  0  0  0  0  0  0
  -17.4760    0.0280  -27.5890 C   0  0  0  0  0  0  0  0  0  0  0  0
  -17.4460   -1.4380  -27.9650 C   0  0  0  0  0  0  0  0  0  0  0  0
  -18.3950    1.2530  -25.7220 C   0  0  0  0  0  0  0  0  0  0  0  0
  -21.4870   -5.9450  -28.0760 C   0  0  0  0  0  0  0  0  0  0  0  0
  -23.9840    0.6810  -36.4600 H   0  0  0  0  0  0  0  0  0  0  0  0
  -24.1370   -0.2490  -38.9630 H   0  0  0  0  0  0  0  0  0  0  0  0
  -22.6520   -4.0950  -34.3130 H   0  0  0  0  0  0  0  0  0  0  0  0
  -23.1770   -3.4840  -32.7190 H   0  0  0  0  0  0  0  0  0  0  0  0
  -21.2490   -4.9330  -32.3480 H   0  0  0  0  0  0  0  0  0  0  0  0
  -20.3160   -4.0340  -33.6430 H   0  0  0  0  0  0  0  0  0  0  0  0
  -20.9550   -0.9160  -31.6130 H   0  0  0  0  0  0  0  0  0  0  0  0
  -19.3130   -1.4380  -32.2530 H   0  0  0  0  0  0  0  0  0  0  0  0
  -20.8130   -0.4420  -34.0430 H   0  0  0  0  0  0  0  0  0  0  0  0
  -20.1540   -2.0860  -34.3390 H   0  0  0  0  0  0  0  0  0  0  0  0
  -19.2430   -1.6760  -30.0670 H   0  0  0  0  0  0  0  0  0  0  0  0
  -19.9490   -0.9730  -26.1850 H   0  0  0  0  0  0  0  0  0  0  0  0
  -19.4140   -2.6250  -25.6620 H   0  0  0  0  0  0  0  0  0  0  0  0
  -18.2450   -0.7860  -24.4420 H   0  0  0  0  0  0  0  0  0  0  0  0
  -17.0880   -1.7650  -25.4150 H   0  0  0  0  0  0  0  0  0  0  0  0
  -16.5560    0.5120  -27.9740 H   0  0  0  0  0  0  0  0  0  0  0  0
  -18.3350    0.4940  -28.0960 H   0  0  0  0  0  0  0  0  0  0  0  0
  -16.6220   -1.9370  -27.3950 H   0  0  0  0  0  0  0  0  0  0  0  0
  -17.3370   -1.5850  -29.0570 H   0  0  0  0  0  0  0  0  0  0  0  0
  -18.9800    0.9970  -24.8350 H   0  0  0  0  0  0  0  0  0  0  0  0
  -17.7200    2.1110  -25.4650 H   0  0  0  0  0  0  0  0  0  0  0  0
  -19.0690    1.5710  -26.5450 H   0  0  0  0  0  0  0  0  0  0  0  0
  -20.7910   -6.3900  -27.3360 H   0  0  0  0  0  0  0  0  0  0  0  0
  -22.4410   -5.6740  -27.5780 H   0  0  0  0  0  0  0  0  0  0  0  0
  -21.6300   -6.7020  -28.8660 H   0  0  0  0  0  0  0  0  0  0  0  0
  1  2  1  0  0  0  0
  2  3  1  0  0  0  0
  3  4  1  0  0  0  0
  4  7  1  0  0  0  0
  5 29  1  0  0  0  0
  5  4  2  0  0  0  0
  6  2  2  0  0  0  0
  6  5  1  0  0  0  0
  7  9  1  0  0  0  0
  7  8  2  0  0  0  0
  9 14  1  0  0  0  0
  9 10  1  0  0  0  0
 10 11  1  0  0  0  0
 10 32  1  0  0  0  0
 11 33  1  0  0  0  0
 11 12  1  0  0  0  0
 12 15  1  0  0  0  0
 13 36  1  0  0  0  0
 13 12  1  0  0  0  0
 13 35  1  0  0  0  0
 14 13  1  0  0  0  0
 15 16  1  0  0  0  0
 15 20  2  0  0  0  0
 16 17  2  0  0  0  0
 17 28  1  0  0  0  0
 17 18  1  0  0  0  0
 19 18  2  0  0  0  0
 19 21  1  0  0  0  0
 20 19  1  0  0  0  0
 21 22  1  0  0  0  0
 22 41  1  0  0  0  0
 22 23  1  0  0  0  0
 23 43  1  0  0  0  0
 23 42  1  0  0  0  0
 24 27  1  0  0  0  0
 24 23  1  0  0  0  0
 25 24  1  0  0  0  0
 26 25  1  0  0  0  0
 26 21  1  0  0  0  0
 26 46  1  0  0  0  0
 27 49  1  0  0  0  0
 27 48  1  0  0  0  0
 28 52  1  0  0  0  0
 28 51  1  0  0  0  0
 30  6  1  0  0  0  0
 31 10  1  0  0  0  0
 34 11  1  0  0  0  0
 37 14  1  0  0  0  0
 38 14  1  0  0  0  0
 39 20  1  0  0  0  0
 40 22  1  0  0  0  0
 44 25  1  0  0  0  0
 45 25  1  0  0  0  0
 47 26  1  0  0  0  0
 50 27  1  0  0  0  0
 53 28  1  0  0  0  0
M  END
>  <Pose>
1

>  <Score>
-6.09

$$$$
