
 OpenBabel03222201593D

 43 46  0  0  0  0  0  0  0  0999 V2000
  -23.4770   -3.3870  -39.2350 B   0  0  0  0  0  0  0  0  0  0  0  0
  -22.3500   -1.8910  -39.5320 C   0  0  0  0  0  0  0  0  0  0  0  0
  -21.7810   -1.1120  -38.6630 O   0  0  0  0  0  0  0  0  0  0  0  0
  -21.0660   -0.1720  -39.2280 C   0  0  0  0  0  0  0  0  0  0  0  0
  -21.1810   -0.3590  -40.5930 C   0  0  0  0  0  0  0  0  0  0  0  0
  -22.0010   -1.4560  -40.8120 C   0  0  0  0  0  0  0  0  0  0  0  0
  -20.2920    0.8760  -38.5750 C   0  0  0  0  0  0  0  0  0  0  0  0
  -19.6550    1.9180  -39.1550 N   0  0  0  0  0  0  0  0  0  0  0  0
  -19.0730    2.6380  -38.2400 O   0  0  0  0  0  0  0  0  0  0  0  0
  -19.2900    2.1270  -37.0550 C   0  0  0  0  0  0  0  0  0  0  0  0
  -20.0420    1.0400  -37.2640 N   0  0  0  0  0  0  0  0  0  0  0  0
  -18.7730    2.7020  -35.8190 C   0  0  0  0  0  0  0  0  0  0  0  0
  -17.5510    3.0690  -35.7520 O   0  0  0  0  0  0  0  0  0  0  0  0
  -19.5890    2.8740  -34.6670 N   0  0  0  0  0  0  0  0  0  0  0  0
  -19.2660    2.2680  -33.4200 C   0  0  0  0  0  0  0  0  0  0  0  0
  -19.2010    0.7570  -33.4960 C   0  0  0  0  0  0  0  0  0  0  0  0
  -19.6800    0.1440  -32.2660 N   0  0  0  0  0  0  0  0  0  0  0  0
  -18.7890   -0.6180  -31.4920 C   0  0  0  0  0  0  0  0  0  0  0  0
  -17.5910   -0.6870  -31.9440 O   0  0  0  0  0  0  0  0  0  0  0  0
  -19.0600   -1.3230  -30.2640 C   0  0  0  0  0  0  0  0  0  0  0  0
  -18.4730   -0.8600  -29.0870 C   0  0  0  0  0  0  0  0  0  0  0  0
  -18.7210   -1.5060  -27.9020 C   0  0  0  0  0  0  0  0  0  0  0  0
  -19.5360   -2.5950  -27.8720 C   0  0  0  0  0  0  0  0  0  0  0  0
  -19.7850   -3.2490  -26.6630 C   0  0  0  0  0  0  0  0  0  0  0  0
  -19.2270   -2.8230  -25.4820 C   0  0  0  0  0  0  0  0  0  0  0  0
  -18.4070   -1.7250  -25.5200 C   0  0  0  0  0  0  0  0  0  0  0  0
  -18.1510   -1.0690  -26.7030 C   0  0  0  0  0  0  0  0  0  0  0  0
  -20.0690   -3.0030  -28.9870 O   0  0  0  0  0  0  0  0  0  0  0  0
  -19.8710   -2.4250  -30.1670 C   0  0  0  0  0  0  0  0  0  0  0  0
  -20.4440   -2.9200  -31.1660 O   0  0  0  0  0  0  0  0  0  0  0  0
  -20.7040    0.2600  -41.3120 H   0  0  0  0  0  0  0  0  0  0  0  0
  -22.2950   -1.8730  -41.7710 H   0  0  0  0  0  0  0  0  0  0  0  0
  -20.4420    3.4570  -34.7460 H   0  0  0  0  0  0  0  0  0  0  0  0
  -20.0990    2.5090  -32.7040 H   0  0  0  0  0  0  0  0  0  0  0  0
  -18.3500    2.6970  -32.9700 H   0  0  0  0  0  0  0  0  0  0  0  0
  -19.9020    0.4430  -34.2980 H   0  0  0  0  0  0  0  0  0  0  0  0
  -18.1900    0.4090  -33.7770 H   0  0  0  0  0  0  0  0  0  0  0  0
  -20.6590    0.2590  -31.9470 H   0  0  0  0  0  0  0  0  0  0  0  0
  -17.8160    0.0140  -29.0910 H   0  0  0  0  0  0  0  0  0  0  0  0
  -20.4360   -4.1090  -26.6740 H   0  0  0  0  0  0  0  0  0  0  0  0
  -19.4460   -3.3560  -24.5720 H   0  0  0  0  0  0  0  0  0  0  0  0
  -17.9640   -1.3820  -24.6000 H   0  0  0  0  0  0  0  0  0  0  0  0
  -17.5070   -0.2050  -26.7420 H   0  0  0  0  0  0  0  0  0  0  0  0
  2  1  1  0  0  0  0
  2  3  1  0  0  0  0
  4  3  1  0  0  0  0
  4  7  1  0  0  0  0
  5  4  2  0  0  0  0
  6  5  1  0  0  0  0
  6  2  2  0  0  0  0
  7 11  1  0  0  0  0
  8  7  2  0  0  0  0
  8  9  1  0  0  0  0
  9 10  1  0  0  0  0
 10 12  1  0  0  0  0
 11 10  2  0  0  0  0
 12 13  2  0  0  0  0
 12 14  1  0  0  0  0
 14 15  1  0  0  0  0
 15 35  1  0  0  0  0
 15 34  1  0  0  0  0
 16 15  1  0  0  0  0
 16 17  1  0  0  0  0
 17 38  1  0  0  0  0
 17 18  1  0  0  0  0
 18 20  1  0  0  0  0
 19 18  2  0  0  0  0
 20 29  1  0  0  0  0
 20 21  2  0  0  0  0
 21 22  1  0  0  0  0
 22 23  2  0  0  0  0
 22 27  1  0  0  0  0
 23 24  1  0  0  0  0
 24 25  2  0  0  0  0
 25 41  1  0  0  0  0
 26 25  1  0  0  0  0
 26 42  1  0  0  0  0
 27 26  2  0  0  0  0
 28 23  1  0  0  0  0
 29 28  1  0  0  0  0
 30 29  2  0  0  0  0
 31  5  1  0  0  0  0
 32  6  1  0  0  0  0
 33 14  1  0  0  0  0
 36 16  1  0  0  0  0
 37 16  1  0  0  0  0
 39 21  1  0  0  0  0
 40 24  1  0  0  0  0
 43 27  1  0  0  0  0
M  END
>  <Pose>
1

>  <Score>
-6.72

$$$$
