
 OpenBabel03222201593D

 63 66  0  0  1  0  0  0  0  0999 V2000
  -24.3990    0.4560  -34.2400 B   0  0  0  0  0  0  0  0  0  0  0  0
  -22.6840    0.1630  -35.0110 C   0  0  0  0  0  0  0  0  0  0  0  0
  -21.6030    0.0500  -34.1730 C   0  0  0  0  0  0  0  0  0  0  0  0
  -20.3510   -0.1580  -34.6190 N   0  0  0  0  0  0  0  0  0  0  0  0
  -20.2310   -0.2490  -35.9780 C   0  0  0  0  0  0  0  0  0  0  0  0
  -19.0840   -0.4440  -36.4750 O   0  0  0  0  0  0  0  0  0  0  0  0
  -21.2520   -0.1440  -36.8130 N   0  0  0  0  0  0  0  0  0  0  0  0
  -22.5030    0.0630  -36.3680 C   0  0  0  0  0  0  0  0  0  0  0  0
  -23.4980    0.1660  -37.1270 O   0  0  0  0  0  0  0  0  0  0  0  0
  -19.2060   -0.2800  -33.7740 C   0  0  2  0  0  0  0  0  0  0  0  0
  -19.1040   -1.6640  -33.1200 C   0  0  2  0  0  0  0  0  0  0  0  0
  -19.9230   -1.6770  -31.8740 C   0  0  0  0  0  0  0  0  0  0  0  0
  -19.3430   -0.6710  -30.9050 C   0  0  0  0  0  0  0  0  0  0  0  0
  -18.5380    0.2650  -31.5270 O   0  0  0  0  0  0  0  0  0  0  0  0
  -19.0690    0.7580  -32.7110 C   0  0  0  0  0  0  0  0  0  0  0  0
  -20.4680   -0.0860  -30.1330 C   0  0  0  0  0  0  0  0  0  0  0  0
  -19.8900    0.9110  -29.1160 C   0  0  0  0  0  0  0  0  0  0  0  0
  -19.1400    0.1670  -28.1590 N   0  0  0  0  0  0  0  0  0  0  0  0
  -18.9390   -1.2780  -28.5120 C   0  0  0  0  0  0  0  0  0  0  0  0
  -18.4770   -1.4310  -29.9240 C   0  0  0  0  0  0  0  0  0  0  0  0
  -18.6010    0.6510  -26.9830 C   0  0  0  0  0  0  0  0  0  0  0  0
  -18.4220   -0.2460  -26.0360 O   0  0  0  0  0  0  0  0  0  0  0  0
  -18.1990    1.9620  -26.6140 C   0  0  0  0  0  0  0  0  0  0  0  0
  -17.6080    2.1920  -25.3580 C   0  0  0  0  0  0  0  0  0  0  0  0
  -17.1670    3.3920  -24.8970 C   0  0  0  0  0  0  0  0  0  0  0  0
  -17.3210    4.4930  -25.7650 C   0  0  0  0  0  0  0  0  0  0  0  0
  -17.8870    4.2970  -26.9780 C   0  0  0  0  0  0  0  0  0  0  0  0
  -18.3340    3.0420  -27.4250 C   0  0  0  0  0  0  0  0  0  0  0  0
  -16.6020    3.5760  -23.6710 O   0  0  0  0  0  0  0  0  0  0  0  0
  -15.6870    2.8510  -22.9660 C   0  0  0  0  0  0  0  0  0  0  0  0
  -14.5000    3.6530  -22.5560 C   0  0  0  0  0  0  0  0  0  0  0  0
  -13.4180    2.7540  -22.1510 N   0  0  0  0  0  0  0  0  0  0  0  0
  -17.7660   -1.8260  -32.7530 O   0  0  0  0  0  0  0  0  0  0  0  0
  -19.4490   -2.7490  -34.0890 C   0  0  0  0  0  0  0  0  0  0  0  0
  -21.7500    0.1280  -33.1270 H   0  0  0  0  0  0  0  0  0  0  0  0
  -21.1300   -0.2180  -37.8450 H   0  0  0  0  0  0  0  0  0  0  0  0
  -18.2980   -0.2430  -34.4490 H   0  0  0  0  0  0  0  0  0  0  0  0
  -21.0070   -1.5300  -32.0360 H   0  0  0  0  0  0  0  0  0  0  0  0
  -19.8410   -2.7200  -31.4470 H   0  0  0  0  0  0  0  0  0  0  0  0
  -19.9720    1.3150  -32.4650 H   0  0  0  0  0  0  0  0  0  0  0  0
  -18.3260    1.5330  -33.0650 H   0  0  0  0  0  0  0  0  0  0  0  0
  -20.9820   -0.8690  -29.5640 H   0  0  0  0  0  0  0  0  0  0  0  0
  -21.2350    0.4140  -30.7580 H   0  0  0  0  0  0  0  0  0  0  0  0
  -20.8090    1.3890  -28.6610 H   0  0  0  0  0  0  0  0  0  0  0  0
  -19.3260    1.6430  -29.7130 H   0  0  0  0  0  0  0  0  0  0  0  0
  -19.8310   -1.8600  -28.2850 H   0  0  0  0  0  0  0  0  0  0  0  0
  -18.1510   -1.6400  -27.8120 H   0  0  0  0  0  0  0  0  0  0  0  0
  -17.4110   -1.0610  -29.9470 H   0  0  0  0  0  0  0  0  0  0  0  0
  -18.4410   -2.5180  -30.1690 H   0  0  0  0  0  0  0  0  0  0  0  0
  -17.4820    1.3340  -24.7320 H   0  0  0  0  0  0  0  0  0  0  0  0
  -16.9670    5.4380  -25.3860 H   0  0  0  0  0  0  0  0  0  0  0  0
  -17.9980    5.1610  -27.6370 H   0  0  0  0  0  0  0  0  0  0  0  0
  -18.7440    3.0480  -28.4040 H   0  0  0  0  0  0  0  0  0  0  0  0
  -15.2860    2.0150  -23.6270 H   0  0  0  0  0  0  0  0  0  0  0  0
  -16.1590    2.3710  -22.0570 H   0  0  0  0  0  0  0  0  0  0  0  0
  -14.0770    4.3400  -23.2740 H   0  0  0  0  0  0  0  0  0  0  0  0
  -14.7560    4.2010  -21.6010 H   0  0  0  0  0  0  0  0  0  0  0  0
  -12.8110    2.4960  -22.9430 H   0  0  0  0  0  0  0  0  0  0  0  0
  -13.7440    1.9720  -21.5760 H   0  0  0  0  0  0  0  0  0  0  0  0
  -17.1360   -1.4640  -33.4260 H   0  0  0  0  0  0  0  0  0  0  0  0
  -20.3610   -2.5660  -34.6730 H   0  0  0  0  0  0  0  0  0  0  0  0
  -18.5610   -2.9120  -34.7410 H   0  0  0  0  0  0  0  0  0  0  0  0
  -19.5730   -3.6890  -33.5080 H   0  0  0  0  0  0  0  0  0  0  0  0
  2  1  1  0  0  0  0
  2  3  2  0  0  0  0
  3 35  1  0  0  0  0
  4  3  1  0  0  0  0
  4 10  1  0  0  0  0
  5  4  1  0  0  0  0
  6  5  2  0  0  0  0
  7  8  1  0  0  0  0
  7  5  1  0  0  0  0
  8  2  1  0  0  0  0
  9  8  2  0  0  0  0
 10 37  1  6  0  0  0
 10 11  1  0  0  0  0
 10 15  1  0  0  0  0
 11 33  1  1  0  0  0
 11 12  1  0  0  0  0
 12 39  1  0  0  0  0
 12 13  1  0  0  0  0
 13 16  1  0  0  0  0
 13 20  1  0  0  0  0
 14 13  1  0  0  0  0
 15 40  1  0  0  0  0
 15 14  1  0  0  0  0
 16 42  1  0  0  0  0
 16 17  1  0  0  0  0
 17 44  1  0  0  0  0
 17 18  1  0  0  0  0
 18 21  1  0  0  0  0
 19 46  1  0  0  0  0
 19 18  1  0  0  0  0
 19 47  1  0  0  0  0
 20 19  1  0  0  0  0
 21 23  1  0  0  0  0
 21 22  2  0  0  0  0
 23 24  1  0  0  0  0
 24 25  2  0  0  0  0
 24 50  1  0  0  0  0
 25 29  1  0  0  0  0
 26 51  1  0  0  0  0
 26 25  1  0  0  0  0
 27 26  2  0  0  0  0
 28 27  1  0  0  0  0
 28 23  2  0  0  0  0
 29 30  1  0  0  0  0
 30 31  1  0  0  0  0
 30 55  1  0  0  0  0
 31 32  1  0  0  0  0
 31 57  1  0  0  0  0
 32 59  1  0  0  0  0
 34 63  1  0  0  0  0
 34 11  1  0  0  0  0
 36  7  1  0  0  0  0
 38 12  1  0  0  0  0
 41 15  1  0  0  0  0
 43 16  1  0  0  0  0
 45 17  1  0  0  0  0
 48 20  1  0  0  0  0
 49 20  1  0  0  0  0
 52 27  1  0  0  0  0
 53 28  1  0  0  0  0
 54 30  1  0  0  0  0
 56 31  1  0  0  0  0
 58 32  1  0  0  0  0
 60 33  1  0  0  0  0
 61 34  1  0  0  0  0
 62 34  1  0  0  0  0
M  END
>  <Pose>
1

>  <Score>
-6.98

$$$$
