
 OpenBabel03222201593D

 63 66  0  0  1  0  0  0  0  0999 V2000
  -24.2450   -0.2350  -34.5010 B   0  0  0  0  0  0  0  0  0  0  0  0
  -22.3460   -0.5250  -34.4810 C   0  0  0  0  0  0  0  0  0  0  0  0
  -21.7780   -1.3390  -33.5280 C   0  0  0  0  0  0  0  0  0  0  0  0
  -20.4660   -1.5500  -33.5020 N   0  0  0  0  0  0  0  0  0  0  0  0
  -19.6700   -0.9750  -34.3990 C   0  0  0  0  0  0  0  0  0  0  0  0
  -18.4070   -1.1520  -34.4070 O   0  0  0  0  0  0  0  0  0  0  0  0
  -20.2050   -0.1770  -35.3360 N   0  0  0  0  0  0  0  0  0  0  0  0
  -21.5250    0.0740  -35.4140 C   0  0  0  0  0  0  0  0  0  0  0  0
  -22.0000    0.8320  -36.3100 O   0  0  0  0  0  0  0  0  0  0  0  0
  -19.9010   -2.4190  -32.4900 C   0  0  1  0  0  0  0  0  0  0  0  0
  -19.5530   -1.7450  -31.2230 C   0  0  1  0  0  0  0  0  0  0  0  0
  -19.6170   -2.6560  -29.9920 C   0  0  0  0  0  0  0  0  0  0  0  0
  -20.9660   -3.3240  -29.8950 C   0  0  2  0  0  0  0  0  0  0  0  0
  -21.6090   -3.3610  -31.1180 O   0  0  0  0  0  0  0  0  0  0  0  0
  -20.8100   -3.5810  -32.1970 C   0  0  0  0  0  0  0  0  0  0  0  0
  -21.7750   -2.5660  -28.8580 C   0  0  0  0  0  0  0  0  0  0  0  0
  -21.6750   -3.2400  -27.5160 C   0  0  0  0  0  0  0  0  0  0  0  0
  -20.3210   -3.6950  -27.3270 N   0  0  0  0  0  0  0  0  0  0  0  0
  -19.8960   -4.7900  -28.1860 C   0  0  0  0  0  0  0  0  0  0  0  0
  -20.7510   -4.7460  -29.4320 C   0  0  0  0  0  0  0  0  0  0  0  0
  -19.4930   -3.1200  -26.3600 C   0  0  0  0  0  0  0  0  0  0  0  0
  -19.3030   -3.8300  -25.3060 O   0  0  0  0  0  0  0  0  0  0  0  0
  -18.8150   -1.8280  -26.3700 C   0  0  1  0  0  0  0  0  0  0  0  0
  -19.6220   -0.7910  -27.0150 N   0  0  0  0  0  0  0  0  0  0  0  0
  -18.4490   -1.2800  -25.0090 C   0  0  0  0  0  0  0  0  0  0  0  0
  -17.9620    0.1290  -25.2480 C   0  0  0  0  0  0  0  0  0  0  0  0
  -17.7420    0.5770  -26.5240 C   0  0  0  0  0  0  0  0  0  0  0  0
  -17.2930    1.8830  -26.6990 C   0  0  0  0  0  0  0  0  0  0  0  0
  -17.0710    2.7220  -25.6310 C   0  0  0  0  0  0  0  0  0  0  0  0
  -17.3050    2.2350  -24.3610 C   0  0  0  0  0  0  0  0  0  0  0  0
  -17.7490    0.9440  -24.1550 C   0  0  0  0  0  0  0  0  0  0  0  0
  -16.6260    4.0090  -25.8640 O   0  0  0  0  0  0  0  0  0  0  0  0
  -18.1820   -1.3910  -31.3050 O   0  0  0  0  0  0  0  0  0  0  0  0
  -20.2830   -0.4710  -30.9460 C   0  0  0  0  0  0  0  0  0  0  0  0
  -22.4710   -1.7880  -32.8130 H   0  0  0  0  0  0  0  0  0  0  0  0
  -19.5680    0.2830  -36.0540 H   0  0  0  0  0  0  0  0  0  0  0  0
  -18.9720   -2.8570  -32.9770 H   0  0  0  0  0  0  0  0  0  0  0  0
  -18.8390   -3.4280  -30.0330 H   0  0  0  0  0  0  0  0  0  0  0  0
  -19.4560   -2.0430  -29.0990 H   0  0  0  0  0  0  0  0  0  0  0  0
  -21.4380   -3.8500  -33.0790 H   0  0  0  0  0  0  0  0  0  0  0  0
  -20.1540   -4.4740  -31.9710 H   0  0  0  0  0  0  0  0  0  0  0  0
  -21.4440   -1.5230  -28.7590 H   0  0  0  0  0  0  0  0  0  0  0  0
  -22.8580   -2.5600  -29.1150 H   0  0  0  0  0  0  0  0  0  0  0  0
  -22.0530   -2.5790  -26.7080 H   0  0  0  0  0  0  0  0  0  0  0  0
  -22.3970   -4.0970  -27.5250 H   0  0  0  0  0  0  0  0  0  0  0  0
  -18.8510   -4.7490  -28.4810 H   0  0  0  0  0  0  0  0  0  0  0  0
  -20.0810   -5.7550  -27.6830 H   0  0  0  0  0  0  0  0  0  0  0  0
  -21.7220   -5.2670  -29.2900 H   0  0  0  0  0  0  0  0  0  0  0  0
  -20.2070   -5.3350  -30.1920 H   0  0  0  0  0  0  0  0  0  0  0  0
  -17.8770   -1.9180  -26.9540 H   0  0  0  0  0  0  0  0  0  0  0  0
  -19.6260    0.0860  -26.4520 H   0  0  0  0  0  0  0  0  0  0  0  0
  -20.6190   -1.1210  -27.0500 H   0  0  0  0  0  0  0  0  0  0  0  0
  -19.2900   -1.2120  -24.3230 H   0  0  0  0  0  0  0  0  0  0  0  0
  -17.6450   -1.8310  -24.5240 H   0  0  0  0  0  0  0  0  0  0  0  0
  -17.9210   -0.0900  -27.3470 H   0  0  0  0  0  0  0  0  0  0  0  0
  -17.1190    2.2370  -27.7020 H   0  0  0  0  0  0  0  0  0  0  0  0
  -17.1340    2.8750  -23.5230 H   0  0  0  0  0  0  0  0  0  0  0  0
  -17.9360    0.5530  -23.1630 H   0  0  0  0  0  0  0  0  0  0  0  0
  -15.6560    4.2490  -26.0710 H   0  0  0  0  0  0  0  0  0  0  0  0
  -17.7650   -1.7360  -32.1290 H   0  0  0  0  0  0  0  0  0  0  0  0
  -21.3730   -0.5430  -30.9240 H   0  0  0  0  0  0  0  0  0  0  0  0
  -19.9490   -0.0860  -29.9630 H   0  0  0  0  0  0  0  0  0  0  0  0
  -19.9270    0.3090  -31.6840 H   0  0  0  0  0  0  0  0  0  0  0  0
  1  2  1  0  0  0  0
  2  3  2  0  0  0  0
  3  4  1  0  0  0  0
  3 35  1  0  0  0  0
  4 10  1  0  0  0  0
  5  4  1  0  0  0  0
  6  5  2  0  0  0  0
  7  5  1  0  0  0  0
  8  7  1  0  0  0  0
  8  2  1  0  0  0  0
  9  8  2  0  0  0  0
 10 37  1  6  0  0  0
 10 15  1  0  0  0  0
 10 11  1  0  0  0  0
 11 33  1  6  0  0  0
 11 34  1  0  0  0  0
 11 12  1  0  0  0  0
 12 13  1  0  0  0  0
 12 39  1  0  0  0  0
 13 14  1  6  0  0  0
 13 20  1  0  0  0  0
 13 16  1  0  0  0  0
 15 41  1  0  0  0  0
 15 14  1  0  0  0  0
 16 42  1  0  0  0  0
 16 17  1  0  0  0  0
 17 18  1  0  0  0  0
 17 44  1  0  0  0  0
 18 21  1  0  0  0  0
 19 47  1  0  0  0  0
 19 18  1  0  0  0  0
 20 48  1  0  0  0  0
 20 19  1  0  0  0  0
 21 22  2  0  0  0  0
 23 50  1  6  0  0  0
 23 21  1  0  0  0  0
 23 25  1  0  0  0  0
 24 51  1  0  0  0  0
 24 23  1  0  0  0  0
 25 54  1  0  0  0  0
 25 53  1  0  0  0  0
 26 25  1  0  0  0  0
 26 31  1  0  0  0  0
 27 26  2  0  0  0  0
 28 27  1  0  0  0  0
 28 29  2  0  0  0  0
 29 30  1  0  0  0  0
 30 31  2  0  0  0  0
 30 57  1  0  0  0  0
 31 58  1  0  0  0  0
 32 29  1  0  0  0  0
 34 61  1  0  0  0  0
 34 62  1  0  0  0  0
 36  7  1  0  0  0  0
 38 12  1  0  0  0  0
 40 15  1  0  0  0  0
 43 16  1  0  0  0  0
 45 17  1  0  0  0  0
 46 19  1  0  0  0  0
 49 20  1  0  0  0  0
 52 24  1  0  0  0  0
 55 27  1  0  0  0  0
 56 28  1  0  0  0  0
 59 32  1  0  0  0  0
 60 33  1  0  0  0  0
 63 34  1  0  0  0  0
M  END
>  <Pose>
1

>  <Score>
-6.30

$$$$
