
 OpenBabel03222201593D

 64 67  0  0  1  0  0  0  0  0999 V2000
  -17.6070    2.9460  -25.8260 B   0  0  0  0  0  0  0  0  0  0  0  0
  -18.0000    1.1070  -25.5970 C   0  0  0  0  0  0  0  0  0  0  0  0
  -18.6090    0.4170  -26.6440 C   0  0  0  0  0  0  0  0  0  0  0  0
  -18.9150   -0.8800  -26.5570 N   0  0  0  0  0  0  0  0  0  0  0  0
  -18.5990   -1.4990  -25.3800 C   0  0  0  0  0  0  0  0  0  0  0  0
  -18.8680   -2.7230  -25.2470 O   0  0  0  0  0  0  0  0  0  0  0  0
  -18.0110   -0.8600  -24.3540 N   0  0  0  0  0  0  0  0  0  0  0  0
  -17.6970    0.4460  -24.4270 C   0  0  0  0  0  0  0  0  0  0  0  0
  -17.1400    1.0520  -23.4550 O   0  0  0  0  0  0  0  0  0  0  0  0
  -19.5290   -1.6470  -27.5640 C   0  0  1  0  0  0  0  0  0  0  0  0
  -18.5200   -2.2460  -28.5570 C   0  0  1  0  0  0  0  0  0  0  0  0
  -19.3650   -2.5500  -29.8020 C   0  0  0  0  0  0  0  0  0  0  0  0
  -20.5720   -3.3680  -29.4380 C   0  0  2  0  0  0  0  0  0  0  0  0
  -20.4710   -3.7640  -28.1270 O   0  0  0  0  0  0  0  0  0  0  0  0
  -20.4640   -2.7250  -27.1990 C   0  0  0  0  0  0  0  0  0  0  0  0
  -20.5000   -4.6310  -30.2850 C   0  0  0  0  0  0  0  0  0  0  0  0
  -21.1070   -4.3700  -31.6410 C   0  0  0  0  0  0  0  0  0  0  0  0
  -21.0970   -2.9280  -31.9370 N   0  0  0  0  0  0  0  0  0  0  0  0
  -21.9660   -2.1300  -31.1220 C   0  0  0  0  0  0  0  0  0  0  0  0
  -21.8780   -2.7120  -29.7140 C   0  0  0  0  0  0  0  0  0  0  0  0
  -20.2740   -2.3700  -32.9140 C   0  0  0  0  0  0  0  0  0  0  0  0
  -19.2870   -3.0390  -33.4120 O   0  0  0  0  0  0  0  0  0  0  0  0
  -20.4550   -1.0250  -33.4380 C   0  0  1  0  0  0  0  0  0  0  0  0
  -19.2350   -0.5310  -34.0290 N   0  0  0  0  0  0  0  0  0  0  0  0
  -18.7350    0.7660  -34.0370 C   0  0  0  0  0  0  0  0  0  0  0  0
  -18.4480    1.4400  -33.0260 O   0  0  0  0  0  0  0  0  0  0  0  0
  -18.4900    1.4930  -35.3470 C   0  0  0  0  0  0  0  0  0  0  0  0
  -21.5870   -0.9730  -34.5110 C   0  0  0  0  0  0  0  0  0  0  0  0
  -22.6690   -0.0820  -34.0560 C   0  0  0  0  0  0  0  0  0  0  0  0
  -22.6920    0.7810  -33.0530 N   0  0  0  0  0  0  0  0  0  0  0  0
  -23.8940    1.4140  -32.9670 C   0  0  0  0  0  0  0  0  0  0  0  0
  -24.6500    0.9180  -33.9650 N   0  0  0  0  0  0  0  0  0  0  0  0
  -23.9220    0.0040  -34.6400 C   0  0  0  0  0  0  0  0  0  0  0  0
  -17.5340   -1.3480  -28.9010 O   0  0  0  0  0  0  0  0  0  0  0  0
  -17.8760   -3.4770  -28.0020 C   0  0  0  0  0  0  0  0  0  0  0  0
  -18.8580    0.9170  -27.5720 H   0  0  0  0  0  0  0  0  0  0  0  0
  -17.8000   -1.4110  -23.4800 H   0  0  0  0  0  0  0  0  0  0  0  0
  -20.1230   -0.9250  -28.2090 H   0  0  0  0  0  0  0  0  0  0  0  0
  -18.6970   -3.0400  -30.5380 H   0  0  0  0  0  0  0  0  0  0  0  0
  -19.6430   -1.5590  -30.2060 H   0  0  0  0  0  0  0  0  0  0  0  0
  -21.5280   -2.3420  -27.1620 H   0  0  0  0  0  0  0  0  0  0  0  0
  -20.3270   -3.2090  -26.2170 H   0  0  0  0  0  0  0  0  0  0  0  0
  -19.4790   -4.9910  -30.4360 H   0  0  0  0  0  0  0  0  0  0  0  0
  -21.0490   -5.4210  -29.7300 H   0  0  0  0  0  0  0  0  0  0  0  0
  -22.1760   -4.6700  -31.7020 H   0  0  0  0  0  0  0  0  0  0  0  0
  -20.5500   -4.8710  -32.4440 H   0  0  0  0  0  0  0  0  0  0  0  0
  -21.7070   -1.0450  -31.0950 H   0  0  0  0  0  0  0  0  0  0  0  0
  -22.9970   -2.2070  -31.5120 H   0  0  0  0  0  0  0  0  0  0  0  0
  -22.1590   -1.8990  -29.0390 H   0  0  0  0  0  0  0  0  0  0  0  0
  -22.6720   -3.4850  -29.6530 H   0  0  0  0  0  0  0  0  0  0  0  0
  -20.8200   -0.2500  -32.7220 H   0  0  0  0  0  0  0  0  0  0  0  0
  -18.6540   -1.2760  -34.5240 H   0  0  0  0  0  0  0  0  0  0  0  0
  -18.6650    2.5640  -35.2410 H   0  0  0  0  0  0  0  0  0  0  0  0
  -17.4380    1.3230  -35.6600 H   0  0  0  0  0  0  0  0  0  0  0  0
  -19.1430    1.0670  -36.1250 H   0  0  0  0  0  0  0  0  0  0  0  0
  -21.2010   -0.6310  -35.4640 H   0  0  0  0  0  0  0  0  0  0  0  0
  -21.9740   -2.0190  -34.6370 H   0  0  0  0  0  0  0  0  0  0  0  0
  -24.1660    2.1680  -32.2310 H   0  0  0  0  0  0  0  0  0  0  0  0
  -25.6370    1.2250  -34.1440 H   0  0  0  0  0  0  0  0  0  0  0  0
  -24.3000   -0.5450  -35.4900 H   0  0  0  0  0  0  0  0  0  0  0  0
  -17.2610   -0.8410  -28.0950 H   0  0  0  0  0  0  0  0  0  0  0  0
  -16.7660   -3.3510  -27.8560 H   0  0  0  0  0  0  0  0  0  0  0  0
  -18.2700   -3.7660  -26.9970 H   0  0  0  0  0  0  0  0  0  0  0  0
  -18.0090   -4.3410  -28.6550 H   0  0  0  0  0  0  0  0  0  0  0  0
  1  2  1  0  0  0  0
  2  8  1  0  0  0  0
  3  4  1  0  0  0  0
  3  2  2  0  0  0  0
  4  5  1  0  0  0  0
  5  6  2  0  0  0  0
  5  7  1  0  0  0  0
  7 37  1  0  0  0  0
  8  7  1  0  0  0  0
  8  9  2  0  0  0  0
 10 38  1  6  0  0  0
 10 15  1  0  0  0  0
 10  4  1  0  0  0  0
 11 34  1  6  0  0  0
 11 35  1  0  0  0  0
 11 10  1  0  0  0  0
 12 13  1  0  0  0  0
 12 11  1  0  0  0  0
 13 14  1  1  0  0  0
 14 15  1  0  0  0  0
 15 41  1  0  0  0  0
 15 42  1  0  0  0  0
 16 44  1  0  0  0  0
 16 13  1  0  0  0  0
 17 16  1  0  0  0  0
 18 17  1  0  0  0  0
 18 19  1  0  0  0  0
 19 47  1  0  0  0  0
 19 20  1  0  0  0  0
 20 50  1  0  0  0  0
 20 13  1  0  0  0  0
 20 49  1  0  0  0  0
 21 18  1  0  0  0  0
 22 21  2  0  0  0  0
 23 21  1  0  0  0  0
 23 51  1  1  0  0  0
 24 23  1  0  0  0  0
 25 24  1  0  0  0  0
 25 26  2  0  0  0  0
 27 53  1  0  0  0  0
 27 25  1  0  0  0  0
 28 29  1  0  0  0  0
 28 23  1  0  0  0  0
 29 30  1  0  0  0  0
 30 31  2  0  0  0  0
 31 58  1  0  0  0  0
 32 31  1  0  0  0  0
 33 29  2  0  0  0  0
 33 32  1  0  0  0  0
 34 61  1  0  0  0  0
 35 62  1  0  0  0  0
 35 63  1  0  0  0  0
 36  3  1  0  0  0  0
 39 12  1  0  0  0  0
 40 12  1  0  0  0  0
 43 16  1  0  0  0  0
 45 17  1  0  0  0  0
 46 17  1  0  0  0  0
 48 19  1  0  0  0  0
 52 24  1  0  0  0  0
 54 27  1  0  0  0  0
 55 27  1  0  0  0  0
 56 28  1  0  0  0  0
 57 28  1  0  0  0  0
 59 32  1  0  0  0  0
 60 33  1  0  0  0  0
 64 35  1  0  0  0  0
M  END
>  <Pose>
1

>  <Score>
-7.80

$$$$
