
 OpenBabel03222201593D

 37 40  0  0  1  0  0  0  0  0999 V2000
  -18.5570   -2.0320  -25.1220 B   0  0  0  0  0  0  0  0  0  0  0  0
  -19.2750   -3.0540  -26.5820 C   0  0  0  0  0  0  0  0  0  0  0  0
  -19.5370   -2.4760  -27.8050 C   0  0  0  0  0  0  0  0  0  0  0  0
  -20.0440   -3.1850  -28.8470 N   0  0  0  0  0  0  0  0  0  0  0  0
  -20.3770   -2.8770  -30.0900 N   0  0  0  0  0  0  0  0  0  0  0  0
  -20.8460   -3.9400  -30.7580 C   0  0  0  0  0  0  0  0  0  0  0  0
  -20.7850   -4.9770  -29.8270 C   0  0  0  0  0  0  0  0  0  0  0  0
  -20.2830   -4.4930  -28.6360 C   0  0  0  0  0  0  0  0  0  0  0  0
  -20.0270   -5.0730  -27.4340 N   0  0  0  0  0  0  0  0  0  0  0  0
  -19.5260   -4.3940  -26.3910 C   0  0  0  0  0  0  0  0  0  0  0  0
  -21.3240   -4.0510  -32.1440 C   0  0  0  0  0  0  0  0  0  0  0  0
  -21.4910   -5.1950  -32.6470 O   0  0  0  0  0  0  0  0  0  0  0  0
  -21.6100   -2.9190  -32.9480 N   0  0  0  0  0  0  0  0  0  0  0  0
  -22.6590   -2.9700  -33.9000 C   0  0  0  0  0  0  0  0  0  0  0  0
  -22.4710   -2.0570  -35.0530 C   0  0  2  0  0  0  0  0  0  0  0  0
  -21.2870   -1.2470  -35.0260 N   0  0  2  0  0  0  0  0  0  0  0  0
  -21.0970   -0.6250  -33.7290 C   0  0  0  0  0  0  0  0  0  0  0  0
  -20.8000   -1.7470  -32.7530 C   0  0  0  0  0  0  0  0  0  0  0  0
  -21.4840   -0.3240  -36.1020 C   0  0  0  0  0  0  0  0  0  0  0  0
  -22.9560    0.0060  -36.0840 C   0  0  0  0  0  0  0  0  0  0  0  0
  -23.5750   -1.0190  -35.1590 C   0  0  0  0  0  0  0  0  0  0  0  0
  -19.3310   -1.4250  -27.9290 H   0  0  0  0  0  0  0  0  0  0  0  0
  -21.0970   -5.9840  -30.0620 H   0  0  0  0  0  0  0  0  0  0  0  0
  -19.3230   -4.8700  -25.4270 H   0  0  0  0  0  0  0  0  0  0  0  0
  -23.6320   -2.7470  -33.3970 H   0  0  0  0  0  0  0  0  0  0  0  0
  -22.7890   -4.0360  -34.2640 H   0  0  0  0  0  0  0  0  0  0  0  0
  -22.4430   -2.6350  -36.0060 H   0  0  0  0  0  0  0  0  0  0  0  0
  -20.1970    0.0130  -33.8020 H   0  0  0  0  0  0  0  0  0  0  0  0
  -21.9350    0.0120  -33.4180 H   0  0  0  0  0  0  0  0  0  0  0  0
  -20.9350   -1.3980  -31.7090 H   0  0  0  0  0  0  0  0  0  0  0  0
  -19.7000   -2.0120  -32.8400 H   0  0  0  0  0  0  0  0  0  0  0  0
  -21.2290   -0.8730  -37.0520 H   0  0  0  0  0  0  0  0  0  0  0  0
  -20.8540    0.5830  -36.0260 H   0  0  0  0  0  0  0  0  0  0  0  0
  -23.0950    1.0460  -35.7250 H   0  0  0  0  0  0  0  0  0  0  0  0
  -23.3950   -0.0460  -37.1030 H   0  0  0  0  0  0  0  0  0  0  0  0
  -24.4960   -1.4620  -35.5620 H   0  0  0  0  0  0  0  0  0  0  0  0
  -23.7530   -0.5980  -34.1520 H   0  0  0  0  0  0  0  0  0  0  0  0
  2 10  1  0  0  0  0
  2  1  1  0  0  0  0
  3  2  2  0  0  0  0
  4  8  1  0  0  0  0
  4  3  1  0  0  0  0
  5  4  1  0  0  0  0
  6  5  2  0  0  0  0
  6  7  1  0  0  0  0
  7  8  2  0  0  0  0
  8  9  1  0  0  0  0
  9 10  2  0  0  0  0
 10 24  1  0  0  0  0
 11  6  1  0  0  0  0
 12 11  2  0  0  0  0
 13 18  1  0  0  0  0
 13 11  1  0  0  0  0
 14 25  1  0  0  0  0
 14 13  1  0  0  0  0
 15 27  1  6  0  0  0
 15 16  1  0  0  0  0
 15 14  1  0  0  0  0
 16 19  1  6  0  0  0
 16 17  1  0  0  0  0
 17 29  1  0  0  0  0
 17 18  1  0  0  0  0
 18 30  1  0  0  0  0
 19 20  1  0  0  0  0
 19 33  1  0  0  0  0
 20 34  1  0  0  0  0
 20 21  1  0  0  0  0
 21 15  1  0  0  0  0
 21 37  1  0  0  0  0
 22  3  1  0  0  0  0
 23  7  1  0  0  0  0
 26 14  1  0  0  0  0
 28 17  1  0  0  0  0
 31 18  1  0  0  0  0
 32 19  1  0  0  0  0
 35 20  1  0  0  0  0
 36 21  1  0  0  0  0
M  END
>  <Pose>
1

>  <Score>
-6.32

$$$$
