
 OpenBabel03222201593D

 45 48  0  0  0  0  0  0  0  0999 V2000
  -17.1850    2.7820  -25.5240 B   0  0  0  0  0  0  0  0  0  0  0  0
  -18.0000    1.2660  -26.3520 C   0  0  0  0  0  0  0  0  0  0  0  0
  -18.0910    0.0870  -25.6450 C   0  0  0  0  0  0  0  0  0  0  0  0
  -18.6640   -0.9820  -26.2240 N   0  0  0  0  0  0  0  0  0  0  0  0
  -19.1530   -0.9310  -27.4800 C   0  0  0  0  0  0  0  0  0  0  0  0
  -19.7270   -2.0210  -28.0450 N   0  0  0  0  0  0  0  0  0  0  0  0
  -19.8360   -3.1910  -27.3930 C   0  0  0  0  0  0  0  0  0  0  0  0
  -19.3430   -3.2620  -26.1110 C   0  0  0  0  0  0  0  0  0  0  0  0
  -18.7510   -2.1370  -25.5280 C   0  0  0  0  0  0  0  0  0  0  0  0
  -18.3020   -2.1900  -24.3710 O   0  0  0  0  0  0  0  0  0  0  0  0
  -20.4670   -4.3780  -28.0230 C   0  0  0  0  0  0  0  0  0  0  0  0
  -20.0700   -4.4360  -29.3800 O   0  0  0  0  0  0  0  0  0  0  0  0
  -20.6840   -3.7070  -30.3710 C   0  0  0  0  0  0  0  0  0  0  0  0
  -21.3550   -2.6970  -30.0370 O   0  0  0  0  0  0  0  0  0  0  0  0
  -20.6120   -4.0290  -31.8200 C   0  0  0  0  0  0  0  0  0  0  0  0
  -21.0000   -2.9260  -32.6480 N   0  0  0  0  0  0  0  0  0  0  0  0
  -22.0830   -2.9000  -33.5760 C   0  0  0  0  0  0  0  0  0  0  0  0
  -22.8670   -3.8660  -33.8020 O   0  0  0  0  0  0  0  0  0  0  0  0
  -22.1130   -1.6140  -34.1840 N   0  0  0  0  0  0  0  0  0  0  0  0
  -20.9520   -0.8730  -33.7620 C   0  0  0  0  0  0  0  0  0  0  0  0
  -19.9380   -0.6950  -34.8610 C   0  0  0  0  0  0  0  0  0  0  0  0
  -19.1120    0.4580  -34.3840 C   0  0  0  0  0  0  0  0  0  0  0  0
  -19.8660    1.1410  -33.2800 C   0  0  0  0  0  0  0  0  0  0  0  0
  -21.2480    0.5290  -33.3490 C   0  0  0  0  0  0  0  0  0  0  0  0
  -20.3540   -1.6510  -32.6790 C   0  0  0  0  0  0  0  0  0  0  0  0
  -19.4400   -1.3160  -31.8890 O   0  0  0  0  0  0  0  0  0  0  0  0
  -19.0650    0.2470  -28.1940 C   0  0  0  0  0  0  0  0  0  0  0  0
  -18.4870    1.3700  -27.6460 C   0  0  0  0  0  0  0  0  0  0  0  0
  -17.7120   -0.0020  -24.6340 H   0  0  0  0  0  0  0  0  0  0  0  0
  -19.4190   -4.1930  -25.5630 H   0  0  0  0  0  0  0  0  0  0  0  0
  -20.1160   -5.2940  -27.5110 H   0  0  0  0  0  0  0  0  0  0  0  0
  -21.5750   -4.3010  -27.9390 H   0  0  0  0  0  0  0  0  0  0  0  0
  -19.5970   -4.4100  -32.0740 H   0  0  0  0  0  0  0  0  0  0  0  0
  -21.3070   -4.8960  -31.9740 H   0  0  0  0  0  0  0  0  0  0  0  0
  -22.8630   -1.2960  -34.8220 H   0  0  0  0  0  0  0  0  0  0  0  0
  -19.3040   -1.6270  -34.8730 H   0  0  0  0  0  0  0  0  0  0  0  0
  -20.3740   -0.5410  -35.8500 H   0  0  0  0  0  0  0  0  0  0  0  0
  -19.0090    1.1940  -35.2290 H   0  0  0  0  0  0  0  0  0  0  0  0
  -18.1010    0.1140  -34.0670 H   0  0  0  0  0  0  0  0  0  0  0  0
  -19.9140    2.2430  -33.4310 H   0  0  0  0  0  0  0  0  0  0  0  0
  -19.4070    0.9860  -32.2720 H   0  0  0  0  0  0  0  0  0  0  0  0
  -21.7820    0.6180  -32.3830 H   0  0  0  0  0  0  0  0  0  0  0  0
  -21.8160    1.0620  -34.1480 H   0  0  0  0  0  0  0  0  0  0  0  0
  -19.4640    0.2580  -29.1960 H   0  0  0  0  0  0  0  0  0  0  0  0
  -18.4100    2.3010  -28.1880 H   0  0  0  0  0  0  0  0  0  0  0  0
  2  3  1  0  0  0  0
  2  1  1  0  0  0  0
  3 29  1  0  0  0  0
  4  3  1  0  0  0  0
  4  9  1  0  0  0  0
  5  4  1  0  0  0  0
  6  5  1  0  0  0  0
  6  7  2  0  0  0  0
  7  8  1  0  0  0  0
  8 30  1  0  0  0  0
  8  9  1  0  0  0  0
  9 10  2  0  0  0  0
 11 32  1  0  0  0  0
 11 31  1  0  0  0  0
 11  7  1  0  0  0  0
 12 11  1  0  0  0  0
 13 14  2  0  0  0  0
 13 12  1  0  0  0  0
 15 13  1  0  0  0  0
 16 15  1  0  0  0  0
 17 16  1  0  0  0  0
 18 17  2  0  0  0  0
 19 20  1  0  0  0  0
 19 17  1  0  0  0  0
 20 24  1  0  0  0  0
 20 25  1  0  0  0  0
 21 22  1  0  0  0  0
 21 20  1  0  0  0  0
 22 39  1  0  0  0  0
 22 23  1  0  0  0  0
 23 41  1  0  0  0  0
 24 23  1  0  0  0  0
 24 42  1  0  0  0  0
 25 16  1  0  0  0  0
 25 26  2  0  0  0  0
 27 28  1  0  0  0  0
 27  5  2  0  0  0  0
 28  2  2  0  0  0  0
 33 15  1  0  0  0  0
 34 15  1  0  0  0  0
 35 19  1  0  0  0  0
 36 21  1  0  0  0  0
 37 21  1  0  0  0  0
 38 22  1  0  0  0  0
 40 23  1  0  0  0  0
 43 24  1  0  0  0  0
 44 27  1  0  0  0  0
 45 28  1  0  0  0  0
M  END
>  <Pose>
1

>  <Score>
-7.26

$$$$
