
 OpenBabel03222201593D

 47 50  0  0  0  0  0  0  0  0999 V2000
  -19.9830   -4.4820  -27.4970 B   0  0  0  0  0  0  0  0  0  0  0  0
  -19.4840   -2.6510  -27.5880 C   0  0  0  0  0  0  0  0  0  0  0  0
  -19.0630   -1.9410  -26.5190 C   0  0  0  0  0  0  0  0  0  0  0  0
  -18.6280   -0.6790  -26.5920 N   0  0  0  0  0  0  0  0  0  0  0  0
  -18.6080   -0.0850  -27.7850 C   0  0  0  0  0  0  0  0  0  0  0  0
  -18.1760    1.2040  -27.8820 N   0  0  0  0  0  0  0  0  0  0  0  0
  -17.7700    1.9120  -26.8390 C   0  0  0  0  0  0  0  0  0  0  0  0
  -17.7810    1.3210  -25.5960 C   0  0  0  0  0  0  0  0  0  0  0  0
  -17.3760    2.0100  -24.4700 C   0  0  0  0  0  0  0  0  0  0  0  0
  -16.9350    3.3330  -24.5250 C   0  0  0  0  0  0  0  0  0  0  0  0
  -16.9290    3.9140  -25.7740 C   0  0  0  0  0  0  0  0  0  0  0  0
  -17.3330    3.2280  -26.9060 C   0  0  0  0  0  0  0  0  0  0  0  0
  -18.2230    0.0060  -25.5170 C   0  0  0  0  0  0  0  0  0  0  0  0
  -18.2390   -0.5430  -24.3930 O   0  0  0  0  0  0  0  0  0  0  0  0
  -19.0260   -0.7750  -28.8710 N   0  0  0  0  0  0  0  0  0  0  0  0
  -19.4710   -2.0240  -28.8790 C   0  0  0  0  0  0  0  0  0  0  0  0
  -20.0020   -2.7400  -29.9040 N   0  0  0  0  0  0  0  0  0  0  0  0
  -20.5250   -3.4460  -30.9140 C   0  0  0  0  0  0  0  0  0  0  0  0
  -20.9710   -2.7800  -32.0640 C   0  0  0  0  0  0  0  0  0  0  0  0
  -21.7140   -3.4260  -32.9960 C   0  0  0  0  0  0  0  0  0  0  0  0
  -22.0390   -4.7510  -32.8320 C   0  0  0  0  0  0  0  0  0  0  0  0
  -21.6270   -5.4640  -31.7290 C   0  0  0  0  0  0  0  0  0  0  0  0
  -20.8770   -4.7860  -30.7970 C   0  0  0  0  0  0  0  0  0  0  0  0
  -20.5360   -1.4150  -32.3840 C   0  0  0  0  0  0  0  0  0  0  0  0
  -21.2750   -0.4660  -32.0170 O   0  0  0  0  0  0  0  0  0  0  0  0
  -19.3950   -1.0820  -33.0540 O   0  0  0  0  0  0  0  0  0  0  0  0
  -19.3560   -0.0830  -34.0550 C   0  0  0  0  0  0  0  0  0  0  0  0
  -18.1370    0.8220  -33.8530 C   0  0  0  0  0  0  0  0  0  0  0  0
  -18.5950    2.2610  -33.8820 C   0  0  0  0  0  0  0  0  0  0  0  0
  -19.0710   -2.4060  -25.5340 H   0  0  0  0  0  0  0  0  0  0  0  0
  -17.4070    1.4930  -23.5350 H   0  0  0  0  0  0  0  0  0  0  0  0
  -16.6220    3.8560  -23.6270 H   0  0  0  0  0  0  0  0  0  0  0  0
  -16.5920    4.9460  -25.8550 H   0  0  0  0  0  0  0  0  0  0  0  0
  -17.3350    3.6720  -27.8890 H   0  0  0  0  0  0  0  0  0  0  0  0
  -18.9600   -0.1870  -29.7640 H   0  0  0  0  0  0  0  0  0  0  0  0
  -19.3430   -3.8730  -29.5170 H   0  0  0  0  0  0  0  0  0  0  0  0
  -22.0850   -2.9350  -33.9110 H   0  0  0  0  0  0  0  0  0  0  0  0
  -22.6390   -5.2340  -33.5910 H   0  0  0  0  0  0  0  0  0  0  0  0
  -21.9140   -6.5000  -31.6590 H   0  0  0  0  0  0  0  0  0  0  0  0
  -20.5680   -5.3660  -29.9370 H   0  0  0  0  0  0  0  0  0  0  0  0
  -19.2690   -0.4770  -35.0820 H   0  0  0  0  0  0  0  0  0  0  0  0
  -20.2530    0.5720  -34.0180 H   0  0  0  0  0  0  0  0  0  0  0  0
  -17.6560    0.6280  -32.8750 H   0  0  0  0  0  0  0  0  0  0  0  0
  -17.4100    0.6820  -34.6870 H   0  0  0  0  0  0  0  0  0  0  0  0
  -18.4250    2.6930  -34.8840 H   0  0  0  0  0  0  0  0  0  0  0  0
  -19.6910    2.3370  -33.6500 H   0  0  0  0  0  0  0  0  0  0  0  0
  -18.0150    2.8720  -33.1600 H   0  0  0  0  0  0  0  0  0  0  0  0
  2  1  1  0  0  0  0
  2  3  1  0  0  0  0
  3 30  1  0  0  0  0
  4  3  1  0  0  0  0
  4 13  1  0  0  0  0
  5  4  1  0  0  0  0
  6  5  2  0  0  0  0
  6  7  1  0  0  0  0
  7  8  1  0  0  0  0
  8 13  1  0  0  0  0
  8  9  2  0  0  0  0
  9 31  1  0  0  0  0
 10  9  1  0  0  0  0
 10 32  1  0  0  0  0
 11 10  2  0  0  0  0
 12  7  2  0  0  0  0
 12 11  1  0  0  0  0
 13 14  2  0  0  0  0
 15  5  1  0  0  0  0
 16 15  1  0  0  0  0
 16  2  2  0  0  0  0
 17 36  1  0  0  0  0
 17 16  1  0  0  0  0
 18 23  1  0  0  0  0
 18 17  1  0  0  0  0
 19 18  2  0  0  0  0
 20 21  2  0  0  0  0
 20 19  1  0  0  0  0
 21 22  1  0  0  0  0
 22 39  1  0  0  0  0
 22 23  2  0  0  0  0
 23 40  1  0  0  0  0
 24 19  1  0  0  0  0
 24 25  2  0  0  0  0
 26 24  1  0  0  0  0
 27 42  1  0  0  0  0
 27 28  1  0  0  0  0
 27 26  1  0  0  0  0
 28 43  1  0  0  0  0
 29 28  1  0  0  0  0
 29 46  1  0  0  0  0
 29 47  1  0  0  0  0
 33 11  1  0  0  0  0
 34 12  1  0  0  0  0
 35 15  1  0  0  0  0
 37 20  1  0  0  0  0
 38 21  1  0  0  0  0
 41 27  1  0  0  0  0
 44 28  1  0  0  0  0
 45 29  1  0  0  0  0
M  END
>  <Pose>
1

>  <Score>
-7.33

$$$$
