
 OpenBabel03222201593D

 56 59  0  0  1  0  0  0  0  0999 V2000
  -16.9620    3.2650  -22.2800 B   0  0  0  0  0  0  0  0  0  0  0  0
  -17.3760    2.5110  -24.0020 C   0  0  0  0  0  0  0  0  0  0  0  0
  -17.8100    1.1990  -24.0930 C   0  0  0  0  0  0  0  0  0  0  0  0
  -18.1100    0.6470  -25.3340 C   0  0  0  0  0  0  0  0  0  0  0  0
  -17.9880    1.3800  -26.4920 C   0  0  0  0  0  0  0  0  0  0  0  0
  -17.5540    2.6810  -26.3650 C   0  0  0  0  0  0  0  0  0  0  0  0
  -17.2500    3.2510  -25.1530 C   0  0  0  0  0  0  0  0  0  0  0  0
  -18.2970    0.8210  -27.7900 C   0  0  0  0  0  0  0  0  0  0  0  0
  -19.1160    1.4160  -28.5400 O   0  0  0  0  0  0  0  0  0  0  0  0
  -17.6920   -0.4400  -28.2960 C   0  0  0  0  0  0  0  0  0  0  0  0
  -18.5790   -1.1420  -29.1740 N   0  0  0  0  0  0  0  0  0  0  0  0
  -18.6690   -1.0050  -30.4770 N   0  0  0  0  0  0  0  0  0  0  0  0
  -19.6090   -1.8230  -30.9740 C   0  0  0  0  0  0  0  0  0  0  0  0
  -20.1260   -2.4980  -29.9370 N   0  0  0  0  0  0  0  0  0  0  0  0
  -19.4760   -2.0670  -28.8160 C   0  0  2  0  0  0  0  0  0  0  0  0
  -19.7160   -2.5310  -27.4510 C   0  0  0  0  0  0  0  0  0  0  0  0
  -19.5160   -4.0190  -27.2880 C   0  0  0  0  0  0  0  0  0  0  0  0
  -20.6290   -4.8130  -27.9360 C   0  0  0  0  0  0  0  0  0  0  0  0
  -20.5830   -4.7800  -29.4320 C   0  0  0  0  0  0  0  0  0  0  0  0
  -21.1750   -3.4970  -29.9990 C   0  0  0  0  0  0  0  0  0  0  0  0
  -20.0200   -1.9780  -32.3760 C   0  0  0  0  0  0  0  0  0  0  0  0
  -19.0110   -1.5500  -33.2960 N   0  0  0  0  0  0  0  0  0  0  0  0
  -19.0180   -0.2660  -33.9130 C   0  0  0  0  0  0  0  0  0  0  0  0
  -18.4200    0.8300  -33.3350 C   0  0  0  0  0  0  0  0  0  0  0  0
  -18.4280    2.0600  -33.9400 C   0  0  0  0  0  0  0  0  0  0  0  0
  -19.0420    2.2120  -35.1440 C   0  0  0  0  0  0  0  0  0  0  0  0
  -19.6420    1.1170  -35.7260 C   0  0  0  0  0  0  0  0  0  0  0  0
  -19.6390   -0.1250  -35.1260 C   0  0  0  0  0  0  0  0  0  0  0  0
  -19.0670    3.4330  -35.7740 O   0  0  0  0  0  0  0  0  0  0  0  0
  -17.9870    3.9270  -36.5270 C   0  0  0  0  0  0  0  0  0  0  0  0
  -17.9030    0.6340  -23.1850 H   0  0  0  0  0  0  0  0  0  0  0  0
  -18.4460   -0.3730  -25.3800 H   0  0  0  0  0  0  0  0  0  0  0  0
  -17.4500    3.2820  -27.2780 H   0  0  0  0  0  0  0  0  0  0  0  0
  -16.9170    4.2690  -25.1180 H   0  0  0  0  0  0  0  0  0  0  0  0
  -16.6910   -0.2650  -28.7340 H   0  0  0  0  0  0  0  0  0  0  0  0
  -17.5440   -1.0870  -27.3820 H   0  0  0  0  0  0  0  0  0  0  0  0
  -19.0420   -2.0340  -26.7320 H   0  0  0  0  0  0  0  0  0  0  0  0
  -20.7610   -2.3140  -27.0850 H   0  0  0  0  0  0  0  0  0  0  0  0
  -18.5410   -4.3730  -27.6260 H   0  0  0  0  0  0  0  0  0  0  0  0
  -19.5780   -4.2270  -26.1910 H   0  0  0  0  0  0  0  0  0  0  0  0
  -21.6100   -4.5490  -27.5380 H   0  0  0  0  0  0  0  0  0  0  0  0
  -20.4510   -5.8850  -27.6330 H   0  0  0  0  0  0  0  0  0  0  0  0
  -19.5680   -4.8760  -29.8140 H   0  0  0  0  0  0  0  0  0  0  0  0
  -21.1880   -5.6510  -29.8050 H   0  0  0  0  0  0  0  0  0  0  0  0
  -22.0880   -3.1940  -29.4630 H   0  0  0  0  0  0  0  0  0  0  0  0
  -21.4410   -3.6730  -31.0520 H   0  0  0  0  0  0  0  0  0  0  0  0
  -20.9490   -1.3700  -32.5310 H   0  0  0  0  0  0  0  0  0  0  0  0
  -20.2960   -3.0210  -32.6010 H   0  0  0  0  0  0  0  0  0  0  0  0
  -18.2340   -2.1800  -33.5400 H   0  0  0  0  0  0  0  0  0  0  0  0
  -17.9390    0.6520  -32.3630 H   0  0  0  0  0  0  0  0  0  0  0  0
  -17.9480    2.8860  -33.4510 H   0  0  0  0  0  0  0  0  0  0  0  0
  -20.1430    1.2060  -36.6930 H   0  0  0  0  0  0  0  0  0  0  0  0
  -20.1210   -0.9880  -35.6080 H   0  0  0  0  0  0  0  0  0  0  0  0
  -18.1070    5.0000  -36.7240 H   0  0  0  0  0  0  0  0  0  0  0  0
  -17.0540    3.7640  -35.9530 H   0  0  0  0  0  0  0  0  0  0  0  0
  -17.8800    3.3870  -37.4950 H   0  0  0  0  0  0  0  0  0  0  0  0
  2  1  1  0  0  0  0
  3  2  1  0  0  0  0
  3 31  1  0  0  0  0
  4  3  2  0  0  0  0
  5  6  2  0  0  0  0
  5  4  1  0  0  0  0
  6  7  1  0  0  0  0
  7 34  1  0  0  0  0
  7  2  2  0  0  0  0
  8  5  1  0  0  0  0
  9  8  2  0  0  0  0
 10  8  1  0  0  0  0
 10 36  1  0  0  0  0
 11 15  1  0  0  0  0
 11 10  1  0  0  0  0
 12 11  1  0  0  0  0
 13 12  2  0  0  0  0
 13 14  1  0  0  0  0
 15 14  1  1  0  0  0
 15 16  1  0  0  0  0
 16 17  1  0  0  0  0
 16 38  1  0  0  0  0
 16 37  1  0  0  0  0
 17 40  1  0  0  0  0
 18 42  1  0  0  0  0
 18 41  1  0  0  0  0
 18 17  1  0  0  0  0
 19 18  1  0  0  0  0
 20 14  1  0  0  0  0
 20 45  1  0  0  0  0
 20 19  1  0  0  0  0
 21 13  1  0  0  0  0
 22 21  1  0  0  0  0
 23 24  1  0  0  0  0
 23 22  1  0  0  0  0
 24 50  1  0  0  0  0
 25 51  1  0  0  0  0
 25 24  2  0  0  0  0
 26 25  1  0  0  0  0
 27 26  2  0  0  0  0
 27 28  1  0  0  0  0
 28 23  2  0  0  0  0
 29 26  1  0  0  0  0
 30 55  1  0  0  0  0
 30 29  1  0  0  0  0
 32  4  1  0  0  0  0
 33  6  1  0  0  0  0
 35 10  1  0  0  0  0
 39 17  1  0  0  0  0
 43 19  1  0  0  0  0
 44 19  1  0  0  0  0
 46 20  1  0  0  0  0
 47 21  1  0  0  0  0
 48 21  1  0  0  0  0
 49 22  1  0  0  0  0
 52 27  1  0  0  0  0
 53 28  1  0  0  0  0
 54 30  1  0  0  0  0
 56 30  1  0  0  0  0
M  END
>  <Pose>
1

>  <Score>
-7.35

$$$$
