
 OpenBabel03222201593D

 50 53  0  0  1  0  0  0  0  0999 V2000
  -20.0020   -2.0860  -27.5660 B   0  0  0  0  0  0  0  0  0  0  0  0
  -19.8660   -1.5960  -29.4120 C   0  0  0  0  0  0  0  0  0  0  0  0
  -19.7740   -2.5820  -30.3670 C   0  0  0  0  0  0  0  0  0  0  0  0
  -19.6730   -2.2560  -31.7200 C   0  0  0  0  0  0  0  0  0  0  0  0
  -19.6680   -0.8980  -32.0470 C   0  0  0  0  0  0  0  0  0  0  0  0
  -19.7570    0.0840  -31.1110 C   0  0  0  0  0  0  0  0  0  0  0  0
  -19.8560   -0.2590  -29.7740 C   0  0  0  0  0  0  0  0  0  0  0  0
  -19.6010   -0.5220  -33.4730 C   0  0  1  0  0  0  0  0  0  0  0  0
  -20.7140    0.3500  -33.8250 N   0  0  0  0  0  0  0  0  0  0  0  0
  -22.0190    0.2580  -33.1800 C   0  0  0  0  0  0  0  0  0  0  0  0
  -23.0780    1.0170  -33.8910 C   0  0  0  0  0  0  0  0  0  0  0  0
  -23.1740    0.7100  -35.3630 C   0  0  0  0  0  0  0  0  0  0  0  0
  -22.3810    1.7930  -36.0690 C   0  0  0  0  0  0  0  0  0  0  0  0
  -20.9740    1.8160  -35.7950 C   0  0  0  0  0  0  0  0  0  0  0  0
  -20.2540    1.1960  -34.8310 C   0  0  0  0  0  0  0  0  0  0  0  0
  -18.8600    1.3800  -34.7430 N   0  0  0  0  0  4  0  0  0  0  0  0
  -18.4570    0.3700  -33.8080 C   0  0  0  0  0  0  0  0  0  0  0  0
  -18.6650    2.7000  -34.2370 C   0  0  0  0  0  0  0  0  0  0  0  0
  -18.0920    3.6840  -35.0250 C   0  0  0  0  0  0  0  0  0  0  0  0
  -17.8750    4.9130  -34.4150 C   0  0  0  0  0  0  0  0  0  0  0  0
  -18.1930    5.1930  -33.0990 C   0  0  0  0  0  0  0  0  0  0  0  0
  -18.7750    4.1590  -32.3360 C   0  0  0  0  0  0  0  0  0  0  0  0
  -18.9820    2.9720  -32.9400 C   0  0  0  0  0  0  0  0  0  0  0  0
  -17.7770    3.4220  -36.3230 O   0  0  0  0  0  0  0  0  0  0  0  0
  -17.4820    4.4490  -37.2320 C   0  0  0  0  0  0  0  0  0  0  0  0
  -19.6930   -1.6400  -34.2600 O   0  0  0  0  0  0  0  0  0  0  0  0
  -19.7820   -3.6430  -30.1080 H   0  0  0  0  0  0  0  0  0  0  0  0
  -19.6240   -3.0640  -32.4250 H   0  0  0  0  0  0  0  0  0  0  0  0
  -19.7510    1.1540  -31.3850 H   0  0  0  0  0  0  0  0  0  0  0  0
  -19.9240    0.5410  -29.0220 H   0  0  0  0  0  0  0  0  0  0  0  0
  -22.3040   -0.8180  -33.1840 H   0  0  0  0  0  0  0  0  0  0  0  0
  -21.9790    0.6950  -32.1440 H   0  0  0  0  0  0  0  0  0  0  0  0
  -24.0710    0.7210  -33.4530 H   0  0  0  0  0  0  0  0  0  0  0  0
  -22.9290    2.0970  -33.6790 H   0  0  0  0  0  0  0  0  0  0  0  0
  -24.2480    0.8400  -35.7250 H   0  0  0  0  0  0  0  0  0  0  0  0
  -22.7770   -0.2920  -35.6200 H   0  0  0  0  0  0  0  0  0  0  0  0
  -22.8640    2.7780  -35.7700 H   0  0  0  0  0  0  0  0  0  0  0  0
  -22.5690    1.6770  -37.1720 H   0  0  0  0  0  0  0  0  0  0  0  0
  -20.3790    2.4160  -36.4650 H   0  0  0  0  0  0  0  0  0  0  0  0
  -18.3460    1.2280  -35.6420 H   0  0  0  0  0  0  0  0  0  0  0  0
  -17.9640    0.7950  -32.9050 H   0  0  0  0  0  0  0  0  0  0  0  0
  -17.6690   -0.2410  -34.2790 H   0  0  0  0  0  0  0  0  0  0  0  0
  -17.4180    5.6660  -35.0540 H   0  0  0  0  0  0  0  0  0  0  0  0
  -18.0220    6.1490  -32.6380 H   0  0  0  0  0  0  0  0  0  0  0  0
  -19.0160    4.3610  -31.3170 H   0  0  0  0  0  0  0  0  0  0  0  0
  -19.4260    2.1960  -32.2820 H   0  0  0  0  0  0  0  0  0  0  0  0
  -18.2720    5.2300  -37.1720 H   0  0  0  0  0  0  0  0  0  0  0  0
  -16.5080    4.8790  -36.9600 H   0  0  0  0  0  0  0  0  0  0  0  0
  -17.4640    4.0040  -38.2730 H   0  0  0  0  0  0  0  0  0  0  0  0
  -18.8310   -1.9820  -34.5770 H   0  0  0  0  0  0  0  0  0  0  0  0
  2  1  1  0  0  0  0
  3 27  1  0  0  0  0
  3  2  2  0  0  0  0
  4  3  1  0  0  0  0
  5  4  2  0  0  0  0
  5  6  1  0  0  0  0
  6  7  2  0  0  0  0
  7  2  1  0  0  0  0
  7 30  1  0  0  0  0
  8 26  1  6  0  0  0
  8  5  1  0  0  0  0
  9  8  1  0  0  0  0
  9 10  1  0  0  0  0
 10 32  1  0  0  0  0
 11 34  1  0  0  0  0
 11 33  1  0  0  0  0
 11 10  1  0  0  0  0
 12 11  1  0  0  0  0
 13 14  1  0  0  0  0
 13 37  1  0  0  0  0
 13 12  1  0  0  0  0
 14 15  2  0  0  0  0
 15 16  1  0  0  0  0
 15  9  1  0  0  0  0
 16 18  1  0  0  0  0
 16 17  1  0  0  0  0
 17  8  1  0  0  0  0
 17 41  1  0  0  0  0
 18 23  1  0  0  0  0
 19 20  1  0  0  0  0
 19 18  2  0  0  0  0
 20 21  2  0  0  0  0
 21 44  1  0  0  0  0
 21 22  1  0  0  0  0
 22 45  1  0  0  0  0
 23 22  2  0  0  0  0
 23 46  1  0  0  0  0
 24 19  1  0  0  0  0
 25 47  1  0  0  0  0
 25 48  1  0  0  0  0
 25 24  1  0  0  0  0
 28  4  1  0  0  0  0
 29  6  1  0  0  0  0
 31 10  1  0  0  0  0
 35 12  1  0  0  0  0
 36 12  1  0  0  0  0
 38 13  1  0  0  0  0
 39 14  1  0  0  0  0
 40 16  1  0  0  0  0
 42 17  1  0  0  0  0
 43 20  1  0  0  0  0
 49 25  1  0  0  0  0
 50 26  1  0  0  0  0
M  END
>  <Pose>
1

>  <Score>
-4.93

$$$$
