
 OpenBabel03222201593D

 50 53  0  0  1  0  0  0  0  0999 V2000
  -18.1120   -1.7800  -25.3340 B   0  0  0  0  0  0  0  0  0  0  0  0
  -18.7050   -1.6080  -27.1450 C   0  0  0  0  0  0  0  0  0  0  0  0
  -19.3270   -2.6540  -27.7930 C   0  0  0  0  0  0  0  0  0  0  0  0
  -19.7470   -2.5100  -29.1090 C   0  0  0  0  0  0  0  0  0  0  0  0
  -19.5700   -1.3600  -29.8030 C   0  0  0  0  0  0  0  0  0  0  0  0
  -18.9330   -0.2870  -29.1450 C   0  0  0  0  0  0  0  0  0  0  0  0
  -18.5230   -0.4400  -27.8450 C   0  0  0  0  0  0  0  0  0  0  0  0
  -19.9550   -1.0700  -31.1820 C   0  0  2  0  0  0  0  0  0  0  0  0
  -20.7380   -2.0410  -31.8770 N   0  0  0  0  0  0  0  0  0  0  0  0
  -22.0320   -2.5410  -31.5280 C   0  0  0  0  0  0  0  0  0  0  0  0
  -22.2370   -4.0050  -31.5950 C   0  0  0  0  0  0  0  0  0  0  0  0
  -21.0970   -4.8320  -32.0650 C   0  0  0  0  0  0  0  0  0  0  0  0
  -20.8580   -4.6870  -33.5690 C   0  0  0  0  0  0  0  0  0  0  0  0
  -19.9730   -3.4940  -33.7460 C   0  0  0  0  0  0  0  0  0  0  0  0
  -19.9250   -2.3820  -33.0320 C   0  0  0  0  0  0  0  0  0  0  0  0
  -19.0230   -1.3110  -33.2840 N   0  0  0  0  0  4  0  0  0  0  0  0
  -18.6290   -0.9830  -31.9460 C   0  0  0  0  0  0  0  0  0  0  0  0
  -19.7080   -0.2760  -33.9400 C   0  0  0  0  0  0  0  0  0  0  0  0
  -19.0250    0.8690  -34.3880 C   0  0  0  0  0  0  0  0  0  0  0  0
  -19.6650    1.8970  -35.0270 C   0  0  0  0  0  0  0  0  0  0  0  0
  -21.0230    1.8480  -35.2610 C   0  0  0  0  0  0  0  0  0  0  0  0
  -21.7110    0.7420  -34.8340 C   0  0  0  0  0  0  0  0  0  0  0  0
  -21.0650   -0.2930  -34.1900 C   0  0  0  0  0  0  0  0  0  0  0  0
  -21.6730    2.9100  -35.9190 O   0  0  0  0  0  0  0  0  0  0  0  0
  -21.5190    4.2240  -35.4530 C   0  0  0  0  0  0  0  0  0  0  0  0
  -20.5740    0.1950  -31.1510 O   0  0  0  0  0  0  0  0  0  0  0  0
  -19.4980   -3.5930  -27.3080 H   0  0  0  0  0  0  0  0  0  0  0  0
  -20.2260   -3.3320  -29.6170 H   0  0  0  0  0  0  0  0  0  0  0  0
  -18.7610    0.6660  -29.6470 H   0  0  0  0  0  0  0  0  0  0  0  0
  -18.0340    0.3730  -27.3250 H   0  0  0  0  0  0  0  0  0  0  0  0
  -22.2930   -2.1120  -30.5170 H   0  0  0  0  0  0  0  0  0  0  0  0
  -22.8480   -2.0870  -32.1800 H   0  0  0  0  0  0  0  0  0  0  0  0
  -23.1410   -4.3210  -32.1730 H   0  0  0  0  0  0  0  0  0  0  0  0
  -22.4660   -4.3650  -30.5450 H   0  0  0  0  0  0  0  0  0  0  0  0
  -20.1560   -4.6460  -31.5010 H   0  0  0  0  0  0  0  0  0  0  0  0
  -21.3520   -5.9020  -31.9030 H   0  0  0  0  0  0  0  0  0  0  0  0
  -20.2490   -5.5920  -33.8570 H   0  0  0  0  0  0  0  0  0  0  0  0
  -21.8040   -4.6070  -34.0960 H   0  0  0  0  0  0  0  0  0  0  0  0
  -19.2790   -3.5560  -34.5760 H   0  0  0  0  0  0  0  0  0  0  0  0
  -18.2270   -1.6910  -33.8570 H   0  0  0  0  0  0  0  0  0  0  0  0
  -18.1000   -0.0510  -31.8110 H   0  0  0  0  0  0  0  0  0  0  0  0
  -17.9770   -1.8140  -31.5770 H   0  0  0  0  0  0  0  0  0  0  0  0
  -17.9760    0.8720  -34.1890 H   0  0  0  0  0  0  0  0  0  0  0  0
  -19.1270    2.7720  -35.3670 H   0  0  0  0  0  0  0  0  0  0  0  0
  -22.7950    0.6990  -35.0220 H   0  0  0  0  0  0  0  0  0  0  0  0
  -21.6610   -1.1580  -33.8720 H   0  0  0  0  0  0  0  0  0  0  0  0
  -20.4640    4.4940  -35.2470 H   0  0  0  0  0  0  0  0  0  0  0  0
  -22.1430    4.3500  -34.5390 H   0  0  0  0  0  0  0  0  0  0  0  0
  -21.8870    4.9420  -36.2060 H   0  0  0  0  0  0  0  0  0  0  0  0
  -21.5100    0.0140  -30.8780 H   0  0  0  0  0  0  0  0  0  0  0  0
  2  1  1  0  0  0  0
  3 27  1  0  0  0  0
  3  2  1  0  0  0  0
  4  3  2  0  0  0  0
  5  6  2  0  0  0  0
  5  4  1  0  0  0  0
  6  7  1  0  0  0  0
  7 30  1  0  0  0  0
  7  2  2  0  0  0  0
  8 26  1  6  0  0  0
  8  5  1  0  0  0  0
  9 10  1  0  0  0  0
  9  8  1  0  0  0  0
 10 31  1  0  0  0  0
 11 10  1  0  0  0  0
 11 34  1  0  0  0  0
 12 36  1  0  0  0  0
 12 11  1  0  0  0  0
 12 35  1  0  0  0  0
 13 12  1  0  0  0  0
 14 13  1  0  0  0  0
 14 15  2  0  0  0  0
 15  9  1  0  0  0  0
 16 15  1  0  0  0  0
 16 17  1  0  0  0  0
 17 41  1  0  0  0  0
 17 42  1  0  0  0  0
 17  8  1  0  0  0  0
 18 16  1  0  0  0  0
 19 43  1  0  0  0  0
 19 18  2  0  0  0  0
 20 19  1  0  0  0  0
 21 20  2  0  0  0  0
 21 22  1  0  0  0  0
 22 23  2  0  0  0  0
 23 18  1  0  0  0  0
 23 46  1  0  0  0  0
 24 25  1  0  0  0  0
 24 21  1  0  0  0  0
 25 47  1  0  0  0  0
 25 48  1  0  0  0  0
 26 50  1  0  0  0  0
 28  4  1  0  0  0  0
 29  6  1  0  0  0  0
 32 10  1  0  0  0  0
 33 11  1  0  0  0  0
 37 13  1  0  0  0  0
 38 13  1  0  0  0  0
 39 14  1  0  0  0  0
 40 16  1  0  0  0  0
 44 20  1  0  0  0  0
 45 22  1  0  0  0  0
 49 25  1  0  0  0  0
M  END
>  <Pose>
1

>  <Score>
-4.88

$$$$
