
 OpenBabel03222201593D

 47 50  0  0  1  0  0  0  0  0999 V2000
  -21.5890   -4.6300  -31.6040 B   0  0  0  0  0  0  0  0  0  0  0  0
  -20.8640   -4.1880  -29.8950 C   0  0  0  0  0  0  0  0  0  0  0  0
  -20.6000   -5.1570  -28.9460 C   0  0  0  0  0  0  0  0  0  0  0  0
  -20.0720   -4.8200  -27.7160 C   0  0  0  0  0  0  0  0  0  0  0  0
  -19.7790   -3.5210  -27.3590 C   0  0  0  0  0  0  0  0  0  0  0  0
  -20.0490   -2.5540  -28.3200 C   0  0  0  0  0  0  0  0  0  0  0  0
  -20.5770   -2.8840  -29.5540 C   0  0  0  0  0  0  0  0  0  0  0  0
  -19.2210   -3.2260  -26.0410 C   0  0  2  0  0  0  0  0  0  0  0  0
  -20.0400   -2.3750  -25.2130 N   0  0  0  0  0  0  0  0  0  0  0  0
  -21.4670   -2.1280  -25.0600 C   0  0  0  0  0  0  0  0  0  0  0  0
  -21.8880   -1.7230  -23.7010 C   0  0  0  0  0  0  0  0  0  0  0  0
  -20.8080   -1.7400  -22.6480 C   0  0  0  0  0  0  0  0  0  0  0  0
  -19.4990   -1.3430  -23.1580 C   0  0  0  0  0  0  0  0  0  0  0  0
  -19.1370   -1.6510  -24.3900 C   0  0  0  0  0  0  0  0  0  0  0  0
  -17.9560   -1.4050  -25.1460 N   0  0  0  0  0  4  0  0  0  0  0  0
  -17.9170   -2.4650  -26.1050 C   0  0  0  0  0  0  0  0  0  0  0  0
  -18.0130   -0.1210  -25.6720 C   0  0  0  0  0  0  0  0  0  0  0  0
  -17.6990    0.9710  -24.8970 C   0  0  0  0  0  0  0  0  0  0  0  0
  -17.7580    2.2690  -25.4300 C   0  0  0  0  0  0  0  0  0  0  0  0
  -18.1260    2.4950  -26.7270 C   0  0  0  0  0  0  0  0  0  0  0  0
  -18.4470    1.3760  -27.5170 C   0  0  0  0  0  0  0  0  0  0  0  0
  -18.3790    0.1140  -26.9640 C   0  0  0  0  0  0  0  0  0  0  0  0
  -18.2060    3.7530  -27.3200 O   0  0  0  0  0  0  0  0  0  0  0  0
  -17.1530    4.6380  -27.5260 C   0  0  0  0  0  0  0  0  0  0  0  0
  -19.0600   -4.4430  -25.3480 O   0  0  0  0  0  0  0  0  0  0  0  0
  -20.8270   -6.1800  -29.2210 H   0  0  0  0  0  0  0  0  0  0  0  0
  -19.8720   -5.6050  -26.9810 H   0  0  0  0  0  0  0  0  0  0  0  0
  -19.8340   -1.5300  -28.0730 H   0  0  0  0  0  0  0  0  0  0  0  0
  -20.7880   -2.1300  -30.3110 H   0  0  0  0  0  0  0  0  0  0  0  0
  -22.0500   -3.0440  -25.3580 H   0  0  0  0  0  0  0  0  0  0  0  0
  -21.8130   -1.3530  -25.8020 H   0  0  0  0  0  0  0  0  0  0  0  0
  -22.7830   -2.3100  -23.3620 H   0  0  0  0  0  0  0  0  0  0  0  0
  -22.2610   -0.6570  -23.7210 H   0  0  0  0  0  0  0  0  0  0  0  0
  -21.0730   -1.1020  -21.7800 H   0  0  0  0  0  0  0  0  0  0  0  0
  -20.7670   -2.7910  -22.2520 H   0  0  0  0  0  0  0  0  0  0  0  0
  -18.8280   -0.7960  -22.5260 H   0  0  0  0  0  0  0  0  0  0  0  0
  -17.1460   -1.4840  -24.4730 H   0  0  0  0  0  0  0  0  0  0  0  0
  -17.1180   -3.1850  -25.8200 H   0  0  0  0  0  0  0  0  0  0  0  0
  -17.6710   -2.1350  -27.1300 H   0  0  0  0  0  0  0  0  0  0  0  0
  -17.3960    0.8890  -23.8660 H   0  0  0  0  0  0  0  0  0  0  0  0
  -17.5050    3.1210  -24.8080 H   0  0  0  0  0  0  0  0  0  0  0  0
  -18.7380    1.5560  -28.5460 H   0  0  0  0  0  0  0  0  0  0  0  0
  -18.6280   -0.7190  -27.5840 H   0  0  0  0  0  0  0  0  0  0  0  0
  -16.1820    4.2820  -27.2050 H   0  0  0  0  0  0  0  0  0  0  0  0
  -17.4150    5.6460  -27.1240 H   0  0  0  0  0  0  0  0  0  0  0  0
  -17.0590    4.8050  -28.6400 H   0  0  0  0  0  0  0  0  0  0  0  0
  -19.9710   -4.7380  -25.1050 H   0  0  0  0  0  0  0  0  0  0  0  0
  1  2  1  0  0  0  0
  2  7  2  0  0  0  0
  2  3  1  0  0  0  0
  3  4  2  0  0  0  0
  4  5  1  0  0  0  0
  4 27  1  0  0  0  0
  5  8  1  0  0  0  0
  6 28  1  0  0  0  0
  6  5  2  0  0  0  0
  7  6  1  0  0  0  0
  8 25  1  1  0  0  0
  8  9  1  0  0  0  0
  9 10  1  0  0  0  0
  9 14  1  0  0  0  0
 10 11  1  0  0  0  0
 11 32  1  0  0  0  0
 11 12  1  0  0  0  0
 12 35  1  0  0  0  0
 12 34  1  0  0  0  0
 13 12  1  0  0  0  0
 13 36  1  0  0  0  0
 14 13  2  0  0  0  0
 15 37  1  0  0  0  0
 15 14  1  0  0  0  0
 16  8  1  0  0  0  0
 16 38  1  0  0  0  0
 16 15  1  0  0  0  0
 17 15  1  0  0  0  0
 17 18  1  0  0  0  0
 18 40  1  0  0  0  0
 19 18  2  0  0  0  0
 19 41  1  0  0  0  0
 20 19  1  0  0  0  0
 21 22  1  0  0  0  0
 21 20  2  0  0  0  0
 22 17  2  0  0  0  0
 23 20  1  0  0  0  0
 24 23  1  0  0  0  0
 24 44  1  0  0  0  0
 24 45  1  0  0  0  0
 25 47  1  0  0  0  0
 26  3  1  0  0  0  0
 29  7  1  0  0  0  0
 30 10  1  0  0  0  0
 31 10  1  0  0  0  0
 33 11  1  0  0  0  0
 39 16  1  0  0  0  0
 42 21  1  0  0  0  0
 43 22  1  0  0  0  0
 46 24  1  0  0  0  0
M  END
>  <Pose>
1

>  <Score>
-4.86

$$$$
