
 OpenBabel03222201593D

 56 59  0  0  1  0  0  0  0  0999 V2000
  -20.2330    4.2620  -38.6740 B   0  0  0  0  0  0  0  0  0  0  0  0
  -19.4550    3.0470  -37.4370 C   0  0  0  0  0  0  0  0  0  0  0  0
  -18.8490    3.5190  -36.2770 C   0  0  0  0  0  0  0  0  0  0  0  0
  -18.2880    2.6440  -35.3870 C   0  0  0  0  0  0  0  0  0  0  0  0
  -18.3180    1.2890  -35.6350 C   0  0  0  0  0  0  0  0  0  0  0  0
  -18.9220    0.8370  -36.7890 C   0  0  0  0  0  0  0  0  0  0  0  0
  -19.4950    1.6900  -37.7040 C   0  0  0  0  0  0  0  0  0  0  0  0
  -17.7270    0.3680  -34.7080 N   0  0  0  0  0  0  0  0  0  0  0  0
  -18.2650    0.1390  -33.3820 C   0  0  0  0  0  0  0  0  0  0  0  0
  -19.4240   -0.8090  -33.3870 C   0  0  0  0  0  0  0  0  0  0  0  0
  -20.6540   -0.6610  -33.9050 N   0  0  0  0  0  0  0  0  0  0  0  0
  -21.3480   -1.7890  -33.6610 C   0  0  1  0  0  0  0  0  0  0  0  0
  -20.5290   -2.6550  -32.9760 N   0  0  0  0  0  0  0  0  0  0  0  0
  -19.3760   -2.0250  -32.8300 N   0  0  0  0  0  0  0  0  0  0  0  0
  -20.8250   -3.9330  -32.4630 C   0  0  0  0  0  0  0  0  0  0  0  0
  -20.9970   -4.0820  -31.0420 C   0  0  1  0  0  0  0  0  0  0  0  0
  -21.8500   -5.0580  -30.7310 O   0  0  0  0  0  0  0  0  0  0  0  0
  -20.4580   -3.4190  -29.8880 C   0  0  0  0  0  0  0  0  0  0  0  0
  -20.4330   -4.0700  -28.6350 C   0  0  0  0  0  0  0  0  0  0  0  0
  -19.9370   -3.4830  -27.5010 C   0  0  0  0  0  0  0  0  0  0  0  0
  -19.4310   -2.2080  -27.5330 C   0  0  0  0  0  0  0  0  0  0  0  0
  -19.4360   -1.5410  -28.7270 C   0  0  0  0  0  0  0  0  0  0  0  0
  -19.9500   -2.1570  -29.8840 C   0  0  0  0  0  0  0  0  0  0  0  0
  -18.9260   -1.6130  -26.3790 O   0  0  0  0  0  0  0  0  0  0  0  0
  -17.8720   -0.6820  -26.4080 C   0  0  0  0  0  0  0  0  0  0  0  0
  -22.7190   -2.2000  -33.9770 C   0  0  0  0  0  0  0  0  0  0  0  0
  -23.2610   -1.6600  -35.2740 C   0  0  0  0  0  0  0  0  0  0  0  0
  -23.3350   -0.1690  -35.3200 C   0  0  0  0  0  0  0  0  0  0  0  0
  -21.9760    0.3300  -35.7510 C   0  0  0  0  0  0  0  0  0  0  0  0
  -21.0520    0.5330  -34.5760 C   0  0  0  0  0  0  0  0  0  0  0  0
  -18.8480    4.6020  -36.1230 H   0  0  0  0  0  0  0  0  0  0  0  0
  -17.8260    3.0140  -34.4980 H   0  0  0  0  0  0  0  0  0  0  0  0
  -18.9470   -0.2170  -36.9840 H   0  0  0  0  0  0  0  0  0  0  0  0
  -19.9770    1.3620  -38.6160 H   0  0  0  0  0  0  0  0  0  0  0  0
  -16.8760   -0.1370  -35.0380 H   0  0  0  0  0  0  0  0  0  0  0  0
  -17.4680   -0.2240  -32.6770 H   0  0  0  0  0  0  0  0  0  0  0  0
  -18.5850    1.1180  -32.9650 H   0  0  0  0  0  0  0  0  0  0  0  0
  -20.0900   -4.7170  -32.8750 H   0  0  0  0  0  0  0  0  0  0  0  0
  -21.8000   -4.3460  -32.9320 H   0  0  0  0  0  0  0  0  0  0  0  0
  -20.8300   -5.0760  -28.6040 H   0  0  0  0  0  0  0  0  0  0  0  0
  -19.9450   -4.0420  -26.5680 H   0  0  0  0  0  0  0  0  0  0  0  0
  -19.0400   -0.5310  -28.7680 H   0  0  0  0  0  0  0  0  0  0  0  0
  -19.9120   -1.5580  -30.7460 H   0  0  0  0  0  0  0  0  0  0  0  0
  -17.0270   -1.1030  -27.0030 H   0  0  0  0  0  0  0  0  0  0  0  0
  -17.5030   -0.5480  -25.3700 H   0  0  0  0  0  0  0  0  0  0  0  0
  -18.1870    0.3000  -26.8110 H   0  0  0  0  0  0  0  0  0  0  0  0
  -23.4240   -1.9030  -33.1750 H   0  0  0  0  0  0  0  0  0  0  0  0
  -22.7420   -3.3050  -34.0730 H   0  0  0  0  0  0  0  0  0  0  0  0
  -24.3010   -2.0500  -35.3660 H   0  0  0  0  0  0  0  0  0  0  0  0
  -22.7120   -2.0430  -36.1570 H   0  0  0  0  0  0  0  0  0  0  0  0
  -24.0700    0.1350  -36.1090 H   0  0  0  0  0  0  0  0  0  0  0  0
  -23.5780    0.2810  -34.3540 H   0  0  0  0  0  0  0  0  0  0  0  0
  -22.1270    1.3270  -36.2140 H   0  0  0  0  0  0  0  0  0  0  0  0
  -21.5160   -0.3130  -36.5390 H   0  0  0  0  0  0  0  0  0  0  0  0
  -21.5920    1.1870  -33.8600 H   0  0  0  0  0  0  0  0  0  0  0  0
  -20.1440    1.0210  -34.9890 H   0  0  0  0  0  0  0  0  0  0  0  0
  1  2  1  0  0  0  0
  2  3  1  0  0  0  0
  3 31  1  0  0  0  0
  3  4  2  0  0  0  0
  4 32  1  0  0  0  0
  5  4  1  0  0  0  0
  5  8  1  0  0  0  0
  6  5  2  0  0  0  0
  7  2  2  0  0  0  0
  7  6  1  0  0  0  0
  8  9  1  0  0  0  0
  9 37  1  0  0  0  0
  9 36  1  0  0  0  0
 10  9  1  0  0  0  0
 10 14  2  0  0  0  0
 11 12  1  0  0  0  0
 11 10  1  0  0  0  0
 12 26  1  1  0  0  0
 12 13  1  0  0  0  0
 13 14  1  0  0  0  0
 13 15  1  0  0  0  0
 15 16  1  0  0  0  0
 16 17  1  1  0  0  0
 16 18  1  0  0  0  0
 18 23  2  0  0  0  0
 18 19  1  0  0  0  0
 19 40  1  0  0  0  0
 19 20  2  0  0  0  0
 20 41  1  0  0  0  0
 21 20  1  0  0  0  0
 21 24  1  0  0  0  0
 22 21  2  0  0  0  0
 23 22  1  0  0  0  0
 25 24  1  0  0  0  0
 25 45  1  0  0  0  0
 26 47  1  0  0  0  0
 27 26  1  0  0  0  0
 28 27  1  0  0  0  0
 28 52  1  0  0  0  0
 29 28  1  0  0  0  0
 29 30  1  0  0  0  0
 30 11  1  0  0  0  0
 30 55  1  0  0  0  0
 33  6  1  0  0  0  0
 34  7  1  0  0  0  0
 35  8  1  0  0  0  0
 38 15  1  0  0  0  0
 39 15  1  0  0  0  0
 42 22  1  0  0  0  0
 43 23  1  0  0  0  0
 44 25  1  0  0  0  0
 46 25  1  0  0  0  0
 48 26  1  0  0  0  0
 49 27  1  0  0  0  0
 50 27  1  0  0  0  0
 51 28  1  0  0  0  0
 53 29  1  0  0  0  0
 54 29  1  0  0  0  0
 56 30  1  0  0  0  0
M  END
>  <Pose>
1

>  <Score>
-6.83

$$$$
