
 OpenBabel03222201593D

 55 57  0  0  1  0  0  0  0  0999 V2000
  -19.5960   -2.4330  -27.1310 B   0  0  0  0  0  0  0  0  0  0  0  0
  -20.0620   -2.8190  -28.9490 C   0  0  0  0  0  0  0  0  0  0  0  0
  -20.1820   -1.8190  -29.8930 C   0  0  0  0  0  0  0  0  0  0  0  0
  -20.5170   -2.1020  -31.1980 C   0  0  0  0  0  0  0  0  0  0  0  0
  -20.7270   -3.4280  -31.5130 C   0  0  0  0  0  0  0  0  0  0  0  0
  -20.6090   -4.4320  -30.5740 C   0  0  0  0  0  0  0  0  0  0  0  0
  -20.2730   -4.1440  -29.2680 C   0  0  0  0  0  0  0  0  0  0  0  0
  -20.1470   -5.2370  -28.2620 C   0  0  0  0  0  0  0  0  0  0  0  0
  -21.0650   -3.6890  -32.8400 O   0  0  0  0  0  0  0  0  0  0  0  0
  -21.4930   -2.7220  -33.7400 C   0  0  0  0  0  0  0  0  0  0  0  0
  -20.9120   -1.3620  -33.5480 C   0  0  2  0  0  0  0  0  0  0  0  0
  -20.6250   -0.9820  -32.1390 C   0  0  2  0  0  0  0  0  0  0  0  0
  -19.4120   -0.2570  -32.0490 O   0  0  0  0  0  0  0  0  0  0  0  0
  -21.9340   -0.4290  -34.0350 N   0  0  0  0  0  4  0  0  0  0  0  0
  -22.2170    0.6240  -33.1220 C   0  0  0  0  0  0  0  0  0  0  0  0
  -22.9940    1.6840  -33.9180 C   0  0  0  0  0  0  0  0  0  0  0  0
  -24.1870    1.0900  -34.2930 O   0  0  0  0  0  0  0  0  0  0  0  0
  -24.0140   -0.0270  -35.1030 C   0  0  0  0  0  0  0  0  0  0  0  0
  -23.1530   -1.0850  -34.3970 C   0  0  0  0  0  0  0  0  0  0  0  0
  -19.6810   -1.1260  -34.3990 C   0  0  0  0  0  0  0  0  0  0  0  0
  -19.9720   -0.7350  -35.7440 N   0  0  0  0  0  4  0  0  0  0  0  0
  -20.9040    0.3750  -35.8160 C   0  0  0  0  0  0  0  0  0  0  0  0
  -20.4610    1.4200  -36.8300 C   0  0  0  0  0  0  0  0  0  0  0  0
  -19.2570    2.0110  -36.4850 O   0  0  0  0  0  0  0  0  0  0  0  0
  -18.4090    1.1050  -35.8560 C   0  0  0  0  0  0  0  0  0  0  0  0
  -18.7440   -0.2650  -36.4080 C   0  0  0  0  0  0  0  0  0  0  0  0
  -20.0060   -0.7810  -29.5920 H   0  0  0  0  0  0  0  0  0  0  0  0
  -20.7770   -5.4650  -30.8460 H   0  0  0  0  0  0  0  0  0  0  0  0
  -21.1450   -5.5120  -27.8540 H   0  0  0  0  0  0  0  0  0  0  0  0
  -19.7050   -6.1480  -28.6960 H   0  0  0  0  0  0  0  0  0  0  0  0
  -19.5500   -4.8530  -27.4080 H   0  0  0  0  0  0  0  0  0  0  0  0
  -21.2880   -3.0930  -34.7690 H   0  0  0  0  0  0  0  0  0  0  0  0
  -22.6220   -2.6900  -33.6740 H   0  0  0  0  0  0  0  0  0  0  0  0
  -21.3920   -0.2660  -31.7190 H   0  0  0  0  0  0  0  0  0  0  0  0
  -18.7880   -0.4890  -32.7670 H   0  0  0  0  0  0  0  0  0  0  0  0
  -21.5320   -0.0100  -34.9030 H   0  0  0  0  0  0  0  0  0  0  0  0
  -21.3570    1.1330  -32.6930 H   0  0  0  0  0  0  0  0  0  0  0  0
  -22.9490    0.2790  -32.3370 H   0  0  0  0  0  0  0  0  0  0  0  0
  -23.2050    2.5130  -33.2450 H   0  0  0  0  0  0  0  0  0  0  0  0
  -22.3490    1.9430  -34.7760 H   0  0  0  0  0  0  0  0  0  0  0  0
  -25.0110   -0.4150  -35.3530 H   0  0  0  0  0  0  0  0  0  0  0  0
  -23.4240    0.3030  -35.9820 H   0  0  0  0  0  0  0  0  0  0  0  0
  -23.7610   -1.4160  -33.5320 H   0  0  0  0  0  0  0  0  0  0  0  0
  -23.0250   -1.9130  -35.1200 H   0  0  0  0  0  0  0  0  0  0  0  0
  -18.9840   -0.3950  -33.9590 H   0  0  0  0  0  0  0  0  0  0  0  0
  -19.1210   -2.1050  -34.4310 H   0  0  0  0  0  0  0  0  0  0  0  0
  -20.3440   -1.4800  -36.3520 H   0  0  0  0  0  0  0  0  0  0  0  0
  -20.9110    0.8910  -34.8310 H   0  0  0  0  0  0  0  0  0  0  0  0
  -21.9210    0.0610  -36.1290 H   0  0  0  0  0  0  0  0  0  0  0  0
  -20.5000    1.0520  -37.8650 H   0  0  0  0  0  0  0  0  0  0  0  0
  -21.2350    2.2330  -36.7670 H   0  0  0  0  0  0  0  0  0  0  0  0
  -18.6220    1.1680  -34.7670 H   0  0  0  0  0  0  0  0  0  0  0  0
  -17.3730    1.3970  -36.0910 H   0  0  0  0  0  0  0  0  0  0  0  0
  -18.9370   -0.2060  -37.4990 H   0  0  0  0  0  0  0  0  0  0  0  0
  -17.9150   -0.9910  -36.2710 H   0  0  0  0  0  0  0  0  0  0  0  0
  2  1  1  0  0  0  0
  3 27  1  0  0  0  0
  3  2  2  0  0  0  0
  4  3  1  0  0  0  0
  5  4  2  0  0  0  0
  5  6  1  0  0  0  0
  6  7  2  0  0  0  0
  7  2  1  0  0  0  0
  7  8  1  0  0  0  0
  8 29  1  0  0  0  0
  8 31  1  0  0  0  0
  9  5  1  0  0  0  0
 10 33  1  0  0  0  0
 10 11  1  0  0  0  0
 10  9  1  0  0  0  0
 11 20  1  6  0  0  0
 11 12  1  0  0  0  0
 12 13  1  0  0  0  0
 12 34  1  1  0  0  0
 12  4  1  0  0  0  0
 14 11  1  0  0  0  0
 14 15  1  0  0  0  0
 15 37  1  0  0  0  0
 15 38  1  0  0  0  0
 16 39  1  0  0  0  0
 16 15  1  0  0  0  0
 17 16  1  0  0  0  0
 18 19  1  0  0  0  0
 18 17  1  0  0  0  0
 19 14  1  0  0  0  0
 19 43  1  0  0  0  0
 20 45  1  0  0  0  0
 21 20  1  0  0  0  0
 22 21  1  0  0  0  0
 22 48  1  0  0  0  0
 23 51  1  0  0  0  0
 23 24  1  0  0  0  0
 24 25  1  0  0  0  0
 25 52  1  0  0  0  0
 26 55  1  0  0  0  0
 26 25  1  0  0  0  0
 26 21  1  0  0  0  0
 28  6  1  0  0  0  0
 30  8  1  0  0  0  0
 32 10  1  0  0  0  0
 35 13  1  0  0  0  0
 36 14  1  0  0  0  0
 40 16  1  0  0  0  0
 41 18  1  0  0  0  0
 42 18  1  0  0  0  0
 44 19  1  0  0  0  0
 46 20  1  0  0  0  0
 47 21  1  0  0  0  0
 49 22  1  0  0  0  0
 50 23  1  0  0  0  0
 53 25  1  0  0  0  0
 54 26  1  0  0  0  0
M  END
>  <Pose>
1

>  <Score>
-5.19

$$$$
