
 OpenBabel03222201593D

 66 69  0  0  1  0  0  0  0  0999 V2000
  -17.2880    4.3770  -37.2010 B   0  0  0  0  0  0  0  0  0  0  0  0
  -18.9270    4.2890  -36.2120 C   0  0  0  0  0  0  0  0  0  0  0  0
  -19.5350    3.0750  -36.0020 C   0  0  0  0  0  0  0  0  0  0  0  0
  -20.7370    2.9660  -35.2830 C   0  0  0  0  0  0  0  0  0  0  0  0
  -21.2720    4.1410  -34.8010 C   0  0  0  0  0  0  0  0  0  0  0  0
  -20.6840    5.3720  -34.9990 C   0  0  0  0  0  0  0  0  0  0  0  0
  -19.5060    5.4520  -35.7060 C   0  0  0  0  0  0  0  0  0  0  0  0
  -18.7960    6.7300  -35.9710 C   0  0  0  0  0  0  0  0  0  0  0  0
  -21.4490    6.9820  -34.3190 B   0  0  0  0  0  0  0  0  0  0  0  0
  -21.3440    1.6660  -35.0870 C   0  0  0  0  0  0  0  0  0  0  0  0
  -22.3440    1.5480  -34.3700 O   0  0  0  0  0  0  0  0  0  0  0  0
  -20.7610    0.4860  -35.7500 C   0  0  1  0  0  0  0  0  0  0  0  0
  -19.2660    0.7070  -35.8200 C   0  0  0  0  0  0  0  0  0  0  0  0
  -18.9630    1.9100  -36.5040 O   0  0  0  0  0  0  0  0  0  0  0  0
  -21.0970   -0.8100  -35.0780 C   0  0  0  0  0  0  0  0  0  0  0  0
  -20.0080   -1.6610  -34.7900 N   0  0  0  0  0  4  0  0  0  0  0  0
  -19.2850   -1.1650  -33.6560 C   0  0  0  0  0  0  0  0  0  0  0  0
  -19.9850   -1.2980  -32.3510 C   0  0  2  0  0  0  0  0  0  0  0  0
  -21.2230   -2.1070  -32.3380 C   0  0  0  0  0  0  0  0  0  0  0  0
  -21.3790   -3.1020  -33.4210 C   0  0  0  0  0  0  0  0  0  0  0  0
  -20.3410   -3.0280  -34.5020 C   0  0  0  0  0  0  0  0  0  0  0  0
  -20.3470    0.1130  -31.8730 C   0  0  0  0  0  0  0  0  0  0  0  0
  -21.3030    0.4930  -37.1650 C   0  0  0  0  0  0  0  0  0  0  0  0
  -21.5270   -0.7910  -37.7360 N   0  0  0  0  0  4  0  0  0  0  0  0
  -21.2950   -0.7510  -39.1790 C   0  0  0  0  0  0  0  0  0  0  0  0
  -22.5700   -0.6730  -39.9660 C   0  0  1  0  0  0  0  0  0  0  0  0
  -23.5230    0.2890  -39.2930 C   0  0  0  0  0  0  0  0  0  0  0  0
  -23.9310   -0.3130  -37.9840 C   0  0  0  0  0  0  0  0  0  0  0  0
  -22.8710   -1.2960  -37.5540 C   0  0  0  0  0  0  0  0  0  0  0  0
  -22.2200   -0.0520  -41.3250 C   0  0  0  0  0  0  0  0  0  0  0  0
  -22.2010    4.1160  -34.2370 H   0  0  0  0  0  0  0  0  0  0  0  0
  -17.8040    6.6770  -35.4690 H   0  0  0  0  0  0  0  0  0  0  0  0
  -19.3800    7.6100  -35.6980 H   0  0  0  0  0  0  0  0  0  0  0  0
  -18.5620    6.7250  -37.0740 H   0  0  0  0  0  0  0  0  0  0  0  0
  -18.8260    0.7930  -34.8160 H   0  0  0  0  0  0  0  0  0  0  0  0
  -18.7490   -0.1700  -36.3000 H   0  0  0  0  0  0  0  0  0  0  0  0
  -21.5900   -0.5430  -34.1190 H   0  0  0  0  0  0  0  0  0  0  0  0
  -21.8780   -1.3140  -35.6830 H   0  0  0  0  0  0  0  0  0  0  0  0
  -19.3390   -1.6750  -35.6010 H   0  0  0  0  0  0  0  0  0  0  0  0
  -18.3010   -1.7210  -33.6410 H   0  0  0  0  0  0  0  0  0  0  0  0
  -19.0020   -0.1130  -33.8680 H   0  0  0  0  0  0  0  0  0  0  0  0
  -19.2510   -1.6730  -31.5990 H   0  0  0  0  0  0  0  0  0  0  0  0
  -21.2650   -2.6550  -31.3520 H   0  0  0  0  0  0  0  0  0  0  0  0
  -22.1460   -1.4530  -32.3060 H   0  0  0  0  0  0  0  0  0  0  0  0
  -22.4060   -3.0490  -33.8900 H   0  0  0  0  0  0  0  0  0  0  0  0
  -21.3370   -4.1610  -33.0240 H   0  0  0  0  0  0  0  0  0  0  0  0
  -20.6170   -3.6490  -35.3450 H   0  0  0  0  0  0  0  0  0  0  0  0
  -19.4050   -3.4900  -34.0660 H   0  0  0  0  0  0  0  0  0  0  0  0
  -20.3080    0.1730  -30.7570 H   0  0  0  0  0  0  0  0  0  0  0  0
  -19.7000    0.8490  -32.3690 H   0  0  0  0  0  0  0  0  0  0  0  0
  -21.3880    0.3120  -32.1910 H   0  0  0  0  0  0  0  0  0  0  0  0
  -20.5310    1.0370  -37.7790 H   0  0  0  0  0  0  0  0  0  0  0  0
  -22.2050    1.1660  -37.2140 H   0  0  0  0  0  0  0  0  0  0  0  0
  -20.8690   -1.4760  -37.3570 H   0  0  0  0  0  0  0  0  0  0  0  0
  -20.7190   -1.6250  -39.5260 H   0  0  0  0  0  0  0  0  0  0  0  0
  -20.6950    0.1570  -39.4550 H   0  0  0  0  0  0  0  0  0  0  0  0
  -23.0220   -1.6480  -40.1870 H   0  0  0  0  0  0  0  0  0  0  0  0
  -24.3900    0.4160  -39.9720 H   0  0  0  0  0  0  0  0  0  0  0  0
  -23.0190    1.2560  -39.1990 H   0  0  0  0  0  0  0  0  0  0  0  0
  -24.1700    0.3980  -37.1980 H   0  0  0  0  0  0  0  0  0  0  0  0
  -24.8640   -0.9220  -38.1580 H   0  0  0  0  0  0  0  0  0  0  0  0
  -22.9380   -2.2200  -38.2000 H   0  0  0  0  0  0  0  0  0  0  0  0
  -23.1120   -1.6250  -36.5430 H   0  0  0  0  0  0  0  0  0  0  0  0
  -21.1700   -0.3070  -41.5980 H   0  0  0  0  0  0  0  0  0  0  0  0
  -22.3900    1.0460  -41.3200 H   0  0  0  0  0  0  0  0  0  0  0  0
  -22.8710   -0.4610  -42.1250 H   0  0  0  0  0  0  0  0  0  0  0  0
  1  2  1  0  0  0  0
  2  3  2  0  0  0  0
  2  7  1  0  0  0  0
  3  4  1  0  0  0  0
  4 10  1  0  0  0  0
  4  5  2  0  0  0  0
  5 31  1  0  0  0  0
  6  5  1  0  0  0  0
  6  9  1  0  0  0  0
  7  6  2  0  0  0  0
  8  7  1  0  0  0  0
  8 33  1  0  0  0  0
  8 32  1  0  0  0  0
 10 11  2  0  0  0  0
 12 23  1  6  0  0  0
 12 10  1  0  0  0  0
 12 15  1  0  0  0  0
 13 12  1  0  0  0  0
 13 35  1  0  0  0  0
 14  3  1  0  0  0  0
 14 13  1  0  0  0  0
 15 16  1  0  0  0  0
 15 37  1  0  0  0  0
 16 21  1  0  0  0  0
 16 17  1  0  0  0  0
 17 40  1  0  0  0  0
 17 18  1  0  0  0  0
 18 19  1  0  0  0  0
 18 22  1  0  0  0  0
 18 42  1  1  0  0  0
 19 44  1  0  0  0  0
 19 43  1  0  0  0  0
 20 46  1  0  0  0  0
 20 19  1  0  0  0  0
 21 48  1  0  0  0  0
 21 20  1  0  0  0  0
 22 49  1  0  0  0  0
 24 29  1  0  0  0  0
 24 54  1  0  0  0  0
 24 23  1  0  0  0  0
 25 24  1  0  0  0  0
 26 57  1  6  0  0  0
 26 27  1  0  0  0  0
 26 25  1  0  0  0  0
 27 59  1  0  0  0  0
 27 28  1  0  0  0  0
 28 29  1  0  0  0  0
 28 60  1  0  0  0  0
 29 63  1  0  0  0  0
 30 65  1  0  0  0  0
 30 26  1  0  0  0  0
 34  8  1  0  0  0  0
 36 13  1  0  0  0  0
 38 15  1  0  0  0  0
 39 16  1  0  0  0  0
 41 17  1  0  0  0  0
 45 20  1  0  0  0  0
 47 21  1  0  0  0  0
 50 22  1  0  0  0  0
 51 22  1  0  0  0  0
 52 23  1  0  0  0  0
 53 23  1  0  0  0  0
 55 25  1  0  0  0  0
 56 25  1  0  0  0  0
 58 27  1  0  0  0  0
 61 28  1  0  0  0  0
 62 29  1  0  0  0  0
 64 30  1  0  0  0  0
 66 30  1  0  0  0  0
M  END
>  <Pose>
1

>  <Score>
-4.79

$$$$
