
 OpenBabel03222201593D

 50 53  0  0  0  0  0  0  0  0999 V2000
  -20.0570   -2.9530  -25.9340 F   0  0  0  0  0  0  0  0  0  0  0  0
  -19.6900   -2.3660  -27.1060 C   0  0  0  0  0  0  0  0  0  0  0  0
  -19.7620   -3.0380  -28.3090 C   0  0  0  0  0  0  0  0  0  0  0  0
  -19.3850   -2.4250  -29.4850 C   0  0  0  0  0  0  0  0  0  0  0  0
  -18.9200   -1.1200  -29.5150 C   0  0  0  0  0  0  0  0  0  0  0  0
  -18.8520   -0.4570  -28.3090 C   0  0  0  0  0  0  0  0  0  0  0  0
  -19.2300   -1.0700  -27.1220 C   0  0  0  0  0  0  0  0  0  0  0  0
  -18.5210   -0.4670  -30.7550 C   0  0  0  0  0  0  0  0  0  0  0  0
  -18.2320   -1.1600  -31.7990 N   0  0  0  0  0  0  0  0  0  0  0  0
  -17.8450   -0.6060  -33.0110 N   0  0  0  0  0  0  0  0  0  0  0  0
  -18.6420    0.3760  -33.6440 C   0  0  0  0  0  0  0  0  0  0  0  0
  -19.4300    0.0310  -34.6860 N   0  0  0  0  0  4  0  0  0  0  0  0
  -20.2180    0.9220  -35.3370 C   0  0  0  0  0  0  0  0  0  0  0  0
  -20.1820    2.1810  -34.8960 N   0  0  0  0  0  0  0  0  0  0  0  0
  -19.4230    2.5960  -33.8670 C   0  0  0  0  0  0  0  0  0  0  0  0
  -18.6640    1.6650  -33.2630 N   0  0  0  0  0  0  0  0  0  0  0  0
  -19.4370    3.9550  -33.4520 N   0  0  0  0  0  0  0  0  0  0  0  0
  -20.6040    4.7660  -33.7450 C   0  0  0  0  0  0  0  0  0  0  0  0
  -20.3740    6.1760  -33.2500 C   0  0  0  0  0  0  0  0  0  0  0  0
  -19.9200    6.2570  -31.9650 O   0  0  0  0  0  0  0  0  0  0  0  0
  -18.9660    5.3500  -31.5890 C   0  0  0  0  0  0  0  0  0  0  0  0
  -18.3580    4.5880  -32.7550 C   0  0  0  0  0  0  0  0  0  0  0  0
  -21.0290    0.5050  -36.4290 N   0  0  0  0  0  0  0  0  0  0  0  0
  -22.4730    0.4770  -36.4030 C   0  0  0  0  0  0  0  0  0  0  0  0
  -22.8190   -0.9560  -36.8020 C   0  0  0  0  0  0  0  0  0  0  0  0
  -22.4770   -1.1480  -38.0890 O   0  0  0  0  0  0  0  0  0  0  0  0
  -21.2820   -0.7440  -38.5380 C   0  0  0  0  0  0  0  0  0  0  0  0
  -20.4160    0.0720  -37.6630 C   0  0  0  0  0  0  0  0  0  0  0  0
  -20.3990   -4.8390  -28.2970 B   0  0  0  0  0  0  0  0  0  0  0  0
  -19.4390   -2.9490  -30.4460 H   0  0  0  0  0  0  0  0  0  0  0  0
  -18.4860    0.5750  -28.3250 H   0  0  0  0  0  0  0  0  0  0  0  0
  -19.1680   -0.5290  -26.1780 H   0  0  0  0  0  0  0  0  0  0  0  0
  -18.4710    0.6030  -30.7840 H   0  0  0  0  0  0  0  0  0  0  0  0
  -16.9670   -0.9120  -33.4610 H   0  0  0  0  0  0  0  0  0  0  0  0
  -20.7550    4.8560  -34.8590 H   0  0  0  0  0  0  0  0  0  0  0  0
  -21.4580    4.3110  -33.2340 H   0  0  0  0  0  0  0  0  0  0  0  0
  -21.3880    6.6710  -33.2710 H   0  0  0  0  0  0  0  0  0  0  0  0
  -19.7590    6.7470  -33.9660 H   0  0  0  0  0  0  0  0  0  0  0  0
  -19.4540    4.5760  -30.9450 H   0  0  0  0  0  0  0  0  0  0  0  0
  -18.1810    5.8830  -31.0050 H   0  0  0  0  0  0  0  0  0  0  0  0
  -17.9180    5.3570  -33.4260 H   0  0  0  0  0  0  0  0  0  0  0  0
  -17.6270    3.8740  -32.3700 H   0  0  0  0  0  0  0  0  0  0  0  0
  -22.8220    1.1130  -37.2420 H   0  0  0  0  0  0  0  0  0  0  0  0
  -22.9050    0.7480  -35.4310 H   0  0  0  0  0  0  0  0  0  0  0  0
  -22.2900   -1.6250  -36.0990 H   0  0  0  0  0  0  0  0  0  0  0  0
  -23.9300   -1.1140  -36.6990 H   0  0  0  0  0  0  0  0  0  0  0  0
  -21.4410   -0.1760  -39.5040 H   0  0  0  0  0  0  0  0  0  0  0  0
  -20.7040   -1.6560  -38.8820 H   0  0  0  0  0  0  0  0  0  0  0  0
  -20.0780    1.0240  -38.1740 H   0  0  0  0  0  0  0  0  0  0  0  0
  -19.4410   -0.4610  -37.4540 H   0  0  0  0  0  0  0  0  0  0  0  0
  2  1  1  0  0  0  0
  3 29  1  0  0  0  0
  3  2  2  0  0  0  0
  4  3  1  0  0  0  0
  5  4  2  0  0  0  0
  5  6  1  0  0  0  0
  6  7  2  0  0  0  0
  7  2  1  0  0  0  0
  7 32  1  0  0  0  0
  8  5  1  0  0  0  0
  9  8  2  0  0  0  0
 10  9  1  0  0  0  0
 11 16  1  0  0  0  0
 11 10  1  0  0  0  0
 12 11  2  0  0  0  0
 13 14  1  0  0  0  0
 13 12  2  0  0  0  0
 14 15  2  0  0  0  0
 15 17  1  0  0  0  0
 15 16  1  0  0  0  0
 17 22  1  0  0  0  0
 18 17  1  0  0  0  0
 18 19  1  0  0  0  0
 18 36  1  0  0  0  0
 19 20  1  0  0  0  0
 20 21  1  0  0  0  0
 21 40  1  0  0  0  0
 21 39  1  0  0  0  0
 22 42  1  0  0  0  0
 22 21  1  0  0  0  0
 23 24  1  0  0  0  0
 23 13  1  0  0  0  0
 24 44  1  0  0  0  0
 25 46  1  0  0  0  0
 25 24  1  0  0  0  0
 25 45  1  0  0  0  0
 26 25  1  0  0  0  0
 27 26  1  0  0  0  0
 27 28  1  0  0  0  0
 28 50  1  0  0  0  0
 28 23  1  0  0  0  0
 30  4  1  0  0  0  0
 31  6  1  0  0  0  0
 33  8  1  0  0  0  0
 34 10  1  0  0  0  0
 35 18  1  0  0  0  0
 37 19  1  0  0  0  0
 38 19  1  0  0  0  0
 41 22  1  0  0  0  0
 43 24  1  0  0  0  0
 47 27  1  0  0  0  0
 48 27  1  0  0  0  0
 49 28  1  0  0  0  0
M  END
>  <Pose>
1

>  <Score>
-6.90

$$$$
