
 OpenBabel03222201593D

 41 44  0  0  0  0  0  0  0  0999 V2000
  -17.6660    0.6820  -23.7440 F   0  0  0  0  0  0  0  0  0  0  0  0
  -17.9090    0.8540  -25.0760 C   0  0  0  0  0  0  0  0  0  0  0  0
  -18.0520   -0.2890  -25.8770 C   0  0  0  0  0  0  0  0  0  0  0  0
  -18.2950   -0.0650  -27.2090 C   0  0  0  0  0  0  0  0  0  0  0  0
  -18.3890    1.2240  -27.7070 C   0  0  0  0  0  0  0  0  0  0  0  0
  -18.2480    2.3320  -26.9250 C   0  0  0  0  0  0  0  0  0  0  0  0
  -18.0040    2.1230  -25.5870 C   0  0  0  0  0  0  0  0  0  0  0  0
  -17.9430   -1.5780  -25.2820 N   0  0  0  0  0  0  0  0  0  0  0  0
  -18.6140   -2.7450  -25.6360 C   0  0  0  0  0  0  0  0  0  0  0  0
  -18.0870   -3.8670  -25.5610 O   0  0  0  0  0  0  0  0  0  0  0  0
  -20.0200   -2.7110  -26.1280 C   0  0  0  0  0  0  0  0  0  0  0  0
  -20.2060   -3.7380  -27.1370 N   0  0  0  0  0  0  0  0  0  0  0  0
  -20.3090   -5.0390  -26.9790 N   0  0  0  0  0  0  0  0  0  0  0  0
  -20.4730   -5.6340  -28.1520 N   0  0  0  0  0  0  0  0  0  0  0  0
  -20.4770   -4.6800  -29.1080 C   0  0  0  0  0  0  0  0  0  0  0  0
  -20.3140   -3.5350  -28.4780 C   0  0  0  0  0  0  0  0  0  0  0  0
  -20.3190   -2.5540  -29.4570 C   0  0  0  0  0  0  0  0  0  0  0  0
  -20.1870   -1.3320  -29.2290 O   0  0  0  0  0  0  0  0  0  0  0  0
  -20.4820   -3.0940  -30.6780 N   0  0  0  0  0  0  0  0  0  0  0  0
  -20.5810   -4.4190  -30.4620 C   0  0  0  0  0  0  0  0  0  0  0  0
  -20.7420   -5.2920  -31.3420 O   0  0  0  0  0  0  0  0  0  0  0  0
  -20.5360   -2.3940  -31.9210 C   0  0  0  0  0  0  0  0  0  0  0  0
  -21.4690   -2.7210  -32.8860 C   0  0  0  0  0  0  0  0  0  0  0  0
  -21.5350   -2.0540  -34.0930 C   0  0  0  0  0  0  0  0  0  0  0  0
  -20.6640   -1.0260  -34.3860 C   0  0  0  0  0  0  0  0  0  0  0  0
  -19.7240   -0.6820  -33.4370 C   0  0  0  0  0  0  0  0  0  0  0  0
  -19.6740   -1.3620  -32.2360 C   0  0  0  0  0  0  0  0  0  0  0  0
  -20.7320   -0.0840  -36.0500 B   0  0  0  0  0  0  0  0  0  0  0  0
  -18.4180   -0.8810  -27.8860 H   0  0  0  0  0  0  0  0  0  0  0  0
  -18.5820    1.3880  -28.7720 H   0  0  0  0  0  0  0  0  0  0  0  0
  -18.3290    3.3170  -27.3630 H   0  0  0  0  0  0  0  0  0  0  0  0
  -17.8920    3.0130  -24.9670 H   0  0  0  0  0  0  0  0  0  0  0  0
  -17.2590   -1.6700  -24.4600 H   0  0  0  0  0  0  0  0  0  0  0  0
  -20.1810   -1.7090  -26.6090 H   0  0  0  0  0  0  0  0  0  0  0  0
  -20.7390   -2.8180  -25.2950 H   0  0  0  0  0  0  0  0  0  0  0  0
  -20.2620   -5.5120  -26.0390 H   0  0  0  0  0  0  0  0  0  0  0  0
  -20.5800   -6.6650  -28.3130 H   0  0  0  0  0  0  0  0  0  0  0  0
  -22.1550   -3.5380  -32.6430 H   0  0  0  0  0  0  0  0  0  0  0  0
  -22.2680   -2.3200  -34.8350 H   0  0  0  0  0  0  0  0  0  0  0  0
  -19.0330    0.1360  -33.6750 H   0  0  0  0  0  0  0  0  0  0  0  0
  -18.9410   -1.0990  -31.4890 H   0  0  0  0  0  0  0  0  0  0  0  0
  2  1  1  0  0  0  0
  3  8  1  0  0  0  0
  3  2  2  0  0  0  0
  4  3  1  0  0  0  0
  5  4  2  0  0  0  0
  5  6  1  0  0  0  0
  6  7  2  0  0  0  0
  7  2  1  0  0  0  0
  7 32  1  0  0  0  0
  8 33  1  0  0  0  0
  9 10  2  0  0  0  0
  9  8  1  0  0  0  0
 11  9  1  0  0  0  0
 11 35  1  0  0  0  0
 12 13  1  0  0  0  0
 12 11  1  0  0  0  0
 13 36  1  0  0  0  0
 14 13  1  0  0  0  0
 15 16  2  0  0  0  0
 15 14  1  0  0  0  0
 16 12  1  0  0  0  0
 17 18  2  0  0  0  0
 17 16  1  0  0  0  0
 19 20  1  0  0  0  0
 19 17  1  0  0  0  0
 20 15  1  0  0  0  0
 21 20  2  0  0  0  0
 22 19  1  0  0  0  0
 23 38  1  0  0  0  0
 23 22  2  0  0  0  0
 24 23  1  0  0  0  0
 25 24  2  0  0  0  0
 25 26  1  0  0  0  0
 26 27  2  0  0  0  0
 27 22  1  0  0  0  0
 27 41  1  0  0  0  0
 28 25  1  0  0  0  0
 29  4  1  0  0  0  0
 30  5  1  0  0  0  0
 31  6  1  0  0  0  0
 34 11  1  0  0  0  0
 37 14  1  0  0  0  0
 39 24  1  0  0  0  0
 40 26  1  0  0  0  0
M  END
>  <Pose>
1

>  <Score>
-8.67

$$$$
