
 OpenBabel03222201593D

 41 44  0  0  0  0  0  0  0  0999 V2000
  -21.0420   -0.7580  -36.1070 F   0  0  0  0  0  0  0  0  0  0  0  0
  -20.9360   -1.3480  -34.8790 C   0  0  0  0  0  0  0  0  0  0  0  0
  -19.8600   -1.0710  -34.0830 C   0  0  0  0  0  0  0  0  0  0  0  0
  -19.7430   -1.6680  -32.8250 C   0  0  0  0  0  0  0  0  0  0  0  0
  -20.6910   -2.5440  -32.3470 C   0  0  0  0  0  0  0  0  0  0  0  0
  -21.7690   -2.8030  -33.1790 C   0  0  0  0  0  0  0  0  0  0  0  0
  -21.8950   -2.2210  -34.4210 C   0  0  0  0  0  0  0  0  0  0  0  0
  -20.6260   -3.1760  -31.0700 N   0  0  0  0  0  0  0  0  0  0  0  0
  -20.3870   -2.6200  -29.8700 C   0  0  0  0  0  0  0  0  0  0  0  0
  -20.1860   -1.3820  -29.7470 O   0  0  0  0  0  0  0  0  0  0  0  0
  -20.3940   -3.5540  -28.8510 C   0  0  0  0  0  0  0  0  0  0  0  0
  -20.6450   -4.7130  -29.4540 C   0  0  0  0  0  0  0  0  0  0  0  0
  -20.6580   -5.6500  -28.5010 N   0  0  0  0  0  0  0  0  0  0  0  0
  -20.4180   -5.0690  -27.3410 N   0  0  0  0  0  0  0  0  0  0  0  0
  -20.2480   -3.7630  -27.5190 N   0  0  0  0  0  0  0  0  0  0  0  0
  -19.9720   -2.7420  -26.5500 C   0  0  0  0  0  0  0  0  0  0  0  0
  -18.9030   -3.0490  -25.5940 C   0  0  0  0  0  0  0  0  0  0  0  0
  -18.6920   -4.2430  -25.3350 O   0  0  0  0  0  0  0  0  0  0  0  0
  -18.1580   -2.0230  -25.0050 N   0  0  0  0  0  0  0  0  0  0  0  0
  -17.9580   -0.6950  -25.4490 C   0  0  0  0  0  0  0  0  0  0  0  0
  -18.0380    0.3800  -24.5960 C   0  0  0  0  0  0  0  0  0  0  0  0
  -17.8480    1.7050  -24.9990 C   0  0  0  0  0  0  0  0  0  0  0  0
  -17.5680    1.9070  -26.3270 C   0  0  0  0  0  0  0  0  0  0  0  0
  -17.4830    0.8520  -27.2000 C   0  0  0  0  0  0  0  0  0  0  0  0
  -17.6740   -0.4390  -26.7800 C   0  0  0  0  0  0  0  0  0  0  0  0
  -17.2940    3.7100  -26.9520 B   0  0  0  0  0  0  0  0  0  0  0  0
  -20.7890   -4.4980  -30.8080 C   0  0  0  0  0  0  0  0  0  0  0  0
  -21.0330   -5.3330  -31.7240 O   0  0  0  0  0  0  0  0  0  0  0  0
  -19.1150   -0.3840  -34.4540 H   0  0  0  0  0  0  0  0  0  0  0  0
  -18.8960   -1.4400  -32.2160 H   0  0  0  0  0  0  0  0  0  0  0  0
  -22.5220   -3.5030  -32.7950 H   0  0  0  0  0  0  0  0  0  0  0  0
  -22.7410   -2.4340  -35.0550 H   0  0  0  0  0  0  0  0  0  0  0  0
  -20.8350   -6.6750  -28.6890 H   0  0  0  0  0  0  0  0  0  0  0  0
  -20.3660   -5.5370  -26.4250 H   0  0  0  0  0  0  0  0  0  0  0  0
  -20.9180   -2.5890  -25.9480 H   0  0  0  0  0  0  0  0  0  0  0  0
  -19.8170   -1.7380  -27.0400 H   0  0  0  0  0  0  0  0  0  0  0  0
  -17.6460   -2.2400  -24.0750 H   0  0  0  0  0  0  0  0  0  0  0  0
  -18.2540    0.2900  -23.5360 H   0  0  0  0  0  0  0  0  0  0  0  0
  -17.9170    2.5340  -24.3060 H   0  0  0  0  0  0  0  0  0  0  0  0
  -17.2600    1.0270  -28.2520 H   0  0  0  0  0  0  0  0  0  0  0  0
  -17.5990   -1.2760  -27.5050 H   0  0  0  0  0  0  0  0  0  0  0  0
  1  2  1  0  0  0  0
  2  7  2  0  0  0  0
  2  3  1  0  0  0  0
  3  4  2  0  0  0  0
  4  5  1  0  0  0  0
  4 30  1  0  0  0  0
  5  8  1  0  0  0  0
  6 31  1  0  0  0  0
  6  5  2  0  0  0  0
  7  6  1  0  0  0  0
  8 27  1  0  0  0  0
  8  9  1  0  0  0  0
  9 10  2  0  0  0  0
  9 11  1  0  0  0  0
 11 15  1  0  0  0  0
 12 11  2  0  0  0  0
 12 13  1  0  0  0  0
 13 14  1  0  0  0  0
 14 34  1  0  0  0  0
 15 14  1  0  0  0  0
 15 16  1  0  0  0  0
 16 35  1  0  0  0  0
 16 17  1  0  0  0  0
 17 18  2  0  0  0  0
 17 19  1  0  0  0  0
 19 37  1  0  0  0  0
 20 19  1  0  0  0  0
 20 21  1  0  0  0  0
 21 38  1  0  0  0  0
 22 21  2  0  0  0  0
 22 39  1  0  0  0  0
 23 22  1  0  0  0  0
 24 25  1  0  0  0  0
 24 23  2  0  0  0  0
 25 20  2  0  0  0  0
 26 23  1  0  0  0  0
 27 12  1  0  0  0  0
 28 27  2  0  0  0  0
 29  3  1  0  0  0  0
 32  7  1  0  0  0  0
 33 13  1  0  0  0  0
 36 16  1  0  0  0  0
 40 24  1  0  0  0  0
 41 25  1  0  0  0  0
M  END
>  <Pose>
1

>  <Score>
-9.26

$$$$
