
 OpenBabel03222201593D

 34 37  0  0  0  0  0  0  0  0999 V2000
  -20.5020   -3.9670  -28.8950 I   0  0  0  0  0  0  0  0  0  0  0  0
  -19.4700   -2.6840  -27.5660 C   0  0  0  0  0  0  0  0  0  0  0  0
  -18.7430   -1.6490  -28.1200 C   0  0  0  0  0  0  0  0  0  0  0  0
  -18.0770   -0.8240  -27.2370 C   0  0  0  0  0  0  0  0  0  0  0  0
  -18.1400   -1.0300  -25.8700 C   0  0  0  0  0  0  0  0  0  0  0  0
  -18.8690   -2.0670  -25.3270 C   0  0  0  0  0  0  0  0  0  0  0  0
  -19.5380   -2.8970  -26.2030 C   0  0  0  0  0  0  0  0  0  0  0  0
  -18.6870   -1.4480  -29.5330 N   0  0  0  0  0  0  0  0  0  0  0  0
  -19.7000   -1.2500  -30.3960 C   0  0  0  0  0  0  0  0  0  0  0  0
  -20.9280   -1.2060  -30.0840 O   0  0  0  0  0  0  0  0  0  0  0  0
  -19.2380   -1.0960  -31.6870 C   0  0  0  0  0  0  0  0  0  0  0  0
  -17.9220   -1.2020  -31.6080 C   0  0  0  0  0  0  0  0  0  0  0  0
  -17.4840   -1.0490  -32.8800 N   0  0  0  0  0  0  0  0  0  0  0  0
  -18.5000   -0.8560  -33.7000 N   0  0  0  0  0  0  0  0  0  0  0  0
  -19.5950   -0.8810  -32.9840 N   0  0  0  0  0  0  0  0  0  0  0  0
  -20.9380   -0.7200  -33.4210 C   0  0  0  0  0  0  0  0  0  0  0  0
  -21.6670   -1.7640  -33.9440 C   0  0  0  0  0  0  0  0  0  0  0  0
  -22.9750   -1.5750  -34.3610 C   0  0  0  0  0  0  0  0  0  0  0  0
  -23.5980   -0.3470  -34.2710 C   0  0  0  0  0  0  0  0  0  0  0  0
  -22.8690    0.6990  -33.7460 C   0  0  0  0  0  0  0  0  0  0  0  0
  -21.5720    0.5200  -33.3310 C   0  0  0  0  0  0  0  0  0  0  0  0
  -17.5720   -1.4190  -30.2850 C   0  0  0  0  0  0  0  0  0  0  0  0
  -16.3760   -1.5660  -29.8710 O   0  0  0  0  0  0  0  0  0  0  0  0
  -17.5060   -0.0120  -27.6650 H   0  0  0  0  0  0  0  0  0  0  0  0
  -17.6100   -0.3720  -25.1970 H   0  0  0  0  0  0  0  0  0  0  0  0
  -18.8980   -2.2010  -24.2540 H   0  0  0  0  0  0  0  0  0  0  0  0
  -20.1140   -3.7160  -25.7680 H   0  0  0  0  0  0  0  0  0  0  0  0
  -16.4900   -1.0750  -33.1910 H   0  0  0  0  0  0  0  0  0  0  0  0
  -18.4440   -0.7110  -34.7290 H   0  0  0  0  0  0  0  0  0  0  0  0
  -21.2030   -2.7390  -34.0260 H   0  0  0  0  0  0  0  0  0  0  0  0
  -23.5160   -2.4170  -34.7660 H   0  0  0  0  0  0  0  0  0  0  0  0
  -24.6260   -0.2350  -34.6070 H   0  0  0  0  0  0  0  0  0  0  0  0
  -23.3630    1.6650  -33.6760 H   0  0  0  0  0  0  0  0  0  0  0  0
  -20.9860    1.3180  -32.9210 H   0  0  0  0  0  0  0  0  0  0  0  0
  1  2  1  0  0  0  0
  2  7  1  0  0  0  0
  3  2  2  0  0  0  0
  3  4  1  0  0  0  0
  4  5  2  0  0  0  0
  5  6  1  0  0  0  0
  5 25  1  0  0  0  0
  6 26  1  0  0  0  0
  7 27  1  0  0  0  0
  7  6  2  0  0  0  0
  8  3  1  0  0  0  0
  9 10  2  0  0  0  0
  9  8  1  0  0  0  0
 11 12  2  0  0  0  0
 11  9  1  0  0  0  0
 12 22  1  0  0  0  0
 13 12  1  0  0  0  0
 14 15  1  0  0  0  0
 14 13  1  0  0  0  0
 15 11  1  0  0  0  0
 16 21  1  0  0  0  0
 16 15  1  0  0  0  0
 17 16  2  0  0  0  0
 18 19  2  0  0  0  0
 18 17  1  0  0  0  0
 19 20  1  0  0  0  0
 20 33  1  0  0  0  0
 20 21  2  0  0  0  0
 21 34  1  0  0  0  0
 22 23  2  0  0  0  0
 22  8  1  0  0  0  0
 24  4  1  0  0  0  0
 28 13  1  0  0  0  0
 29 14  1  0  0  0  0
 30 17  1  0  0  0  0
 31 18  1  0  0  0  0
 32 19  1  0  0  0  0
M  END
>  <Pose>
1

>  <Score>
-6.60

$$$$
