
 OpenBabel03222201593D

 40 43  0  0  0  0  0  0  0  0999 V2000
  -20.3680   -3.9480  -29.2120 I   0  0  0  0  0  0  0  0  0  0  0  0
  -19.6130   -3.3560  -27.3130 C   0  0  0  0  0  0  0  0  0  0  0  0
  -18.9820   -2.1670  -27.0160 C   0  0  0  0  0  0  0  0  0  0  0  0
  -18.6640   -2.1990  -25.7200 N   0  0  0  0  0  0  0  0  0  0  0  0
  -19.0770   -3.3570  -25.2180 N   0  0  0  0  0  0  0  0  0  0  0  0
  -19.6630   -4.0960  -26.1570 C   0  0  0  0  0  0  0  0  0  0  0  0
  -17.9340   -1.1920  -24.9270 C   0  0  0  0  0  0  0  0  0  0  0  0
  -18.6760   -1.0940  -28.0010 C   0  0  0  0  0  0  0  0  0  0  0  0
  -17.6320   -0.4250  -27.6150 O   0  0  0  0  0  0  0  0  0  0  0  0
  -19.3530   -0.8390  -29.1200 N   0  0  0  0  0  0  0  0  0  0  0  0
  -20.0540   -0.5760  -30.2780 C   0  0  0  0  0  0  0  0  0  0  0  0
  -19.3030   -0.6970  -31.4700 C   0  0  0  0  0  0  0  0  0  0  0  0
  -18.0160   -0.9520  -31.6740 N   0  0  0  0  0  0  0  0  0  0  0  0
  -17.7990   -0.9580  -32.9540 O   0  0  0  0  0  0  0  0  0  0  0  0
  -18.8860   -0.7180  -33.5940 N   0  0  0  0  0  0  0  0  0  0  0  0
  -19.8640   -0.5460  -32.6960 C   0  0  0  0  0  0  0  0  0  0  0  0
  -21.2090   -0.2660  -32.8030 C   0  0  0  0  0  0  0  0  0  0  0  0
  -21.9650   -0.1400  -31.6660 C   0  0  0  0  0  0  0  0  0  0  0  0
  -21.4060   -0.2920  -30.4120 C   0  0  0  0  0  0  0  0  0  0  0  0
  -21.7490   -0.1100  -34.0880 N   0  0  0  0  0  0  0  0  0  0  0  0
  -22.5740    1.0390  -34.4650 C   0  0  0  0  0  0  0  0  0  0  0  0
  -23.9230    0.4430  -34.8120 C   0  0  0  0  0  0  0  0  0  0  0  0
  -23.9630   -0.9390  -34.7140 O   0  0  0  0  0  0  0  0  0  0  0  0
  -22.9850   -1.6070  -35.4200 C   0  0  0  0  0  0  0  0  0  0  0  0
  -21.6050   -1.0080  -35.2100 C   0  0  0  0  0  0  0  0  0  0  0  0
  -20.1040   -5.0890  -26.0600 H   0  0  0  0  0  0  0  0  0  0  0  0
  -18.5610   -0.8450  -24.0940 H   0  0  0  0  0  0  0  0  0  0  0  0
  -17.6010   -0.3520  -25.5430 H   0  0  0  0  0  0  0  0  0  0  0  0
  -17.0240   -1.7090  -24.4980 H   0  0  0  0  0  0  0  0  0  0  0  0
  -20.5330   -0.9280  -28.4460 H   0  0  0  0  0  0  0  0  0  0  0  0
  -23.0070    0.0860  -31.7350 H   0  0  0  0  0  0  0  0  0  0  0  0
  -22.0670   -0.1900  -29.5680 H   0  0  0  0  0  0  0  0  0  0  0  0
  -22.6120    1.8500  -33.7730 H   0  0  0  0  0  0  0  0  0  0  0  0
  -22.1620    1.4620  -35.4300 H   0  0  0  0  0  0  0  0  0  0  0  0
  -24.3110    0.8420  -35.7710 H   0  0  0  0  0  0  0  0  0  0  0  0
  -24.6420    0.8120  -34.0210 H   0  0  0  0  0  0  0  0  0  0  0  0
  -22.9420   -2.6410  -34.9820 H   0  0  0  0  0  0  0  0  0  0  0  0
  -23.2100   -1.7190  -36.4910 H   0  0  0  0  0  0  0  0  0  0  0  0
  -21.3900   -0.3690  -36.1310 H   0  0  0  0  0  0  0  0  0  0  0  0
  -20.7950   -1.7160  -35.1800 H   0  0  0  0  0  0  0  0  0  0  0  0
  1  2  1  0  0  0  0
  2  3  2  0  0  0  0
  2  6  1  0  0  0  0
  3  4  1  0  0  0  0
  4  5  1  0  0  0  0
  4  7  1  0  0  0  0
  6 26  1  0  0  0  0
  6  5  2  0  0  0  0
  7 29  1  0  0  0  0
  7 27  1  0  0  0  0
  8  9  2  0  0  0  0
  8  3  1  0  0  0  0
 10 30  1  0  0  0  0
 10  8  1  0  0  0  0
 11 10  1  0  0  0  0
 12 11  1  0  0  0  0
 13 12  2  0  0  0  0
 14 13  1  0  0  0  0
 15 14  1  0  0  0  0
 15 16  2  0  0  0  0
 16 12  1  0  0  0  0
 17 16  1  0  0  0  0
 17 18  2  0  0  0  0
 18 19  1  0  0  0  0
 19 11  2  0  0  0  0
 19 32  1  0  0  0  0
 20 17  1  0  0  0  0
 21 20  1  0  0  0  0
 21 33  1  0  0  0  0
 22 23  1  0  0  0  0
 22 21  1  0  0  0  0
 22 36  1  0  0  0  0
 24 25  1  0  0  0  0
 24 37  1  0  0  0  0
 24 23  1  0  0  0  0
 25 40  1  0  0  0  0
 25 20  1  0  0  0  0
 28  7  1  0  0  0  0
 31 18  1  0  0  0  0
 34 21  1  0  0  0  0
 35 22  1  0  0  0  0
 38 24  1  0  0  0  0
 39 25  1  0  0  0  0
M  END
>  <Pose>
1

>  <Score>
-5.98

$$$$
