
 OpenBabel03222201593D

 40 43  0  0  1  0  0  0  0  0999 V2000
  -24.6520    1.1010  -38.5530 I   0  0  0  0  0  0  0  0  0  0  0  0
  -23.8670    0.0100  -36.9640 C   0  0  0  0  0  0  0  0  0  0  0  0
  -23.6660    0.5170  -35.6950 C   0  0  0  0  0  0  0  0  0  0  0  0
  -23.1490   -0.2290  -34.6700 C   0  0  0  0  0  0  0  0  0  0  0  0
  -22.7980   -1.5320  -34.8520 C   0  0  0  0  0  0  0  0  0  0  0  0
  -22.9930   -2.0620  -36.1270 C   0  0  0  0  0  0  0  0  0  0  0  0
  -23.5050   -1.3260  -37.1420 C   0  0  0  0  0  0  0  0  0  0  0  0
  -22.2680   -2.3490  -33.7950 C   0  0  1  0  0  0  0  0  0  0  0  0
  -23.1780   -3.0060  -33.1270 O   0  0  0  0  0  0  0  0  0  0  0  0
  -20.9350   -2.6000  -33.3140 C   0  0  0  0  0  0  0  0  0  0  0  0
  -20.4490   -2.0120  -32.1220 N   0  0  0  0  0  0  0  0  0  0  0  0
  -20.3430   -2.6080  -30.9750 C   0  0  1  0  0  0  0  0  0  0  0  0
  -20.6470   -4.2030  -30.1980 S   0  0  0  0  0  0  0  0  0  0  0  0
  -20.0710   -3.6700  -28.6030 C   0  0  0  0  0  0  0  0  0  0  0  0
  -19.6950   -2.4140  -28.6850 C   0  0  0  0  0  0  0  0  0  0  0  0
  -19.8260   -1.8040  -29.9570 N   0  0  0  0  0  0  0  0  0  0  0  0
  -19.5580   -0.4800  -30.5740 C   0  0  0  0  0  0  0  0  0  0  0  0
  -20.0350   -0.6440  -31.9740 C   0  0  0  0  0  0  0  0  0  0  0  0
  -19.1790   -1.7570  -27.4480 C   0  0  0  0  0  0  0  0  0  0  0  0
  -18.8790   -0.4210  -27.3980 C   0  0  0  0  0  0  0  0  0  0  0  0
  -18.4010    0.1960  -26.2250 C   0  0  0  0  0  0  0  0  0  0  0  0
  -18.2210   -0.5430  -25.0790 C   0  0  0  0  0  0  0  0  0  0  0  0
  -18.5200   -1.8820  -25.1230 C   0  0  0  0  0  0  0  0  0  0  0  0
  -18.9910   -2.4820  -26.2840 C   0  0  0  0  0  0  0  0  0  0  0  0
  -23.9470    1.5660  -35.5420 H   0  0  0  0  0  0  0  0  0  0  0  0
  -23.0240    0.2600  -33.7380 H   0  0  0  0  0  0  0  0  0  0  0  0
  -22.7250   -3.0840  -36.2930 H   0  0  0  0  0  0  0  0  0  0  0  0
  -23.6640   -1.7330  -38.1550 H   0  0  0  0  0  0  0  0  0  0  0  0
  -20.7270   -3.7280  -33.2170 H   0  0  0  0  0  0  0  0  0  0  0  0
  -20.2310   -2.3440  -34.1770 H   0  0  0  0  0  0  0  0  0  0  0  0
  -20.0780   -4.3680  -27.7670 H   0  0  0  0  0  0  0  0  0  0  0  0
  -18.4850   -0.2400  -30.5840 H   0  0  0  0  0  0  0  0  0  0  0  0
  -20.1790    0.3160  -30.1110 H   0  0  0  0  0  0  0  0  0  0  0  0
  -19.2150   -0.3790  -32.6740 H   0  0  0  0  0  0  0  0  0  0  0  0
  -20.9110    0.0330  -32.2060 H   0  0  0  0  0  0  0  0  0  0  0  0
  -19.0090    0.1760  -28.2800 H   0  0  0  0  0  0  0  0  0  0  0  0
  -18.1880    1.2320  -26.2490 H   0  0  0  0  0  0  0  0  0  0  0  0
  -17.8600   -0.1290  -24.1520 H   0  0  0  0  0  0  0  0  0  0  0  0
  -18.3840   -2.4720  -24.2340 H   0  0  0  0  0  0  0  0  0  0  0  0
  -19.2080   -3.5460  -26.2470 H   0  0  0  0  0  0  0  0  0  0  0  0
  1  2  1  0  0  0  0
  2  3  1  0  0  0  0
  3 25  1  0  0  0  0
  3  4  2  0  0  0  0
  4 26  1  0  0  0  0
  5  4  1  0  0  0  0
  5  8  1  0  0  0  0
  6  5  2  0  0  0  0
  7  2  2  0  0  0  0
  7  6  1  0  0  0  0
  8 10  1  0  0  0  0
  8  9  1  6  0  0  0
 10 29  1  0  0  0  0
 10 11  1  0  0  0  0
 11 18  1  0  0  0  0
 11 12  1  0  0  0  0
 12 13  1  6  0  0  0
 12 16  1  0  0  0  0
 13 14  1  0  0  0  0
 14 31  1  0  0  0  0
 15 14  2  0  0  0  0
 15 19  1  0  0  0  0
 16 15  1  0  0  0  0
 17 33  1  0  0  0  0
 17 16  1  0  0  0  0
 18 17  1  0  0  0  0
 19 20  2  0  0  0  0
 19 24  1  0  0  0  0
 20 21  1  0  0  0  0
 21 22  2  0  0  0  0
 22 38  1  0  0  0  0
 23 22  1  0  0  0  0
 23 39  1  0  0  0  0
 24 40  1  0  0  0  0
 24 23  2  0  0  0  0
 27  6  1  0  0  0  0
 28  7  1  0  0  0  0
 30 10  1  0  0  0  0
 32 17  1  0  0  0  0
 34 18  1  0  0  0  0
 35 18  1  0  0  0  0
 36 20  1  0  0  0  0
 37 21  1  0  0  0  0
M  END
>  <Pose>
1

>  <Score>
-6.73

$$$$
