
 OpenBabel03222201593D

 52 56  0  0  1  0  0  0  0  0999 V2000
  -19.3870   -2.8050  -26.3760 I   0  0  0  0  0  0  0  0  0  0  0  0
  -19.7160   -2.3480  -28.3980 C   0  0  0  0  0  0  0  0  0  0  0  0
  -19.5590   -1.0420  -28.8500 C   0  0  0  0  0  0  0  0  0  0  0  0
  -19.7710   -0.7360  -30.1620 C   0  0  0  0  0  0  0  0  0  0  0  0
  -20.1480   -1.6850  -31.0990 C   0  0  0  0  0  0  0  0  0  0  0  0
  -20.3070   -2.9930  -30.6530 C   0  0  0  0  0  0  0  0  0  0  0  0
  -20.0910   -3.2920  -29.3250 C   0  0  0  0  0  0  0  0  0  0  0  0
  -20.3680   -1.3640  -32.4640 N   0  0  0  0  0  0  0  0  0  0  0  0
  -21.5940   -1.0630  -32.9250 C   0  0  0  0  0  0  0  0  0  0  0  0
  -21.8310   -0.7470  -34.2450 C   0  0  2  0  0  0  0  0  0  0  0  0
  -20.7280   -0.7590  -35.0760 C   0  0  0  0  0  0  0  0  0  0  0  0
  -20.7780   -0.4910  -36.3150 O   0  0  0  0  0  0  0  0  0  0  0  0
  -19.4740   -1.0630  -34.6190 N   0  0  0  0  0  0  0  0  0  0  0  0
  -19.3300   -1.3590  -33.3150 C   0  0  0  0  0  0  0  0  0  0  0  0
  -18.1970   -1.6440  -32.8490 O   0  0  0  0  0  0  0  0  0  0  0  0
  -23.1200   -0.3970  -34.8140 C   0  0  1  0  0  0  0  0  0  0  0  0
  -24.0730    0.2260  -33.9510 N   0  0  0  0  0  4  0  0  0  0  0  0
  -23.6830    1.5210  -33.4630 C   0  0  0  0  0  0  0  0  0  0  0  0
  -22.4520    2.0750  -34.1500 C   0  0  0  0  0  0  0  0  0  0  0  0
  -22.5910    1.8420  -35.6360 C   0  0  0  0  0  0  0  0  0  0  0  0
  -22.9580    0.5620  -35.9650 C   0  0  0  0  0  0  0  0  0  0  0  0
  -23.1550    0.2090  -37.2780 C   0  0  0  0  0  0  0  0  0  0  0  0
  -22.9670    1.1950  -38.2370 C   0  0  0  0  0  0  0  0  0  0  0  0
  -22.5970    2.4860  -37.9220 C   0  0  0  0  0  0  0  0  0  0  0  0
  -22.4080    2.8010  -36.5770 C   0  0  0  0  0  0  0  0  0  0  0  0
  -22.4950    3.2120  -39.0980 O   0  0  0  0  0  0  0  0  0  0  0  0
  -22.4370    2.3000  -40.2060 C   0  0  0  0  0  0  0  0  0  0  0  0
  -23.0830    1.1770  -39.6350 O   0  0  0  0  0  0  0  0  0  0  0  0
  -23.5220   -1.0680  -37.5960 O   0  0  0  0  0  0  0  0  0  0  0  0
  -22.9340   -1.9020  -38.5430 C   0  0  0  0  0  0  0  0  0  0  0  0
  -25.2580    0.4840  -34.8110 C   0  0  0  0  0  0  0  0  0  0  0  0
  -22.6650   -1.0660  -32.0680 O   0  0  0  0  0  0  0  0  0  0  0  0
  -19.2660   -0.2970  -28.1290 H   0  0  0  0  0  0  0  0  0  0  0  0
  -19.6470    0.2820  -30.5060 H   0  0  0  0  0  0  0  0  0  0  0  0
  -20.6030   -3.7350  -31.3920 H   0  0  0  0  0  0  0  0  0  0  0  0
  -20.2130   -4.2990  -28.9820 H   0  0  0  0  0  0  0  0  0  0  0  0
  -18.6490   -1.0690  -35.2460 H   0  0  0  0  0  0  0  0  0  0  0  0
  -23.5650   -1.3090  -35.2470 H   0  0  0  0  0  0  0  0  0  0  0  0
  -24.4870   -0.3670  -33.2130 H   0  0  0  0  0  0  0  0  0  0  0  0
  -23.4790    1.5010  -32.3820 H   0  0  0  0  0  0  0  0  0  0  0  0
  -24.4790    2.3050  -33.5990 H   0  0  0  0  0  0  0  0  0  0  0  0
  -21.5000    1.7060  -33.7510 H   0  0  0  0  0  0  0  0  0  0  0  0
  -22.4440    3.1780  -34.0300 H   0  0  0  0  0  0  0  0  0  0  0  0
  -22.1210    3.7870  -36.2780 H   0  0  0  0  0  0  0  0  0  0  0  0
  -21.3730    2.0070  -40.3620 H   0  0  0  0  0  0  0  0  0  0  0  0
  -22.9290    2.6910  -41.0950 H   0  0  0  0  0  0  0  0  0  0  0  0
  -23.7150   -2.1340  -39.3200 H   0  0  0  0  0  0  0  0  0  0  0  0
  -22.0290   -1.4920  -39.0220 H   0  0  0  0  0  0  0  0  0  0  0  0
  -22.6530   -2.9070  -38.1280 H   0  0  0  0  0  0  0  0  0  0  0  0
  -25.6700   -0.4570  -35.1700 H   0  0  0  0  0  0  0  0  0  0  0  0
  -24.9570    1.2030  -35.5840 H   0  0  0  0  0  0  0  0  0  0  0  0
  -26.0220    1.0150  -34.1810 H   0  0  0  0  0  0  0  0  0  0  0  0
  2  1  1  0  0  0  0
  3  2  1  0  0  0  0
  3 33  1  0  0  0  0
  4  3  2  0  0  0  0
  5  6  2  0  0  0  0
  5  4  1  0  0  0  0
  6  7  1  0  0  0  0
  7 36  1  0  0  0  0
  7  2  2  0  0  0  0
  8  5  1  0  0  0  0
  9  8  1  0  0  0  0
  9 32  2  0  0  0  0
 10 11  1  1  0  0  0
 10  9  1  0  0  0  0
 11 13  1  0  0  0  0
 12 11  2  0  0  0  0
 13 14  1  0  0  0  0
 14 15  2  0  0  0  0
 14  8  1  0  0  0  0
 16 38  1  6  0  0  0
 16 10  1  0  0  0  0
 16 17  1  0  0  0  0
 17 18  1  0  0  0  0
 17 39  1  0  0  0  0
 18 40  1  0  0  0  0
 19 43  1  0  0  0  0
 19 42  1  0  0  0  0
 19 18  1  0  0  0  0
 20 19  1  0  0  0  0
 21 20  1  0  0  0  0
 21 16  1  0  0  0  0
 22 21  2  0  0  0  0
 23 24  2  0  0  0  0
 23 22  1  0  0  0  0
 24 25  1  0  0  0  0
 25 44  1  0  0  0  0
 25 20  2  0  0  0  0
 26 24  1  0  0  0  0
 27 28  1  0  0  0  0
 27 26  1  0  0  0  0
 28 23  1  0  0  0  0
 29 22  1  0  0  0  0
 30 49  1  0  0  0  0
 30 29  1  0  0  0  0
 31 52  1  0  0  0  0
 31 17  1  0  0  0  0
 34  4  1  0  0  0  0
 35  6  1  0  0  0  0
 37 13  1  0  0  0  0
 41 18  1  0  0  0  0
 45 27  1  0  0  0  0
 46 27  1  0  0  0  0
 47 30  1  0  0  0  0
 48 30  1  0  0  0  0
 50 31  1  0  0  0  0
 51 31  1  0  0  0  0
M  END
>  <Pose>
1

>  <Score>
-6.24

$$$$
