
 OpenBabel03222201593D

 44 47  0  0  1  0  0  0  0  0999 V2000
  -21.9700   -3.6490  -33.0570 I   0  0  0  0  0  0  0  0  0  0  0  0
  -20.5100   -2.6000  -31.9560 C   0  0  0  0  0  0  0  0  0  0  0  0
  -19.6610   -1.6490  -32.4400 C   0  0  0  0  0  0  0  0  0  0  0  0
  -18.9010   -1.2640  -31.3340 C   0  0  0  0  0  0  0  0  0  0  0  0
  -19.2550   -1.9320  -30.2350 N   0  0  0  0  0  0  0  0  0  0  0  0
  -20.2380   -2.7510  -30.6070 C   0  0  0  0  0  0  0  0  0  0  0  0
  -18.7210   -1.8270  -28.9100 C   0  0  2  0  0  0  0  0  0  0  0  0
  -19.2290   -2.7720  -28.0270 O   0  0  0  0  0  0  0  0  0  0  0  0
  -18.6720   -2.3770  -26.8140 C   0  0  1  0  0  0  0  0  0  0  0  0
  -18.7170   -0.8680  -26.7790 C   0  0  2  0  0  0  0  0  0  0  0  0
  -19.1420   -0.5310  -28.2140 C   0  0  0  0  0  0  0  0  0  0  0  0
  -17.4460   -0.3160  -26.6110 O   0  0  0  0  0  0  0  0  0  0  0  0
  -19.5530   -2.8610  -25.6540 C   0  0  0  0  0  0  0  0  0  0  0  0
  -19.2570   -4.2060  -25.3940 O   0  0  0  0  0  0  0  0  0  0  0  0
  -17.9650   -0.3190  -31.5210 N   0  0  0  0  0  0  0  0  0  0  0  0
  -17.7680    0.2330  -32.7290 C   0  0  0  0  0  0  0  0  0  0  0  0
  -18.4970   -0.1380  -33.7850 N   0  0  0  0  0  0  0  0  0  0  0  0
  -19.4730   -1.0930  -33.6840 C   0  0  0  0  0  0  0  0  0  0  0  0
  -20.2190   -1.4490  -34.8440 N   0  0  0  0  0  0  0  0  0  0  0  0
  -21.2270   -0.5540  -35.3070 C   0  0  0  0  0  0  0  0  0  0  0  0
  -21.3460    0.5420  -34.7020 O   0  0  0  0  0  0  0  0  0  0  0  0
  -22.1060   -0.8230  -36.4110 C   0  0  0  0  0  0  0  0  0  0  0  0
  -21.8970   -0.2590  -37.6390 C   0  0  0  0  0  0  0  0  0  0  0  0
  -22.7390   -0.5130  -38.7240 C   0  0  0  0  0  0  0  0  0  0  0  0
  -23.8050   -1.3490  -38.5620 C   0  0  0  0  0  0  0  0  0  0  0  0
  -24.0390   -1.9290  -37.3420 C   0  0  0  0  0  0  0  0  0  0  0  0
  -23.1820   -1.6600  -36.2690 C   0  0  0  0  0  0  0  0  0  0  0  0
  -20.7910   -3.4630  -29.9860 H   0  0  0  0  0  0  0  0  0  0  0  0
  -17.6240   -1.8260  -28.9140 H   0  0  0  0  0  0  0  0  0  0  0  0
  -17.6420   -2.7770  -26.6980 H   0  0  0  0  0  0  0  0  0  0  0  0
  -19.4190   -0.4640  -26.0400 H   0  0  0  0  0  0  0  0  0  0  0  0
  -20.2440   -0.4670  -28.2270 H   0  0  0  0  0  0  0  0  0  0  0  0
  -18.6220    0.3440  -28.6090 H   0  0  0  0  0  0  0  0  0  0  0  0
  -16.8650   -1.0790  -26.3030 H   0  0  0  0  0  0  0  0  0  0  0  0
  -19.3460   -2.2930  -24.7380 H   0  0  0  0  0  0  0  0  0  0  0  0
  -20.6050   -2.7920  -25.9520 H   0  0  0  0  0  0  0  0  0  0  0  0
  -20.0850   -4.7020  -25.0990 H   0  0  0  0  0  0  0  0  0  0  0  0
  -16.9910    1.0040  -32.8460 H   0  0  0  0  0  0  0  0  0  0  0  0
  -20.1000   -2.3050  -35.3910 H   0  0  0  0  0  0  0  0  0  0  0  0
  -21.0710    0.4230  -37.8630 H   0  0  0  0  0  0  0  0  0  0  0  0
  -22.5620   -0.0630  -39.6810 H   0  0  0  0  0  0  0  0  0  0  0  0
  -24.5000   -1.5820  -39.3870 H   0  0  0  0  0  0  0  0  0  0  0  0
  -24.8800   -2.5820  -37.2340 H   0  0  0  0  0  0  0  0  0  0  0  0
  -23.4160   -2.1400  -35.3490 H   0  0  0  0  0  0  0  0  0  0  0  0
  1  2  1  0  0  0  0
  2  6  2  0  0  0  0
  3  2  1  0  0  0  0
  3  4  2  0  0  0  0
  4  5  1  0  0  0  0
  5  7  1  0  0  0  0
  6  5  1  0  0  0  0
  6 28  1  0  0  0  0
  7 29  1  6  0  0  0
  7 11  1  0  0  0  0
  7  8  1  0  0  0  0
  8  9  1  0  0  0  0
  9 10  1  0  0  0  0
  9 30  1  1  0  0  0
  9 13  1  0  0  0  0
 10 12  1  0  0  0  0
 10 31  1  1  0  0  0
 11 10  1  0  0  0  0
 12 34  1  0  0  0  0
 13 14  1  0  0  0  0
 13 35  1  0  0  0  0
 14 37  1  0  0  0  0
 15  4  1  0  0  0  0
 16 15  2  0  0  0  0
 17 18  2  0  0  0  0
 17 16  1  0  0  0  0
 18  3  1  0  0  0  0
 19 18  1  0  0  0  0
 20 19  1  0  0  0  0
 20 21  2  0  0  0  0
 22 27  1  0  0  0  0
 22 20  1  0  0  0  0
 23 22  2  0  0  0  0
 24 25  2  0  0  0  0
 24 23  1  0  0  0  0
 25 26  1  0  0  0  0
 26 43  1  0  0  0  0
 26 27  2  0  0  0  0
 27 44  1  0  0  0  0
 32 11  1  0  0  0  0
 33 11  1  0  0  0  0
 36 13  1  0  0  0  0
 38 16  1  0  0  0  0
 39 19  1  0  0  0  0
 40 23  1  0  0  0  0
 41 24  1  0  0  0  0
 42 25  1  0  0  0  0
M  END
>  <Pose>
1

>  <Score>
-7.59

$$$$
