
 OpenBabel03222201593D

 48 52  0  0  1  0  0  0  0  0999 V2000
  -23.7280    1.0430  -33.8570 B   0  0  0  0  0  0  0  0  0  0  0  0
  -21.8780    1.3630  -34.1810 C   0  0  0  0  0  0  0  0  0  0  0  0
  -21.5210    2.6230  -34.7240 C   0  0  0  0  0  0  0  0  0  0  0  0
  -20.2180    2.9080  -35.0280 C   0  0  0  0  0  0  0  0  0  0  0  0
  -19.2620    1.9440  -34.7960 C   0  0  0  0  0  0  0  0  0  0  0  0
  -19.6190    0.7240  -34.2680 C   0  0  0  0  0  0  0  0  0  0  0  0
  -20.9580    0.3970  -33.9400 C   0  0  0  0  0  0  0  0  0  0  0  0
  -21.1960   -0.8940  -33.3340 C   0  0  0  0  0  0  0  0  0  0  0  0
  -20.6160   -1.5190  -32.3720 C   0  0  0  0  0  0  0  0  0  0  0  0
  -20.8630   -2.8110  -31.7580 C   0  0  1  0  0  0  0  0  0  0  0  0
  -21.3520   -3.8790  -32.3410 N   0  0  0  0  0  0  0  0  0  0  0  0
  -21.4300   -5.0570  -31.6520 C   0  0  0  0  0  0  0  0  0  0  0  0
  -21.0270   -5.2070  -30.3610 C   0  0  0  0  0  0  0  0  0  0  0  0
  -20.5100   -4.1060  -29.7140 C   0  0  0  0  0  0  0  0  0  0  0  0
  -20.0130   -3.8770  -28.4490 N   0  0  0  0  0  0  0  0  0  0  0  0
  -19.6380   -2.6130  -28.3470 C   0  0  0  0  0  0  0  0  0  0  0  0
  -19.9020   -2.0460  -29.5550 N   0  0  0  0  0  0  0  0  0  0  0  0
  -20.4320   -2.9330  -30.4060 C   0  0  0  0  0  0  0  0  0  0  0  0
  -19.0720   -1.9010  -27.1950 C   0  0  0  0  0  0  0  0  0  0  0  0
  -18.8440   -2.4440  -25.9740 C   0  0  0  0  0  0  0  0  0  0  0  0
  -18.3220   -1.6530  -24.9340 C   0  0  0  0  0  0  0  0  0  0  0  0
  -18.0400   -0.3230  -25.1480 C   0  0  0  0  0  0  0  0  0  0  0  0
  -18.2640    0.2570  -26.3890 C   0  0  0  0  0  0  0  0  0  0  0  0
  -18.7670   -0.5410  -27.3630 C   0  0  0  0  0  0  0  0  0  0  0  0
  -19.9890   -4.9360  -27.4810 C   0  0  0  0  0  0  0  0  0  0  0  0
  -21.8870   -3.8500  -33.6700 C   0  0  0  0  0  0  0  0  0  0  0  0
  -18.0270    2.4850  -35.1910 O   0  0  0  0  0  0  0  0  0  0  0  0
  -18.1860    3.8880  -35.1580 C   0  0  0  0  0  0  0  0  0  0  0  0
  -19.5490    4.0160  -35.5580 O   0  0  0  0  0  0  0  0  0  0  0  0
  -22.3130    3.3360  -34.8830 H   0  0  0  0  0  0  0  0  0  0  0  0
  -18.8490   -0.0240  -34.0900 H   0  0  0  0  0  0  0  0  0  0  0  0
  -22.0120   -1.4640  -33.8180 H   0  0  0  0  0  0  0  0  0  0  0  0
  -19.7590   -0.9590  -31.9420 H   0  0  0  0  0  0  0  0  0  0  0  0
  -21.8380   -5.9170  -32.1780 H   0  0  0  0  0  0  0  0  0  0  0  0
  -21.0830   -6.1330  -29.8060 H   0  0  0  0  0  0  0  0  0  0  0  0
  -19.0380   -3.4890  -25.7670 H   0  0  0  0  0  0  0  0  0  0  0  0
  -18.1520   -2.1090  -23.9730 H   0  0  0  0  0  0  0  0  0  0  0  0
  -17.6380    0.2920  -24.3480 H   0  0  0  0  0  0  0  0  0  0  0  0
  -18.0510    1.2970  -26.5820 H   0  0  0  0  0  0  0  0  0  0  0  0
  -18.9470   -0.0910  -28.3440 H   0  0  0  0  0  0  0  0  0  0  0  0
  -18.9990   -5.3340  -27.2340 H   0  0  0  0  0  0  0  0  0  0  0  0
  -20.5890   -5.8360  -27.8670 H   0  0  0  0  0  0  0  0  0  0  0  0
  -20.5310   -4.7110  -26.5340 H   0  0  0  0  0  0  0  0  0  0  0  0
  -21.1900   -4.1340  -34.4690 H   0  0  0  0  0  0  0  0  0  0  0  0
  -22.6530   -4.7200  -33.7120 H   0  0  0  0  0  0  0  0  0  0  0  0
  -22.5540   -2.9900  -33.8710 H   0  0  0  0  0  0  0  0  0  0  0  0
  -18.0510    4.2350  -34.1120 H   0  0  0  0  0  0  0  0  0  0  0  0
  -17.5120    4.4020  -35.8760 H   0  0  0  0  0  0  0  0  0  0  0  0
  2  7  1  0  0  0  0
  2  1  1  0  0  0  0
  3  2  2  0  0  0  0
  4  5  2  0  0  0  0
  4  3  1  0  0  0  0
  5  6  1  0  0  0  0
  6 31  1  0  0  0  0
  6  7  2  0  0  0  0
  7  8  1  0  0  0  0
  8  9  2  0  0  0  0
  9 33  1  0  0  0  0
 10  9  1  6  0  0  0
 10 18  1  0  0  0  0
 11 10  1  0  0  0  0
 11 12  1  0  0  0  0
 12 13  2  0  0  0  0
 13 35  1  0  0  0  0
 13 14  1  0  0  0  0
 14 15  1  0  0  0  0
 15 16  1  0  0  0  0
 15 25  1  0  0  0  0
 16 19  1  0  0  0  0
 17 16  2  0  0  0  0
 18 14  2  0  0  0  0
 18 17  1  0  0  0  0
 19 20  1  0  0  0  0
 20 36  1  0  0  0  0
 20 21  2  0  0  0  0
 21 37  1  0  0  0  0
 22 21  1  0  0  0  0
 22 38  1  0  0  0  0
 23 22  2  0  0  0  0
 24 19  2  0  0  0  0
 24 23  1  0  0  0  0
 25 41  1  0  0  0  0
 25 43  1  0  0  0  0
 26 11  1  0  0  0  0
 27 28  1  0  0  0  0
 27  5  1  0  0  0  0
 28 47  1  0  0  0  0
 29 28  1  0  0  0  0
 29  4  1  0  0  0  0
 30  3  1  0  0  0  0
 32  8  1  0  0  0  0
 34 12  1  0  0  0  0
 39 23  1  0  0  0  0
 40 24  1  0  0  0  0
 42 25  1  0  0  0  0
 44 26  1  0  0  0  0
 45 26  1  0  0  0  0
 46 26  1  0  0  0  0
 48 28  1  0  0  0  0
M  END
>  <Pose>
1

>  <Score>
-6.88

$$$$
