
 OpenBabel03222201593D

 35 39  0  0  0  0  0  0  0  0999 V2000
  -24.7980    4.1240  -41.4020 I   0  0  0  0  0  0  0  0  0  0  0  0
  -23.3820    2.9580  -40.3560 C   0  0  0  0  0  0  0  0  0  0  0  0
  -22.7540    3.5490  -39.2650 C   0  0  0  0  0  0  0  0  0  0  0  0
  -21.8390    2.8240  -38.5730 C   0  0  0  0  0  0  0  0  0  0  0  0
  -21.5600    1.5160  -38.9790 C   0  0  0  0  0  0  0  0  0  0  0  0
  -22.1770    0.9220  -40.0580 C   0  0  0  0  0  0  0  0  0  0  0  0
  -23.1070    1.6660  -40.7560 C   0  0  0  0  0  0  0  0  0  0  0  0
  -23.7400    1.0880  -41.8470 O   0  0  0  0  0  0  0  0  0  0  0  0
  -21.7180   -1.0660  -40.6340 I   0  0  0  0  0  0  0  0  0  0  0  0
  -21.1270    3.3430  -37.4210 C   0  0  0  0  0  0  0  0  0  0  0  0
  -19.7080    3.3330  -37.6350 O   0  0  0  0  0  0  0  0  0  0  0  0
  -19.0470    2.5960  -36.6870 C   0  0  0  0  0  0  0  0  0  0  0  0
  -17.8100    2.3670  -36.5610 O   0  0  0  0  0  0  0  0  0  0  0  0
  -20.0680    2.0810  -35.7870 C   0  0  0  0  0  0  0  0  0  0  0  0
  -21.2860    2.5170  -36.2130 C   0  0  0  0  0  0  0  0  0  0  0  0
  -22.4440    2.1620  -35.5200 C   0  0  0  0  0  0  0  0  0  0  0  0
  -22.3840    1.3690  -34.3940 C   0  0  0  0  0  0  0  0  0  0  0  0
  -21.1380    0.9250  -33.9600 C   0  0  0  0  0  0  0  0  0  0  0  0
  -19.9980    1.2720  -34.6400 C   0  0  0  0  0  0  0  0  0  0  0  0
  -18.4630    0.7140  -34.0900 Cl  0  0  0  0  0  0  0  0  0  0  0  0
  -20.9940   -0.0790  -32.5450 Cl  0  0  0  0  0  0  0  0  0  0  0  0
  -23.8550    0.9450  -33.5490 Cl  0  0  0  0  0  0  0  0  0  0  0  0
  -23.9600    2.7510  -36.1170 Cl  0  0  0  0  0  0  0  0  0  0  0  0
  -21.5220    4.7420  -37.1030 C   0  0  0  0  0  0  0  0  0  0  0  0
  -22.4390    5.4360  -37.8150 C   0  0  0  0  0  0  0  0  0  0  0  0
  -22.7160    6.7400  -37.4100 C   0  0  0  0  0  0  0  0  0  0  0  0
  -22.1000    7.3340  -36.3310 C   0  0  0  0  0  0  0  0  0  0  0  0
  -21.1700    6.5960  -35.6280 C   0  0  0  0  0  0  0  0  0  0  0  0
  -20.8720    5.3100  -36.0000 C   0  0  0  0  0  0  0  0  0  0  0  0
  -20.2100    7.4770  -33.9730 I   0  0  0  0  0  0  0  0  0  0  0  0
  -22.3720    8.6170  -35.9310 O   0  0  0  0  0  0  0  0  0  0  0  0
  -24.1370    7.8280  -38.5060 I   0  0  0  0  0  0  0  0  0  0  0  0
  -23.0770    4.8720  -38.9050 O   0  0  0  0  0  0  0  0  0  0  0  0
  -20.8330    0.9040  -38.4500 H   0  0  0  0  0  0  0  0  0  0  0  0
  -20.1490    4.7680  -35.4350 H   0  0  0  0  0  0  0  0  0  0  0  0
  1  2  1  0  0  0  0
  2  3  1  0  0  0  0
  3 33  1  0  0  0  0
  3  4  2  0  0  0  0
  4 10  1  0  0  0  0
  5  4  1  0  0  0  0
  5 34  1  0  0  0  0
  6  5  2  0  0  0  0
  7  2  2  0  0  0  0
  7  6  1  0  0  0  0
  8  7  1  0  0  0  0
  9  6  1  0  0  0  0
 10 24  1  0  0  0  0
 10 15  1  0  0  0  0
 11 10  1  0  0  0  0
 11 12  1  0  0  0  0
 12 13  2  0  0  0  0
 12 14  1  0  0  0  0
 14 19  1  0  0  0  0
 15 14  2  0  0  0  0
 15 16  1  0  0  0  0
 16 17  2  0  0  0  0
 17 18  1  0  0  0  0
 17 22  1  0  0  0  0
 18 21  1  0  0  0  0
 19 20  1  0  0  0  0
 19 18  2  0  0  0  0
 23 16  1  0  0  0  0
 24 29  1  0  0  0  0
 25 26  1  0  0  0  0
 25 24  2  0  0  0  0
 26 27  2  0  0  0  0
 27 31  1  0  0  0  0
 27 28  1  0  0  0  0
 28 30  1  0  0  0  0
 29 28  2  0  0  0  0
 29 35  1  0  0  0  0
 32 26  1  0  0  0  0
 33 25  1  0  0  0  0
M  END
>  <Pose>
1

>  <Score>
-5.29

$$$$
