
 OpenBabel03222201593D

 35 38  0  0  1  0  0  0  0  0999 V2000
  -19.0800   -2.9960  -25.9340 I   0  0  0  0  0  0  0  0  0  0  0  0
  -19.2560   -1.5860  -27.4900 C   0  0  0  0  0  0  0  0  0  0  0  0
  -19.6790   -1.9290  -28.7590 C   0  0  0  0  0  0  0  0  0  0  0  0
  -19.7960   -1.0100  -29.7800 C   0  0  0  0  0  0  0  0  0  0  0  0
  -19.4690    0.3040  -29.4960 C   0  0  0  0  0  0  0  0  0  0  0  0
  -19.0430    0.6570  -28.2250 C   0  0  0  0  0  0  0  0  0  0  0  0
  -18.9280   -0.2760  -27.2020 C   0  0  0  0  0  0  0  0  0  0  0  0
  -18.4950    0.1340  -25.9440 O   0  0  0  0  0  0  0  0  0  0  0  0
  -20.2170   -1.3330  -31.0530 C   0  0  0  0  0  0  0  0  0  0  0  0
  -20.5290   -2.6720  -31.2650 C   0  0  0  0  0  0  0  0  0  0  0  0
  -20.3920   -3.6150  -30.1590 C   0  0  0  0  0  0  0  0  0  0  0  0
  -20.7160   -4.9280  -30.4300 C   0  0  1  0  0  0  0  0  0  0  0  0
  -21.1470   -5.3540  -31.6690 C   0  0  0  0  0  0  0  0  0  0  0  0
  -21.4390   -6.5640  -31.8990 O   0  0  0  0  0  0  0  0  0  0  0  0
  -21.2760   -4.4630  -32.7160 C   0  0  0  0  0  0  0  0  0  0  0  0
  -20.9600   -3.1400  -32.4760 C   0  0  0  0  0  0  0  0  0  0  0  0
  -20.5520   -6.3590  -28.9000 I   0  0  0  0  0  0  0  0  0  0  0  0
  -19.9810   -3.1800  -28.9930 O   0  0  0  0  0  0  0  0  0  0  0  0
  -20.3420   -0.3630  -32.1360 C   0  0  0  0  0  0  0  0  0  0  0  0
  -19.1820    0.0780  -32.7660 C   0  0  0  0  0  0  0  0  0  0  0  0
  -19.2490    0.9870  -33.7890 C   0  0  0  0  0  0  0  0  0  0  0  0
  -20.4740    1.4680  -34.1930 C   0  0  0  0  0  0  0  0  0  0  0  0
  -21.6370    1.0480  -33.5860 C   0  0  0  0  0  0  0  0  0  0  0  0
  -21.5460    0.1330  -32.5610 C   0  0  0  0  0  0  0  0  0  0  0  0
  -17.8770   -0.4260  -32.3460 C   0  0  0  0  0  0  0  0  0  0  0  0
  -17.7350   -1.4840  -31.6940 O   0  0  0  0  0  0  0  0  0  0  0  0
  -16.7190    0.2700  -32.6620 O   0  0  0  0  0  0  0  0  0  0  0  0
  -19.5620    1.0220  -30.2980 H   0  0  0  0  0  0  0  0  0  0  0  0
  -18.8020    1.7020  -28.0680 H   0  0  0  0  0  0  0  0  0  0  0  0
  -21.6170   -4.8250  -33.6770 H   0  0  0  0  0  0  0  0  0  0  0  0
  -21.0560   -2.4310  -33.2850 H   0  0  0  0  0  0  0  0  0  0  0  0
  -18.3510    1.3550  -34.3070 H   0  0  0  0  0  0  0  0  0  0  0  0
  -20.5070    2.1880  -35.0030 H   0  0  0  0  0  0  0  0  0  0  0  0
  -22.5930    1.4530  -33.9340 H   0  0  0  0  0  0  0  0  0  0  0  0
  -22.4410   -0.2190  -32.0600 H   0  0  0  0  0  0  0  0  0  0  0  0
  2  7  1  0  0  0  0
  2  1  1  0  0  0  0
  3  2  2  0  0  0  0
  4  5  1  0  0  0  0
  4  3  1  0  0  0  0
  5  6  1  0  0  0  0
  6 29  1  0  0  0  0
  6  7  2  0  0  0  0
  7  8  1  0  0  0  0
  9  4  2  0  0  0  0
 10  9  1  0  0  0  0
 10 11  2  0  0  0  0
 11 18  1  0  0  0  0
 12 11  1  0  0  0  0
 12 17  1  6  0  0  0
 13 12  1  0  0  0  0
 14 13  2  0  0  0  0
 15 16  2  0  0  0  0
 15 13  1  0  0  0  0
 16 10  1  0  0  0  0
 18  3  1  0  0  0  0
 19  9  1  0  0  0  0
 20 25  1  0  0  0  0
 20 19  2  0  0  0  0
 21 20  1  0  0  0  0
 22 21  2  0  0  0  0
 22 23  1  0  0  0  0
 23 24  2  0  0  0  0
 24 19  1  0  0  0  0
 24 35  1  0  0  0  0
 25 26  1  0  0  0  0
 27 25  2  0  0  0  0
 28  5  1  0  0  0  0
 30 15  1  0  0  0  0
 31 16  1  0  0  0  0
 32 21  1  0  0  0  0
 33 22  1  0  0  0  0
 34 23  1  0  0  0  0
M  END
>  <Pose>
1

>  <Score>
-5.73

$$$$
