
 OpenBabel03222201593D

 33 36  0  0  1  0  0  0  0  0999 V2000
  -21.5240   -0.3540  -35.3920 P   0  0  2  0  0  0  0  0  0  0  0  0
  -22.6800   -1.6030  -35.7810 S   0  0  0  0  0  0  0  0  0  0  0  0
  -20.1820   -1.0430  -34.5920 O   0  0  0  0  0  0  0  0  0  0  0  0
  -20.6030   -1.3820  -33.3300 C   0  0  2  0  0  0  0  0  0  0  0  0
  -21.0210   -0.1030  -32.5930 C   0  0  2  0  0  0  0  0  0  0  0  0
  -21.0670   -0.5790  -31.2840 O   0  0  0  0  0  0  0  0  0  0  0  0
  -19.8950   -1.2720  -31.0970 C   0  0  2  0  0  0  0  0  0  0  0  0
  -19.4720   -1.8400  -32.4280 C   0  0  2  0  0  0  0  0  0  0  0  0
  -18.3310   -1.1340  -32.8310 O   0  0  0  0  0  0  0  0  0  0  0  0
  -20.0350   -2.3830  -30.1750 N   0  0  0  0  0  0  0  0  0  0  0  0
  -19.5780   -2.3730  -28.8970 C   0  0  0  0  0  0  0  0  0  0  0  0
  -18.9230   -1.4300  -28.1730 N   0  0  0  0  0  0  0  0  0  0  0  0
  -18.5650   -1.6580  -26.8940 C   0  0  0  0  0  0  0  0  0  0  0  0
  -18.8610   -2.8480  -26.3150 N   0  0  0  0  0  0  0  0  0  0  0  0
  -19.5080   -3.8080  -26.9990 C   0  0  0  0  0  0  0  0  0  0  0  0
  -19.8810   -3.5860  -28.3120 C   0  0  0  0  0  0  0  0  0  0  0  0
  -20.5210   -4.3270  -29.2350 N   0  0  0  0  0  0  0  0  0  0  0  0
  -20.6070   -3.5840  -30.3600 C   0  0  0  0  0  0  0  0  0  0  0  0
  -21.4140   -4.0940  -32.0270 B   0  0  0  0  0  0  0  0  0  0  0  0
  -19.8140   -5.0580  -26.3740 N   0  0  0  0  0  0  0  0  0  0  0  0
  -22.3440    0.3990  -33.0810 C   0  0  0  0  0  0  0  0  0  0  0  0
  -22.1990    0.8040  -34.3960 O   0  0  0  0  0  0  0  0  0  0  0  0
  -20.9860    0.3180  -36.8230 O   0  0  0  0  0  0  0  0  0  0  0  0
  -21.4610   -2.0540  -33.3140 H   0  0  0  0  0  0  0  0  0  0  0  0
  -20.2020    0.6190  -32.7100 H   0  0  0  0  0  0  0  0  0  0  0  0
  -19.1350   -0.5820  -30.6610 H   0  0  0  0  0  0  0  0  0  0  0  0
  -19.3340   -2.9220  -32.4230 H   0  0  0  0  0  0  0  0  0  0  0  0
  -18.0510   -1.3440  -33.7410 H   0  0  0  0  0  0  0  0  0  0  0  0
  -18.0390   -0.8690  -26.3490 H   0  0  0  0  0  0  0  0  0  0  0  0
  -20.3960   -5.7580  -26.9100 H   0  0  0  0  0  0  0  0  0  0  0  0
  -19.4850   -5.3000  -25.4190 H   0  0  0  0  0  0  0  0  0  0  0  0
  -22.6330    1.2630  -32.4840 H   0  0  0  0  0  0  0  0  0  0  0  0
  -23.0900   -0.4090  -32.9490 H   0  0  0  0  0  0  0  0  0  0  0  0
  1 23  2  6  0  0  0
  1  3  1  0  0  0  0
  1 22  1  0  0  0  0
  2  1  1  0  0  0  0
  3  4  1  0  0  0  0
  4 24  1  6  0  0  0
  4  5  1  0  0  0  0
  4  8  1  0  0  0  0
  5 25  1  6  0  0  0
  5  6  1  0  0  0  0
  6  7  1  0  0  0  0
  7 26  1  1  0  0  0
  7 10  1  0  0  0  0
  8 27  1  1  0  0  0
  8  7  1  0  0  0  0
  9  8  1  0  0  0  0
 10 11  1  0  0  0  0
 11 16  2  0  0  0  0
 11 12  1  0  0  0  0
 12 13  2  0  0  0  0
 13 29  1  0  0  0  0
 13 14  1  0  0  0  0
 15 20  1  0  0  0  0
 15 14  2  0  0  0  0
 16 15  1  0  0  0  0
 17 16  1  0  0  0  0
 18 10  1  0  0  0  0
 18 17  2  0  0  0  0
 19 18  1  0  0  0  0
 20 31  1  0  0  0  0
 21 33  1  0  0  0  0
 21  5  1  0  0  0  0
 21 32  1  0  0  0  0
 22 21  1  0  0  0  0
 28  9  1  0  0  0  0
 30 20  1  0  0  0  0
M  END
>  <Pose>
1

>  <Score>
-7.18

$$$$
