
 OpenBabel03222201593D

 52 55  0  0  1  0  0  0  0  0999 V2000
  -20.8060   -2.8470  -32.4830 S   0  0  0  0  0  0  0  0  0  0  0  0
  -19.5120   -1.6390  -32.7560 C   0  0  1  0  0  0  0  0  0  0  0  0
  -20.1250   -0.3940  -33.0960 N   0  0  0  0  0  0  0  0  0  0  0  0
  -21.4490   -0.1330  -33.5680 C   0  0  0  0  0  0  0  0  0  0  0  0
  -22.1830   -1.1100  -34.0000 C   0  0  0  0  0  0  0  0  0  0  0  0
  -21.7220   -2.5740  -34.0440 C   0  0  0  0  0  0  0  0  0  0  0  0
  -23.5310   -1.0020  -34.4980 C   0  0  0  0  0  0  0  0  0  0  0  0
  -23.8490   -1.0690  -35.8130 O   0  0  0  0  0  0  0  0  0  0  0  0
  -23.8580    0.0450  -36.6620 C   0  0  0  0  0  0  0  0  0  0  0  0
  -23.5110    1.1350  -36.1700 O   0  0  0  0  0  0  0  0  0  0  0  0
  -24.2770   -0.1590  -38.0690 C   0  0  0  0  0  0  0  0  0  0  0  0
  -21.8830    1.2940  -33.5260 C   0  0  0  0  0  0  0  0  0  0  0  0
  -22.9150    1.7250  -33.0590 O   0  0  0  0  0  0  0  0  0  0  0  0
  -21.0320    2.2710  -34.0760 O   0  0  0  0  0  0  0  0  0  0  0  0
  -18.8800    0.1630  -32.7110 C   0  0  0  0  0  0  0  0  0  0  0  0
  -18.0500    1.0430  -32.9650 O   0  0  0  0  0  0  0  0  0  0  0  0
  -18.8900   -0.9140  -31.6380 C   0  0  1  0  0  0  0  0  0  0  0  0
  -19.7220   -0.4520  -30.5750 N   0  0  0  0  0  0  0  0  0  0  0  0
  -19.5420   -0.9800  -29.2730 C   0  0  0  0  0  0  0  0  0  0  0  0
  -19.9070   -2.1660  -29.0540 O   0  0  0  0  0  0  0  0  0  0  0  0
  -18.9470   -0.1930  -28.1880 C   0  0  0  0  0  0  0  0  0  0  0  0
  -18.7230    1.0820  -28.1220 O   0  0  0  0  0  0  0  0  0  0  0  0
  -18.1800    1.4310  -27.0010 C   0  0  0  0  0  0  0  0  0  0  0  0
  -18.0230    0.2700  -26.2360 C   0  0  0  0  0  0  0  0  0  0  0  0
  -18.5140   -0.7500  -27.0050 C   0  0  0  0  0  0  0  0  0  0  0  0
  -17.7730    2.8120  -26.5500 C   0  0  0  0  0  0  0  0  0  0  0  0
  -16.6050    2.7580  -25.7720 O   0  0  0  0  0  0  0  0  0  0  0  0
  -16.5450    2.7610  -24.4080 C   0  0  0  0  0  0  0  0  0  0  0  0
  -15.8520    3.7010  -23.6500 C   0  0  0  0  0  0  0  0  0  0  0  0
  -15.8600    3.6100  -22.2760 C   0  0  0  0  0  0  0  0  0  0  0  0
  -16.5260    2.6230  -21.5870 C   0  0  0  0  0  0  0  0  0  0  0  0
  -17.2180    1.6850  -22.3330 C   0  0  0  0  0  0  0  0  0  0  0  0
  -17.2140    1.7710  -23.7190 C   0  0  0  0  0  0  0  0  0  0  0  0
  -16.5020    2.5480  -19.6810 B   0  0  0  0  0  0  0  0  0  0  0  0
  -18.7440   -1.9380  -33.5040 H   0  0  0  0  0  0  0  0  0  0  0  0
  -22.5510   -3.2660  -34.1310 H   0  0  0  0  0  0  0  0  0  0  0  0
  -21.0350   -2.6350  -34.9050 H   0  0  0  0  0  0  0  0  0  0  0  0
  -24.1830   -1.8170  -33.9680 H   0  0  0  0  0  0  0  0  0  0  0  0
  -24.0080   -0.0320  -34.0610 H   0  0  0  0  0  0  0  0  0  0  0  0
  -24.9100   -1.0670  -38.1490 H   0  0  0  0  0  0  0  0  0  0  0  0
  -23.3720   -0.3260  -38.7270 H   0  0  0  0  0  0  0  0  0  0  0  0
  -24.8220    0.7030  -38.4830 H   0  0  0  0  0  0  0  0  0  0  0  0
  -17.8790   -1.2170  -31.3190 H   0  0  0  0  0  0  0  0  0  0  0  0
  -20.4770    0.2690  -30.6950 H   0  0  0  0  0  0  0  0  0  0  0  0
  -17.5910    0.2560  -25.2400 H   0  0  0  0  0  0  0  0  0  0  0  0
  -18.5430   -1.7890  -26.7070 H   0  0  0  0  0  0  0  0  0  0  0  0
  -18.6160    3.3070  -26.0210 H   0  0  0  0  0  0  0  0  0  0  0  0
  -17.5530    3.4360  -27.4410 H   0  0  0  0  0  0  0  0  0  0  0  0
  -15.3200    4.4780  -24.1560 H   0  0  0  0  0  0  0  0  0  0  0  0
  -15.3150    4.3480  -21.7160 H   0  0  0  0  0  0  0  0  0  0  0  0
  -17.7440    0.9080  -21.7980 H   0  0  0  0  0  0  0  0  0  0  0  0
  -17.7870    0.9890  -24.2280 H   0  0  0  0  0  0  0  0  0  0  0  0
  2 35  1  6  0  0  0
  2  1  1  0  0  0  0
  2 17  1  0  0  0  0
  3  2  1  0  0  0  0
  3 15  1  0  0  0  0
  4 12  1  0  0  0  0
  4  3  1  0  0  0  0
  5  4  2  0  0  0  0
  6  5  1  0  0  0  0
  6  1  1  0  0  0  0
  7 39  1  0  0  0  0
  7  5  1  0  0  0  0
  7 38  1  0  0  0  0
  8  7  1  0  0  0  0
  9 10  2  0  0  0  0
  9  8  1  0  0  0  0
 11  9  1  0  0  0  0
 12 13  1  0  0  0  0
 14 12  2  0  0  0  0
 15 17  1  0  0  0  0
 16 15  2  0  0  0  0
 17 43  1  1  0  0  0
 17 18  1  0  0  0  0
 18 19  1  0  0  0  0
 19 20  2  0  0  0  0
 19 21  1  0  0  0  0
 21 22  1  0  0  0  0
 21 25  2  0  0  0  0
 22 23  1  0  0  0  0
 23 26  1  0  0  0  0
 23 24  2  0  0  0  0
 24 45  1  0  0  0  0
 25 46  1  0  0  0  0
 25 24  1  0  0  0  0
 26 47  1  0  0  0  0
 26 27  1  0  0  0  0
 27 28  1  0  0  0  0
 28 33  2  0  0  0  0
 28 29  1  0  0  0  0
 29 30  2  0  0  0  0
 30 50  1  0  0  0  0
 30 31  1  0  0  0  0
 31 34  1  0  0  0  0
 32 51  1  0  0  0  0
 32 31  2  0  0  0  0
 33 32  1  0  0  0  0
 36  6  1  0  0  0  0
 37  6  1  0  0  0  0
 40 11  1  0  0  0  0
 41 11  1  0  0  0  0
 42 11  1  0  0  0  0
 44 18  1  0  0  0  0
 48 26  1  0  0  0  0
 49 29  1  0  0  0  0
 52 33  1  0  0  0  0
M  END
>  <Pose>
1

>  <Score>
-6.88

$$$$
