
 OpenBabel03222201593D

 47 50  0  0  1  0  0  0  0  0999 V2000
  -19.0150   -0.7650  -31.9970 S   0  0  0  0  0  0  0  0  0  0  0  0
  -19.1590    0.7420  -32.0350 O   0  0  0  0  0  0  0  0  0  0  0  0
  -20.1330   -1.3690  -32.8110 O   0  0  0  0  0  0  0  0  0  0  0  0
  -17.4820   -1.1420  -32.6660 N   0  0  0  0  0  0  0  0  0  0  0  0
  -19.1010   -1.2950  -30.3440 C   0  0  0  0  0  0  0  0  0  0  0  0
  -18.4750   -0.5630  -29.3610 C   0  0  0  0  0  0  0  0  0  0  0  0
  -18.5130   -0.9430  -28.0240 C   0  0  0  0  0  0  0  0  0  0  0  0
  -19.2070   -2.0900  -27.7050 C   0  0  0  0  0  0  0  0  0  0  0  0
  -19.8440   -2.8370  -28.6950 C   0  0  0  0  0  0  0  0  0  0  0  0
  -19.7960   -2.4450  -30.0140 C   0  0  0  0  0  0  0  0  0  0  0  0
  -19.3060   -2.6730  -25.9050 B   0  0  0  0  0  0  0  0  0  0  0  0
  -17.8470   -0.1630  -27.0000 C   0  0  0  0  0  0  0  0  0  0  0  0
  -16.9110   -0.6830  -26.3450 O   0  0  0  0  0  0  0  0  0  0  0  0
  -18.2420    1.1820  -26.7340 N   0  0  0  0  0  0  0  0  0  0  0  0
  -18.0260    1.7680  -25.4280 C   0  0  0  0  0  0  0  0  0  0  0  0
  -17.5710    3.1930  -25.4900 C   0  0  2  0  0  0  0  0  0  0  0  0
  -17.1010    3.4460  -26.9250 C   0  0  0  0  0  0  0  0  0  0  0  0
  -18.3510    3.3970  -27.7760 C   0  0  0  0  0  0  0  0  0  0  0  0
  -18.8650    1.9810  -27.7560 C   0  0  0  0  0  0  0  0  0  0  0  0
  -16.4830    3.5080  -24.5100 C   0  0  0  0  0  0  0  0  0  0  0  0
  -15.8600    4.7050  -24.3510 N   0  0  0  0  0  0  0  0  0  0  0  0
  -14.9410    4.6230  -23.3850 C   0  0  0  0  0  0  0  0  0  0  0  0
  -15.0080    3.3320  -22.9430 N   0  0  0  0  0  0  0  0  0  0  0  0
  -15.9290    2.6720  -23.6170 N   0  0  0  0  0  0  0  0  0  0  0  0
  -14.2270    5.9160  -23.1720 C   0  0  0  0  0  0  0  0  0  0  0  0
  -15.0960    6.8760  -23.9240 C   0  0  0  0  0  0  0  0  0  0  0  0
  -15.8880    6.0440  -24.9100 C   0  0  0  0  0  0  0  0  0  0  0  0
  -16.8600   -0.2990  -32.7150 H   0  0  0  0  0  0  0  0  0  0  0  0
  -17.5950   -1.5610  -33.6220 H   0  0  0  0  0  0  0  0  0  0  0  0
  -17.9350    0.3440  -29.6720 H   0  0  0  0  0  0  0  0  0  0  0  0
  -20.3740   -3.7280  -28.3880 H   0  0  0  0  0  0  0  0  0  0  0  0
  -20.2810   -3.0080  -30.7920 H   0  0  0  0  0  0  0  0  0  0  0  0
  -17.3900    1.1390  -24.7770 H   0  0  0  0  0  0  0  0  0  0  0  0
  -19.0360    1.7760  -24.9270 H   0  0  0  0  0  0  0  0  0  0  0  0
  -18.3860    3.9280  -25.3310 H   0  0  0  0  0  0  0  0  0  0  0  0
  -16.5860    4.4190  -26.9900 H   0  0  0  0  0  0  0  0  0  0  0  0
  -16.4200    2.6390  -27.2420 H   0  0  0  0  0  0  0  0  0  0  0  0
  -19.0940    4.1130  -27.3340 H   0  0  0  0  0  0  0  0  0  0  0  0
  -18.0920    3.7460  -28.7950 H   0  0  0  0  0  0  0  0  0  0  0  0
  -18.5850    1.5350  -28.7510 H   0  0  0  0  0  0  0  0  0  0  0  0
  -19.9790    1.9770  -27.6820 H   0  0  0  0  0  0  0  0  0  0  0  0
  -14.2260    6.2080  -22.0930 H   0  0  0  0  0  0  0  0  0  0  0  0
  -13.2010    5.8320  -23.5840 H   0  0  0  0  0  0  0  0  0  0  0  0
  -15.7940    7.4490  -23.2550 H   0  0  0  0  0  0  0  0  0  0  0  0
  -14.4440    7.6140  -24.4480 H   0  0  0  0  0  0  0  0  0  0  0  0
  -15.3540    6.1030  -25.8800 H   0  0  0  0  0  0  0  0  0  0  0  0
  -16.8930    6.4380  -25.0520 H   0  0  0  0  0  0  0  0  0  0  0  0
  1  5  1  0  0  0  0
  2  1  2  0  0  0  0
  3  1  2  0  0  0  0
  4  1  1  0  0  0  0
  5 10  2  0  0  0  0
  5  6  1  0  0  0  0
  6  7  2  0  0  0  0
  7  8  1  0  0  0  0
  7 12  1  0  0  0  0
  8 11  1  0  0  0  0
  9 31  1  0  0  0  0
  9  8  2  0  0  0  0
 10  9  1  0  0  0  0
 12 14  1  0  0  0  0
 12 13  2  0  0  0  0
 14 15  1  0  0  0  0
 15 34  1  0  0  0  0
 15 33  1  0  0  0  0
 16 15  1  0  0  0  0
 16 35  1  1  0  0  0
 16 20  1  0  0  0  0
 17 16  1  0  0  0  0
 18 19  1  0  0  0  0
 18 38  1  0  0  0  0
 18 17  1  0  0  0  0
 19 41  1  0  0  0  0
 19 14  1  0  0  0  0
 20 21  1  0  0  0  0
 20 24  2  0  0  0  0
 21 22  1  0  0  0  0
 22 25  1  0  0  0  0
 22 23  2  0  0  0  0
 24 23  1  0  0  0  0
 25 42  1  0  0  0  0
 26 44  1  0  0  0  0
 26 25  1  0  0  0  0
 27 21  1  0  0  0  0
 27 26  1  0  0  0  0
 28  4  1  0  0  0  0
 29  4  1  0  0  0  0
 30  6  1  0  0  0  0
 32 10  1  0  0  0  0
 36 17  1  0  0  0  0
 37 17  1  0  0  0  0
 39 18  1  0  0  0  0
 40 19  1  0  0  0  0
 43 25  1  0  0  0  0
 45 26  1  0  0  0  0
 46 27  1  0  0  0  0
 47 27  1  0  0  0  0
M  END
>  <Pose>
1

>  <Score>
-7.01

$$$$
