
 OpenBabel03222201593D

 50 53  0  0  0  0  0  0  0  0999 V2000
  -19.5490   -1.0520  -31.8910 S   0  0  0  0  0  0  0  0  0  0  0  0
  -19.1480   -2.4340  -32.3280 O   0  0  0  0  0  0  0  0  0  0  0  0
  -18.2650   -0.2430  -31.8180 O   0  0  0  0  0  0  0  0  0  0  0  0
  -20.2810   -1.1390  -30.3650 N   0  0  0  0  0  0  0  0  0  0  0  0
  -19.8760   -2.2200  -29.5330 C   0  0  0  0  0  0  0  0  0  0  0  0
  -18.9930   -1.9450  -28.4070 C   0  0  0  0  0  0  0  0  0  0  0  0
  -18.8190   -0.5670  -27.9880 N   0  0  0  0  0  0  0  0  0  0  0  0
  -19.2700    0.5100  -28.8130 C   0  0  0  0  0  0  0  0  0  0  0  0
  -20.4440    0.1010  -29.6950 C   0  0  0  0  0  0  0  0  0  0  0  0
  -18.2230   -0.3320  -26.7480 C   0  0  0  0  0  0  0  0  0  0  0  0
  -17.2770   -1.2600  -26.4930 O   0  0  0  0  0  0  0  0  0  0  0  0
  -18.4000    0.6560  -25.7230 C   0  0  0  0  0  0  0  0  0  0  0  0
  -17.8300    1.9960  -25.8480 C   0  0  0  0  0  0  0  0  0  0  0  0
  -17.2130    2.6130  -24.7870 C   0  0  0  0  0  0  0  0  0  0  0  0
  -16.6680    3.8890  -24.9210 C   0  0  0  0  0  0  0  0  0  0  0  0
  -16.7470    4.5310  -26.1210 C   0  0  0  0  0  0  0  0  0  0  0  0
  -17.3710    3.9080  -27.2040 C   0  0  0  0  0  0  0  0  0  0  0  0
  -17.9020    2.6650  -27.0700 C   0  0  0  0  0  0  0  0  0  0  0  0
  -17.0950    1.7320  -23.0880 B   0  0  0  0  0  0  0  0  0  0  0  0
  -20.5860   -0.4230  -33.1540 C   0  0  0  0  0  0  0  0  0  0  0  0
  -21.0440   -1.2670  -34.1650 C   0  0  0  0  0  0  0  0  0  0  0  0
  -21.8510   -0.8300  -35.1930 C   0  0  0  0  0  0  0  0  0  0  0  0
  -22.2470    0.4870  -35.2660 C   0  0  0  0  0  0  0  0  0  0  0  0
  -21.7990    1.3270  -34.2700 C   0  0  0  0  0  0  0  0  0  0  0  0
  -20.9840    0.8930  -33.2300 C   0  0  0  0  0  0  0  0  0  0  0  0
  -23.0700    0.9440  -36.3140 O   0  0  0  0  0  0  0  0  0  0  0  0
  -23.9400    0.0170  -36.9870 C   0  0  0  0  0  0  0  0  0  0  0  0
  -23.1140   -1.1870  -37.2640 C   0  0  0  0  0  0  0  0  0  0  0  0
  -23.1070   -1.7540  -38.3800 O   0  0  0  0  0  0  0  0  0  0  0  0
  -22.3000   -1.7160  -36.2320 N   0  0  0  0  0  0  0  0  0  0  0  0
  -19.3640   -2.9680  -30.2080 H   0  0  0  0  0  0  0  0  0  0  0  0
  -20.8220   -2.7520  -29.2140 H   0  0  0  0  0  0  0  0  0  0  0  0
  -19.3440   -2.5140  -27.4950 H   0  0  0  0  0  0  0  0  0  0  0  0
  -17.9400   -2.3430  -28.5730 H   0  0  0  0  0  0  0  0  0  0  0  0
  -18.4240    0.8600  -29.4200 H   0  0  0  0  0  0  0  0  0  0  0  0
  -19.6360    1.3980  -28.2630 H   0  0  0  0  0  0  0  0  0  0  0  0
  -20.6070    0.9100  -30.4170 H   0  0  0  0  0  0  0  0  0  0  0  0
  -21.3150   -0.0210  -28.9940 H   0  0  0  0  0  0  0  0  0  0  0  0
  -19.5330    0.7790  -25.5250 H   0  0  0  0  0  0  0  0  0  0  0  0
  -18.0370    0.2200  -24.7410 H   0  0  0  0  0  0  0  0  0  0  0  0
  -16.1990    4.3170  -24.0470 H   0  0  0  0  0  0  0  0  0  0  0  0
  -16.3250    5.5090  -26.2180 H   0  0  0  0  0  0  0  0  0  0  0  0
  -17.4070    4.4670  -28.1500 H   0  0  0  0  0  0  0  0  0  0  0  0
  -18.3960    2.1490  -27.8900 H   0  0  0  0  0  0  0  0  0  0  0  0
  -20.7370   -2.3070  -34.1180 H   0  0  0  0  0  0  0  0  0  0  0  0
  -22.1130    2.3800  -34.3230 H   0  0  0  0  0  0  0  0  0  0  0  0
  -20.6500    1.5840  -32.4580 H   0  0  0  0  0  0  0  0  0  0  0  0
  -24.7370   -0.3360  -36.2620 H   0  0  0  0  0  0  0  0  0  0  0  0
  -24.3260    0.5260  -37.8570 H   0  0  0  0  0  0  0  0  0  0  0  0
  -22.0000   -2.6990  -36.1680 H   0  0  0  0  0  0  0  0  0  0  0  0
  1  3  2  0  0  0  0
  1  4  1  0  0  0  0
  2  1  2  0  0  0  0
  4  9  1  0  0  0  0
  4  5  1  0  0  0  0
  5 32  1  0  0  0  0
  5  6  1  0  0  0  0
  6  7  1  0  0  0  0
  6 33  1  0  0  0  0
  7 10  1  0  0  0  0
  8 36  1  0  0  0  0
  8  7  1  0  0  0  0
  9 38  1  0  0  0  0
  9  8  1  0  0  0  0
 10 11  2  0  0  0  0
 10 12  1  0  0  0  0
 12 39  1  0  0  0  0
 12 40  1  0  0  0  0
 13 12  1  0  0  0  0
 13 14  1  0  0  0  0
 14 19  1  0  0  0  0
 15 14  2  0  0  0  0
 15 41  1  0  0  0  0
 16 15  1  0  0  0  0
 17 18  1  0  0  0  0
 17 16  2  0  0  0  0
 18 13  2  0  0  0  0
 20  1  1  0  0  0  0
 21 45  1  0  0  0  0
 21 20  2  0  0  0  0
 22 21  1  0  0  0  0
 23 22  2  0  0  0  0
 23 24  1  0  0  0  0
 24 25  2  0  0  0  0
 25 20  1  0  0  0  0
 25 47  1  0  0  0  0
 26 23  1  0  0  0  0
 27 26  1  0  0  0  0
 27 48  1  0  0  0  0
 28 27  1  0  0  0  0
 28 30  1  0  0  0  0
 29 28  2  0  0  0  0
 30 50  1  0  0  0  0
 30 22  1  0  0  0  0
 31  5  1  0  0  0  0
 34  6  1  0  0  0  0
 35  8  1  0  0  0  0
 37  9  1  0  0  0  0
 42 16  1  0  0  0  0
 43 17  1  0  0  0  0
 44 18  1  0  0  0  0
 46 24  1  0  0  0  0
 49 27  1  0  0  0  0
M  END
>  <Pose>
1

>  <Score>
-6.80

$$$$
