
 OpenBabel03222201593D

 60 62  0  0  0  0  0  0  0  0999 V2000
  -19.5580   -2.3070  -26.6530 S   0  0  0  0  0  0  0  0  0  0  0  0
  -20.6880   -1.5350  -26.0880 O   0  0  0  0  0  0  0  0  0  0  0  0
  -19.3500   -3.4700  -25.6770 O   0  0  0  0  0  0  0  0  0  0  0  0
  -18.0620   -1.4580  -26.6340 N   0  0  0  0  0  0  0  0  0  0  0  0
  -17.5860   -1.1410  -25.3320 C   0  0  0  0  0  0  0  0  0  0  0  0
  -18.1070    0.1800  -24.7810 C   0  0  0  0  0  0  0  0  0  0  0  0
  -17.8730    1.2040  -25.7440 N   0  0  0  0  0  0  0  0  0  0  0  0
  -18.5680    0.9230  -27.0410 C   0  0  0  0  0  0  0  0  0  0  0  0
  -18.0130   -0.3650  -27.5460 C   0  0  0  0  0  0  0  0  0  0  0  0
  -17.1380    2.3710  -25.6850 C   0  0  0  0  0  0  0  0  0  0  0  0
  -16.2650    2.5260  -26.6610 O   0  0  0  0  0  0  0  0  0  0  0  0
  -17.1520    3.4550  -24.7460 C   0  0  0  0  0  0  0  0  0  0  0  0
  -17.1940    3.1850  -23.3550 N   0  0  0  0  0  0  0  0  0  0  0  0
  -16.3720    2.4100  -22.6490 N   0  0  0  0  0  0  0  0  0  0  0  0
  -16.6980    2.4270  -21.3500 C   0  0  0  0  0  0  0  0  0  0  0  0
  -17.7850    3.2600  -21.2440 C   0  0  0  0  0  0  0  0  0  0  0  0
  -18.0890    3.7270  -22.4880 C   0  0  0  0  0  0  0  0  0  0  0  0
  -18.7220    3.6950  -19.6210 B   0  0  0  0  0  0  0  0  0  0  0  0
  -19.8730   -3.0480  -28.1900 C   0  0  0  0  0  0  0  0  0  0  0  0
  -20.1620   -4.4140  -28.3140 C   0  0  0  0  0  0  0  0  0  0  0  0
  -20.4090   -4.9970  -29.5410 C   0  0  0  0  0  0  0  0  0  0  0  0
  -20.3810   -4.2520  -30.7030 C   0  0  0  0  0  0  0  0  0  0  0  0
  -20.0970   -2.9190  -30.5900 C   0  0  0  0  0  0  0  0  0  0  0  0
  -19.8510   -2.3450  -29.3470 C   0  0  0  0  0  0  0  0  0  0  0  0
  -19.5510   -0.9040  -29.3860 C   0  0  0  0  0  0  0  0  0  0  0  0
  -20.5680   -0.1620  -30.2250 C   0  0  0  0  0  0  0  0  0  0  0  0
  -20.8550   -0.8640  -31.4180 N   0  0  0  0  0  0  0  0  0  0  0  0
  -20.0340   -1.9880  -31.7390 C   0  0  0  0  0  0  0  0  0  0  0  0
  -22.2220   -0.9760  -31.7860 C   0  0  0  0  0  0  0  0  0  0  0  0
  -20.6310   -4.8410  -31.9590 O   0  0  0  0  0  0  0  0  0  0  0  0
  -21.9780   -5.2140  -32.2850 C   0  0  0  0  0  0  0  0  0  0  0  0
  -20.6570   -6.3340  -29.3210 O   0  0  0  0  0  0  0  0  0  0  0  0
  -20.4320   -6.6220  -27.9700 C   0  0  0  0  0  0  0  0  0  0  0  0
  -20.2530   -5.3760  -27.3130 O   0  0  0  0  0  0  0  0  0  0  0  0
  -17.8920   -1.9330  -24.6210 H   0  0  0  0  0  0  0  0  0  0  0  0
  -16.4810   -1.0660  -25.3440 H   0  0  0  0  0  0  0  0  0  0  0  0
  -17.6800    0.2920  -23.7970 H   0  0  0  0  0  0  0  0  0  0  0  0
  -19.2170    0.1300  -24.6370 H   0  0  0  0  0  0  0  0  0  0  0  0
  -18.3330    1.7180  -27.7720 H   0  0  0  0  0  0  0  0  0  0  0  0
  -19.6460    0.8670  -26.8970 H   0  0  0  0  0  0  0  0  0  0  0  0
  -18.5000   -0.6230  -28.5050 H   0  0  0  0  0  0  0  0  0  0  0  0
  -16.9340   -0.1870  -27.8010 H   0  0  0  0  0  0  0  0  0  0  0  0
  -18.0340    4.1710  -24.9530 H   0  0  0  0  0  0  0  0  0  0  0  0
  -16.2680    4.1560  -24.9810 H   0  0  0  0  0  0  0  0  0  0  0  0
  -16.1930    1.8820  -20.5450 H   0  0  0  0  0  0  0  0  0  0  0  0
  -18.8900    4.3980  -22.7250 H   0  0  0  0  0  0  0  0  0  0  0  0
  -19.3080   -0.4280  -28.4460 H   0  0  0  0  0  0  0  0  0  0  0  0
  -18.5930   -0.8320  -29.9970 H   0  0  0  0  0  0  0  0  0  0  0  0
  -21.5090   -0.1450  -29.6050 H   0  0  0  0  0  0  0  0  0  0  0  0
  -20.2760    0.8990  -30.3730 H   0  0  0  0  0  0  0  0  0  0  0  0
  -20.4150   -2.4550  -32.6640 H   0  0  0  0  0  0  0  0  0  0  0  0
  -18.9690   -1.7220  -31.9080 H   0  0  0  0  0  0  0  0  0  0  0  0
  -22.4400   -0.6910  -32.8350 H   0  0  0  0  0  0  0  0  0  0  0  0
  -22.8300   -0.3760  -31.0640 H   0  0  0  0  0  0  0  0  0  0  0  0
  -22.5610   -2.0290  -31.6430 H   0  0  0  0  0  0  0  0  0  0  0  0
  -22.6520   -5.0350  -31.4230 H   0  0  0  0  0  0  0  0  0  0  0  0
  -22.0270   -6.2930  -32.5240 H   0  0  0  0  0  0  0  0  0  0  0  0
  -22.3170   -4.6850  -33.2100 H   0  0  0  0  0  0  0  0  0  0  0  0
  -19.5850   -7.2970  -27.7860 H   0  0  0  0  0  0  0  0  0  0  0  0
  -21.3960   -7.0400  -27.5680 H   0  0  0  0  0  0  0  0  0  0  0  0
  1  4  1  0  0  0  0
  1  2  2  0  0  0  0
  1  3  2  0  0  0  0
  4  5  1  0  0  0  0
  5  6  1  0  0  0  0
  5 35  1  0  0  0  0
  6 38  1  0  0  0  0
  6 37  1  0  0  0  0
  7 10  1  0  0  0  0
  7  6  1  0  0  0  0
  8 40  1  0  0  0  0
  8  7  1  0  0  0  0
  9  8  1  0  0  0  0
  9  4  1  0  0  0  0
 10 12  1  0  0  0  0
 11 10  2  0  0  0  0
 12 13  1  0  0  0  0
 13 14  1  0  0  0  0
 13 17  1  0  0  0  0
 14 15  2  0  0  0  0
 15 16  1  0  0  0  0
 15 45  1  0  0  0  0
 16 18  1  0  0  0  0
 17 16  2  0  0  0  0
 19  1  1  0  0  0  0
 20 19  1  0  0  0  0
 20 34  1  0  0  0  0
 21 32  1  0  0  0  0
 21 20  2  0  0  0  0
 22 23  2  0  0  0  0
 22 21  1  0  0  0  0
 23 24  1  0  0  0  0
 24 19  2  0  0  0  0
 25 47  1  0  0  0  0
 26 49  1  0  0  0  0
 27 26  1  0  0  0  0
 28 27  1  0  0  0  0
 28 23  1  0  0  0  0
 29 55  1  0  0  0  0
 29 27  1  0  0  0  0
 29 54  1  0  0  0  0
 30 22  1  0  0  0  0
 31 30  1  0  0  0  0
 31 56  1  0  0  0  0
 32 33  1  0  0  0  0
 33 59  1  0  0  0  0
 33 60  1  0  0  0  0
 33 34  1  0  0  0  0
 36  5  1  0  0  0  0
 39  8  1  0  0  0  0
 41  9  1  0  0  0  0
 42  9  1  0  0  0  0
 43 12  1  0  0  0  0
 44 12  1  0  0  0  0
 46 17  1  0  0  0  0
 48 25  1  0  0  0  0
 50 26  1  0  0  0  0
 51 28  1  0  0  0  0
 52 28  1  0  0  0  0
 53 29  1  0  0  0  0
 57 31  1  0  0  0  0
 58 31  1  0  0  0  0
M  END
>  <Pose>
1

>  <Score>
-7.21

$$$$
