
 OpenBabel03222201593D

 53 56  0  0  0  0  0  0  0  0999 V2000
  -21.1000   -3.9790  -31.6480 S   0  0  0  0  0  0  0  0  0  0  0  0
  -22.6320   -4.0340  -31.7230 O   0  0  0  0  0  0  0  0  0  0  0  0
  -20.6860   -5.3860  -32.0910 O   0  0  0  0  0  0  0  0  0  0  0  0
  -20.5710   -2.8150  -32.7010 N   0  0  0  0  0  0  0  0  0  0  0  0
  -21.3470   -2.2770  -33.7150 C   0  0  0  0  0  0  0  0  0  0  0  0
  -20.4160   -1.4660  -34.6560 C   0  0  0  0  0  0  0  0  0  0  0  0
  -19.6340   -0.5420  -33.8820 N   0  0  0  0  0  0  0  0  0  0  0  0
  -18.7900   -1.1060  -32.8530 C   0  0  0  0  0  0  0  0  0  0  0  0
  -19.1560   -2.5700  -32.7370 C   0  0  0  0  0  0  0  0  0  0  0  0
  -19.6520    0.8520  -34.0760 C   0  0  0  0  0  0  0  0  0  0  0  0
  -20.2160    1.5790  -33.2270 O   0  0  0  0  0  0  0  0  0  0  0  0
  -19.0240    1.4600  -35.2500 C   0  0  0  0  0  0  0  0  0  0  0  0
  -19.6570    0.9830  -36.4770 N   0  0  0  0  0  0  0  0  0  0  0  0
  -19.2090    0.0200  -37.4080 C   0  0  0  0  0  0  0  0  0  0  0  0
  -18.1150   -0.6280  -37.3220 O   0  0  0  0  0  0  0  0  0  0  0  0
  -20.1950   -0.0780  -38.4280 N   0  0  0  0  0  0  0  0  0  0  0  0
  -21.4200    0.4450  -37.8830 C   0  0  0  0  0  0  0  0  0  0  0  0
  -22.2790   -0.5860  -37.2270 C   0  0  0  0  0  0  0  0  0  0  0  0
  -23.6200    0.1500  -37.1190 C   0  0  0  0  0  0  0  0  0  0  0  0
  -23.6940    0.9520  -38.3900 C   0  0  0  0  0  0  0  0  0  0  0  0
  -22.3120    1.0390  -38.9480 C   0  0  0  0  0  0  0  0  0  0  0  0
  -20.9310    1.4770  -36.9370 C   0  0  0  0  0  0  0  0  0  0  0  0
  -21.5080    2.5410  -36.6170 O   0  0  0  0  0  0  0  0  0  0  0  0
  -20.7300   -3.7920  -29.9610 C   0  0  0  0  0  0  0  0  0  0  0  0
  -20.3700   -2.6300  -29.3330 C   0  0  0  0  0  0  0  0  0  0  0  0
  -20.0410   -2.5970  -27.9730 C   0  0  0  0  0  0  0  0  0  0  0  0
  -20.0620   -3.7180  -27.2050 C   0  0  0  0  0  0  0  0  0  0  0  0
  -20.4210   -4.8960  -27.8030 C   0  0  0  0  0  0  0  0  0  0  0  0
  -20.7440   -4.9330  -29.1380 C   0  0  0  0  0  0  0  0  0  0  0  0
  -20.3810   -1.0050  -30.3120 B   0  0  0  0  0  0  0  0  0  0  0  0
  -22.1940   -1.6290  -33.4130 H   0  0  0  0  0  0  0  0  0  0  0  0
  -21.7440   -3.0640  -34.3850 H   0  0  0  0  0  0  0  0  0  0  0  0
  -19.7820   -2.1960  -35.1700 H   0  0  0  0  0  0  0  0  0  0  0  0
  -21.0820   -1.0030  -35.3880 H   0  0  0  0  0  0  0  0  0  0  0  0
  -17.7280   -1.0910  -33.2210 H   0  0  0  0  0  0  0  0  0  0  0  0
  -18.8250   -0.5880  -31.8970 H   0  0  0  0  0  0  0  0  0  0  0  0
  -18.6820   -3.0570  -31.8670 H   0  0  0  0  0  0  0  0  0  0  0  0
  -18.7530   -3.0730  -33.6420 H   0  0  0  0  0  0  0  0  0  0  0  0
  -17.9170    1.3100  -35.2670 H   0  0  0  0  0  0  0  0  0  0  0  0
  -19.1490    2.5810  -35.2730 H   0  0  0  0  0  0  0  0  0  0  0  0
  -19.9830   -0.4740  -39.3780 H   0  0  0  0  0  0  0  0  0  0  0  0
  -22.4190   -1.4250  -37.9280 H   0  0  0  0  0  0  0  0  0  0  0  0
  -21.9190   -0.8900  -36.2240 H   0  0  0  0  0  0  0  0  0  0  0  0
  -23.5740    0.8530  -36.2600 H   0  0  0  0  0  0  0  0  0  0  0  0
  -24.4460   -0.5680  -37.0120 H   0  0  0  0  0  0  0  0  0  0  0  0
  -24.0650    1.9740  -38.2110 H   0  0  0  0  0  0  0  0  0  0  0  0
  -24.3140    0.3850  -39.1070 H   0  0  0  0  0  0  0  0  0  0  0  0
  -22.1740    0.4880  -39.8890 H   0  0  0  0  0  0  0  0  0  0  0  0
  -22.0040    2.1030  -39.1460 H   0  0  0  0  0  0  0  0  0  0  0  0
  -19.7690   -1.6490  -27.5600 H   0  0  0  0  0  0  0  0  0  0  0  0
  -19.7990   -3.6240  -26.1660 H   0  0  0  0  0  0  0  0  0  0  0  0
  -20.4390   -5.7860  -27.1900 H   0  0  0  0  0  0  0  0  0  0  0  0
  -21.0270   -5.8650  -29.6080 H   0  0  0  0  0  0  0  0  0  0  0  0
  1 24  1  0  0  0  0
  2  1  2  0  0  0  0
  3  1  2  0  0  0  0
  4  1  1  0  0  0  0
  5 31  1  0  0  0  0
  5  4  1  0  0  0  0
  6  7  1  0  0  0  0
  6  5  1  0  0  0  0
  7  8  1  0  0  0  0
  8  9  1  0  0  0  0
  8 36  1  0  0  0  0
  9  4  1  0  0  0  0
  9 37  1  0  0  0  0
 10  7  1  0  0  0  0
 10 11  2  0  0  0  0
 12 10  1  0  0  0  0
 13 12  1  0  0  0  0
 14 15  2  0  0  0  0
 14 13  1  0  0  0  0
 16 17  1  0  0  0  0
 16 14  1  0  0  0  0
 17 18  1  0  0  0  0
 17 22  1  0  0  0  0
 18 19  1  0  0  0  0
 18 43  1  0  0  0  0
 19 45  1  0  0  0  0
 19 44  1  0  0  0  0
 20 46  1  0  0  0  0
 20 19  1  0  0  0  0
 21 20  1  0  0  0  0
 21 17  1  0  0  0  0
 22 23  2  0  0  0  0
 22 13  1  0  0  0  0
 24 25  2  0  0  0  0
 24 29  1  0  0  0  0
 25 26  1  0  0  0  0
 26 50  1  0  0  0  0
 26 27  2  0  0  0  0
 27 51  1  0  0  0  0
 28 27  1  0  0  0  0
 28 52  1  0  0  0  0
 29 28  2  0  0  0  0
 30 25  1  0  0  0  0
 32  5  1  0  0  0  0
 33  6  1  0  0  0  0
 34  6  1  0  0  0  0
 35  8  1  0  0  0  0
 38  9  1  0  0  0  0
 39 12  1  0  0  0  0
 40 12  1  0  0  0  0
 41 16  1  0  0  0  0
 42 18  1  0  0  0  0
 47 20  1  0  0  0  0
 48 21  1  0  0  0  0
 49 21  1  0  0  0  0
 53 29  1  0  0  0  0
M  END
>  <Pose>
1

>  <Score>
-6.89

$$$$
