
 OpenBabel03222201593D

 53 56  0  0  0  0  0  0  0  0999 V2000
  -19.5900   -1.5730  -29.8100 S   0  0  0  0  0  0  0  0  0  0  0  0
  -18.4690   -2.4660  -30.3120 O   0  0  0  0  0  0  0  0  0  0  0  0
  -20.6490   -2.5050  -29.2780 O   0  0  0  0  0  0  0  0  0  0  0  0
  -20.2060   -0.7370  -31.1650 N   0  0  0  0  0  0  0  0  0  0  0  0
  -19.3510    0.3450  -31.6040 C   0  0  0  0  0  0  0  0  0  0  0  0
  -19.2530    0.3880  -33.1090 C   0  0  0  0  0  0  0  0  0  0  0  0
  -20.6370    0.3900  -33.6280 N   0  0  0  0  0  0  0  0  0  0  0  0
  -21.4530   -0.7030  -33.1990 C   0  0  0  0  0  0  0  0  0  0  0  0
  -20.5930   -1.5700  -32.2490 C   0  0  0  0  0  0  0  0  0  0  0  0
  -21.0790    1.4150  -34.4760 C   0  0  0  0  0  0  0  0  0  0  0  0
  -21.9590    2.2320  -33.9330 O   0  0  0  0  0  0  0  0  0  0  0  0
  -20.7640    1.7620  -35.8390 C   0  0  0  0  0  0  0  0  0  0  0  0
  -20.6140    0.7430  -36.8300 N   0  0  0  0  0  0  0  0  0  0  0  0
  -19.3920    0.0700  -37.2270 C   0  0  0  0  0  0  0  0  0  0  0  0
  -18.2740    0.3170  -36.6940 O   0  0  0  0  0  0  0  0  0  0  0  0
  -19.7190   -0.8480  -38.2580 N   0  0  0  0  0  0  0  0  0  0  0  0
  -20.9790   -0.4550  -38.7920 C   0  0  0  0  0  0  0  0  0  0  0  0
  -20.8640    0.4410  -40.0020 C   0  0  0  0  0  0  0  0  0  0  0  0
  -22.2860    0.4160  -40.5300 C   0  0  0  0  0  0  0  0  0  0  0  0
  -22.8630   -0.9160  -40.1140 C   0  0  0  0  0  0  0  0  0  0  0  0
  -21.7710   -1.6250  -39.3500 C   0  0  0  0  0  0  0  0  0  0  0  0
  -21.6510    0.1850  -37.6630 C   0  0  0  0  0  0  0  0  0  0  0  0
  -22.8840    0.2590  -37.4280 O   0  0  0  0  0  0  0  0  0  0  0  0
  -19.0260   -0.5100  -28.5440 C   0  0  0  0  0  0  0  0  0  0  0  0
  -18.3210   -0.9760  -27.4520 C   0  0  0  0  0  0  0  0  0  0  0  0
  -17.8770   -0.1210  -26.4500 C   0  0  0  0  0  0  0  0  0  0  0  0
  -18.1280    1.2250  -26.5140 C   0  0  0  0  0  0  0  0  0  0  0  0
  -18.8300    1.7040  -27.6000 C   0  0  0  0  0  0  0  0  0  0  0  0
  -19.2700    0.8460  -28.5970 C   0  0  0  0  0  0  0  0  0  0  0  0
  -17.5150    2.4150  -25.1300 B   0  0  0  0  0  0  0  0  0  0  0  0
  -19.8850    1.2930  -31.3050 H   0  0  0  0  0  0  0  0  0  0  0  0
  -18.3510    0.2920  -31.1350 H   0  0  0  0  0  0  0  0  0  0  0  0
  -18.6660   -0.4570  -33.4580 H   0  0  0  0  0  0  0  0  0  0  0  0
  -18.7440    1.3340  -33.3920 H   0  0  0  0  0  0  0  0  0  0  0  0
  -21.8490   -1.3410  -33.9960 H   0  0  0  0  0  0  0  0  0  0  0  0
  -22.2920   -0.2870  -32.5660 H   0  0  0  0  0  0  0  0  0  0  0  0
  -19.8030   -1.9960  -32.8640 H   0  0  0  0  0  0  0  0  0  0  0  0
  -21.2150   -2.4140  -31.8710 H   0  0  0  0  0  0  0  0  0  0  0  0
  -19.7890    2.3760  -35.8620 H   0  0  0  0  0  0  0  0  0  0  0  0
  -21.5130    2.5140  -36.2640 H   0  0  0  0  0  0  0  0  0  0  0  0
  -19.0860   -1.6520  -38.5220 H   0  0  0  0  0  0  0  0  0  0  0  0
  -20.2280   -0.0780  -40.7430 H   0  0  0  0  0  0  0  0  0  0  0  0
  -20.5180    1.4480  -39.7610 H   0  0  0  0  0  0  0  0  0  0  0  0
  -22.3290    0.5080  -41.6320 H   0  0  0  0  0  0  0  0  0  0  0  0
  -22.8110    1.2660  -40.0400 H   0  0  0  0  0  0  0  0  0  0  0  0
  -23.2160   -1.5050  -40.9830 H   0  0  0  0  0  0  0  0  0  0  0  0
  -23.6880   -0.7120  -39.3940 H   0  0  0  0  0  0  0  0  0  0  0  0
  -21.0650   -2.1600  -40.0420 H   0  0  0  0  0  0  0  0  0  0  0  0
  -22.1520   -2.2850  -38.5630 H   0  0  0  0  0  0  0  0  0  0  0  0
  -18.1220   -2.0320  -27.3980 H   0  0  0  0  0  0  0  0  0  0  0  0
  -17.3250   -0.4740  -25.5880 H   0  0  0  0  0  0  0  0  0  0  0  0
  -19.0150    2.7760  -27.6290 H   0  0  0  0  0  0  0  0  0  0  0  0
  -19.8280    1.2720  -29.4440 H   0  0  0  0  0  0  0  0  0  0  0  0
  1  3  2  0  0  0  0
  1 24  1  0  0  0  0
  2  1  2  0  0  0  0
  4  1  1  0  0  0  0
  5 31  1  0  0  0  0
  5  4  1  0  0  0  0
  5 32  1  0  0  0  0
  6  5  1  0  0  0  0
  7  8  1  0  0  0  0
  7  6  1  0  0  0  0
  8 36  1  0  0  0  0
  8  9  1  0  0  0  0
  9 38  1  0  0  0  0
  9  4  1  0  0  0  0
 10 11  2  0  0  0  0
 10  7  1  0  0  0  0
 12 10  1  0  0  0  0
 13 12  1  0  0  0  0
 14 13  1  0  0  0  0
 14 15  2  0  0  0  0
 16 14  1  0  0  0  0
 17 16  1  0  0  0  0
 17 22  1  0  0  0  0
 18 43  1  0  0  0  0
 18 17  1  0  0  0  0
 19 20  1  0  0  0  0
 19 45  1  0  0  0  0
 19 18  1  0  0  0  0
 20 47  1  0  0  0  0
 20 21  1  0  0  0  0
 21 17  1  0  0  0  0
 21 49  1  0  0  0  0
 22 23  2  0  0  0  0
 22 13  1  0  0  0  0
 24 25  1  0  0  0  0
 25 50  1  0  0  0  0
 25 26  2  0  0  0  0
 26 51  1  0  0  0  0
 27 26  1  0  0  0  0
 27 30  1  0  0  0  0
 28 27  2  0  0  0  0
 29 24  2  0  0  0  0
 29 28  1  0  0  0  0
 33  6  1  0  0  0  0
 34  6  1  0  0  0  0
 35  8  1  0  0  0  0
 37  9  1  0  0  0  0
 39 12  1  0  0  0  0
 40 12  1  0  0  0  0
 41 16  1  0  0  0  0
 42 18  1  0  0  0  0
 44 19  1  0  0  0  0
 46 20  1  0  0  0  0
 48 21  1  0  0  0  0
 52 28  1  0  0  0  0
 53 29  1  0  0  0  0
M  END
>  <Pose>
1

>  <Score>
-6.93

$$$$
