
 OpenBabel03222201593D

 43 46  0  0  0  0  0  0  0  0999 V2000
  -20.6520   -4.3880  -28.2540 S   0  0  0  0  0  0  0  0  0  0  0  0
  -20.7280   -5.8430  -27.9180 O   0  0  0  0  0  0  0  0  0  0  0  0
  -22.0670   -3.8250  -28.2620 O   0  0  0  0  0  0  0  0  0  0  0  0
  -20.0340   -4.1780  -29.8470 N   0  0  0  0  0  0  0  0  0  0  0  0
  -19.6430   -2.8490  -30.1440 C   0  0  0  0  0  0  0  0  0  0  0  0
  -20.4290   -2.1390  -31.1930 C   0  0  0  0  0  0  0  0  0  0  0  0
  -20.8990   -2.9930  -32.2510 N   0  0  0  0  0  0  0  0  0  0  0  0
  -20.5310   -4.3880  -32.1660 C   0  0  0  0  0  0  0  0  0  0  0  0
  -20.9230   -4.8070  -30.7640 C   0  0  0  0  0  0  0  0  0  0  0  0
  -21.6760   -2.5560  -33.3400 C   0  0  0  0  0  0  0  0  0  0  0  0
  -22.3200   -3.3860  -34.0190 O   0  0  0  0  0  0  0  0  0  0  0  0
  -21.7390   -1.1400  -33.6860 C   0  0  0  0  0  0  0  0  0  0  0  0
  -20.7050   -0.3730  -34.0160 N   0  0  0  0  0  0  0  0  0  0  0  0
  -21.1130    0.8720  -34.2730 N   0  0  0  0  0  0  0  0  0  0  0  0
  -22.4540    0.9470  -34.1120 C   0  0  0  0  0  0  0  0  0  0  0  0
  -22.8530   -0.3410  -33.7360 C   0  0  0  0  0  0  0  0  0  0  0  0
  -23.1380    2.1020  -34.3080 N   0  0  0  0  0  0  0  0  0  0  0  0
  -22.4590    3.2250  -34.6800 C   0  0  0  0  0  0  0  0  0  0  0  0
  -21.0920    3.1810  -34.8540 C   0  0  0  0  0  0  0  0  0  0  0  0
  -20.4440    1.9850  -34.6410 C   0  0  0  0  0  0  0  0  0  0  0  0
  -20.1380    4.7670  -35.3780 B   0  0  0  0  0  0  0  0  0  0  0  0
  -19.6700   -3.5780  -27.0590 C   0  0  0  0  0  0  0  0  0  0  0  0
  -18.9810   -2.3960  -27.2070 C   0  0  0  0  0  0  0  0  0  0  0  0
  -18.3470   -2.0990  -26.0720 N   0  0  0  0  0  0  0  0  0  0  0  0
  -18.6020   -3.0470  -25.1910 N   0  0  0  0  0  0  0  0  0  0  0  0
  -19.4130   -3.9820  -25.7490 C   0  0  0  0  0  0  0  0  0  0  0  0
  -17.5190   -0.9530  -25.8080 C   0  0  0  0  0  0  0  0  0  0  0  0
  -19.6650   -2.2450  -29.2130 H   0  0  0  0  0  0  0  0  0  0  0  0
  -18.5790   -2.8680  -30.4710 H   0  0  0  0  0  0  0  0  0  0  0  0
  -21.3280   -1.6130  -30.7560 H   0  0  0  0  0  0  0  0  0  0  0  0
  -19.8320   -1.3330  -31.6700 H   0  0  0  0  0  0  0  0  0  0  0  0
  -21.0570   -5.0140  -32.9110 H   0  0  0  0  0  0  0  0  0  0  0  0
  -19.4240   -4.4320  -32.2780 H   0  0  0  0  0  0  0  0  0  0  0  0
  -20.7950   -5.9070  -30.6720 H   0  0  0  0  0  0  0  0  0  0  0  0
  -21.9830   -4.5590  -30.6030 H   0  0  0  0  0  0  0  0  0  0  0  0
  -23.8540   -0.6520  -33.5240 H   0  0  0  0  0  0  0  0  0  0  0  0
  -22.9620    4.1680  -34.8490 H   0  0  0  0  0  0  0  0  0  0  0  0
  -19.3680    1.9340  -34.7720 H   0  0  0  0  0  0  0  0  0  0  0  0
  -18.9250   -1.7580  -28.0940 H   0  0  0  0  0  0  0  0  0  0  0  0
  -19.7970   -4.8800  -25.2820 H   0  0  0  0  0  0  0  0  0  0  0  0
  -16.4620   -1.2890  -25.7650 H   0  0  0  0  0  0  0  0  0  0  0  0
  -17.7500   -0.5400  -24.8060 H   0  0  0  0  0  0  0  0  0  0  0  0
  -17.6250   -0.1810  -26.5970 H   0  0  0  0  0  0  0  0  0  0  0  0
  1  2  2  0  0  0  0
  1 22  1  0  0  0  0
  3  1  2  0  0  0  0
  4  1  1  0  0  0  0
  5  4  1  0  0  0  0
  5 28  1  0  0  0  0
  6 30  1  0  0  0  0
  6  5  1  0  0  0  0
  7  8  1  0  0  0  0
  7  6  1  0  0  0  0
  8  9  1  0  0  0  0
  9 34  1  0  0  0  0
  9 35  1  0  0  0  0
  9  4  1  0  0  0  0
 10  7  1  0  0  0  0
 11 10  2  0  0  0  0
 12 10  1  0  0  0  0
 13 12  2  0  0  0  0
 14 15  1  0  0  0  0
 14 13  1  0  0  0  0
 15 16  2  0  0  0  0
 16 12  1  0  0  0  0
 16 36  1  0  0  0  0
 17 15  1  0  0  0  0
 18 17  2  0  0  0  0
 19 18  1  0  0  0  0
 19 20  2  0  0  0  0
 20 14  1  0  0  0  0
 21 19  1  0  0  0  0
 22 26  1  0  0  0  0
 23 22  2  0  0  0  0
 23 24  1  0  0  0  0
 24 27  1  0  0  0  0
 24 25  1  0  0  0  0
 26 40  1  0  0  0  0
 26 25  2  0  0  0  0
 27 41  1  0  0  0  0
 27 42  1  0  0  0  0
 29  5  1  0  0  0  0
 31  6  1  0  0  0  0
 32  8  1  0  0  0  0
 33  8  1  0  0  0  0
 37 18  1  0  0  0  0
 38 20  1  0  0  0  0
 39 23  1  0  0  0  0
 43 27  1  0  0  0  0
M  END
>  <Pose>
1

>  <Score>
-7.70

$$$$
