
 OpenBabel03222201593D

 49 52  0  0  1  0  0  0  0  0999 V2000
  -21.4210   -3.9200  -31.5500 S   0  0  0  0  0  0  0  0  0  0  0  0
  -20.4880   -5.0680  -31.7210 O   0  0  0  0  0  0  0  0  0  0  0  0
  -22.8320   -4.4180  -31.7480 O   0  0  0  0  0  0  0  0  0  0  0  0
  -21.2930   -3.2790  -29.9900 N   0  0  0  0  0  0  0  0  0  0  0  0
  -21.8190   -1.9810  -29.7970 C   0  0  0  0  0  0  0  0  0  0  0  0
  -20.8590   -0.8660  -29.7300 C   0  0  0  0  0  0  0  0  0  0  0  0
  -19.6700   -1.2200  -29.0130 N   0  0  0  0  0  0  0  0  0  0  0  0
  -19.5720   -2.5190  -28.4120 C   0  0  0  0  0  0  0  0  0  0  0  0
  -20.1240   -3.6180  -29.2640 C   0  0  0  0  0  0  0  0  0  0  0  0
  -18.6020   -0.3090  -28.8940 C   0  0  0  0  0  0  0  0  0  0  0  0
  -17.6420   -0.3920  -29.6940 O   0  0  0  0  0  0  0  0  0  0  0  0
  -18.5410    0.7400  -27.8850 C   0  0  1  0  0  0  0  0  0  0  0  0
  -18.9040    2.0340  -28.2140 C   0  0  0  0  0  0  0  0  0  0  0  0
  -18.8500    3.0010  -27.2850 N   0  0  0  0  0  0  0  0  0  0  0  0
  -18.4500    2.7660  -26.0160 C   0  0  1  0  0  0  0  0  0  0  0  0
  -18.0900    1.5200  -25.6640 N   0  0  0  0  0  0  0  0  0  0  0  0
  -17.6860    1.2780  -24.3850 C   0  0  0  0  0  0  0  0  0  0  0  0
  -17.6320    2.2790  -23.4360 C   0  0  0  0  0  0  0  0  0  0  0  0
  -17.9980    3.5700  -23.7770 C   0  0  0  0  0  0  0  0  0  0  0  0
  -18.4030    3.7880  -25.0740 C   0  0  0  0  0  0  0  0  0  0  0  0
  -17.1970    2.0550  -22.0350 C   0  0  0  0  0  0  0  0  0  0  0  0
  -18.1350    0.5210  -26.5840 C   0  0  0  0  0  0  0  0  0  0  0  0
  -17.8030   -0.6290  -26.2570 O   0  0  0  0  0  0  0  0  0  0  0  0
  -21.1100   -2.6810  -32.7360 C   0  0  0  0  0  0  0  0  0  0  0  0
  -21.9980   -2.4720  -33.7710 C   0  0  0  0  0  0  0  0  0  0  0  0
  -21.6880   -1.4670  -34.6810 C   0  0  0  0  0  0  0  0  0  0  0  0
  -20.5540   -0.7050  -34.5710 C   0  0  0  0  0  0  0  0  0  0  0  0
  -19.6680   -0.9230  -33.5250 C   0  0  0  0  0  0  0  0  0  0  0  0
  -19.9610   -1.9300  -32.5990 C   0  0  0  0  0  0  0  0  0  0  0  0
  -22.8710   -1.1310  -36.1310 B   0  0  0  0  0  0  0  0  0  0  0  0
  -22.5580   -1.7780  -30.6150 H   0  0  0  0  0  0  0  0  0  0  0  0
  -22.4250   -1.9840  -28.8550 H   0  0  0  0  0  0  0  0  0  0  0  0
  -20.6060   -0.5760  -30.7930 H   0  0  0  0  0  0  0  0  0  0  0  0
  -21.2730    0.0510  -29.2250 H   0  0  0  0  0  0  0  0  0  0  0  0
  -18.5200   -2.7260  -28.1280 H   0  0  0  0  0  0  0  0  0  0  0  0
  -20.1240   -2.4550  -27.4280 H   0  0  0  0  0  0  0  0  0  0  0  0
  -20.3380   -4.4920  -28.6160 H   0  0  0  0  0  0  0  0  0  0  0  0
  -19.3360   -3.9350  -29.9780 H   0  0  0  0  0  0  0  0  0  0  0  0
  -19.2320    2.2410  -29.2380 H   0  0  0  0  0  0  0  0  0  0  0  0
  -17.3970    0.2740  -24.1090 H   0  0  0  0  0  0  0  0  0  0  0  0
  -17.9780    4.3940  -23.0780 H   0  0  0  0  0  0  0  0  0  0  0  0
  -18.6920    4.7910  -25.3560 H   0  0  0  0  0  0  0  0  0  0  0  0
  -18.0730    1.7580  -21.3980 H   0  0  0  0  0  0  0  0  0  0  0  0
  -16.7470    2.9820  -21.6040 H   0  0  0  0  0  0  0  0  0  0  0  0
  -16.4870    1.2020  -21.9620 H   0  0  0  0  0  0  0  0  0  0  0  0
  -22.8890   -3.0690  -33.8610 H   0  0  0  0  0  0  0  0  0  0  0  0
  -20.3550    0.0650  -35.3020 H   0  0  0  0  0  0  0  0  0  0  0  0
  -18.7800   -0.3180  -33.4500 H   0  0  0  0  0  0  0  0  0  0  0  0
  -19.2860   -2.1120  -31.7820 H   0  0  0  0  0  0  0  0  0  0  0  0
  1  4  1  0  0  0  0
  2  1  2  0  0  0  0
  3  1  2  0  0  0  0
  4  5  1  0  0  0  0
  4  9  1  0  0  0  0
  5  6  1  0  0  0  0
  5 32  1  0  0  0  0
  6 34  1  0  0  0  0
  6  7  1  0  0  0  0
  7 10  1  0  0  0  0
  7  8  1  0  0  0  0
  8 35  1  0  0  0  0
  8 36  1  0  0  0  0
  9 37  1  0  0  0  0
  9  8  1  0  0  0  0
 11 10  2  0  0  0  0
 12 10  1  1  0  0  0
 12 22  1  0  0  0  0
 13 12  1  0  0  0  0
 13 14  2  0  0  0  0
 15 14  1  6  0  0  0
 15 16  1  0  0  0  0
 15 20  1  0  0  0  0
 16 17  1  0  0  0  0
 17 40  1  0  0  0  0
 17 18  2  0  0  0  0
 18 21  1  0  0  0  0
 19 18  1  0  0  0  0
 19 41  1  0  0  0  0
 20 19  2  0  0  0  0
 21 45  1  0  0  0  0
 21 44  1  0  0  0  0
 21 43  1  0  0  0  0
 22 23  2  0  0  0  0
 22 16  1  0  0  0  0
 24 29  1  0  0  0  0
 24  1  1  0  0  0  0
 25 24  2  0  0  0  0
 26 27  2  0  0  0  0
 26 25  1  0  0  0  0
 27 28  1  0  0  0  0
 28 48  1  0  0  0  0
 28 29  2  0  0  0  0
 29 49  1  0  0  0  0
 30 26  1  0  0  0  0
 31  5  1  0  0  0  0
 33  6  1  0  0  0  0
 38  9  1  0  0  0  0
 39 13  1  0  0  0  0
 42 20  1  0  0  0  0
 46 25  1  0  0  0  0
 47 27  1  0  0  0  0
M  END
>  <Pose>
1

>  <Score>
-6.56

$$$$
