
 OpenBabel03222201593D

 45 48  0  0  0  0  0  0  0  0999 V2000
  -21.5920   -4.2250  -31.5840 S   0  0  0  0  0  0  0  0  0  0  0  0
  -21.1660   -5.4850  -32.2590 O   0  0  0  0  0  0  0  0  0  0  0  0
  -23.0690   -4.0650  -31.7500 O   0  0  0  0  0  0  0  0  0  0  0  0
  -21.1760   -4.1830  -29.9760 N   0  0  0  0  0  0  0  0  0  0  0  0
  -20.2220   -5.0980  -29.4960 C   0  0  0  0  0  0  0  0  0  0  0  0
  -19.9020   -4.9170  -28.0370 C   0  0  0  0  0  0  0  0  0  0  0  0
  -20.2290   -3.6370  -27.5200 N   0  0  0  0  0  0  0  0  0  0  0  0
  -21.6010   -3.3350  -27.7180 C   0  0  0  0  0  0  0  0  0  0  0  0
  -22.1250   -3.6680  -29.0660 C   0  0  0  0  0  0  0  0  0  0  0  0
  -19.2730   -2.6560  -27.8760 C   0  0  0  0  0  0  0  0  0  0  0  0
  -18.8660   -1.7470  -26.8590 N   0  0  0  0  0  0  0  0  0  0  0  0
  -18.5790   -0.4950  -27.1500 N   0  0  0  0  0  0  0  0  0  0  0  0
  -18.1830    0.4220  -26.2540 C   0  0  0  0  0  0  0  0  0  0  0  0
  -18.0780    0.0060  -24.9480 C   0  0  0  0  0  0  0  0  0  0  0  0
  -18.3640   -1.2910  -24.5790 C   0  0  0  0  0  0  0  0  0  0  0  0
  -18.7650   -2.1600  -25.5850 C   0  0  0  0  0  0  0  0  0  0  0  0
  -19.0320   -3.3630  -25.2390 O   0  0  0  0  0  0  0  0  0  0  0  0
  -17.8770    1.7770  -26.6020 N   0  0  0  0  0  0  0  0  0  0  0  0
  -18.6540    2.6790  -27.2110 C   0  0  0  0  0  0  0  0  0  0  0  0
  -17.9620    3.8260  -27.3390 N   0  0  0  0  0  0  0  0  0  0  0  0
  -16.7350    3.6640  -26.8120 C   0  0  0  0  0  0  0  0  0  0  0  0
  -16.6970    2.3650  -26.3500 C   0  0  0  0  0  0  0  0  0  0  0  0
  -20.7910   -2.8820  -32.4270 C   0  0  0  0  0  0  0  0  0  0  0  0
  -19.5560   -1.8470  -31.8700 S   0  0  0  0  0  0  0  0  0  0  0  0
  -19.3720   -0.8740  -33.2560 C   0  0  0  0  0  0  0  0  0  0  0  0
  -20.2960   -1.3910  -34.1300 C   0  0  0  0  0  0  0  0  0  0  0  0
  -21.0260   -2.4300  -33.6940 C   0  0  0  0  0  0  0  0  0  0  0  0
  -18.1760    0.5930  -33.5520 B   0  0  0  0  0  0  0  0  0  0  0  0
  -20.5670   -6.1340  -29.6990 H   0  0  0  0  0  0  0  0  0  0  0  0
  -19.2690   -4.9800  -30.0670 H   0  0  0  0  0  0  0  0  0  0  0  0
  -18.8320   -5.1270  -27.8440 H   0  0  0  0  0  0  0  0  0  0  0  0
  -20.4740   -5.6810  -27.4620 H   0  0  0  0  0  0  0  0  0  0  0  0
  -21.8690   -2.2890  -27.3880 H   0  0  0  0  0  0  0  0  0  0  0  0
  -22.1710   -3.9710  -26.9740 H   0  0  0  0  0  0  0  0  0  0  0  0
  -22.5770   -2.7380  -29.5030 H   0  0  0  0  0  0  0  0  0  0  0  0
  -22.9850   -4.3890  -29.0210 H   0  0  0  0  0  0  0  0  0  0  0  0
  -18.3410   -3.2120  -28.1970 H   0  0  0  0  0  0  0  0  0  0  0  0
  -19.5660   -2.0950  -28.8080 H   0  0  0  0  0  0  0  0  0  0  0  0
  -17.7620    0.7150  -24.1930 H   0  0  0  0  0  0  0  0  0  0  0  0
  -18.2860   -1.6290  -23.5580 H   0  0  0  0  0  0  0  0  0  0  0  0
  -19.6770    2.4990  -27.5430 H   0  0  0  0  0  0  0  0  0  0  0  0
  -15.9380    4.4210  -26.7650 H   0  0  0  0  0  0  0  0  0  0  0  0
  -15.8430    1.9230  -25.8700 H   0  0  0  0  0  0  0  0  0  0  0  0
  -20.3970   -0.9360  -35.1470 H   0  0  0  0  0  0  0  0  0  0  0  0
  -21.7950   -2.9040  -34.3480 H   0  0  0  0  0  0  0  0  0  0  0  0
  1  4  1  0  0  0  0
  2  1  2  0  0  0  0
  3  1  2  0  0  0  0
  4  5  1  0  0  0  0
  4  9  1  0  0  0  0
  5  6  1  0  0  0  0
  6 31  1  0  0  0  0
  6  7  1  0  0  0  0
  6 32  1  0  0  0  0
  8  7  1  0  0  0  0
  8 33  1  0  0  0  0
  8 34  1  0  0  0  0
  9 36  1  0  0  0  0
  9  8  1  0  0  0  0
 10  7  1  0  0  0  0
 10 11  1  0  0  0  0
 11 16  1  0  0  0  0
 12 11  1  0  0  0  0
 12 13  2  0  0  0  0
 13 14  1  0  0  0  0
 14 15  2  0  0  0  0
 14 39  1  0  0  0  0
 15 40  1  0  0  0  0
 16 17  2  0  0  0  0
 16 15  1  0  0  0  0
 18 22  1  0  0  0  0
 18 13  1  0  0  0  0
 19 18  1  0  0  0  0
 20 19  2  0  0  0  0
 20 21  1  0  0  0  0
 21 42  1  0  0  0  0
 21 22  2  0  0  0  0
 22 43  1  0  0  0  0
 23 24  1  0  0  0  0
 23  1  1  0  0  0  0
 25 24  1  0  0  0  0
 26 27  1  0  0  0  0
 26 25  2  0  0  0  0
 27 23  2  0  0  0  0
 28 25  1  0  0  0  0
 29  5  1  0  0  0  0
 30  5  1  0  0  0  0
 35  9  1  0  0  0  0
 37 10  1  0  0  0  0
 38 10  1  0  0  0  0
 41 19  1  0  0  0  0
 44 26  1  0  0  0  0
 45 27  1  0  0  0  0
M  END
>  <Pose>
1

>  <Score>
-7.45

$$$$
