
 OpenBabel03222201593D

 52 55  0  0  0  0  0  0  0  0999 V2000
  -18.2010   -1.2520  -26.2830 S   0  0  0  0  0  0  0  0  0  0  0  0
  -16.9550   -2.0610  -26.0360 O   0  0  0  0  0  0  0  0  0  0  0  0
  -19.2510   -1.7920  -25.3400 O   0  0  0  0  0  0  0  0  0  0  0  0
  -18.7950   -1.4580  -27.8750 N   0  0  0  0  0  0  0  0  0  0  0  0
  -19.6030   -2.6240  -28.0490 C   0  0  0  0  0  0  0  0  0  0  0  0
  -19.7480   -2.8110  -29.5690 C   0  0  0  0  0  0  0  0  0  0  0  0
  -19.7260   -1.5880  -30.2450 N   0  0  0  0  0  0  0  0  0  0  0  0
  -20.2620   -0.4590  -29.5350 C   0  0  0  0  0  0  0  0  0  0  0  0
  -19.6950   -0.3210  -28.1400 C   0  0  0  0  0  0  0  0  0  0  0  0
  -18.7270   -1.2930  -31.1840 C   0  0  0  0  0  0  0  0  0  0  0  0
  -19.0620   -0.4690  -32.3010 N   0  0  0  0  0  0  0  0  0  0  0  0
  -18.0590    0.2240  -33.0260 N   0  0  0  0  0  0  0  0  0  0  0  0
  -18.7450    0.9220  -34.0610 C   0  0  0  0  0  0  0  0  0  0  0  0
  -18.1240    1.6880  -34.9500 C   0  0  0  0  0  0  0  0  0  0  0  0
  -18.5710    2.5050  -36.1010 C   0  0  0  0  0  0  0  0  0  0  0  0
  -19.9920    2.9770  -35.9080 C   0  0  0  0  0  0  0  0  0  0  0  0
  -20.8710    1.7540  -36.0980 C   0  0  0  0  0  0  0  0  0  0  0  0
  -21.2510    1.1330  -34.7880 C   0  0  0  0  0  0  0  0  0  0  0  0
  -20.1420    0.6840  -34.0020 N   0  0  0  0  0  0  0  0  0  0  0  0
  -20.3230   -0.1890  -32.8910 C   0  0  0  0  0  0  0  0  0  0  0  0
  -21.4440   -0.6220  -32.5260 O   0  0  0  0  0  0  0  0  0  0  0  0
  -17.9000    0.3890  -25.8580 C   0  0  0  0  0  0  0  0  0  0  0  0
  -17.6760    1.4160  -26.7250 C   0  0  0  0  0  0  0  0  0  0  0  0
  -17.4430    2.7080  -26.2760 C   0  0  0  0  0  0  0  0  0  0  0  0
  -17.4270    3.0060  -24.9460 C   0  0  0  0  0  0  0  0  0  0  0  0
  -17.6520    1.9810  -24.0400 C   0  0  0  0  0  0  0  0  0  0  0  0
  -17.8810    0.7080  -24.4960 C   0  0  0  0  0  0  0  0  0  0  0  0
  -17.1290    4.1410  -27.5180 B   0  0  0  0  0  0  0  0  0  0  0  0
  -19.2110   -3.5330  -27.5660 H   0  0  0  0  0  0  0  0  0  0  0  0
  -20.6460   -2.4650  -27.6620 H   0  0  0  0  0  0  0  0  0  0  0  0
  -18.8940   -3.4450  -29.8570 H   0  0  0  0  0  0  0  0  0  0  0  0
  -20.6610   -3.4190  -29.7820 H   0  0  0  0  0  0  0  0  0  0  0  0
  -19.9770    0.4570  -30.0930 H   0  0  0  0  0  0  0  0  0  0  0  0
  -21.3640   -0.5200  -29.5540 H   0  0  0  0  0  0  0  0  0  0  0  0
  -20.5420   -0.4450  -27.4330 H   0  0  0  0  0  0  0  0  0  0  0  0
  -19.2240    0.6380  -27.9420 H   0  0  0  0  0  0  0  0  0  0  0  0
  -18.2610   -2.2510  -31.5240 H   0  0  0  0  0  0  0  0  0  0  0  0
  -17.8850   -0.7770  -30.6310 H   0  0  0  0  0  0  0  0  0  0  0  0
  -17.0280    0.2240  -32.8390 H   0  0  0  0  0  0  0  0  0  0  0  0
  -17.0370    1.7030  -34.7740 H   0  0  0  0  0  0  0  0  0  0  0  0
  -18.4340    1.9670  -37.0610 H   0  0  0  0  0  0  0  0  0  0  0  0
  -17.9170    3.4240  -36.1090 H   0  0  0  0  0  0  0  0  0  0  0  0
  -20.2310    3.7770  -36.6270 H   0  0  0  0  0  0  0  0  0  0  0  0
  -20.0990    3.2890  -34.8480 H   0  0  0  0  0  0  0  0  0  0  0  0
  -21.7720    2.0870  -36.6480 H   0  0  0  0  0  0  0  0  0  0  0  0
  -20.3600    0.9990  -36.7210 H   0  0  0  0  0  0  0  0  0  0  0  0
  -21.8130    1.9070  -34.2110 H   0  0  0  0  0  0  0  0  0  0  0  0
  -21.9570    0.2980  -34.9990 H   0  0  0  0  0  0  0  0  0  0  0  0
  -17.6860    1.1920  -27.7830 H   0  0  0  0  0  0  0  0  0  0  0  0
  -17.2430    4.0220  -24.5990 H   0  0  0  0  0  0  0  0  0  0  0  0
  -17.6420    2.2060  -22.9820 H   0  0  0  0  0  0  0  0  0  0  0  0
  -18.0530   -0.0690  -23.7580 H   0  0  0  0  0  0  0  0  0  0  0  0
  1  2  2  0  0  0  0
  1 22  1  0  0  0  0
  1  3  2  0  0  0  0
  4  1  1  0  0  0  0
  5  4  1  0  0  0  0
  5 30  1  0  0  0  0
  5 29  1  0  0  0  0
  6  5  1  0  0  0  0
  7  6  1  0  0  0  0
  7  8  1  0  0  0  0
  8  9  1  0  0  0  0
  9 36  1  0  0  0  0
  9  4  1  0  0  0  0
  9 35  1  0  0  0  0
 10 38  1  0  0  0  0
 10  7  1  0  0  0  0
 11 10  1  0  0  0  0
 12 39  1  0  0  0  0
 12 11  1  0  0  0  0
 13 19  1  0  0  0  0
 13 12  1  0  0  0  0
 14 40  1  0  0  0  0
 14 13  2  0  0  0  0
 15 16  1  0  0  0  0
 15 14  1  0  0  0  0
 16 44  1  0  0  0  0
 17 16  1  0  0  0  0
 17 18  1  0  0  0  0
 18 47  1  0  0  0  0
 18 19  1  0  0  0  0
 19 20  1  0  0  0  0
 20 21  2  0  0  0  0
 20 11  1  0  0  0  0
 22 27  1  0  0  0  0
 23 24  1  0  0  0  0
 23 22  2  0  0  0  0
 24 25  2  0  0  0  0
 25 50  1  0  0  0  0
 25 26  1  0  0  0  0
 26 51  1  0  0  0  0
 27 26  2  0  0  0  0
 27 52  1  0  0  0  0
 28 24  1  0  0  0  0
 31  6  1  0  0  0  0
 32  6  1  0  0  0  0
 33  8  1  0  0  0  0
 34  8  1  0  0  0  0
 37 10  1  0  0  0  0
 41 15  1  0  0  0  0
 42 15  1  0  0  0  0
 43 16  1  0  0  0  0
 45 17  1  0  0  0  0
 46 17  1  0  0  0  0
 48 18  1  0  0  0  0
 49 23  1  0  0  0  0
M  END
>  <Pose>
1

>  <Score>
-6.43

$$$$
