
 OpenBabel03222201593D

 53 56  0  0  0  0  0  0  0  0999 V2000
  -20.5960   -3.5340  -29.2460 S   0  0  0  0  0  0  0  0  0  0  0  0
  -21.8570   -3.9670  -28.5160 O   0  0  0  0  0  0  0  0  0  0  0  0
  -19.7330   -4.7460  -29.4380 O   0  0  0  0  0  0  0  0  0  0  0  0
  -21.0670   -2.9240  -30.7940 N   0  0  0  0  0  0  0  0  0  0  0  0
  -22.1540   -3.7120  -31.2690 C   0  0  0  0  0  0  0  0  0  0  0  0
  -22.1950   -3.8360  -32.7770 C   0  0  0  0  0  0  0  0  0  0  0  0
  -21.5510   -2.6770  -33.3240 N   0  0  0  0  0  0  0  0  0  0  0  0
  -20.1640   -2.4620  -33.0350 C   0  0  0  0  0  0  0  0  0  0  0  0
  -19.8950   -2.9590  -31.6370 C   0  0  0  0  0  0  0  0  0  0  0  0
  -22.2750   -1.7800  -34.1260 C   0  0  0  0  0  0  0  0  0  0  0  0
  -22.5140   -2.0000  -35.4290 N   0  0  0  0  0  0  0  0  0  0  0  0
  -23.1850   -1.1970  -36.2340 C   0  0  0  0  0  0  0  0  0  0  0  0
  -23.6920   -0.0260  -35.6940 C   0  0  0  0  0  0  0  0  0  0  0  0
  -23.4750    0.2440  -34.3620 C   0  0  0  0  0  0  0  0  0  0  0  0
  -22.7790   -0.6300  -33.6140 N   0  0  0  0  0  0  0  0  0  0  0  0
  -24.0030    1.4910  -33.7450 C   0  0  0  0  0  0  0  0  0  0  0  0
  -23.3670   -1.5450  -37.5940 N   0  0  0  0  0  0  0  0  0  0  0  0
  -22.3760   -1.3020  -38.6230 C   0  0  0  0  0  0  0  0  0  0  0  0
  -22.6710   -2.2970  -39.7430 C   0  0  0  0  0  0  0  0  0  0  0  0
  -22.9660   -3.5200  -39.1350 O   0  0  0  0  0  0  0  0  0  0  0  0
  -24.2130   -3.5520  -38.5540 C   0  0  0  0  0  0  0  0  0  0  0  0
  -24.6020   -2.1790  -37.9960 C   0  0  0  0  0  0  0  0  0  0  0  0
  -19.7960   -2.3150  -28.2950 C   0  0  0  0  0  0  0  0  0  0  0  0
  -19.6420   -1.0450  -28.8340 C   0  0  0  0  0  0  0  0  0  0  0  0
  -19.0190   -0.0310  -28.1410 C   0  0  0  0  0  0  0  0  0  0  0  0
  -18.5300   -0.2710  -26.8800 C   0  0  0  0  0  0  0  0  0  0  0  0
  -18.6620   -1.5220  -26.3090 C   0  0  0  0  0  0  0  0  0  0  0  0
  -19.2980   -2.5250  -27.0360 C   0  0  0  0  0  0  0  0  0  0  0  0
  -17.6700    1.1430  -25.9340 B   0  0  0  0  0  0  0  0  0  0  0  0
  -22.2340   -4.7170  -30.8220 H   0  0  0  0  0  0  0  0  0  0  0  0
  -23.1080   -3.1840  -30.9830 H   0  0  0  0  0  0  0  0  0  0  0  0
  -23.2100   -3.9990  -33.1620 H   0  0  0  0  0  0  0  0  0  0  0  0
  -21.6140   -4.7690  -33.0280 H   0  0  0  0  0  0  0  0  0  0  0  0
  -19.8850   -1.3920  -33.1530 H   0  0  0  0  0  0  0  0  0  0  0  0
  -19.4820   -3.0310  -33.7140 H   0  0  0  0  0  0  0  0  0  0  0  0
  -19.1440   -2.2790  -31.1830 H   0  0  0  0  0  0  0  0  0  0  0  0
  -19.4480   -3.9780  -31.6200 H   0  0  0  0  0  0  0  0  0  0  0  0
  -24.2410    0.6340  -36.3400 H   0  0  0  0  0  0  0  0  0  0  0  0
  -24.8570    1.2610  -33.0560 H   0  0  0  0  0  0  0  0  0  0  0  0
  -23.2060    1.9290  -33.1160 H   0  0  0  0  0  0  0  0  0  0  0  0
  -24.2630    2.2440  -34.5100 H   0  0  0  0  0  0  0  0  0  0  0  0
  -22.4310   -0.2800  -39.0420 H   0  0  0  0  0  0  0  0  0  0  0  0
  -21.3450   -1.5310  -38.2460 H   0  0  0  0  0  0  0  0  0  0  0  0
  -21.8100   -2.4140  -40.4020 H   0  0  0  0  0  0  0  0  0  0  0  0
  -23.5400   -1.9500  -40.3290 H   0  0  0  0  0  0  0  0  0  0  0  0
  -24.2140   -4.2530  -37.6680 H   0  0  0  0  0  0  0  0  0  0  0  0
  -24.9820   -3.9080  -39.2510 H   0  0  0  0  0  0  0  0  0  0  0  0
  -25.1150   -1.5890  -38.7930 H   0  0  0  0  0  0  0  0  0  0  0  0
  -25.2980   -2.2850  -37.1450 H   0  0  0  0  0  0  0  0  0  0  0  0
  -20.0320   -0.8610  -29.8310 H   0  0  0  0  0  0  0  0  0  0  0  0
  -18.9040    0.9570  -28.5660 H   0  0  0  0  0  0  0  0  0  0  0  0
  -18.2780   -1.7190  -25.3130 H   0  0  0  0  0  0  0  0  0  0  0  0
  -19.4080   -3.5160  -26.5990 H   0  0  0  0  0  0  0  0  0  0  0  0
  1  2  2  0  0  0  0
  1 23  1  0  0  0  0
  3  1  2  0  0  0  0
  4  1  1  0  0  0  0
  5 31  1  0  0  0  0
  5 30  1  0  0  0  0
  5  4  1  0  0  0  0
  6  5  1  0  0  0  0
  7  8  1  0  0  0  0
  7  6  1  0  0  0  0
  8  9  1  0  0  0  0
  9 37  1  0  0  0  0
  9 36  1  0  0  0  0
  9  4  1  0  0  0  0
 10 15  1  0  0  0  0
 10  7  1  0  0  0  0
 11 10  2  0  0  0  0
 12 13  2  0  0  0  0
 12 11  1  0  0  0  0
 13 14  1  0  0  0  0
 14 16  1  0  0  0  0
 14 15  2  0  0  0  0
 16 40  1  0  0  0  0
 16 39  1  0  0  0  0
 17 12  1  0  0  0  0
 18 43  1  0  0  0  0
 18 17  1  0  0  0  0
 19 20  1  0  0  0  0
 19 18  1  0  0  0  0
 20 21  1  0  0  0  0
 21 22  1  0  0  0  0
 21 46  1  0  0  0  0
 22 17  1  0  0  0  0
 22 49  1  0  0  0  0
 23 28  1  0  0  0  0
 24 23  2  0  0  0  0
 24 25  1  0  0  0  0
 25 26  2  0  0  0  0
 26 27  1  0  0  0  0
 26 29  1  0  0  0  0
 27 52  1  0  0  0  0
 28 53  1  0  0  0  0
 28 27  2  0  0  0  0
 32  6  1  0  0  0  0
 33  6  1  0  0  0  0
 34  8  1  0  0  0  0
 35  8  1  0  0  0  0
 38 13  1  0  0  0  0
 41 16  1  0  0  0  0
 42 18  1  0  0  0  0
 44 19  1  0  0  0  0
 45 19  1  0  0  0  0
 47 21  1  0  0  0  0
 48 22  1  0  0  0  0
 50 24  1  0  0  0  0
 51 25  1  0  0  0  0
M  END
>  <Pose>
1

>  <Score>
-6.87

$$$$
