
 OpenBabel03222201593D

 37 40  0  0  0  0  0  0  0  0999 V2000
  -18.4660   -0.8380  -32.9130 S   0  0  0  0  0  0  0  0  0  0  0  0
  -18.0390   -1.9500  -33.8640 O   0  0  0  0  0  0  0  0  0  0  0  0
  -17.3550   -0.6690  -31.9410 O   0  0  0  0  0  0  0  0  0  0  0  0
  -19.9160   -1.2700  -32.2040 N   0  0  0  0  0  0  0  0  0  0  0  0
  -20.6630   -0.2970  -31.5070 C   0  0  0  0  0  0  0  0  0  0  0  0
  -20.5370   -0.3180  -30.0040 C   0  0  0  0  0  0  0  0  0  0  0  0
  -19.7310   -1.3970  -29.5260 N   0  0  0  0  0  0  0  0  0  0  0  0
  -19.5900   -2.6600  -30.2290 C   0  0  0  0  0  0  0  0  0  0  0  0
  -20.0500   -2.5620  -31.6540 C   0  0  0  0  0  0  0  0  0  0  0  0
  -19.0140   -1.2610  -28.3060 C   0  0  0  0  0  0  0  0  0  0  0  0
  -18.1770   -0.1950  -28.1340 N   0  0  0  0  0  0  0  0  0  0  0  0
  -17.5010   -0.0430  -26.9950 C   0  0  0  0  0  0  0  0  0  0  0  0
  -17.6070   -0.9080  -25.9870 N   0  0  0  0  0  0  0  0  0  0  0  0
  -18.4180   -1.9530  -26.1350 C   0  0  0  0  0  0  0  0  0  0  0  0
  -18.7160   -2.9640  -25.3140 N   0  0  0  0  0  0  0  0  0  0  0  0
  -19.6040   -3.7840  -25.9440 C   0  0  0  0  0  0  0  0  0  0  0  0
  -19.8730   -3.3010  -27.1580 N   0  0  0  0  0  0  0  0  0  0  0  0
  -19.1560   -2.1770  -27.2990 C   0  0  0  0  0  0  0  0  0  0  0  0
  -18.5320    0.6180  -33.9100 C   0  0  0  0  0  0  0  0  0  0  0  0
  -18.6660    0.7650  -35.6020 S   0  0  0  0  0  0  0  0  0  0  0  0
  -18.6620    2.4620  -35.7390 C   0  0  0  0  0  0  0  0  0  0  0  0
  -18.5550    2.8750  -34.4330 C   0  0  0  0  0  0  0  0  0  0  0  0
  -18.4880    1.9210  -33.4980 C   0  0  0  0  0  0  0  0  0  0  0  0
  -18.7780    3.5460  -37.3060 B   0  0  0  0  0  0  0  0  0  0  0  0
  -20.5200    0.7460  -31.8790 H   0  0  0  0  0  0  0  0  0  0  0  0
  -21.7510   -0.5050  -31.7430 H   0  0  0  0  0  0  0  0  0  0  0  0
  -21.5500   -0.2540  -29.5570 H   0  0  0  0  0  0  0  0  0  0  0  0
  -20.0520    0.6490  -29.6880 H   0  0  0  0  0  0  0  0  0  0  0  0
  -18.5340   -2.9860  -30.2230 H   0  0  0  0  0  0  0  0  0  0  0  0
  -20.1770   -3.4240  -29.6760 H   0  0  0  0  0  0  0  0  0  0  0  0
  -19.5170   -3.2910  -32.2940 H   0  0  0  0  0  0  0  0  0  0  0  0
  -21.1430   -2.8360  -31.6690 H   0  0  0  0  0  0  0  0  0  0  0  0
  -16.8330    0.8010  -26.8500 H   0  0  0  0  0  0  0  0  0  0  0  0
  -20.0030   -4.6750  -25.4910 H   0  0  0  0  0  0  0  0  0  0  0  0
  -20.5160   -3.7360  -27.8440 H   0  0  0  0  0  0  0  0  0  0  0  0
  -18.5280    3.9700  -34.2100 H   0  0  0  0  0  0  0  0  0  0  0  0
  -18.4000    2.1620  -32.4160 H   0  0  0  0  0  0  0  0  0  0  0  0
  1  4  1  0  0  0  0
  1  3  2  0  0  0  0
  2  1  2  0  0  0  0
  4  9  1  0  0  0  0
  4  5  1  0  0  0  0
  5  6  1  0  0  0  0
  6 28  1  0  0  0  0
  6 27  1  0  0  0  0
  6  7  1  0  0  0  0
  7 10  1  0  0  0  0
  8 29  1  0  0  0  0
  8 30  1  0  0  0  0
  8  7  1  0  0  0  0
  9  8  1  0  0  0  0
 10 11  1  0  0  0  0
 10 18  2  0  0  0  0
 11 12  2  0  0  0  0
 12 33  1  0  0  0  0
 12 13  1  0  0  0  0
 14 13  2  0  0  0  0
 14 15  1  0  0  0  0
 16 34  1  0  0  0  0
 16 15  2  0  0  0  0
 17 16  1  0  0  0  0
 18 17  1  0  0  0  0
 18 14  1  0  0  0  0
 19 23  2  0  0  0  0
 19  1  1  0  0  0  0
 20 19  1  0  0  0  0
 21 20  1  0  0  0  0
 21 22  2  0  0  0  0
 22 36  1  0  0  0  0
 22 23  1  0  0  0  0
 23 37  1  0  0  0  0
 24 21  1  0  0  0  0
 25  5  1  0  0  0  0
 26  5  1  0  0  0  0
 31  9  1  0  0  0  0
 32  9  1  0  0  0  0
 35 17  1  0  0  0  0
M  END
>  <Pose>
1

>  <Score>
-6.78

$$$$
