
 OpenBabel03222201593D

 57 60  0  0  1  0  0  0  0  0999 V2000
  -18.4670    5.0830  -26.4380 S   0  0  0  0  0  0  0  0  0  0  0  0
  -18.6270    4.8580  -27.9080 O   0  0  0  0  0  0  0  0  0  0  0  0
  -17.0340    5.5630  -26.2380 O   0  0  0  0  0  0  0  0  0  0  0  0
  -18.7780    3.7110  -25.4840 N   0  0  0  0  0  0  0  0  0  0  0  0
  -18.4650    3.9820  -24.1220 C   0  0  0  0  0  0  0  0  0  0  0  0
  -17.4270    3.0650  -23.5160 C   0  0  0  0  0  0  0  0  0  0  0  0
  -16.2940    2.8900  -24.4280 N   0  0  0  0  0  0  0  0  0  0  0  0
  -16.6990    2.6040  -25.7860 C   0  0  0  0  0  0  0  0  0  0  0  0
  -15.8890    2.4670  -26.7050 O   0  0  0  0  0  0  0  0  0  0  0  0
  -18.1900    2.5000  -25.9250 C   0  0  2  0  0  0  0  0  0  0  0  0
  -18.6100    1.9680  -27.2370 C   0  0  0  0  0  0  0  0  0  0  0  0
  -18.7500    0.4940  -27.1540 C   0  0  0  0  0  0  0  0  0  0  0  0
  -18.5170   -0.0320  -26.0340 O   0  0  0  0  0  0  0  0  0  0  0  0
  -19.1300   -0.2930  -28.2840 N   0  0  0  0  0  0  0  0  0  0  0  0
  -18.6860    0.0500  -29.6070 C   0  0  0  0  0  0  0  0  0  0  0  0
  -18.5320   -1.1220  -30.5260 C   0  0  0  0  0  0  0  0  0  0  0  0
  -19.4600   -2.2080  -30.2570 N   0  0  0  0  0  0  0  0  0  0  0  0
  -19.4890   -2.6430  -28.8690 C   0  0  0  0  0  0  0  0  0  0  0  0
  -19.9700   -1.4440  -28.0800 C   0  0  0  0  0  0  0  0  0  0  0  0
  -20.2720   -2.8380  -31.2090 C   0  0  0  0  0  0  0  0  0  0  0  0
  -20.6660   -2.1420  -32.3300 C   0  0  0  0  0  0  0  0  0  0  0  0
  -21.4810   -2.7640  -33.2630 C   0  0  0  0  0  0  0  0  0  0  0  0
  -21.9220   -4.0560  -33.1200 C   0  0  0  0  0  0  0  0  0  0  0  0
  -21.5260   -4.7470  -31.9980 C   0  0  0  0  0  0  0  0  0  0  0  0
  -20.7100   -4.1320  -31.0600 C   0  0  0  0  0  0  0  0  0  0  0  0
  -19.4850    6.4360  -25.9780 C   0  0  0  0  0  0  0  0  0  0  0  0
  -19.5010    7.6310  -26.6860 C   0  0  0  0  0  0  0  0  0  0  0  0
  -20.2820    8.6990  -26.3440 C   0  0  0  0  0  0  0  0  0  0  0  0
  -21.1080    8.6260  -25.2530 C   0  0  0  0  0  0  0  0  0  0  0  0
  -21.1190    7.4360  -24.5150 C   0  0  0  0  0  0  0  0  0  0  0  0
  -20.3200    6.3820  -24.8870 C   0  0  0  0  0  0  0  0  0  0  0  0
  -22.2200   10.0780  -24.7280 B   0  0  0  0  0  0  0  0  0  0  0  0
  -19.3890    3.8540  -23.4980 H   0  0  0  0  0  0  0  0  0  0  0  0
  -18.1170    5.0160  -23.9220 H   0  0  0  0  0  0  0  0  0  0  0  0
  -17.8910    2.1060  -23.2390 H   0  0  0  0  0  0  0  0  0  0  0  0
  -17.0400    3.5340  -22.5950 H   0  0  0  0  0  0  0  0  0  0  0  0
  -15.3100    2.9550  -24.1680 H   0  0  0  0  0  0  0  0  0  0  0  0
  -18.4710    1.7170  -25.1580 H   0  0  0  0  0  0  0  0  0  0  0  0
  -17.7920    2.2520  -27.9660 H   0  0  0  0  0  0  0  0  0  0  0  0
  -19.5170    2.4280  -27.6730 H   0  0  0  0  0  0  0  0  0  0  0  0
  -19.3610    0.7970  -30.0980 H   0  0  0  0  0  0  0  0  0  0  0  0
  -17.6860    0.5660  -29.5920 H   0  0  0  0  0  0  0  0  0  0  0  0
  -18.6840   -0.7740  -31.5540 H   0  0  0  0  0  0  0  0  0  0  0  0
  -17.5040   -1.5560  -30.4740 H   0  0  0  0  0  0  0  0  0  0  0  0
  -18.4390   -2.8200  -28.5320 H   0  0  0  0  0  0  0  0  0  0  0  0
  -20.1260   -3.4840  -28.6510 H   0  0  0  0  0  0  0  0  0  0  0  0
  -21.0000   -1.1490  -28.3690 H   0  0  0  0  0  0  0  0  0  0  0  0
  -20.0120   -1.6840  -26.9990 H   0  0  0  0  0  0  0  0  0  0  0  0
  -20.3660   -1.1100  -32.5420 H   0  0  0  0  0  0  0  0  0  0  0  0
  -21.7970   -2.2240  -34.1500 H   0  0  0  0  0  0  0  0  0  0  0  0
  -22.5650   -4.5350  -33.8630 H   0  0  0  0  0  0  0  0  0  0  0  0
  -21.8620   -5.7730  -31.8620 H   0  0  0  0  0  0  0  0  0  0  0  0
  -20.4560   -4.7510  -30.2110 H   0  0  0  0  0  0  0  0  0  0  0  0
  -18.8720    7.7340  -27.5500 H   0  0  0  0  0  0  0  0  0  0  0  0
  -20.2860    9.6380  -26.9100 H   0  0  0  0  0  0  0  0  0  0  0  0
  -21.7820    7.4170  -23.6640 H   0  0  0  0  0  0  0  0  0  0  0  0
  -20.3510    5.4820  -24.3020 H   0  0  0  0  0  0  0  0  0  0  0  0
  1  3  2  0  0  0  0
  1 26  1  0  0  0  0
  1  4  1  0  0  0  0
  2  1  2  0  0  0  0
  4  5  1  0  0  0  0
  5 34  1  0  0  0  0
  5  6  1  0  0  0  0
  5 33  1  0  0  0  0
  6 35  1  0  0  0  0
  6 36  1  0  0  0  0
  7 37  1  0  0  0  0
  7  6  1  0  0  0  0
  8  7  1  0  0  0  0
  9  8  2  0  0  0  0
 10  8  1  0  0  0  0
 10  4  1  0  0  0  0
 10 38  1  1  0  0  0
 11 12  1  0  0  0  0
 11 10  1  0  0  0  0
 12 13  2  0  0  0  0
 14 19  1  0  0  0  0
 14 12  1  0  0  0  0
 15 42  1  0  0  0  0
 15 14  1  0  0  0  0
 16 44  1  0  0  0  0
 16 17  1  0  0  0  0
 16 15  1  0  0  0  0
 17 18  1  0  0  0  0
 18 46  1  0  0  0  0
 18 45  1  0  0  0  0
 18 19  1  0  0  0  0
 19 48  1  0  0  0  0
 20 25  1  0  0  0  0
 20 17  1  0  0  0  0
 21 20  2  0  0  0  0
 22 23  2  0  0  0  0
 22 21  1  0  0  0  0
 23 24  1  0  0  0  0
 24 52  1  0  0  0  0
 24 25  2  0  0  0  0
 25 53  1  0  0  0  0
 26 31  1  0  0  0  0
 27 28  1  0  0  0  0
 27 26  2  0  0  0  0
 28 29  2  0  0  0  0
 29 32  1  0  0  0  0
 29 30  1  0  0  0  0
 30 56  1  0  0  0  0
 31 30  2  0  0  0  0
 31 57  1  0  0  0  0
 39 11  1  0  0  0  0
 40 11  1  0  0  0  0
 41 15  1  0  0  0  0
 43 16  1  0  0  0  0
 47 19  1  0  0  0  0
 49 21  1  0  0  0  0
 50 22  1  0  0  0  0
 51 23  1  0  0  0  0
 54 27  1  0  0  0  0
 55 28  1  0  0  0  0
M  END
>  <Pose>
1

>  <Score>
-6.08

$$$$
