
 OpenBabel03222201593D

 51 54  0  0  0  0  0  0  0  0999 V2000
  -21.3020   -4.0710  -31.7440 S   0  0  0  0  0  0  0  0  0  0  0  0
  -20.9490   -5.5190  -31.7420 O   0  0  0  0  0  0  0  0  0  0  0  0
  -22.7870   -3.9720  -31.4580 O   0  0  0  0  0  0  0  0  0  0  0  0
  -21.0250   -3.3550  -33.2690 N   0  0  0  0  0  0  0  0  0  0  0  0
  -20.6140   -1.9780  -33.1840 C   0  0  0  0  0  0  0  0  0  0  0  0
  -20.8750   -1.3590  -34.5600 C   0  0  0  0  0  0  0  0  0  0  0  0
  -22.2250   -1.1500  -34.7460 O   0  0  0  0  0  0  0  0  0  0  0  0
  -22.9420   -2.0520  -33.9410 C   0  0  0  0  0  0  0  0  0  0  0  0
  -22.2410   -3.3970  -34.0610 C   0  0  0  0  0  0  0  0  0  0  0  0
  -20.4930   -3.2100  -30.4430 C   0  0  0  0  0  0  0  0  0  0  0  0
  -19.5370   -2.2620  -30.6680 C   0  0  0  0  0  0  0  0  0  0  0  0
  -18.9120   -1.5950  -29.6180 C   0  0  0  0  0  0  0  0  0  0  0  0
  -19.2300   -1.8610  -28.3200 C   0  0  0  0  0  0  0  0  0  0  0  0
  -20.1980   -2.8220  -28.0830 C   0  0  0  0  0  0  0  0  0  0  0  0
  -20.8170   -3.4840  -29.1280 C   0  0  0  0  0  0  0  0  0  0  0  0
  -18.6160   -1.1950  -27.1450 C   0  0  0  0  0  0  0  0  0  0  0  0
  -18.0340    0.0450  -27.4800 O   0  0  0  0  0  0  0  0  0  0  0  0
  -18.7290    1.1570  -27.8890 C   0  0  0  0  0  0  0  0  0  0  0  0
  -18.9950    1.2970  -29.0990 O   0  0  0  0  0  0  0  0  0  0  0  0
  -19.1560    2.1720  -26.9300 C   0  0  0  0  0  0  0  0  0  0  0  0
  -18.1840    2.4500  -25.9130 N   0  0  0  0  0  0  0  0  0  0  0  0
  -17.3280    3.5990  -25.9440 C   0  0  0  0  0  0  0  0  0  0  0  0
  -17.3160    4.4900  -26.8410 O   0  0  0  0  0  0  0  0  0  0  0  0
  -16.4650    3.5810  -24.7680 C   0  0  0  0  0  0  0  0  0  0  0  0
  -16.7600    2.4690  -24.0250 C   0  0  0  0  0  0  0  0  0  0  0  0
  -16.0820    2.2090  -22.8490 C   0  0  0  0  0  0  0  0  0  0  0  0
  -15.0930    3.0620  -22.3970 C   0  0  0  0  0  0  0  0  0  0  0  0
  -14.7840    4.1850  -23.1350 C   0  0  0  0  0  0  0  0  0  0  0  0
  -15.4770    4.4200  -24.3050 C   0  0  0  0  0  0  0  0  0  0  0  0
  -13.4270    5.3900  -22.5530 B   0  0  0  0  0  0  0  0  0  0  0  0
  -17.8370    1.7510  -24.7300 C   0  0  0  0  0  0  0  0  0  0  0  0
  -18.3810    0.6860  -24.3670 O   0  0  0  0  0  0  0  0  0  0  0  0
  -19.5140   -1.9740  -33.0300 H   0  0  0  0  0  0  0  0  0  0  0  0
  -21.0810   -1.4120  -32.3790 H   0  0  0  0  0  0  0  0  0  0  0  0
  -20.4420   -2.0610  -35.3130 H   0  0  0  0  0  0  0  0  0  0  0  0
  -20.3400   -0.4030  -34.6870 H   0  0  0  0  0  0  0  0  0  0  0  0
  -23.0280   -1.7050  -32.9100 H   0  0  0  0  0  0  0  0  0  0  0  0
  -23.9640   -2.0870  -34.3640 H   0  0  0  0  0  0  0  0  0  0  0  0
  -22.8510   -4.2280  -33.6800 H   0  0  0  0  0  0  0  0  0  0  0  0
  -22.0330   -3.5340  -35.1450 H   0  0  0  0  0  0  0  0  0  0  0  0
  -19.2720   -2.0380  -31.6990 H   0  0  0  0  0  0  0  0  0  0  0  0
  -18.1610   -0.8550  -29.8380 H   0  0  0  0  0  0  0  0  0  0  0  0
  -20.4650   -3.0490  -27.0610 H   0  0  0  0  0  0  0  0  0  0  0  0
  -21.5770   -4.2350  -28.9110 H   0  0  0  0  0  0  0  0  0  0  0  0
  -19.3750   -1.0080  -26.3580 H   0  0  0  0  0  0  0  0  0  0  0  0
  -17.8390   -1.8890  -26.7290 H   0  0  0  0  0  0  0  0  0  0  0  0
  -19.4160    3.1430  -27.4460 H   0  0  0  0  0  0  0  0  0  0  0  0
  -20.1090    1.8850  -26.3960 H   0  0  0  0  0  0  0  0  0  0  0  0
  -16.3390    1.3200  -22.2820 H   0  0  0  0  0  0  0  0  0  0  0  0
  -14.5570    2.8450  -21.4590 H   0  0  0  0  0  0  0  0  0  0  0  0
  -15.2580    5.2980  -24.9130 H   0  0  0  0  0  0  0  0  0  0  0  0
  1  2  2  0  0  0  0
  1  3  2  0  0  0  0
  1 10  1  0  0  0  0
  4  5  1  0  0  0  0
  4  1  1  0  0  0  0
  5 33  1  0  0  0  0
  5 34  1  0  0  0  0
  6  5  1  0  0  0  0
  7  6  1  0  0  0  0
  7  8  1  0  0  0  0
  8 37  1  0  0  0  0
  9  8  1  0  0  0  0
  9 39  1  0  0  0  0
  9  4  1  0  0  0  0
 10 15  1  0  0  0  0
 11 10  2  0  0  0  0
 11 12  1  0  0  0  0
 12 13  2  0  0  0  0
 13 14  1  0  0  0  0
 13 16  1  0  0  0  0
 14 43  1  0  0  0  0
 15 44  1  0  0  0  0
 15 14  2  0  0  0  0
 16 46  1  0  0  0  0
 16 45  1  0  0  0  0
 17 16  1  0  0  0  0
 18 17  1  0  0  0  0
 18 20  1  0  0  0  0
 19 18  2  0  0  0  0
 20 48  1  0  0  0  0
 20 21  1  0  0  0  0
 21 31  1  0  0  0  0
 22 21  1  0  0  0  0
 22 24  1  0  0  0  0
 23 22  2  0  0  0  0
 24 29  2  0  0  0  0
 24 25  1  0  0  0  0
 25 26  2  0  0  0  0
 26 27  1  0  0  0  0
 26 49  1  0  0  0  0
 27 50  1  0  0  0  0
 28 30  1  0  0  0  0
 28 27  2  0  0  0  0
 29 28  1  0  0  0  0
 31 32  2  0  0  0  0
 31 25  1  0  0  0  0
 35  6  1  0  0  0  0
 36  6  1  0  0  0  0
 38  8  1  0  0  0  0
 40  9  1  0  0  0  0
 41 11  1  0  0  0  0
 42 12  1  0  0  0  0
 47 20  1  0  0  0  0
 51 29  1  0  0  0  0
M  END
>  <Pose>
1

>  <Score>
-6.17

$$$$
