
 OpenBabel03222201593D

 43 46  0  0  0  0  0  0  0  0999 V2000
  -19.8620    1.2550  -34.7630 S   0  0  0  0  0  0  0  0  0  0  0  0
  -19.6000    2.6910  -34.3970 O   0  0  0  0  0  0  0  0  0  0  0  0
  -19.2160    1.0060  -36.0880 O   0  0  0  0  0  0  0  0  0  0  0  0
  -21.5530    1.0130  -34.8350 N   0  0  0  0  0  0  0  0  0  0  0  0
  -22.3020    1.8280  -33.9540 C   0  0  0  0  0  0  0  0  0  0  0  0
  -23.5170    1.2140  -33.3400 C   0  0  0  0  0  0  0  0  0  0  0  0
  -24.0810    0.3510  -34.3070 O   0  0  0  0  0  0  0  0  0  0  0  0
  -23.2190   -0.7490  -34.3330 C   0  0  0  0  0  0  0  0  0  0  0  0
  -21.9420   -0.3430  -34.9790 C   0  0  0  0  0  0  0  0  0  0  0  0
  -19.1280    0.2540  -33.5040 C   0  0  0  0  0  0  0  0  0  0  0  0
  -17.8170    0.0540  -33.2820 N   0  0  0  0  0  0  0  0  0  0  0  0
  -17.6830   -0.7750  -32.2310 C   0  0  0  0  0  0  0  0  0  0  0  0
  -18.8870   -1.1250  -31.7550 N   0  0  0  0  0  0  0  0  0  0  0  0
  -19.7770   -0.4930  -32.5360 C   0  0  0  0  0  0  0  0  0  0  0  0
  -19.1560   -2.0020  -30.6330 C   0  0  0  0  0  0  0  0  0  0  0  0
  -19.1680   -1.2850  -29.3380 C   0  0  0  0  0  0  0  0  0  0  0  0
  -19.9890   -1.5730  -28.3100 N   0  0  0  0  0  0  0  0  0  0  0  0
  -19.7350   -0.7540  -27.3350 O   0  0  0  0  0  0  0  0  0  0  0  0
  -18.7800    0.0740  -27.6580 C   0  0  0  0  0  0  0  0  0  0  0  0
  -18.4220   -0.2550  -28.9100 N   0  0  0  0  0  0  0  0  0  0  0  0
  -18.2430    1.1270  -26.7950 C   0  0  0  0  0  0  0  0  0  0  0  0
  -18.0170    0.9260  -25.4500 C   0  0  0  0  0  0  0  0  0  0  0  0
  -17.5050    1.9380  -24.6410 C   0  0  0  0  0  0  0  0  0  0  0  0
  -17.2060    3.1770  -25.1610 C   0  0  0  0  0  0  0  0  0  0  0  0
  -17.4300    3.3820  -26.5050 C   0  0  0  0  0  0  0  0  0  0  0  0
  -17.9440    2.3650  -27.3130 C   0  0  0  0  0  0  0  0  0  0  0  0
  -17.2000    1.6370  -22.7780 B   0  0  0  0  0  0  0  0  0  0  0  0
  -21.6420    2.2690  -33.1620 H   0  0  0  0  0  0  0  0  0  0  0  0
  -22.6680    2.7150  -34.5540 H   0  0  0  0  0  0  0  0  0  0  0  0
  -24.2930    1.9960  -33.1700 H   0  0  0  0  0  0  0  0  0  0  0  0
  -23.3410    0.6610  -32.4080 H   0  0  0  0  0  0  0  0  0  0  0  0
  -23.1050   -1.0740  -33.2810 H   0  0  0  0  0  0  0  0  0  0  0  0
  -23.6470   -1.6030  -34.8850 H   0  0  0  0  0  0  0  0  0  0  0  0
  -22.0450   -0.5540  -36.0790 H   0  0  0  0  0  0  0  0  0  0  0  0
  -21.0940   -1.0010  -34.6540 H   0  0  0  0  0  0  0  0  0  0  0  0
  -16.7460   -1.1230  -31.8110 H   0  0  0  0  0  0  0  0  0  0  0  0
  -20.8480   -0.5580  -32.4300 H   0  0  0  0  0  0  0  0  0  0  0  0
  -18.3710   -2.7740  -30.6110 H   0  0  0  0  0  0  0  0  0  0  0  0
  -20.1300   -2.5240  -30.7220 H   0  0  0  0  0  0  0  0  0  0  0  0
  -18.2500   -0.0450  -25.0370 H   0  0  0  0  0  0  0  0  0  0  0  0
  -16.8050    3.9620  -24.5170 H   0  0  0  0  0  0  0  0  0  0  0  0
  -17.2080    4.3410  -26.9510 H   0  0  0  0  0  0  0  0  0  0  0  0
  -18.1280    2.5050  -28.3710 H   0  0  0  0  0  0  0  0  0  0  0  0
  1  2  2  0  0  0  0
  1 10  1  0  0  0  0
  3  1  2  0  0  0  0
  4  1  1  0  0  0  0
  4  5  1  0  0  0  0
  5  6  1  0  0  0  0
  5 28  1  0  0  0  0
  6 30  1  0  0  0  0
  6 31  1  0  0  0  0
  7  6  1  0  0  0  0
  8  7  1  0  0  0  0
  8 32  1  0  0  0  0
  9  4  1  0  0  0  0
  9 35  1  0  0  0  0
  9  8  1  0  0  0  0
 10 11  1  0  0  0  0
 10 14  2  0  0  0  0
 11 12  2  0  0  0  0
 12 36  1  0  0  0  0
 12 13  1  0  0  0  0
 13 15  1  0  0  0  0
 14 37  1  0  0  0  0
 14 13  1  0  0  0  0
 15 38  1  0  0  0  0
 15 16  1  0  0  0  0
 16 20  1  0  0  0  0
 16 17  2  0  0  0  0
 17 18  1  0  0  0  0
 19 18  1  0  0  0  0
 19 21  1  0  0  0  0
 20 19  2  0  0  0  0
 21 22  1  0  0  0  0
 22 40  1  0  0  0  0
 22 23  2  0  0  0  0
 23 27  1  0  0  0  0
 24 23  1  0  0  0  0
 24 41  1  0  0  0  0
 25 24  2  0  0  0  0
 26 21  2  0  0  0  0
 26 25  1  0  0  0  0
 29  5  1  0  0  0  0
 33  8  1  0  0  0  0
 34  9  1  0  0  0  0
 39 15  1  0  0  0  0
 42 25  1  0  0  0  0
 43 26  1  0  0  0  0
M  END
>  <Pose>
1

>  <Score>
-6.57

$$$$
