
 OpenBabel03222201593D

 47 50  0  0  1  0  0  0  0  0999 V2000
  -21.3470   -3.5230  -32.6500 S   0  0  0  0  0  0  0  0  0  0  0  0
  -21.7290   -1.8120  -33.2280 C   0  0  0  0  0  0  0  0  0  0  0  0
  -22.1640   -1.8530  -34.6430 C   0  0  0  0  0  0  0  0  0  0  0  0
  -23.0710   -0.9850  -35.1990 C   0  0  0  0  0  0  0  0  0  0  0  0
  -23.5430   -1.1410  -36.4560 C   0  0  0  0  0  0  0  0  0  0  0  0
  -23.1270   -2.1920  -37.2640 C   0  0  0  0  0  0  0  0  0  0  0  0
  -22.2030   -3.1000  -36.7260 C   0  0  0  0  0  0  0  0  0  0  0  0
  -21.7320   -2.9310  -35.4390 C   0  0  0  0  0  0  0  0  0  0  0  0
  -23.5240    0.5390  -34.1360 B   0  0  0  0  0  0  0  0  0  0  0  0
  -20.6790   -3.4850  -30.9810 C   0  0  0  0  0  0  0  0  0  0  0  0
  -20.0250   -2.4680  -30.4200 N   0  0  0  0  0  0  0  0  0  0  0  0
  -19.7800   -2.8230  -29.1310 C   0  0  0  0  0  0  0  0  0  0  0  0
  -19.2480   -2.2620  -28.0350 N   0  0  0  0  0  0  0  0  0  0  0  0
  -19.1830   -2.8190  -26.8210 C   0  0  0  0  0  0  0  0  0  0  0  0
  -19.7000   -4.0990  -26.6710 N   0  0  0  0  0  0  0  0  0  0  0  0
  -20.2410   -4.7260  -27.6860 C   0  0  0  0  0  0  0  0  0  0  0  0
  -20.3050   -4.1280  -28.9280 C   0  0  0  0  0  0  0  0  0  0  0  0
  -20.8440   -4.4750  -30.0910 N   0  0  0  0  0  0  0  0  0  0  0  0
  -20.7580   -5.9940  -27.5940 O   0  0  0  0  0  0  0  0  0  0  0  0
  -18.6530   -2.1830  -25.6490 N   0  0  0  0  0  0  0  0  0  0  0  0
  -19.5770   -1.2310  -30.9730 C   0  0  2  0  0  0  0  0  0  0  0  0
  -20.5350   -0.5830  -31.7840 O   0  0  0  0  0  0  0  0  0  0  0  0
  -19.7270    0.4610  -32.2910 C   0  0  1  0  0  0  0  0  0  0  0  0
  -18.6470   -0.4230  -32.9660 C   0  0  2  0  0  0  0  0  0  0  0  0
  -18.2900   -1.2620  -31.7310 C   0  0  1  0  0  0  0  0  0  0  0  0
  -17.2700   -0.5540  -31.0450 O   0  0  0  0  0  0  0  0  0  0  0  0
  -17.5920    0.3080  -33.4420 O   0  0  0  0  0  0  0  0  0  0  0  0
  -20.4480    1.3110  -33.2660 C   0  0  0  0  0  0  0  0  0  0  0  0
  -19.8120    2.5510  -33.4070 O   0  0  0  0  0  0  0  0  0  0  0  0
  -20.8890   -1.1920  -33.0670 H   0  0  0  0  0  0  0  0  0  0  0  0
  -22.6340   -1.5160  -32.5680 H   0  0  0  0  0  0  0  0  0  0  0  0
  -24.2530   -0.4330  -36.8460 H   0  0  0  0  0  0  0  0  0  0  0  0
  -23.4860   -2.2900  -38.2750 H   0  0  0  0  0  0  0  0  0  0  0  0
  -21.8510   -3.9510  -37.3130 H   0  0  0  0  0  0  0  0  0  0  0  0
  -21.0660   -3.6420  -35.0310 H   0  0  0  0  0  0  0  0  0  0  0  0
  -20.4620   -6.6740  -26.9040 H   0  0  0  0  0  0  0  0  0  0  0  0
  -19.1040   -1.4670  -25.0830 H   0  0  0  0  0  0  0  0  0  0  0  0
  -17.6540   -2.4660  -25.3550 H   0  0  0  0  0  0  0  0  0  0  0  0
  -19.4340   -0.4960  -30.1310 H   0  0  0  0  0  0  0  0  0  0  0  0
  -19.2410    1.0040  -31.4790 H   0  0  0  0  0  0  0  0  0  0  0  0
  -19.1040   -1.0510  -33.7520 H   0  0  0  0  0  0  0  0  0  0  0  0
  -17.8720   -2.2090  -31.9770 H   0  0  0  0  0  0  0  0  0  0  0  0
  -16.4470   -0.7920  -31.5270 H   0  0  0  0  0  0  0  0  0  0  0  0
  -16.8680   -0.2930  -33.7410 H   0  0  0  0  0  0  0  0  0  0  0  0
  -21.4350    1.5870  -32.7730 H   0  0  0  0  0  0  0  0  0  0  0  0
  -20.6950    0.8160  -34.1930 H   0  0  0  0  0  0  0  0  0  0  0  0
  -19.8970    3.0270  -32.5250 H   0  0  0  0  0  0  0  0  0  0  0  0
  1 10  1  0  0  0  0
  2 30  1  0  0  0  0
  2  1  1  0  0  0  0
  2 31  1  0  0  0  0
  3  2  1  0  0  0  0
  4  3  1  0  0  0  0
  4  9  1  0  0  0  0
  5  4  2  0  0  0  0
  6  7  2  0  0  0  0
  6  5  1  0  0  0  0
  7  8  1  0  0  0  0
  8 35  1  0  0  0  0
  8  3  2  0  0  0  0
 10 11  1  0  0  0  0
 10 18  2  0  0  0  0
 11 12  1  0  0  0  0
 12 17  2  0  0  0  0
 12 13  1  0  0  0  0
 13 14  2  0  0  0  0
 14 15  1  0  0  0  0
 14 20  1  0  0  0  0
 16 19  1  0  0  0  0
 16 15  2  0  0  0  0
 17 16  1  0  0  0  0
 18 17  1  0  0  0  0
 19 36  1  0  0  0  0
 20 38  1  0  0  0  0
 20 37  1  0  0  0  0
 21 11  1  0  0  0  0
 21 39  1  1  0  0  0
 22 21  1  0  0  0  0
 23 22  1  0  0  0  0
 23 40  1  1  0  0  0
 24 41  1  6  0  0  0
 24 23  1  0  0  0  0
 24 25  1  0  0  0  0
 25 42  1  6  0  0  0
 25 26  1  0  0  0  0
 25 21  1  0  0  0  0
 27 24  1  0  0  0  0
 28 45  1  0  0  0  0
 28 23  1  0  0  0  0
 29 28  1  0  0  0  0
 29 47  1  0  0  0  0
 32  5  1  0  0  0  0
 33  6  1  0  0  0  0
 34  7  1  0  0  0  0
 43 26  1  0  0  0  0
 44 27  1  0  0  0  0
 46 28  1  0  0  0  0
M  END
>  <Pose>
1

>  <Score>
-7.61

$$$$
