
 OpenBabel03222201593D

 36 39  0  0  1  0  0  0  0  0999 V2000
  -19.3360    0.3320  -35.7960 S   0  0  0  0  0  0  0  0  0  0  0  0
  -19.8810    0.7000  -34.2230 C   0  0  0  0  0  0  0  0  0  0  0  0
  -21.2090    0.3640  -34.2760 C   0  0  0  0  0  0  0  0  0  0  0  0
  -21.6810   -0.1140  -35.4290 C   0  0  0  0  0  0  0  0  0  0  0  0
  -20.7960   -0.2310  -36.4700 C   0  0  0  0  0  0  0  0  0  0  0  0
  -23.5280   -0.6440  -35.7000 B   0  0  0  0  0  0  0  0  0  0  0  0
  -19.1300    1.2460  -33.0690 C   0  0  0  0  0  0  0  0  0  0  0  0
  -18.2660    2.1150  -33.3420 O   0  0  0  0  0  0  0  0  0  0  0  0
  -19.3880    0.8000  -31.7530 N   0  0  0  0  0  0  0  0  0  0  0  0
  -20.3360   -0.2680  -31.4730 C   0  0  2  0  0  0  0  0  0  0  0  0
  -20.7240   -0.3060  -30.0170 C   0  0  0  0  0  0  0  0  0  0  0  0
  -19.5070   -0.8160  -29.4020 N   0  0  0  0  0  0  0  0  0  0  0  0
  -19.1090   -1.9360  -30.2210 C   0  0  0  0  0  0  0  0  0  0  0  0
  -19.5900   -1.5770  -31.6140 C   0  0  0  0  0  0  0  0  0  0  0  0
  -18.8810   -0.2750  -28.2280 C   0  0  0  0  0  0  0  0  0  0  0  0
  -18.5380    1.0250  -28.1580 N   0  0  0  0  0  0  0  0  0  0  0  0
  -17.9530    1.5010  -27.0460 C   0  0  0  0  0  0  0  0  0  0  0  0
  -17.6860    0.7030  -25.9640 C   0  0  0  0  0  0  0  0  0  0  0  0
  -18.0220   -0.5980  -26.0170 N   0  0  0  0  0  0  0  0  0  0  0  0
  -18.6080   -1.0650  -27.1370 C   0  0  0  0  0  0  0  0  0  0  0  0
  -18.8210   -2.3730  -26.8950 N   0  0  0  0  0  0  0  0  0  0  0  0
  -18.3920   -2.7100  -25.6910 N   0  0  0  0  0  0  0  0  0  0  0  0
  -17.8850   -1.6040  -25.1210 C   0  0  0  0  0  0  0  0  0  0  0  0
  -21.8280    0.5050  -33.3630 H   0  0  0  0  0  0  0  0  0  0  0  0
  -20.9520   -0.5940  -37.4950 H   0  0  0  0  0  0  0  0  0  0  0  0
  -18.8730    1.2620  -30.9710 H   0  0  0  0  0  0  0  0  0  0  0  0
  -21.2320   -0.2040  -32.0890 H   0  0  0  0  0  0  0  0  0  0  0  0
  -21.0400    0.6540  -29.6110 H   0  0  0  0  0  0  0  0  0  0  0  0
  -21.5050   -1.0830  -29.9100 H   0  0  0  0  0  0  0  0  0  0  0  0
  -18.0420   -2.1710  -30.1980 H   0  0  0  0  0  0  0  0  0  0  0  0
  -19.7050   -2.8090  -29.8810 H   0  0  0  0  0  0  0  0  0  0  0  0
  -18.6890   -1.4750  -32.2610 H   0  0  0  0  0  0  0  0  0  0  0  0
  -20.2880   -2.3460  -32.0100 H   0  0  0  0  0  0  0  0  0  0  0  0
  -17.6800    2.5590  -27.0020 H   0  0  0  0  0  0  0  0  0  0  0  0
  -17.2140    1.0830  -25.0640 H   0  0  0  0  0  0  0  0  0  0  0  0
  -17.4500   -1.5120  -24.1480 H   0  0  0  0  0  0  0  0  0  0  0  0
  1  2  1  0  0  0  0
  2  7  1  0  0  0  0
  3  2  2  0  0  0  0
  3 24  1  0  0  0  0
  4  3  1  0  0  0  0
  5  1  1  0  0  0  0
  5  4  2  0  0  0  0
  6  4  1  0  0  0  0
  7  9  1  0  0  0  0
  8  7  2  0  0  0  0
  9 10  1  0  0  0  0
  9 26  1  0  0  0  0
 10 27  1  6  0  0  0
 10 11  1  0  0  0  0
 11 29  1  0  0  0  0
 11 28  1  0  0  0  0
 11 12  1  0  0  0  0
 12 15  1  0  0  0  0
 13 30  1  0  0  0  0
 13 31  1  0  0  0  0
 13 12  1  0  0  0  0
 14 10  1  0  0  0  0
 14 13  1  0  0  0  0
 15 16  2  0  0  0  0
 15 20  1  0  0  0  0
 16 17  1  0  0  0  0
 17 34  1  0  0  0  0
 17 18  2  0  0  0  0
 18 35  1  0  0  0  0
 19 18  1  0  0  0  0
 19 23  1  0  0  0  0
 20 21  2  0  0  0  0
 20 19  1  0  0  0  0
 21 22  1  0  0  0  0
 22 23  2  0  0  0  0
 23 36  1  0  0  0  0
 25  5  1  0  0  0  0
 32 14  1  0  0  0  0
 33 14  1  0  0  0  0
M  END
>  <Pose>
1

>  <Score>
-6.44

$$$$
