
 OpenBabel03222201593D

 34 37  0  0  1  0  0  0  0  0999 V2000
  -24.0900   -0.2310  -38.1710 S   0  0  0  0  0  0  0  0  0  0  0  0
  -23.6720   -1.8750  -38.0670 C   0  0  0  0  0  0  0  0  0  0  0  0
  -23.3570   -2.0410  -36.7440 C   0  0  0  0  0  0  0  0  0  0  0  0
  -23.4550   -0.9480  -35.9540 C   0  0  0  0  0  0  0  0  0  0  0  0
  -23.8590    0.2150  -36.5460 C   0  0  0  0  0  0  0  0  0  0  0  0
  -23.1380   -1.0040  -34.4710 C   0  0  1  0  0  0  0  0  0  0  0  0
  -21.6300   -0.9540  -34.1880 C   0  0  1  0  0  0  0  0  0  0  0  0
  -22.5260    0.1800  -33.8640 C   0  0  0  0  0  0  0  0  0  0  0  0
  -21.1990   -1.8890  -33.0900 C   0  0  0  0  0  0  0  0  0  0  0  0
  -20.8580   -1.5720  -31.8280 N   0  0  0  0  0  0  0  0  0  0  0  0
  -20.5310   -2.6800  -31.1420 C   0  0  0  0  0  0  0  0  0  0  0  0
  -20.6800   -3.6870  -32.0190 N   0  0  0  0  0  0  0  0  0  0  0  0
  -21.0780   -3.1930  -33.1700 O   0  0  0  0  0  0  0  0  0  0  0  0
  -20.1030   -2.7970  -29.7480 C   0  0  0  0  0  0  0  0  0  0  0  0
  -19.1980   -2.0200  -29.1290 N   0  0  0  0  0  0  0  0  0  0  0  0
  -19.0520   -2.4100  -27.8580 N   0  0  0  0  0  0  0  0  0  0  0  0
  -19.8780   -3.4600  -27.6450 C   0  0  0  0  0  0  0  0  0  0  0  0
  -20.5110   -3.6780  -28.8210 N   0  0  0  0  0  0  0  0  0  0  0  0
  -18.1660   -1.8170  -26.8710 C   0  0  0  0  0  0  0  0  0  0  0  0
  -18.4830   -2.3910  -25.5460 C   0  0  0  0  0  0  0  0  0  0  0  0
  -18.8640   -3.5800  -25.4840 O   0  0  0  0  0  0  0  0  0  0  0  0
  -18.3530   -1.5990  -24.3810 N   0  0  0  0  0  0  0  0  0  0  0  0
  -23.6380   -3.2210  -39.4510 B   0  0  0  0  0  0  0  0  0  0  0  0
  -23.0370   -3.0560  -36.3830 H   0  0  0  0  0  0  0  0  0  0  0  0
  -23.9900    1.1960  -36.0440 H   0  0  0  0  0  0  0  0  0  0  0  0
  -23.7590   -1.6310  -33.8300 H   0  0  0  0  0  0  0  0  0  0  0  0
  -20.9440   -0.8850  -35.0300 H   0  0  0  0  0  0  0  0  0  0  0  0
  -22.6750    0.3570  -32.7670 H   0  0  0  0  0  0  0  0  0  0  0  0
  -22.3710    1.0970  -34.4750 H   0  0  0  0  0  0  0  0  0  0  0  0
  -19.9800   -3.9900  -26.7100 H   0  0  0  0  0  0  0  0  0  0  0  0
  -18.2760   -0.7170  -26.9100 H   0  0  0  0  0  0  0  0  0  0  0  0
  -17.1030   -2.0770  -27.0850 H   0  0  0  0  0  0  0  0  0  0  0  0
  -19.0940   -0.9010  -24.0980 H   0  0  0  0  0  0  0  0  0  0  0  0
  -17.5320   -1.6480  -23.7300 H   0  0  0  0  0  0  0  0  0  0  0  0
  1  2  1  0  0  0  0
  1  5  1  0  0  0  0
  2  3  2  0  0  0  0
  3 24  1  0  0  0  0
  3  4  1  0  0  0  0
  4  6  1  0  0  0  0
  5 25  1  0  0  0  0
  5  4  2  0  0  0  0
  6  7  1  0  0  0  0
  6  8  1  0  0  0  0
  6 26  1  1  0  0  0
  7 27  1  6  0  0  0
  7  8  1  0  0  0  0
  7  9  1  0  0  0  0
  8 28  1  0  0  0  0
  9 10  2  0  0  0  0
 10 11  1  0  0  0  0
 11 14  1  0  0  0  0
 12 11  2  0  0  0  0
 13  9  1  0  0  0  0
 13 12  1  0  0  0  0
 14 15  2  0  0  0  0
 14 18  1  0  0  0  0
 15 16  1  0  0  0  0
 16 17  1  0  0  0  0
 16 19  1  0  0  0  0
 17 30  1  0  0  0  0
 18 17  2  0  0  0  0
 19 20  1  0  0  0  0
 20 21  2  0  0  0  0
 20 22  1  0  0  0  0
 22 33  1  0  0  0  0
 22 34  1  0  0  0  0
 23  2  1  0  0  0  0
 29  8  1  0  0  0  0
 31 19  1  0  0  0  0
 32 19  1  0  0  0  0
M  END
>  <Pose>
1

>  <Score>
-7.02

$$$$
