
 OpenBabel03222201593D

 51 54  0  0  0  0  0  0  0  0999 V2000
  -18.2500    1.5460  -26.5230 S   0  0  0  0  0  0  0  0  0  0  0  0
  -17.9090    0.8750  -24.9990 C   0  0  0  0  0  0  0  0  0  0  0  0
  -17.9750   -0.4700  -25.2390 C   0  0  0  0  0  0  0  0  0  0  0  0
  -18.2620   -0.8640  -26.4810 C   0  0  0  0  0  0  0  0  0  0  0  0
  -18.4680    0.1090  -27.4270 C   0  0  0  0  0  0  0  0  0  0  0  0
  -18.7840   -0.0720  -28.8480 C   0  0  0  0  0  0  0  0  0  0  0  0
  -19.9060    0.3340  -29.2400 O   0  0  0  0  0  0  0  0  0  0  0  0
  -17.8270   -0.7030  -29.7900 C   0  0  0  0  0  0  0  0  0  0  0  0
  -18.4950   -1.2850  -30.9270 N   0  0  0  0  0  0  0  0  0  0  0  0
  -19.4700   -2.2220  -30.8450 C   0  0  0  0  0  0  0  0  0  0  0  0
  -19.8880   -2.5610  -32.0960 C   0  0  0  0  0  0  0  0  0  0  0  0
  -20.8820   -3.5070  -32.2710 C   0  0  0  0  0  0  0  0  0  0  0  0
  -21.4420   -4.1000  -31.1640 C   0  0  0  0  0  0  0  0  0  0  0  0
  -21.0380   -3.7770  -29.8940 C   0  0  0  0  0  0  0  0  0  0  0  0
  -20.0470   -2.8310  -29.7540 C   0  0  0  0  0  0  0  0  0  0  0  0
  -19.1690   -1.8270  -32.9520 N   0  0  0  0  0  0  0  0  0  0  0  0
  -18.3170   -1.0460  -32.2290 C   0  0  0  0  0  0  0  0  0  0  0  0
  -17.5220   -0.2360  -32.8230 N   0  0  0  0  0  0  0  0  0  0  0  0
  -19.2900   -1.8890  -34.4020 C   0  0  0  0  0  0  0  0  0  0  0  0
  -19.7510   -0.5120  -34.9030 C   0  0  0  0  0  0  0  0  0  0  0  0
  -20.0410   -0.5210  -36.3070 N   0  0  0  0  0  4  0  0  0  0  0  0
  -21.2040    0.2620  -36.6750 C   0  0  0  0  0  0  0  0  0  0  0  0
  -21.1370    1.6590  -36.1280 C   0  0  0  0  0  0  0  0  0  0  0  0
  -19.8270    2.3290  -36.3740 C   0  0  0  0  0  0  0  0  0  0  0  0
  -18.6510    1.4300  -36.5060 C   0  0  0  0  0  0  0  0  0  0  0  0
  -18.9210    0.0570  -37.0090 C   0  0  0  0  0  0  0  0  0  0  0  0
  -17.5320    1.7980  -23.3730 B   0  0  0  0  0  0  0  0  0  0  0  0
  -17.7870   -1.1740  -24.3910 H   0  0  0  0  0  0  0  0  0  0  0  0
  -18.3330   -1.9410  -26.7620 H   0  0  0  0  0  0  0  0  0  0  0  0
  -17.1780   -1.4490  -29.2600 H   0  0  0  0  0  0  0  0  0  0  0  0
  -17.1080    0.0740  -30.1490 H   0  0  0  0  0  0  0  0  0  0  0  0
  -21.1860   -3.7500  -33.2830 H   0  0  0  0  0  0  0  0  0  0  0  0
  -22.2200   -4.8460  -31.2560 H   0  0  0  0  0  0  0  0  0  0  0  0
  -21.4590   -4.2270  -28.9990 H   0  0  0  0  0  0  0  0  0  0  0  0
  -19.7040   -2.5510  -28.7770 H   0  0  0  0  0  0  0  0  0  0  0  0
  -16.8460    0.4100  -32.4210 H   0  0  0  0  0  0  0  0  0  0  0  0
  -20.0110   -2.6570  -34.7460 H   0  0  0  0  0  0  0  0  0  0  0  0
  -18.2910   -2.0450  -34.8780 H   0  0  0  0  0  0  0  0  0  0  0  0
  -18.8860    0.1670  -34.7360 H   0  0  0  0  0  0  0  0  0  0  0  0
  -20.6350   -0.2650  -34.2830 H   0  0  0  0  0  0  0  0  0  0  0  0
  -20.2380   -1.4920  -36.6330 H   0  0  0  0  0  0  0  0  0  0  0  0
  -21.2370    0.2860  -37.7770 H   0  0  0  0  0  0  0  0  0  0  0  0
  -22.1130   -0.2300  -36.2790 H   0  0  0  0  0  0  0  0  0  0  0  0
  -21.4230    1.6770  -35.0370 H   0  0  0  0  0  0  0  0  0  0  0  0
  -21.9350    2.2410  -36.6390 H   0  0  0  0  0  0  0  0  0  0  0  0
  -19.9130    2.9650  -37.2870 H   0  0  0  0  0  0  0  0  0  0  0  0
  -19.6300    3.0210  -35.5030 H   0  0  0  0  0  0  0  0  0  0  0  0
  -17.9170    1.9540  -37.1920 H   0  0  0  0  0  0  0  0  0  0  0  0
  -18.1030    1.3730  -35.5360 H   0  0  0  0  0  0  0  0  0  0  0  0
  -19.0890    0.0740  -38.1090 H   0  0  0  0  0  0  0  0  0  0  0  0
  -18.0400   -0.5740  -36.7490 H   0  0  0  0  0  0  0  0  0  0  0  0
  1  2  1  0  0  0  0
  2 27  1  0  0  0  0
  3  2  2  0  0  0  0
  3 28  1  0  0  0  0
  4  3  1  0  0  0  0
  5  1  1  0  0  0  0
  5  4  2  0  0  0  0
  6  5  1  0  0  0  0
  7  6  2  0  0  0  0
  8 30  1  0  0  0  0
  8  6  1  0  0  0  0
  9 10  1  0  0  0  0
  9  8  1  0  0  0  0
 10 15  1  0  0  0  0
 11 10  2  0  0  0  0
 12 11  1  0  0  0  0
 12 13  2  0  0  0  0
 13 14  1  0  0  0  0
 14 15  2  0  0  0  0
 14 34  1  0  0  0  0
 15 35  1  0  0  0  0
 16 17  1  0  0  0  0
 16 11  1  0  0  0  0
 17  9  1  0  0  0  0
 18 36  1  0  0  0  0
 18 17  2  0  0  0  0
 19 16  1  0  0  0  0
 20 39  1  0  0  0  0
 20 19  1  0  0  0  0
 20 40  1  0  0  0  0
 21 20  1  0  0  0  0
 22 21  1  0  0  0  0
 22 43  1  0  0  0  0
 22 23  1  0  0  0  0
 23 44  1  0  0  0  0
 24 23  1  0  0  0  0
 24 47  1  0  0  0  0
 25 24  1  0  0  0  0
 25 49  1  0  0  0  0
 26 51  1  0  0  0  0
 26 25  1  0  0  0  0
 26 21  1  0  0  0  0
 29  4  1  0  0  0  0
 31  8  1  0  0  0  0
 32 12  1  0  0  0  0
 33 13  1  0  0  0  0
 37 19  1  0  0  0  0
 38 19  1  0  0  0  0
 41 21  1  0  0  0  0
 42 22  1  0  0  0  0
 45 23  1  0  0  0  0
 46 24  1  0  0  0  0
 48 25  1  0  0  0  0
 50 26  1  0  0  0  0
M  END
>  <Pose>
1

>  <Score>
-6.89

$$$$
