
 OpenBabel03222201593D

 58 61  0  0  1  0  0  0  0  0999 V2000
  -19.6120   -1.1480  -29.2100 S   0  0  0  0  0  0  0  0  0  0  0  0
  -19.5480   -2.3870  -28.0400 C   0  0  0  0  0  0  0  0  0  0  0  0
  -20.0690   -3.4110  -28.6900 N   0  0  0  0  0  0  0  0  0  0  0  0
  -20.4650   -3.2700  -29.9200 C   0  0  0  0  0  0  0  0  0  0  0  0
  -20.3200   -2.0330  -30.4920 C   0  0  0  0  0  0  0  0  0  0  0  0
  -20.6110   -1.5410  -31.8370 C   0  0  0  0  0  0  0  0  0  0  0  0
  -19.6560   -1.0470  -32.6030 C   0  0  0  0  0  0  0  0  0  0  0  0
  -19.7690   -0.4950  -33.9940 C   0  0  2  0  0  0  0  0  0  0  0  0
  -18.7670    0.5240  -34.0380 N   0  0  0  0  0  0  0  0  0  0  0  0
  -17.6930    0.0070  -33.2030 C   0  0  0  0  0  0  0  0  0  0  0  0
  -16.5000    0.4010  -33.3020 O   0  0  0  0  0  0  0  0  0  0  0  0
  -18.2340   -0.9870  -32.2930 C   0  0  0  0  0  0  0  0  0  0  0  0
  -17.6020   -1.6630  -31.4150 O   0  0  0  0  0  0  0  0  0  0  0  0
  -18.6970    1.7610  -34.7570 C   0  0  0  0  0  0  0  0  0  0  0  0
  -18.9360    3.0040  -33.9620 C   0  0  0  0  0  0  0  0  0  0  0  0
  -17.6700    3.8740  -33.9200 C   0  0  0  0  0  0  0  0  0  0  0  0
  -18.0410    5.1810  -33.4940 N   0  0  0  0  0  4  0  0  0  0  0  0
  -18.0230    5.4180  -32.0860 C   0  0  0  0  0  0  0  0  0  0  0  0
  -16.6320    5.5810  -31.5210 C   0  0  0  0  0  0  0  0  0  0  0  0
  -15.7320    5.3810  -32.5910 O   0  0  0  0  0  0  0  0  0  0  0  0
  -15.9470    6.4780  -33.4500 C   0  0  0  0  0  0  0  0  0  0  0  0
  -17.2640    6.2170  -34.1500 C   0  0  0  0  0  0  0  0  0  0  0  0
  -21.1360   -0.1070  -34.3170 C   0  0  0  0  0  0  0  0  0  0  0  0
  -21.7440   -0.7130  -35.4270 C   0  0  0  0  0  0  0  0  0  0  0  0
  -23.0320   -0.4490  -35.8170 C   0  0  0  0  0  0  0  0  0  0  0  0
  -23.7850    0.4480  -35.1010 C   0  0  0  0  0  0  0  0  0  0  0  0
  -23.2200    1.0660  -33.9960 C   0  0  0  0  0  0  0  0  0  0  0  0
  -21.9210    0.7760  -33.6350 C   0  0  0  0  0  0  0  0  0  0  0  0
  -23.8340   -1.2890  -37.3330 B   0  0  0  0  0  0  0  0  0  0  0  0
  -21.9320   -1.5900  -32.3380 O   0  0  0  0  0  0  0  0  0  0  0  0
  -21.0260   -4.4660  -30.6780 C   0  0  0  0  0  0  0  0  0  0  0  0
  -19.0290   -2.3320  -26.6220 C   0  0  0  0  0  0  0  0  0  0  0  0
  -19.4680   -1.3630  -34.6550 H   0  0  0  0  0  0  0  0  0  0  0  0
  -19.5080    1.7080  -35.5360 H   0  0  0  0  0  0  0  0  0  0  0  0
  -17.7050    1.8550  -35.2600 H   0  0  0  0  0  0  0  0  0  0  0  0
  -19.7350    3.6550  -34.2850 H   0  0  0  0  0  0  0  0  0  0  0  0
  -19.0650    2.6620  -32.8900 H   0  0  0  0  0  0  0  0  0  0  0  0
  -17.2070    3.9350  -34.9240 H   0  0  0  0  0  0  0  0  0  0  0  0
  -16.9780    3.3540  -33.2240 H   0  0  0  0  0  0  0  0  0  0  0  0
  -19.0440    5.3380  -33.8140 H   0  0  0  0  0  0  0  0  0  0  0  0
  -18.5610    4.7050  -31.4640 H   0  0  0  0  0  0  0  0  0  0  0  0
  -18.5460    6.4080  -31.9290 H   0  0  0  0  0  0  0  0  0  0  0  0
  -16.4150    4.9460  -30.6590 H   0  0  0  0  0  0  0  0  0  0  0  0
  -16.4340    6.6370  -31.1910 H   0  0  0  0  0  0  0  0  0  0  0  0
  -16.1100    7.3670  -32.7850 H   0  0  0  0  0  0  0  0  0  0  0  0
  -15.1130    6.6670  -34.1230 H   0  0  0  0  0  0  0  0  0  0  0  0
  -17.8770    7.1310  -34.2080 H   0  0  0  0  0  0  0  0  0  0  0  0
  -17.0500    5.8640  -35.1850 H   0  0  0  0  0  0  0  0  0  0  0  0
  -21.1820   -1.4310  -36.0240 H   0  0  0  0  0  0  0  0  0  0  0  0
  -24.7960    0.6440  -35.4190 H   0  0  0  0  0  0  0  0  0  0  0  0
  -23.7790    1.7700  -33.4180 H   0  0  0  0  0  0  0  0  0  0  0  0
  -21.4980    1.2540  -32.7630 H   0  0  0  0  0  0  0  0  0  0  0  0
  -21.0010   -4.2630  -31.7440 H   0  0  0  0  0  0  0  0  0  0  0  0
  -22.0260   -4.7260  -30.2760 H   0  0  0  0  0  0  0  0  0  0  0  0
  -20.3890   -5.3610  -30.4940 H   0  0  0  0  0  0  0  0  0  0  0  0
  -19.8020   -2.6190  -25.9030 H   0  0  0  0  0  0  0  0  0  0  0  0
  -18.1650   -3.0330  -26.6070 H   0  0  0  0  0  0  0  0  0  0  0  0
  -18.6250   -1.3100  -26.4730 H   0  0  0  0  0  0  0  0  0  0  0  0
  1  2  1  0  0  0  0
  2 32  1  0  0  0  0
  3  2  2  0  0  0  0
  4  3  1  0  0  0  0
  5  4  2  0  0  0  0
  5  1  1  0  0  0  0
  6  5  1  0  0  0  0
  7 12  1  0  0  0  0
  7  6  2  0  0  0  0
  8 33  1  6  0  0  0
  8  7  1  0  0  0  0
  9  8  1  0  0  0  0
  9 10  1  0  0  0  0
 10 12  1  0  0  0  0
 11 10  2  0  0  0  0
 12 13  2  0  0  0  0
 14  9  1  0  0  0  0
 14 15  1  0  0  0  0
 15 16  1  0  0  0  0
 15 37  1  0  0  0  0
 16 17  1  0  0  0  0
 16 39  1  0  0  0  0
 17 18  1  0  0  0  0
 18 42  1  0  0  0  0
 18 19  1  0  0  0  0
 18 41  1  0  0  0  0
 19 44  1  0  0  0  0
 19 43  1  0  0  0  0
 20 19  1  0  0  0  0
 21 45  1  0  0  0  0
 21 20  1  0  0  0  0
 22 17  1  0  0  0  0
 22 21  1  0  0  0  0
 23  8  1  0  0  0  0
 23 28  1  0  0  0  0
 24 23  2  0  0  0  0
 25 24  1  0  0  0  0
 25 26  2  0  0  0  0
 26 27  1  0  0  0  0
 27 28  2  0  0  0  0
 27 51  1  0  0  0  0
 28 52  1  0  0  0  0
 29 25  1  0  0  0  0
 30  6  1  0  0  0  0
 31 55  1  0  0  0  0
 31 54  1  0  0  0  0
 31  4  1  0  0  0  0
 32 57  1  0  0  0  0
 32 58  1  0  0  0  0
 32 56  1  0  0  0  0
 34 14  1  0  0  0  0
 35 14  1  0  0  0  0
 36 15  1  0  0  0  0
 38 16  1  0  0  0  0
 40 17  1  0  0  0  0
 46 21  1  0  0  0  0
 47 22  1  0  0  0  0
 48 22  1  0  0  0  0
 49 24  1  0  0  0  0
 50 26  1  0  0  0  0
 53 31  1  0  0  0  0
M  END
>  <Pose>
1

>  <Score>
-5.77

$$$$
