
 OpenBabel03222201593D

 55 58  0  0  1  0  0  0  0  0999 V2000
  -18.0660    1.1110  -24.3280 S   0  0  0  0  0  0  0  0  0  0  0  0
  -17.3070    2.4440  -23.5920 C   0  0  0  0  0  0  0  0  0  0  0  0
  -17.0030    3.2020  -24.6270 N   0  0  0  0  0  0  0  0  0  0  0  0
  -17.3070    2.8190  -25.8280 C   0  0  0  0  0  0  0  0  0  0  0  0
  -17.9500    1.6120  -25.9720 C   0  0  0  0  0  0  0  0  0  0  0  0
  -18.3810    0.9020  -27.1860 C   0  0  0  0  0  0  0  0  0  0  0  0
  -18.3090   -0.4120  -27.1650 C   0  0  0  0  0  0  0  0  0  0  0  0
  -18.6760   -1.3970  -28.2280 C   0  0  1  0  0  0  0  0  0  0  0  0
  -19.3980   -2.3470  -27.4740 N   0  0  0  0  0  0  0  0  0  0  0  0
  -18.5040   -2.5630  -26.3130 C   0  0  0  0  0  0  0  0  0  0  0  0
  -18.3810   -3.6190  -25.6360 O   0  0  0  0  0  0  0  0  0  0  0  0
  -17.8010   -1.3000  -26.1190 C   0  0  0  0  0  0  0  0  0  0  0  0
  -16.9280   -0.9710  -25.2570 O   0  0  0  0  0  0  0  0  0  0  0  0
  -20.5780   -3.1410  -27.5330 C   0  0  0  0  0  0  0  0  0  0  0  0
  -20.6360   -4.3190  -28.4080 C   0  0  0  0  0  0  0  0  0  0  0  0
  -21.1310   -4.2550  -29.7220 N   0  0  0  0  0  4  0  0  0  0  0  0
  -20.3900   -3.3820  -30.6080 C   0  0  0  0  0  0  0  0  0  0  0  0
  -21.1660   -3.3500  -31.9210 C   0  0  0  0  0  0  0  0  0  0  0  0
  -22.0750   -4.4050  -31.9900 O   0  0  0  0  0  0  0  0  0  0  0  0
  -21.3230   -5.5680  -31.7270 C   0  0  0  0  0  0  0  0  0  0  0  0
  -20.8630   -5.6140  -30.2980 C   0  0  0  0  0  0  0  0  0  0  0  0
  -19.0540   -0.8850  -29.4990 C   0  0  0  0  0  0  0  0  0  0  0  0
  -18.1010   -0.8360  -30.5210 C   0  0  0  0  0  0  0  0  0  0  0  0
  -18.3780   -0.3420  -31.7690 C   0  0  0  0  0  0  0  0  0  0  0  0
  -19.6530    0.1230  -32.0140 C   0  0  0  0  0  0  0  0  0  0  0  0
  -20.6070    0.0840  -31.0180 C   0  0  0  0  0  0  0  0  0  0  0  0
  -20.3060   -0.4170  -29.7730 C   0  0  0  0  0  0  0  0  0  0  0  0
  -20.1230    0.8290  -33.7280 B   0  0  0  0  0  0  0  0  0  0  0  0
  -18.8460    1.5520  -28.3150 O   0  0  0  0  0  0  0  0  0  0  0  0
  -16.9260    3.6580  -27.0390 C   0  0  0  0  0  0  0  0  0  0  0  0
  -17.0490    2.7010  -22.1320 C   0  0  0  0  0  0  0  0  0  0  0  0
  -17.6560   -1.9220  -28.4060 H   0  0  0  0  0  0  0  0  0  0  0  0
  -21.4370   -2.4650  -27.8500 H   0  0  0  0  0  0  0  0  0  0  0  0
  -20.9170   -3.4870  -26.5220 H   0  0  0  0  0  0  0  0  0  0  0  0
  -21.2730   -5.0970  -27.8710 H   0  0  0  0  0  0  0  0  0  0  0  0
  -19.5900   -4.7800  -28.3940 H   0  0  0  0  0  0  0  0  0  0  0  0
  -22.1500   -4.1410  -29.7470 H   0  0  0  0  0  0  0  0  0  0  0  0
  -20.3190   -2.3510  -30.2560 H   0  0  0  0  0  0  0  0  0  0  0  0
  -19.3780   -3.8350  -30.7620 H   0  0  0  0  0  0  0  0  0  0  0  0
  -20.3920   -3.4130  -32.7320 H   0  0  0  0  0  0  0  0  0  0  0  0
  -21.7620   -2.4180  -32.0090 H   0  0  0  0  0  0  0  0  0  0  0  0
  -21.9050   -6.4670  -31.9870 H   0  0  0  0  0  0  0  0  0  0  0  0
  -20.4110   -5.4610  -32.3820 H   0  0  0  0  0  0  0  0  0  0  0  0
  -21.3690   -6.3540  -29.6810 H   0  0  0  0  0  0  0  0  0  0  0  0
  -19.7610   -5.7180  -30.2330 H   0  0  0  0  0  0  0  0  0  0  0  0
  -17.0730   -1.1980  -30.3540 H   0  0  0  0  0  0  0  0  0  0  0  0
  -17.6150   -0.3120  -32.5580 H   0  0  0  0  0  0  0  0  0  0  0  0
  -21.6070    0.4560  -31.2400 H   0  0  0  0  0  0  0  0  0  0  0  0
  -21.1110   -0.4090  -29.0020 H   0  0  0  0  0  0  0  0  0  0  0  0
  -15.8980    4.0510  -26.8610 H   0  0  0  0  0  0  0  0  0  0  0  0
  -17.5720    4.5230  -27.1650 H   0  0  0  0  0  0  0  0  0  0  0  0
  -16.9390    3.0440  -27.9480 H   0  0  0  0  0  0  0  0  0  0  0  0
  -16.0500    3.1390  -21.9640 H   0  0  0  0  0  0  0  0  0  0  0  0
  -17.1590    1.7080  -21.6050 H   0  0  0  0  0  0  0  0  0  0  0  0
  -17.8760    3.3370  -21.7610 H   0  0  0  0  0  0  0  0  0  0  0  0
  1  2  1  0  0  0  0
  2 31  1  0  0  0  0
  3  2  2  0  0  0  0
  4  3  1  0  0  0  0
  5  4  2  0  0  0  0
  5  1  1  0  0  0  0
  6  7  2  0  0  0  0
  6  5  1  0  0  0  0
  7 12  1  0  0  0  0
  8 32  1  6  0  0  0
  8  9  1  0  0  0  0
  8  7  1  0  0  0  0
  9 10  1  0  0  0  0
 10 12  1  0  0  0  0
 10 11  2  0  0  0  0
 12 13  2  0  0  0  0
 14  9  1  0  0  0  0
 14 34  1  0  0  0  0
 15 36  1  0  0  0  0
 15 35  1  0  0  0  0
 15 14  1  0  0  0  0
 16 15  1  0  0  0  0
 17 38  1  0  0  0  0
 17 16  1  0  0  0  0
 18 17  1  0  0  0  0
 19 18  1  0  0  0  0
 19 20  1  0  0  0  0
 20 21  1  0  0  0  0
 21 45  1  0  0  0  0
 21 16  1  0  0  0  0
 21 44  1  0  0  0  0
 22  8  1  0  0  0  0
 23 46  1  0  0  0  0
 23 22  2  0  0  0  0
 24 23  1  0  0  0  0
 25 24  2  0  0  0  0
 25 26  1  0  0  0  0
 26 27  2  0  0  0  0
 27 22  1  0  0  0  0
 27 49  1  0  0  0  0
 28 25  1  0  0  0  0
 29  6  1  0  0  0  0
 30 50  1  0  0  0  0
 30  4  1  0  0  0  0
 31 53  1  0  0  0  0
 31 55  1  0  0  0  0
 31 54  1  0  0  0  0
 33 14  1  0  0  0  0
 37 16  1  0  0  0  0
 39 17  1  0  0  0  0
 40 18  1  0  0  0  0
 41 18  1  0  0  0  0
 42 20  1  0  0  0  0
 43 20  1  0  0  0  0
 47 24  1  0  0  0  0
 48 26  1  0  0  0  0
 51 30  1  0  0  0  0
 52 30  1  0  0  0  0
M  END
>  <Pose>
1

>  <Score>
-7.38

$$$$
