
 OpenBabel03222201593D

 39 42  0  0  1  0  0  0  0  0999 V2000
  -21.7880   -1.8690  -34.1750 S   0  0  0  0  0  0  0  0  0  0  0  0
  -20.3460   -1.2160  -33.5090 C   0  0  0  0  0  0  0  0  0  0  0  0
  -20.6140    0.1260  -33.4800 C   0  0  0  0  0  0  0  0  0  0  0  0
  -21.8110    0.5290  -33.9340 C   0  0  0  0  0  0  0  0  0  0  0  0
  -22.6710   -0.4340  -34.3900 C   0  0  0  0  0  0  0  0  0  0  0  0
  -24.0040    0.0360  -34.8920 C   0  0  0  0  0  0  0  0  0  0  0  0
  -24.6240    0.8340  -33.8370 N   0  0  0  0  0  4  0  0  0  0  0  0
  -23.7910    1.8970  -33.3660 C   0  0  0  0  0  0  0  0  0  0  0  0
  -22.4240    1.9170  -34.0420 C   0  0  0  0  0  0  0  0  0  0  0  0
  -24.8360   -0.0860  -32.7190 C   0  0  0  0  0  0  0  0  0  0  0  0
  -19.5060    0.9610  -32.9380 C   0  0  0  0  0  0  0  0  0  0  0  0
  -19.6250    2.2190  -32.8560 O   0  0  0  0  0  0  0  0  0  0  0  0
  -18.3130    0.3200  -32.5140 N   0  0  0  0  0  0  0  0  0  0  0  0
  -18.2190   -1.0620  -32.1420 C   0  0  2  0  0  0  0  0  0  0  0  0
  -19.0950   -1.7840  -33.0510 N   0  0  0  0  0  0  0  0  0  0  0  0
  -18.6450   -1.3100  -30.7430 C   0  0  0  0  0  0  0  0  0  0  0  0
  -18.3160   -0.4490  -29.7170 C   0  0  0  0  0  0  0  0  0  0  0  0
  -18.7030   -0.6630  -28.4140 C   0  0  0  0  0  0  0  0  0  0  0  0
  -19.4500   -1.7790  -28.0950 C   0  0  0  0  0  0  0  0  0  0  0  0
  -19.7890   -2.6520  -29.1010 C   0  0  0  0  0  0  0  0  0  0  0  0
  -19.3970   -2.4290  -30.4070 C   0  0  0  0  0  0  0  0  0  0  0  0
  -20.8290   -4.1910  -28.6120 B   0  0  0  0  0  0  0  0  0  0  0  0
  -19.8430   -2.0000  -26.7830 O   0  0  0  0  0  0  0  0  0  0  0  0
  -18.2460    0.5290  -27.0120 B   0  0  0  0  0  0  0  0  0  0  0  0
  -23.9230    0.5840  -35.8390 H   0  0  0  0  0  0  0  0  0  0  0  0
  -24.6720   -0.8430  -35.0270 H   0  0  0  0  0  0  0  0  0  0  0  0
  -25.5730    1.1410  -34.1310 H   0  0  0  0  0  0  0  0  0  0  0  0
  -23.5640    1.8090  -32.2640 H   0  0  0  0  0  0  0  0  0  0  0  0
  -24.2360    2.8980  -33.4880 H   0  0  0  0  0  0  0  0  0  0  0  0
  -21.7890    2.6780  -33.5960 H   0  0  0  0  0  0  0  0  0  0  0  0
  -22.6120    2.0620  -35.1250 H   0  0  0  0  0  0  0  0  0  0  0  0
  -24.9170   -1.1410  -33.0670 H   0  0  0  0  0  0  0  0  0  0  0  0
  -23.9150   -0.0730  -32.0650 H   0  0  0  0  0  0  0  0  0  0  0  0
  -25.6670    0.2210  -32.0780 H   0  0  0  0  0  0  0  0  0  0  0  0
  -17.4410    0.9200  -32.4760 H   0  0  0  0  0  0  0  0  0  0  0  0
  -17.1840   -1.4120  -32.2680 H   0  0  0  0  0  0  0  0  0  0  0  0
  -18.8640   -2.7340  -33.4080 H   0  0  0  0  0  0  0  0  0  0  0  0
  -17.7330    0.4280  -29.9540 H   0  0  0  0  0  0  0  0  0  0  0  0
  -19.6690   -3.1190  -31.1820 H   0  0  0  0  0  0  0  0  0  0  0  0
  1  2  1  0  0  0  0
  2  3  2  0  0  0  0
  2 15  1  0  0  0  0
  3 11  1  0  0  0  0
  4  3  1  0  0  0  0
  5  1  1  0  0  0  0
  5  4  2  0  0  0  0
  6  5  1  0  0  0  0
  6  7  1  0  0  0  0
  7  8  1  0  0  0  0
  7 10  1  0  0  0  0
  8 28  1  0  0  0  0
  9  4  1  0  0  0  0
  9 30  1  0  0  0  0
  9  8  1  0  0  0  0
 10 34  1  0  0  0  0
 10 33  1  0  0  0  0
 11 12  2  0  0  0  0
 11 13  1  0  0  0  0
 13 35  1  0  0  0  0
 13 14  1  0  0  0  0
 14 36  1  6  0  0  0
 14 16  1  0  0  0  0
 15 14  1  0  0  0  0
 16 21  2  0  0  0  0
 16 17  1  0  0  0  0
 17 18  2  0  0  0  0
 18 19  1  0  0  0  0
 18 24  1  0  0  0  0
 19 23  1  0  0  0  0
 20 22  1  0  0  0  0
 20 19  2  0  0  0  0
 21 20  1  0  0  0  0
 25  6  1  0  0  0  0
 26  6  1  0  0  0  0
 27  7  1  0  0  0  0
 29  8  1  0  0  0  0
 31  9  1  0  0  0  0
 32 10  1  0  0  0  0
 37 15  1  0  0  0  0
 38 17  1  0  0  0  0
 39 21  1  0  0  0  0
M  END
>  <Pose>
1

>  <Score>
-7.23

$$$$
