
 OpenBabel03222201593D

 46 49  0  0  1  0  0  0  0  0999 V2000
  -21.3520    1.9800  -32.6450 S   0  0  0  0  0  0  0  0  0  0  0  0
  -20.1730    0.7490  -32.7290 C   0  0  0  0  0  0  0  0  0  0  0  0
  -20.8910   -0.3370  -33.1470 C   0  0  0  0  0  0  0  0  0  0  0  0
  -22.2190   -0.1540  -33.3590 C   0  0  0  0  0  0  0  0  0  0  0  0
  -22.7180    1.1050  -33.1350 C   0  0  0  0  0  0  0  0  0  0  0  0
  -24.1610    1.4340  -33.3300 C   0  0  0  0  0  0  0  0  0  0  0  0
  -24.7950    0.6840  -34.3600 N   0  0  0  0  0  4  0  0  0  0  0  0
  -24.0970   -0.4610  -34.8340 C   0  0  0  0  0  0  0  0  0  0  0  0
  -23.2570   -1.1810  -33.8260 C   0  0  0  0  0  0  0  0  0  0  0  0
  -26.1730    0.3680  -34.0050 C   0  0  0  0  0  0  0  0  0  0  0  0
  -20.0660   -1.5730  -33.3100 C   0  0  0  0  0  0  0  0  0  0  0  0
  -20.6220   -2.6530  -33.6940 O   0  0  0  0  0  0  0  0  0  0  0  0
  -18.6790   -1.5350  -33.0370 N   0  0  0  0  0  0  0  0  0  0  0  0
  -18.1380   -0.5860  -32.0890 C   0  0  1  0  0  0  0  0  0  0  0  0
  -18.7460    0.6910  -32.4630 N   0  0  0  0  0  0  0  0  0  0  0  0
  -18.6060   -0.9940  -30.7390 C   0  0  0  0  0  0  0  0  0  0  0  0
  -19.1410   -2.2460  -30.5280 C   0  0  0  0  0  0  0  0  0  0  0  0
  -19.5810   -2.6440  -29.2840 C   0  0  0  0  0  0  0  0  0  0  0  0
  -19.4870   -1.7640  -28.2130 C   0  0  0  0  0  0  0  0  0  0  0  0
  -18.9560   -0.5050  -28.3950 C   0  0  0  0  0  0  0  0  0  0  0  0
  -18.5310   -0.1430  -29.6350 C   0  0  0  0  0  0  0  0  0  0  0  0
  -18.8840    0.3320  -27.2980 O   0  0  0  0  0  0  0  0  0  0  0  0
  -17.7250    0.9090  -26.7830 C   0  0  0  0  0  0  0  0  0  0  0  0
  -17.7560    2.4170  -26.9010 C   0  0  0  0  0  0  0  0  0  0  0  0
  -19.9250   -2.1440  -26.9470 O   0  0  0  0  0  0  0  0  0  0  0  0
  -20.3220   -4.3730  -28.9770 B   0  0  0  0  0  0  0  0  0  0  0  0
  -24.6670    1.1940  -32.3620 H   0  0  0  0  0  0  0  0  0  0  0  0
  -24.2530    2.5280  -33.4620 H   0  0  0  0  0  0  0  0  0  0  0  0
  -24.8880    1.3430  -35.1950 H   0  0  0  0  0  0  0  0  0  0  0  0
  -23.4700   -0.2300  -35.7200 H   0  0  0  0  0  0  0  0  0  0  0  0
  -24.8660   -1.1970  -35.2000 H   0  0  0  0  0  0  0  0  0  0  0  0
  -23.8400   -1.5440  -32.9640 H   0  0  0  0  0  0  0  0  0  0  0  0
  -22.7410   -1.9930  -34.3630 H   0  0  0  0  0  0  0  0  0  0  0  0
  -26.8600    0.4680  -34.8650 H   0  0  0  0  0  0  0  0  0  0  0  0
  -26.4980    1.0780  -33.2020 H   0  0  0  0  0  0  0  0  0  0  0  0
  -26.2710   -0.6690  -33.6300 H   0  0  0  0  0  0  0  0  0  0  0  0
  -18.0340   -2.1970  -33.5230 H   0  0  0  0  0  0  0  0  0  0  0  0
  -17.0480   -0.5110  -32.1530 H   0  0  0  0  0  0  0  0  0  0  0  0
  -18.2300    1.5820  -32.5550 H   0  0  0  0  0  0  0  0  0  0  0  0
  -19.2250   -2.9430  -31.3380 H   0  0  0  0  0  0  0  0  0  0  0  0
  -18.1170    0.8260  -29.8070 H   0  0  0  0  0  0  0  0  0  0  0  0
  -17.6190    0.5890  -25.7240 H   0  0  0  0  0  0  0  0  0  0  0  0
  -16.8270    0.5440  -27.3230 H   0  0  0  0  0  0  0  0  0  0  0  0
  -18.7230    2.7000  -27.3640 H   0  0  0  0  0  0  0  0  0  0  0  0
  -17.5830    2.9010  -25.9140 H   0  0  0  0  0  0  0  0  0  0  0  0
  -16.9770    2.7710  -27.6310 H   0  0  0  0  0  0  0  0  0  0  0  0
  2  1  1  0  0  0  0
  2 15  1  0  0  0  0
  3  2  2  0  0  0  0
  4  3  1  0  0  0  0
  4  5  2  0  0  0  0
  5  1  1  0  0  0  0
  6  5  1  0  0  0  0
  6 27  1  0  0  0  0
  7 10  1  0  0  0  0
  7  6  1  0  0  0  0
  8  7  1  0  0  0  0
  8  9  1  0  0  0  0
  9  4  1  0  0  0  0
  9 32  1  0  0  0  0
 10 36  1  0  0  0  0
 10 35  1  0  0  0  0
 11  3  1  0  0  0  0
 11 13  1  0  0  0  0
 12 11  2  0  0  0  0
 13 14  1  0  0  0  0
 14 38  1  6  0  0  0
 14 16  1  0  0  0  0
 15 14  1  0  0  0  0
 16 17  2  0  0  0  0
 16 21  1  0  0  0  0
 17 18  1  0  0  0  0
 18 26  1  0  0  0  0
 18 19  2  0  0  0  0
 19 25  1  0  0  0  0
 20 19  1  0  0  0  0
 20 22  1  0  0  0  0
 21 20  2  0  0  0  0
 22 23  1  0  0  0  0
 23 42  1  0  0  0  0
 24 23  1  0  0  0  0
 24 45  1  0  0  0  0
 28  6  1  0  0  0  0
 29  7  1  0  0  0  0
 30  8  1  0  0  0  0
 31  8  1  0  0  0  0
 33  9  1  0  0  0  0
 34 10  1  0  0  0  0
 37 13  1  0  0  0  0
 39 15  1  0  0  0  0
 40 17  1  0  0  0  0
 41 21  1  0  0  0  0
 43 23  1  0  0  0  0
 44 24  1  0  0  0  0
 46 24  1  0  0  0  0
M  END
>  <Pose>
1

>  <Score>
-5.44

$$$$
