
 OpenBabel03222201593D

 42 45  0  0  1  0  0  0  0  0999 V2000
  -20.1500   -2.8400  -27.1660 S   0  0  0  0  0  0  0  0  0  0  0  0
  -18.9370   -2.6520  -25.8300 C   0  0  0  0  0  0  0  0  0  0  0  0
  -18.0200   -1.5050  -26.2140 C   0  0  0  0  0  0  0  0  0  0  0  0
  -18.8330   -0.3420  -26.7420 C   0  0  0  0  0  0  0  0  0  0  0  0
  -19.0520   -0.5950  -28.1570 N   0  0  0  0  0  0  0  0  0  0  0  0
  -19.6630   -1.7370  -28.4820 C   0  0  1  0  0  0  0  0  0  0  0  0
  -19.7810   -1.8000  -29.8540 N   0  0  0  0  0  0  0  0  0  0  0  0
  -19.2500   -0.7080  -30.3790 C   0  0  0  0  0  0  0  0  0  0  0  0
  -18.7960    0.0390  -29.2950 C   0  0  0  0  0  0  0  0  0  0  0  0
  -19.1160   -0.2820  -31.7630 C   0  0  0  0  0  0  0  0  0  0  0  0
  -17.8740   -0.4070  -32.4020 C   0  0  0  0  0  0  0  0  0  0  0  0
  -17.6880   -0.0240  -33.7010 C   0  0  0  0  0  0  0  0  0  0  0  0
  -18.6940    0.5080  -34.4740 C   0  0  0  0  0  0  0  0  0  0  0  0
  -19.9130    0.6350  -33.8590 C   0  0  0  0  0  0  0  0  0  0  0  0
  -20.1260    0.2480  -32.5280 C   0  0  0  0  0  0  0  0  0  0  0  0
  -18.4670    0.8860  -35.7910 O   0  0  0  0  0  0  0  0  0  0  0  0
  -18.9970    0.1180  -36.8560 C   0  0  0  0  0  0  0  0  0  0  0  0
  -20.3950   -2.9090  -30.5070 C   0  0  0  0  0  0  0  0  0  0  0  0
  -20.9890   -2.7610  -31.7480 C   0  0  0  0  0  0  0  0  0  0  0  0
  -21.5660   -3.8210  -32.4190 C   0  0  0  0  0  0  0  0  0  0  0  0
  -21.5400   -5.0620  -31.8160 C   0  0  0  0  0  0  0  0  0  0  0  0
  -20.9470   -5.2000  -30.5790 C   0  0  0  0  0  0  0  0  0  0  0  0
  -20.3650   -4.1570  -29.8920 C   0  0  0  0  0  0  0  0  0  0  0  0
  -22.3180   -6.5960  -32.6720 B   0  0  0  0  0  0  0  0  0  0  0  0
  -19.4470   -2.3910  -24.8840 H   0  0  0  0  0  0  0  0  0  0  0  0
  -18.3860   -3.6080  -25.7630 H   0  0  0  0  0  0  0  0  0  0  0  0
  -17.3820   -1.2040  -25.3570 H   0  0  0  0  0  0  0  0  0  0  0  0
  -17.3360   -1.8840  -27.0060 H   0  0  0  0  0  0  0  0  0  0  0  0
  -19.8500   -0.4180  -26.2600 H   0  0  0  0  0  0  0  0  0  0  0  0
  -18.3600    0.6260  -26.5550 H   0  0  0  0  0  0  0  0  0  0  0  0
  -18.2980    1.0050  -29.3080 H   0  0  0  0  0  0  0  0  0  0  0  0
  -17.0530   -0.8190  -31.8370 H   0  0  0  0  0  0  0  0  0  0  0  0
  -16.7070   -0.1260  -34.1960 H   0  0  0  0  0  0  0  0  0  0  0  0
  -20.7450    1.0440  -34.4050 H   0  0  0  0  0  0  0  0  0  0  0  0
  -21.0990    0.3720  -32.1020 H   0  0  0  0  0  0  0  0  0  0  0  0
  -18.7880    0.5490  -37.8330 H   0  0  0  0  0  0  0  0  0  0  0  0
  -20.1060   -0.0100  -36.6860 H   0  0  0  0  0  0  0  0  0  0  0  0
  -18.5740   -0.8970  -36.8080 H   0  0  0  0  0  0  0  0  0  0  0  0
  -21.0300   -1.8010  -32.2570 H   0  0  0  0  0  0  0  0  0  0  0  0
  -22.0340   -3.7270  -33.3880 H   0  0  0  0  0  0  0  0  0  0  0  0
  -20.9110   -6.1760  -30.0750 H   0  0  0  0  0  0  0  0  0  0  0  0
  -19.9030   -4.2820  -28.9210 H   0  0  0  0  0  0  0  0  0  0  0  0
  1  2  1  0  0  0  0
  2 26  1  0  0  0  0
  2 25  1  0  0  0  0
  3  2  1  0  0  0  0
  3 27  1  0  0  0  0
  4 30  1  0  0  0  0
  4 29  1  0  0  0  0
  4  3  1  0  0  0  0
  5  4  1  0  0  0  0
  6  5  1  0  0  0  0
  6  1  1  6  0  0  0
  7  6  1  0  0  0  0
  8  7  1  0  0  0  0
  8  9  2  0  0  0  0
  9  5  1  0  0  0  0
 10  8  1  0  0  0  0
 11 32  1  0  0  0  0
 11 10  1  0  0  0  0
 12 11  2  0  0  0  0
 13 14  2  0  0  0  0
 13 12  1  0  0  0  0
 14 15  1  0  0  0  0
 15 35  1  0  0  0  0
 15 10  2  0  0  0  0
 16 13  1  0  0  0  0
 17 38  1  0  0  0  0
 17 37  1  0  0  0  0
 17 16  1  0  0  0  0
 18 23  1  0  0  0  0
 18  7  1  0  0  0  0
 19 18  2  0  0  0  0
 20 21  2  0  0  0  0
 20 19  1  0  0  0  0
 21 22  1  0  0  0  0
 22 41  1  0  0  0  0
 22 23  2  0  0  0  0
 23 42  1  0  0  0  0
 24 21  1  0  0  0  0
 28  3  1  0  0  0  0
 31  9  1  0  0  0  0
 33 12  1  0  0  0  0
 34 14  1  0  0  0  0
 36 17  1  0  0  0  0
 39 19  1  0  0  0  0
 40 20  1  0  0  0  0
M  END
>  <Pose>
1

>  <Score>
-5.98

$$$$
