
 OpenBabel03222201593D

 49 52  0  0  1  0  0  0  0  0999 V2000
  -20.2590   -1.4180  -33.0370 S   0  0  0  0  0  0  0  0  0  0  0  0
  -21.0150   -2.8600  -32.3280 C   0  0  0  0  0  0  0  0  0  0  0  0
  -22.3770   -3.0800  -32.9540 C   0  0  0  0  0  0  0  0  0  0  0  0
  -23.2570   -1.8740  -32.6780 C   0  0  0  0  0  0  0  0  0  0  0  0
  -22.8580   -0.7700  -33.5210 N   0  0  2  0  0  0  0  0  0  0  0  0
  -23.5860    0.0290  -34.4530 C   0  0  2  0  0  0  0  0  0  0  0  0
  -22.8690    1.3570  -34.2640 C   0  0  0  0  0  0  0  0  0  0  0  0
  -21.4980    0.9580  -34.0400 N   0  0  0  0  0  0  0  0  0  0  0  0
  -21.5210   -0.2400  -33.5700 C   0  0  2  0  0  0  0  0  0  0  0  0
  -20.3240    1.7080  -34.3170 C   0  0  0  0  0  0  0  0  0  0  0  0
  -19.8010    1.6120  -35.6000 C   0  0  0  0  0  0  0  0  0  0  0  0
  -18.6330    2.3000  -35.9410 C   0  0  0  0  0  0  0  0  0  0  0  0
  -17.9950    3.0800  -34.9930 C   0  0  0  0  0  0  0  0  0  0  0  0
  -18.4860    3.1990  -33.7140 C   0  0  0  0  0  0  0  0  0  0  0  0
  -19.6650    2.4810  -33.4340 C   0  0  0  0  0  0  0  0  0  0  0  0
  -17.8960    3.9630  -32.7220 O   0  0  0  0  0  0  0  0  0  0  0  0
  -17.0330    5.0450  -32.9210 C   0  0  0  0  0  0  0  0  0  0  0  0
  -20.4380    0.8310  -36.5400 O   0  0  0  0  0  0  0  0  0  0  0  0
  -19.7920    0.0590  -37.5260 C   0  0  0  0  0  0  0  0  0  0  0  0
  -24.9200    0.1220  -34.0710 O   0  0  0  0  0  0  0  0  0  0  0  0
  -23.4430   -0.3530  -35.8720 C   0  0  0  0  0  0  0  0  0  0  0  0
  -23.8610    0.3670  -36.9460 C   0  0  0  0  0  0  0  0  0  0  0  0
  -23.7070   -0.1100  -38.2490 C   0  0  0  0  0  0  0  0  0  0  0  0
  -23.1240   -1.3350  -38.4980 C   0  0  0  0  0  0  0  0  0  0  0  0
  -22.7020   -2.0640  -37.4290 C   0  0  0  0  0  0  0  0  0  0  0  0
  -22.8530   -1.5970  -36.1530 C   0  0  0  0  0  0  0  0  0  0  0  0
  -22.9250   -1.9790  -40.2940 B   0  0  0  0  0  0  0  0  0  0  0  0
  -20.3960   -3.7820  -32.4930 H   0  0  0  0  0  0  0  0  0  0  0  0
  -21.1850   -2.7070  -31.2250 H   0  0  0  0  0  0  0  0  0  0  0  0
  -22.2610   -3.2130  -34.0540 H   0  0  0  0  0  0  0  0  0  0  0  0
  -22.8730   -3.9540  -32.5050 H   0  0  0  0  0  0  0  0  0  0  0  0
  -24.3020   -2.1840  -32.9470 H   0  0  0  0  0  0  0  0  0  0  0  0
  -23.1540   -1.6140  -31.6080 H   0  0  0  0  0  0  0  0  0  0  0  0
  -23.0660    1.9010  -35.1870 H   0  0  0  0  0  0  0  0  0  0  0  0
  -23.2900    1.8690  -33.3790 H   0  0  0  0  0  0  0  0  0  0  0  0
  -18.2360    2.2140  -36.9550 H   0  0  0  0  0  0  0  0  0  0  0  0
  -17.0840    3.6250  -35.2280 H   0  0  0  0  0  0  0  0  0  0  0  0
  -20.0110    2.5960  -32.4360 H   0  0  0  0  0  0  0  0  0  0  0  0
  -17.0050    5.7020  -31.9960 H   0  0  0  0  0  0  0  0  0  0  0  0
  -16.0130    4.5790  -33.0530 H   0  0  0  0  0  0  0  0  0  0  0  0
  -17.3120    5.6910  -33.7780 H   0  0  0  0  0  0  0  0  0  0  0  0
  -18.9560    0.6180  -37.9580 H   0  0  0  0  0  0  0  0  0  0  0  0
  -19.3310   -0.8580  -37.0770 H   0  0  0  0  0  0  0  0  0  0  0  0
  -20.4940   -0.2040  -38.3560 H   0  0  0  0  0  0  0  0  0  0  0  0
  -25.2860    1.0000  -34.3260 H   0  0  0  0  0  0  0  0  0  0  0  0
  -24.3150    1.3180  -36.7930 H   0  0  0  0  0  0  0  0  0  0  0  0
  -24.0540    0.4970  -39.1080 H   0  0  0  0  0  0  0  0  0  0  0  0
  -22.2470   -3.0220  -37.6560 H   0  0  0  0  0  0  0  0  0  0  0  0
  -22.5070   -2.2070  -35.3360 H   0  0  0  0  0  0  0  0  0  0  0  0
  1  2  1  0  0  0  0
  2 29  1  0  0  0  0
  3  4  1  0  0  0  0
  3 31  1  0  0  0  0
  3  2  1  0  0  0  0
  4 33  1  0  0  0  0
  5  4  1  6  0  0  0
  6  7  1  0  0  0  0
  6 20  1  1  0  0  0
  6  5  1  0  0  0  0
  7  8  1  0  0  0  0
  7 35  1  0  0  0  0
  8  9  1  0  0  0  0
  9  5  1  0  0  0  0
  9  1  1  6  0  0  0
 10  8  1  0  0  0  0
 10 15  1  0  0  0  0
 11 10  2  0  0  0  0
 12 11  1  0  0  0  0
 12 13  2  0  0  0  0
 13 14  1  0  0  0  0
 14 15  2  0  0  0  0
 14 16  1  0  0  0  0
 15 38  1  0  0  0  0
 17 16  1  0  0  0  0
 17 39  1  0  0  0  0
 18 11  1  0  0  0  0
 19 43  1  0  0  0  0
 19 18  1  0  0  0  0
 21  6  1  0  0  0  0
 22 46  1  0  0  0  0
 22 21  2  0  0  0  0
 23 22  1  0  0  0  0
 24 23  2  0  0  0  0
 24 25  1  0  0  0  0
 25 26  2  0  0  0  0
 26 21  1  0  0  0  0
 26 49  1  0  0  0  0
 27 24  1  0  0  0  0
 28  2  1  0  0  0  0
 30  3  1  0  0  0  0
 32  4  1  0  0  0  0
 34  7  1  0  0  0  0
 36 12  1  0  0  0  0
 37 13  1  0  0  0  0
 40 17  1  0  0  0  0
 41 17  1  0  0  0  0
 42 19  1  0  0  0  0
 44 19  1  0  0  0  0
 45 20  1  0  0  0  0
 47 23  1  0  0  0  0
 48 25  1  0  0  0  0
M  END
>  <Pose>
1

>  <Score>
-4.95

$$$$
