
 OpenBabel03222201593D

 49 52  0  0  0  0  0  0  0  0999 V2000
  -18.6030   -1.0090  -31.8470 S   0  0  0  0  0  0  0  0  0  0  0  0
  -19.3280   -0.8800  -33.5110 C   0  0  0  0  0  0  0  0  0  0  0  0
  -20.7320   -0.5180  -33.1470 C   0  0  0  0  0  0  0  0  0  0  0  0
  -20.8880   -0.1440  -31.8350 N   0  0  0  0  0  0  0  0  0  0  0  0
  -19.9960   -0.2770  -30.9870 C   0  0  0  0  0  0  0  0  0  0  0  0
  -19.9440    0.1220  -29.2450 S   0  0  0  0  0  0  0  0  0  0  0  0
  -18.4950   -0.5210  -28.4350 C   0  0  0  0  0  0  0  0  0  0  0  0
  -18.4510   -0.4350  -26.9670 C   0  0  0  0  0  0  0  0  0  0  0  0
  -18.6530   -1.4300  -26.0930 N   0  0  0  0  0  0  0  0  0  0  0  0
  -18.5390   -0.8690  -24.8760 N   0  0  0  0  0  0  0  0  0  0  0  0
  -18.2850    0.3870  -24.9640 N   0  0  0  0  0  0  0  0  0  0  0  0
  -18.2080    0.7650  -26.2910 C   0  0  0  0  0  0  0  0  0  0  0  0
  -17.9500    2.1120  -26.7290 C   0  0  0  0  0  0  0  0  0  0  0  0
  -16.7250    2.5230  -26.6450 O   0  0  0  0  0  0  0  0  0  0  0  0
  -18.8470    3.0470  -27.2370 N   0  0  0  0  0  0  0  0  0  0  0  0
  -18.6020    3.6480  -28.5200 N   0  0  0  0  0  0  0  0  0  0  0  0
  -18.8600    4.8750  -28.7490 C   0  0  0  0  0  0  0  0  0  0  0  0
  -18.6260    5.5210  -30.0330 C   0  0  0  0  0  0  0  0  0  0  0  0
  -19.6630    5.9960  -30.8040 C   0  0  0  0  0  0  0  0  0  0  0  0
  -19.4580    6.6170  -32.0180 C   0  0  0  0  0  0  0  0  0  0  0  0
  -18.1920    6.7870  -32.5160 C   0  0  0  0  0  0  0  0  0  0  0  0
  -17.1100    6.3150  -31.7560 C   0  0  0  0  0  0  0  0  0  0  0  0
  -17.3480    5.7000  -30.5460 C   0  0  0  0  0  0  0  0  0  0  0  0
  -15.8680    6.5190  -32.3130 O   0  0  0  0  0  0  0  0  0  0  0  0
  -14.6720    5.9080  -31.8980 C   0  0  0  0  0  0  0  0  0  0  0  0
  -18.0080    7.4140  -33.7390 O   0  0  0  0  0  0  0  0  0  0  0  0
  -20.9310    7.2600  -33.0530 B   0  0  0  0  0  0  0  0  0  0  0  0
  -18.9660   -2.8090  -26.2670 C   0  0  0  0  0  0  0  0  0  0  0  0
  -18.5220   -3.8660  -25.5550 N   0  0  0  0  0  0  0  0  0  0  0  0
  -19.0250   -4.9700  -25.9650 O   0  0  0  0  0  0  0  0  0  0  0  0
  -19.8170   -4.7060  -26.9550 N   0  0  0  0  0  0  0  0  0  0  0  0
  -19.8250   -3.3610  -27.1950 C   0  0  0  0  0  0  0  0  0  0  0  0
  -20.5800   -2.6860  -28.1800 N   0  0  0  0  0  4  0  0  0  0  0  0
  -18.8160   -0.1330  -34.1320 H   0  0  0  0  0  0  0  0  0  0  0  0
  -19.3370   -1.9000  -33.9420 H   0  0  0  0  0  0  0  0  0  0  0  0
  -21.4620   -1.2800  -33.5220 H   0  0  0  0  0  0  0  0  0  0  0  0
  -20.9830    0.3910  -33.7890 H   0  0  0  0  0  0  0  0  0  0  0  0
  -17.6170   -0.0160  -28.8720 H   0  0  0  0  0  0  0  0  0  0  0  0
  -18.3570   -1.6280  -28.6620 H   0  0  0  0  0  0  0  0  0  0  0  0
  -19.7170    3.4060  -26.8090 H   0  0  0  0  0  0  0  0  0  0  0  0
  -19.2700    5.4630  -27.9520 H   0  0  0  0  0  0  0  0  0  0  0  0
  -20.6760    5.8680  -30.4220 H   0  0  0  0  0  0  0  0  0  0  0  0
  -16.5050    5.3390  -29.9730 H   0  0  0  0  0  0  0  0  0  0  0  0
  -13.7970    6.6090  -32.0050 H   0  0  0  0  0  0  0  0  0  0  0  0
  -14.7550    5.5230  -30.8740 H   0  0  0  0  0  0  0  0  0  0  0  0
  -14.4430    5.0810  -32.6250 H   0  0  0  0  0  0  0  0  0  0  0  0
  -21.4340   -3.2670  -28.3880 H   0  0  0  0  0  0  0  0  0  0  0  0
  -20.0650   -2.4810  -29.0540 H   0  0  0  0  0  0  0  0  0  0  0  0
  -20.9380   -1.7800  -27.7730 H   0  0  0  0  0  0  0  0  0  0  0  0
  1  5  1  0  0  0  0
  2  3  1  0  0  0  0
  2  1  1  0  0  0  0
  3  4  1  0  0  0  0
  4  5  2  0  0  0  0
  5  6  1  0  0  0  0
  6  7  1  0  0  0  0
  7  8  1  0  0  0  0
  8 12  2  0  0  0  0
  8  9  1  0  0  0  0
  9 10  1  0  0  0  0
 11 10  2  0  0  0  0
 12 11  1  0  0  0  0
 13 14  2  0  0  0  0
 13 12  1  0  0  0  0
 15 40  1  0  0  0  0
 15 13  1  0  0  0  0
 16 15  1  0  0  0  0
 17 16  2  0  0  0  0
 17 41  1  0  0  0  0
 18 17  1  0  0  0  0
 19 42  1  0  0  0  0
 19 18  2  0  0  0  0
 20 19  1  0  0  0  0
 21 20  2  0  0  0  0
 21 22  1  0  0  0  0
 22 23  2  0  0  0  0
 23 18  1  0  0  0  0
 23 43  1  0  0  0  0
 24 25  1  0  0  0  0
 24 22  1  0  0  0  0
 25 45  1  0  0  0  0
 26 21  1  0  0  0  0
 27 20  1  0  0  0  0
 28  9  1  0  0  0  0
 28 29  2  0  0  0  0
 30 29  1  0  0  0  0
 31 30  1  0  0  0  0
 32 31  2  0  0  0  0
 32 28  1  0  0  0  0
 33 49  1  0  0  0  0
 33 32  1  0  0  0  0
 34  2  1  0  0  0  0
 35  2  1  0  0  0  0
 36  3  1  0  0  0  0
 37  3  1  0  0  0  0
 38  7  1  0  0  0  0
 39  7  1  0  0  0  0
 44 25  1  0  0  0  0
 46 25  1  0  0  0  0
 47 33  1  0  0  0  0
 48 33  1  0  0  0  0
M  END
>  <Pose>
1

>  <Score>
-9.25

$$$$
