
 OpenBabel03222201593D

 45 49  0  0  1  0  0  0  0  0999 V2000
  -19.7160    6.8240  -40.3100 S   0  0  0  0  0  0  0  0  0  0  0  0
  -21.1790    7.4310  -41.2790 C   0  0  0  0  0  0  0  0  0  0  0  0
  -22.0040    6.1730  -41.1800 C   0  0  0  0  0  0  0  0  0  0  0  0
  -21.9230    5.6270  -39.8540 N   0  0  0  0  0  0  0  0  0  0  0  0
  -20.6990    5.8480  -39.1900 C   0  0  0  0  0  0  0  0  0  0  0  0
  -20.4950    5.3990  -38.0250 N   0  0  0  0  0  0  0  0  0  0  0  0
  -21.4700    4.6150  -37.3110 C   0  0  0  0  0  0  0  0  0  0  0  0
  -21.4770    4.5050  -36.0600 O   0  0  0  0  0  0  0  0  0  0  0  0
  -22.5060    3.9170  -38.1200 C   0  0  1  0  0  0  0  0  0  0  0  0
  -22.9500    4.8690  -39.1630 C   0  0  0  0  0  0  0  0  0  0  0  0
  -24.1450    5.0690  -39.4920 O   0  0  0  0  0  0  0  0  0  0  0  0
  -21.8790    2.6880  -38.6800 C   0  0  2  0  0  0  0  0  0  0  0  0
  -22.7230    1.9900  -39.7170 C   0  0  2  0  0  0  0  0  0  0  0  0
  -23.8900    1.2790  -39.1710 C   0  0  0  0  0  0  0  0  0  0  0  0
  -24.9270    1.9380  -38.8090 O   0  0  0  0  0  0  0  0  0  0  0  0
  -23.8710   -0.1650  -39.0390 N   0  0  0  0  0  0  0  0  0  0  0  0
  -24.8160   -0.9720  -38.3190 C   0  0  0  0  0  0  0  0  0  0  0  0
  -24.1530   -2.2110  -37.7720 C   0  0  0  0  0  0  0  0  0  0  0  0
  -23.1370   -2.6030  -39.2720 S   0  0  0  0  0  0  0  0  0  0  0  0
  -22.8470   -0.8860  -39.6920 C   0  0  0  0  0  0  0  0  0  0  0  0
  -21.9410   -0.3220  -40.3940 N   0  0  0  0  0  0  0  0  0  0  0  0
  -21.8950    1.1020  -40.5720 C   0  0  0  0  0  0  0  0  0  0  0  0
  -21.1390    1.5580  -41.4660 O   0  0  0  0  0  0  0  0  0  0  0  0
  -21.5020    1.7880  -37.5670 C   0  0  0  0  0  0  0  0  0  0  0  0
  -22.3420    1.6180  -36.4730 C   0  0  0  0  0  0  0  0  0  0  0  0
  -22.0020    0.7790  -35.4320 C   0  0  0  0  0  0  0  0  0  0  0  0
  -20.8130    0.0850  -35.4560 C   0  0  0  0  0  0  0  0  0  0  0  0
  -19.9920    0.2540  -36.5290 C   0  0  0  0  0  0  0  0  0  0  0  0
  -20.3170    1.0900  -37.5780 C   0  0  0  0  0  0  0  0  0  0  0  0
  -23.1490    0.5390  -33.9260 B   0  0  0  0  0  0  0  0  0  0  0  0
  -21.6630    8.2520  -40.7500 H   0  0  0  0  0  0  0  0  0  0  0  0
  -20.8940    7.6180  -42.3090 H   0  0  0  0  0  0  0  0  0  0  0  0
  -23.0510    6.4450  -41.4180 H   0  0  0  0  0  0  0  0  0  0  0  0
  -21.5840    5.4540  -41.9240 H   0  0  0  0  0  0  0  0  0  0  0  0
  -23.3740    3.6250  -37.4750 H   0  0  0  0  0  0  0  0  0  0  0  0
  -20.9370    2.9920  -39.2170 H   0  0  0  0  0  0  0  0  0  0  0  0
  -23.1270    2.7640  -40.4410 H   0  0  0  0  0  0  0  0  0  0  0  0
  -25.6450   -1.3360  -38.9680 H   0  0  0  0  0  0  0  0  0  0  0  0
  -25.2020   -0.4240  -37.4340 H   0  0  0  0  0  0  0  0  0  0  0  0
  -23.4930   -2.0130  -36.9140 H   0  0  0  0  0  0  0  0  0  0  0  0
  -24.8970   -2.9880  -37.6100 H   0  0  0  0  0  0  0  0  0  0  0  0
  -23.2760    2.1530  -36.4380 H   0  0  0  0  0  0  0  0  0  0  0  0
  -20.5300   -0.5860  -34.6340 H   0  0  0  0  0  0  0  0  0  0  0  0
  -19.0360   -0.2850  -36.5770 H   0  0  0  0  0  0  0  0  0  0  0  0
  -19.6060    1.1770  -38.4170 H   0  0  0  0  0  0  0  0  0  0  0  0
  1  5  1  0  0  0  0
  2  3  1  0  0  0  0
  2 31  1  0  0  0  0
  2  1  1  0  0  0  0
  3  4  1  0  0  0  0
  4  5  1  0  0  0  0
  4 10  1  0  0  0  0
  5  6  2  0  0  0  0
  6  7  1  0  0  0  0
  7  8  2  0  0  0  0
  9 35  1  1  0  0  0
  9  7  1  0  0  0  0
 10  9  1  0  0  0  0
 11 10  2  0  0  0  0
 12 36  1  6  0  0  0
 12  9  1  0  0  0  0
 12 24  1  0  0  0  0
 13 37  1  6  0  0  0
 13 14  1  0  0  0  0
 13 12  1  0  0  0  0
 14 16  1  0  0  0  0
 14 15  2  0  0  0  0
 16 17  1  0  0  0  0
 17 18  1  0  0  0  0
 17 39  1  0  0  0  0
 18 41  1  0  0  0  0
 18 40  1  0  0  0  0
 19 18  1  0  0  0  0
 20 19  1  0  0  0  0
 20 16  1  0  0  0  0
 21 20  2  0  0  0  0
 22 21  1  0  0  0  0
 22 13  1  0  0  0  0
 23 22  2  0  0  0  0
 24 25  1  0  0  0  0
 25 42  1  0  0  0  0
 25 26  2  0  0  0  0
 26 30  1  0  0  0  0
 27 26  1  0  0  0  0
 27 43  1  0  0  0  0
 28 27  2  0  0  0  0
 29 24  2  0  0  0  0
 29 28  1  0  0  0  0
 32  2  1  0  0  0  0
 33  3  1  0  0  0  0
 34  3  1  0  0  0  0
 38 17  1  0  0  0  0
 44 28  1  0  0  0  0
 45 29  1  0  0  0  0
M  END
>  <Pose>
1

>  <Score>
-4.72

$$$$
