
 OpenBabel03222201593D

 45 49  0  0  1  0  0  0  0  0999 V2000
  -23.1670   -2.9980  -39.7190 S   0  0  0  0  0  0  0  0  0  0  0  0
  -24.1590   -3.1780  -38.1730 C   0  0  0  0  0  0  0  0  0  0  0  0
  -24.9980   -1.9450  -38.2920 C   0  0  0  0  0  0  0  0  0  0  0  0
  -24.2650   -0.8630  -38.8330 N   0  0  0  0  0  0  0  0  0  0  0  0
  -23.2040   -1.1870  -39.7050 C   0  0  0  0  0  0  0  0  0  0  0  0
  -22.4520   -0.3120  -40.2930 N   0  0  0  0  0  0  0  0  0  0  0  0
  -22.6970    1.1110  -40.1170 C   0  0  0  0  0  0  0  0  0  0  0  0
  -22.2830    1.8020  -41.0800 O   0  0  0  0  0  0  0  0  0  0  0  0
  -23.3610    1.5160  -38.9100 C   0  0  1  0  0  0  0  0  0  0  0  0
  -24.4840    0.5500  -38.6160 C   0  0  0  0  0  0  0  0  0  0  0  0
  -25.5830    0.9500  -38.1930 O   0  0  0  0  0  0  0  0  0  0  0  0
  -22.6410    1.8880  -37.6830 C   0  0  2  0  0  0  0  0  0  0  0  0
  -21.4110    2.6890  -37.7160 C   0  0  1  0  0  0  0  0  0  0  0  0
  -21.2050    3.2640  -36.3140 C   0  0  0  0  0  0  0  0  0  0  0  0
  -21.8700    4.2580  -35.9450 O   0  0  0  0  0  0  0  0  0  0  0  0
  -20.2450    2.6600  -35.4170 N   0  0  0  0  0  0  0  0  0  0  0  0
  -20.1510    2.8310  -34.0080 C   0  0  0  0  0  0  0  0  0  0  0  0
  -19.5790    1.6050  -33.3420 C   0  0  0  0  0  0  0  0  0  0  0  0
  -18.2920    1.2250  -34.6230 S   0  0  0  0  0  0  0  0  0  0  0  0
  -19.2680    1.8140  -35.9960 C   0  0  0  0  0  0  0  0  0  0  0  0
  -19.1880    1.5640  -37.2420 N   0  0  0  0  0  0  0  0  0  0  0  0
  -20.1450    2.1700  -38.1610 C   0  0  0  0  0  0  0  0  0  0  0  0
  -19.7800    2.2080  -39.3500 O   0  0  0  0  0  0  0  0  0  0  0  0
  -22.5980    0.7590  -36.6750 C   0  0  0  0  0  0  0  0  0  0  0  0
  -23.5440    0.6620  -35.6830 C   0  0  0  0  0  0  0  0  0  0  0  0
  -23.4690   -0.3720  -34.7840 C   0  0  0  0  0  0  0  0  0  0  0  0
  -22.4950   -1.3190  -34.8250 C   0  0  0  0  0  0  0  0  0  0  0  0
  -21.5360   -1.2480  -35.8050 C   0  0  0  0  0  0  0  0  0  0  0  0
  -21.6120   -0.1970  -36.7190 C   0  0  0  0  0  0  0  0  0  0  0  0
  -22.3990   -2.7620  -33.5640 B   0  0  0  0  0  0  0  0  0  0  0  0
  -24.7800   -4.0850  -38.3090 H   0  0  0  0  0  0  0  0  0  0  0  0
  -23.5130   -3.2080  -37.2940 H   0  0  0  0  0  0  0  0  0  0  0  0
  -25.9190   -2.1790  -38.8870 H   0  0  0  0  0  0  0  0  0  0  0  0
  -25.3240   -1.6970  -37.2510 H   0  0  0  0  0  0  0  0  0  0  0  0
  -23.9550    2.4660  -39.2010 H   0  0  0  0  0  0  0  0  0  0  0  0
  -23.4070    2.6050  -37.1600 H   0  0  0  0  0  0  0  0  0  0  0  0
  -21.6260    3.6630  -38.3010 H   0  0  0  0  0  0  0  0  0  0  0  0
  -19.5080    3.7080  -33.7380 H   0  0  0  0  0  0  0  0  0  0  0  0
  -21.1670    2.9600  -33.5760 H   0  0  0  0  0  0  0  0  0  0  0  0
  -20.2800    0.7710  -33.3160 H   0  0  0  0  0  0  0  0  0  0  0  0
  -19.1070    1.8570  -32.3970 H   0  0  0  0  0  0  0  0  0  0  0  0
  -24.3510    1.4090  -35.6200 H   0  0  0  0  0  0  0  0  0  0  0  0
  -24.2200   -0.4380  -34.0050 H   0  0  0  0  0  0  0  0  0  0  0  0
  -20.7420   -1.9940  -35.8640 H   0  0  0  0  0  0  0  0  0  0  0  0
  -20.8340   -0.1750  -37.4800 H   0  0  0  0  0  0  0  0  0  0  0  0
  1  5  1  0  0  0  0
  1  2  1  0  0  0  0
  2 32  1  0  0  0  0
  3  2  1  0  0  0  0
  3 34  1  0  0  0  0
  4 10  1  0  0  0  0
  4  3  1  0  0  0  0
  5  4  1  0  0  0  0
  6  7  1  0  0  0  0
  6  5  2  0  0  0  0
  7  9  1  0  0  0  0
  8  7  2  0  0  0  0
  9 35  1  6  0  0  0
  9 10  1  0  0  0  0
  9 12  1  0  0  0  0
 10 11  2  0  0  0  0
 12 36  1  1  0  0  0
 12 24  1  0  0  0  0
 13 37  1  6  0  0  0
 13 12  1  0  0  0  0
 13 14  1  0  0  0  0
 14 15  2  0  0  0  0
 14 16  1  0  0  0  0
 16 17  1  0  0  0  0
 17 38  1  0  0  0  0
 17 39  1  0  0  0  0
 17 18  1  0  0  0  0
 18 40  1  0  0  0  0
 18 41  1  0  0  0  0
 19 18  1  0  0  0  0
 20 16  1  0  0  0  0
 20 19  1  0  0  0  0
 21 20  2  0  0  0  0
 22 13  1  0  0  0  0
 22 21  1  0  0  0  0
 23 22  2  0  0  0  0
 24 25  1  0  0  0  0
 25 42  1  0  0  0  0
 25 26  2  0  0  0  0
 26 43  1  0  0  0  0
 27 26  1  0  0  0  0
 27 30  1  0  0  0  0
 28 27  2  0  0  0  0
 29 24  2  0  0  0  0
 29 28  1  0  0  0  0
 31  2  1  0  0  0  0
 33  3  1  0  0  0  0
 44 28  1  0  0  0  0
 45 29  1  0  0  0  0
M  END
>  <Pose>
1

>  <Score>
-5.99

$$$$
