
 OpenBabel03222201593D

 25 28  0  0  0  0  0  0  0  0999 V2000
  -20.4380   -4.0850  -27.9620 S   0  0  0  0  0  0  0  0  0  0  0  0
  -20.6960   -4.0200  -29.6590 C   0  0  0  0  0  0  0  0  0  0  0  0
  -20.0260   -2.9140  -29.9800 N   0  0  0  0  0  0  0  0  0  0  0  0
  -20.1950   -2.8050  -31.3420 C   0  0  0  0  0  0  0  0  0  0  0  0
  -20.9390   -3.8200  -31.7790 N   0  0  0  0  0  0  0  0  0  0  0  0
  -21.2680   -4.5940  -30.7650 N   0  0  0  0  0  0  0  0  0  0  0  0
  -19.6470   -1.7380  -32.2030 C   0  0  0  0  0  0  0  0  0  0  0  0
  -18.3650   -1.3450  -32.0920 N   0  0  0  0  0  0  0  0  0  0  0  0
  -17.8750   -0.3660  -32.8860 C   0  0  0  0  0  0  0  0  0  0  0  0
  -18.6770    0.2370  -33.8150 C   0  0  0  0  0  0  0  0  0  0  0  0
  -19.9460   -0.1640  -33.9140 N   0  0  0  0  0  0  0  0  0  0  0  0
  -20.4610   -1.1380  -33.1330 C   0  0  0  0  0  0  0  0  0  0  0  0
  -19.4350   -2.2600  -29.0640 N   0  0  0  0  0  0  0  0  0  0  0  0
  -19.4760   -2.6610  -27.8090 C   0  0  0  0  0  0  0  0  0  0  0  0
  -18.8770   -2.0730  -26.6070 C   0  0  0  0  0  0  0  0  0  0  0  0
  -18.6420   -2.6930  -25.4440 N   0  0  0  0  0  0  0  0  0  0  0  0
  -18.0840   -1.8240  -24.5850 N   0  0  0  0  0  0  0  0  0  0  0  0
  -17.9560   -0.6300  -25.1990 C   0  0  0  0  0  0  0  0  0  0  0  0
  -18.4630   -0.7920  -26.4910 C   0  0  0  0  0  0  0  0  0  0  0  0
  -18.5210    0.5880  -27.7760 B   0  0  0  0  0  0  0  0  0  0  0  0
  -16.8550   -0.0860  -32.7650 H   0  0  0  0  0  0  0  0  0  0  0  0
  -18.2910    1.0060  -34.4400 H   0  0  0  0  0  0  0  0  0  0  0  0
  -21.5000   -1.4580  -33.2210 H   0  0  0  0  0  0  0  0  0  0  0  0
  -17.8020   -2.0550  -23.6050 H   0  0  0  0  0  0  0  0  0  0  0  0
  -17.5350    0.2450  -24.7290 H   0  0  0  0  0  0  0  0  0  0  0  0
  1 14  1  0  0  0  0
  2  1  1  0  0  0  0
  3  2  1  0  0  0  0
  3 13  1  0  0  0  0
  4  3  1  0  0  0  0
  5  4  2  0  0  0  0
  5  6  1  0  0  0  0
  6  2  2  0  0  0  0
  7  8  1  0  0  0  0
  7  4  1  0  0  0  0
  9 21  1  0  0  0  0
  9  8  2  0  0  0  0
 10  9  1  0  0  0  0
 11 10  2  0  0  0  0
 11 12  1  0  0  0  0
 12  7  2  0  0  0  0
 13 14  2  0  0  0  0
 14 15  1  0  0  0  0
 15 19  1  0  0  0  0
 15 16  2  0  0  0  0
 16 17  1  0  0  0  0
 17 24  1  0  0  0  0
 18 25  1  0  0  0  0
 18 17  1  0  0  0  0
 19 18  2  0  0  0  0
 20 19  1  0  0  0  0
 22 10  1  0  0  0  0
 23 12  1  0  0  0  0
M  END
>  <Pose>
1

>  <Score>
-8.09

$$$$
