
 OpenBabel03222201593D

 45 49  0  0  1  0  0  0  0  0999 V2000
  -18.6740   -3.3230  -31.2660 S   0  0  0  0  0  0  0  0  0  0  0  0
  -18.9690   -1.6650  -31.8590 C   0  0  0  0  0  0  0  0  0  0  0  0
  -18.2620   -0.8980  -32.6230 N   0  0  0  0  0  0  0  0  0  0  0  0
  -18.7440    0.4240  -32.9540 C   0  0  0  0  0  0  0  0  0  0  0  0
  -18.0420    1.4020  -33.2040 O   0  0  0  0  0  0  0  0  0  0  0  0
  -20.2620    0.5980  -32.9900 C   0  0  2  0  0  0  0  0  0  0  0  0
  -20.6560    0.0700  -31.6460 C   0  0  0  0  0  0  0  0  0  0  0  0
  -21.3450    0.7310  -30.8160 O   0  0  0  0  0  0  0  0  0  0  0  0
  -20.2070   -1.2740  -31.3040 N   0  0  0  0  0  0  0  0  0  0  0  0
  -20.8300   -2.1950  -30.5060 N   0  0  0  0  0  0  0  0  0  0  0  0
  -20.1830   -3.4350  -30.3160 C   0  0  0  0  0  0  0  0  0  0  0  0
  -20.5800   -4.4810  -29.5970 C   0  0  0  0  0  0  0  0  0  0  0  0
  -20.8030   -0.2360  -34.1160 C   0  0  1  0  0  0  0  0  0  0  0  0
  -22.1780   -0.7550  -33.9810 C   0  0  2  0  0  0  0  0  0  0  0  0
  -22.5950   -1.8270  -34.8730 C   0  0  0  0  0  0  0  0  0  0  0  0
  -22.6380   -3.0310  -34.4490 O   0  0  0  0  0  0  0  0  0  0  0  0
  -22.9710   -1.5660  -36.2500 N   0  0  0  0  0  0  0  0  0  0  0  0
  -22.9520   -2.4270  -37.3000 N   0  0  0  0  0  0  0  0  0  0  0  0
  -23.3800   -1.9310  -38.5570 C   0  0  0  0  0  0  0  0  0  0  0  0
  -23.4640   -2.5450  -39.7170 C   0  0  0  0  0  0  0  0  0  0  0  0
  -23.8060   -0.2190  -38.2480 S   0  0  0  0  0  0  0  0  0  0  0  0
  -23.4160   -0.2540  -36.5080 C   0  0  0  0  0  0  0  0  0  0  0  0
  -23.4950    0.6670  -35.6150 N   0  0  0  0  0  0  0  0  0  0  0  0
  -23.1190    0.4060  -34.2530 C   0  0  0  0  0  0  0  0  0  0  0  0
  -23.5110    1.0650  -33.2790 O   0  0  0  0  0  0  0  0  0  0  0  0
  -20.6440    0.4540  -35.4290 C   0  0  0  0  0  0  0  0  0  0  0  0
  -20.4070   -0.2560  -36.5830 C   0  0  0  0  0  0  0  0  0  0  0  0
  -20.2580    0.3750  -37.7970 C   0  0  0  0  0  0  0  0  0  0  0  0
  -20.3470    1.7470  -37.8640 C   0  0  0  0  0  0  0  0  0  0  0  0
  -20.5860    2.5060  -36.7150 C   0  0  0  0  0  0  0  0  0  0  0  0
  -20.7290    1.8350  -35.5180 C   0  0  0  0  0  0  0  0  0  0  0  0
  -20.1450    2.6540  -39.5350 B   0  0  0  0  0  0  0  0  0  0  0  0
  -20.4650    1.6600  -33.0740 H   0  0  0  0  0  0  0  0  0  0  0  0
  -21.7760   -2.0210  -30.0120 H   0  0  0  0  0  0  0  0  0  0  0  0
  -19.9460   -5.3530  -29.5700 H   0  0  0  0  0  0  0  0  0  0  0  0
  -21.4900   -4.4890  -29.0520 H   0  0  0  0  0  0  0  0  0  0  0  0
  -20.1280   -1.1520  -34.1720 H   0  0  0  0  0  0  0  0  0  0  0  0
  -22.4210   -1.0990  -32.9380 H   0  0  0  0  0  0  0  0  0  0  0  0
  -22.6390   -3.4580  -37.2510 H   0  0  0  0  0  0  0  0  0  0  0  0
  -23.8130   -2.0040  -40.5700 H   0  0  0  0  0  0  0  0  0  0  0  0
  -23.1900   -3.5750  -39.8270 H   0  0  0  0  0  0  0  0  0  0  0  0
  -20.3280   -1.3360  -36.5910 H   0  0  0  0  0  0  0  0  0  0  0  0
  -20.0730   -0.1740  -38.7030 H   0  0  0  0  0  0  0  0  0  0  0  0
  -20.6570    3.5880  -36.7620 H   0  0  0  0  0  0  0  0  0  0  0  0
  -20.9170    2.3600  -34.5790 H   0  0  0  0  0  0  0  0  0  0  0  0
  1 11  1  0  0  0  0
  2  9  1  0  0  0  0
  2  1  1  0  0  0  0
  3  2  2  0  0  0  0
  4  3  1  0  0  0  0
  5  4  2  0  0  0  0
  6 33  1  6  0  0  0
  6  4  1  0  0  0  0
  6  7  1  0  0  0  0
  7  9  1  0  0  0  0
  7  8  2  0  0  0  0
  9 10  1  0  0  0  0
 10 11  1  0  0  0  0
 10 34  1  0  0  0  0
 11 12  2  0  0  0  0
 12 35  1  0  0  0  0
 12 36  1  0  0  0  0
 13 37  1  6  0  0  0
 13 14  1  0  0  0  0
 13  6  1  0  0  0  0
 14 38  1  1  0  0  0
 15 16  2  0  0  0  0
 15 14  1  0  0  0  0
 17 15  1  0  0  0  0
 18 39  1  0  0  0  0
 18 17  1  0  0  0  0
 19 21  1  0  0  0  0
 19 18  1  0  0  0  0
 20 19  2  0  0  0  0
 21 22  1  0  0  0  0
 22 17  1  0  0  0  0
 22 23  2  0  0  0  0
 23 24  1  0  0  0  0
 24 14  1  0  0  0  0
 24 25  2  0  0  0  0
 26 13  1  0  0  0  0
 27 26  2  0  0  0  0
 28 27  1  0  0  0  0
 29 28  2  0  0  0  0
 29 30  1  0  0  0  0
 30 31  2  0  0  0  0
 31 26  1  0  0  0  0
 31 45  1  0  0  0  0
 32 29  1  0  0  0  0
 40 20  1  0  0  0  0
 41 20  1  0  0  0  0
 42 27  1  0  0  0  0
 43 28  1  0  0  0  0
 44 30  1  0  0  0  0
M  END
>  <Pose>
1

>  <Score>
-5.84

$$$$
