
 OpenBabel03222201593D

 47 50  0  0  0  0  0  0  0  0999 V2000
  -17.8760    0.7280  -24.5380 S   0  0  0  0  0  0  0  0  0  0  0  0
  -18.3670   -0.6840  -25.3740 C   0  0  0  0  0  0  0  0  0  0  0  0
  -18.5000   -2.0020  -25.0270 N   0  0  0  0  0  0  0  0  0  0  0  0
  -18.9520   -2.9090  -25.9090 C   0  0  0  0  0  0  0  0  0  0  0  0
  -19.1060   -4.1240  -25.6830 O   0  0  0  0  0  0  0  0  0  0  0  0
  -19.2580   -2.4110  -27.1540 C   0  0  0  0  0  0  0  0  0  0  0  0
  -19.1280   -1.1000  -27.5070 C   0  0  0  0  0  0  0  0  0  0  0  0
  -18.6650   -0.1970  -26.5820 N   0  0  0  0  0  0  0  0  0  0  0  0
  -18.5210    1.0580  -26.7710 N   0  0  0  0  0  0  0  0  0  0  0  0
  -18.0980    1.8530  -25.8300 C   0  0  0  0  0  0  0  0  0  0  0  0
  -17.8910    3.2860  -25.8400 N   0  0  0  0  0  0  0  0  0  0  0  0
  -18.7720    4.1430  -25.1450 C   0  0  0  0  0  0  0  0  0  0  0  0
  -18.3980    5.5870  -25.3870 C   0  0  0  0  0  0  0  0  0  0  0  0
  -18.0230    5.7560  -26.7220 O   0  0  0  0  0  0  0  0  0  0  0  0
  -16.7690    5.1760  -26.9490 C   0  0  0  0  0  0  0  0  0  0  0  0
  -16.7610    3.7220  -26.5880 C   0  0  0  0  0  0  0  0  0  0  0  0
  -19.5060   -0.7200  -28.8660 C   0  0  0  0  0  0  0  0  0  0  0  0
  -20.7420   -0.4920  -29.1340 O   0  0  0  0  0  0  0  0  0  0  0  0
  -18.6050   -0.5840  -29.9430 N   0  0  0  0  0  0  0  0  0  0  0  0
  -18.4890   -1.6510  -30.9290 C   0  0  0  0  0  0  0  0  0  0  0  0
  -19.2190   -1.2980  -32.1720 C   0  0  0  0  0  0  0  0  0  0  0  0
  -20.4430   -1.8970  -32.4290 C   0  0  0  0  0  0  0  0  0  0  0  0
  -21.1060   -1.6090  -33.5960 C   0  0  0  0  0  0  0  0  0  0  0  0
  -20.6000   -0.7430  -34.5290 C   0  0  0  0  0  0  0  0  0  0  0  0
  -19.3800   -0.1410  -34.2800 C   0  0  0  0  0  0  0  0  0  0  0  0
  -18.7140   -0.4330  -33.1010 C   0  0  0  0  0  0  0  0  0  0  0  0
  -18.6070    1.0820  -35.5250 B   0  0  0  0  0  0  0  0  0  0  0  0
  -20.9410   -2.7660  -31.4850 O   0  0  0  0  0  0  0  0  0  0  0  0
  -21.0880   -4.1400  -31.8420 C   0  0  0  0  0  0  0  0  0  0  0  0
  -19.6300   -3.1360  -27.8890 H   0  0  0  0  0  0  0  0  0  0  0  0
  -18.7660    3.9170  -24.0430 H   0  0  0  0  0  0  0  0  0  0  0  0
  -19.8390    4.0520  -25.4680 H   0  0  0  0  0  0  0  0  0  0  0  0
  -17.5040    5.7970  -24.7480 H   0  0  0  0  0  0  0  0  0  0  0  0
  -19.2460    6.2480  -25.1880 H   0  0  0  0  0  0  0  0  0  0  0  0
  -16.4890    5.3450  -28.0300 H   0  0  0  0  0  0  0  0  0  0  0  0
  -16.0190    5.7700  -26.3640 H   0  0  0  0  0  0  0  0  0  0  0  0
  -16.6160    3.0930  -27.5180 H   0  0  0  0  0  0  0  0  0  0  0  0
  -15.8440    3.5570  -25.9430 H   0  0  0  0  0  0  0  0  0  0  0  0
  -18.0120    0.2610  -30.0480 H   0  0  0  0  0  0  0  0  0  0  0  0
  -18.9850   -2.5880  -30.5320 H   0  0  0  0  0  0  0  0  0  0  0  0
  -17.4500   -1.9350  -31.1380 H   0  0  0  0  0  0  0  0  0  0  0  0
  -22.0700   -2.0900  -33.7870 H   0  0  0  0  0  0  0  0  0  0  0  0
  -21.1190   -0.5080  -35.4590 H   0  0  0  0  0  0  0  0  0  0  0  0
  -17.7560    0.0730  -32.9690 H   0  0  0  0  0  0  0  0  0  0  0  0
  -21.4800   -4.7100  -30.9810 H   0  0  0  0  0  0  0  0  0  0  0  0
  -21.8050   -4.2720  -32.6720 H   0  0  0  0  0  0  0  0  0  0  0  0
  -20.1130   -4.5100  -32.1920 H   0  0  0  0  0  0  0  0  0  0  0  0
  2  3  2  0  0  0  0
  2  1  1  0  0  0  0
  4  5  2  0  0  0  0
  4  3  1  0  0  0  0
  6  4  1  0  0  0  0
  7  6  2  0  0  0  0
  7  8  1  0  0  0  0
  8  2  1  0  0  0  0
  9  8  1  0  0  0  0
  9 10  2  0  0  0  0
 10  1  1  0  0  0  0
 11 10  1  0  0  0  0
 11 12  1  0  0  0  0
 12 31  1  0  0  0  0
 13 34  1  0  0  0  0
 13 12  1  0  0  0  0
 13 33  1  0  0  0  0
 14 13  1  0  0  0  0
 15 14  1  0  0  0  0
 15 16  1  0  0  0  0
 15 36  1  0  0  0  0
 16 38  1  0  0  0  0
 16 11  1  0  0  0  0
 17  7  1  0  0  0  0
 18 17  2  0  0  0  0
 19 17  1  0  0  0  0
 20 40  1  0  0  0  0
 20 19  1  0  0  0  0
 21 20  1  0  0  0  0
 22 21  1  0  0  0  0
 22 28  1  0  0  0  0
 23 22  2  0  0  0  0
 24 25  2  0  0  0  0
 24 23  1  0  0  0  0
 25 26  1  0  0  0  0
 26 44  1  0  0  0  0
 26 21  2  0  0  0  0
 27 25  1  0  0  0  0
 29 28  1  0  0  0  0
 29 45  1  0  0  0  0
 30  6  1  0  0  0  0
 32 12  1  0  0  0  0
 35 15  1  0  0  0  0
 37 16  1  0  0  0  0
 39 19  1  0  0  0  0
 41 20  1  0  0  0  0
 42 23  1  0  0  0  0
 43 24  1  0  0  0  0
 46 29  1  0  0  0  0
 47 29  1  0  0  0  0
M  END
>  <Pose>
1

>  <Score>
-7.69

$$$$
