
 OpenBabel03222201593D

 43 46  0  0  1  0  0  0  0  0999 V2000
  -15.0250    3.7400  -23.6670 Cl  0  0  0  0  0  0  0  0  0  0  0  0
  -16.6970    4.3200  -23.5290 C   0  0  0  0  0  0  0  0  0  0  0  0
  -17.4920    4.2630  -24.6850 C   0  0  0  0  0  0  0  0  0  0  0  0
  -18.7780    4.7060  -24.5750 C   0  0  0  0  0  0  0  0  0  0  0  0
  -19.2540    5.1850  -23.3670 C   0  0  0  0  0  0  0  0  0  0  0  0
  -18.4730    5.2410  -22.2260 C   0  0  0  0  0  0  0  0  0  0  0  0
  -17.1590    4.7940  -22.3200 C   0  0  0  0  0  0  0  0  0  0  0  0
  -16.8260    3.8460  -25.9690 C   0  0  2  0  0  0  0  0  0  0  0  0
  -17.6630    4.4210  -27.0150 N   0  0  0  0  0  0  0  0  0  0  0  0
  -18.3590    3.5790  -27.8690 C   0  0  0  0  0  0  0  0  0  0  0  0
  -18.7300    2.1870  -27.4010 C   0  0  0  0  0  0  0  0  0  0  0  0
  -17.8620    1.6690  -26.4360 N   0  0  0  0  0  0  0  0  0  0  0  0
  -16.6730    2.4040  -26.1230 C   0  0  0  0  0  0  0  0  0  0  0  0
  -18.0360    0.4630  -25.7100 C   0  0  0  0  0  0  0  0  0  0  0  0
  -17.8030    0.6250  -24.4290 O   0  0  0  0  0  0  0  0  0  0  0  0
  -18.4120   -0.8530  -26.0830 C   0  0  0  0  0  0  0  0  0  0  0  0
  -18.4400   -1.8330  -25.0610 C   0  0  0  0  0  0  0  0  0  0  0  0
  -18.9080   -3.0590  -25.2940 N   0  0  0  0  0  0  0  0  0  0  0  0
  -19.3700   -3.4210  -26.4920 C   0  0  0  0  0  0  0  0  0  0  0  0
  -19.3690   -2.5170  -27.5190 C   0  0  0  0  0  0  0  0  0  0  0  0
  -18.8880   -1.2250  -27.3180 C   0  0  0  0  0  0  0  0  0  0  0  0
  -19.8940   -2.8830  -28.7990 N   0  0  0  0  0  0  0  0  0  0  0  0
  -20.4130   -4.2020  -28.9700 C   0  0  0  0  0  0  0  0  0  0  0  0
  -21.2570   -4.5210  -29.8320 O   0  0  0  0  0  0  0  0  0  0  0  0
  -19.9000   -5.2600  -28.0460 C   0  0  0  0  0  0  0  0  0  0  0  0
  -19.8540   -4.7140  -26.7180 O   0  0  0  0  0  0  0  0  0  0  0  0
  -19.4460    4.7150  -25.4560 H   0  0  0  0  0  0  0  0  0  0  0  0
  -20.2990    5.5430  -23.3120 H   0  0  0  0  0  0  0  0  0  0  0  0
  -18.9000    5.6240  -21.2890 H   0  0  0  0  0  0  0  0  0  0  0  0
  -16.5070    4.8090  -21.4630 H   0  0  0  0  0  0  0  0  0  0  0  0
  -15.8550    4.4030  -26.0190 H   0  0  0  0  0  0  0  0  0  0  0  0
  -18.2410    5.1950  -26.6320 H   0  0  0  0  0  0  0  0  0  0  0  0
  -19.3510    4.0910  -28.1260 H   0  0  0  0  0  0  0  0  0  0  0  0
  -17.8320    3.4950  -28.8720 H   0  0  0  0  0  0  0  0  0  0  0  0
  -18.4720    1.4910  -28.3560 H   0  0  0  0  0  0  0  0  0  0  0  0
  -19.8060    2.0600  -27.3240 H   0  0  0  0  0  0  0  0  0  0  0  0
  -16.1650    1.9240  -25.2340 H   0  0  0  0  0  0  0  0  0  0  0  0
  -15.8920    2.2110  -26.9540 H   0  0  0  0  0  0  0  0  0  0  0  0
  -18.0650   -1.5570  -24.0780 H   0  0  0  0  0  0  0  0  0  0  0  0
  -18.9540   -0.5850  -28.1400 H   0  0  0  0  0  0  0  0  0  0  0  0
  -19.9130   -2.2200  -29.5890 H   0  0  0  0  0  0  0  0  0  0  0  0
  -18.8900   -5.5920  -28.2960 H   0  0  0  0  0  0  0  0  0  0  0  0
  -20.5690   -6.1380  -28.0000 H   0  0  0  0  0  0  0  0  0  0  0  0
  1  2  1  0  0  0  0
  2  7  1  0  0  0  0
  3  4  1  0  0  0  0
  3  2  2  0  0  0  0
  4  5  2  0  0  0  0
  5 28  1  0  0  0  0
  5  6  1  0  0  0  0
  6 29  1  0  0  0  0
  7  6  2  0  0  0  0
  7 30  1  0  0  0  0
  8 31  1  6  0  0  0
  8  3  1  0  0  0  0
  9 32  1  0  0  0  0
  9  8  1  0  0  0  0
 10 11  1  0  0  0  0
 10  9  1  0  0  0  0
 11 36  1  0  0  0  0
 11 12  1  0  0  0  0
 12 13  1  0  0  0  0
 12 14  1  0  0  0  0
 13  8  1  0  0  0  0
 13 37  1  0  0  0  0
 14 15  2  0  0  0  0
 16 14  1  0  0  0  0
 16 17  2  0  0  0  0
 17 39  1  0  0  0  0
 18 17  1  0  0  0  0
 19 18  2  0  0  0  0
 20 21  2  0  0  0  0
 20 19  1  0  0  0  0
 21 16  1  0  0  0  0
 22 20  1  0  0  0  0
 23 22  1  0  0  0  0
 23 25  1  0  0  0  0
 24 23  2  0  0  0  0
 25 43  1  0  0  0  0
 25 26  1  0  0  0  0
 26 19  1  0  0  0  0
 27  4  1  0  0  0  0
 33 10  1  0  0  0  0
 34 10  1  0  0  0  0
 35 11  1  0  0  0  0
 38 13  1  0  0  0  0
 40 21  1  0  0  0  0
 41 22  1  0  0  0  0
 42 25  1  0  0  0  0
M  END
>  <Pose>
1

>  <Score>
-6.35

$$$$
