
 OpenBabel03222201593D

 63 66  0  0  1  0  0  0  0  0999 V2000
  -18.7380    4.5800  -33.6150 B   0  0  0  0  0  0  0  0  0  0  0  0
  -19.0660    2.8140  -34.3000 C   0  0  0  0  0  0  0  0  0  0  0  0
  -19.7570    1.8740  -33.5270 C   0  0  0  0  0  0  0  0  0  0  0  0
  -20.0060    0.5930  -33.9980 C   0  0  0  0  0  0  0  0  0  0  0  0
  -19.5440    0.2960  -35.2510 C   0  0  0  0  0  0  0  0  0  0  0  0
  -18.8560    1.2150  -36.0310 C   0  0  0  0  0  0  0  0  0  0  0  0
  -18.6180    2.4810  -35.5520 C   0  0  0  0  0  0  0  0  0  0  0  0
  -20.7140   -0.3800  -33.1530 C   0  0  1  0  0  0  0  0  0  0  0  0
  -20.5600   -1.7190  -33.6860 N   0  0  0  0  0  0  0  0  0  0  0  0
  -19.2830   -2.1800  -33.2800 C   0  0  0  0  0  0  0  0  0  0  0  0
  -18.6080   -3.0310  -33.8690 O   0  0  0  0  0  0  0  0  0  0  0  0
  -18.9480   -1.4490  -32.0450 C   0  0  0  0  0  0  0  0  0  0  0  0
  -17.9110   -1.5570  -31.3470 O   0  0  0  0  0  0  0  0  0  0  0  0
  -20.0870   -0.5730  -31.8020 C   0  0  0  0  0  0  0  0  0  0  0  0
  -20.4630   -0.1090  -30.6190 C   0  0  0  0  0  0  0  0  0  0  0  0
  -21.6320    0.6880  -30.6220 O   0  0  0  0  0  0  0  0  0  0  0  0
  -19.7530   -0.3760  -29.3730 C   0  0  0  0  0  0  0  0  0  0  0  0
  -19.6610   -1.6020  -28.7840 C   0  0  0  0  0  0  0  0  0  0  0  0
  -18.9970   -1.7620  -27.5540 C   0  0  0  0  0  0  0  0  0  0  0  0
  -18.4140   -0.7160  -26.8910 C   0  0  0  0  0  0  0  0  0  0  0  0
  -18.5050    0.5240  -27.4850 C   0  0  0  0  0  0  0  0  0  0  0  0
  -19.1490    0.6920  -28.6830 C   0  0  0  0  0  0  0  0  0  0  0  0
  -17.7540   -0.8690  -25.6720 O   0  0  0  0  0  0  0  0  0  0  0  0
  -17.9550    0.0490  -24.6280 C   0  0  0  0  0  0  0  0  0  0  0  0
  -20.2180   -2.8010  -29.4540 C   0  0  0  0  0  0  0  0  0  0  0  0
  -21.5580   -2.4010  -34.4830 C   0  0  0  0  0  0  0  0  0  0  0  0
  -22.6300   -1.4970  -35.0040 C   0  0  0  0  0  0  0  0  0  0  0  0
  -22.3850   -0.9020  -36.3380 C   0  0  0  0  0  0  0  0  0  0  0  0
  -22.7000   -1.7290  -37.4480 N   0  0  0  0  0  4  0  0  0  0  0  0
  -24.1320   -2.0530  -37.5550 C   0  0  0  0  0  0  0  0  0  0  0  0
  -24.1930   -3.3370  -38.3850 C   0  0  0  0  0  0  0  0  0  0  0  0
  -22.9820   -3.6220  -38.9900 O   0  0  0  0  0  0  0  0  0  0  0  0
  -22.4940   -2.5120  -39.6790 C   0  0  0  0  0  0  0  0  0  0  0  0
  -22.2780   -1.3140  -38.7360 C   0  0  0  0  0  0  0  0  0  0  0  0
  -20.0750    2.2020  -32.5650 H   0  0  0  0  0  0  0  0  0  0  0  0
  -19.6990   -0.6790  -35.6470 H   0  0  0  0  0  0  0  0  0  0  0  0
  -18.4980    0.9690  -37.0170 H   0  0  0  0  0  0  0  0  0  0  0  0
  -18.0830    3.2460  -36.1210 H   0  0  0  0  0  0  0  0  0  0  0  0
  -21.7720   -0.0520  -33.0850 H   0  0  0  0  0  0  0  0  0  0  0  0
  -18.9380   -2.7570  -27.0980 H   0  0  0  0  0  0  0  0  0  0  0  0
  -18.0360    1.3580  -26.9510 H   0  0  0  0  0  0  0  0  0  0  0  0
  -19.2060    1.6700  -29.1310 H   0  0  0  0  0  0  0  0  0  0  0  0
  -17.6430    1.0880  -24.9230 H   0  0  0  0  0  0  0  0  0  0  0  0
  -17.3580   -0.1920  -23.7440 H   0  0  0  0  0  0  0  0  0  0  0  0
  -19.0160    0.1510  -24.3140 H   0  0  0  0  0  0  0  0  0  0  0  0
  -21.1410   -2.6270  -30.0190 H   0  0  0  0  0  0  0  0  0  0  0  0
  -20.4950   -3.5750  -28.6750 H   0  0  0  0  0  0  0  0  0  0  0  0
  -19.4250   -3.3220  -30.0640 H   0  0  0  0  0  0  0  0  0  0  0  0
  -21.0280   -2.8280  -35.3680 H   0  0  0  0  0  0  0  0  0  0  0  0
  -22.0110   -3.2670  -33.9670 H   0  0  0  0  0  0  0  0  0  0  0  0
  -23.5810   -2.0990  -34.9560 H   0  0  0  0  0  0  0  0  0  0  0  0
  -22.8000   -0.6760  -34.2420 H   0  0  0  0  0  0  0  0  0  0  0  0
  -21.2920   -0.6680  -36.4010 H   0  0  0  0  0  0  0  0  0  0  0  0
  -22.9140    0.0740  -36.3940 H   0  0  0  0  0  0  0  0  0  0  0  0
  -22.2360   -2.6710  -37.2680 H   0  0  0  0  0  0  0  0  0  0  0  0
  -24.6110   -2.1810  -36.5820 H   0  0  0  0  0  0  0  0  0  0  0  0
  -24.6080   -1.2010  -38.0970 H   0  0  0  0  0  0  0  0  0  0  0  0
  -24.4030   -4.2050  -37.6940 H   0  0  0  0  0  0  0  0  0  0  0  0
  -25.0490   -3.3040  -39.0660 H   0  0  0  0  0  0  0  0  0  0  0  0
  -23.2330   -2.2830  -40.4760 H   0  0  0  0  0  0  0  0  0  0  0  0
  -21.5550   -2.7870  -40.2090 H   0  0  0  0  0  0  0  0  0  0  0  0
  -22.8710   -0.4860  -39.1680 H   0  0  0  0  0  0  0  0  0  0  0  0
  -21.1920   -1.1120  -38.7550 H   0  0  0  0  0  0  0  0  0  0  0  0
  2  1  1  0  0  0  0
  2  3  1  0  0  0  0
  3 35  1  0  0  0  0
  4  3  2  0  0  0  0
  4  8  1  0  0  0  0
  5  4  1  0  0  0  0
  6  7  1  0  0  0  0
  6  5  2  0  0  0  0
  7  2  2  0  0  0  0
  8 39  1  1  0  0  0
  8 14  1  0  0  0  0
  9 10  1  0  0  0  0
  9  8  1  0  0  0  0
 10 12  1  0  0  0  0
 11 10  2  0  0  0  0
 12 14  1  0  0  0  0
 12 13  2  0  0  0  0
 14 15  2  0  0  0  0
 15 17  1  0  0  0  0
 16 15  1  0  0  0  0
 17 18  2  0  0  0  0
 17 22  1  0  0  0  0
 18 19  1  0  0  0  0
 19 40  1  0  0  0  0
 19 20  2  0  0  0  0
 20 23  1  0  0  0  0
 21 41  1  0  0  0  0
 21 20  1  0  0  0  0
 22 21  2  0  0  0  0
 23 24  1  0  0  0  0
 24 45  1  0  0  0  0
 24 44  1  0  0  0  0
 25 18  1  0  0  0  0
 25 47  1  0  0  0  0
 26 50  1  0  0  0  0
 26  9  1  0  0  0  0
 27 51  1  0  0  0  0
 27 26  1  0  0  0  0
 27 52  1  0  0  0  0
 28 27  1  0  0  0  0
 29 55  1  0  0  0  0
 29 28  1  0  0  0  0
 30 29  1  0  0  0  0
 30 56  1  0  0  0  0
 31 58  1  0  0  0  0
 31 30  1  0  0  0  0
 32 31  1  0  0  0  0
 33 32  1  0  0  0  0
 33 34  1  0  0  0  0
 34 29  1  0  0  0  0
 36  5  1  0  0  0  0
 37  6  1  0  0  0  0
 38  7  1  0  0  0  0
 42 22  1  0  0  0  0
 43 24  1  0  0  0  0
 46 25  1  0  0  0  0
 48 25  1  0  0  0  0
 49 26  1  0  0  0  0
 53 28  1  0  0  0  0
 54 28  1  0  0  0  0
 57 30  1  0  0  0  0
 59 31  1  0  0  0  0
 60 33  1  0  0  0  0
 61 33  1  0  0  0  0
 62 34  1  0  0  0  0
 63 34  1  0  0  0  0
M  END
>  <Pose>
1

>  <Score>
-6.17

$$$$
