
 OpenBabel03222201593D

 48 51  0  0  1  0  0  0  0  0999 V2000
  -22.0430   -0.9540  -40.8250 B   0  0  0  0  0  0  0  0  0  0  0  0
  -21.8510   -0.2080  -39.0730 C   0  0  0  0  0  0  0  0  0  0  0  0
  -22.3540   -0.8670  -37.9860 C   0  0  0  0  0  0  0  0  0  0  0  0
  -22.2190   -0.3330  -36.7100 C   0  0  0  0  0  0  0  0  0  0  0  0
  -21.5780    0.8590  -36.5800 C   0  0  0  0  0  0  0  0  0  0  0  0
  -21.0730    1.5200  -37.6890 C   0  0  0  0  0  0  0  0  0  0  0  0
  -21.2060    0.9890  -38.9480 C   0  0  0  0  0  0  0  0  0  0  0  0
  -22.7600   -1.0350  -35.5580 C   0  0  0  0  0  0  0  0  0  0  0  0
  -23.7150   -0.4810  -34.8990 O   0  0  0  0  0  0  0  0  0  0  0  0
  -22.2720   -2.2920  -35.1480 N   0  0  0  0  0  0  0  0  0  0  0  0
  -22.2920   -2.5860  -33.7260 C   0  0  2  0  0  0  0  0  0  0  0  0
  -21.0260   -2.1090  -33.0420 C   0  0  0  0  0  0  0  0  0  0  0  0
  -20.9470   -2.9640  -31.8740 N   0  0  0  0  0  0  0  0  0  0  0  0
  -21.9380   -4.0200  -31.9360 C   0  0  1  0  0  0  0  0  0  0  0  0
  -22.2580   -4.0600  -33.4360 C   0  0  0  0  0  0  0  0  0  0  0  0
  -21.3220   -5.2650  -31.4790 C   0  0  0  0  0  0  0  0  0  0  0  0
  -21.3610   -6.2970  -32.1650 O   0  0  0  0  0  0  0  0  0  0  0  0
  -20.6720   -5.2590  -30.2190 N   0  0  0  0  0  0  0  0  0  0  0  0
  -20.1220   -4.0240  -29.7070 C   0  0  1  0  0  0  0  0  0  0  0  0
  -20.0960   -2.9440  -30.7190 C   0  0  0  0  0  0  0  0  0  0  0  0
  -19.3070   -1.9730  -30.5750 O   0  0  0  0  0  0  0  0  0  0  0  0
  -20.7850   -3.5820  -28.4200 C   0  0  0  0  0  0  0  0  0  0  0  0
  -19.9220   -2.7340  -27.5820 C   0  0  0  0  0  0  0  0  0  0  0  0
  -19.4670   -1.5220  -28.0700 C   0  0  0  0  0  0  0  0  0  0  0  0
  -18.6590   -0.7240  -27.2940 C   0  0  0  0  0  0  0  0  0  0  0  0
  -18.2670   -1.0770  -26.0170 C   0  0  0  0  0  0  0  0  0  0  0  0
  -18.7190   -2.2840  -25.5280 C   0  0  0  0  0  0  0  0  0  0  0  0
  -19.5300   -3.0990  -26.2930 C   0  0  0  0  0  0  0  0  0  0  0  0
  -22.8740   -1.8260  -38.0600 H   0  0  0  0  0  0  0  0  0  0  0  0
  -21.4590    1.3070  -35.5900 H   0  0  0  0  0  0  0  0  0  0  0  0
  -20.5630    2.4640  -37.5870 H   0  0  0  0  0  0  0  0  0  0  0  0
  -20.8190    1.4850  -39.8390 H   0  0  0  0  0  0  0  0  0  0  0  0
  -21.9240   -2.9600  -35.8490 H   0  0  0  0  0  0  0  0  0  0  0  0
  -23.1340   -2.1290  -33.2090 H   0  0  0  0  0  0  0  0  0  0  0  0
  -20.1210   -2.2670  -33.6680 H   0  0  0  0  0  0  0  0  0  0  0  0
  -21.0910   -1.0360  -32.7560 H   0  0  0  0  0  0  0  0  0  0  0  0
  -22.8570   -3.7840  -31.3590 H   0  0  0  0  0  0  0  0  0  0  0  0
  -23.2390   -4.5530  -33.5180 H   0  0  0  0  0  0  0  0  0  0  0  0
  -21.4350   -4.5900  -33.9280 H   0  0  0  0  0  0  0  0  0  0  0  0
  -20.5690   -6.1200  -29.6350 H   0  0  0  0  0  0  0  0  0  0  0  0
  -19.0590   -4.2770  -29.4120 H   0  0  0  0  0  0  0  0  0  0  0  0
  -21.7280   -3.0640  -28.6770 H   0  0  0  0  0  0  0  0  0  0  0  0
  -21.0200   -4.4940  -27.8480 H   0  0  0  0  0  0  0  0  0  0  0  0
  -19.7170   -1.1540  -29.0590 H   0  0  0  0  0  0  0  0  0  0  0  0
  -18.3000    0.2250  -27.6690 H   0  0  0  0  0  0  0  0  0  0  0  0
  -17.6240   -0.4150  -25.4310 H   0  0  0  0  0  0  0  0  0  0  0  0
  -18.4090   -2.5630  -24.5190 H   0  0  0  0  0  0  0  0  0  0  0  0
  -19.8660   -4.0410  -25.8780 H   0  0  0  0  0  0  0  0  0  0  0  0
  1  2  1  0  0  0  0
  2  7  2  0  0  0  0
  2  3  1  0  0  0  0
  3  4  2  0  0  0  0
  4  5  1  0  0  0  0
  4  8  1  0  0  0  0
  5 30  1  0  0  0  0
  6 31  1  0  0  0  0
  6  5  2  0  0  0  0
  7  6  1  0  0  0  0
  8 10  1  0  0  0  0
  8  9  2  0  0  0  0
 10 11  1  0  0  0  0
 11 15  1  0  0  0  0
 11 34  1  1  0  0  0
 11 12  1  0  0  0  0
 12 36  1  0  0  0  0
 12 13  1  0  0  0  0
 13 20  1  0  0  0  0
 14 13  1  0  0  0  0
 14 16  1  0  0  0  0
 14 37  1  1  0  0  0
 15 14  1  0  0  0  0
 16 18  1  0  0  0  0
 17 16  2  0  0  0  0
 18 19  1  0  0  0  0
 18 40  1  0  0  0  0
 19 41  1  1  0  0  0
 19 22  1  0  0  0  0
 20 21  2  0  0  0  0
 20 19  1  0  0  0  0
 22 43  1  0  0  0  0
 22 23  1  0  0  0  0
 23 28  1  0  0  0  0
 24 23  2  0  0  0  0
 24 25  1  0  0  0  0
 25 26  2  0  0  0  0
 26 27  1  0  0  0  0
 26 46  1  0  0  0  0
 27 47  1  0  0  0  0
 28 48  1  0  0  0  0
 28 27  2  0  0  0  0
 29  3  1  0  0  0  0
 32  7  1  0  0  0  0
 33 10  1  0  0  0  0
 35 12  1  0  0  0  0
 38 15  1  0  0  0  0
 39 15  1  0  0  0  0
 42 22  1  0  0  0  0
 44 24  1  0  0  0  0
 45 25  1  0  0  0  0
M  END
>  <Pose>
1

>  <Score>
-7.82

$$$$
