
 OpenBabel03222201593D

 61 64  0  0  1  0  0  0  0  0999 V2000
  -24.2130   -0.2620  -34.4770 B   0  0  0  0  0  0  0  0  0  0  0  0
  -23.1690    0.7130  -35.7440 C   0  0  0  0  0  0  0  0  0  0  0  0
  -21.9560    1.2630  -35.4650 C   0  0  0  0  0  0  0  0  0  0  0  0
  -21.1700    1.9770  -36.3530 C   0  0  0  0  0  0  0  0  0  0  0  0
  -21.6630    2.1470  -37.6440 C   0  0  0  0  0  0  0  0  0  0  0  0
  -22.8920    1.6000  -37.9630 C   0  0  0  0  0  0  0  0  0  0  0  0
  -23.6540    0.8920  -37.0500 C   0  0  0  0  0  0  0  0  0  0  0  0
  -19.8950    2.5200  -35.8750 C   0  0  1  0  0  0  0  0  0  0  0  0
  -20.0370    3.8690  -35.4710 N   0  0  0  0  0  0  0  0  0  0  0  0
  -19.8260    3.9740  -34.0730 C   0  0  0  0  0  0  0  0  0  0  0  0
  -19.9750    5.0360  -33.3920 O   0  0  0  0  0  0  0  0  0  0  0  0
  -19.4120    2.6820  -33.5710 C   0  0  0  0  0  0  0  0  0  0  0  0
  -19.1610    2.4940  -32.3500 O   0  0  0  0  0  0  0  0  0  0  0  0
  -19.3750    1.7720  -34.7000 C   0  0  0  0  0  0  0  0  0  0  0  0
  -18.9970    0.5160  -34.6340 C   0  0  0  0  0  0  0  0  0  0  0  0
  -19.0690   -0.2660  -35.7640 O   0  0  0  0  0  0  0  0  0  0  0  0
  -18.5020   -0.0530  -33.4050 C   0  0  0  0  0  0  0  0  0  0  0  0
  -19.3290   -0.5240  -32.3690 C   0  0  0  0  0  0  0  0  0  0  0  0
  -18.5640   -1.0210  -31.3900 N   0  0  0  0  0  0  0  0  0  0  0  0
  -17.3070   -0.8800  -31.7710 N   0  0  0  0  0  0  0  0  0  0  0  0
  -17.2270   -0.3030  -32.9790 C   0  0  0  0  0  0  0  0  0  0  0  0
  -18.9990   -1.6080  -30.1720 C   0  0  0  0  0  0  0  0  0  0  0  0
  -18.6760   -0.9810  -28.9760 C   0  0  0  0  0  0  0  0  0  0  0  0
  -19.0740   -1.4900  -27.7550 C   0  0  0  0  0  0  0  0  0  0  0  0
  -19.8260   -2.6630  -27.6770 C   0  0  0  0  0  0  0  0  0  0  0  0
  -20.1480   -3.2870  -28.8690 C   0  0  0  0  0  0  0  0  0  0  0  0
  -19.7390   -2.7620  -30.0680 C   0  0  0  0  0  0  0  0  0  0  0  0
  -20.8190   -0.4600  -32.4030 C   0  0  0  0  0  0  0  0  0  0  0  0
  -20.3350    5.0370  -36.3460 C   0  0  0  0  0  0  0  0  0  0  0  0
  -21.8160    5.3170  -36.3290 C   0  0  0  0  0  0  0  0  0  0  0  0
  -22.1910    6.5880  -37.0230 C   0  0  0  0  0  0  0  0  0  0  0  0
  -23.4860    7.1070  -36.7320 N   0  0  0  0  0  4  0  0  0  0  0  0
  -23.5330    8.4010  -36.1330 C   0  0  0  0  0  0  0  0  0  0  0  0
  -24.3000    7.1550  -37.9570 C   0  0  0  0  0  0  0  0  0  0  0  0
  -21.5960    1.1120  -34.4280 H   0  0  0  0  0  0  0  0  0  0  0  0
  -21.0830    2.6980  -38.3610 H   0  0  0  0  0  0  0  0  0  0  0  0
  -23.2740    1.7360  -38.9790 H   0  0  0  0  0  0  0  0  0  0  0  0
  -24.6190    0.4640  -37.2970 H   0  0  0  0  0  0  0  0  0  0  0  0
  -19.1540    2.4820  -36.7140 H   0  0  0  0  0  0  0  0  0  0  0  0
  -16.3140   -0.0830  -33.5350 H   0  0  0  0  0  0  0  0  0  0  0  0
  -18.0820   -0.0550  -29.0630 H   0  0  0  0  0  0  0  0  0  0  0  0
  -18.8090   -0.9750  -26.8400 H   0  0  0  0  0  0  0  0  0  0  0  0
  -20.1260   -3.0450  -26.6990 H   0  0  0  0  0  0  0  0  0  0  0  0
  -20.7340   -4.2050  -28.7920 H   0  0  0  0  0  0  0  0  0  0  0  0
  -20.0160   -3.2810  -30.9740 H   0  0  0  0  0  0  0  0  0  0  0  0
  -21.1970   -0.6720  -33.4320 H   0  0  0  0  0  0  0  0  0  0  0  0
  -21.2010    0.4950  -31.9980 H   0  0  0  0  0  0  0  0  0  0  0  0
  -21.2430   -1.2720  -31.7620 H   0  0  0  0  0  0  0  0  0  0  0  0
  -19.7110    5.9000  -36.0500 H   0  0  0  0  0  0  0  0  0  0  0  0
  -20.0940    4.7210  -37.4020 H   0  0  0  0  0  0  0  0  0  0  0  0
  -22.2560    4.4960  -36.9750 H   0  0  0  0  0  0  0  0  0  0  0  0
  -22.2730    5.1610  -35.3510 H   0  0  0  0  0  0  0  0  0  0  0  0
  -22.1320    6.4640  -38.1500 H   0  0  0  0  0  0  0  0  0  0  0  0
  -21.4190    7.3820  -36.7960 H   0  0  0  0  0  0  0  0  0  0  0  0
  -24.0080    6.4270  -36.1000 H   0  0  0  0  0  0  0  0  0  0  0  0
  -24.1750    9.1150  -36.7160 H   0  0  0  0  0  0  0  0  0  0  0  0
  -22.5590    8.8560  -35.8690 H   0  0  0  0  0  0  0  0  0  0  0  0
  -24.0730    8.3070  -35.1450 H   0  0  0  0  0  0  0  0  0  0  0  0
  -25.2140    6.5450  -37.8620 H   0  0  0  0  0  0  0  0  0  0  0  0
  -23.6720    6.7410  -38.7780 H   0  0  0  0  0  0  0  0  0  0  0  0
  -24.5160    8.2120  -38.2310 H   0  0  0  0  0  0  0  0  0  0  0  0
  2  3  1  0  0  0  0
  2  1  1  0  0  0  0
  3 35  1  0  0  0  0
  4  8  1  0  0  0  0
  4  3  2  0  0  0  0
  5  4  1  0  0  0  0
  6  5  2  0  0  0  0
  6  7  1  0  0  0  0
  7  2  2  0  0  0  0
  8 39  1  6  0  0  0
  8  9  1  0  0  0  0
  8 14  1  0  0  0  0
  9 10  1  0  0  0  0
 10 12  1  0  0  0  0
 10 11  2  0  0  0  0
 12 13  2  0  0  0  0
 14 15  2  0  0  0  0
 14 12  1  0  0  0  0
 15 17  1  0  0  0  0
 16 15  1  0  0  0  0
 17 21  1  0  0  0  0
 17 18  2  0  0  0  0
 18 19  1  0  0  0  0
 19 22  1  0  0  0  0
 20 19  1  0  0  0  0
 21 20  2  0  0  0  0
 22 27  2  0  0  0  0
 22 23  1  0  0  0  0
 23 24  2  0  0  0  0
 24 25  1  0  0  0  0
 24 42  1  0  0  0  0
 25 43  1  0  0  0  0
 26 44  1  0  0  0  0
 26 25  2  0  0  0  0
 27 26  1  0  0  0  0
 28 18  1  0  0  0  0
 28 47  1  0  0  0  0
 28 48  1  0  0  0  0
 29 30  1  0  0  0  0
 29 49  1  0  0  0  0
 29  9  1  0  0  0  0
 30 52  1  0  0  0  0
 31 54  1  0  0  0  0
 31 32  1  0  0  0  0
 31 30  1  0  0  0  0
 32 33  1  0  0  0  0
 32 55  1  0  0  0  0
 33 57  1  0  0  0  0
 33 58  1  0  0  0  0
 34 59  1  0  0  0  0
 34 32  1  0  0  0  0
 36  5  1  0  0  0  0
 37  6  1  0  0  0  0
 38  7  1  0  0  0  0
 40 21  1  0  0  0  0
 41 23  1  0  0  0  0
 45 27  1  0  0  0  0
 46 28  1  0  0  0  0
 50 29  1  0  0  0  0
 51 30  1  0  0  0  0
 53 31  1  0  0  0  0
 56 33  1  0  0  0  0
 60 34  1  0  0  0  0
 61 34  1  0  0  0  0
M  END
>  <Pose>
1

>  <Score>
-6.48

$$$$
