
 OpenBabel03222201593D

 60 63  0  0  1  0  0  0  0  0999 V2000
  -21.5260   -1.2670  -40.5700 B   0  0  0  0  0  0  0  0  0  0  0  0
  -22.1960   -0.6540  -38.8890 C   0  0  0  0  0  0  0  0  0  0  0  0
  -21.3350   -0.1930  -37.9420 C   0  0  0  0  0  0  0  0  0  0  0  0
  -21.8100    0.2590  -36.7070 C   0  0  0  0  0  0  0  0  0  0  0  0
  -23.1690    0.2200  -36.4850 C   0  0  0  0  0  0  0  0  0  0  0  0
  -24.0480   -0.2500  -37.4530 C   0  0  0  0  0  0  0  0  0  0  0  0
  -23.5500   -0.6870  -38.6580 C   0  0  0  0  0  0  0  0  0  0  0  0
  -20.8240    0.7400  -35.7300 C   0  0  1  0  0  0  0  0  0  0  0  0
  -21.0820    2.0720  -35.2170 N   0  0  0  0  0  0  0  0  0  0  0  0
  -22.0710    1.9600  -34.1700 C   0  0  0  0  0  0  0  0  0  0  0  0
  -22.8490    2.8320  -33.7660 O   0  0  0  0  0  0  0  0  0  0  0  0
  -21.9500    0.5860  -33.6930 C   0  0  0  0  0  0  0  0  0  0  0  0
  -22.6110    0.0070  -32.7800 O   0  0  0  0  0  0  0  0  0  0  0  0
  -20.9020   -0.0680  -34.4600 C   0  0  0  0  0  0  0  0  0  0  0  0
  -20.2050   -1.1490  -34.1490 C   0  0  0  0  0  0  0  0  0  0  0  0
  -19.2700   -1.6280  -35.1110 O   0  0  0  0  0  0  0  0  0  0  0  0
  -20.3670   -1.8210  -32.8850 C   0  0  0  0  0  0  0  0  0  0  0  0
  -19.8110   -1.5140  -31.6940 N   0  0  0  0  0  0  0  0  0  0  0  0
  -20.2670   -2.3920  -30.7680 C   0  0  0  0  0  0  0  0  0  0  0  0
  -21.1220   -3.2690  -31.3620 N   0  0  0  0  0  0  0  0  0  0  0  0
  -21.1750   -2.9080  -32.6660 C   0  0  0  0  0  0  0  0  0  0  0  0
  -21.9980   -3.6060  -33.6910 C   0  0  0  0  0  0  0  0  0  0  0  0
  -19.9020   -2.3890  -29.4460 C   0  0  0  0  0  0  0  0  0  0  0  0
  -19.0070   -1.4280  -29.0330 C   0  0  0  0  0  0  0  0  0  0  0  0
  -18.5370   -0.5330  -29.9730 C   0  0  0  0  0  0  0  0  0  0  0  0
  -18.9370   -0.5800  -31.2820 C   0  0  0  0  0  0  0  0  0  0  0  0
  -20.4380   -3.3800  -28.4690 C   0  0  0  0  0  0  0  0  0  0  0  0
  -20.4690    3.3100  -35.6660 C   0  0  0  0  0  0  0  0  0  0  0  0
  -21.4330    4.4230  -35.8950 C   0  0  0  0  0  0  0  0  0  0  0  0
  -20.9340    5.7870  -35.4880 C   0  0  0  0  0  0  0  0  0  0  0  0
  -21.6400    6.2340  -34.3110 N   0  0  0  0  0  4  0  0  0  0  0  0
  -20.8430    6.0030  -33.1210 C   0  0  0  0  0  0  0  0  0  0  0  0
  -21.8310    7.6680  -34.4090 C   0  0  0  0  0  0  0  0  0  0  0  0
  -20.2720   -0.1890  -38.1800 H   0  0  0  0  0  0  0  0  0  0  0  0
  -23.5790    0.5630  -35.5300 H   0  0  0  0  0  0  0  0  0  0  0  0
  -25.1240   -0.2760  -37.2660 H   0  0  0  0  0  0  0  0  0  0  0  0
  -24.2280   -1.0580  -39.4240 H   0  0  0  0  0  0  0  0  0  0  0  0
  -19.8070    0.6620  -36.1710 H   0  0  0  0  0  0  0  0  0  0  0  0
  -21.3580   -4.0890  -34.4450 H   0  0  0  0  0  0  0  0  0  0  0  0
  -22.6900   -2.9010  -34.1940 H   0  0  0  0  0  0  0  0  0  0  0  0
  -22.6160   -4.3930  -33.2350 H   0  0  0  0  0  0  0  0  0  0  0  0
  -18.6850   -1.3850  -27.9870 H   0  0  0  0  0  0  0  0  0  0  0  0
  -17.8170    0.2390  -29.6350 H   0  0  0  0  0  0  0  0  0  0  0  0
  -18.5600    0.1270  -32.0150 H   0  0  0  0  0  0  0  0  0  0  0  0
  -21.0680   -4.1140  -28.9900 H   0  0  0  0  0  0  0  0  0  0  0  0
  -20.9880   -2.8590  -27.6470 H   0  0  0  0  0  0  0  0  0  0  0  0
  -19.5410   -3.9240  -28.0720 H   0  0  0  0  0  0  0  0  0  0  0  0
  -19.9640    3.0900  -36.6270 H   0  0  0  0  0  0  0  0  0  0  0  0
  -19.6730    3.6380  -34.9680 H   0  0  0  0  0  0  0  0  0  0  0  0
  -22.4180    4.2390  -35.4010 H   0  0  0  0  0  0  0  0  0  0  0  0
  -21.6690    4.4900  -36.9800 H   0  0  0  0  0  0  0  0  0  0  0  0
  -19.8560    5.7780  -35.2250 H   0  0  0  0  0  0  0  0  0  0  0  0
  -21.0850    6.5160  -36.2880 H   0  0  0  0  0  0  0  0  0  0  0  0
  -22.5940    5.8180  -34.2340 H   0  0  0  0  0  0  0  0  0  0  0  0
  -21.1180    6.7390  -32.3140 H   0  0  0  0  0  0  0  0  0  0  0  0
  -19.7900    6.3010  -33.4010 H   0  0  0  0  0  0  0  0  0  0  0  0
  -20.8610    4.9690  -32.7700 H   0  0  0  0  0  0  0  0  0  0  0  0
  -22.4080    8.0540  -33.5290 H   0  0  0  0  0  0  0  0  0  0  0  0
  -22.3130    7.9600  -35.3650 H   0  0  0  0  0  0  0  0  0  0  0  0
  -20.8250    8.1330  -34.3780 H   0  0  0  0  0  0  0  0  0  0  0  0
  1  2  1  0  0  0  0
  2  7  2  0  0  0  0
  2  3  1  0  0  0  0
  3  4  2  0  0  0  0
  4  5  1  0  0  0  0
  4  8  1  0  0  0  0
  5 35  1  0  0  0  0
  6 36  1  0  0  0  0
  6  5  2  0  0  0  0
  7  6  1  0  0  0  0
  8 38  1  6  0  0  0
  8  9  1  0  0  0  0
  8 14  1  0  0  0  0
  9 10  1  0  0  0  0
 10 11  2  0  0  0  0
 10 12  1  0  0  0  0
 12 13  2  0  0  0  0
 14 15  2  0  0  0  0
 14 12  1  0  0  0  0
 15 17  1  0  0  0  0
 16 15  1  0  0  0  0
 17 21  2  0  0  0  0
 17 18  1  0  0  0  0
 18 26  1  0  0  0  0
 18 19  1  0  0  0  0
 19 23  1  0  0  0  0
 20 19  2  0  0  0  0
 21 20  1  0  0  0  0
 22 41  1  0  0  0  0
 22 21  1  0  0  0  0
 23 24  2  0  0  0  0
 23 27  1  0  0  0  0
 24 42  1  0  0  0  0
 25 43  1  0  0  0  0
 25 24  1  0  0  0  0
 26 25  2  0  0  0  0
 27 47  1  0  0  0  0
 27 46  1  0  0  0  0
 28  9  1  0  0  0  0
 28 49  1  0  0  0  0
 29 28  1  0  0  0  0
 29 30  1  0  0  0  0
 29 50  1  0  0  0  0
 30 52  1  0  0  0  0
 30 31  1  0  0  0  0
 31 54  1  0  0  0  0
 31 32  1  0  0  0  0
 32 57  1  0  0  0  0
 32 55  1  0  0  0  0
 33 60  1  0  0  0  0
 33 31  1  0  0  0  0
 33 58  1  0  0  0  0
 34  3  1  0  0  0  0
 37  7  1  0  0  0  0
 39 22  1  0  0  0  0
 40 22  1  0  0  0  0
 44 26  1  0  0  0  0
 45 27  1  0  0  0  0
 48 28  1  0  0  0  0
 51 29  1  0  0  0  0
 53 30  1  0  0  0  0
 56 32  1  0  0  0  0
 59 33  1  0  0  0  0
M  END
>  <Pose>
1

>  <Score>
-6.60

$$$$
