
 OpenBabel03222201593D

 39 42  0  0  1  0  0  0  0  0999 V2000
  -14.8710    5.7430  -30.2410 B   0  0  0  0  0  0  0  0  0  0  0  0
  -15.8570    4.6120  -29.0380 C   0  0  0  0  0  0  0  0  0  0  0  0
  -15.3960    3.3660  -28.7010 C   0  0  0  0  0  0  0  0  0  0  0  0
  -16.1440    2.5660  -27.8190 C   0  0  0  0  0  0  0  0  0  0  0  0
  -17.3190    3.0100  -27.2910 C   0  0  0  0  0  0  0  0  0  0  0  0
  -17.7710    4.2590  -27.6340 C   0  0  0  0  0  0  0  0  0  0  0  0
  -17.0330    5.0680  -28.5160 C   0  0  0  0  0  0  0  0  0  0  0  0
  -18.1150    2.2060  -26.3680 C   0  0  1  0  0  0  0  0  0  0  0  0
  -18.4270    0.8650  -26.8110 C   0  0  0  0  0  0  0  0  0  0  0  0
  -18.2450   -0.2130  -25.9910 C   0  0  0  0  0  0  0  0  0  0  0  0
  -17.7610   -0.0760  -24.6490 N   0  0  0  0  0  0  0  0  0  0  0  0
  -17.4830    1.2520  -24.2220 C   0  0  0  0  0  0  0  0  0  0  0  0
  -17.6510    2.2960  -24.9840 C   0  0  0  0  0  0  0  0  0  0  0  0
  -17.2980    3.5220  -24.2040 C   0  0  0  0  0  0  0  0  0  0  0  0
  -17.3650    4.6910  -24.6890 O   0  0  0  0  0  0  0  0  0  0  0  0
  -16.9270    3.0870  -22.9740 O   0  0  0  0  0  0  0  0  0  0  0  0
  -16.9610    1.7040  -22.8700 C   0  0  0  0  0  0  0  0  0  0  0  0
  -18.5430   -1.4700  -26.4520 N   0  0  0  0  0  0  0  0  0  0  0  0
  -19.0080   -1.6480  -27.6930 C   0  0  0  0  0  0  0  0  0  0  0  0
  -19.2760   -2.8150  -28.0970 O   0  0  0  0  0  0  0  0  0  0  0  0
  -19.1850   -0.5820  -28.4920 N   0  0  0  0  0  0  0  0  0  0  0  0
  -18.9200    0.6690  -28.1220 C   0  0  0  0  0  0  0  0  0  0  0  0
  -19.0830    1.6710  -28.8620 O   0  0  0  0  0  0  0  0  0  0  0  0
  -19.6960   -0.8260  -29.8420 C   0  0  0  0  0  0  0  0  0  0  0  0
  -18.3260   -2.5760  -25.5310 C   0  0  0  0  0  0  0  0  0  0  0  0
  -14.4680    3.0320  -29.1270 H   0  0  0  0  0  0  0  0  0  0  0  0
  -15.7100    1.5940  -27.6100 H   0  0  0  0  0  0  0  0  0  0  0  0
  -18.6870    4.7130  -27.2780 H   0  0  0  0  0  0  0  0  0  0  0  0
  -17.3760    6.0560  -28.7970 H   0  0  0  0  0  0  0  0  0  0  0  0
  -19.1380    2.7420  -26.3410 H   0  0  0  0  0  0  0  0  0  0  0  0
  -17.6350   -0.9190  -24.0600 H   0  0  0  0  0  0  0  0  0  0  0  0
  -17.6220    1.3270  -22.0660 H   0  0  0  0  0  0  0  0  0  0  0  0
  -15.9240    1.3380  -22.7130 H   0  0  0  0  0  0  0  0  0  0  0  0
  -20.1690    0.0890  -30.2530 H   0  0  0  0  0  0  0  0  0  0  0  0
  -20.4490   -1.6190  -29.8210 H   0  0  0  0  0  0  0  0  0  0  0  0
  -18.8310   -1.1760  -30.4390 H   0  0  0  0  0  0  0  0  0  0  0  0
  -18.7170   -3.5160  -25.9440 H   0  0  0  0  0  0  0  0  0  0  0  0
  -17.2680   -2.6110  -25.2550 H   0  0  0  0  0  0  0  0  0  0  0  0
  -18.9650   -2.3570  -24.6260 H   0  0  0  0  0  0  0  0  0  0  0  0
  1  2  1  0  0  0  0
  2  3  2  0  0  0  0
  2  7  1  0  0  0  0
  3  4  1  0  0  0  0
  4 27  1  0  0  0  0
  4  5  2  0  0  0  0
  5  8  1  0  0  0  0
  6  5  1  0  0  0  0
  6 28  1  0  0  0  0
  7  6  2  0  0  0  0
  8 30  1  1  0  0  0
  8 13  1  0  0  0  0
  9  8  1  0  0  0  0
  9 10  2  0  0  0  0
 10 11  1  0  0  0  0
 11 12  1  0  0  0  0
 11 31  1  0  0  0  0
 12 17  1  0  0  0  0
 13 12  2  0  0  0  0
 13 14  1  0  0  0  0
 14 16  1  0  0  0  0
 15 14  2  0  0  0  0
 16 17  1  0  0  0  0
 17 33  1  0  0  0  0
 17 32  1  0  0  0  0
 18 10  1  0  0  0  0
 18 25  1  0  0  0  0
 19 18  1  0  0  0  0
 20 19  2  0  0  0  0
 21 22  1  0  0  0  0
 21 19  1  0  0  0  0
 22  9  1  0  0  0  0
 23 22  2  0  0  0  0
 24 35  1  0  0  0  0
 24 21  1  0  0  0  0
 25 38  1  0  0  0  0
 25 39  1  0  0  0  0
 26  3  1  0  0  0  0
 29  7  1  0  0  0  0
 34 24  1  0  0  0  0
 36 24  1  0  0  0  0
 37 25  1  0  0  0  0
M  END
>  <Pose>
1

>  <Score>
-4.85

$$$$
