
 OpenBabel03222201593D

 51 53  0  0  0  0  0  0  0  0999 V2000
  -18.9180    0.9210  -35.8220 B   0  0  0  0  0  0  0  0  0  0  0  0
  -19.5970   -0.0030  -34.2960 C   0  0  0  0  0  0  0  0  0  0  0  0
  -20.5850   -0.9470  -34.4900 C   0  0  0  0  0  0  0  0  0  0  0  0
  -21.0680   -1.6070  -33.3880 C   0  0  0  0  0  0  0  0  0  0  0  0
  -20.5810   -1.3360  -32.1220 C   0  0  0  0  0  0  0  0  0  0  0  0
  -19.6080   -0.4060  -31.9270 C   0  0  0  0  0  0  0  0  0  0  0  0
  -19.1180    0.2600  -33.0290 C   0  0  0  0  0  0  0  0  0  0  0  0
  -19.0900   -0.1170  -30.5820 C   0  0  0  0  0  0  0  0  0  0  0  0
  -19.8530    0.2960  -29.6460 N   0  0  0  0  0  0  0  0  0  0  0  0
  -19.3480    0.5780  -28.3320 N   0  0  0  0  0  0  0  0  0  0  0  0
  -18.4200   -0.3460  -27.8030 C   0  0  0  0  0  0  0  0  0  0  0  0
  -17.4710   -0.6560  -28.6200 O   0  0  0  0  0  0  0  0  0  0  0  0
  -18.4460   -0.9480  -26.4760 C   0  0  0  0  0  0  0  0  0  0  0  0
  -19.0220   -2.1780  -26.2810 N   0  0  0  0  0  0  0  0  0  0  0  0
  -18.8820   -2.4340  -24.9970 N   0  0  0  0  0  0  0  0  0  0  0  0
  -18.2740   -1.4760  -24.3780 N   0  0  0  0  0  0  0  0  0  0  0  0
  -17.9690   -0.4960  -25.2750 C   0  0  0  0  0  0  0  0  0  0  0  0
  -17.2740    0.7680  -25.0340 C   0  0  0  0  0  0  0  0  0  0  0  0
  -18.0130    1.7040  -24.2010 N   0  0  0  0  0  0  0  0  0  0  0  0
  -17.6270    1.5460  -22.8040 C   0  0  0  0  0  0  0  0  0  0  0  0
  -16.4950    2.4610  -22.4310 C   0  0  0  0  0  0  0  0  0  0  0  0
  -15.7300    2.8790  -23.5040 O   0  0  0  0  0  0  0  0  0  0  0  0
  -16.4370    3.5550  -24.4870 C   0  0  0  0  0  0  0  0  0  0  0  0
  -17.8590    3.0770  -24.6120 C   0  0  0  0  0  0  0  0  0  0  0  0
  -19.6340   -2.9960  -27.2560 C   0  0  0  0  0  0  0  0  0  0  0  0
  -20.2550   -2.6500  -28.4110 N   0  0  0  0  0  0  0  0  0  0  0  0
  -20.6700   -3.7150  -28.9980 O   0  0  0  0  0  0  0  0  0  0  0  0
  -20.3820   -4.7880  -28.3330 N   0  0  0  0  0  0  0  0  0  0  0  0
  -19.7230   -4.3760  -27.2170 C   0  0  0  0  0  0  0  0  0  0  0  0
  -19.2290   -5.2470  -26.2140 N   0  0  0  0  0  0  0  0  0  0  0  0
  -22.4450   -2.9230  -33.6500 B   0  0  0  0  0  0  0  0  0  0  0  0
  -21.0990   -1.2460  -35.7440 O   0  0  0  0  0  0  0  0  0  0  0  0
  -14.4880    5.7310  -30.3480 Cl  0  0  0  0  0  0  0  0  0  0  0  0
  -20.9790   -1.8700  -31.2650 H   0  0  0  0  0  0  0  0  0  0  0  0
  -18.3470    0.9960  -32.8700 H   0  0  0  0  0  0  0  0  0  0  0  0
  -18.0570   -0.2530  -30.3820 H   0  0  0  0  0  0  0  0  0  0  0  0
  -19.6950    1.4400  -27.8570 H   0  0  0  0  0  0  0  0  0  0  0  0
  -16.3020    0.6460  -24.5130 H   0  0  0  0  0  0  0  0  0  0  0  0
  -17.0760    1.3380  -25.9670 H   0  0  0  0  0  0  0  0  0  0  0  0
  -18.5060    1.8060  -22.1880 H   0  0  0  0  0  0  0  0  0  0  0  0
  -17.4160    0.4720  -22.6510 H   0  0  0  0  0  0  0  0  0  0  0  0
  -15.8190    1.8860  -21.7640 H   0  0  0  0  0  0  0  0  0  0  0  0
  -16.8420    3.3310  -21.8190 H   0  0  0  0  0  0  0  0  0  0  0  0
  -15.9340    3.3380  -25.4600 H   0  0  0  0  0  0  0  0  0  0  0  0
  -16.3450    4.6370  -24.3170 H   0  0  0  0  0  0  0  0  0  0  0  0
  -18.3510    3.2930  -25.5570 H   0  0  0  0  0  0  0  0  0  0  0  0
  -18.4370    3.6710  -23.8390 H   0  0  0  0  0  0  0  0  0  0  0  0
  -18.6900   -6.0800  -26.5140 H   0  0  0  0  0  0  0  0  0  0  0  0
  -19.3720   -5.1000  -25.1980 H   0  0  0  0  0  0  0  0  0  0  0  0
  -21.6060   -2.0890  -35.9460 H   0  0  0  0  0  0  0  0  0  0  0  0
  -14.6930    5.7470  -31.7090 H   0  0  0  0  0  0  0  0  0  0  0  0
  1  2  1  0  0  0  0
  2  7  1  0  0  0  0
  3  2  2  0  0  0  0
  3  4  1  0  0  0  0
  4  5  2  0  0  0  0
  5  6  1  0  0  0  0
  5 34  1  0  0  0  0
  6  8  1  0  0  0  0
  7 35  1  0  0  0  0
  7  6  2  0  0  0  0
  8 36  1  0  0  0  0
  8  9  2  0  0  0  0
  9 10  1  0  0  0  0
 10 37  1  0  0  0  0
 10 11  1  0  0  0  0
 11 13  1  0  0  0  0
 12 11  2  0  0  0  0
 13 14  1  0  0  0  0
 13 17  2  0  0  0  0
 14 15  1  0  0  0  0
 15 16  2  0  0  0  0
 17 18  1  0  0  0  0
 17 16  1  0  0  0  0
 18 38  1  0  0  0  0
 18 19  1  0  0  0  0
 19 20  1  0  0  0  0
 20 41  1  0  0  0  0
 20 21  1  0  0  0  0
 20 40  1  0  0  0  0
 21 43  1  0  0  0  0
 21 42  1  0  0  0  0
 22 21  1  0  0  0  0
 23 45  1  0  0  0  0
 23 22  1  0  0  0  0
 24 23  1  0  0  0  0
 24 19  1  0  0  0  0
 24 47  1  0  0  0  0
 25 29  1  0  0  0  0
 25 14  1  0  0  0  0
 26 25  2  0  0  0  0
 27 26  1  0  0  0  0
 27 28  1  0  0  0  0
 28 29  2  0  0  0  0
 29 30  1  0  0  0  0
 30 49  1  0  0  0  0
 31  4  1  0  0  0  0
 32  3  1  0  0  0  0
 39 18  1  0  0  0  0
 44 23  1  0  0  0  0
 46 24  1  0  0  0  0
 48 30  1  0  0  0  0
 50 32  1  0  0  0  0
 51 33  1  0  0  0  0
M  END
>  <Pose>
1

>  <Score>
-8.96

$$$$
