
 OpenBabel03222201593D

 31 34  0  0  1  0  0  0  0  0999 V2000
  -19.8000   -0.2110  -30.0980 B   0  0  0  0  0  0  0  0  0  0  0  0
  -20.0120   -2.0860  -29.7740 C   0  0  0  0  0  0  0  0  0  0  0  0
  -20.3160   -2.8710  -30.8620 C   0  0  0  0  0  0  0  0  0  0  0  0
  -20.4710   -4.2370  -30.6170 C   0  0  0  0  0  0  0  0  0  0  0  0
  -20.3240   -4.7460  -29.3490 C   0  0  0  0  0  0  0  0  0  0  0  0
  -20.0180   -3.9550  -28.2530 C   0  0  0  0  0  0  0  0  0  0  0  0
  -19.8630   -2.6030  -28.4890 C   0  0  0  0  0  0  0  0  0  0  0  0
  -19.8690   -4.5110  -26.9530 N   0  0  0  0  0  0  0  0  0  0  0  0
  -20.3290   -5.6470  -26.7430 O   0  0  0  0  0  0  0  0  0  0  0  0
  -19.2490   -3.8790  -25.9100 O   0  0  0  0  0  0  0  0  0  0  0  0
  -20.4560   -2.3200  -32.1620 N   0  0  0  0  0  0  0  0  0  0  0  0
  -19.5830   -1.5040  -32.9220 C   0  0  0  0  0  0  0  0  0  0  0  0
  -18.3570   -1.3580  -32.7410 O   0  0  0  0  0  0  0  0  0  0  0  0
  -20.3260   -0.8170  -34.0000 C   0  0  2  0  0  0  0  0  0  0  0  0
  -20.6890    0.5540  -33.4710 C   0  0  2  0  0  0  0  0  0  0  0  0
  -21.7290    0.1990  -32.5700 O   0  0  0  0  0  0  0  0  0  0  0  0
  -22.5830   -0.3850  -33.5440 C   0  0  2  0  0  0  0  0  0  0  0  0
  -21.6930   -1.4930  -34.0390 C   0  0  2  0  0  0  0  0  0  0  0  0
  -21.6100   -2.5250  -32.9820 C   0  0  0  0  0  0  0  0  0  0  0  0
  -22.4490   -3.4690  -32.8150 O   0  0  0  0  0  0  0  0  0  0  0  0
  -22.6710    0.7370  -34.5030 C   0  0  0  0  0  0  0  0  0  0  0  0
  -21.4710    1.3100  -34.4810 C   0  0  0  0  0  0  0  0  0  0  0  0
  -20.7130   -4.8830  -31.4570 H   0  0  0  0  0  0  0  0  0  0  0  0
  -20.4440   -5.8160  -29.1510 H   0  0  0  0  0  0  0  0  0  0  0  0
  -19.6260   -1.9380  -27.6850 H   0  0  0  0  0  0  0  0  0  0  0  0
  -19.8220   -0.8070  -34.9610 H   0  0  0  0  0  0  0  0  0  0  0  0
  -19.8770    1.0870  -33.0010 H   0  0  0  0  0  0  0  0  0  0  0  0
  -23.5290   -0.7080  -33.1220 H   0  0  0  0  0  0  0  0  0  0  0  0
  -21.9350   -1.8870  -35.0220 H   0  0  0  0  0  0  0  0  0  0  0  0
  -23.5360    1.0140  -35.0870 H   0  0  0  0  0  0  0  0  0  0  0  0
  -21.1150    2.1570  -35.0690 H   0  0  0  0  0  0  0  0  0  0  0  0
  1  2  1  0  0  0  0
  2  7  1  0  0  0  0
  3  4  1  0  0  0  0
  3  2  2  0  0  0  0
  4  5  2  0  0  0  0
  5 24  1  0  0  0  0
  5  6  1  0  0  0  0
  6  8  1  0  0  0  0
  7  6  2  0  0  0  0
  7 25  1  0  0  0  0
  8  9  2  0  0  0  0
  8 10  2  0  0  0  0
 11  3  1  0  0  0  0
 12 13  2  0  0  0  0
 12 11  1  0  0  0  0
 14 26  1  6  0  0  0
 14 15  1  0  0  0  0
 14 12  1  0  0  0  0
 15 27  1  1  0  0  0
 15 16  1  0  0  0  0
 17 28  1  1  0  0  0
 17 16  1  0  0  0  0
 18 29  1  6  0  0  0
 18 14  1  0  0  0  0
 18 17  1  0  0  0  0
 18 19  1  0  0  0  0
 19 20  2  0  0  0  0
 19 11  1  0  0  0  0
 21 22  2  0  0  0  0
 21 17  1  0  0  0  0
 22 15  1  0  0  0  0
 23  4  1  0  0  0  0
 30 21  1  0  0  0  0
 31 22  1  0  0  0  0
M  END
>  <Pose>
1

>  <Score>
-5.69

$$$$
