
 OpenBabel03222201593D

 39 42  0  0  1  0  0  0  0  0999 V2000
  -20.4630   -4.8520  -28.6820 B   0  0  0  0  0  0  0  0  0  0  0  0
  -20.0200   -3.0840  -29.2270 C   0  0  0  0  0  0  0  0  0  0  0  0
  -19.6510   -2.1720  -28.2660 C   0  0  0  0  0  0  0  0  0  0  0  0
  -19.3360   -0.9010  -28.6890 C   0  0  0  0  0  0  0  0  0  0  0  0
  -19.3920   -0.5660  -30.0460 C   0  0  0  0  0  0  0  0  0  0  0  0
  -19.7610   -1.4690  -31.0220 C   0  0  0  0  0  0  0  0  0  0  0  0
  -20.0760   -2.7420  -30.5810 C   0  0  0  0  0  0  0  0  0  0  0  0
  -19.8200   -1.1300  -32.4010 N   0  0  0  0  0  0  0  0  0  0  0  0
  -20.9090   -1.4150  -33.2710 C   0  0  0  0  0  0  0  0  0  0  0  0
  -21.7260   -2.3560  -33.1830 O   0  0  0  0  0  0  0  0  0  0  0  0
  -20.9550   -0.3920  -34.3590 C   0  0  1  0  0  0  0  0  0  0  0  0
  -21.7430    0.8130  -33.9660 C   0  0  1  0  0  0  0  0  0  0  0  0
  -20.8420    1.5280  -33.1380 O   0  0  0  0  0  0  0  0  0  0  0  0
  -19.7990    1.6240  -34.0950 C   0  0  1  0  0  0  0  0  0  0  0  0
  -19.5390    0.1790  -34.3660 C   0  0  1  0  0  0  0  0  0  0  0  0
  -18.8650   -0.4530  -33.2070 C   0  0  0  0  0  0  0  0  0  0  0  0
  -17.6390   -0.3960  -32.9760 O   0  0  0  0  0  0  0  0  0  0  0  0
  -20.5650    2.2440  -35.2180 C   0  0  0  0  0  0  0  0  0  0  0  0
  -21.8070    1.7370  -35.1290 C   0  0  0  0  0  0  0  0  0  0  0  0
  -18.6520    2.4120  -33.6240 C   0  0  0  0  0  0  0  0  0  0  0  0
  -23.0420    0.5490  -33.3210 C   0  0  0  0  0  0  0  0  0  0  0  0
  -23.7400    1.7240  -33.0510 O   0  0  0  0  0  0  0  0  0  0  0  0
  -19.5870   -2.5270  -26.8180 C   0  0  0  0  0  0  0  0  0  0  0  0
  -19.0390   -0.1480  -27.9650 H   0  0  0  0  0  0  0  0  0  0  0  0
  -19.1340    0.4450  -30.3370 H   0  0  0  0  0  0  0  0  0  0  0  0
  -20.3690   -3.4880  -31.3200 H   0  0  0  0  0  0  0  0  0  0  0  0
  -21.2320   -0.8350  -35.3170 H   0  0  0  0  0  0  0  0  0  0  0  0
  -19.0180   -0.0270  -35.3200 H   0  0  0  0  0  0  0  0  0  0  0  0
  -20.1620    2.9370  -35.9180 H   0  0  0  0  0  0  0  0  0  0  0  0
  -22.6390    1.9760  -35.7800 H   0  0  0  0  0  0  0  0  0  0  0  0
  -17.6520    1.9900  -33.8270 H   0  0  0  0  0  0  0  0  0  0  0  0
  -18.6730    3.4260  -34.0820 H   0  0  0  0  0  0  0  0  0  0  0  0
  -18.7190    2.5850  -32.5120 H   0  0  0  0  0  0  0  0  0  0  0  0
  -22.8910    0.0310  -32.3590 H   0  0  0  0  0  0  0  0  0  0  0  0
  -23.7010   -0.0420  -33.9890 H   0  0  0  0  0  0  0  0  0  0  0  0
  -24.0860    1.7660  -32.1160 H   0  0  0  0  0  0  0  0  0  0  0  0
  -20.2810   -3.3770  -26.6770 H   0  0  0  0  0  0  0  0  0  0  0  0
  -18.5770   -2.9210  -26.5410 H   0  0  0  0  0  0  0  0  0  0  0  0
  -19.7920   -1.6780  -26.1670 H   0  0  0  0  0  0  0  0  0  0  0  0
  2  1  1  0  0  0  0
  2  3  1  0  0  0  0
  3 23  1  0  0  0  0
  4  3  2  0  0  0  0
  4 24  1  0  0  0  0
  5  4  1  0  0  0  0
  6  7  1  0  0  0  0
  6  5  2  0  0  0  0
  7  2  2  0  0  0  0
  8  6  1  0  0  0  0
  9 10  2  0  0  0  0
  9  8  1  0  0  0  0
 11 27  1  6  0  0  0
 11 12  1  0  0  0  0
 11  9  1  0  0  0  0
 12 21  1  1  0  0  0
 12 13  1  0  0  0  0
 14 20  1  1  0  0  0
 14 13  1  0  0  0  0
 15 28  1  6  0  0  0
 15 11  1  0  0  0  0
 15 14  1  0  0  0  0
 15 16  1  0  0  0  0
 16 17  2  0  0  0  0
 16  8  1  0  0  0  0
 18 19  2  0  0  0  0
 18 14  1  0  0  0  0
 19 12  1  0  0  0  0
 20 33  1  0  0  0  0
 21 22  1  0  0  0  0
 21 34  1  0  0  0  0
 22 36  1  0  0  0  0
 23 37  1  0  0  0  0
 23 38  1  0  0  0  0
 23 39  1  0  0  0  0
 25  5  1  0  0  0  0
 26  7  1  0  0  0  0
 29 18  1  0  0  0  0
 30 19  1  0  0  0  0
 31 20  1  0  0  0  0
 32 20  1  0  0  0  0
 35 21  1  0  0  0  0
M  END
>  <Pose>
1

>  <Score>
-5.56

$$$$
