
 OpenBabel03222201593D

 54 57  0  0  1  0  0  0  0  0999 V2000
  -20.6870    6.0420  -33.0780 B   0  0  0  0  0  0  0  0  0  0  0  0
  -20.9320    4.8870  -34.5970 C   0  0  0  0  0  0  0  0  0  0  0  0
  -20.9170    3.5000  -34.4370 C   0  0  0  0  0  0  0  0  0  0  0  0
  -21.0870    2.6290  -35.4840 C   0  0  0  0  0  0  0  0  0  0  0  0
  -21.2810    3.2150  -36.7460 C   0  0  0  0  0  0  0  0  0  0  0  0
  -21.2970    4.5800  -36.9170 C   0  0  0  0  0  0  0  0  0  0  0  0
  -21.1240    5.4300  -35.8480 C   0  0  0  0  0  0  0  0  0  0  0  0
  -21.0740    1.1670  -35.3760 C   0  0  1  0  0  0  0  0  0  0  0  0
  -20.0600    0.5190  -36.1800 N   0  0  0  0  0  0  0  0  0  0  0  0
  -18.8410    0.6270  -35.4670 C   0  0  0  0  0  0  0  0  0  0  0  0
  -17.6730    0.6360  -35.9290 O   0  0  0  0  0  0  0  0  0  0  0  0
  -19.2070    0.7270  -34.0530 C   0  0  0  0  0  0  0  0  0  0  0  0
  -18.4640    0.8410  -33.0520 O   0  0  0  0  0  0  0  0  0  0  0  0
  -20.6770    0.6680  -34.0220 C   0  0  0  0  0  0  0  0  0  0  0  0
  -21.4010    0.2860  -32.9950 C   0  0  0  0  0  0  0  0  0  0  0  0
  -22.7930    0.3430  -33.1430 O   0  0  0  0  0  0  0  0  0  0  0  0
  -20.8020   -0.1930  -31.7340 C   0  0  0  0  0  0  0  0  0  0  0  0
  -20.3450    0.4990  -30.7320 O   0  0  0  0  0  0  0  0  0  0  0  0
  -19.8860   -0.2780  -29.7760 C   0  0  0  0  0  0  0  0  0  0  0  0
  -20.0450   -1.6000  -30.1590 C   0  0  0  0  0  0  0  0  0  0  0  0
  -20.6300   -1.5250  -31.4080 C   0  0  0  0  0  0  0  0  0  0  0  0
  -19.6410   -2.6210  -29.3250 C   0  0  0  0  0  0  0  0  0  0  0  0
  -19.0710   -2.3800  -28.0960 C   0  0  0  0  0  0  0  0  0  0  0  0
  -18.9060   -1.0700  -27.7010 C   0  0  0  0  0  0  0  0  0  0  0  0
  -19.3130   -0.0350  -28.5410 C   0  0  0  0  0  0  0  0  0  0  0  0
  -20.1750   -0.1620  -37.4670 C   0  0  0  0  0  0  0  0  0  0  0  0
  -21.5530    0.0560  -38.0630 C   0  0  0  0  0  0  0  0  0  0  0  0
  -22.4870   -1.0960  -37.8040 C   0  0  0  0  0  0  0  0  0  0  0  0
  -22.3000   -2.1000  -38.8020 N   0  0  0  0  0  4  0  0  0  0  0  0
  -23.4320   -2.9910  -38.9380 C   0  0  0  0  0  0  0  0  0  0  0  0
  -21.9680   -1.6140  -40.1070 C   0  0  0  0  0  0  0  0  0  0  0  0
  -20.7680    3.1060  -33.4460 H   0  0  0  0  0  0  0  0  0  0  0  0
  -21.4200    2.5510  -37.5940 H   0  0  0  0  0  0  0  0  0  0  0  0
  -21.4480    5.0310  -37.8940 H   0  0  0  0  0  0  0  0  0  0  0  0
  -21.1340    6.5230  -35.9630 H   0  0  0  0  0  0  0  0  0  0  0  0
  -22.0850    0.7800  -35.6540 H   0  0  0  0  0  0  0  0  0  0  0  0
  -20.9130   -2.3640  -32.0080 H   0  0  0  0  0  0  0  0  0  0  0  0
  -19.7670   -3.6470  -29.6260 H   0  0  0  0  0  0  0  0  0  0  0  0
  -18.7390   -3.1450  -27.4100 H   0  0  0  0  0  0  0  0  0  0  0  0
  -18.4560   -0.8580  -26.7300 H   0  0  0  0  0  0  0  0  0  0  0  0
  -19.1630    0.9790  -28.1870 H   0  0  0  0  0  0  0  0  0  0  0  0
  -19.4430    0.2100  -38.2110 H   0  0  0  0  0  0  0  0  0  0  0  0
  -20.0050   -1.2440  -37.3430 H   0  0  0  0  0  0  0  0  0  0  0  0
  -21.3930    0.0800  -39.1660 H   0  0  0  0  0  0  0  0  0  0  0  0
  -21.9850    1.0110  -37.7600 H   0  0  0  0  0  0  0  0  0  0  0  0
  -23.5550   -0.7820  -37.8320 H   0  0  0  0  0  0  0  0  0  0  0  0
  -22.2690   -1.5500  -36.8120 H   0  0  0  0  0  0  0  0  0  0  0  0
  -21.4890   -2.7100  -38.4840 H   0  0  0  0  0  0  0  0  0  0  0  0
  -23.0600   -3.9760  -39.3370 H   0  0  0  0  0  0  0  0  0  0  0  0
  -24.1270   -2.5970  -39.7010 H   0  0  0  0  0  0  0  0  0  0  0  0
  -23.8980   -3.1300  -37.9520 H   0  0  0  0  0  0  0  0  0  0  0  0
  -22.8470   -1.3460  -40.7220 H   0  0  0  0  0  0  0  0  0  0  0  0
  -21.4520   -2.4240  -40.6590 H   0  0  0  0  0  0  0  0  0  0  0  0
  -21.2130   -0.7740  -40.0640 H   0  0  0  0  0  0  0  0  0  0  0  0
  2  3  1  0  0  0  0
  2  1  1  0  0  0  0
  3 32  1  0  0  0  0
  4  8  1  0  0  0  0
  4  3  2  0  0  0  0
  5  4  1  0  0  0  0
  6  5  2  0  0  0  0
  6  7  1  0  0  0  0
  7  2  2  0  0  0  0
  8 36  1  6  0  0  0
  8 14  1  0  0  0  0
  9 10  1  0  0  0  0
  9  8  1  0  0  0  0
 10 12  1  0  0  0  0
 11 10  2  0  0  0  0
 12 14  1  0  0  0  0
 12 13  2  0  0  0  0
 14 15  2  0  0  0  0
 15 17  1  0  0  0  0
 16 15  1  0  0  0  0
 17 21  2  0  0  0  0
 17 18  1  0  0  0  0
 18 19  1  0  0  0  0
 19 25  1  0  0  0  0
 20 19  2  0  0  0  0
 20 22  1  0  0  0  0
 21 20  1  0  0  0  0
 22 23  2  0  0  0  0
 23 24  1  0  0  0  0
 23 39  1  0  0  0  0
 24 40  1  0  0  0  0
 25 41  1  0  0  0  0
 25 24  2  0  0  0  0
 26 43  1  0  0  0  0
 26  9  1  0  0  0  0
 27 28  1  0  0  0  0
 27 45  1  0  0  0  0
 27 26  1  0  0  0  0
 28 47  1  0  0  0  0
 29 48  1  0  0  0  0
 29 28  1  0  0  0  0
 30 29  1  0  0  0  0
 30 51  1  0  0  0  0
 31 54  1  0  0  0  0
 31 29  1  0  0  0  0
 33  5  1  0  0  0  0
 34  6  1  0  0  0  0
 35  7  1  0  0  0  0
 37 21  1  0  0  0  0
 38 22  1  0  0  0  0
 42 26  1  0  0  0  0
 44 27  1  0  0  0  0
 46 28  1  0  0  0  0
 49 30  1  0  0  0  0
 50 30  1  0  0  0  0
 52 31  1  0  0  0  0
 53 31  1  0  0  0  0
M  END
>  <Pose>
1

>  <Score>
-5.67

$$$$
