
 OpenBabel03222201593D

 52 55  0  0  1  0  0  0  0  0999 V2000
  -19.4080   -3.7950  -25.9210 B   0  0  0  0  0  0  0  0  0  0  0  0
  -18.8760   -2.1950  -26.8720 C   0  0  0  0  0  0  0  0  0  0  0  0
  -19.1060   -2.0640  -28.2110 C   0  0  0  0  0  0  0  0  0  0  0  0
  -18.7390   -0.9530  -28.9140 C   0  0  0  0  0  0  0  0  0  0  0  0
  -18.1040    0.0610  -28.1800 C   0  0  0  0  0  0  0  0  0  0  0  0
  -17.8570   -0.0340  -26.8380 C   0  0  0  0  0  0  0  0  0  0  0  0
  -18.2510   -1.1780  -26.1860 C   0  0  0  0  0  0  0  0  0  0  0  0
  -18.9320   -0.7460  -30.3260 C   0  0  2  0  0  0  0  0  0  0  0  0
  -19.4040    0.4430  -30.6240 O   0  0  0  0  0  0  0  0  0  0  0  0
  -18.6900   -1.6390  -31.4660 C   0  0  0  0  0  0  0  0  0  0  0  0
  -19.1210   -1.0980  -32.7370 N   0  0  0  0  0  0  0  0  0  0  0  0
  -20.2310   -1.5280  -33.4210 C   0  0  0  0  0  0  0  0  0  0  0  0
  -20.2590   -0.8270  -34.5920 C   0  0  0  0  0  0  0  0  0  0  0  0
  -21.2960   -1.0530  -35.5020 C   0  0  0  0  0  0  0  0  0  0  0  0
  -22.2710   -1.9810  -35.2040 C   0  0  0  0  0  0  0  0  0  0  0  0
  -22.2440   -2.6920  -34.0240 C   0  0  0  0  0  0  0  0  0  0  0  0
  -21.2030   -2.4570  -33.1210 C   0  0  0  0  0  0  0  0  0  0  0  0
  -19.1900   -0.0010  -34.6050 N   0  0  0  0  0  0  0  0  0  0  0  0
  -18.4840   -0.1550  -33.4820 C   0  0  2  0  0  0  0  0  0  0  0  0
  -17.3370    0.4240  -33.2080 N   0  0  0  0  0  0  0  0  0  0  0  0
  -18.9020    0.8600  -35.7380 C   0  0  0  0  0  0  0  0  0  0  0  0
  -19.3550    2.2570  -35.6200 C   0  0  0  0  0  0  0  0  0  0  0  0
  -20.5060    2.6800  -36.3330 N   0  0  0  0  0  0  0  0  0  0  0  0
  -20.8740    4.0670  -35.9480 C   0  0  0  0  0  0  0  0  0  0  0  0
  -21.0830    4.2050  -34.4760 C   0  0  0  0  0  0  0  0  0  0  0  0
  -22.2280    3.4740  -34.1560 O   0  0  0  0  0  0  0  0  0  0  0  0
  -22.1090    2.1550  -34.5180 C   0  0  0  0  0  0  0  0  0  0  0  0
  -21.7080    1.9210  -35.9500 C   0  0  0  0  0  0  0  0  0  0  0  0
  -19.6010   -2.8680  -28.6990 H   0  0  0  0  0  0  0  0  0  0  0  0
  -17.7760    0.9860  -28.6490 H   0  0  0  0  0  0  0  0  0  0  0  0
  -17.3550    0.7790  -26.2890 H   0  0  0  0  0  0  0  0  0  0  0  0
  -18.0620   -1.2690  -25.1140 H   0  0  0  0  0  0  0  0  0  0  0  0
  -17.5910   -1.9120  -31.5450 H   0  0  0  0  0  0  0  0  0  0  0  0
  -19.2560   -2.6050  -31.3000 H   0  0  0  0  0  0  0  0  0  0  0  0
  -21.3100   -0.4850  -36.4270 H   0  0  0  0  0  0  0  0  0  0  0  0
  -23.0600   -2.1340  -35.9220 H   0  0  0  0  0  0  0  0  0  0  0  0
  -23.0200   -3.4120  -33.8120 H   0  0  0  0  0  0  0  0  0  0  0  0
  -21.1820   -3.0210  -32.2090 H   0  0  0  0  0  0  0  0  0  0  0  0
  -16.9090    1.1270  -33.8040 H   0  0  0  0  0  0  0  0  0  0  0  0
  -16.8310    0.1290  -32.3610 H   0  0  0  0  0  0  0  0  0  0  0  0
  -17.8140    0.7990  -35.9610 H   0  0  0  0  0  0  0  0  0  0  0  0
  -19.3980    0.4150  -36.6320 H   0  0  0  0  0  0  0  0  0  0  0  0
  -18.4730    2.9510  -35.7980 H   0  0  0  0  0  0  0  0  0  0  0  0
  -19.5620    2.4350  -34.5200 H   0  0  0  0  0  0  0  0  0  0  0  0
  -20.1610    4.7940  -36.3720 H   0  0  0  0  0  0  0  0  0  0  0  0
  -21.8500    4.2280  -36.4410 H   0  0  0  0  0  0  0  0  0  0  0  0
  -21.3220    5.2700  -34.2780 H   0  0  0  0  0  0  0  0  0  0  0  0
  -20.2330    3.9470  -33.8430 H   0  0  0  0  0  0  0  0  0  0  0  0
  -23.1440    1.7140  -34.4170 H   0  0  0  0  0  0  0  0  0  0  0  0
  -21.4540    1.6340  -33.7880 H   0  0  0  0  0  0  0  0  0  0  0  0
  -21.6290    0.8530  -36.1160 H   0  0  0  0  0  0  0  0  0  0  0  0
  -22.5260    2.3960  -36.5740 H   0  0  0  0  0  0  0  0  0  0  0  0
  2  7  1  0  0  0  0
  2  1  1  0  0  0  0
  3  2  2  0  0  0  0
  4  3  1  0  0  0  0
  4  5  2  0  0  0  0
  5  6  1  0  0  0  0
  6 31  1  0  0  0  0
  6  7  2  0  0  0  0
  7 32  1  0  0  0  0
  8  9  1  1  0  0  0
  8  4  1  0  0  0  0
 10 34  1  0  0  0  0
 10  8  1  0  0  0  0
 11 10  1  0  0  0  0
 12 17  1  0  0  0  0
 12 11  1  0  0  0  0
 13 12  2  0  0  0  0
 14 15  2  0  0  0  0
 14 13  1  0  0  0  0
 15 16  1  0  0  0  0
 16 37  1  0  0  0  0
 16 17  2  0  0  0  0
 17 38  1  0  0  0  0
 18 13  1  0  0  0  0
 18 19  1  0  0  0  0
 19 20  1  6  0  0  0
 19 11  1  0  0  0  0
 20 40  1  0  0  0  0
 21 22  1  0  0  0  0
 21 18  1  0  0  0  0
 22 44  1  0  0  0  0
 23 28  1  0  0  0  0
 23 24  1  0  0  0  0
 23 22  1  0  0  0  0
 24 25  1  0  0  0  0
 25 47  1  0  0  0  0
 25 26  1  0  0  0  0
 25 48  1  0  0  0  0
 27 49  1  0  0  0  0
 27 26  1  0  0  0  0
 27 50  1  0  0  0  0
 28 27  1  0  0  0  0
 29  3  1  0  0  0  0
 30  5  1  0  0  0  0
 33 10  1  0  0  0  0
 35 14  1  0  0  0  0
 36 15  1  0  0  0  0
 39 20  1  0  0  0  0
 41 21  1  0  0  0  0
 42 21  1  0  0  0  0
 43 22  1  0  0  0  0
 45 24  1  0  0  0  0
 46 24  1  0  0  0  0
 51 28  1  0  0  0  0
 52 28  1  0  0  0  0
M  END
>  <Pose>
1

>  <Score>
-6.48

$$$$
