
 OpenBabel03222201593D

 48 51  0  0  0  0  0  0  0  0999 V2000
  -23.7610    0.5310  -35.1110 B   0  0  0  0  0  0  0  0  0  0  0  0
  -22.2880   -0.0180  -34.0260 C   0  0  0  0  0  0  0  0  0  0  0  0
  -22.2080   -1.3260  -33.5540 C   0  0  0  0  0  0  0  0  0  0  0  0
  -21.1430   -1.7230  -32.7770 C   0  0  0  0  0  0  0  0  0  0  0  0
  -20.1460   -0.8340  -32.4590 C   0  0  0  0  0  0  0  0  0  0  0  0
  -20.2400    0.4530  -32.9350 C   0  0  0  0  0  0  0  0  0  0  0  0
  -21.2890    0.8900  -33.7120 C   0  0  0  0  0  0  0  0  0  0  0  0
  -21.0390   -3.0850  -32.2900 C   0  0  0  0  0  0  0  0  0  0  0  0
  -20.7480   -3.3400  -31.0130 C   0  0  0  0  0  0  0  0  0  0  0  0
  -20.5080   -2.4100  -30.0030 O   0  0  0  0  0  0  0  0  0  0  0  0
  -20.2480   -3.0400  -28.8170 C   0  0  0  0  0  0  0  0  0  0  0  0
  -20.3020   -4.4200  -28.9840 C   0  0  0  0  0  0  0  0  0  0  0  0
  -20.0690   -5.2230  -27.8780 C   0  0  0  0  0  0  0  0  0  0  0  0
  -19.7950   -4.6560  -26.6550 C   0  0  0  0  0  0  0  0  0  0  0  0
  -19.7480   -3.2650  -26.5260 C   0  0  0  0  0  0  0  0  0  0  0  0
  -19.9730   -2.4480  -27.6020 C   0  0  0  0  0  0  0  0  0  0  0  0
  -19.8340   -1.0010  -27.4330 C   0  0  0  0  0  0  0  0  0  0  0  0
  -18.5370   -0.5230  -27.1160 N   0  0  0  0  0  4  0  0  0  0  0  0
  -18.5730    0.0400  -25.7770 C   0  0  0  0  0  0  0  0  0  0  0  0
  -17.7600    1.2740  -25.5860 C   0  0  0  0  0  0  0  0  0  0  0  0
  -17.9550    2.2890  -26.5600 N   0  0  0  0  0  0  0  0  0  0  0  0
  -18.6410    1.8010  -27.7100 C   0  0  0  0  0  0  0  0  0  0  0  0
  -18.1110    0.4580  -28.0850 C   0  0  0  0  0  0  0  0  0  0  0  0
  -16.6850    2.8980  -26.8950 C   0  0  0  0  0  0  0  0  0  0  0  0
  -19.4640   -2.7920  -25.2550 O   0  0  0  0  0  0  0  0  0  0  0  0
  -20.6240   -4.6600  -30.4010 C   0  0  0  0  0  0  0  0  0  0  0  0
  -20.7510   -5.7960  -30.9250 O   0  0  0  0  0  0  0  0  0  0  0  0
  -23.0210   -2.0010  -33.8240 H   0  0  0  0  0  0  0  0  0  0  0  0
  -19.3130   -1.1490  -31.8430 H   0  0  0  0  0  0  0  0  0  0  0  0
  -19.4230    1.1420  -32.6770 H   0  0  0  0  0  0  0  0  0  0  0  0
  -21.3180    1.9210  -34.0780 H   0  0  0  0  0  0  0  0  0  0  0  0
  -21.1950   -3.9080  -32.9610 H   0  0  0  0  0  0  0  0  0  0  0  0
  -20.1220   -6.2890  -28.0450 H   0  0  0  0  0  0  0  0  0  0  0  0
  -19.6230   -5.3300  -25.8350 H   0  0  0  0  0  0  0  0  0  0  0  0
  -20.1560   -0.5250  -28.4230 H   0  0  0  0  0  0  0  0  0  0  0  0
  -20.5850   -0.6410  -26.7130 H   0  0  0  0  0  0  0  0  0  0  0  0
  -17.7950   -1.2850  -27.1580 H   0  0  0  0  0  0  0  0  0  0  0  0
  -18.2570   -0.6770  -25.0020 H   0  0  0  0  0  0  0  0  0  0  0  0
  -19.6360    0.2870  -25.4810 H   0  0  0  0  0  0  0  0  0  0  0  0
  -18.0770    1.7060  -24.5810 H   0  0  0  0  0  0  0  0  0  0  0  0
  -16.6570    1.0630  -25.4100 H   0  0  0  0  0  0  0  0  0  0  0  0
  -19.7310    1.6700  -27.4360 H   0  0  0  0  0  0  0  0  0  0  0  0
  -18.6120    2.5090  -28.5780 H   0  0  0  0  0  0  0  0  0  0  0  0
  -16.9820    0.4720  -28.1720 H   0  0  0  0  0  0  0  0  0  0  0  0
  -18.5010    0.2080  -29.1040 H   0  0  0  0  0  0  0  0  0  0  0  0
  -15.8270    2.1810  -26.8470 H   0  0  0  0  0  0  0  0  0  0  0  0
  -16.6680    3.4000  -27.8850 H   0  0  0  0  0  0  0  0  0  0  0  0
  -16.4520    3.6420  -26.0780 H   0  0  0  0  0  0  0  0  0  0  0  0
  1  2  1  0  0  0  0
  2  7  2  0  0  0  0
  2  3  1  0  0  0  0
  3  4  2  0  0  0  0
  4  5  1  0  0  0  0
  4  8  1  0  0  0  0
  5 29  1  0  0  0  0
  6 30  1  0  0  0  0
  6  5  2  0  0  0  0
  7  6  1  0  0  0  0
  8  9  2  0  0  0  0
  9 26  1  0  0  0  0
  9 10  1  0  0  0  0
 10 11  1  0  0  0  0
 11 16  1  0  0  0  0
 12 11  2  0  0  0  0
 12 13  1  0  0  0  0
 13 14  2  0  0  0  0
 14 15  1  0  0  0  0
 14 34  1  0  0  0  0
 15 25  1  0  0  0  0
 16 17  1  0  0  0  0
 16 15  2  0  0  0  0
 17 18  1  0  0  0  0
 17 36  1  0  0  0  0
 18 19  1  0  0  0  0
 19 20  1  0  0  0  0
 19 39  1  0  0  0  0
 19 38  1  0  0  0  0
 20 41  1  0  0  0  0
 20 40  1  0  0  0  0
 21 20  1  0  0  0  0
 22 42  1  0  0  0  0
 22 21  1  0  0  0  0
 23 22  1  0  0  0  0
 23 18  1  0  0  0  0
 24 46  1  0  0  0  0
 24 21  1  0  0  0  0
 24 48  1  0  0  0  0
 26 12  1  0  0  0  0
 27 26  2  0  0  0  0
 28  3  1  0  0  0  0
 31  7  1  0  0  0  0
 32  8  1  0  0  0  0
 33 13  1  0  0  0  0
 35 17  1  0  0  0  0
 37 18  1  0  0  0  0
 43 22  1  0  0  0  0
 44 23  1  0  0  0  0
 45 23  1  0  0  0  0
 47 24  1  0  0  0  0
M  END
>  <Pose>
1

>  <Score>
-6.71

$$$$
