
 OpenBabel03222201593D

 55 58  0  0  1  0  0  0  0  0999 V2000
  -17.1120    4.8680  -25.3210 B   0  0  0  0  0  0  0  0  0  0  0  0
  -17.4520    2.9900  -25.1510 C   0  0  0  0  0  0  0  0  0  0  0  0
  -17.2930    2.3980  -23.9180 C   0  0  0  0  0  0  0  0  0  0  0  0
  -17.5310    1.0500  -23.7770 C   0  0  0  0  0  0  0  0  0  0  0  0
  -17.9320    0.2240  -24.8170 C   0  0  0  0  0  0  0  0  0  0  0  0
  -18.0820    0.8460  -26.0360 C   0  0  0  0  0  0  0  0  0  0  0  0
  -17.8430    2.2190  -26.1990 C   0  0  0  0  0  0  0  0  0  0  0  0
  -18.1480   -1.1280  -24.5710 N   0  0  0  0  0  0  0  0  0  0  0  0
  -18.6950   -2.1030  -25.4240 C   0  0  0  0  0  0  0  0  0  0  0  0
  -19.5580   -2.9030  -25.0130 O   0  0  0  0  0  0  0  0  0  0  0  0
  -18.2880   -2.2430  -26.8460 C   0  0  0  0  0  0  0  0  0  0  0  0
  -18.5590   -1.0430  -27.5800 N   0  0  0  0  0  0  0  0  0  0  0  0
  -19.4430   -0.9820  -28.6860 C   0  0  0  0  0  0  0  0  0  0  0  0
  -20.4330   -0.2060  -28.6050 O   0  0  0  0  0  0  0  0  0  0  0  0
  -19.1860   -1.8170  -29.8890 C   0  0  2  0  0  0  0  0  0  0  0  0
  -18.3750   -1.1420  -30.7210 O   0  0  0  0  0  0  0  0  0  0  0  0
  -18.4350   -1.4120  -32.0520 C   0  0  2  0  0  0  0  0  0  0  0  0
  -17.7860   -0.3700  -32.7290 O   0  0  0  0  0  0  0  0  0  0  0  0
  -18.7220    0.6010  -32.9880 C   0  0  0  0  0  0  0  0  0  0  0  0
  -19.9730    0.1040  -32.6830 O   0  0  0  0  0  0  0  0  0  0  0  0
  -19.8250   -1.3010  -32.6340 C   0  0  2  0  0  0  0  0  0  0  0  0
  -20.8500   -1.9460  -31.7840 C   0  0  1  0  0  0  0  0  0  0  0  0
  -21.3510   -3.1240  -32.3840 O   0  0  0  0  0  0  0  0  0  0  0  0
  -21.4510   -4.0760  -31.4020 C   0  0  0  0  0  0  0  0  0  0  0  0
  -20.4490   -3.7650  -30.5210 O   0  0  0  0  0  0  0  0  0  0  0  0
  -20.4510   -2.3650  -30.4350 C   0  0  1  0  0  0  0  0  0  0  0  0
  -21.2060   -5.4330  -32.0730 C   0  0  0  0  0  0  0  0  0  0  0  0
  -22.8200   -4.1570  -30.7790 C   0  0  0  0  0  0  0  0  0  0  0  0
  -18.7530    0.9820  -34.4690 C   0  0  0  0  0  0  0  0  0  0  0  0
  -18.4540    1.8880  -32.2240 C   0  0  0  0  0  0  0  0  0  0  0  0
  -16.9760    3.0000  -23.0490 H   0  0  0  0  0  0  0  0  0  0  0  0
  -17.3900    0.6410  -22.7860 H   0  0  0  0  0  0  0  0  0  0  0  0
  -18.3850    0.2960  -26.8910 H   0  0  0  0  0  0  0  0  0  0  0  0
  -17.9770    2.6430  -27.1710 H   0  0  0  0  0  0  0  0  0  0  0  0
  -17.8630   -1.4840  -23.6010 H   0  0  0  0  0  0  0  0  0  0  0  0
  -17.1650   -2.3670  -26.8450 H   0  0  0  0  0  0  0  0  0  0  0  0
  -18.6840   -3.1580  -27.3220 H   0  0  0  0  0  0  0  0  0  0  0  0
  -18.0810   -0.1660  -27.2850 H   0  0  0  0  0  0  0  0  0  0  0  0
  -18.6020   -2.7040  -29.4940 H   0  0  0  0  0  0  0  0  0  0  0  0
  -17.9280   -2.3440  -32.3720 H   0  0  0  0  0  0  0  0  0  0  0  0
  -19.7790   -1.7140  -33.6630 H   0  0  0  0  0  0  0  0  0  0  0  0
  -21.7460   -1.2580  -31.7530 H   0  0  0  0  0  0  0  0  0  0  0  0
  -21.2810   -2.1230  -29.7230 H   0  0  0  0  0  0  0  0  0  0  0  0
  -21.4910   -6.2060  -31.3480 H   0  0  0  0  0  0  0  0  0  0  0  0
  -20.1710   -5.5110  -32.4380 H   0  0  0  0  0  0  0  0  0  0  0  0
  -21.8800   -5.4590  -32.9540 H   0  0  0  0  0  0  0  0  0  0  0  0
  -22.8100   -4.4440  -29.7260 H   0  0  0  0  0  0  0  0  0  0  0  0
  -23.3720   -3.2010  -30.8970 H   0  0  0  0  0  0  0  0  0  0  0  0
  -23.4620   -4.9240  -31.3040 H   0  0  0  0  0  0  0  0  0  0  0  0
  -17.7200    1.0670  -34.8260 H   0  0  0  0  0  0  0  0  0  0  0  0
  -19.3840    0.2830  -35.0490 H   0  0  0  0  0  0  0  0  0  0  0  0
  -19.2230    1.9870  -34.5180 H   0  0  0  0  0  0  0  0  0  0  0  0
  -18.1860    2.7290  -32.8960 H   0  0  0  0  0  0  0  0  0  0  0  0
  -17.6140    1.7580  -31.5010 H   0  0  0  0  0  0  0  0  0  0  0  0
  -19.3600    2.2210  -31.6590 H   0  0  0  0  0  0  0  0  0  0  0  0
  1  2  1  0  0  0  0
  2  3  1  0  0  0  0
  3  4  2  0  0  0  0
  3 31  1  0  0  0  0
  4 32  1  0  0  0  0
  5  8  1  0  0  0  0
  5  4  1  0  0  0  0
  6  5  2  0  0  0  0
  7  6  1  0  0  0  0
  7  2  2  0  0  0  0
  8 35  1  0  0  0  0
  9 10  2  0  0  0  0
  9  8  1  0  0  0  0
 11 36  1  0  0  0  0
 11  9  1  0  0  0  0
 12 38  1  0  0  0  0
 12 11  1  0  0  0  0
 13 14  2  0  0  0  0
 13 12  1  0  0  0  0
 15 39  1  1  0  0  0
 15 13  1  0  0  0  0
 16 15  1  0  0  0  0
 17 40  1  6  0  0  0
 17 16  1  0  0  0  0
 18 17  1  0  0  0  0
 19 18  1  0  0  0  0
 19 20  1  0  0  0  0
 19 30  1  0  0  0  0
 20 21  1  0  0  0  0
 21 41  1  6  0  0  0
 21 17  1  0  0  0  0
 21 22  1  0  0  0  0
 22 42  1  1  0  0  0
 22 26  1  0  0  0  0
 23 22  1  0  0  0  0
 23 24  1  0  0  0  0
 24 28  1  0  0  0  0
 24 25  1  0  0  0  0
 25 26  1  0  0  0  0
 26 15  1  0  0  0  0
 26 43  1  1  0  0  0
 27 24  1  0  0  0  0
 27 44  1  0  0  0  0
 28 47  1  0  0  0  0
 29 19  1  0  0  0  0
 30 55  1  0  0  0  0
 30 54  1  0  0  0  0
 33  6  1  0  0  0  0
 34  7  1  0  0  0  0
 37 11  1  0  0  0  0
 45 27  1  0  0  0  0
 46 27  1  0  0  0  0
 48 28  1  0  0  0  0
 49 28  1  0  0  0  0
 50 29  1  0  0  0  0
 51 29  1  0  0  0  0
 52 29  1  0  0  0  0
 53 30  1  0  0  0  0
M  END
>  <Pose>
1

>  <Score>
-6.60

$$$$
