
 OpenBabel03222201593D

 50 53  0  0  1  0  0  0  0  0999 V2000
  -20.2910   -5.4500  -28.4250 Cl  0  0  0  0  0  0  0  0  0  0  0  0
  -20.5120   -4.3900  -29.8110 C   0  0  0  0  0  0  0  0  0  0  0  0
  -20.0840   -3.0800  -29.7900 C   0  0  0  0  0  0  0  0  0  0  0  0
  -20.2610   -2.2500  -30.8830 C   0  0  0  0  0  0  0  0  0  0  0  0
  -20.8690   -2.6860  -32.0430 C   0  0  0  0  0  0  0  0  0  0  0  0
  -21.2970   -3.9970  -32.0680 C   0  0  0  0  0  0  0  0  0  0  0  0
  -21.1200   -4.8390  -30.9640 C   0  0  0  0  0  0  0  0  0  0  0  0
  -21.0410   -1.7880  -33.1840 C   0  0  0  0  0  0  0  0  0  0  0  0
  -20.1640   -0.9260  -33.7500 N   0  0  0  0  0  0  0  0  0  0  0  0
  -20.7730   -0.3100  -34.7840 C   0  0  1  0  0  0  0  0  0  0  0  0
  -22.0430   -0.7530  -34.9110 N   0  0  0  0  0  0  0  0  0  0  0  0
  -22.1980   -1.6620  -33.9220 C   0  0  0  0  0  0  0  0  0  0  0  0
  -23.0420   -0.3580  -35.8830 C   0  0  0  0  0  0  0  0  0  0  0  0
  -23.2880   -1.4740  -36.8400 C   0  0  0  0  0  0  0  0  0  0  0  0
  -24.3640   -2.0700  -36.7670 O   0  0  0  0  0  0  0  0  0  0  0  0
  -22.2840   -1.7780  -37.7610 N   0  0  0  0  0  0  0  0  0  0  0  0
  -21.6710   -0.8370  -38.6290 C   0  0  0  0  0  0  0  0  0  0  0  0
  -21.6750   -1.0870  -40.0080 C   0  0  0  0  0  0  0  0  0  0  0  0
  -21.0810   -0.2180  -40.8650 C   0  0  0  0  0  0  0  0  0  0  0  0
  -20.4600    0.9330  -40.4070 C   0  0  0  0  0  0  0  0  0  0  0  0
  -20.4610    1.1680  -39.0620 C   0  0  0  0  0  0  0  0  0  0  0  0
  -21.0640    0.2900  -38.1530 C   0  0  0  0  0  0  0  0  0  0  0  0
  -19.8180    1.8690  -41.3640 C   0  0  0  0  0  0  0  0  0  0  0  0
  -20.6810    3.1320  -41.4460 C   0  0  0  0  0  0  0  0  0  0  0  0
  -19.8320    0.6440  -35.4240 C   0  0  0  0  0  0  0  0  0  0  0  0
  -18.5300    0.4810  -34.7180 C   0  0  0  0  0  0  0  0  0  0  0  0
  -18.8020   -0.4620  -33.6060 C   0  0  0  0  0  0  0  0  0  0  0  0
  -19.6080   -2.7320  -28.8850 H   0  0  0  0  0  0  0  0  0  0  0  0
  -19.9150   -1.2210  -30.8410 H   0  0  0  0  0  0  0  0  0  0  0  0
  -21.7780   -4.3880  -32.9530 H   0  0  0  0  0  0  0  0  0  0  0  0
  -21.4540   -5.8610  -30.9820 H   0  0  0  0  0  0  0  0  0  0  0  0
  -23.1300   -2.2200  -33.7390 H   0  0  0  0  0  0  0  0  0  0  0  0
  -22.7260    0.5680  -36.4050 H   0  0  0  0  0  0  0  0  0  0  0  0
  -23.9560   -0.0940  -35.3050 H   0  0  0  0  0  0  0  0  0  0  0  0
  -21.9070   -2.7790  -37.8590 H   0  0  0  0  0  0  0  0  0  0  0  0
  -22.1660   -1.9970  -40.3850 H   0  0  0  0  0  0  0  0  0  0  0  0
  -21.0840   -0.4150  -41.9510 H   0  0  0  0  0  0  0  0  0  0  0  0
  -19.9870    2.0590  -38.6440 H   0  0  0  0  0  0  0  0  0  0  0  0
  -21.0080    0.5500  -37.0820 H   0  0  0  0  0  0  0  0  0  0  0  0
  -19.7270    1.3900  -42.3530 H   0  0  0  0  0  0  0  0  0  0  0  0
  -18.8170    2.1610  -41.0030 H   0  0  0  0  0  0  0  0  0  0  0  0
  -20.5880    3.7020  -40.5140 H   0  0  0  0  0  0  0  0  0  0  0  0
  -21.7060    2.8390  -41.7050 H   0  0  0  0  0  0  0  0  0  0  0  0
  -20.3010    3.7740  -42.2750 H   0  0  0  0  0  0  0  0  0  0  0  0
  -20.2270    1.6820  -35.3840 H   0  0  0  0  0  0  0  0  0  0  0  0
  -19.6850    0.3590  -36.5030 H   0  0  0  0  0  0  0  0  0  0  0  0
  -17.7390    0.0890  -35.4240 H   0  0  0  0  0  0  0  0  0  0  0  0
  -18.1610    1.4850  -34.3430 H   0  0  0  0  0  0  0  0  0  0  0  0
  -18.6480    0.0330  -32.6170 H   0  0  0  0  0  0  0  0  0  0  0  0
  -18.1090   -1.3410  -33.7410 H   0  0  0  0  0  0  0  0  0  0  0  0
  2  3  1  0  0  0  0
  2  1  1  0  0  0  0
  3 28  1  0  0  0  0
  4 29  1  0  0  0  0
  4  3  2  0  0  0  0
  5  4  1  0  0  0  0
  6  5  2  0  0  0  0
  6  7  1  0  0  0  0
  7  2  2  0  0  0  0
  8  5  1  0  0  0  0
  9 27  1  0  0  0  0
  9  8  1  0  0  0  0
 10 25  1  1  0  0  0
 10  9  1  0  0  0  0
 11 10  1  0  0  0  0
 11 12  1  0  0  0  0
 12 32  1  0  0  0  0
 12  8  2  0  0  0  0
 13 34  1  0  0  0  0
 13 11  1  0  0  0  0
 14 15  2  0  0  0  0
 14 13  1  0  0  0  0
 16 14  1  0  0  0  0
 17 22  1  0  0  0  0
 17 16  1  0  0  0  0
 18 17  2  0  0  0  0
 19 20  2  0  0  0  0
 19 18  1  0  0  0  0
 20 21  1  0  0  0  0
 21 38  1  0  0  0  0
 21 22  2  0  0  0  0
 22 39  1  0  0  0  0
 23 41  1  0  0  0  0
 23 20  1  0  0  0  0
 24 23  1  0  0  0  0
 24 42  1  0  0  0  0
 25 45  1  0  0  0  0
 25 26  1  0  0  0  0
 26 48  1  0  0  0  0
 26 27  1  0  0  0  0
 27 49  1  0  0  0  0
 30  6  1  0  0  0  0
 31  7  1  0  0  0  0
 33 13  1  0  0  0  0
 35 16  1  0  0  0  0
 36 18  1  0  0  0  0
 37 19  1  0  0  0  0
 40 23  1  0  0  0  0
 43 24  1  0  0  0  0
 44 24  1  0  0  0  0
 46 25  1  0  0  0  0
 47 26  1  0  0  0  0
 50 27  1  0  0  0  0
M  END
>  <Pose>
1

>  <Score>
-6.61

$$$$
