
 OpenBabel03222201593D

 56 59  0  0  1  0  0  0  0  0999 V2000
  -18.0130    6.1280  -28.2880 B   0  0  0  0  0  0  0  0  0  0  0  0
  -17.2100    5.5060  -26.6810 C   0  0  0  0  0  0  0  0  0  0  0  0
  -17.3770    4.1840  -26.3280 C   0  0  0  0  0  0  0  0  0  0  0  0
  -16.7780    3.7780  -25.1560 C   0  0  0  0  0  0  0  0  0  0  0  0
  -16.0440    4.6340  -24.3620 C   0  0  0  0  0  0  0  0  0  0  0  0
  -15.8770    5.9570  -24.7150 C   0  0  0  0  0  0  0  0  0  0  0  0
  -16.4690    6.3830  -25.8850 C   0  0  0  0  0  0  0  0  0  0  0  0
  -15.1330    6.8190  -23.9080 O   0  0  0  0  0  0  0  0  0  0  0  0
  -13.7440    6.7580  -23.7960 C   0  0  0  0  0  0  0  0  0  0  0  0
  -15.4420    4.2160  -23.1800 O   0  0  0  0  0  0  0  0  0  0  0  0
  -14.1420    3.7250  -23.0840 C   0  0  0  0  0  0  0  0  0  0  0  0
  -18.1520    3.2750  -27.1650 C   0  0  0  0  0  0  0  0  0  0  0  0
  -17.7230    2.1790  -27.6390 N   0  0  0  0  0  0  0  0  0  0  0  0
  -18.4940    1.3200  -28.4460 N   0  0  0  0  0  0  0  0  0  0  0  0
  -18.7320    0.0030  -27.9630 C   0  0  0  0  0  0  0  0  0  0  0  0
  -19.2150   -1.0410  -28.6840 N   0  0  0  0  0  0  0  0  0  0  0  0
  -19.3020   -2.1260  -27.8720 C   0  0  0  0  0  0  0  0  0  0  0  0
  -19.7020   -3.3910  -28.0470 N   0  0  0  0  0  0  0  0  0  0  0  0
  -19.6870   -4.2910  -27.0470 C   0  0  0  0  0  0  0  0  0  0  0  0
  -19.2550   -3.9050  -25.8260 N   0  0  0  0  0  0  0  0  0  0  0  0
  -18.8440   -2.6660  -25.5800 C   0  0  0  0  0  0  0  0  0  0  0  0
  -18.8620   -1.7470  -26.6110 C   0  0  0  0  0  0  0  0  0  0  0  0
  -18.5330   -0.4710  -26.7140 N   0  0  0  0  0  0  0  0  0  0  0  0
  -18.3920   -2.2360  -24.3290 O   0  0  0  0  0  0  0  0  0  0  0  0
  -20.1200   -5.6450  -27.2510 N   0  0  0  0  0  0  0  0  0  0  0  0
  -19.5720   -1.0000  -30.0690 C   0  0  2  0  0  0  0  0  0  0  0  0
  -20.6780   -1.7750  -30.3900 O   0  0  0  0  0  0  0  0  0  0  0  0
  -20.6310   -2.0680  -31.7230 C   0  0  1  0  0  0  0  0  0  0  0  0
  -19.2890   -1.7210  -32.2710 C   0  0  2  0  0  0  0  0  0  0  0  0
  -18.4770   -1.4840  -30.9970 C   0  0  1  0  0  0  0  0  0  0  0  0
  -17.5050   -0.5060  -31.2090 O   0  0  0  0  0  0  0  0  0  0  0  0
  -19.3340   -0.4700  -32.9200 O   0  0  0  0  0  0  0  0  0  0  0  0
  -20.8270   -3.5760  -31.8890 C   0  0  0  0  0  0  0  0  0  0  0  0
  -22.1580   -3.9160  -31.6260 O   0  0  0  0  0  0  0  0  0  0  0  0
  -16.9080    2.7290  -24.8720 H   0  0  0  0  0  0  0  0  0  0  0  0
  -16.3540    7.4170  -26.1850 H   0  0  0  0  0  0  0  0  0  0  0  0
  -13.2910    7.7170  -23.4610 H   0  0  0  0  0  0  0  0  0  0  0  0
  -13.2670    6.5520  -24.7960 H   0  0  0  0  0  0  0  0  0  0  0  0
  -13.3780    5.9770  -23.1080 H   0  0  0  0  0  0  0  0  0  0  0  0
  -13.8070    3.8610  -22.0320 H   0  0  0  0  0  0  0  0  0  0  0  0
  -13.4370    4.1160  -23.8220 H   0  0  0  0  0  0  0  0  0  0  0  0
  -14.1690    2.6080  -23.2360 H   0  0  0  0  0  0  0  0  0  0  0  0
  -19.1730    3.5430  -27.4070 H   0  0  0  0  0  0  0  0  0  0  0  0
  -18.8870    1.6050  -29.3560 H   0  0  0  0  0  0  0  0  0  0  0  0
  -17.4030   -2.0260  -24.2610 H   0  0  0  0  0  0  0  0  0  0  0  0
  -20.6250   -5.9720  -28.0810 H   0  0  0  0  0  0  0  0  0  0  0  0
  -19.8940   -6.3220  -26.4920 H   0  0  0  0  0  0  0  0  0  0  0  0
  -19.8080    0.0370  -30.3890 H   0  0  0  0  0  0  0  0  0  0  0  0
  -21.4550   -1.5140  -32.2260 H   0  0  0  0  0  0  0  0  0  0  0  0
  -18.8370   -2.5000  -32.9020 H   0  0  0  0  0  0  0  0  0  0  0  0
  -18.0110   -2.4140  -30.6450 H   0  0  0  0  0  0  0  0  0  0  0  0
  -16.8620   -0.8120  -31.8990 H   0  0  0  0  0  0  0  0  0  0  0  0
  -18.8110   -0.4760  -33.7500 H   0  0  0  0  0  0  0  0  0  0  0  0
  -20.1640   -4.0590  -31.1510 H   0  0  0  0  0  0  0  0  0  0  0  0
  -20.5270   -3.8320  -32.9150 H   0  0  0  0  0  0  0  0  0  0  0  0
  -22.2240   -4.5670  -30.8820 H   0  0  0  0  0  0  0  0  0  0  0  0
  1  2  1  0  0  0  0
  2  3  2  0  0  0  0
  2  7  1  0  0  0  0
  3  4  1  0  0  0  0
  4 35  1  0  0  0  0
  4  5  2  0  0  0  0
  5 10  1  0  0  0  0
  6  5  1  0  0  0  0
  6  8  1  0  0  0  0
  7  6  2  0  0  0  0
  8  9  1  0  0  0  0
  9 37  1  0  0  0  0
  9 39  1  0  0  0  0
 10 11  1  0  0  0  0
 11 40  1  0  0  0  0
 12  3  1  0  0  0  0
 13 12  2  0  0  0  0
 14 15  1  0  0  0  0
 14 13  1  0  0  0  0
 15 23  2  0  0  0  0
 16 15  1  0  0  0  0
 16 17  1  0  0  0  0
 17 22  2  0  0  0  0
 18 17  1  0  0  0  0
 18 19  2  0  0  0  0
 19 20  1  0  0  0  0
 20 21  2  0  0  0  0
 21 24  1  0  0  0  0
 22 21  1  0  0  0  0
 23 22  1  0  0  0  0
 24 45  1  0  0  0  0
 25 19  1  0  0  0  0
 25 47  1  0  0  0  0
 26 48  1  6  0  0  0
 26 16  1  0  0  0  0
 27 26  1  0  0  0  0
 28 49  1  6  0  0  0
 28 27  1  0  0  0  0
 29 50  1  6  0  0  0
 29 28  1  0  0  0  0
 29 30  1  0  0  0  0
 30 51  1  1  0  0  0
 30 26  1  0  0  0  0
 31 30  1  0  0  0  0
 32 29  1  0  0  0  0
 33 28  1  0  0  0  0
 33 34  1  0  0  0  0
 33 54  1  0  0  0  0
 34 56  1  0  0  0  0
 36  7  1  0  0  0  0
 38  9  1  0  0  0  0
 41 11  1  0  0  0  0
 42 11  1  0  0  0  0
 43 12  1  0  0  0  0
 44 14  1  0  0  0  0
 46 25  1  0  0  0  0
 52 31  1  0  0  0  0
 53 32  1  0  0  0  0
 55 33  1  0  0  0  0
M  END
>  <Pose>
1

>  <Score>
-9.26

$$$$
