
 OpenBabel03222201593D

 33 36  0  0  1  0  0  0  0  0999 V2000
  -19.9810   -1.1430  -34.4950 B   0  0  0  0  0  0  0  0  0  0  0  0
  -21.6750   -0.2990  -34.2470 C   0  0  0  0  0  0  0  0  0  0  0  0
  -22.7110   -0.4860  -35.1260 C   0  0  0  0  0  0  0  0  0  0  0  0
  -23.9160    0.1430  -34.9190 C   0  0  0  0  0  0  0  0  0  0  0  0
  -24.1200    0.9760  -33.8280 C   0  0  0  0  0  0  0  0  0  0  0  0
  -23.0960    1.1780  -32.9340 C   0  0  0  0  0  0  0  0  0  0  0  0
  -21.8740    0.5330  -33.1530 C   0  0  0  0  0  0  0  0  0  0  0  0
  -22.5880   -1.3650  -36.3180 C   0  0  1  0  0  0  0  0  0  0  0  0
  -23.5040   -1.1670  -37.3520 C   0  0  1  0  0  0  0  0  0  0  0  0
  -23.7930   -0.1300  -38.3800 C   0  0  0  0  0  0  0  0  0  0  0  0
  -23.0090   -0.8040  -39.4450 N   0  0  0  0  0  0  0  0  0  0  0  0
  -21.9330   -1.2810  -38.9020 C   0  0  1  0  0  0  0  0  0  0  0  0
  -21.9700   -0.9400  -37.5150 C   0  0  2  0  0  0  0  0  0  0  0  0
  -21.4690    0.4620  -37.3850 C   0  0  0  0  0  0  0  0  0  0  0  0
  -21.0820    1.5770  -37.3070 N   0  0  0  0  0  0  0  0  0  0  0  0
  -20.8980   -2.0200  -39.5890 N   0  0  0  0  0  0  0  0  0  0  0  0
  -25.1530   -0.2020  -38.7000 O   0  0  0  0  0  0  0  0  0  0  0  0
  -25.6590    1.0800  -38.6120 C   0  0  0  0  0  0  0  0  0  0  0  0
  -24.4220    1.9320  -38.8440 C   0  0  0  0  0  0  0  0  0  0  0  0
  -23.4730    1.1460  -38.1450 O   0  0  0  0  0  0  0  0  0  0  0  0
  -24.0130   -2.4660  -37.9210 C   0  0  0  0  0  0  0  0  0  0  0  0
  -24.3910   -3.4920  -38.3690 N   0  0  0  0  0  0  0  0  0  0  0  0
  -24.7800    0.0300  -35.5910 H   0  0  0  0  0  0  0  0  0  0  0  0
  -25.0550    1.4760  -33.6500 H   0  0  0  0  0  0  0  0  0  0  0  0
  -23.2360    1.8100  -32.0930 H   0  0  0  0  0  0  0  0  0  0  0  0
  -21.0360    0.6620  -32.4720 H   0  0  0  0  0  0  0  0  0  0  0  0
  -22.3150   -2.4020  -35.9710 H   0  0  0  0  0  0  0  0  0  0  0  0
  -21.1280   -2.6710  -40.3630 H   0  0  0  0  0  0  0  0  0  0  0  0
  -19.9030   -1.9120  -39.3200 H   0  0  0  0  0  0  0  0  0  0  0  0
  -26.0290    1.2440  -37.5770 H   0  0  0  0  0  0  0  0  0  0  0  0
  -26.4510    1.2770  -39.3650 H   0  0  0  0  0  0  0  0  0  0  0  0
  -24.1750    1.9590  -39.9270 H   0  0  0  0  0  0  0  0  0  0  0  0
  -24.5070    2.9410  -38.4180 H   0  0  0  0  0  0  0  0  0  0  0  0
  1  2  1  0  0  0  0
  2  7  1  0  0  0  0
  3  4  1  0  0  0  0
  3  2  2  0  0  0  0
  4  5  2  0  0  0  0
  5 24  1  0  0  0  0
  5  6  1  0  0  0  0
  6 25  1  0  0  0  0
  7  6  2  0  0  0  0
  7 26  1  0  0  0  0
  8 27  1  1  0  0  0
  8  3  1  0  0  0  0
  9 21  1  6  0  0  0
  9  8  1  0  0  0  0
 10 20  1  0  0  0  0
 10  9  1  0  0  0  0
 11 12  1  0  0  0  0
 11 10  1  0  0  0  0
 12 16  1  1  0  0  0
 12 13  1  0  0  0  0
 13 14  1  1  0  0  0
 13  9  1  0  0  0  0
 13  8  1  0  0  0  0
 14 15  3  0  0  0  0
 16 29  1  0  0  0  0
 17 18  1  0  0  0  0
 17 10  1  0  0  0  0
 18 30  1  0  0  0  0
 19 18  1  0  0  0  0
 19 33  1  0  0  0  0
 19 20  1  0  0  0  0
 22 21  3  0  0  0  0
 23  4  1  0  0  0  0
 28 16  1  0  0  0  0
 31 18  1  0  0  0  0
 32 19  1  0  0  0  0
M  END
>  <Pose>
1

>  <Score>
-5.29

$$$$
