
 OpenBabel03222201593D

 55 58  0  0  1  0  0  0  0  0999 V2000
  -17.4290    0.9360  -23.6530 Cl  0  0  0  0  0  0  0  0  0  0  0  0
  -17.9390    0.0650  -25.1080 C   0  0  0  0  0  0  0  0  0  0  0  0
  -17.9100    0.7110  -26.3220 C   0  0  0  0  0  0  0  0  0  0  0  0
  -18.3020    0.0650  -27.4830 C   0  0  0  0  0  0  0  0  0  0  0  0
  -18.3740    0.4370  -28.7690 N   0  0  0  0  0  0  0  0  0  0  0  0
  -18.8400   -0.6190  -29.5240 C   0  0  0  0  0  0  0  0  0  0  0  0
  -19.0340   -1.6090  -28.6600 N   0  0  0  0  0  0  0  0  0  0  0  0
  -18.7180   -1.2420  -27.3840 C   0  0  0  0  0  0  0  0  0  0  0  0
  -18.7520   -1.8990  -26.1710 C   0  0  0  0  0  0  0  0  0  0  0  0
  -18.3620   -1.2480  -25.0260 C   0  0  0  0  0  0  0  0  0  0  0  0
  -19.4760   -2.9620  -28.9500 C   0  0  0  0  0  0  0  0  0  0  0  0
  -18.9920   -0.5890  -31.0010 C   0  0  0  0  0  0  0  0  0  0  0  0
  -20.2630   -0.0790  -31.5340 C   0  0  0  0  0  0  0  0  0  0  0  0
  -20.2180    0.7580  -32.7380 C   0  0  0  0  0  0  0  0  0  0  0  0
  -19.3450    1.6390  -32.9140 O   0  0  0  0  0  0  0  0  0  0  0  0
  -21.2210    0.5590  -33.7580 N   0  0  0  0  0  0  0  0  0  0  0  0
  -20.8480   -0.0950  -34.9820 C   0  0  0  0  0  0  0  0  0  0  0  0
  -20.9350    0.9370  -36.0870 C   0  0  2  0  0  0  0  0  0  0  0  0
  -21.9950    1.9550  -35.8680 C   0  0  1  0  0  0  0  0  0  0  0  0
  -23.0660    1.5730  -34.9140 C   0  0  0  0  0  0  0  0  0  0  0  0
  -22.5900    0.9770  -33.6300 C   0  0  0  0  0  0  0  0  0  0  0  0
  -21.4810    3.1980  -35.4670 O   0  0  0  0  0  0  0  0  0  0  0  0
  -22.6620    2.2160  -37.2260 C   0  0  0  0  0  0  0  0  0  0  0  0
  -21.0560    0.2330  -37.3400 N   0  0  0  0  0  0  0  0  0  0  0  0
  -22.0770   -0.6220  -37.5420 C   0  0  0  0  0  0  0  0  0  0  0  0
  -22.2320   -1.3150  -38.7220 C   0  0  0  0  0  0  0  0  0  0  0  0
  -21.3070   -1.1200  -39.7220 C   0  0  0  0  0  0  0  0  0  0  0  0
  -21.3940   -1.7310  -40.8380 O   0  0  0  0  0  0  0  0  0  0  0  0
  -20.3000   -0.2620  -39.4920 N   0  0  0  0  0  0  0  0  0  0  0  0
  -20.1730    0.3970  -38.3400 C   0  0  0  0  0  0  0  0  0  0  0  0
  -19.2050    1.1940  -38.1750 O   0  0  0  0  0  0  0  0  0  0  0  0
  -17.5880    1.7410  -26.4360 H   0  0  0  0  0  0  0  0  0  0  0  0
  -19.0840   -2.9160  -26.1450 H   0  0  0  0  0  0  0  0  0  0  0  0
  -18.3740   -1.7320  -24.0570 H   0  0  0  0  0  0  0  0  0  0  0  0
  -19.5190   -3.1790  -30.0220 H   0  0  0  0  0  0  0  0  0  0  0  0
  -18.8600   -3.7270  -28.4370 H   0  0  0  0  0  0  0  0  0  0  0  0
  -20.5000   -3.0580  -28.5030 H   0  0  0  0  0  0  0  0  0  0  0  0
  -18.7400   -1.6120  -31.3860 H   0  0  0  0  0  0  0  0  0  0  0  0
  -18.1160    0.0380  -31.3570 H   0  0  0  0  0  0  0  0  0  0  0  0
  -21.0520   -0.8790  -31.6190 H   0  0  0  0  0  0  0  0  0  0  0  0
  -20.6960    0.6020  -30.7260 H   0  0  0  0  0  0  0  0  0  0  0  0
  -21.4800   -0.9830  -35.2020 H   0  0  0  0  0  0  0  0  0  0  0  0
  -19.8100   -0.4820  -34.9070 H   0  0  0  0  0  0  0  0  0  0  0  0
  -19.9460    1.4680  -36.0970 H   0  0  0  0  0  0  0  0  0  0  0  0
  -23.6250    2.5170  -34.6450 H   0  0  0  0  0  0  0  0  0  0  0  0
  -23.8420    0.9440  -35.4320 H   0  0  0  0  0  0  0  0  0  0  0  0
  -23.1990    0.0410  -33.4640 H   0  0  0  0  0  0  0  0  0  0  0  0
  -22.7740    1.6130  -32.7470 H   0  0  0  0  0  0  0  0  0  0  0  0
  -22.2590    3.7800  -35.1980 H   0  0  0  0  0  0  0  0  0  0  0  0
  -23.1650    3.2080  -37.1290 H   0  0  0  0  0  0  0  0  0  0  0  0
  -21.8840    2.3550  -38.0120 H   0  0  0  0  0  0  0  0  0  0  0  0
  -23.4130    1.4620  -37.4690 H   0  0  0  0  0  0  0  0  0  0  0  0
  -22.8150   -0.7790  -36.7470 H   0  0  0  0  0  0  0  0  0  0  0  0
  -23.0510   -2.0000  -38.8820 H   0  0  0  0  0  0  0  0  0  0  0  0
  -19.5630   -0.0820  -40.2380 H   0  0  0  0  0  0  0  0  0  0  0  0
  2 10  1  0  0  0  0
  2  1  1  0  0  0  0
  3  2  2  0  0  0  0
  4  8  2  0  0  0  0
  4  3  1  0  0  0  0
  5  4  1  0  0  0  0
  6  5  2  0  0  0  0
  6  7  1  0  0  0  0
  7  8  1  0  0  0  0
  8  9  1  0  0  0  0
  9 33  1  0  0  0  0
  9 10  2  0  0  0  0
 10 34  1  0  0  0  0
 11  7  1  0  0  0  0
 11 37  1  0  0  0  0
 11 36  1  0  0  0  0
 12  6  1  0  0  0  0
 13 12  1  0  0  0  0
 13 41  1  0  0  0  0
 14 13  1  0  0  0  0
 15 14  2  0  0  0  0
 16 21  1  0  0  0  0
 16 14  1  0  0  0  0
 17 43  1  0  0  0  0
 17 16  1  0  0  0  0
 18 44  1  6  0  0  0
 18 19  1  0  0  0  0
 18 17  1  0  0  0  0
 19 22  1  1  0  0  0
 19 20  1  0  0  0  0
 20 45  1  0  0  0  0
 20 21  1  0  0  0  0
 21 47  1  0  0  0  0
 21 48  1  0  0  0  0
 22 49  1  0  0  0  0
 23 50  1  0  0  0  0
 23 19  1  0  0  0  0
 24 18  1  0  0  0  0
 25 24  1  0  0  0  0
 25 53  1  0  0  0  0
 26 25  2  0  0  0  0
 27 29  1  0  0  0  0
 27 26  1  0  0  0  0
 28 27  2  0  0  0  0
 29 30  1  0  0  0  0
 30 31  2  0  0  0  0
 30 24  1  0  0  0  0
 32  3  1  0  0  0  0
 35 11  1  0  0  0  0
 38 12  1  0  0  0  0
 39 12  1  0  0  0  0
 40 13  1  0  0  0  0
 42 17  1  0  0  0  0
 46 20  1  0  0  0  0
 51 23  1  0  0  0  0
 52 23  1  0  0  0  0
 54 26  1  0  0  0  0
 55 29  1  0  0  0  0
M  END
>  <Pose>
1

>  <Score>
-7.33

$$$$
