
 OpenBabel03222201593D

 49 52  0  0  0  0  0  0  0  0999 V2000
  -18.4120    0.5120  -27.8430 B   0  0  0  0  0  0  0  0  0  0  0  0
  -18.8270   -1.1470  -27.0300 C   0  0  0  0  0  0  0  0  0  0  0  0
  -19.5260   -2.0970  -27.7520 C   0  0  0  0  0  0  0  0  0  0  0  0
  -19.8600   -3.3260  -27.2160 C   0  0  0  0  0  0  0  0  0  0  0  0
  -19.4690   -3.5920  -25.9110 C   0  0  0  0  0  0  0  0  0  0  0  0
  -18.7740   -2.6430  -25.1990 C   0  0  0  0  0  0  0  0  0  0  0  0
  -18.4330   -1.4130  -25.7170 C   0  0  0  0  0  0  0  0  0  0  0  0
  -20.5950   -4.3460  -27.9510 C   0  0  0  0  0  0  0  0  0  0  0  0
  -20.6970   -5.5030  -27.4690 O   0  0  0  0  0  0  0  0  0  0  0  0
  -21.2120   -4.1020  -29.1990 N   0  0  0  0  0  0  0  0  0  0  0  0
  -20.4930   -4.2330  -30.4480 C   0  0  0  0  0  0  0  0  0  0  0  0
  -21.1650   -3.4930  -31.5480 C   0  0  0  0  0  0  0  0  0  0  0  0
  -22.3570   -3.8010  -31.7970 O   0  0  0  0  0  0  0  0  0  0  0  0
  -20.5430   -2.4870  -32.3040 N   0  0  0  0  0  0  0  0  0  0  0  0
  -19.5000   -1.6490  -31.7690 C   0  0  0  0  0  0  0  0  0  0  0  0
  -20.0380   -0.2350  -31.7500 C   0  0  0  0  0  0  0  0  0  0  0  0
  -20.6050    0.1110  -33.1070 C   0  0  0  0  0  0  0  0  0  0  0  0
  -22.0210    0.3640  -32.9480 N   0  0  0  0  0  0  0  0  0  0  0  0
  -22.6810    0.8280  -34.1190 C   0  0  0  0  0  0  0  0  0  0  0  0
  -21.9480    1.7980  -34.9710 C   0  0  0  0  0  0  0  0  0  0  0  0
  -20.6450    2.2350  -34.4270 C   0  0  0  0  0  0  0  0  0  0  0  0
  -19.8860    3.3540  -34.6380 N   0  0  0  0  0  0  0  0  0  0  0  0
  -18.7900    3.2210  -33.8800 C   0  0  0  0  0  0  0  0  0  0  0  0
  -18.8540    2.0580  -33.2110 N   0  0  0  0  0  0  0  0  0  0  0  0
  -20.0040    1.4120  -33.5300 C   0  0  0  0  0  0  0  0  0  0  0  0
  -20.3670   -0.9240  -34.1580 C   0  0  0  0  0  0  0  0  0  0  0  0
  -20.9400   -2.2580  -33.6700 C   0  0  0  0  0  0  0  0  0  0  0  0
  -19.8080   -1.8560  -28.7470 H   0  0  0  0  0  0  0  0  0  0  0  0
  -19.6900   -4.5330  -25.4140 H   0  0  0  0  0  0  0  0  0  0  0  0
  -18.4590   -2.8330  -24.1770 H   0  0  0  0  0  0  0  0  0  0  0  0
  -17.8960   -0.6570  -25.1940 H   0  0  0  0  0  0  0  0  0  0  0  0
  -22.2120   -3.8210  -29.2170 H   0  0  0  0  0  0  0  0  0  0  0  0
  -20.4480   -5.2940  -30.7680 H   0  0  0  0  0  0  0  0  0  0  0  0
  -19.4630   -3.8740  -30.2610 H   0  0  0  0  0  0  0  0  0  0  0  0
  -18.5950   -1.6780  -32.4270 H   0  0  0  0  0  0  0  0  0  0  0  0
  -19.1500   -1.9750  -30.7740 H   0  0  0  0  0  0  0  0  0  0  0  0
  -19.2630    0.4960  -31.4350 H   0  0  0  0  0  0  0  0  0  0  0  0
  -20.8440   -0.2330  -30.9670 H   0  0  0  0  0  0  0  0  0  0  0  0
  -22.4840   -0.5330  -32.6460 H   0  0  0  0  0  0  0  0  0  0  0  0
  -23.6260    1.3420  -33.7730 H   0  0  0  0  0  0  0  0  0  0  0  0
  -23.0700   -0.0120  -34.7560 H   0  0  0  0  0  0  0  0  0  0  0  0
  -22.5490    2.7330  -35.1760 H   0  0  0  0  0  0  0  0  0  0  0  0
  -21.7680    1.3890  -36.0070 H   0  0  0  0  0  0  0  0  0  0  0  0
  -20.1570    4.1470  -35.2890 H   0  0  0  0  0  0  0  0  0  0  0  0
  -17.9840    3.9330  -33.8140 H   0  0  0  0  0  0  0  0  0  0  0  0
  -19.3250   -1.0060  -34.4680 H   0  0  0  0  0  0  0  0  0  0  0  0
  -20.9640   -0.6500  -35.0460 H   0  0  0  0  0  0  0  0  0  0  0  0
  -20.5600   -3.0940  -34.2940 H   0  0  0  0  0  0  0  0  0  0  0  0
  -22.0220   -2.2050  -33.8090 H   0  0  0  0  0  0  0  0  0  0  0  0
  1  2  1  0  0  0  0
  2  7  1  0  0  0  0
  3  4  1  0  0  0  0
  3  2  2  0  0  0  0
  4  5  2  0  0  0  0
  5 29  1  0  0  0  0
  5  6  1  0  0  0  0
  6 30  1  0  0  0  0
  7  6  2  0  0  0  0
  7 31  1  0  0  0  0
  8  9  2  0  0  0  0
  8  4  1  0  0  0  0
 10  8  1  0  0  0  0
 11 34  1  0  0  0  0
 11 10  1  0  0  0  0
 12 11  1  0  0  0  0
 13 12  2  0  0  0  0
 14 15  1  0  0  0  0
 14 12  1  0  0  0  0
 15 16  1  0  0  0  0
 15 36  1  0  0  0  0
 16 37  1  0  0  0  0
 16 38  1  0  0  0  0
 17 18  1  0  0  0  0
 17 16  1  0  0  0  0
 18 39  1  0  0  0  0
 19 40  1  0  0  0  0
 19 18  1  0  0  0  0
 20 21  1  0  0  0  0
 20 19  1  0  0  0  0
 21 25  2  0  0  0  0
 22 21  1  0  0  0  0
 22 23  1  0  0  0  0
 23 45  1  0  0  0  0
 23 24  2  0  0  0  0
 25 24  1  0  0  0  0
 25 17  1  0  0  0  0
 26 27  1  0  0  0  0
 26 17  1  0  0  0  0
 27 14  1  0  0  0  0
 28  3  1  0  0  0  0
 32 10  1  0  0  0  0
 33 11  1  0  0  0  0
 35 15  1  0  0  0  0
 41 19  1  0  0  0  0
 42 20  1  0  0  0  0
 43 20  1  0  0  0  0
 44 22  1  0  0  0  0
 46 26  1  0  0  0  0
 47 26  1  0  0  0  0
 48 27  1  0  0  0  0
 49 27  1  0  0  0  0
M  END
>  <Pose>
1

>  <Score>
-6.89

$$$$
