
 OpenBabel03222201593D

 36 39  0  0  1  0  0  0  0  0999 V2000
  -20.5310   -3.9740  -30.4530 B   0  0  0  0  0  0  0  0  0  0  0  0
  -20.1680   -2.4670  -31.5970 C   0  0  0  0  0  0  0  0  0  0  0  0
  -21.0680   -2.0690  -32.5500 C   0  0  0  0  0  0  0  0  0  0  0  0
  -20.7870   -0.9870  -33.3570 C   0  0  0  0  0  0  0  0  0  0  0  0
  -19.5930   -0.3450  -33.1660 C   0  0  0  0  0  0  0  0  0  0  0  0
  -18.6670   -0.7550  -32.1850 C   0  0  0  0  0  0  0  0  0  0  0  0
  -18.9640   -1.8320  -31.3920 C   0  0  0  0  0  0  0  0  0  0  0  0
  -19.4470    0.7460  -34.0700 N   0  0  0  0  0  0  0  0  0  0  0  0
  -20.5960    0.7990  -34.8690 C   0  0  0  0  0  0  0  0  0  0  0  0
  -20.8080    1.6490  -35.7870 O   0  0  0  0  0  0  0  0  0  0  0  0
  -21.5220   -0.3130  -34.4550 C   0  0  2  0  0  0  0  0  0  0  0  0
  -22.7500    0.3350  -34.0090 C   0  0  0  0  0  0  0  0  0  0  0  0
  -23.9280    0.1380  -34.6590 C   0  0  0  0  0  0  0  0  0  0  0  0
  -24.8670    0.8770  -33.9960 N   0  0  0  0  0  0  0  0  0  0  0  0
  -24.3150    1.5090  -32.9820 N   0  0  0  0  0  0  0  0  0  0  0  0
  -23.0190    1.2080  -32.9510 C   0  0  0  0  0  0  0  0  0  0  0  0
  -21.9630    1.6690  -31.9960 C   0  0  0  0  0  0  0  0  0  0  0  0
  -24.0460   -0.6880  -35.7820 O   0  0  0  0  0  0  0  0  0  0  0  0
  -22.8720   -1.3040  -36.2050 C   0  0  0  0  0  0  0  0  0  0  0  0
  -21.7110   -1.1540  -35.6230 C   0  0  0  0  0  0  0  0  0  0  0  0
  -20.5740   -1.8850  -36.2080 C   0  0  0  0  0  0  0  0  0  0  0  0
  -19.6870   -2.4780  -36.6840 N   0  0  0  0  0  0  0  0  0  0  0  0
  -22.9320   -2.1760  -37.3690 N   0  0  0  0  0  0  0  0  0  0  0  0
  -18.2990    1.6610  -34.1600 C   0  0  0  0  0  0  0  0  0  0  0  0
  -22.0040   -2.5860  -32.6860 H   0  0  0  0  0  0  0  0  0  0  0  0
  -17.7250   -0.2460  -32.0370 H   0  0  0  0  0  0  0  0  0  0  0  0
  -18.2600   -2.1740  -30.6190 H   0  0  0  0  0  0  0  0  0  0  0  0
  -24.7710    2.1540  -32.2860 H   0  0  0  0  0  0  0  0  0  0  0  0
  -22.4790    2.3500  -31.2710 H   0  0  0  0  0  0  0  0  0  0  0  0
  -21.5800    0.8240  -31.3720 H   0  0  0  0  0  0  0  0  0  0  0  0
  -21.1820    2.2580  -32.4750 H   0  0  0  0  0  0  0  0  0  0  0  0
  -22.0520   -2.6930  -37.5690 H   0  0  0  0  0  0  0  0  0  0  0  0
  -23.7610   -2.2810  -37.9500 H   0  0  0  0  0  0  0  0  0  0  0  0
  -17.8800    1.5650  -35.1800 H   0  0  0  0  0  0  0  0  0  0  0  0
  -18.7430    2.6820  -34.0900 H   0  0  0  0  0  0  0  0  0  0  0  0
  -17.5800    1.4830  -33.3610 H   0  0  0  0  0  0  0  0  0  0  0  0
  2  7  1  0  0  0  0
  2  1  1  0  0  0  0
  3  2  2  0  0  0  0
  4  5  2  0  0  0  0
  4  3  1  0  0  0  0
  5  6  1  0  0  0  0
  6 26  1  0  0  0  0
  6  7  2  0  0  0  0
  7 27  1  0  0  0  0
  8  5  1  0  0  0  0
  9 11  1  0  0  0  0
  9  8  1  0  0  0  0
 10  9  2  0  0  0  0
 11 20  1  6  0  0  0
 11 12  1  0  0  0  0
 11  4  1  0  0  0  0
 12 16  2  0  0  0  0
 13 12  1  0  0  0  0
 13 14  2  0  0  0  0
 14 15  1  0  0  0  0
 15 16  1  0  0  0  0
 15 28  1  0  0  0  0
 16 17  1  0  0  0  0
 17 30  1  0  0  0  0
 17 29  1  0  0  0  0
 18 13  1  0  0  0  0
 19 18  1  0  0  0  0
 19 20  2  0  0  0  0
 21 20  1  0  0  0  0
 22 21  3  0  0  0  0
 23 19  1  0  0  0  0
 24 35  1  0  0  0  0
 24  8  1  0  0  0  0
 24 36  1  0  0  0  0
 25  3  1  0  0  0  0
 31 17  1  0  0  0  0
 32 23  1  0  0  0  0
 33 23  1  0  0  0  0
 34 24  1  0  0  0  0
M  END
>  <Pose>
1

>  <Score>
-4.91

$$$$
