
 OpenBabel03222201593D

 66 69  0  0  1  0  0  0  0  0999 V2000
  -19.5980    0.6120  -28.6240 B   0  0  0  0  0  0  0  0  0  0  0  0
  -19.9360   -0.9320  -29.7090 C   0  0  0  0  0  0  0  0  0  0  0  0
  -20.1360   -0.7880  -31.0610 C   0  0  0  0  0  0  0  0  0  0  0  0
  -20.3870   -1.8920  -31.8920 C   0  0  0  0  0  0  0  0  0  0  0  0
  -20.4210   -3.1260  -31.2790 C   0  0  0  0  0  0  0  0  0  0  0  0
  -20.2250   -3.2990  -29.9260 C   0  0  0  0  0  0  0  0  0  0  0  0
  -19.9800   -2.2010  -29.1330 C   0  0  0  0  0  0  0  0  0  0  0  0
  -19.7560   -2.2830  -27.6660 C   0  0  0  0  0  0  0  0  0  0  0  0
  -20.2770   -5.0200  -29.1040 B   0  0  0  0  0  0  0  0  0  0  0  0
  -20.5950   -1.6940  -33.3110 C   0  0  0  0  0  0  0  0  0  0  0  0
  -20.7120   -2.6660  -34.0640 O   0  0  0  0  0  0  0  0  0  0  0  0
  -20.6650   -0.3240  -33.8490 C   0  0  1  0  0  0  0  0  0  0  0  0
  -19.7380    0.5320  -33.0130 C   0  0  0  0  0  0  0  0  0  0  0  0
  -20.0930    0.4750  -31.6440 O   0  0  0  0  0  0  0  0  0  0  0  0
  -20.3360   -0.2320  -35.3080 C   0  0  0  0  0  0  0  0  0  0  0  0
  -18.9720   -0.0540  -35.6270 N   0  0  0  0  0  4  0  0  0  0  0  0
  -18.7660   -0.2590  -37.0300 C   0  0  0  0  0  0  0  0  0  0  0  0
  -19.3110    0.8050  -37.9130 C   0  0  2  0  0  0  0  0  0  0  0  0
  -19.7980    2.0360  -37.2510 C   0  0  0  0  0  0  0  0  0  0  0  0
  -19.2550    2.3280  -35.9080 C   0  0  0  0  0  0  0  0  0  0  0  0
  -18.4190    1.2340  -35.3120 C   0  0  0  0  0  0  0  0  0  0  0  0
  -20.4850    0.2030  -38.6950 C   0  0  0  0  0  0  0  0  0  0  0  0
  -22.0840    0.1470  -33.6060 C   0  0  0  0  0  0  0  0  0  0  0  0
  -23.0900   -0.8460  -33.7670 N   0  0  0  0  0  4  0  0  0  0  0  0
  -22.7850   -1.6960  -34.9170 C   0  0  0  0  0  0  0  0  0  0  0  0
  -23.5830   -1.3290  -36.1330 C   0  0  1  0  0  0  0  0  0  0  0  0
  -23.6510    0.1760  -36.2600 C   0  0  0  0  0  0  0  0  0  0  0  0
  -24.4610    0.6950  -35.1140 C   0  0  0  0  0  0  0  0  0  0  0  0
  -24.4170   -0.3160  -33.9950 C   0  0  0  0  0  0  0  0  0  0  0  0
  -22.7970   -1.8290  -37.3530 C   0  0  0  0  0  0  0  0  0  0  0  0
  -20.6100   -4.0160  -31.8740 H   0  0  0  0  0  0  0  0  0  0  0  0
  -18.7220   -1.9250  -27.4610 H   0  0  0  0  0  0  0  0  0  0  0  0
  -19.9680   -3.2710  -27.2550 H   0  0  0  0  0  0  0  0  0  0  0  0
  -20.4280   -1.5010  -27.2100 H   0  0  0  0  0  0  0  0  0  0  0  0
  -18.6970    0.1840  -33.0860 H   0  0  0  0  0  0  0  0  0  0  0  0
  -19.7250    1.5950  -33.3830 H   0  0  0  0  0  0  0  0  0  0  0  0
  -20.6760   -1.1860  -35.7630 H   0  0  0  0  0  0  0  0  0  0  0  0
  -20.9800    0.5550  -35.7530 H   0  0  0  0  0  0  0  0  0  0  0  0
  -18.3890   -0.7680  -35.1210 H   0  0  0  0  0  0  0  0  0  0  0  0
  -17.6500   -0.3650  -37.1730 H   0  0  0  0  0  0  0  0  0  0  0  0
  -19.1720   -1.2590  -37.2900 H   0  0  0  0  0  0  0  0  0  0  0  0
  -18.5450    1.0420  -38.6870 H   0  0  0  0  0  0  0  0  0  0  0  0
  -19.5530    2.9080  -37.9240 H   0  0  0  0  0  0  0  0  0  0  0  0
  -20.9280    2.0610  -37.2020 H   0  0  0  0  0  0  0  0  0  0  0  0
  -20.0730    2.6050  -35.1790 H   0  0  0  0  0  0  0  0  0  0  0  0
  -18.5990    3.2490  -35.9130 H   0  0  0  0  0  0  0  0  0  0  0  0
  -18.2110    1.4310  -34.2680 H   0  0  0  0  0  0  0  0  0  0  0  0
  -17.4210    1.2810  -35.8430 H   0  0  0  0  0  0  0  0  0  0  0  0
  -20.5520    0.6580  -39.7140 H   0  0  0  0  0  0  0  0  0  0  0  0
  -20.3930   -0.8910  -38.7150 H   0  0  0  0  0  0  0  0  0  0  0  0
  -21.4110    0.4550  -38.1450 H   0  0  0  0  0  0  0  0  0  0  0  0
  -22.2590    0.9700  -34.3570 H   0  0  0  0  0  0  0  0  0  0  0  0
  -22.1360    0.6770  -32.6140 H   0  0  0  0  0  0  0  0  0  0  0  0
  -23.1230   -1.4640  -32.9520 H   0  0  0  0  0  0  0  0  0  0  0  0
  -22.9520   -2.7620  -34.6930 H   0  0  0  0  0  0  0  0  0  0  0  0
  -21.7040   -1.5940  -35.2040 H   0  0  0  0  0  0  0  0  0  0  0  0
  -24.5660   -1.8140  -36.1880 H   0  0  0  0  0  0  0  0  0  0  0  0
  -24.1310    0.3990  -37.2340 H   0  0  0  0  0  0  0  0  0  0  0  0
  -22.6260    0.5610  -36.2900 H   0  0  0  0  0  0  0  0  0  0  0  0
  -24.2010    1.6940  -34.7720 H   0  0  0  0  0  0  0  0  0  0  0  0
  -25.5390    0.7430  -35.4430 H   0  0  0  0  0  0  0  0  0  0  0  0
  -25.0560   -1.2040  -34.2730 H   0  0  0  0  0  0  0  0  0  0  0  0
  -24.8960    0.1320  -33.1230 H   0  0  0  0  0  0  0  0  0  0  0  0
  -22.2010   -2.7300  -37.0740 H   0  0  0  0  0  0  0  0  0  0  0  0
  -22.1580   -1.0250  -37.7750 H   0  0  0  0  0  0  0  0  0  0  0  0
  -23.4850   -2.1360  -38.1670 H   0  0  0  0  0  0  0  0  0  0  0  0
  2  7  1  0  0  0  0
  2  1  1  0  0  0  0
  3  2  2  0  0  0  0
  4  5  2  0  0  0  0
  4  3  1  0  0  0  0
  5  6  1  0  0  0  0
  6  7  2  0  0  0  0
  6  9  1  0  0  0  0
  7  8  1  0  0  0  0
  8 32  1  0  0  0  0
  8 33  1  0  0  0  0
  8 34  1  0  0  0  0
 10  4  1  0  0  0  0
 11 10  2  0  0  0  0
 12 15  1  6  0  0  0
 12 23  1  0  0  0  0
 12 10  1  0  0  0  0
 12 13  1  0  0  0  0
 13 14  1  0  0  0  0
 14  3  1  0  0  0  0
 16 21  1  0  0  0  0
 16 15  1  0  0  0  0
 16 39  1  0  0  0  0
 17 16  1  0  0  0  0
 18 42  1  6  0  0  0
 18 19  1  0  0  0  0
 18 17  1  0  0  0  0
 19 44  1  0  0  0  0
 19 20  1  0  0  0  0
 20 21  1  0  0  0  0
 20 45  1  0  0  0  0
 21 47  1  0  0  0  0
 22 51  1  0  0  0  0
 22 18  1  0  0  0  0
 23 53  1  0  0  0  0
 24 23  1  0  0  0  0
 24 54  1  0  0  0  0
 25 55  1  0  0  0  0
 25 24  1  0  0  0  0
 26 57  1  1  0  0  0
 26 25  1  0  0  0  0
 27 26  1  0  0  0  0
 27 28  1  0  0  0  0
 28 60  1  0  0  0  0
 28 29  1  0  0  0  0
 29 24  1  0  0  0  0
 29 63  1  0  0  0  0
 30 64  1  0  0  0  0
 30 26  1  0  0  0  0
 31  5  1  0  0  0  0
 35 13  1  0  0  0  0
 36 13  1  0  0  0  0
 37 15  1  0  0  0  0
 38 15  1  0  0  0  0
 40 17  1  0  0  0  0
 41 17  1  0  0  0  0
 43 19  1  0  0  0  0
 46 20  1  0  0  0  0
 48 21  1  0  0  0  0
 49 22  1  0  0  0  0
 50 22  1  0  0  0  0
 52 23  1  0  0  0  0
 56 25  1  0  0  0  0
 58 27  1  0  0  0  0
 59 27  1  0  0  0  0
 61 28  1  0  0  0  0
 62 29  1  0  0  0  0
 65 30  1  0  0  0  0
 66 30  1  0  0  0  0
M  END
>  <Pose>
1

>  <Score>
-5.52

$$$$
