
 OpenBabel03222201593D

 32 35  0  0  0  0  0  0  0  0999 V2000
  -17.9050    2.9300  -26.9780 B   0  0  0  0  0  0  0  0  0  0  0  0
  -17.8780    1.5970  -25.6170 C   0  0  0  0  0  0  0  0  0  0  0  0
  -18.1570    0.2380  -25.7390 C   0  0  0  0  0  0  0  0  0  0  0  0
  -18.0180   -0.3350  -24.5270 N   0  0  0  0  0  0  0  0  0  0  0  0
  -17.6650    0.6160  -23.6610 N   0  0  0  0  0  0  0  0  0  0  0  0
  -17.5700    1.8040  -24.2890 C   0  0  0  0  0  0  0  0  0  0  0  0
  -17.2100    3.1270  -23.7270 C   0  0  0  0  0  0  0  0  0  0  0  0
  -18.2140   -1.7380  -24.1980 C   0  0  0  0  0  0  0  0  0  0  0  0
  -18.7850   -2.4970  -25.3450 C   0  0  0  0  0  0  0  0  0  0  0  0
  -19.1560   -3.7870  -25.3940 N   0  0  0  0  0  0  0  0  0  0  0  0
  -19.6260   -4.0970  -26.6140 N   0  0  0  0  0  0  0  0  0  0  0  0
  -19.5520   -2.9800  -27.3590 C   0  0  0  0  0  0  0  0  0  0  0  0
  -19.0380   -2.0110  -26.5780 N   0  0  0  0  0  0  0  0  0  0  0  0
  -19.9840   -3.0520  -28.6700 C   0  0  0  0  0  0  0  0  0  0  0  0
  -20.4790   -4.2190  -29.2190 C   0  0  0  0  0  0  0  0  0  0  0  0
  -20.8300   -4.0180  -30.5070 N   0  0  0  0  0  0  0  0  0  0  0  0
  -20.5590   -2.7520  -30.7620 N   0  0  0  0  0  0  0  0  0  0  0  0
  -20.0480   -2.1270  -29.6860 C   0  0  0  0  0  0  0  0  0  0  0  0
  -21.3910   -5.0200  -31.4100 C   0  0  0  0  0  0  0  0  0  0  0  0
  -20.5240   -5.2960  -28.4160 N   0  0  0  0  0  0  0  0  0  0  0  0
  -20.1070   -5.2390  -27.1400 C   0  0  0  0  0  0  0  0  0  0  0  0
  -18.4340   -0.2330  -26.6760 H   0  0  0  0  0  0  0  0  0  0  0  0
  -18.0830    3.6740  -23.3130 H   0  0  0  0  0  0  0  0  0  0  0  0
  -16.7260    3.7830  -24.4690 H   0  0  0  0  0  0  0  0  0  0  0  0
  -16.5170    2.9180  -22.8660 H   0  0  0  0  0  0  0  0  0  0  0  0
  -18.8560   -1.8520  -23.2830 H   0  0  0  0  0  0  0  0  0  0  0  0
  -17.2200   -2.1710  -23.8840 H   0  0  0  0  0  0  0  0  0  0  0  0
  -19.7290   -1.1070  -29.5700 H   0  0  0  0  0  0  0  0  0  0  0  0
  -21.9790   -4.5400  -32.2220 H   0  0  0  0  0  0  0  0  0  0  0  0
  -22.1420   -5.6570  -30.8580 H   0  0  0  0  0  0  0  0  0  0  0  0
  -20.6250   -5.6480  -31.8770 H   0  0  0  0  0  0  0  0  0  0  0  0
  -20.1360   -6.0980  -26.4760 H   0  0  0  0  0  0  0  0  0  0  0  0
  1  2  1  0  0  0  0
  2  6  1  0  0  0  0
  3  2  2  0  0  0  0
  3  4  1  0  0  0  0
  4  8  1  0  0  0  0
  4  5  1  0  0  0  0
  6  7  1  0  0  0  0
  6  5  2  0  0  0  0
  7 23  1  0  0  0  0
  7 25  1  0  0  0  0
  8 27  1  0  0  0  0
  8 26  1  0  0  0  0
  9  8  1  0  0  0  0
 10  9  2  0  0  0  0
 11 10  1  0  0  0  0
 12 11  1  0  0  0  0
 12 13  2  0  0  0  0
 13  9  1  0  0  0  0
 14 12  1  0  0  0  0
 15 14  2  0  0  0  0
 15 20  1  0  0  0  0
 16 15  1  0  0  0  0
 17 16  1  0  0  0  0
 17 18  2  0  0  0  0
 18 28  1  0  0  0  0
 18 14  1  0  0  0  0
 19 30  1  0  0  0  0
 19 16  1  0  0  0  0
 20 21  2  0  0  0  0
 21 11  1  0  0  0  0
 21 32  1  0  0  0  0
 22  3  1  0  0  0  0
 24  7  1  0  0  0  0
 29 19  1  0  0  0  0
 31 19  1  0  0  0  0
M  END
>  <Pose>
1

>  <Score>
-6.10

$$$$
