
 OpenBabel03222201593D

 56 59  0  0  1  0  0  0  0  0999 V2000
  -20.6540   -4.4520  -29.7840 B   0  0  0  0  0  0  0  0  0  0  0  0
  -20.0000   -2.6720  -29.7830 C   0  0  0  0  0  0  0  0  0  0  0  0
  -20.1160   -1.8900  -30.9370 C   0  0  0  0  0  0  0  0  0  0  0  0
  -19.6640   -0.5940  -30.9680 C   0  0  0  0  0  0  0  0  0  0  0  0
  -19.0920   -0.0920  -29.8240 C   0  0  0  0  0  0  0  0  0  0  0  0
  -18.9620   -0.8490  -28.6610 C   0  0  0  0  0  0  0  0  0  0  0  0
  -19.4300   -2.1660  -28.6420 C   0  0  0  0  0  0  0  0  0  0  0  0
  -19.3030   -2.9820  -27.4030 C   0  0  0  0  0  0  0  0  0  0  0  0
  -18.3160   -0.2660  -27.4550 C   0  0  0  0  0  0  0  0  0  0  0  0
  -19.7820    0.3220  -32.1390 C   0  0  2  0  0  0  0  0  0  0  0  0
  -20.2420   -0.3390  -33.4020 C   0  0  2  0  0  0  0  0  0  0  0  0
  -19.9900   -1.8310  -33.2920 C   0  0  0  0  0  0  0  0  0  0  0  0
  -20.6760   -2.3480  -32.1220 O   0  0  0  0  0  0  0  0  0  0  0  0
  -19.3990    0.1740  -34.4600 N   0  0  0  0  0  0  0  0  0  0  0  0
  -19.1870    1.5820  -34.3930 C   0  0  0  0  0  0  0  0  0  0  0  0
  -18.6680    2.2190  -35.6500 C   0  0  0  0  0  0  0  0  0  0  0  0
  -19.1620    1.7000  -36.8160 O   0  0  0  0  0  0  0  0  0  0  0  0
  -18.8700    0.3300  -36.8340 C   0  0  0  0  0  0  0  0  0  0  0  0
  -19.8220   -0.2590  -35.7590 C   0  0  0  0  0  0  0  0  0  0  0  0
  -21.6870   -0.2260  -33.7070 C   0  0  0  0  0  0  0  0  0  0  0  0
  -22.3250    0.9670  -34.0260 N   0  0  0  0  0  0  0  0  0  0  0  0
  -22.5490    1.0320  -35.5110 C   0  0  0  0  0  0  0  0  0  0  0  0
  -23.3030   -0.1520  -35.9920 C   0  0  0  0  0  0  0  0  0  0  0  0
  -24.1930   -0.6770  -35.0930 O   0  0  0  0  0  0  0  0  0  0  0  0
  -24.6620    0.1820  -34.1430 C   0  0  0  0  0  0  0  0  0  0  0  0
  -23.6920    1.1760  -33.5880 C   0  0  0  0  0  0  0  0  0  0  0  0
  -18.4940    0.9110  -32.3360 O   0  0  0  0  0  0  0  0  0  0  0  0
  -18.6960    0.9340  -29.7450 H   0  0  0  0  0  0  0  0  0  0  0  0
  -18.2740   -3.1700  -27.0840 H   0  0  0  0  0  0  0  0  0  0  0  0
  -19.7700   -3.9780  -27.5900 H   0  0  0  0  0  0  0  0  0  0  0  0
  -19.8890   -2.4170  -26.6220 H   0  0  0  0  0  0  0  0  0  0  0  0
  -17.2120   -0.1980  -27.6740 H   0  0  0  0  0  0  0  0  0  0  0  0
  -18.6680    0.7410  -27.2000 H   0  0  0  0  0  0  0  0  0  0  0  0
  -18.4350   -0.9890  -26.6150 H   0  0  0  0  0  0  0  0  0  0  0  0
  -20.3950    1.1500  -31.7830 H   0  0  0  0  0  0  0  0  0  0  0  0
  -18.9550   -2.1300  -33.2150 H   0  0  0  0  0  0  0  0  0  0  0  0
  -20.5360   -2.3050  -34.1460 H   0  0  0  0  0  0  0  0  0  0  0  0
  -18.4260    1.7900  -33.6180 H   0  0  0  0  0  0  0  0  0  0  0  0
  -20.1740    2.0470  -34.2090 H   0  0  0  0  0  0  0  0  0  0  0  0
  -17.5620    2.2900  -35.6760 H   0  0  0  0  0  0  0  0  0  0  0  0
  -19.0000    3.2950  -35.6320 H   0  0  0  0  0  0  0  0  0  0  0  0
  -19.1970   -0.0780  -37.7930 H   0  0  0  0  0  0  0  0  0  0  0  0
  -17.8210    0.1300  -36.5550 H   0  0  0  0  0  0  0  0  0  0  0  0
  -20.8010    0.2090  -36.0320 H   0  0  0  0  0  0  0  0  0  0  0  0
  -19.7700   -1.3350  -35.9110 H   0  0  0  0  0  0  0  0  0  0  0  0
  -22.1760   -0.5900  -32.7180 H   0  0  0  0  0  0  0  0  0  0  0  0
  -22.0000   -1.0510  -34.3980 H   0  0  0  0  0  0  0  0  0  0  0  0
  -21.5780    1.1880  -36.0160 H   0  0  0  0  0  0  0  0  0  0  0  0
  -23.1390    1.9500  -35.6900 H   0  0  0  0  0  0  0  0  0  0  0  0
  -23.8260    0.0600  -36.9710 H   0  0  0  0  0  0  0  0  0  0  0  0
  -22.5540   -0.9490  -36.2280 H   0  0  0  0  0  0  0  0  0  0  0  0
  -25.0390   -0.4260  -33.2990 H   0  0  0  0  0  0  0  0  0  0  0  0
  -25.5680    0.6800  -34.5940 H   0  0  0  0  0  0  0  0  0  0  0  0
  -23.9710    2.1560  -34.1340 H   0  0  0  0  0  0  0  0  0  0  0  0
  -23.8460    1.4480  -32.5570 H   0  0  0  0  0  0  0  0  0  0  0  0
  -17.8520    0.3730  -31.8110 H   0  0  0  0  0  0  0  0  0  0  0  0
  1  2  1  0  0  0  0
  2  7  1  0  0  0  0
  3  2  2  0  0  0  0
  4  3  1  0  0  0  0
  4  5  2  0  0  0  0
  5 28  1  0  0  0  0
  5  6  1  0  0  0  0
  6  7  2  0  0  0  0
  6  9  1  0  0  0  0
  7  8  1  0  0  0  0
  8 29  1  0  0  0  0
  8 31  1  0  0  0  0
  9 33  1  0  0  0  0
  9 34  1  0  0  0  0
 10 35  1  1  0  0  0
 10  4  1  0  0  0  0
 11 20  1  6  0  0  0
 11 12  1  0  0  0  0
 11 10  1  0  0  0  0
 12 36  1  0  0  0  0
 12 13  1  0  0  0  0
 13  3  1  0  0  0  0
 14 15  1  0  0  0  0
 14 11  1  0  0  0  0
 15 39  1  0  0  0  0
 15 38  1  0  0  0  0
 16 41  1  0  0  0  0
 16 15  1  0  0  0  0
 17 16  1  0  0  0  0
 18 17  1  0  0  0  0
 18 43  1  0  0  0  0
 18 19  1  0  0  0  0
 19 14  1  0  0  0  0
 20 46  1  0  0  0  0
 21 20  1  0  0  0  0
 21 26  1  0  0  0  0
 22 21  1  0  0  0  0
 23 22  1  0  0  0  0
 23 24  1  0  0  0  0
 24 25  1  0  0  0  0
 25 26  1  0  0  0  0
 25 52  1  0  0  0  0
 26 55  1  0  0  0  0
 27 10  1  0  0  0  0
 27 56  1  0  0  0  0
 30  8  1  0  0  0  0
 32  9  1  0  0  0  0
 37 12  1  0  0  0  0
 40 16  1  0  0  0  0
 42 18  1  0  0  0  0
 44 19  1  0  0  0  0
 45 19  1  0  0  0  0
 47 20  1  0  0  0  0
 48 22  1  0  0  0  0
 49 22  1  0  0  0  0
 50 23  1  0  0  0  0
 51 23  1  0  0  0  0
 53 25  1  0  0  0  0
 54 26  1  0  0  0  0
M  END
>  <Pose>
1

>  <Score>
-5.29

$$$$
