
 OpenBabel03222201593D

 45 48  0  0  0  0  0  0  0  0999 V2000
  -18.0270   -0.9230  -25.1770 B   0  0  0  0  0  0  0  0  0  0  0  0
  -19.0030   -1.4200  -26.7440 C   0  0  0  0  0  0  0  0  0  0  0  0
  -19.4110   -2.7060  -26.9960 C   0  0  0  0  0  0  0  0  0  0  0  0
  -20.0730   -2.6840  -28.1960 C   0  0  0  0  0  0  0  0  0  0  0  0
  -20.0760   -1.4070  -28.6810 N   0  0  0  0  0  0  0  0  0  0  0  0
  -19.4160   -0.6360  -27.7850 C   0  0  0  0  0  0  0  0  0  0  0  0
  -19.1850    0.8200  -27.9220 C   0  0  0  0  0  0  0  0  0  0  0  0
  -20.6670   -1.0480  -29.9230 C   0  0  0  0  0  0  0  0  0  0  0  0
  -19.8490   -0.9620  -31.1160 C   0  0  0  0  0  0  0  0  0  0  0  0
  -18.9040   -0.0350  -31.0000 O   0  0  0  0  0  0  0  0  0  0  0  0
  -19.8480   -1.6300  -32.3300 N   0  0  0  0  0  0  0  0  0  0  0  0
  -20.5150   -2.8370  -32.6670 C   0  0  0  0  0  0  0  0  0  0  0  0
  -21.6860   -2.5400  -33.6050 C   0  0  0  0  0  0  0  0  0  0  0  0
  -21.3420   -1.3500  -34.4860 C   0  0  0  0  0  0  0  0  0  0  0  0
  -21.9750   -1.6160  -35.7660 N   0  0  0  0  0  0  0  0  0  0  0  0
  -23.3020   -1.0560  -35.6870 C   0  0  0  0  0  0  0  0  0  0  0  0
  -24.2690   -1.3380  -36.4380 O   0  0  0  0  0  0  0  0  0  0  0  0
  -23.3040   -0.1220  -34.5910 N   0  0  0  0  0  0  0  0  0  0  0  0
  -22.0030   -0.1150  -34.0160 C   0  0  0  0  0  0  0  0  0  0  0  0
  -21.5480    0.7800  -33.2670 O   0  0  0  0  0  0  0  0  0  0  0  0
  -19.8700   -1.2010  -34.7070 C   0  0  0  0  0  0  0  0  0  0  0  0
  -19.0750   -1.0450  -33.4520 C   0  0  0  0  0  0  0  0  0  0  0  0
  -20.6050   -3.8680  -28.7070 C   0  0  0  0  0  0  0  0  0  0  0  0
  -20.4690   -5.0620  -28.0100 C   0  0  0  0  0  0  0  0  0  0  0  0
  -19.8050   -5.0640  -26.8150 C   0  0  0  0  0  0  0  0  0  0  0  0
  -19.2770   -3.9010  -26.3040 C   0  0  0  0  0  0  0  0  0  0  0  0
  -19.2790    1.3470  -26.9460 H   0  0  0  0  0  0  0  0  0  0  0  0
  -18.1350    0.9690  -28.2710 H   0  0  0  0  0  0  0  0  0  0  0  0
  -19.8920    1.2850  -28.6510 H   0  0  0  0  0  0  0  0  0  0  0  0
  -21.2100   -0.0540  -29.7680 H   0  0  0  0  0  0  0  0  0  0  0  0
  -21.5480   -1.7500  -30.0860 H   0  0  0  0  0  0  0  0  0  0  0  0
  -20.7970   -3.5230  -31.8890 H   0  0  0  0  0  0  0  0  0  0  0  0
  -19.7790   -3.4370  -33.3080 H   0  0  0  0  0  0  0  0  0  0  0  0
  -21.8490   -3.4640  -34.1970 H   0  0  0  0  0  0  0  0  0  0  0  0
  -22.5780   -2.3650  -33.0040 H   0  0  0  0  0  0  0  0  0  0  0  0
  -21.5660   -2.1100  -36.5860 H   0  0  0  0  0  0  0  0  0  0  0  0
  -24.1100    0.4400  -34.2820 H   0  0  0  0  0  0  0  0  0  0  0  0
  -19.5420   -2.0610  -35.3390 H   0  0  0  0  0  0  0  0  0  0  0  0
  -19.7310   -0.2880  -35.3430 H   0  0  0  0  0  0  0  0  0  0  0  0
  -18.7220   -0.0410  -33.2290 H   0  0  0  0  0  0  0  0  0  0  0  0
  -18.1770   -1.7250  -33.5450 H   0  0  0  0  0  0  0  0  0  0  0  0
  -21.1230   -3.8250  -29.6570 H   0  0  0  0  0  0  0  0  0  0  0  0
  -20.8970   -5.9650  -28.4430 H   0  0  0  0  0  0  0  0  0  0  0  0
  -19.7000   -5.9850  -26.2790 H   0  0  0  0  0  0  0  0  0  0  0  0
  -18.7500   -3.8720  -25.3660 H   0  0  0  0  0  0  0  0  0  0  0  0
  2  1  1  0  0  0  0
  3  2  1  0  0  0  0
  3 26  1  0  0  0  0
  4  3  2  0  0  0  0
  5  4  1  0  0  0  0
  5  6  1  0  0  0  0
  6  2  2  0  0  0  0
  7  6  1  0  0  0  0
  7 27  1  0  0  0  0
  8 30  1  0  0  0  0
  8  5  1  0  0  0  0
  9 10  2  0  0  0  0
  9  8  1  0  0  0  0
 11  9  1  0  0  0  0
 12 11  1  0  0  0  0
 12 32  1  0  0  0  0
 13 35  1  0  0  0  0
 13 12  1  0  0  0  0
 14 19  1  0  0  0  0
 14 13  1  0  0  0  0
 15 16  1  0  0  0  0
 15 14  1  0  0  0  0
 16 18  1  0  0  0  0
 17 16  2  0  0  0  0
 18 37  1  0  0  0  0
 18 19  1  0  0  0  0
 19 20  2  0  0  0  0
 21 14  1  0  0  0  0
 21 22  1  0  0  0  0
 22 40  1  0  0  0  0
 22 11  1  0  0  0  0
 23  4  1  0  0  0  0
 23 24  2  0  0  0  0
 24 25  1  0  0  0  0
 25 26  2  0  0  0  0
 25 44  1  0  0  0  0
 26 45  1  0  0  0  0
 28  7  1  0  0  0  0
 29  7  1  0  0  0  0
 31  8  1  0  0  0  0
 33 12  1  0  0  0  0
 34 13  1  0  0  0  0
 36 15  1  0  0  0  0
 38 21  1  0  0  0  0
 39 21  1  0  0  0  0
 41 22  1  0  0  0  0
 42 23  1  0  0  0  0
 43 24  1  0  0  0  0
M  END
>  <Pose>
1

>  <Score>
-6.84

$$$$
