
 OpenBabel03222201593D

 46 49  0  0  0  0  0  0  0  0999 V2000
  -21.8040   -5.2340  -32.2450 B   0  0  0  0  0  0  0  0  0  0  0  0
  -21.8080   -3.6030  -33.2380 C   0  0  0  0  0  0  0  0  0  0  0  0
  -20.9790   -2.5660  -32.9640 N   0  0  0  0  0  0  0  0  0  0  0  0
  -21.2930   -1.6220  -33.8790 C   0  0  0  0  0  0  0  0  0  0  0  0
  -22.3020   -2.0590  -34.7120 C   0  0  0  0  0  0  0  0  0  0  0  0
  -22.6020   -3.3070  -34.2830 N   0  0  0  0  0  0  0  0  0  0  0  0
  -22.7990   -1.2990  -35.7150 N   0  0  0  0  0  0  0  0  0  0  0  0
  -22.2760   -0.0720  -35.8890 C   0  0  0  0  0  0  0  0  0  0  0  0
  -22.6890    0.6920  -36.8020 O   0  0  0  0  0  0  0  0  0  0  0  0
  -21.2810    0.3930  -35.0870 N   0  0  0  0  0  0  0  0  0  0  0  0
  -20.7820   -0.3530  -34.0900 C   0  0  0  0  0  0  0  0  0  0  0  0
  -19.8680    0.0300  -33.3260 O   0  0  0  0  0  0  0  0  0  0  0  0
  -23.8590   -1.7760  -36.5830 C   0  0  0  0  0  0  0  0  0  0  0  0
  -19.9740   -2.4580  -31.9340 C   0  0  0  0  0  0  0  0  0  0  0  0
  -20.5300   -2.8470  -30.5710 C   0  0  0  0  0  0  0  0  0  0  0  0
  -19.4720   -2.7410  -29.5050 C   0  0  0  0  0  0  0  0  0  0  0  0
  -19.9880   -2.4010  -28.1380 C   0  0  0  0  0  0  0  0  0  0  0  0
  -19.4150   -1.1800  -27.6780 N   0  0  0  0  0  0  0  0  0  0  0  0
  -18.8290   -0.8740  -26.5220 C   0  0  0  0  0  0  0  0  0  0  0  0
  -18.3980    0.4460  -26.5750 C   0  0  0  0  0  0  0  0  0  0  0  0
  -18.7480    0.8920  -27.7770 N   0  0  0  0  0  0  0  0  0  0  0  0
  -19.3650   -0.0730  -28.4610 C   0  0  0  0  0  0  0  0  0  0  0  0
  -20.0370    0.1310  -30.2330 B   0  0  0  0  0  0  0  0  0  0  0  0
  -17.7770    1.0060  -25.5320 N   0  0  0  0  0  0  0  0  0  0  0  0
  -17.5530    0.3070  -24.4020 C   0  0  0  0  0  0  0  0  0  0  0  0
  -16.9690    0.8400  -23.4270 O   0  0  0  0  0  0  0  0  0  0  0  0
  -17.9640   -0.9640  -24.3380 N   0  0  0  0  0  0  0  0  0  0  0  0
  -18.5900   -1.5630  -25.3620 C   0  0  0  0  0  0  0  0  0  0  0  0
  -18.9680   -2.7490  -25.2820 O   0  0  0  0  0  0  0  0  0  0  0  0
  -17.3140    2.3890  -25.5600 C   0  0  0  0  0  0  0  0  0  0  0  0
  -20.9000    1.3540  -35.2530 H   0  0  0  0  0  0  0  0  0  0  0  0
  -23.9290   -2.8830  -36.5750 H   0  0  0  0  0  0  0  0  0  0  0  0
  -24.8540   -1.4090  -36.1990 H   0  0  0  0  0  0  0  0  0  0  0  0
  -23.7100   -1.4820  -37.6420 H   0  0  0  0  0  0  0  0  0  0  0  0
  -19.5010   -1.4790  -31.9230 H   0  0  0  0  0  0  0  0  0  0  0  0
  -19.1950   -3.2260  -32.1710 H   0  0  0  0  0  0  0  0  0  0  0  0
  -21.3260   -2.1050  -30.2640 H   0  0  0  0  0  0  0  0  0  0  0  0
  -20.9860   -3.8440  -30.5750 H   0  0  0  0  0  0  0  0  0  0  0  0
  -18.8500   -3.6630  -29.5080 H   0  0  0  0  0  0  0  0  0  0  0  0
  -18.7310   -1.9240  -29.7520 H   0  0  0  0  0  0  0  0  0  0  0  0
  -21.1020   -2.3320  -28.2290 H   0  0  0  0  0  0  0  0  0  0  0  0
  -19.8040   -3.2640  -27.4710 H   0  0  0  0  0  0  0  0  0  0  0  0
  -17.8080   -1.5490  -23.4680 H   0  0  0  0  0  0  0  0  0  0  0  0
  -17.4210    2.7540  -26.6060 H   0  0  0  0  0  0  0  0  0  0  0  0
  -16.2360    2.3560  -25.2850 H   0  0  0  0  0  0  0  0  0  0  0  0
  -17.8770    3.0230  -24.8550 H   0  0  0  0  0  0  0  0  0  0  0  0
  2  3  1  0  0  0  0
  2  1  1  0  0  0  0
  3 14  1  0  0  0  0
  4  3  1  0  0  0  0
  5  6  1  0  0  0  0
  5  4  2  0  0  0  0
  6  2  2  0  0  0  0
  7  5  1  0  0  0  0
  8  7  1  0  0  0  0
  8 10  1  0  0  0  0
  9  8  2  0  0  0  0
 10 11  1  0  0  0  0
 11  4  1  0  0  0  0
 11 12  2  0  0  0  0
 13 32  1  0  0  0  0
 13 33  1  0  0  0  0
 13  7  1  0  0  0  0
 14 35  1  0  0  0  0
 14 15  1  0  0  0  0
 15 37  1  0  0  0  0
 15 16  1  0  0  0  0
 16 17  1  0  0  0  0
 17 18  1  0  0  0  0
 17 42  1  0  0  0  0
 18 19  1  0  0  0  0
 19 28  1  0  0  0  0
 20 19  2  0  0  0  0
 20 24  1  0  0  0  0
 21 20  1  0  0  0  0
 22 21  2  0  0  0  0
 22 18  1  0  0  0  0
 23 22  1  0  0  0  0
 24 25  1  0  0  0  0
 25 27  1  0  0  0  0
 25 26  2  0  0  0  0
 27 43  1  0  0  0  0
 28 29  2  0  0  0  0
 28 27  1  0  0  0  0
 30 24  1  0  0  0  0
 30 45  1  0  0  0  0
 30 46  1  0  0  0  0
 31 10  1  0  0  0  0
 34 13  1  0  0  0  0
 36 14  1  0  0  0  0
 38 15  1  0  0  0  0
 39 16  1  0  0  0  0
 40 16  1  0  0  0  0
 41 17  1  0  0  0  0
 44 30  1  0  0  0  0
M  END
>  <Pose>
1

>  <Score>
-8.56

$$$$
