
 OpenBabel03222201593D

 41 44  0  0  0  0  0  0  0  0999 V2000
  -21.3350    2.6580  -39.4890 B   0  0  0  0  0  0  0  0  0  0  0  0
  -22.9130    1.8040  -38.8340 C   0  0  0  0  0  0  0  0  0  0  0  0
  -24.1380    2.3300  -39.1810 C   0  0  0  0  0  0  0  0  0  0  0  0
  -25.2750    1.7480  -38.7320 N   0  0  0  0  0  0  0  0  0  0  0  0
  -25.1730    0.6570  -37.9500 C   0  0  0  0  0  0  0  0  0  0  0  0
  -23.9920    0.0870  -37.5700 C   0  0  0  0  0  0  0  0  0  0  0  0
  -22.8270    0.6730  -38.0220 C   0  0  0  0  0  0  0  0  0  0  0  0
  -23.9970   -1.0950  -36.7200 C   0  0  0  0  0  0  0  0  0  0  0  0
  -23.9920   -2.2350  -37.2920 O   0  0  0  0  0  0  0  0  0  0  0  0
  -24.0070   -1.0190  -35.3020 N   0  0  0  0  0  0  0  0  0  0  0  0
  -23.1150   -0.0650  -34.6610 C   0  0  0  0  0  0  0  0  0  0  0  0
  -21.7460   -0.0990  -35.3010 C   0  0  0  0  0  0  0  0  0  0  0  0
  -20.8640   -0.7680  -34.3390 N   0  0  0  0  0  0  0  0  0  0  0  0
  -19.6110   -1.1560  -34.5090 N   0  0  0  0  0  0  0  0  0  0  0  0
  -19.1470   -1.7260  -33.4060 N   0  0  0  0  0  0  0  0  0  0  0  0
  -20.1080   -1.7250  -32.4680 C   0  0  0  0  0  0  0  0  0  0  0  0
  -21.1880   -1.1180  -33.0650 C   0  0  0  0  0  0  0  0  0  0  0  0
  -20.0290   -2.2480  -31.1160 C   0  0  0  0  0  0  0  0  0  0  0  0
  -19.4430   -1.6690  -30.0530 N   0  0  0  0  0  0  0  0  0  0  0  0
  -19.5820   -2.4640  -28.9800 C   0  0  0  0  0  0  0  0  0  0  0  0
  -20.2640   -3.5380  -29.4100 N   0  0  0  0  0  0  0  0  0  0  0  0
  -20.5130   -3.3790  -30.6740 O   0  0  0  0  0  0  0  0  0  0  0  0
  -19.0870   -2.2110  -27.6100 C   0  0  0  0  0  0  0  0  0  0  0  0
  -19.3010   -3.1450  -26.6220 C   0  0  0  0  0  0  0  0  0  0  0  0
  -18.8530   -2.9250  -25.3710 N   0  0  0  0  0  0  0  0  0  0  0  0
  -18.1860   -1.8090  -25.0150 C   0  0  0  0  0  0  0  0  0  0  0  0
  -17.9750   -0.8780  -26.0140 C   0  0  0  0  0  0  0  0  0  0  0  0
  -18.4130   -1.0620  -27.3000 C   0  0  0  0  0  0  0  0  0  0  0  0
  -24.2290    3.2210  -39.8190 H   0  0  0  0  0  0  0  0  0  0  0  0
  -26.1220    0.2260  -37.6160 H   0  0  0  0  0  0  0  0  0  0  0  0
  -21.8600    0.2710  -37.7580 H   0  0  0  0  0  0  0  0  0  0  0  0
  -24.6360   -1.6310  -34.7450 H   0  0  0  0  0  0  0  0  0  0  0  0
  -23.5350    0.9560  -34.8630 H   0  0  0  0  0  0  0  0  0  0  0  0
  -23.0820   -0.2540  -33.5720 H   0  0  0  0  0  0  0  0  0  0  0  0
  -21.8210   -0.6820  -36.2340 H   0  0  0  0  0  0  0  0  0  0  0  0
  -21.3280    0.9060  -35.4630 H   0  0  0  0  0  0  0  0  0  0  0  0
  -22.1450   -0.9400  -32.6100 H   0  0  0  0  0  0  0  0  0  0  0  0
  -19.8420   -4.0680  -26.8800 H   0  0  0  0  0  0  0  0  0  0  0  0
  -17.8310   -1.6490  -23.9970 H   0  0  0  0  0  0  0  0  0  0  0  0
  -17.4400    0.0340  -25.7610 H   0  0  0  0  0  0  0  0  0  0  0  0
  -18.2500   -0.3300  -28.0910 H   0  0  0  0  0  0  0  0  0  0  0  0
  1  2  1  0  0  0  0
  2  7  1  0  0  0  0
  3  2  2  0  0  0  0
  3  4  1  0  0  0  0
  4  5  2  0  0  0  0
  5 30  1  0  0  0  0
  5  6  1  0  0  0  0
  6  8  1  0  0  0  0
  7 31  1  0  0  0  0
  7  6  2  0  0  0  0
  8 10  1  0  0  0  0
  9  8  2  0  0  0  0
 10 32  1  0  0  0  0
 10 11  1  0  0  0  0
 11 34  1  0  0  0  0
 12 11  1  0  0  0  0
 12 13  1  0  0  0  0
 13 17  1  0  0  0  0
 14 13  1  0  0  0  0
 14 15  2  0  0  0  0
 15 16  1  0  0  0  0
 16 18  1  0  0  0  0
 17 37  1  0  0  0  0
 17 16  2  0  0  0  0
 18 22  1  0  0  0  0
 18 19  2  0  0  0  0
 19 20  1  0  0  0  0
 20 23  1  0  0  0  0
 21 20  2  0  0  0  0
 22 21  1  0  0  0  0
 23 28  2  0  0  0  0
 23 24  1  0  0  0  0
 24 25  2  0  0  0  0
 25 26  1  0  0  0  0
 26 39  1  0  0  0  0
 27 40  1  0  0  0  0
 27 26  2  0  0  0  0
 28 27  1  0  0  0  0
 29  3  1  0  0  0  0
 33 11  1  0  0  0  0
 35 12  1  0  0  0  0
 36 12  1  0  0  0  0
 38 24  1  0  0  0  0
 41 28  1  0  0  0  0
M  END
>  <Pose>
1

>  <Score>
-7.42

$$$$
