
 OpenBabel03222201593D

 48 51  0  0  1  0  0  0  0  0999 V2000
  -19.0420   -0.9720  -30.8720 Cl  0  0  0  0  0  0  0  0  0  0  0  0
  -19.2200   -0.0690  -32.3690 C   0  0  0  0  0  0  0  0  0  0  0  0
  -19.3830   -0.7330  -33.5820 C   0  0  0  0  0  0  0  0  0  0  0  0
  -19.5000   -0.0680  -34.7770 C   0  0  0  0  0  0  0  0  0  0  0  0
  -19.4490    1.3290  -34.7100 C   0  0  0  0  0  0  0  0  0  0  0  0
  -19.2860    2.0120  -33.5090 C   0  0  0  0  0  0  0  0  0  0  0  0
  -19.1700    1.3100  -32.3390 C   0  0  0  0  0  0  0  0  0  0  0  0
  -19.7780   -0.7300  -36.0030 N   0  0  0  0  0  4  0  0  0  0  0  0
  -19.5010    0.0310  -37.1950 C   0  0  0  0  0  0  0  0  0  0  0  0
  -20.6440    0.0210  -38.1210 C   0  0  2  0  0  0  0  0  0  0  0  0
  -21.6060   -0.8110  -37.4560 N   0  0  0  0  0  0  0  0  0  0  0  0
  -22.7340   -1.5720  -37.9400 C   0  0  0  0  0  0  0  0  0  0  0  0
  -24.0570   -1.1760  -37.3690 C   0  0  0  0  0  0  0  0  0  0  0  0
  -23.9960   -0.2310  -36.2200 C   0  0  0  0  0  0  0  0  0  0  0  0
  -23.5380   -1.0240  -34.9750 C   0  0  0  0  0  0  0  0  0  0  0  0
  -22.0240   -0.9150  -35.0090 C   0  0  0  0  0  0  0  0  0  0  0  0
  -21.2300   -0.8320  -36.0520 C   0  0  0  0  0  0  0  0  0  0  0  0
  -20.2800   -0.6630  -39.3140 O   0  0  0  0  0  0  0  0  0  0  0  0
  -21.1560    1.2970  -38.5580 C   0  0  0  0  0  0  0  0  0  0  0  0
  -22.5020    1.5250  -38.8470 C   0  0  0  0  0  0  0  0  0  0  0  0
  -22.9940    2.7610  -39.2440 C   0  0  0  0  0  0  0  0  0  0  0  0
  -22.1020    3.8280  -39.3590 C   0  0  0  0  0  0  0  0  0  0  0  0
  -20.7770    3.6470  -39.0870 C   0  0  0  0  0  0  0  0  0  0  0  0
  -20.3180    2.3810  -38.6880 C   0  0  0  0  0  0  0  0  0  0  0  0
  -24.3700    2.9200  -39.5210 N   0  0  0  0  0  0  0  0  0  0  0  0
  -25.2080    2.0990  -39.0320 O   0  0  0  0  0  0  0  0  0  0  0  0
  -24.8640    3.9060  -40.2910 O   0  0  0  0  0  0  0  0  0  0  0  0
  -19.3720   -1.8330  -33.5050 H   0  0  0  0  0  0  0  0  0  0  0  0
  -19.5440    1.8840  -35.6270 H   0  0  0  0  0  0  0  0  0  0  0  0
  -19.2460    3.1160  -33.4800 H   0  0  0  0  0  0  0  0  0  0  0  0
  -19.0400    1.8150  -31.4040 H   0  0  0  0  0  0  0  0  0  0  0  0
  -19.4260   -1.6800  -35.9590 H   0  0  0  0  0  0  0  0  0  0  0  0
  -18.9830    0.9300  -36.9290 H   0  0  0  0  0  0  0  0  0  0  0  0
  -18.6830   -0.6010  -37.7050 H   0  0  0  0  0  0  0  0  0  0  0  0
  -22.8110   -1.6390  -39.0400 H   0  0  0  0  0  0  0  0  0  0  0  0
  -22.6450   -2.6800  -37.6390 H   0  0  0  0  0  0  0  0  0  0  0  0
  -24.6780   -2.0580  -37.0900 H   0  0  0  0  0  0  0  0  0  0  0  0
  -24.6880   -0.6460  -38.1630 H   0  0  0  0  0  0  0  0  0  0  0  0
  -23.3350    0.6500  -36.3500 H   0  0  0  0  0  0  0  0  0  0  0  0
  -25.0110    0.1600  -35.9260 H   0  0  0  0  0  0  0  0  0  0  0  0
  -23.8640   -2.0540  -35.0590 H   0  0  0  0  0  0  0  0  0  0  0  0
  -23.8740   -0.5020  -34.0550 H   0  0  0  0  0  0  0  0  0  0  0  0
  -21.5910   -0.9030  -34.0240 H   0  0  0  0  0  0  0  0  0  0  0  0
  -19.8010   -1.5010  -39.0050 H   0  0  0  0  0  0  0  0  0  0  0  0
  -23.1600    0.7090  -38.7520 H   0  0  0  0  0  0  0  0  0  0  0  0
  -22.5310    4.7750  -39.6690 H   0  0  0  0  0  0  0  0  0  0  0  0
  -20.0770    4.4990  -39.1810 H   0  0  0  0  0  0  0  0  0  0  0  0
  -19.2490    2.3600  -38.4990 H   0  0  0  0  0  0  0  0  0  0  0  0
  2  7  1  0  0  0  0
  2  1  1  0  0  0  0
  3 28  1  0  0  0  0
  3  2  2  0  0  0  0
  4  5  2  0  0  0  0
  4  3  1  0  0  0  0
  5  6  1  0  0  0  0
  6 30  1  0  0  0  0
  6  7  2  0  0  0  0
  7 31  1  0  0  0  0
  8 32  1  0  0  0  0
  8  4  1  0  0  0  0
  9 33  1  0  0  0  0
  9  8  1  0  0  0  0
 10 18  1  6  0  0  0
 10 11  1  0  0  0  0
 10  9  1  0  0  0  0
 11 17  1  0  0  0  0
 12 36  1  0  0  0  0
 12 11  1  0  0  0  0
 12 13  1  0  0  0  0
 13 37  1  0  0  0  0
 13 14  1  0  0  0  0
 14 40  1  0  0  0  0
 14 15  1  0  0  0  0
 15 42  1  0  0  0  0
 16 15  1  0  0  0  0
 16 43  1  0  0  0  0
 17  8  1  0  0  0  0
 17 16  2  0  0  0  0
 18 44  1  0  0  0  0
 19 10  1  0  0  0  0
 20 45  1  0  0  0  0
 20 19  2  0  0  0  0
 21 20  1  0  0  0  0
 22 21  2  0  0  0  0
 22 23  1  0  0  0  0
 23 24  2  0  0  0  0
 24 19  1  0  0  0  0
 24 48  1  0  0  0  0
 25 21  1  0  0  0  0
 25 26  2  0  0  0  0
 27 25  2  0  0  0  0
 29  5  1  0  0  0  0
 34  9  1  0  0  0  0
 35 12  1  0  0  0  0
 38 13  1  0  0  0  0
 39 14  1  0  0  0  0
 41 15  1  0  0  0  0
 46 22  1  0  0  0  0
 47 23  1  0  0  0  0
M  END
>  <Pose>
1

>  <Score>
-6.02

$$$$
