
 OpenBabel03222201593D

 54 58  0  0  0  0  0  0  0  0999 V2000
  -18.9710   -0.5520  -36.5420 F   0  0  0  0  0  0  0  0  0  0  0  0
  -18.7310    0.6170  -35.9200 C   0  0  0  0  0  0  0  0  0  0  0  0
  -18.6720    1.7140  -36.7750 C   0  0  0  0  0  0  0  0  0  0  0  0
  -18.4410    2.9770  -36.2770 C   0  0  0  0  0  0  0  0  0  0  0  0
  -18.2750    3.1150  -34.9190 C   0  0  0  0  0  0  0  0  0  0  0  0
  -18.3390    2.0070  -34.0810 C   0  0  0  0  0  0  0  0  0  0  0  0
  -18.5660    0.7460  -34.5650 C   0  0  0  0  0  0  0  0  0  0  0  0
  -18.6140   -0.3420  -33.6930 N   0  0  0  0  0  4  0  0  0  0  0  0
  -19.8970   -0.9850  -33.5680 C   0  0  0  0  0  0  0  0  0  0  0  0
  -19.7640   -2.2540  -32.6930 C   0  0  0  0  0  0  0  0  0  0  0  0
  -19.3760   -1.7940  -31.4180 N   0  0  0  0  0  0  0  0  0  0  0  0
  -17.9650   -1.2470  -31.4690 C   0  0  0  0  0  0  0  0  0  0  0  0
  -18.1000   -0.0740  -32.3910 C   0  0  0  0  0  0  0  0  0  0  0  0
  -20.0120   -1.7050  -30.2270 C   0  0  0  0  0  0  0  0  0  0  0  0
  -20.9560   -0.7970  -30.1610 O   0  0  0  0  0  0  0  0  0  0  0  0
  -19.8380   -2.4340  -29.0010 C   0  0  0  0  0  0  0  0  0  0  0  0
  -19.3130   -1.9090  -27.8650 C   0  0  0  0  0  0  0  0  0  0  0  0
  -19.2150   -2.6370  -26.6860 C   0  0  0  0  0  0  0  0  0  0  0  0
  -19.6590   -3.9330  -26.6610 C   0  0  0  0  0  0  0  0  0  0  0  0
  -20.1950   -4.5110  -27.7770 C   0  0  0  0  0  0  0  0  0  0  0  0
  -20.2790   -3.7720  -28.9180 C   0  0  0  0  0  0  0  0  0  0  0  0
  -18.5260   -1.9100  -25.2320 Cl  0  0  0  0  0  0  0  0  0  0  0  0
  -18.0510    4.3610  -34.4540 N   0  0  0  0  0  0  0  0  0  0  0  0
  -17.9890    5.4360  -35.2590 C   0  0  0  0  0  0  0  0  0  0  0  0
  -18.1510    5.3310  -36.6230 C   0  0  0  0  0  0  0  0  0  0  0  0
  -18.3810    4.0780  -37.1410 C   0  0  0  0  0  0  0  0  0  0  0  0
  -18.5380    3.9120  -38.3740 O   0  0  0  0  0  0  0  0  0  0  0  0
  -18.0790    6.5200  -37.4930 C   0  0  0  0  0  0  0  0  0  0  0  0
  -18.0510    6.4400  -38.7310 O   0  0  0  0  0  0  0  0  0  0  0  0
  -18.0440    7.7580  -36.8930 O   0  0  0  0  0  0  0  0  0  0  0  0
  -17.8760    4.4900  -33.0020 C   0  0  0  0  0  0  0  0  0  0  0  0
  -18.3530    5.6760  -32.2850 C   0  0  0  0  0  0  0  0  0  0  0  0
  -16.9220    5.6600  -32.5910 C   0  0  0  0  0  0  0  0  0  0  0  0
  -18.7990    1.6320  -37.8450 H   0  0  0  0  0  0  0  0  0  0  0  0
  -18.1930    2.2250  -33.0230 H   0  0  0  0  0  0  0  0  0  0  0  0
  -17.9720   -1.0840  -34.1110 H   0  0  0  0  0  0  0  0  0  0  0  0
  -20.5690   -0.3270  -32.9970 H   0  0  0  0  0  0  0  0  0  0  0  0
  -20.3030   -1.3900  -34.5100 H   0  0  0  0  0  0  0  0  0  0  0  0
  -20.6420   -2.8530  -32.8260 H   0  0  0  0  0  0  0  0  0  0  0  0
  -18.9280   -2.8870  -33.1680 H   0  0  0  0  0  0  0  0  0  0  0  0
  -17.3900   -2.0360  -31.9780 H   0  0  0  0  0  0  0  0  0  0  0  0
  -17.6110   -1.0010  -30.4750 H   0  0  0  0  0  0  0  0  0  0  0  0
  -17.0530    0.3310  -32.5300 H   0  0  0  0  0  0  0  0  0  0  0  0
  -18.6310    0.7210  -31.8390 H   0  0  0  0  0  0  0  0  0  0  0  0
  -18.9050   -0.9140  -27.8090 H   0  0  0  0  0  0  0  0  0  0  0  0
  -19.5740   -4.4840  -25.7330 H   0  0  0  0  0  0  0  0  0  0  0  0
  -20.5260   -5.5380  -27.6900 H   0  0  0  0  0  0  0  0  0  0  0  0
  -20.7100   -4.2360  -29.8110 H   0  0  0  0  0  0  0  0  0  0  0  0
  -17.8070    6.4130  -34.8380 H   0  0  0  0  0  0  0  0  0  0  0  0
  -17.6870    3.5530  -32.4480 H   0  0  0  0  0  0  0  0  0  0  0  0
  -19.0040    6.4400  -32.7600 H   0  0  0  0  0  0  0  0  0  0  0  0
  -18.6550    5.5070  -31.2100 H   0  0  0  0  0  0  0  0  0  0  0  0
  -16.5360    6.2810  -33.4240 H   0  0  0  0  0  0  0  0  0  0  0  0
  -16.1410    5.4060  -31.8490 H   0  0  0  0  0  0  0  0  0  0  0  0
  1  2  1  0  0  0  0
  2  7  1  0  0  0  0
  3  4  1  0  0  0  0
  3  2  2  0  0  0  0
  4  5  2  0  0  0  0
  5 23  1  0  0  0  0
  5  6  1  0  0  0  0
  6 35  1  0  0  0  0
  7  6  2  0  0  0  0
  7  8  1  0  0  0  0
  8  9  1  0  0  0  0
  8 13  1  0  0  0  0
  9 37  1  0  0  0  0
  9 10  1  0  0  0  0
 10 11  1  0  0  0  0
 11 14  1  0  0  0  0
 12 11  1  0  0  0  0
 12 42  1  0  0  0  0
 13 44  1  0  0  0  0
 13 12  1  0  0  0  0
 14 15  2  0  0  0  0
 14 16  1  0  0  0  0
 16 21  2  0  0  0  0
 16 17  1  0  0  0  0
 17 45  1  0  0  0  0
 17 18  2  0  0  0  0
 18 19  1  0  0  0  0
 18 22  1  0  0  0  0
 19 46  1  0  0  0  0
 20 47  1  0  0  0  0
 20 19  2  0  0  0  0
 21 20  1  0  0  0  0
 23 31  1  0  0  0  0
 24 49  1  0  0  0  0
 24 23  1  0  0  0  0
 25 24  2  0  0  0  0
 26 25  1  0  0  0  0
 26  4  1  0  0  0  0
 27 26  2  0  0  0  0
 28 30  1  0  0  0  0
 28 25  1  0  0  0  0
 29 28  2  0  0  0  0
 31 33  1  0  0  0  0
 31 50  1  0  0  0  0
 31 32  1  0  0  0  0
 32 52  1  0  0  0  0
 33 32  1  0  0  0  0
 33 54  1  0  0  0  0
 34  3  1  0  0  0  0
 36  8  1  0  0  0  0
 38  9  1  0  0  0  0
 39 10  1  0  0  0  0
 40 10  1  0  0  0  0
 41 12  1  0  0  0  0
 43 13  1  0  0  0  0
 48 21  1  0  0  0  0
 51 32  1  0  0  0  0
 53 33  1  0  0  0  0
M  END
>  <Pose>
1

>  <Score>
-7.00

$$$$
