
 OpenBabel03222201593D

 51 54  0  0  0  0  0  0  0  0999 V2000
  -19.4710    1.4620  -41.4300 Cl  0  0  0  0  0  0  0  0  0  0  0  0
  -20.4820    0.3410  -40.5320 C   0  0  0  0  0  0  0  0  0  0  0  0
  -21.1040   -0.7040  -41.1940 C   0  0  0  0  0  0  0  0  0  0  0  0
  -21.8930   -1.5770  -40.4820 C   0  0  0  0  0  0  0  0  0  0  0  0
  -22.0830   -1.4420  -39.1240 C   0  0  0  0  0  0  0  0  0  0  0  0
  -21.4580   -0.4000  -38.4910 C   0  0  0  0  0  0  0  0  0  0  0  0
  -20.6500    0.5060  -39.1820 C   0  0  0  0  0  0  0  0  0  0  0  0
  -22.9500   -2.4040  -38.4040 C   0  0  0  0  0  0  0  0  0  0  0  0
  -23.5650   -3.2190  -39.1250 O   0  0  0  0  0  0  0  0  0  0  0  0
  -23.0760   -2.4050  -37.0230 N   0  0  0  0  0  0  0  0  0  0  0  0
  -23.8360   -1.5930  -36.1520 C   0  0  0  0  0  0  0  0  0  0  0  0
  -23.2640   -1.2300  -34.8450 C   0  0  0  0  0  0  0  0  0  0  0  0
  -22.2250   -1.9740  -34.2500 N   0  0  0  0  0  0  0  0  0  0  0  0
  -21.2370   -1.2410  -33.4980 C   0  0  0  0  0  0  0  0  0  0  0  0
  -21.4990   -0.0880  -33.1190 O   0  0  0  0  0  0  0  0  0  0  0  0
  -19.9190   -1.8310  -33.1670 C   0  0  0  0  0  0  0  0  0  0  0  0
  -20.1090   -2.7770  -32.0020 C   0  0  0  0  0  0  0  0  0  0  0  0
  -20.3730   -1.9300  -30.7780 C   0  0  0  0  0  0  0  0  0  0  0  0
  -19.1060   -1.2710  -30.4750 N   0  0  0  0  0  0  0  0  0  0  0  0
  -18.2470   -0.8600  -31.5330 C   0  0  0  0  0  0  0  0  0  0  0  0
  -18.8670   -0.8240  -32.8820 C   0  0  0  0  0  0  0  0  0  0  0  0
  -18.7870   -1.0660  -29.1130 C   0  0  0  0  0  0  0  0  0  0  0  0
  -18.7730   -2.0620  -28.2060 N   0  0  0  0  0  0  0  0  0  0  0  0
  -18.4780   -1.8880  -26.9320 N   0  0  0  0  0  0  0  0  0  0  0  0
  -18.4150   -2.7360  -25.9110 N   0  0  0  0  0  0  0  0  0  0  0  0
  -18.0790   -2.1110  -24.8140 N   0  0  0  0  0  0  0  0  0  0  0  0
  -17.9170   -0.8380  -25.1080 N   0  0  0  0  0  0  0  0  0  0  0  0
  -18.1650   -0.6890  -26.4270 C   0  0  0  0  0  0  0  0  0  0  0  0
  -18.1620    0.3770  -27.3080 C   0  0  0  0  0  0  0  0  0  0  0  0
  -18.4690    0.1960  -28.6420 C   0  0  0  0  0  0  0  0  0  0  0  0
  -20.9560   -0.8140  -42.2690 H   0  0  0  0  0  0  0  0  0  0  0  0
  -22.3920   -2.4070  -40.9820 H   0  0  0  0  0  0  0  0  0  0  0  0
  -21.5560   -0.2230  -37.4450 H   0  0  0  0  0  0  0  0  0  0  0  0
  -20.1570    1.3270  -38.6870 H   0  0  0  0  0  0  0  0  0  0  0  0
  -22.4610   -3.2040  -36.5540 H   0  0  0  0  0  0  0  0  0  0  0  0
  -24.1420   -0.6470  -36.7010 H   0  0  0  0  0  0  0  0  0  0  0  0
  -24.8110   -2.1530  -35.9690 H   0  0  0  0  0  0  0  0  0  0  0  0
  -24.1160   -1.0420  -34.0980 H   0  0  0  0  0  0  0  0  0  0  0  0
  -22.8560   -0.1600  -34.9390 H   0  0  0  0  0  0  0  0  0  0  0  0
  -22.0950   -2.9820  -34.2560 H   0  0  0  0  0  0  0  0  0  0  0  0
  -19.5790   -2.4850  -34.0130 H   0  0  0  0  0  0  0  0  0  0  0  0
  -19.1360   -3.2960  -31.8470 H   0  0  0  0  0  0  0  0  0  0  0  0
  -20.9120   -3.5120  -32.1890 H   0  0  0  0  0  0  0  0  0  0  0  0
  -20.6770   -2.5590  -29.9080 H   0  0  0  0  0  0  0  0  0  0  0  0
  -21.1020   -1.1220  -30.9370 H   0  0  0  0  0  0  0  0  0  0  0  0
  -17.3760   -1.5740  -31.5780 H   0  0  0  0  0  0  0  0  0  0  0  0
  -17.8020    0.1490  -31.3360 H   0  0  0  0  0  0  0  0  0  0  0  0
  -18.0930   -0.8720  -33.7040 H   0  0  0  0  0  0  0  0  0  0  0  0
  -19.3390    0.1910  -33.0440 H   0  0  0  0  0  0  0  0  0  0  0  0
  -17.9090    1.3570  -26.9070 H   0  0  0  0  0  0  0  0  0  0  0  0
  -18.4610    1.0450  -29.3250 H   0  0  0  0  0  0  0  0  0  0  0  0
  1  2  1  0  0  0  0
  2  7  1  0  0  0  0
  3  2  2  0  0  0  0
  3  4  1  0  0  0  0
  4  5  2  0  0  0  0
  5  6  1  0  0  0  0
  5  8  1  0  0  0  0
  6 33  1  0  0  0  0
  7 34  1  0  0  0  0
  7  6  2  0  0  0  0
  8 10  1  0  0  0  0
  9  8  2  0  0  0  0
 10 35  1  0  0  0  0
 10 11  1  0  0  0  0
 11 37  1  0  0  0  0
 11 12  1  0  0  0  0
 12 13  1  0  0  0  0
 12 38  1  0  0  0  0
 13 14  1  0  0  0  0
 14 16  1  0  0  0  0
 14 15  2  0  0  0  0
 16 21  1  0  0  0  0
 16 17  1  0  0  0  0
 17 42  1  0  0  0  0
 17 18  1  0  0  0  0
 18 19  1  0  0  0  0
 18 44  1  0  0  0  0
 19 22  1  0  0  0  0
 20 47  1  0  0  0  0
 20 19  1  0  0  0  0
 21 20  1  0  0  0  0
 22 30  1  0  0  0  0
 22 23  2  0  0  0  0
 23 24  1  0  0  0  0
 24 28  1  0  0  0  0
 24 25  1  0  0  0  0
 25 26  2  0  0  0  0
 27 26  1  0  0  0  0
 28 27  2  0  0  0  0
 29 50  1  0  0  0  0
 29 28  1  0  0  0  0
 30 29  2  0  0  0  0
 31  3  1  0  0  0  0
 32  4  1  0  0  0  0
 36 11  1  0  0  0  0
 39 12  1  0  0  0  0
 40 13  1  0  0  0  0
 41 16  1  0  0  0  0
 43 17  1  0  0  0  0
 45 18  1  0  0  0  0
 46 20  1  0  0  0  0
 48 21  1  0  0  0  0
 49 21  1  0  0  0  0
 51 30  1  0  0  0  0
M  END
>  <Pose>
1

>  <Score>
-7.92

$$$$
