
 OpenBabel03222201593D

 53 56  0  0  1  0  0  0  0  0999 V2000
  -17.8910    1.5060  -26.2430 B   0  0  0  0  0  0  0  0  0  0  0  0
  -18.5780    0.4690  -27.7090 C   0  0  0  0  0  0  0  0  0  0  0  0
  -18.2230   -0.8480  -27.8880 C   0  0  0  0  0  0  0  0  0  0  0  0
  -18.6790   -1.6310  -28.9110 C   0  0  0  0  0  0  0  0  0  0  0  0
  -19.5530   -1.0720  -29.8260 C   0  0  0  0  0  0  0  0  0  0  0  0
  -19.9250    0.2430  -29.6690 C   0  0  0  0  0  0  0  0  0  0  0  0
  -19.4500    1.0320  -28.6180 C   0  0  0  0  0  0  0  0  0  0  0  0
  -20.1090   -1.8470  -30.9290 C   0  0  0  0  0  0  0  0  0  0  0  0
  -20.1330   -1.3670  -32.1560 C   0  0  0  0  0  0  0  0  0  0  0  0
  -20.6560   -1.9890  -33.4150 C   0  0  2  0  0  0  0  0  0  0  0  0
  -21.3030   -0.8920  -34.0390 N   0  0  0  0  0  0  0  0  0  0  0  0
  -20.3590    0.2080  -33.8640 C   0  0  0  0  0  0  0  0  0  0  0  0
  -20.2120    1.2180  -34.5990 O   0  0  0  0  0  0  0  0  0  0  0  0
  -19.6060   -0.0960  -32.6520 C   0  0  0  0  0  0  0  0  0  0  0  0
  -18.6720    0.5570  -32.0800 O   0  0  0  0  0  0  0  0  0  0  0  0
  -22.5440   -0.7260  -34.7710 C   0  0  0  0  0  0  0  0  0  0  0  0
  -22.9370   -1.8050  -35.7030 C   0  0  0  0  0  0  0  0  0  0  0  0
  -22.5630   -1.5580  -37.0990 N   0  0  0  0  0  4  0  0  0  0  0  0
  -21.9680   -0.2720  -37.2310 C   0  0  0  0  0  0  0  0  0  0  0  0
  -22.7070    0.7250  -38.0530 C   0  0  0  0  0  0  0  0  0  0  0  0
  -23.5140    0.2030  -39.0440 O   0  0  0  0  0  0  0  0  0  0  0  0
  -24.4630   -0.5910  -38.3610 C   0  0  0  0  0  0  0  0  0  0  0  0
  -23.7280   -1.8000  -37.8990 C   0  0  0  0  0  0  0  0  0  0  0  0
  -21.2760   -3.2590  -33.2350 C   0  0  0  0  0  0  0  0  0  0  0  0
  -20.6860   -4.3760  -33.7770 C   0  0  0  0  0  0  0  0  0  0  0  0
  -21.2130   -5.6360  -33.6320 C   0  0  0  0  0  0  0  0  0  0  0  0
  -22.3860   -5.8300  -32.9160 C   0  0  0  0  0  0  0  0  0  0  0  0
  -22.9630   -4.6960  -32.3790 C   0  0  0  0  0  0  0  0  0  0  0  0
  -22.4280   -3.4360  -32.5290 C   0  0  0  0  0  0  0  0  0  0  0  0
  -23.0660   -7.4260  -32.7230 Cl  0  0  0  0  0  0  0  0  0  0  0  0
  -20.6050   -3.1010  -30.6200 O   0  0  0  0  0  0  0  0  0  0  0  0
  -17.5390   -1.2680  -27.1660 H   0  0  0  0  0  0  0  0  0  0  0  0
  -18.4100   -2.6650  -29.0670 H   0  0  0  0  0  0  0  0  0  0  0  0
  -20.6260    0.7340  -30.3490 H   0  0  0  0  0  0  0  0  0  0  0  0
  -19.7700    2.0740  -28.5300 H   0  0  0  0  0  0  0  0  0  0  0  0
  -19.7030   -2.1370  -34.0250 H   0  0  0  0  0  0  0  0  0  0  0  0
  -23.4090   -0.6320  -34.0360 H   0  0  0  0  0  0  0  0  0  0  0  0
  -22.5770    0.2970  -35.2570 H   0  0  0  0  0  0  0  0  0  0  0  0
  -23.9860   -2.0930  -35.7340 H   0  0  0  0  0  0  0  0  0  0  0  0
  -22.2870   -2.6990  -35.4020 H   0  0  0  0  0  0  0  0  0  0  0  0
  -21.8510   -2.3200  -37.3200 H   0  0  0  0  0  0  0  0  0  0  0  0
  -21.7370    0.1530  -36.2100 H   0  0  0  0  0  0  0  0  0  0  0  0
  -20.9620   -0.4060  -37.7310 H   0  0  0  0  0  0  0  0  0  0  0  0
  -23.3970    1.3020  -37.3700 H   0  0  0  0  0  0  0  0  0  0  0  0
  -22.0570    1.4810  -38.5310 H   0  0  0  0  0  0  0  0  0  0  0  0
  -24.9560   -0.0370  -37.5490 H   0  0  0  0  0  0  0  0  0  0  0  0
  -25.2430   -0.8770  -39.0820 H   0  0  0  0  0  0  0  0  0  0  0  0
  -24.4580   -2.4800  -37.3890 H   0  0  0  0  0  0  0  0  0  0  0  0
  -23.4140   -2.3610  -38.8240 H   0  0  0  0  0  0  0  0  0  0  0  0
  -19.7440   -4.2940  -34.3640 H   0  0  0  0  0  0  0  0  0  0  0  0
  -20.7460   -6.5100  -34.0600 H   0  0  0  0  0  0  0  0  0  0  0  0
  -23.8850   -4.8710  -31.8200 H   0  0  0  0  0  0  0  0  0  0  0  0
  -22.9720   -2.6320  -32.0440 H   0  0  0  0  0  0  0  0  0  0  0  0
  2  1  1  0  0  0  0
  3  2  1  0  0  0  0
  3 32  1  0  0  0  0
  4  3  2  0  0  0  0
  5  6  2  0  0  0  0
  5  4  1  0  0  0  0
  6  7  1  0  0  0  0
  7 35  1  0  0  0  0
  7  2  2  0  0  0  0
  8 31  1  0  0  0  0
  8  5  1  0  0  0  0
  9  8  2  0  0  0  0
 10 36  1  6  0  0  0
 10 24  1  0  0  0  0
 10  9  1  0  0  0  0
 11 12  1  0  0  0  0
 11 10  1  0  0  0  0
 12 14  1  0  0  0  0
 13 12  2  0  0  0  0
 14  9  1  0  0  0  0
 14 15  2  0  0  0  0
 16 11  1  0  0  0  0
 16 37  1  0  0  0  0
 17 40  1  0  0  0  0
 17 16  1  0  0  0  0
 18 17  1  0  0  0  0
 19 18  1  0  0  0  0
 19 42  1  0  0  0  0
 20 44  1  0  0  0  0
 20 19  1  0  0  0  0
 21 22  1  0  0  0  0
 21 20  1  0  0  0  0
 22 23  1  0  0  0  0
 22 46  1  0  0  0  0
 23 48  1  0  0  0  0
 23 18  1  0  0  0  0
 24 29  1  0  0  0  0
 25 26  1  0  0  0  0
 25 24  2  0  0  0  0
 26 27  2  0  0  0  0
 27 30  1  0  0  0  0
 27 28  1  0  0  0  0
 28 52  1  0  0  0  0
 29 28  2  0  0  0  0
 29 53  1  0  0  0  0
 33  4  1  0  0  0  0
 34  6  1  0  0  0  0
 38 16  1  0  0  0  0
 39 17  1  0  0  0  0
 41 18  1  0  0  0  0
 43 19  1  0  0  0  0
 45 20  1  0  0  0  0
 47 22  1  0  0  0  0
 49 23  1  0  0  0  0
 50 25  1  0  0  0  0
 51 26  1  0  0  0  0
M  END
>  <Pose>
1

>  <Score>
-5.66

$$$$
