
 OpenBabel03222201593D

 49 52  0  0  0  0  0  0  0  0999 V2000
  -21.6260   -0.5380  -36.9210 B   0  0  0  0  0  0  0  0  0  0  0  0
  -21.3670   -1.3300  -35.1970 C   0  0  0  0  0  0  0  0  0  0  0  0
  -20.1510   -1.2530  -34.5470 C   0  0  0  0  0  0  0  0  0  0  0  0
  -19.9680   -1.8300  -33.2940 C   0  0  0  0  0  0  0  0  0  0  0  0
  -20.9900   -2.5010  -32.6550 C   0  0  0  0  0  0  0  0  0  0  0  0
  -22.2010   -2.5750  -33.3080 C   0  0  0  0  0  0  0  0  0  0  0  0
  -22.3850   -2.0020  -34.5500 C   0  0  0  0  0  0  0  0  0  0  0  0
  -20.8400   -3.1020  -31.3750 N   0  0  0  0  0  0  0  0  0  0  0  0
  -20.6300   -2.5380  -30.1740 C   0  0  0  0  0  0  0  0  0  0  0  0
  -20.5320   -1.2940  -30.0200 O   0  0  0  0  0  0  0  0  0  0  0  0
  -20.5440   -3.4970  -29.1790 C   0  0  0  0  0  0  0  0  0  0  0  0
  -20.7040   -4.6660  -29.7870 C   0  0  0  0  0  0  0  0  0  0  0  0
  -20.6200   -5.5950  -28.8230 N   0  0  0  0  0  0  0  0  0  0  0  0
  -20.4130   -5.0090  -27.6570 N   0  0  0  0  0  0  0  0  0  0  0  0
  -20.3640   -3.7190  -27.8540 N   0  0  0  0  0  0  0  0  0  0  0  0
  -20.1560   -2.6830  -26.8700 C   0  0  0  0  0  0  0  0  0  0  0  0
  -18.8340   -2.9180  -26.1770 C   0  0  0  0  0  0  0  0  0  0  0  0
  -18.7000   -3.9220  -25.4430 O   0  0  0  0  0  0  0  0  0  0  0  0
  -17.7740   -2.0170  -26.3580 N   0  0  0  0  0  0  0  0  0  0  0  0
  -17.8110   -0.6350  -26.0890 C   0  0  0  0  0  0  0  0  0  0  0  0
  -17.9900   -0.0580  -24.8570 C   0  0  0  0  0  0  0  0  0  0  0  0
  -18.0330    1.3070  -24.6630 C   0  0  0  0  0  0  0  0  0  0  0  0
  -17.8880    2.1240  -25.7640 C   0  0  0  0  0  0  0  0  0  0  0  0
  -17.7050    1.5810  -27.0260 C   0  0  0  0  0  0  0  0  0  0  0  0
  -17.6660    0.2240  -27.1960 C   0  0  0  0  0  0  0  0  0  0  0  0
  -17.9290    3.5040  -25.5900 O   0  0  0  0  0  0  0  0  0  0  0  0
  -18.5720    4.3040  -26.5630 C   0  0  0  0  0  0  0  0  0  0  0  0
  -18.2160    1.8640  -23.3990 O   0  0  0  0  0  0  0  0  0  0  0  0
  -19.5320    2.3230  -23.0610 C   0  0  0  0  0  0  0  0  0  0  0  0
  -20.8860   -4.4320  -31.1340 C   0  0  0  0  0  0  0  0  0  0  0  0
  -21.0710   -5.3300  -32.0210 O   0  0  0  0  0  0  0  0  0  0  0  0
  -19.3490   -0.7220  -35.0590 H   0  0  0  0  0  0  0  0  0  0  0  0
  -19.0170   -1.7650  -32.7960 H   0  0  0  0  0  0  0  0  0  0  0  0
  -23.0030   -3.1040  -32.7980 H   0  0  0  0  0  0  0  0  0  0  0  0
  -23.3570   -2.0780  -35.0440 H   0  0  0  0  0  0  0  0  0  0  0  0
  -20.6990   -6.6250  -28.9360 H   0  0  0  0  0  0  0  0  0  0  0  0
  -20.3040   -5.4800  -26.7100 H   0  0  0  0  0  0  0  0  0  0  0  0
  -20.9430   -2.6740  -26.0810 H   0  0  0  0  0  0  0  0  0  0  0  0
  -20.0830   -1.6900  -27.3400 H   0  0  0  0  0  0  0  0  0  0  0  0
  -16.8560   -2.4250  -26.7300 H   0  0  0  0  0  0  0  0  0  0  0  0
  -18.0970   -0.6760  -23.9760 H   0  0  0  0  0  0  0  0  0  0  0  0
  -17.5940    2.2570  -27.8760 H   0  0  0  0  0  0  0  0  0  0  0  0
  -17.5200   -0.1940  -28.2070 H   0  0  0  0  0  0  0  0  0  0  0  0
  -19.6000    3.8870  -26.6800 H   0  0  0  0  0  0  0  0  0  0  0  0
  -18.0410    4.2170  -27.5190 H   0  0  0  0  0  0  0  0  0  0  0  0
  -18.6300    5.3520  -26.1880 H   0  0  0  0  0  0  0  0  0  0  0  0
  -20.2410    1.4500  -23.0200 H   0  0  0  0  0  0  0  0  0  0  0  0
  -19.5250    2.8400  -22.0820 H   0  0  0  0  0  0  0  0  0  0  0  0
  -19.9040    3.0310  -23.8310 H   0  0  0  0  0  0  0  0  0  0  0  0
  1  2  1  0  0  0  0
  2  7  2  0  0  0  0
  2  3  1  0  0  0  0
  3  4  2  0  0  0  0
  4 33  1  0  0  0  0
  4  5  1  0  0  0  0
  5  8  1  0  0  0  0
  6 34  1  0  0  0  0
  6  5  2  0  0  0  0
  7  6  1  0  0  0  0
  8 30  1  0  0  0  0
  8  9  1  0  0  0  0
  9 10  2  0  0  0  0
  9 11  1  0  0  0  0
 11 15  1  0  0  0  0
 12 11  2  0  0  0  0
 12 13  1  0  0  0  0
 13 14  1  0  0  0  0
 14 37  1  0  0  0  0
 15 14  1  0  0  0  0
 15 16  1  0  0  0  0
 16 17  1  0  0  0  0
 16 38  1  0  0  0  0
 17 18  2  0  0  0  0
 19 17  1  0  0  0  0
 19 20  1  0  0  0  0
 20 21  1  0  0  0  0
 21 22  2  0  0  0  0
 21 41  1  0  0  0  0
 22 28  1  0  0  0  0
 23 26  1  0  0  0  0
 23 22  1  0  0  0  0
 24 23  2  0  0  0  0
 25 24  1  0  0  0  0
 25 20  2  0  0  0  0
 27 46  1  0  0  0  0
 27 26  1  0  0  0  0
 28 29  1  0  0  0  0
 29 47  1  0  0  0  0
 29 48  1  0  0  0  0
 30 12  1  0  0  0  0
 31 30  2  0  0  0  0
 32  3  1  0  0  0  0
 35  7  1  0  0  0  0
 36 13  1  0  0  0  0
 39 16  1  0  0  0  0
 40 19  1  0  0  0  0
 42 24  1  0  0  0  0
 43 25  1  0  0  0  0
 44 27  1  0  0  0  0
 45 27  1  0  0  0  0
 49 29  1  0  0  0  0
M  END
>  <Pose>
1

>  <Score>
-7.79

$$$$
