
 OpenBabel03222201593D

 49 52  0  0  0  0  0  0  0  0999 V2000
  -18.8750    1.5050  -28.2900 Cl  0  0  0  0  0  0  0  0  0  0  0  0
  -19.4140   -0.1320  -28.6370 C   0  0  0  0  0  0  0  0  0  0  0  0
  -19.4010   -1.0520  -27.6260 C   0  0  0  0  0  0  0  0  0  0  0  0
  -19.8340   -2.3540  -27.8980 C   0  0  0  0  0  0  0  0  0  0  0  0
  -20.2520   -2.6730  -29.1560 C   0  0  0  0  0  0  0  0  0  0  0  0
  -20.2670   -1.7650  -30.1600 C   0  0  0  0  0  0  0  0  0  0  0  0
  -19.8340   -0.4510  -29.8950 C   0  0  0  0  0  0  0  0  0  0  0  0
  -20.7130   -4.0730  -29.4310 C   0  0  0  0  0  0  0  0  0  0  0  0
  -20.9780   -4.7540  -28.4060 O   0  0  0  0  0  0  0  0  0  0  0  0
  -20.7980   -4.4670  -30.7250 N   0  0  0  0  0  0  0  0  0  0  0  0
  -20.8850   -4.8650  -32.0320 C   0  0  0  0  0  0  0  0  0  0  0  0
  -21.6080   -4.0040  -32.9660 C   0  0  0  0  0  0  0  0  0  0  0  0
  -22.6330   -4.5850  -33.5470 O   0  0  0  0  0  0  0  0  0  0  0  0
  -21.4120   -2.6850  -33.3510 N   0  0  0  0  0  0  0  0  0  0  0  0
  -20.1420   -2.0400  -33.4110 C   0  0  0  0  0  0  0  0  0  0  0  0
  -20.3860   -0.5200  -33.5520 C   0  0  0  0  0  0  0  0  0  0  0  0
  -20.9780   -0.3090  -34.9320 C   0  0  0  0  0  0  0  0  0  0  0  0
  -20.0640   -0.7520  -35.9020 N   0  0  0  0  0  0  0  0  0  0  0  0
  -19.0460    0.0890  -36.3660 C   0  0  0  0  0  0  0  0  0  0  0  0
  -19.3620    1.5290  -36.5240 C   0  0  0  0  0  0  0  0  0  0  0  0
  -20.5800    1.9540  -35.8020 C   0  0  0  0  0  0  0  0  0  0  0  0
  -21.1290    3.1830  -35.7530 N   0  0  0  0  0  0  0  0  0  0  0  0
  -22.2220    3.1190  -34.9860 C   0  0  0  0  0  0  0  0  0  0  0  0
  -22.3600    1.8450  -34.5530 N   0  0  0  0  0  0  0  0  0  0  0  0
  -21.3490    1.1090  -35.0500 C   0  0  0  0  0  0  0  0  0  0  0  0
  -22.2300   -1.1980  -35.0370 C   0  0  0  0  0  0  0  0  0  0  0  0
  -22.5680   -1.8550  -33.7290 C   0  0  0  0  0  0  0  0  0  0  0  0
  -19.0710   -0.8020  -26.6330 H   0  0  0  0  0  0  0  0  0  0  0  0
  -19.8380   -3.1120  -27.1350 H   0  0  0  0  0  0  0  0  0  0  0  0
  -20.5930   -1.9770  -31.1720 H   0  0  0  0  0  0  0  0  0  0  0  0
  -19.8380    0.2830  -30.6880 H   0  0  0  0  0  0  0  0  0  0  0  0
  -22.1720   -4.4190  -30.6730 H   0  0  0  0  0  0  0  0  0  0  0  0
  -21.3830   -5.9100  -32.0960 H   0  0  0  0  0  0  0  0  0  0  0  0
  -19.8670   -5.1260  -32.5110 H   0  0  0  0  0  0  0  0  0  0  0  0
  -19.5470   -2.3450  -34.2670 H   0  0  0  0  0  0  0  0  0  0  0  0
  -19.6250   -2.2090  -32.4230 H   0  0  0  0  0  0  0  0  0  0  0  0
  -19.4040   -0.0130  -33.4700 H   0  0  0  0  0  0  0  0  0  0  0  0
  -21.0480   -0.2200  -32.7450 H   0  0  0  0  0  0  0  0  0  0  0  0
  -20.0330   -1.7360  -36.1440 H   0  0  0  0  0  0  0  0  0  0  0  0
  -18.7400   -0.2900  -37.3900 H   0  0  0  0  0  0  0  0  0  0  0  0
  -18.1150   -0.0710  -35.7460 H   0  0  0  0  0  0  0  0  0  0  0  0
  -19.5210    1.8040  -37.6080 H   0  0  0  0  0  0  0  0  0  0  0  0
  -18.4660    2.1370  -36.2300 H   0  0  0  0  0  0  0  0  0  0  0  0
  -22.8910    3.9380  -34.7490 H   0  0  0  0  0  0  0  0  0  0  0  0
  -23.1200    1.5020  -33.9390 H   0  0  0  0  0  0  0  0  0  0  0  0
  -23.1030   -0.6130  -35.4050 H   0  0  0  0  0  0  0  0  0  0  0  0
  -22.0730   -2.0180  -35.7890 H   0  0  0  0  0  0  0  0  0  0  0  0
  -23.4590   -2.5070  -33.9320 H   0  0  0  0  0  0  0  0  0  0  0  0
  -22.8270   -1.1560  -32.9310 H   0  0  0  0  0  0  0  0  0  0  0  0
  2  1  1  0  0  0  0
  2  3  1  0  0  0  0
  3 28  1  0  0  0  0
  4  3  2  0  0  0  0
  4 29  1  0  0  0  0
  5  4  1  0  0  0  0
  6  7  1  0  0  0  0
  6  5  2  0  0  0  0
  7  2  2  0  0  0  0
  8  5  1  0  0  0  0
  8  9  2  0  0  0  0
 10 32  1  0  0  0  0
 10  8  1  0  0  0  0
 11 10  1  0  0  0  0
 12 11  1  0  0  0  0
 13 12  2  0  0  0  0
 14 12  1  0  0  0  0
 15 14  1  0  0  0  0
 15 36  1  0  0  0  0
 16 37  1  0  0  0  0
 16 15  1  0  0  0  0
 16 38  1  0  0  0  0
 17 16  1  0  0  0  0
 18 17  1  0  0  0  0
 19 18  1  0  0  0  0
 19 41  1  0  0  0  0
 20 19  1  0  0  0  0
 20 43  1  0  0  0  0
 20 21  1  0  0  0  0
 21 22  1  0  0  0  0
 21 25  2  0  0  0  0
 22 23  2  0  0  0  0
 23 44  1  0  0  0  0
 23 24  1  0  0  0  0
 24 45  1  0  0  0  0
 25 17  1  0  0  0  0
 25 24  1  0  0  0  0
 26 17  1  0  0  0  0
 26 27  1  0  0  0  0
 27 14  1  0  0  0  0
 27 49  1  0  0  0  0
 30  6  1  0  0  0  0
 31  7  1  0  0  0  0
 33 11  1  0  0  0  0
 34 11  1  0  0  0  0
 35 15  1  0  0  0  0
 39 18  1  0  0  0  0
 40 19  1  0  0  0  0
 42 20  1  0  0  0  0
 46 26  1  0  0  0  0
 47 26  1  0  0  0  0
 48 27  1  0  0  0  0
M  END
>  <Pose>
1

>  <Score>
-6.96

$$$$
