
 OpenBabel03222201593D

 41 44  0  0  1  0  0  0  0  0999 V2000
  -17.2400    1.8910  -22.3530 Cl  0  0  0  0  0  0  0  0  0  0  0  0
  -17.4920    2.2000  -24.0580 C   0  0  0  0  0  0  0  0  0  0  0  0
  -17.6820    1.1440  -24.9160 C   0  0  0  0  0  0  0  0  0  0  0  0
  -17.7300   -0.1910  -24.7720 N   0  0  0  0  0  0  0  0  0  0  0  0
  -17.9480   -0.8080  -25.9480 C   0  0  0  0  0  0  0  0  0  0  0  0
  -18.0420    0.2020  -26.8820 C   0  0  0  0  0  0  0  0  0  0  0  0
  -17.8790    1.4200  -26.2580 C   0  0  0  0  0  0  0  0  0  0  0  0
  -17.8770    2.7320  -26.6860 C   0  0  0  0  0  0  0  0  0  0  0  0
  -17.6890    3.8050  -25.8510 C   0  0  0  0  0  0  0  0  0  0  0  0
  -17.4920    3.5230  -24.5030 C   0  0  0  0  0  0  0  0  0  0  0  0
  -18.2880   -0.2340  -28.2790 C   0  0  0  0  0  0  0  0  0  0  0  0
  -19.4240   -1.1240  -28.1920 N   0  0  0  0  0  0  0  0  0  0  0  0
  -19.1790   -2.3340  -27.5100 C   0  0  0  0  0  0  0  0  0  0  0  0
  -18.0980   -2.1850  -26.4630 C   0  0  0  0  0  0  0  0  0  0  0  0
  -20.2530   -1.1370  -29.3220 C   0  0  0  0  0  0  0  0  0  0  0  0
  -19.6370   -0.4690  -30.5140 C   0  0  1  0  0  0  0  0  0  0  0  0
  -18.1550   -0.5990  -30.5700 C   0  0  0  0  0  0  0  0  0  0  0  0
  -17.7550   -1.1920  -31.7990 N   0  0  0  0  0  0  0  0  0  0  0  0
  -18.9150   -1.5270  -32.5590 C   0  0  0  0  0  0  0  0  0  0  0  0
  -20.1190   -1.1690  -31.7560 C   0  0  0  0  0  0  0  0  0  0  0  0
  -20.0550    0.8640  -30.6150 O   0  0  0  0  0  0  0  0  0  0  0  0
  -17.6160   -0.7340  -23.8690 H   0  0  0  0  0  0  0  0  0  0  0  0
  -18.0330    2.9190  -27.7350 H   0  0  0  0  0  0  0  0  0  0  0  0
  -17.6890    4.8340  -26.1940 H   0  0  0  0  0  0  0  0  0  0  0  0
  -17.3420    4.3550  -23.8280 H   0  0  0  0  0  0  0  0  0  0  0  0
  -17.3570   -0.7890  -28.5920 H   0  0  0  0  0  0  0  0  0  0  0  0
  -18.5430    0.5790  -28.9560 H   0  0  0  0  0  0  0  0  0  0  0  0
  -20.0930   -2.6770  -26.9480 H   0  0  0  0  0  0  0  0  0  0  0  0
  -18.8440   -3.1670  -28.1810 H   0  0  0  0  0  0  0  0  0  0  0  0
  -18.3080   -2.8580  -25.6040 H   0  0  0  0  0  0  0  0  0  0  0  0
  -17.1120   -2.5320  -26.8640 H   0  0  0  0  0  0  0  0  0  0  0  0
  -21.2680   -0.7170  -29.1790 H   0  0  0  0  0  0  0  0  0  0  0  0
  -20.4290   -2.2130  -29.6200 H   0  0  0  0  0  0  0  0  0  0  0  0
  -17.6050    0.3440  -30.3430 H   0  0  0  0  0  0  0  0  0  0  0  0
  -17.8490   -1.3100  -29.7480 H   0  0  0  0  0  0  0  0  0  0  0  0
  -17.0690   -0.6170  -32.3450 H   0  0  0  0  0  0  0  0  0  0  0  0
  -18.8900   -1.0510  -33.5590 H   0  0  0  0  0  0  0  0  0  0  0  0
  -18.9650   -2.6310  -32.7520 H   0  0  0  0  0  0  0  0  0  0  0  0
  -20.7410   -0.4870  -32.4010 H   0  0  0  0  0  0  0  0  0  0  0  0
  -20.7520   -2.0500  -31.5010 H   0  0  0  0  0  0  0  0  0  0  0  0
  -20.6740    1.0130  -29.8530 H   0  0  0  0  0  0  0  0  0  0  0  0
  2  1  1  0  0  0  0
  3  4  1  0  0  0  0
  3  2  2  0  0  0  0
  4 22  1  0  0  0  0
  5  4  1  0  0  0  0
  6  7  1  0  0  0  0
  6  5  2  0  0  0  0
  7  3  1  0  0  0  0
  8  7  2  0  0  0  0
  8  9  1  0  0  0  0
  9 10  2  0  0  0  0
 10  2  1  0  0  0  0
 10 25  1  0  0  0  0
 11 12  1  0  0  0  0
 11  6  1  0  0  0  0
 12 13  1  0  0  0  0
 13 28  1  0  0  0  0
 13 14  1  0  0  0  0
 14  5  1  0  0  0  0
 14 30  1  0  0  0  0
 15 32  1  0  0  0  0
 15 12  1  0  0  0  0
 16 21  1  6  0  0  0
 16 15  1  0  0  0  0
 17 16  1  0  0  0  0
 17 34  1  0  0  0  0
 17 35  1  0  0  0  0
 18 17  1  0  0  0  0
 19 18  1  0  0  0  0
 19 20  1  0  0  0  0
 20 40  1  0  0  0  0
 20 16  1  0  0  0  0
 21 41  1  0  0  0  0
 23  8  1  0  0  0  0
 24  9  1  0  0  0  0
 26 11  1  0  0  0  0
 27 11  1  0  0  0  0
 29 13  1  0  0  0  0
 31 14  1  0  0  0  0
 33 15  1  0  0  0  0
 36 18  1  0  0  0  0
 37 19  1  0  0  0  0
 38 19  1  0  0  0  0
 39 20  1  0  0  0  0
M  END
>  <Pose>
1

>  <Score>
-5.45

$$$$
