
 OpenBabel03222201593D

 43 46  0  0  0  0  0  0  0  0999 V2000
  -17.7430    2.3820  -26.3670 B   0  0  0  0  0  0  0  0  0  0  0  0
  -18.1220    0.5190  -26.2280 C   0  0  0  0  0  0  0  0  0  0  0  0
  -18.6460   -0.1800  -27.3260 C   0  0  0  0  0  0  0  0  0  0  0  0
  -18.9150   -1.5220  -27.2130 C   0  0  0  0  0  0  0  0  0  0  0  0
  -18.6640   -2.1510  -26.0220 C   0  0  0  0  0  0  0  0  0  0  0  0
  -18.1410   -1.4630  -24.9210 C   0  0  0  0  0  0  0  0  0  0  0  0
  -17.8750   -0.1210  -25.0430 C   0  0  0  0  0  0  0  0  0  0  0  0
  -19.4460   -2.2450  -28.3110 N   0  0  0  0  0  0  0  0  0  0  0  0
  -19.8790   -3.5100  -28.2860 N   0  0  0  0  0  0  0  0  0  0  0  0
  -20.3060   -3.8730  -29.4740 N   0  0  0  0  0  0  0  0  0  0  0  0
  -20.1650   -2.8490  -30.3270 C   0  0  0  0  0  0  0  0  0  0  0  0
  -19.6220   -1.8320  -29.5770 C   0  0  0  0  0  0  0  0  0  0  0  0
  -20.5170   -2.8160  -31.7660 C   0  0  0  0  0  0  0  0  0  0  0  0
  -20.9610   -3.9190  -32.2410 O   0  0  0  0  0  0  0  0  0  0  0  0
  -20.3910   -1.6910  -32.5820 N   0  0  0  0  0  0  0  0  0  0  0  0
  -20.0730   -1.8530  -33.9740 C   0  0  0  0  0  0  0  0  0  0  0  0
  -21.2570   -1.4060  -34.7870 C   0  0  0  0  0  0  0  0  0  0  0  0
  -21.7570   -0.1680  -34.2630 N   0  0  0  0  0  0  0  0  0  0  0  0
  -20.8420    0.5550  -33.3580 C   0  0  0  0  0  0  0  0  0  0  0  0
  -20.5550   -0.3210  -32.1460 C   0  0  0  0  0  0  0  0  0  0  0  0
  -22.9980    0.4240  -34.5010 C   0  0  0  0  0  0  0  0  0  0  0  0
  -23.5290    1.0150  -33.4750 O   0  0  0  0  0  0  0  0  0  0  0  0
  -23.7970    0.4870  -35.7190 C   0  0  0  0  0  0  0  0  0  0  0  0
  -23.2670    0.8210  -37.0410 C   0  0  0  0  0  0  0  0  0  0  0  0
  -23.8260   -0.5710  -36.7590 C   0  0  0  0  0  0  0  0  0  0  0  0
  -18.8140    0.3940  -28.2260 H   0  0  0  0  0  0  0  0  0  0  0  0
  -18.8520   -3.2010  -25.8650 H   0  0  0  0  0  0  0  0  0  0  0  0
  -17.9410   -1.9520  -23.9820 H   0  0  0  0  0  0  0  0  0  0  0  0
  -17.4660    0.4230  -24.1860 H   0  0  0  0  0  0  0  0  0  0  0  0
  -19.3750   -0.8520  -29.9550 H   0  0  0  0  0  0  0  0  0  0  0  0
  -19.7340   -2.8740  -34.2280 H   0  0  0  0  0  0  0  0  0  0  0  0
  -19.1930   -1.1980  -34.1670 H   0  0  0  0  0  0  0  0  0  0  0  0
  -20.9790   -1.3160  -35.8720 H   0  0  0  0  0  0  0  0  0  0  0  0
  -22.0730   -2.1540  -34.7150 H   0  0  0  0  0  0  0  0  0  0  0  0
  -19.9540    0.8050  -33.9480 H   0  0  0  0  0  0  0  0  0  0  0  0
  -21.3710    1.4410  -33.0020 H   0  0  0  0  0  0  0  0  0  0  0  0
  -21.3450   -0.2540  -31.3980 H   0  0  0  0  0  0  0  0  0  0  0  0
  -19.6040    0.0140  -31.7140 H   0  0  0  0  0  0  0  0  0  0  0  0
  -24.8720    0.8780  -35.5440 H   0  0  0  0  0  0  0  0  0  0  0  0
  -23.8950    1.4520  -37.7510 H   0  0  0  0  0  0  0  0  0  0  0  0
  -22.2010    0.8810  -37.3080 H   0  0  0  0  0  0  0  0  0  0  0  0
  -23.1820   -1.4320  -36.8070 H   0  0  0  0  0  0  0  0  0  0  0  0
  -24.8150   -0.7860  -37.2740 H   0  0  0  0  0  0  0  0  0  0  0  0
  1  2  1  0  0  0  0
  2  7  1  0  0  0  0
  3  4  1  0  0  0  0
  3  2  2  0  0  0  0
  4  5  2  0  0  0  0
  5 27  1  0  0  0  0
  5  6  1  0  0  0  0
  6 28  1  0  0  0  0
  7  6  2  0  0  0  0
  7 29  1  0  0  0  0
  8  9  1  0  0  0  0
  8  4  1  0  0  0  0
 10  9  2  0  0  0  0
 11 12  2  0  0  0  0
 11 10  1  0  0  0  0
 12  8  1  0  0  0  0
 13 11  1  0  0  0  0
 14 13  2  0  0  0  0
 15 20  1  0  0  0  0
 15 13  1  0  0  0  0
 16 15  1  0  0  0  0
 17 34  1  0  0  0  0
 17 18  1  0  0  0  0
 17 16  1  0  0  0  0
 18 19  1  0  0  0  0
 19 36  1  0  0  0  0
 19 20  1  0  0  0  0
 20 38  1  0  0  0  0
 20 37  1  0  0  0  0
 21 18  1  0  0  0  0
 21 22  2  0  0  0  0
 23 39  1  0  0  0  0
 23 21  1  0  0  0  0
 24 25  1  0  0  0  0
 24 23  1  0  0  0  0
 25 23  1  0  0  0  0
 26  3  1  0  0  0  0
 30 12  1  0  0  0  0
 31 16  1  0  0  0  0
 32 16  1  0  0  0  0
 33 17  1  0  0  0  0
 35 19  1  0  0  0  0
 40 24  1  0  0  0  0
 41 24  1  0  0  0  0
 42 25  1  0  0  0  0
 43 25  1  0  0  0  0
M  END
>  <Pose>
1

>  <Score>
-5.96

$$$$
