
 OpenBabel03222201593D

 46 49  0  0  1  0  0  0  0  0999 V2000
  -18.1160    0.1650  -33.5030 Cl  0  0  0  0  0  0  0  0  0  0  0  0
  -19.5150   -0.8670  -33.6210 C   0  0  0  0  0  0  0  0  0  0  0  0
  -20.4420   -0.6120  -34.6060 C   0  0  0  0  0  0  0  0  0  0  0  0
  -21.5390   -1.4340  -34.6870 C   0  0  0  0  0  0  0  0  0  0  0  0
  -21.6800   -2.4930  -33.7780 C   0  0  0  0  0  0  0  0  0  0  0  0
  -20.7880   -2.7790  -32.7900 C   0  0  0  0  0  0  0  0  0  0  0  0
  -19.6780   -1.8980  -32.7560 C   0  0  0  0  0  0  0  0  0  0  0  0
  -20.8790   -3.8450  -31.8290 C   0  0  2  0  0  0  0  0  0  0  0  0
  -20.5010   -5.0190  -32.2960 O   0  0  0  0  0  0  0  0  0  0  0  0
  -21.3080   -3.8640  -30.4500 C   0  0  0  0  0  0  0  0  0  0  0  0
  -20.5760   -3.1900  -29.4330 N   0  0  0  0  0  0  0  0  0  0  0  0
  -20.1310   -3.7380  -28.2590 C   0  0  1  0  0  0  0  0  0  0  0  0
  -19.5400   -2.7490  -27.5840 N   0  0  0  0  0  0  0  0  0  0  0  0
  -19.5750   -1.5850  -28.2530 C   0  0  0  0  0  0  0  0  0  0  0  0
  -20.2370   -1.8710  -29.4330 C   0  0  0  0  0  0  0  0  0  0  0  0
  -19.0460   -0.2760  -27.8690 C   0  0  0  0  0  0  0  0  0  0  0  0
  -19.4220    0.9150  -28.4350 C   0  0  0  0  0  0  0  0  0  0  0  0
  -18.8700    2.1320  -28.0110 C   0  0  0  0  0  0  0  0  0  0  0  0
  -17.9260    2.1940  -27.0100 C   0  0  0  0  0  0  0  0  0  0  0  0
  -17.5410    1.0020  -26.4360 C   0  0  0  0  0  0  0  0  0  0  0  0
  -18.0870   -0.1940  -26.8540 C   0  0  0  0  0  0  0  0  0  0  0  0
  -17.3720    3.3920  -26.5810 O   0  0  0  0  0  0  0  0  0  0  0  0
  -16.9520    4.3660  -27.5190 C   0  0  0  0  0  0  0  0  0  0  0  0
  -19.0280   -3.2410  -26.3090 C   0  0  0  0  0  0  0  0  0  0  0  0
  -19.2870   -4.7190  -26.3230 C   0  0  0  0  0  0  0  0  0  0  0  0
  -20.1000   -5.0280  -27.5290 C   0  0  0  0  0  0  0  0  0  0  0  0
  -20.2600    0.7090  -35.7370 Cl  0  0  0  0  0  0  0  0  0  0  0  0
  -22.2620   -1.2410  -35.4490 H   0  0  0  0  0  0  0  0  0  0  0  0
  -22.5580   -3.0640  -33.9280 H   0  0  0  0  0  0  0  0  0  0  0  0
  -18.9230   -2.0540  -32.0040 H   0  0  0  0  0  0  0  0  0  0  0  0
  -22.4090   -3.5090  -30.3660 H   0  0  0  0  0  0  0  0  0  0  0  0
  -21.4620   -4.9610  -30.1030 H   0  0  0  0  0  0  0  0  0  0  0  0
  -20.4620   -1.1790  -30.2420 H   0  0  0  0  0  0  0  0  0  0  0  0
  -20.1510    0.9130  -29.2170 H   0  0  0  0  0  0  0  0  0  0  0  0
  -19.1740    3.0660  -28.4650 H   0  0  0  0  0  0  0  0  0  0  0  0
  -16.7950    1.0320  -25.6420 H   0  0  0  0  0  0  0  0  0  0  0  0
  -17.7780   -1.1350  -26.3960 H   0  0  0  0  0  0  0  0  0  0  0  0
  -17.8830    4.8010  -27.9680 H   0  0  0  0  0  0  0  0  0  0  0  0
  -16.3890    5.1630  -26.9940 H   0  0  0  0  0  0  0  0  0  0  0  0
  -16.3570    3.9020  -28.3360 H   0  0  0  0  0  0  0  0  0  0  0  0
  -17.9220   -3.1170  -26.2180 H   0  0  0  0  0  0  0  0  0  0  0  0
  -19.5330   -2.7270  -25.4680 H   0  0  0  0  0  0  0  0  0  0  0  0
  -18.3480   -5.3240  -26.3560 H   0  0  0  0  0  0  0  0  0  0  0  0
  -19.8200   -4.9720  -25.3620 H   0  0  0  0  0  0  0  0  0  0  0  0
  -19.6820   -5.8290  -28.1700 H   0  0  0  0  0  0  0  0  0  0  0  0
  -21.1280   -5.3580  -27.2310 H   0  0  0  0  0  0  0  0  0  0  0  0
  2  1  1  0  0  0  0
  2  7  1  0  0  0  0
  3  2  2  0  0  0  0
  4  3  1  0  0  0  0
  4  5  2  0  0  0  0
  5  6  1  0  0  0  0
  6  7  2  0  0  0  0
  6  8  1  0  0  0  0
  7 30  1  0  0  0  0
  8  9  1  6  0  0  0
  8 10  1  0  0  0  0
 10 31  1  0  0  0  0
 10 32  1  0  0  0  0
 10 11  1  0  0  0  0
 12 11  1  1  0  0  0
 12 13  1  0  0  0  0
 12 26  1  0  0  0  0
 13 24  1  0  0  0  0
 14 16  1  0  0  0  0
 14 13  1  0  0  0  0
 15 11  1  0  0  0  0
 15 14  2  0  0  0  0
 16 21  1  0  0  0  0
 17 18  1  0  0  0  0
 17 16  2  0  0  0  0
 18 19  2  0  0  0  0
 19 22  1  0  0  0  0
 19 20  1  0  0  0  0
 20 36  1  0  0  0  0
 21 20  2  0  0  0  0
 21 37  1  0  0  0  0
 23 39  1  0  0  0  0
 23 22  1  0  0  0  0
 24 41  1  0  0  0  0
 24 42  1  0  0  0  0
 25 24  1  0  0  0  0
 25 44  1  0  0  0  0
 26 46  1  0  0  0  0
 26 25  1  0  0  0  0
 27  3  1  0  0  0  0
 28  4  1  0  0  0  0
 29  5  1  0  0  0  0
 33 15  1  0  0  0  0
 34 17  1  0  0  0  0
 35 18  1  0  0  0  0
 38 23  1  0  0  0  0
 40 23  1  0  0  0  0
 43 25  1  0  0  0  0
 45 26  1  0  0  0  0
M  END
>  <Pose>
1

>  <Score>
-6.87

$$$$
