
 OpenBabel03222201593D

 44 47  0  0  1  0  0  0  0  0999 V2000
  -19.3320   -3.2580  -25.8100 Cl  0  0  0  0  0  0  0  0  0  0  0  0
  -19.0770   -2.0190  -27.0200 C   0  0  0  0  0  0  0  0  0  0  0  0
  -18.4650   -0.8590  -26.6440 C   0  0  0  0  0  0  0  0  0  0  0  0
  -18.2520    0.1320  -27.5740 C   0  0  0  0  0  0  0  0  0  0  0  0
  -18.6700   -0.0720  -28.8920 C   0  0  0  0  0  0  0  0  0  0  0  0
  -19.2870   -1.2400  -29.2780 C   0  0  0  0  0  0  0  0  0  0  0  0
  -19.4870   -2.2070  -28.3360 C   0  0  0  0  0  0  0  0  0  0  0  0
  -19.7130   -1.3780  -30.6700 C   0  0  0  0  0  0  0  0  0  0  0  0
  -20.5340   -2.2910  -31.2510 N   0  0  0  0  0  0  0  0  0  0  0  0
  -20.6370   -2.0260  -32.5580 C   0  0  2  0  0  0  0  0  0  0  0  0
  -19.8810   -0.9300  -32.8730 N   0  0  0  0  0  0  0  0  0  0  0  0
  -19.3250   -0.5470  -31.7110 C   0  0  0  0  0  0  0  0  0  0  0  0
  -19.7630   -0.3060  -34.1590 C   0  0  0  0  0  0  0  0  0  0  0  0
  -20.7880   -0.4020  -35.1620 C   0  0  2  0  0  0  0  0  0  0  0  0
  -20.3300   -0.8280  -36.3360 O   0  0  0  0  0  0  0  0  0  0  0  0
  -22.2040   -0.1390  -35.1790 C   0  0  0  0  0  0  0  0  0  0  0  0
  -22.8760    0.0060  -36.4140 C   0  0  0  0  0  0  0  0  0  0  0  0
  -24.2180    0.2550  -36.5310 C   0  0  0  0  0  0  0  0  0  0  0  0
  -24.9310    0.3650  -35.3550 C   0  0  0  0  0  0  0  0  0  0  0  0
  -24.3010    0.2270  -34.1380 C   0  0  0  0  0  0  0  0  0  0  0  0
  -22.9320   -0.0260  -34.0250 C   0  0  0  0  0  0  0  0  0  0  0  0
  -24.8710    0.3990  -37.7790 N   0  0  0  0  0  0  0  0  0  0  0  0
  -24.7110   -0.4650  -38.6480 O   0  0  0  0  0  0  0  0  0  0  0  0
  -25.6750    1.4660  -38.0520 O   0  0  0  0  0  0  0  0  0  0  0  0
  -21.5350   -2.9940  -33.2270 C   0  0  0  0  0  0  0  0  0  0  0  0
  -21.4990   -4.1530  -32.2690 C   0  0  0  0  0  0  0  0  0  0  0  0
  -21.3370   -3.4720  -30.9300 C   0  0  0  0  0  0  0  0  0  0  0  0
  -17.9320   -0.5800  -24.9850 Cl  0  0  0  0  0  0  0  0  0  0  0  0
  -17.7710    1.0370  -27.2590 H   0  0  0  0  0  0  0  0  0  0  0  0
  -18.4740    0.7440  -29.5740 H   0  0  0  0  0  0  0  0  0  0  0  0
  -19.9680   -3.1500  -28.5300 H   0  0  0  0  0  0  0  0  0  0  0  0
  -18.6520    0.3110  -31.6130 H   0  0  0  0  0  0  0  0  0  0  0  0
  -19.4920    0.7840  -33.9430 H   0  0  0  0  0  0  0  0  0  0  0  0
  -18.7740   -0.7010  -34.5710 H   0  0  0  0  0  0  0  0  0  0  0  0
  -22.3150   -0.0800  -37.3460 H   0  0  0  0  0  0  0  0  0  0  0  0
  -25.9960    0.5630  -35.4340 H   0  0  0  0  0  0  0  0  0  0  0  0
  -24.8760    0.3160  -33.2110 H   0  0  0  0  0  0  0  0  0  0  0  0
  -22.5350   -0.1190  -33.0370 H   0  0  0  0  0  0  0  0  0  0  0  0
  -21.1410   -3.3450  -34.1970 H   0  0  0  0  0  0  0  0  0  0  0  0
  -22.5820   -2.5990  -33.3280 H   0  0  0  0  0  0  0  0  0  0  0  0
  -20.5890   -4.7440  -32.5110 H   0  0  0  0  0  0  0  0  0  0  0  0
  -22.4180   -4.7730  -32.2950 H   0  0  0  0  0  0  0  0  0  0  0  0
  -22.3520   -3.1920  -30.5790 H   0  0  0  0  0  0  0  0  0  0  0  0
  -20.8140   -4.1560  -30.2160 H   0  0  0  0  0  0  0  0  0  0  0  0
  2  3  1  0  0  0  0
  2  1  1  0  0  0  0
  3 28  1  0  0  0  0
  4 29  1  0  0  0  0
  4  3  2  0  0  0  0
  5  4  1  0  0  0  0
  6  5  2  0  0  0  0
  6  7  1  0  0  0  0
  7  2  2  0  0  0  0
  8  6  1  0  0  0  0
  9 27  1  0  0  0  0
  9  8  1  0  0  0  0
 10 25  1  1  0  0  0
 10  9  1  0  0  0  0
 11 10  1  0  0  0  0
 11 12  1  0  0  0  0
 12 32  1  0  0  0  0
 12  8  2  0  0  0  0
 13 33  1  0  0  0  0
 13 11  1  0  0  0  0
 14 15  1  6  0  0  0
 14 13  1  0  0  0  0
 16 14  1  0  0  0  0
 16 21  1  0  0  0  0
 17 16  2  0  0  0  0
 18 17  1  0  0  0  0
 18 19  2  0  0  0  0
 19 20  1  0  0  0  0
 20 21  2  0  0  0  0
 20 37  1  0  0  0  0
 21 38  1  0  0  0  0
 22 18  1  0  0  0  0
 23 22  2  0  0  0  0
 24 22  2  0  0  0  0
 25 26  1  0  0  0  0
 26 27  1  0  0  0  0
 27 43  1  0  0  0  0
 27 44  1  0  0  0  0
 30  5  1  0  0  0  0
 31  7  1  0  0  0  0
 34 13  1  0  0  0  0
 35 17  1  0  0  0  0
 36 19  1  0  0  0  0
 39 25  1  0  0  0  0
 40 25  1  0  0  0  0
 41 26  1  0  0  0  0
 42 26  1  0  0  0  0
M  END
>  <Pose>
1

>  <Score>
-6.77

$$$$
