
 OpenBabel03222201593D

 44 47  0  0  1  0  0  0  0  0999 V2000
  -17.1640    1.2720  -23.0320 Cl  0  0  0  0  0  0  0  0  0  0  0  0
  -17.5420    1.5800  -24.6980 C   0  0  0  0  0  0  0  0  0  0  0  0
  -17.3030    2.8080  -25.2540 C   0  0  0  0  0  0  0  0  0  0  0  0
  -17.6240    2.9940  -26.5770 C   0  0  0  0  0  0  0  0  0  0  0  0
  -18.1670    1.9750  -27.3140 C   0  0  0  0  0  0  0  0  0  0  0  0
  -18.4240    0.7090  -26.7790 C   0  0  0  0  0  0  0  0  0  0  0  0
  -18.1020    0.5450  -25.4720 C   0  0  0  0  0  0  0  0  0  0  0  0
  -19.0240   -0.3360  -27.6090 C   0  0  0  0  0  0  0  0  0  0  0  0
  -19.4710   -1.5600  -27.2870 N   0  0  0  0  0  0  0  0  0  0  0  0
  -19.9460   -2.1730  -28.3920 C   0  0  2  0  0  0  0  0  0  0  0  0
  -19.7970   -1.3300  -29.4290 N   0  0  0  0  0  0  0  0  0  0  0  0
  -19.2270   -0.1730  -28.9890 C   0  0  0  0  0  0  0  0  0  0  0  0
  -20.2040   -1.5710  -30.7650 C   0  0  0  0  0  0  0  0  0  0  0  0
  -19.7890   -0.7650  -31.8760 C   0  0  2  0  0  0  0  0  0  0  0  0
  -18.4980   -0.8870  -32.1150 O   0  0  0  0  0  0  0  0  0  0  0  0
  -20.4980    0.1320  -32.7580 C   0  0  0  0  0  0  0  0  0  0  0  0
  -21.8530    0.1400  -32.9490 C   0  0  0  0  0  0  0  0  0  0  0  0
  -22.4710    1.0420  -33.8210 C   0  0  0  0  0  0  0  0  0  0  0  0
  -21.7260    1.9440  -34.5100 C   0  0  0  0  0  0  0  0  0  0  0  0
  -20.3590    1.9580  -34.3380 C   0  0  0  0  0  0  0  0  0  0  0  0
  -19.7440    1.0800  -33.4870 C   0  0  0  0  0  0  0  0  0  0  0  0
  -23.8910    0.9990  -33.9750 N   0  0  0  0  0  0  0  0  0  0  0  0
  -24.3850    0.3390  -34.9050 O   0  0  0  0  0  0  0  0  0  0  0  0
  -24.7250    1.6600  -33.1320 O   0  0  0  0  0  0  0  0  0  0  0  0
  -20.4530   -3.5210  -28.0470 C   0  0  0  0  0  0  0  0  0  0  0  0
  -19.5570   -3.8370  -26.8770 C   0  0  0  0  0  0  0  0  0  0  0  0
  -19.6160   -2.4810  -26.1530 C   0  0  0  0  0  0  0  0  0  0  0  0
  -16.6090    4.1170  -24.3220 Cl  0  0  0  0  0  0  0  0  0  0  0  0
  -17.4480    3.9620  -27.0600 H   0  0  0  0  0  0  0  0  0  0  0  0
  -18.4050    2.1520  -28.3450 H   0  0  0  0  0  0  0  0  0  0  0  0
  -18.2770   -0.3870  -24.9810 H   0  0  0  0  0  0  0  0  0  0  0  0
  -18.9900    0.6750  -29.5860 H   0  0  0  0  0  0  0  0  0  0  0  0
  -21.3520   -1.6090  -30.8090 H   0  0  0  0  0  0  0  0  0  0  0  0
  -19.9100   -2.6500  -31.0280 H   0  0  0  0  0  0  0  0  0  0  0  0
  -22.4920   -0.5550  -32.4290 H   0  0  0  0  0  0  0  0  0  0  0  0
  -22.2350    2.6430  -35.1910 H   0  0  0  0  0  0  0  0  0  0  0  0
  -19.7580    2.6900  -34.8960 H   0  0  0  0  0  0  0  0  0  0  0  0
  -18.6590    1.1300  -33.3840 H   0  0  0  0  0  0  0  0  0  0  0  0
  -21.5140   -3.4240  -27.7200 H   0  0  0  0  0  0  0  0  0  0  0  0
  -20.3330   -4.2540  -28.8660 H   0  0  0  0  0  0  0  0  0  0  0  0
  -18.5250   -3.9150  -27.2610 H   0  0  0  0  0  0  0  0  0  0  0  0
  -19.8870   -4.6530  -26.2550 H   0  0  0  0  0  0  0  0  0  0  0  0
  -20.6190   -2.3710  -25.7540 H   0  0  0  0  0  0  0  0  0  0  0  0
  -18.7830   -2.4210  -25.4320 H   0  0  0  0  0  0  0  0  0  0  0  0
  2  1  1  0  0  0  0
  3  2  1  0  0  0  0
  3 28  1  0  0  0  0
  4  3  2  0  0  0  0
  5  6  2  0  0  0  0
  5  4  1  0  0  0  0
  6  7  1  0  0  0  0
  7 31  1  0  0  0  0
  7  2  2  0  0  0  0
  8  9  1  0  0  0  0
  8  6  1  0  0  0  0
  9 27  1  0  0  0  0
 10 11  1  1  0  0  0
 10 25  1  0  0  0  0
 10  9  1  0  0  0  0
 11 12  1  0  0  0  0
 12  8  2  0  0  0  0
 13 11  1  0  0  0  0
 14 15  1  1  0  0  0
 14 13  1  0  0  0  0
 16 14  1  0  0  0  0
 17 16  1  0  0  0  0
 17 35  1  0  0  0  0
 18 17  2  0  0  0  0
 19 20  2  0  0  0  0
 19 18  1  0  0  0  0
 20 21  1  0  0  0  0
 21 38  1  0  0  0  0
 21 16  2  0  0  0  0
 22 18  1  0  0  0  0
 22 24  2  0  0  0  0
 23 22  2  0  0  0  0
 25 39  1  0  0  0  0
 25 26  1  0  0  0  0
 26 42  1  0  0  0  0
 26 27  1  0  0  0  0
 27 43  1  0  0  0  0
 27 44  1  0  0  0  0
 29  4  1  0  0  0  0
 30  5  1  0  0  0  0
 32 12  1  0  0  0  0
 33 13  1  0  0  0  0
 34 13  1  0  0  0  0
 36 19  1  0  0  0  0
 37 20  1  0  0  0  0
 40 25  1  0  0  0  0
 41 26  1  0  0  0  0
M  END
>  <Pose>
1

>  <Score>
-7.16

$$$$
