
 OpenBabel03222201593D

 60 63  0  0  1  0  0  0  0  0999 V2000
  -20.6090    7.1060  -33.3340 Cl  0  0  0  0  0  0  0  0  0  0  0  0
  -20.4820    5.4230  -33.8410 C   0  0  0  0  0  0  0  0  0  0  0  0
  -19.6470    4.5370  -33.1840 C   0  0  0  0  0  0  0  0  0  0  0  0
  -19.5590    3.2240  -33.5930 C   0  0  0  0  0  0  0  0  0  0  0  0
  -20.2790    2.7230  -34.6570 C   0  0  0  0  0  0  0  0  0  0  0  0
  -21.1190    3.6340  -35.3100 C   0  0  0  0  0  0  0  0  0  0  0  0
  -21.2090    4.9460  -34.9030 C   0  0  0  0  0  0  0  0  0  0  0  0
  -20.1640    1.3050  -35.0750 C   0  0  2  0  0  0  0  0  0  0  0  0
  -21.4000    1.0020  -35.8090 N   0  0  0  0  0  0  0  0  0  0  0  0
  -22.4140    0.9530  -34.8160 C   0  0  0  0  0  0  0  0  0  0  0  0
  -23.6220    1.1950  -34.9730 O   0  0  0  0  0  0  0  0  0  0  0  0
  -21.7520    0.5610  -33.5760 C   0  0  0  0  0  0  0  0  0  0  0  0
  -22.2230    0.3840  -32.4130 O   0  0  0  0  0  0  0  0  0  0  0  0
  -20.3300    0.3900  -33.9080 C   0  0  0  0  0  0  0  0  0  0  0  0
  -19.4590   -0.3720  -33.2760 C   0  0  0  0  0  0  0  0  0  0  0  0
  -18.1330   -0.3710  -33.7170 O   0  0  0  0  0  0  0  0  0  0  0  0
  -19.8180   -1.2160  -32.1460 C   0  0  0  0  0  0  0  0  0  0  0  0
  -20.3460   -2.4860  -32.3100 C   0  0  0  0  0  0  0  0  0  0  0  0
  -20.7090   -3.2720  -31.2360 C   0  0  0  0  0  0  0  0  0  0  0  0
  -20.5560   -2.8110  -29.9360 C   0  0  0  0  0  0  0  0  0  0  0  0
  -20.0340   -1.5500  -29.7590 C   0  0  0  0  0  0  0  0  0  0  0  0
  -19.6690   -0.7630  -30.8550 C   0  0  0  0  0  0  0  0  0  0  0  0
  -20.9170   -3.5920  -28.8410 O   0  0  0  0  0  0  0  0  0  0  0  0
  -20.0690   -3.6370  -27.7280 C   0  0  0  0  0  0  0  0  0  0  0  0
  -21.2690   -4.6230  -31.4600 C   0  0  0  0  0  0  0  0  0  0  0  0
  -21.5420    0.8000  -37.2520 C   0  0  0  0  0  0  0  0  0  0  0  0
  -21.1930   -0.6450  -37.5210 C   0  0  0  0  0  0  0  0  0  0  0  0
  -20.7040   -0.8560  -38.8560 N   0  0  0  0  0  4  0  0  0  0  0  0
  -20.2750    0.3720  -39.4440 C   0  0  0  0  0  0  0  0  0  0  0  0
  -21.2660    1.0610  -40.3210 C   0  0  0  0  0  0  0  0  0  0  0  0
  -22.1140    0.2350  -41.0080 O   0  0  0  0  0  0  0  0  0  0  0  0
  -22.7660   -0.6820  -40.1940 C   0  0  0  0  0  0  0  0  0  0  0  0
  -21.7030   -1.5690  -39.6010 C   0  0  0  0  0  0  0  0  0  0  0  0
  -19.0680    4.8920  -32.3480 H   0  0  0  0  0  0  0  0  0  0  0  0
  -18.9040    2.4970  -33.0910 H   0  0  0  0  0  0  0  0  0  0  0  0
  -21.6800    3.2320  -36.1420 H   0  0  0  0  0  0  0  0  0  0  0  0
  -21.8610    5.6240  -35.4210 H   0  0  0  0  0  0  0  0  0  0  0  0
  -19.2690    1.0930  -35.6670 H   0  0  0  0  0  0  0  0  0  0  0  0
  -20.4560   -2.8270  -33.3500 H   0  0  0  0  0  0  0  0  0  0  0  0
  -19.9080   -1.1730  -28.7340 H   0  0  0  0  0  0  0  0  0  0  0  0
  -19.2820    0.2220  -30.6540 H   0  0  0  0  0  0  0  0  0  0  0  0
  -19.0790   -4.0950  -28.0120 H   0  0  0  0  0  0  0  0  0  0  0  0
  -20.4720   -4.3140  -26.9440 H   0  0  0  0  0  0  0  0  0  0  0  0
  -19.9160   -2.6440  -27.2550 H   0  0  0  0  0  0  0  0  0  0  0  0
  -22.3980   -4.5950  -31.4440 H   0  0  0  0  0  0  0  0  0  0  0  0
  -20.9720   -5.3370  -30.6690 H   0  0  0  0  0  0  0  0  0  0  0  0
  -20.9710   -5.0180  -32.4600 H   0  0  0  0  0  0  0  0  0  0  0  0
  -20.8380    1.4280  -37.8230 H   0  0  0  0  0  0  0  0  0  0  0  0
  -22.5560    1.0620  -37.5440 H   0  0  0  0  0  0  0  0  0  0  0  0
  -20.4240   -0.9950  -36.8070 H   0  0  0  0  0  0  0  0  0  0  0  0
  -22.0680   -1.3220  -37.3880 H   0  0  0  0  0  0  0  0  0  0  0  0
  -19.8480   -1.4710  -38.7500 H   0  0  0  0  0  0  0  0  0  0  0  0
  -19.3710    0.1550  -40.0890 H   0  0  0  0  0  0  0  0  0  0  0  0
  -19.8700    1.0490  -38.6430 H   0  0  0  0  0  0  0  0  0  0  0  0
  -20.7530    1.7250  -41.0590 H   0  0  0  0  0  0  0  0  0  0  0  0
  -21.8740    1.7580  -39.6720 H   0  0  0  0  0  0  0  0  0  0  0  0
  -23.3640   -1.3330  -40.8920 H   0  0  0  0  0  0  0  0  0  0  0  0
  -23.4140   -0.2090  -39.4430 H   0  0  0  0  0  0  0  0  0  0  0  0
  -22.2450   -2.3190  -38.9720 H   0  0  0  0  0  0  0  0  0  0  0  0
  -21.2690   -2.1590  -40.4440 H   0  0  0  0  0  0  0  0  0  0  0  0
  2  1  1  0  0  0  0
  2  3  1  0  0  0  0
  3 34  1  0  0  0  0
  4  3  2  0  0  0  0
  4 35  1  0  0  0  0
  5  4  1  0  0  0  0
  6  7  1  0  0  0  0
  6  5  2  0  0  0  0
  7  2  2  0  0  0  0
  8 38  1  6  0  0  0
  8  5  1  0  0  0  0
  8 14  1  0  0  0  0
  9  8  1  0  0  0  0
  9 10  1  0  0  0  0
 10 12  1  0  0  0  0
 11 10  2  0  0  0  0
 12 13  2  0  0  0  0
 14 12  1  0  0  0  0
 14 15  2  0  0  0  0
 15 17  1  0  0  0  0
 16 15  1  0  0  0  0
 17 22  1  0  0  0  0
 18 17  2  0  0  0  0
 18 19  1  0  0  0  0
 19 20  2  0  0  0  0
 20 21  1  0  0  0  0
 20 23  1  0  0  0  0
 21 40  1  0  0  0  0
 22 41  1  0  0  0  0
 22 21  2  0  0  0  0
 23 24  1  0  0  0  0
 24 44  1  0  0  0  0
 24 43  1  0  0  0  0
 25 45  1  0  0  0  0
 25 19  1  0  0  0  0
 25 46  1  0  0  0  0
 26  9  1  0  0  0  0
 27 51  1  0  0  0  0
 27 26  1  0  0  0  0
 27 50  1  0  0  0  0
 28 52  1  0  0  0  0
 28 27  1  0  0  0  0
 29 28  1  0  0  0  0
 29 54  1  0  0  0  0
 30 56  1  0  0  0  0
 30 29  1  0  0  0  0
 31 30  1  0  0  0  0
 31 32  1  0  0  0  0
 32 33  1  0  0  0  0
 32 58  1  0  0  0  0
 33 59  1  0  0  0  0
 33 28  1  0  0  0  0
 36  6  1  0  0  0  0
 37  7  1  0  0  0  0
 39 18  1  0  0  0  0
 42 24  1  0  0  0  0
 47 25  1  0  0  0  0
 48 26  1  0  0  0  0
 49 26  1  0  0  0  0
 53 29  1  0  0  0  0
 55 30  1  0  0  0  0
 57 32  1  0  0  0  0
 60 33  1  0  0  0  0
M  END
>  <Pose>
1

>  <Score>
-5.78

$$$$
