
 OpenBabel03222201593D

 39 42  0  0  1  0  0  0  0  0999 V2000
  -21.1180   -1.0670  -39.6820 B   0  0  0  0  0  0  0  0  0  0  0  0
  -21.1520   -0.4450  -37.8730 C   0  0  0  0  0  0  0  0  0  0  0  0
  -19.9560   -0.1690  -37.2030 C   0  0  0  0  0  0  0  0  0  0  0  0
  -19.9670    0.2840  -35.8960 C   0  0  0  0  0  0  0  0  0  0  0  0
  -21.1930    0.4520  -35.2840 C   0  0  0  0  0  0  0  0  0  0  0  0
  -22.3760    0.1750  -35.9580 C   0  0  0  0  0  0  0  0  0  0  0  0
  -22.3610   -0.2750  -37.2570 C   0  0  0  0  0  0  0  0  0  0  0  0
  -24.0580    0.4310  -35.0560 B   0  0  0  0  0  0  0  0  0  0  0  0
  -18.6930    0.5820  -35.1460 C   0  0  1  0  0  0  0  0  0  0  0  0
  -18.4390    1.9720  -35.1970 N   0  0  0  0  0  4  0  0  0  0  0  0
  -18.1100    2.6190  -33.9600 C   0  0  2  0  0  0  0  0  0  0  0  0
  -19.2100    2.3150  -32.9290 C   0  0  0  0  0  0  0  0  0  0  0  0
  -19.1140    0.8560  -32.7310 C   0  0  0  0  0  0  0  0  0  0  0  0
  -19.2240    0.0730  -31.5930 C   0  0  0  0  0  0  0  0  0  0  0  0
  -19.0370   -1.2300  -31.9960 C   0  0  0  0  0  0  0  0  0  0  0  0
  -18.8190   -1.2630  -33.3200 N   0  0  0  0  0  0  0  0  0  0  0  0
  -18.8660    0.0290  -33.7820 C   0  0  0  0  0  0  0  0  0  0  0  0
  -19.0980   -2.2190  -31.0310 C   0  0  0  0  0  0  0  0  0  0  0  0
  -19.3420   -1.8620  -29.7280 C   0  0  0  0  0  0  0  0  0  0  0  0
  -19.5290   -0.5580  -29.3280 C   0  0  0  0  0  0  0  0  0  0  0  0
  -19.4690    0.4480  -30.2890 C   0  0  0  0  0  0  0  0  0  0  0  0
  -17.9790    4.0740  -34.1740 C   0  0  0  0  0  0  0  0  0  0  0  0
  -17.4730    4.7810  -33.2650 O   0  0  0  0  0  0  0  0  0  0  0  0
  -18.4150    4.6310  -35.3650 O   0  0  0  0  0  0  0  0  0  0  0  0
  -18.8030   -0.3730  -37.9140 O   0  0  0  0  0  0  0  0  0  0  0  0
  -21.2650    0.8040  -34.2540 H   0  0  0  0  0  0  0  0  0  0  0  0
  -23.2840   -0.4930  -37.7940 H   0  0  0  0  0  0  0  0  0  0  0  0
  -17.9040   -0.0220  -35.6780 H   0  0  0  0  0  0  0  0  0  0  0  0
  -17.6090    2.1240  -35.8540 H   0  0  0  0  0  0  0  0  0  0  0  0
  -19.2130    2.5370  -35.6290 H   0  0  0  0  0  0  0  0  0  0  0  0
  -17.1580    2.1790  -33.5860 H   0  0  0  0  0  0  0  0  0  0  0  0
  -19.0040    2.8880  -32.0020 H   0  0  0  0  0  0  0  0  0  0  0  0
  -20.1480    2.6370  -33.4170 H   0  0  0  0  0  0  0  0  0  0  0  0
  -18.6420   -2.0940  -33.9420 H   0  0  0  0  0  0  0  0  0  0  0  0
  -18.9520   -3.2510  -31.3440 H   0  0  0  0  0  0  0  0  0  0  0  0
  -19.3890   -2.6530  -28.9710 H   0  0  0  0  0  0  0  0  0  0  0  0
  -19.7230   -0.2770  -28.2820 H   0  0  0  0  0  0  0  0  0  0  0  0
  -19.6070    1.4910  -30.0420 H   0  0  0  0  0  0  0  0  0  0  0  0
  -18.6420   -1.0690  -38.5890 H   0  0  0  0  0  0  0  0  0  0  0  0
  1  2  1  0  0  0  0
  2  7  2  0  0  0  0
  2  3  1  0  0  0  0
  3  4  2  0  0  0  0
  4  5  1  0  0  0  0
  4  9  1  0  0  0  0
  5 26  1  0  0  0  0
  6  5  2  0  0  0  0
  6  8  1  0  0  0  0
  7  6  1  0  0  0  0
  9 28  1  6  0  0  0
  9 17  1  0  0  0  0
 10  9  1  0  0  0  0
 10 11  1  0  0  0  0
 11 31  1  1  0  0  0
 11 12  1  0  0  0  0
 12 13  1  0  0  0  0
 12 32  1  0  0  0  0
 13 14  1  0  0  0  0
 14 21  1  0  0  0  0
 15 14  2  0  0  0  0
 15 18  1  0  0  0  0
 16 15  1  0  0  0  0
 17 16  1  0  0  0  0
 17 13  2  0  0  0  0
 18 19  2  0  0  0  0
 19 20  1  0  0  0  0
 19 36  1  0  0  0  0
 20 37  1  0  0  0  0
 21 38  1  0  0  0  0
 21 20  2  0  0  0  0
 22 11  1  0  0  0  0
 22 23  1  0  0  0  0
 24 22  2  0  0  0  0
 25  3  1  0  0  0  0
 27  7  1  0  0  0  0
 29 10  1  0  0  0  0
 30 10  1  0  0  0  0
 33 12  1  0  0  0  0
 34 16  1  0  0  0  0
 35 18  1  0  0  0  0
 39 25  1  0  0  0  0
M  END
>  <Pose>
1

>  <Score>
-5.81

$$$$
