
 OpenBabel03222201593D

 46 49  0  0  1  0  0  0  0  0999 V2000
  -17.1330    1.4850  -22.9540 B   0  0  0  0  0  0  0  0  0  0  0  0
  -17.7430    0.7630  -24.6340 C   0  0  0  0  0  0  0  0  0  0  0  0
  -18.1790   -0.5370  -24.7290 C   0  0  0  0  0  0  0  0  0  0  0  0
  -18.6090   -1.0670  -25.8830 N   0  0  0  0  0  0  0  0  0  0  0  0
  -18.6330   -0.3300  -27.0220 C   0  0  0  0  0  0  0  0  0  0  0  0
  -19.0530   -0.8110  -28.1940 N   0  0  0  0  0  0  0  0  0  0  0  0
  -19.4870   -2.0790  -28.3300 C   0  0  0  0  0  0  0  0  0  0  0  0
  -19.4770   -2.8600  -27.1920 C   0  0  0  0  0  0  0  0  0  0  0  0
  -19.0410   -2.3510  -25.9850 C   0  0  0  0  0  0  0  0  0  0  0  0
  -19.0160   -3.0300  -24.9210 O   0  0  0  0  0  0  0  0  0  0  0  0
  -19.9590   -2.6420  -29.6170 C   0  0  0  0  0  0  0  0  0  0  0  0
  -19.2610   -2.1350  -30.7200 O   0  0  0  0  0  0  0  0  0  0  0  0
  -19.8280   -1.5230  -31.8140 C   0  0  0  0  0  0  0  0  0  0  0  0
  -20.8000   -0.7520  -31.5730 O   0  0  0  0  0  0  0  0  0  0  0  0
  -19.3410   -1.7430  -33.2030 C   0  0  0  0  0  0  0  0  0  0  0  0
  -20.2140   -1.0980  -34.1850 N   0  0  0  0  0  0  0  0  0  0  0  0
  -21.4930   -1.5420  -34.6290 C   0  0  0  0  0  0  0  0  0  0  0  0
  -22.1750   -2.4680  -34.1240 O   0  0  0  0  0  0  0  0  0  0  0  0
  -21.8800   -0.7150  -35.7950 C   0  0  2  0  0  0  0  0  0  0  0  0
  -21.2020    0.5890  -35.4430 C   0  0  1  0  0  0  0  0  0  0  0  0
  -21.9380    1.3650  -34.3680 C   0  0  0  0  0  0  0  0  0  0  0  0
  -23.2720    0.7630  -34.0140 C   0  0  0  0  0  0  0  0  0  0  0  0
  -24.0550    0.4170  -35.2480 C   0  0  0  0  0  0  0  0  0  0  0  0
  -23.3320   -0.6190  -36.0320 C   0  0  0  0  0  0  0  0  0  0  0  0
  -19.9210    0.1000  -34.8840 C   0  0  0  0  0  0  0  0  0  0  0  0
  -18.7720    0.6310  -34.9950 O   0  0  0  0  0  0  0  0  0  0  0  0
  -18.1990    0.9930  -26.9650 C   0  0  0  0  0  0  0  0  0  0  0  0
  -17.7590    1.5270  -25.7730 C   0  0  0  0  0  0  0  0  0  0  0  0
  -18.1690   -1.1400  -23.8390 H   0  0  0  0  0  0  0  0  0  0  0  0
  -19.8110   -3.9000  -27.1990 H   0  0  0  0  0  0  0  0  0  0  0  0
  -19.7960   -3.7370  -29.5710 H   0  0  0  0  0  0  0  0  0  0  0  0
  -21.0440   -2.3770  -29.7010 H   0  0  0  0  0  0  0  0  0  0  0  0
  -18.3210   -1.3620  -33.3630 H   0  0  0  0  0  0  0  0  0  0  0  0
  -19.3230   -2.8340  -33.3770 H   0  0  0  0  0  0  0  0  0  0  0  0
  -21.3550   -1.1170  -36.6800 H   0  0  0  0  0  0  0  0  0  0  0  0
  -21.0420    1.2200  -36.3490 H   0  0  0  0  0  0  0  0  0  0  0  0
  -22.1160    2.4250  -34.6920 H   0  0  0  0  0  0  0  0  0  0  0  0
  -21.3520    1.4480  -33.4390 H   0  0  0  0  0  0  0  0  0  0  0  0
  -23.8640    1.5670  -33.4930 H   0  0  0  0  0  0  0  0  0  0  0  0
  -23.2140   -0.0650  -33.2970 H   0  0  0  0  0  0  0  0  0  0  0  0
  -24.2130    1.3670  -35.8140 H   0  0  0  0  0  0  0  0  0  0  0  0
  -25.0700    0.0850  -34.9160 H   0  0  0  0  0  0  0  0  0  0  0  0
  -23.4900   -0.3840  -37.1260 H   0  0  0  0  0  0  0  0  0  0  0  0
  -23.7820   -1.6290  -35.9000 H   0  0  0  0  0  0  0  0  0  0  0  0
  -18.2160    1.5820  -27.8590 H   0  0  0  0  0  0  0  0  0  0  0  0
  -17.4210    2.5490  -25.7130 H   0  0  0  0  0  0  0  0  0  0  0  0
  2  1  1  0  0  0  0
  3  2  1  0  0  0  0
  3 29  1  0  0  0  0
  4  3  1  0  0  0  0
  5 27  2  0  0  0  0
  5  4  1  0  0  0  0
  6  5  1  0  0  0  0
  7  6  2  0  0  0  0
  7  8  1  0  0  0  0
  8  9  1  0  0  0  0
  9  4  1  0  0  0  0
  9 10  2  0  0  0  0
 11 31  1  0  0  0  0
 11  7  1  0  0  0  0
 12 11  1  0  0  0  0
 13 14  2  0  0  0  0
 13 12  1  0  0  0  0
 15 13  1  0  0  0  0
 16 15  1  0  0  0  0
 17 16  1  0  0  0  0
 17 18  2  0  0  0  0
 19 35  1  6  0  0  0
 19 20  1  0  0  0  0
 19 17  1  0  0  0  0
 20 36  1  6  0  0  0
 20 25  1  0  0  0  0
 20 21  1  0  0  0  0
 21 22  1  0  0  0  0
 21 38  1  0  0  0  0
 22 39  1  0  0  0  0
 22 40  1  0  0  0  0
 23 42  1  0  0  0  0
 23 22  1  0  0  0  0
 24 44  1  0  0  0  0
 24 19  1  0  0  0  0
 24 23  1  0  0  0  0
 25 16  1  0  0  0  0
 26 25  2  0  0  0  0
 27 28  1  0  0  0  0
 28 46  1  0  0  0  0
 28  2  2  0  0  0  0
 30  8  1  0  0  0  0
 32 11  1  0  0  0  0
 33 15  1  0  0  0  0
 34 15  1  0  0  0  0
 37 21  1  0  0  0  0
 41 23  1  0  0  0  0
 43 24  1  0  0  0  0
 45 27  1  0  0  0  0
M  END
>  <Pose>
1

>  <Score>
-6.84

$$$$
