
 OpenBabel03222201593D

 45 48  0  0  1  0  0  0  0  0999 V2000
  -17.1790    3.7320  -26.2890 Cl  0  0  0  0  0  0  0  0  0  0  0  0
  -17.9360    2.2280  -26.8350 C   0  0  0  0  0  0  0  0  0  0  0  0
  -17.6760    1.0500  -26.2130 C   0  0  0  0  0  0  0  0  0  0  0  0
  -18.2890   -0.1180  -26.6680 C   0  0  0  0  0  0  0  0  0  0  0  0
  -19.1630   -0.1690  -27.7260 C   0  0  0  0  0  0  0  0  0  0  0  0
  -19.3930    1.0790  -28.3310 C   0  0  0  0  0  0  0  0  0  0  0  0
  -18.7990    2.2460  -27.9000 C   0  0  0  0  0  0  0  0  0  0  0  0
  -19.8590   -1.3190  -28.2320 C   0  0  0  0  0  0  0  0  0  0  0  0
  -20.6240   -1.8900  -27.3150 O   0  0  0  0  0  0  0  0  0  0  0  0
  -19.8690   -1.9300  -29.4970 N   0  0  0  0  0  0  0  0  0  0  0  0
  -19.7940   -1.2350  -30.7330 C   0  0  0  0  0  0  0  0  0  0  0  0
  -19.6050   -2.2570  -31.8670 C   0  0  1  0  0  0  0  0  0  0  0  0
  -20.7420   -3.1370  -31.7860 N   0  0  0  0  0  0  0  0  0  0  0  0
  -20.9140   -3.8780  -30.5810 C   0  0  0  0  0  0  0  0  0  0  0  0
  -19.9780   -3.3890  -29.4960 C   0  0  0  0  0  0  0  0  0  0  0  0
  -21.6440   -3.2540  -32.8570 C   0  0  0  0  0  0  0  0  0  0  0  0
  -22.3660   -4.2650  -32.9280 O   0  0  0  0  0  0  0  0  0  0  0  0
  -21.7020   -2.1730  -33.8620 C   0  0  1  0  0  0  0  0  0  0  0  0
  -20.3490   -1.8660  -34.2210 N   0  0  0  0  0  0  0  0  0  0  0  0
  -19.4280   -1.6240  -33.1730 C   0  0  0  0  0  0  0  0  0  0  0  0
  -18.4260   -0.8570  -33.3300 O   0  0  0  0  0  0  0  0  0  0  0  0
  -22.6080   -2.4530  -35.0000 C   0  0  0  0  0  0  0  0  0  0  0  0
  -23.3410   -1.2330  -35.3750 C   0  0  0  0  0  0  0  0  0  0  0  0
  -23.3910   -0.6200  -36.5600 N   0  0  0  0  0  0  0  0  0  0  0  0
  -24.1920    0.4820  -36.4630 C   0  0  0  0  0  0  0  0  0  0  0  0
  -24.6500    0.5680  -35.2120 N   0  0  0  0  0  0  0  0  0  0  0  0
  -24.1450   -0.4650  -34.5300 C   0  0  0  0  0  0  0  0  0  0  0  0
  -17.0010    1.0430  -25.3820 H   0  0  0  0  0  0  0  0  0  0  0  0
  -18.0300   -1.0170  -26.1510 H   0  0  0  0  0  0  0  0  0  0  0  0
  -20.0790    1.1140  -29.1800 H   0  0  0  0  0  0  0  0  0  0  0  0
  -19.0460    3.1640  -28.4390 H   0  0  0  0  0  0  0  0  0  0  0  0
  -18.9550   -0.5090  -30.7750 H   0  0  0  0  0  0  0  0  0  0  0  0
  -20.7370   -0.6850  -30.8880 H   0  0  0  0  0  0  0  0  0  0  0  0
  -18.6990   -2.8340  -31.5840 H   0  0  0  0  0  0  0  0  0  0  0  0
  -20.6880   -4.9440  -30.7920 H   0  0  0  0  0  0  0  0  0  0  0  0
  -21.9410   -3.8470  -30.1630 H   0  0  0  0  0  0  0  0  0  0  0  0
  -20.3420   -3.6990  -28.5080 H   0  0  0  0  0  0  0  0  0  0  0  0
  -18.9790   -3.8250  -29.6730 H   0  0  0  0  0  0  0  0  0  0  0  0
  -22.1010   -1.2150  -33.3920 H   0  0  0  0  0  0  0  0  0  0  0  0
  -20.0260   -1.8150  -35.2190 H   0  0  0  0  0  0  0  0  0  0  0  0
  -22.0360   -2.8820  -35.8520 H   0  0  0  0  0  0  0  0  0  0  0  0
  -23.3160   -3.2740  -34.7020 H   0  0  0  0  0  0  0  0  0  0  0  0
  -24.3810    1.1410  -37.3120 H   0  0  0  0  0  0  0  0  0  0  0  0
  -25.2720    1.2900  -34.8390 H   0  0  0  0  0  0  0  0  0  0  0  0
  -24.2880   -0.7340  -33.4920 H   0  0  0  0  0  0  0  0  0  0  0  0
  2  1  1  0  0  0  0
  2  3  1  0  0  0  0
  3 28  1  0  0  0  0
  4  3  2  0  0  0  0
  4 29  1  0  0  0  0
  5  4  1  0  0  0  0
  6  7  1  0  0  0  0
  6  5  2  0  0  0  0
  7  2  2  0  0  0  0
  8  5  1  0  0  0  0
  8  9  2  0  0  0  0
 10 15  1  0  0  0  0
 10  8  1  0  0  0  0
 11 10  1  0  0  0  0
 12 13  1  0  0  0  0
 12 34  1  1  0  0  0
 12 11  1  0  0  0  0
 13 14  1  0  0  0  0
 14 36  1  0  0  0  0
 14 15  1  0  0  0  0
 15 37  1  0  0  0  0
 16 13  1  0  0  0  0
 17 16  2  0  0  0  0
 18 39  1  1  0  0  0
 18 16  1  0  0  0  0
 19 18  1  0  0  0  0
 19 20  1  0  0  0  0
 20 12  1  0  0  0  0
 21 20  2  0  0  0  0
 22 42  1  0  0  0  0
 22 18  1  0  0  0  0
 23 22  1  0  0  0  0
 23 27  2  0  0  0  0
 24 25  2  0  0  0  0
 24 23  1  0  0  0  0
 25 26  1  0  0  0  0
 26 44  1  0  0  0  0
 26 27  1  0  0  0  0
 27 45  1  0  0  0  0
 30  6  1  0  0  0  0
 31  7  1  0  0  0  0
 32 11  1  0  0  0  0
 33 11  1  0  0  0  0
 35 14  1  0  0  0  0
 38 15  1  0  0  0  0
 40 19  1  0  0  0  0
 41 22  1  0  0  0  0
 43 25  1  0  0  0  0
M  END
>  <Pose>
1

>  <Score>
-7.02

$$$$
