
 OpenBabel03222201593D

 43 46  0  0  0  0  0  0  0  0999 V2000
  -18.3380   -2.0660  -25.3380 Cl  0  0  0  0  0  0  0  0  0  0  0  0
  -18.4270   -0.7880  -26.5290 C   0  0  0  0  0  0  0  0  0  0  0  0
  -18.6770   -1.0830  -27.8390 C   0  0  0  0  0  0  0  0  0  0  0  0
  -18.7110    0.0160  -28.7020 C   0  0  0  0  0  0  0  0  0  0  0  0
  -18.5080    1.2600  -28.2390 N   0  0  0  0  0  0  0  0  0  0  0  0
  -18.2660    1.5650  -26.9840 N   0  0  0  0  0  0  0  0  0  0  0  0
  -18.2250    0.5420  -26.1210 C   0  0  0  0  0  0  0  0  0  0  0  0
  -18.0010    0.7320  -24.8980 O   0  0  0  0  0  0  0  0  0  0  0  0
  -18.0620    2.9140  -26.5770 C   0  0  0  0  0  0  0  0  0  0  0  0
  -18.9920    3.6200  -25.8400 C   0  0  0  0  0  0  0  0  0  0  0  0
  -18.7840    4.9250  -25.4500 C   0  0  0  0  0  0  0  0  0  0  0  0
  -17.6190    5.5830  -25.7910 C   0  0  0  0  0  0  0  0  0  0  0  0
  -16.6860    4.8840  -26.5270 C   0  0  0  0  0  0  0  0  0  0  0  0
  -16.8990    3.5750  -26.9150 C   0  0  0  0  0  0  0  0  0  0  0  0
  -18.9120   -2.3950  -28.3130 N   0  0  0  0  0  0  0  0  0  0  0  0
  -17.9650   -3.1110  -29.1520 C   0  0  0  0  0  0  0  0  0  0  0  0
  -18.5420   -3.4110  -30.5110 C   0  0  0  0  0  0  0  0  0  0  0  0
  -19.9150   -3.8030  -30.3030 N   0  0  0  0  0  0  0  0  0  0  0  0
  -20.2820   -4.3130  -29.0080 C   0  0  0  0  0  0  0  0  0  0  0  0
  -20.1360   -3.1320  -28.0230 C   0  0  0  0  0  0  0  0  0  0  0  0
  -20.8750   -3.6920  -31.3370 C   0  0  0  0  0  0  0  0  0  0  0  0
  -22.0450   -4.3830  -31.4580 N   0  0  0  0  0  0  0  0  0  0  0  0
  -22.6660   -3.9990  -32.5560 N   0  0  0  0  0  0  0  0  0  0  0  0
  -21.9170   -3.0750  -33.1430 C   0  0  0  0  0  0  0  0  0  0  0  0
  -20.8550   -2.9080  -32.3990 O   0  0  0  0  0  0  0  0  0  0  0  0
  -22.1730   -2.3240  -34.4150 C   0  0  0  0  0  0  0  0  0  0  0  0
  -18.9080   -0.1640  -29.7360 H   0  0  0  0  0  0  0  0  0  0  0  0
  -19.9130    3.1040  -25.5690 H   0  0  0  0  0  0  0  0  0  0  0  0
  -19.5420    5.4570  -24.8660 H   0  0  0  0  0  0  0  0  0  0  0  0
  -17.4610    6.6080  -25.4810 H   0  0  0  0  0  0  0  0  0  0  0  0
  -15.7790    5.3840  -26.7970 H   0  0  0  0  0  0  0  0  0  0  0  0
  -16.1630    3.0220  -27.4960 H   0  0  0  0  0  0  0  0  0  0  0  0
  -17.7980   -4.1140  -28.6640 H   0  0  0  0  0  0  0  0  0  0  0  0
  -16.9910   -2.6680  -29.2640 H   0  0  0  0  0  0  0  0  0  0  0  0
  -18.5490   -2.5020  -31.1720 H   0  0  0  0  0  0  0  0  0  0  0  0
  -17.9580   -4.1710  -31.0570 H   0  0  0  0  0  0  0  0  0  0  0  0
  -19.5750   -5.1120  -28.7230 H   0  0  0  0  0  0  0  0  0  0  0  0
  -21.3170   -4.6930  -28.9890 H   0  0  0  0  0  0  0  0  0  0  0  0
  -20.1440   -3.6060  -27.0320 H   0  0  0  0  0  0  0  0  0  0  0  0
  -21.0430   -2.5150  -28.2510 H   0  0  0  0  0  0  0  0  0  0  0  0
  -23.2350   -2.0130  -34.4750 H   0  0  0  0  0  0  0  0  0  0  0  0
  -21.5770   -1.3880  -34.4430 H   0  0  0  0  0  0  0  0  0  0  0  0
  -21.8420   -2.9580  -35.2420 H   0  0  0  0  0  0  0  0  0  0  0  0
  2  7  1  0  0  0  0
  2  1  1  0  0  0  0
  3  2  2  0  0  0  0
  4  5  2  0  0  0  0
  4  3  1  0  0  0  0
  5  6  1  0  0  0  0
  6  9  1  0  0  0  0
  6  7  1  0  0  0  0
  7  8  2  0  0  0  0
  9 10  1  0  0  0  0
 10 28  1  0  0  0  0
 10 11  2  0  0  0  0
 11 29  1  0  0  0  0
 12 30  1  0  0  0  0
 12 11  1  0  0  0  0
 13 12  2  0  0  0  0
 14  9  2  0  0  0  0
 14 13  1  0  0  0  0
 15 20  1  0  0  0  0
 15  3  1  0  0  0  0
 16 33  1  0  0  0  0
 16 15  1  0  0  0  0
 17 18  1  0  0  0  0
 17 16  1  0  0  0  0
 18 19  1  0  0  0  0
 19 38  1  0  0  0  0
 19 37  1  0  0  0  0
 19 20  1  0  0  0  0
 20 39  1  0  0  0  0
 21 18  1  0  0  0  0
 22 21  2  0  0  0  0
 23 22  1  0  0  0  0
 24 23  2  0  0  0  0
 24 25  1  0  0  0  0
 25 21  1  0  0  0  0
 26 24  1  0  0  0  0
 27  4  1  0  0  0  0
 31 13  1  0  0  0  0
 32 14  1  0  0  0  0
 34 16  1  0  0  0  0
 35 17  1  0  0  0  0
 36 17  1  0  0  0  0
 40 20  1  0  0  0  0
 41 26  1  0  0  0  0
 42 26  1  0  0  0  0
 43 26  1  0  0  0  0
M  END
>  <Pose>
1

>  <Score>
-5.78

$$$$
