
 OpenBabel03222201593D

 49 52  0  0  0  0  0  0  0  0999 V2000
  -23.9890    0.8490  -34.0820 B   0  0  0  0  0  0  0  0  0  0  0  0
  -22.3260    0.4110  -34.8580 C   0  0  0  0  0  0  0  0  0  0  0  0
  -21.2690    0.0360  -34.0430 C   0  0  0  0  0  0  0  0  0  0  0  0
  -20.0490   -0.2840  -34.5760 C   0  0  0  0  0  0  0  0  0  0  0  0
  -19.8080   -0.2510  -35.9160 C   0  0  0  0  0  0  0  0  0  0  0  0
  -20.8690    0.1260  -36.7450 C   0  0  0  0  0  0  0  0  0  0  0  0
  -22.1030    0.4480  -36.2120 C   0  0  0  0  0  0  0  0  0  0  0  0
  -18.9030   -0.7270  -33.7050 C   0  0  0  0  0  0  0  0  0  0  0  0
  -17.9130    0.0860  -33.7200 O   0  0  0  0  0  0  0  0  0  0  0  0
  -19.0280   -1.8640  -33.0390 N   0  0  0  0  0  0  0  0  0  0  0  0
  -19.1590   -3.0540  -32.3420 C   0  0  0  0  0  0  0  0  0  0  0  0
  -19.6830   -2.8250  -30.9470 C   0  0  0  0  0  0  0  0  0  0  0  0
  -20.1060   -3.8810  -30.3580 O   0  0  0  0  0  0  0  0  0  0  0  0
  -19.7190   -1.5730  -30.3180 N   0  0  0  0  0  0  0  0  0  0  0  0
  -20.8870   -1.0570  -29.6810 C   0  0  0  0  0  0  0  0  0  0  0  0
  -20.5720   -0.2570  -28.4480 C   0  0  0  0  0  0  0  0  0  0  0  0
  -19.2260   -0.5560  -27.8240 C   0  0  0  0  0  0  0  0  0  0  0  0
  -19.0430    0.5240  -26.8640 N   0  0  0  0  0  0  0  0  0  0  0  0
  -17.9530    0.3890  -25.9760 C   0  0  0  0  0  0  0  0  0  0  0  0
  -17.3550   -0.9590  -25.8080 C   0  0  0  0  0  0  0  0  0  0  0  0
  -18.3510   -2.0440  -26.0710 C   0  0  0  0  0  0  0  0  0  0  0  0
  -18.5380   -3.2360  -25.5060 N   0  0  0  0  0  0  0  0  0  0  0  0
  -19.5880   -3.7880  -26.1490 C   0  0  0  0  0  0  0  0  0  0  0  0
  -20.0470   -2.9480  -27.1030 N   0  0  0  0  0  0  0  0  0  0  0  0
  -19.2680   -1.8280  -27.0680 C   0  0  0  0  0  0  0  0  0  0  0  0
  -18.0870   -0.5810  -28.8110 C   0  0  0  0  0  0  0  0  0  0  0  0
  -18.5410   -0.7150  -30.2530 C   0  0  0  0  0  0  0  0  0  0  0  0
  -21.4070   -0.0060  -32.9880 H   0  0  0  0  0  0  0  0  0  0  0  0
  -18.8430   -0.5080  -36.3050 H   0  0  0  0  0  0  0  0  0  0  0  0
  -20.7200    0.1660  -37.8090 H   0  0  0  0  0  0  0  0  0  0  0  0
  -22.9220    0.7370  -36.8540 H   0  0  0  0  0  0  0  0  0  0  0  0
  -18.6530   -2.5790  -34.1630 H   0  0  0  0  0  0  0  0  0  0  0  0
  -18.1480   -3.5820  -32.2400 H   0  0  0  0  0  0  0  0  0  0  0  0
  -19.7720   -3.8130  -32.8870 H   0  0  0  0  0  0  0  0  0  0  0  0
  -21.3390   -0.3280  -30.4200 H   0  0  0  0  0  0  0  0  0  0  0  0
  -21.6870   -1.8060  -29.5300 H   0  0  0  0  0  0  0  0  0  0  0  0
  -20.6230    0.8150  -28.6720 H   0  0  0  0  0  0  0  0  0  0  0  0
  -21.3330   -0.5380  -27.6890 H   0  0  0  0  0  0  0  0  0  0  0  0
  -18.9490    1.3890  -27.4710 H   0  0  0  0  0  0  0  0  0  0  0  0
  -18.3140    0.7160  -24.9540 H   0  0  0  0  0  0  0  0  0  0  0  0
  -17.1620    1.1490  -26.2480 H   0  0  0  0  0  0  0  0  0  0  0  0
  -16.4690   -1.0650  -26.4770 H   0  0  0  0  0  0  0  0  0  0  0  0
  -16.9280   -1.0510  -24.7690 H   0  0  0  0  0  0  0  0  0  0  0  0
  -19.9720   -4.7590  -25.9060 H   0  0  0  0  0  0  0  0  0  0  0  0
  -20.8420   -3.1310  -27.7370 H   0  0  0  0  0  0  0  0  0  0  0  0
  -17.4530   -1.4970  -28.6080 H   0  0  0  0  0  0  0  0  0  0  0  0
  -17.4340    0.3040  -28.7590 H   0  0  0  0  0  0  0  0  0  0  0  0
  -18.7390    0.2790  -30.7160 H   0  0  0  0  0  0  0  0  0  0  0  0
  -17.7260   -1.2190  -30.8050 H   0  0  0  0  0  0  0  0  0  0  0  0
  2  1  1  0  0  0  0
  2  3  1  0  0  0  0
  3 28  1  0  0  0  0
  4  3  2  0  0  0  0
  4  8  1  0  0  0  0
  5  4  1  0  0  0  0
  6  7  1  0  0  0  0
  6  5  2  0  0  0  0
  7  2  2  0  0  0  0
  8 10  1  0  0  0  0
  9  8  2  0  0  0  0
 10 11  1  0  0  0  0
 11 33  1  0  0  0  0
 11 12  1  0  0  0  0
 12 13  2  0  0  0  0
 12 14  1  0  0  0  0
 14 27  1  0  0  0  0
 14 15  1  0  0  0  0
 15 36  1  0  0  0  0
 15 16  1  0  0  0  0
 16 17  1  0  0  0  0
 16 38  1  0  0  0  0
 17 25  1  0  0  0  0
 17 18  1  0  0  0  0
 18 19  1  0  0  0  0
 19 20  1  0  0  0  0
 19 40  1  0  0  0  0
 20 43  1  0  0  0  0
 21 20  1  0  0  0  0
 21 22  1  0  0  0  0
 23 44  1  0  0  0  0
 23 22  2  0  0  0  0
 24 25  1  0  0  0  0
 24 23  1  0  0  0  0
 25 21  2  0  0  0  0
 26 47  1  0  0  0  0
 26 46  1  0  0  0  0
 26 17  1  0  0  0  0
 27 26  1  0  0  0  0
 29  5  1  0  0  0  0
 30  6  1  0  0  0  0
 31  7  1  0  0  0  0
 32 10  1  0  0  0  0
 34 11  1  0  0  0  0
 35 15  1  0  0  0  0
 37 16  1  0  0  0  0
 39 18  1  0  0  0  0
 41 19  1  0  0  0  0
 42 20  1  0  0  0  0
 45 24  1  0  0  0  0
 48 27  1  0  0  0  0
 49 27  1  0  0  0  0
M  END
>  <Pose>
1

>  <Score>
-6.27

$$$$
