
 OpenBabel03222201593D

 45 48  0  0  1  0  0  0  0  0999 V2000
  -19.2370   -2.4720  -26.3190 Cl  0  0  0  0  0  0  0  0  0  0  0  0
  -19.7650   -2.6470  -27.9950 C   0  0  0  0  0  0  0  0  0  0  0  0
  -19.8360   -1.5400  -28.8060 C   0  0  0  0  0  0  0  0  0  0  0  0
  -20.2490   -1.6390  -30.1350 C   0  0  0  0  0  0  0  0  0  0  0  0
  -20.5780   -2.9020  -30.5850 C   0  0  0  0  0  0  0  0  0  0  0  0
  -20.5020   -4.0100  -29.7610 C   0  0  0  0  0  0  0  0  0  0  0  0
  -20.0940   -3.9070  -28.4480 C   0  0  0  0  0  0  0  0  0  0  0  0
  -20.3230   -0.4360  -30.9970 C   0  0  0  0  0  0  0  0  0  0  0  0
  -19.0210   -0.1570  -31.6970 C   0  0  0  0  0  0  0  0  0  0  0  0
  -19.1760    0.2170  -33.0840 N   0  0  0  0  0  0  0  0  0  0  0  0
  -19.2860   -0.5810  -34.2760 C   0  0  2  0  0  0  0  0  0  0  0  0
  -18.7150    0.3570  -35.3200 C   0  0  2  0  0  0  0  0  0  0  0  0
  -19.3310    1.5810  -34.9410 O   0  0  0  0  0  0  0  0  0  0  0  0
  -19.2560    1.5650  -33.5330 C   0  0  0  0  0  0  0  0  0  0  0  0
  -19.2620    2.6220  -32.8250 O   0  0  0  0  0  0  0  0  0  0  0  0
  -19.2820   -0.2620  -36.5450 C   0  0  0  0  0  0  0  0  0  0  0  0
  -20.7120   -0.3640  -36.1730 N   0  0  0  0  0  0  0  0  0  0  0  0
  -20.7430   -0.6330  -34.7690 C   0  0  0  0  0  0  0  0  0  0  0  0
  -21.7130   -0.1990  -37.1350 C   0  0  0  0  0  0  0  0  0  0  0  0
  -22.6580    0.6690  -36.9400 O   0  0  0  0  0  0  0  0  0  0  0  0
  -21.8270   -0.9220  -38.3880 C   0  0  0  0  0  0  0  0  0  0  0  0
  -22.9020   -1.6290  -38.8300 N   0  0  0  0  0  0  0  0  0  0  0  0
  -22.6150   -2.1370  -40.0250 C   0  0  0  0  0  0  0  0  0  0  0  0
  -21.3770   -1.7720  -40.3650 N   0  0  0  0  0  0  0  0  0  0  0  0
  -20.8760   -1.0180  -39.3600 C   0  0  0  0  0  0  0  0  0  0  0  0
  -24.1360   -1.7890  -38.1050 C   0  0  0  0  0  0  0  0  0  0  0  0
  -19.5770   -0.5360  -28.4560 H   0  0  0  0  0  0  0  0  0  0  0  0
  -20.9030   -2.9860  -31.6250 H   0  0  0  0  0  0  0  0  0  0  0  0
  -20.7690   -4.9920  -30.1480 H   0  0  0  0  0  0  0  0  0  0  0  0
  -20.0300   -4.7630  -27.7930 H   0  0  0  0  0  0  0  0  0  0  0  0
  -20.5250    0.4330  -30.3380 H   0  0  0  0  0  0  0  0  0  0  0  0
  -21.1840   -0.4790  -31.7100 H   0  0  0  0  0  0  0  0  0  0  0  0
  -18.4090   -1.0990  -31.5940 H   0  0  0  0  0  0  0  0  0  0  0  0
  -18.4320    0.6130  -31.1580 H   0  0  0  0  0  0  0  0  0  0  0  0
  -18.8170   -1.5550  -34.2380 H   0  0  0  0  0  0  0  0  0  0  0  0
  -17.6170    0.4150  -35.2950 H   0  0  0  0  0  0  0  0  0  0  0  0
  -19.1250    0.2790  -37.4690 H   0  0  0  0  0  0  0  0  0  0  0  0
  -18.9340   -1.3160  -36.5880 H   0  0  0  0  0  0  0  0  0  0  0  0
  -21.2000   -1.5830  -34.4730 H   0  0  0  0  0  0  0  0  0  0  0  0
  -21.2990    0.1850  -34.2190 H   0  0  0  0  0  0  0  0  0  0  0  0
  -23.2350   -2.7610  -40.6840 H   0  0  0  0  0  0  0  0  0  0  0  0
  -19.8600   -0.5960  -39.4110 H   0  0  0  0  0  0  0  0  0  0  0  0
  -24.7170   -0.8470  -38.0300 H   0  0  0  0  0  0  0  0  0  0  0  0
  -23.9590   -2.1790  -37.0740 H   0  0  0  0  0  0  0  0  0  0  0  0
  -24.7770   -2.5400  -38.6090 H   0  0  0  0  0  0  0  0  0  0  0  0
  2  1  1  0  0  0  0
  3 27  1  0  0  0  0
  3  2  2  0  0  0  0
  4  3  1  0  0  0  0
  5  4  2  0  0  0  0
  5  6  1  0  0  0  0
  6  7  2  0  0  0  0
  7  2  1  0  0  0  0
  7 30  1  0  0  0  0
  8 31  1  0  0  0  0
  8  4  1  0  0  0  0
  9 33  1  0  0  0  0
  9 34  1  0  0  0  0
  9  8  1  0  0  0  0
 10  9  1  0  0  0  0
 11 35  1  1  0  0  0
 11 10  1  0  0  0  0
 12 36  1  1  0  0  0
 12 13  1  0  0  0  0
 12 11  1  0  0  0  0
 13 14  1  0  0  0  0
 14 10  1  0  0  0  0
 14 15  2  0  0  0  0
 16 17  1  0  0  0  0
 16 12  1  0  0  0  0
 17 18  1  0  0  0  0
 18 39  1  0  0  0  0
 18 11  1  0  0  0  0
 18 40  1  0  0  0  0
 19 20  2  0  0  0  0
 19 17  1  0  0  0  0
 21 19  1  0  0  0  0
 22 21  1  0  0  0  0
 22 26  1  0  0  0  0
 23 22  1  0  0  0  0
 24 23  2  0  0  0  0
 24 25  1  0  0  0  0
 25 21  2  0  0  0  0
 26 43  1  0  0  0  0
 26 44  1  0  0  0  0
 28  5  1  0  0  0  0
 29  6  1  0  0  0  0
 32  8  1  0  0  0  0
 37 16  1  0  0  0  0
 38 16  1  0  0  0  0
 41 23  1  0  0  0  0
 42 25  1  0  0  0  0
 45 26  1  0  0  0  0
M  END
>  <Pose>
1

>  <Score>
-5.87

$$$$
