
 OpenBabel03222201593D

 53 56  0  0  0  0  0  0  0  0999 V2000
  -21.5080   -4.4580  -32.5050 Cl  0  0  0  0  0  0  0  0  0  0  0  0
  -21.3190   -4.2530  -30.7640 C   0  0  0  0  0  0  0  0  0  0  0  0
  -20.0820   -3.8260  -30.2980 C   0  0  0  0  0  0  0  0  0  0  0  0
  -19.9100   -3.6630  -28.9530 C   0  0  0  0  0  0  0  0  0  0  0  0
  -20.9890   -3.9320  -28.0890 C   0  0  0  0  0  0  0  0  0  0  0  0
  -22.1950   -4.3510  -28.5750 C   0  0  0  0  0  0  0  0  0  0  0  0
  -22.3860   -4.5220  -29.9350 C   0  0  0  0  0  0  0  0  0  0  0  0
  -18.6380   -3.1670  -28.3760 C   0  0  0  0  0  0  0  0  0  0  0  0
  -18.5360   -1.7520  -28.2080 N   0  0  0  0  0  0  0  0  0  0  0  0
  -18.3370   -1.1710  -27.0070 C   0  0  0  0  0  0  0  0  0  0  0  0
  -18.3470    0.1890  -27.2140 C   0  0  0  0  0  0  0  0  0  0  0  0
  -18.5470    0.3880  -28.5010 N   0  0  0  0  0  0  0  0  0  0  0  0
  -18.6690   -0.8030  -29.1380 C   0  0  0  0  0  0  0  0  0  0  0  0
  -18.9630   -0.9470  -30.5370 N   0  0  0  0  0  0  0  0  0  0  0  0
  -20.3760   -0.8490  -30.9560 C   0  0  0  0  0  0  0  0  0  0  0  0
  -20.5760    0.2110  -31.9900 C   0  0  0  0  0  0  0  0  0  0  0  0
  -19.3500    0.4860  -32.7040 N   0  0  0  0  0  0  0  0  0  0  0  0
  -18.4340   -0.6180  -32.9020 C   0  0  0  0  0  0  0  0  0  0  0  0
  -17.9990   -1.1660  -31.5540 C   0  0  0  0  0  0  0  0  0  0  0  0
  -19.0690    1.7890  -33.1960 C   0  0  0  0  0  0  0  0  0  0  0  0
  -19.1760    2.7840  -32.4470 O   0  0  0  0  0  0  0  0  0  0  0  0
  -18.6430    2.0070  -34.5990 C   0  0  0  0  0  0  0  0  0  0  0  0
  -19.7800    1.5250  -35.4960 C   0  0  0  0  0  0  0  0  0  0  0  0
  -18.1640    0.9980  -26.1330 N   0  0  0  0  0  0  0  0  0  0  0  0
  -17.9800    0.5010  -24.9040 C   0  0  0  0  0  0  0  0  0  0  0  0
  -17.8160    1.2940  -23.9350 O   0  0  0  0  0  0  0  0  0  0  0  0
  -17.9630   -0.8150  -24.6590 N   0  0  0  0  0  0  0  0  0  0  0  0
  -18.1420   -1.6450  -25.7140 C   0  0  0  0  0  0  0  0  0  0  0  0
  -18.1290   -2.8760  -25.4920 O   0  0  0  0  0  0  0  0  0  0  0  0
  -18.1770    2.4460  -26.3300 C   0  0  0  0  0  0  0  0  0  0  0  0
  -19.2840   -3.6530  -31.0230 H   0  0  0  0  0  0  0  0  0  0  0  0
  -20.8430   -3.7990  -27.0090 H   0  0  0  0  0  0  0  0  0  0  0  0
  -23.0460   -4.5690  -27.9450 H   0  0  0  0  0  0  0  0  0  0  0  0
  -23.3350   -4.8520  -30.3440 H   0  0  0  0  0  0  0  0  0  0  0  0
  -17.7920   -3.5210  -29.0400 H   0  0  0  0  0  0  0  0  0  0  0  0
  -18.4830   -3.7350  -27.4350 H   0  0  0  0  0  0  0  0  0  0  0  0
  -20.6600   -1.8550  -31.3210 H   0  0  0  0  0  0  0  0  0  0  0  0
  -20.9870   -0.5560  -30.0680 H   0  0  0  0  0  0  0  0  0  0  0  0
  -21.3130   -0.1750  -32.7490 H   0  0  0  0  0  0  0  0  0  0  0  0
  -20.9750    1.1570  -31.5640 H   0  0  0  0  0  0  0  0  0  0  0  0
  -19.0180   -1.4290  -33.4300 H   0  0  0  0  0  0  0  0  0  0  0  0
  -17.5810   -0.3920  -33.5460 H   0  0  0  0  0  0  0  0  0  0  0  0
  -17.0430   -0.6920  -31.2700 H   0  0  0  0  0  0  0  0  0  0  0  0
  -17.7790   -2.2720  -31.6930 H   0  0  0  0  0  0  0  0  0  0  0  0
  -18.4850    3.1030  -34.7940 H   0  0  0  0  0  0  0  0  0  0  0  0
  -17.6830    1.5310  -34.8300 H   0  0  0  0  0  0  0  0  0  0  0  0
  -20.4300    2.3550  -35.8410 H   0  0  0  0  0  0  0  0  0  0  0  0
  -20.4380    0.7970  -34.9770 H   0  0  0  0  0  0  0  0  0  0  0  0
  -19.3550    0.9870  -36.3770 H   0  0  0  0  0  0  0  0  0  0  0  0
  -17.8170   -1.1610  -23.6850 H   0  0  0  0  0  0  0  0  0  0  0  0
  -17.4640    2.9290  -25.6260 H   0  0  0  0  0  0  0  0  0  0  0  0
  -19.2240    2.7820  -26.0810 H   0  0  0  0  0  0  0  0  0  0  0  0
  -17.9880    2.7030  -27.3800 H   0  0  0  0  0  0  0  0  0  0  0  0
  1  2  1  0  0  0  0
  2  3  2  0  0  0  0
  2  7  1  0  0  0  0
  3  4  1  0  0  0  0
  4  8  1  0  0  0  0
  4  5  2  0  0  0  0
  5 32  1  0  0  0  0
  6  5  1  0  0  0  0
  6 33  1  0  0  0  0
  7  6  2  0  0  0  0
  8  9  1  0  0  0  0
  8 36  1  0  0  0  0
  9 10  1  0  0  0  0
 10 28  1  0  0  0  0
 11 10  2  0  0  0  0
 11 24  1  0  0  0  0
 12 11  1  0  0  0  0
 13 12  2  0  0  0  0
 13  9  1  0  0  0  0
 14 13  1  0  0  0  0
 15 14  1  0  0  0  0
 15 38  1  0  0  0  0
 16 40  1  0  0  0  0
 16 15  1  0  0  0  0
 17 16  1  0  0  0  0
 18 17  1  0  0  0  0
 18 19  1  0  0  0  0
 19 43  1  0  0  0  0
 19 14  1  0  0  0  0
 20 17  1  0  0  0  0
 20 21  2  0  0  0  0
 22 20  1  0  0  0  0
 23 48  1  0  0  0  0
 23 22  1  0  0  0  0
 24 25  1  0  0  0  0
 25 27  1  0  0  0  0
 25 26  2  0  0  0  0
 27 50  1  0  0  0  0
 28 29  2  0  0  0  0
 28 27  1  0  0  0  0
 30 24  1  0  0  0  0
 30 52  1  0  0  0  0
 30 51  1  0  0  0  0
 31  3  1  0  0  0  0
 34  7  1  0  0  0  0
 35  8  1  0  0  0  0
 37 15  1  0  0  0  0
 39 16  1  0  0  0  0
 41 18  1  0  0  0  0
 42 18  1  0  0  0  0
 44 19  1  0  0  0  0
 45 22  1  0  0  0  0
 46 22  1  0  0  0  0
 47 23  1  0  0  0  0
 49 23  1  0  0  0  0
 53 30  1  0  0  0  0
M  END
>  <Pose>
1

>  <Score>
-6.96

$$$$
