
 OpenBabel03222201593D

 45 48  0  0  0  0  0  0  0  0999 V2000
  -20.3070   -3.2730  -28.8250 Cl  0  0  0  0  0  0  0  0  0  0  0  0
  -19.5070   -1.8690  -28.1040 C   0  0  0  0  0  0  0  0  0  0  0  0
  -19.5570   -0.6650  -28.7710 C   0  0  0  0  0  0  0  0  0  0  0  0
  -18.9380    0.4350  -28.2210 C   0  0  0  0  0  0  0  0  0  0  0  0
  -18.2720    0.3490  -27.0160 C   0  0  0  0  0  0  0  0  0  0  0  0
  -18.2480   -0.8820  -26.3800 C   0  0  0  0  0  0  0  0  0  0  0  0
  -18.8530   -2.0040  -26.8960 C   0  0  0  0  0  0  0  0  0  0  0  0
  -17.6240    1.4750  -26.4260 N   0  0  0  0  0  0  0  0  0  0  0  0
  -16.5590    2.1150  -26.8410 N   0  0  0  0  0  0  0  0  0  0  0  0
  -16.2730    3.1360  -25.9800 C   0  0  0  0  0  0  0  0  0  0  0  0
  -17.2170    3.1230  -24.9770 C   0  0  0  0  0  0  0  0  0  0  0  0
  -18.0590    2.0540  -25.2940 C   0  0  0  0  0  0  0  0  0  0  0  0
  -20.2600   -0.5550  -30.0530 C   0  0  0  0  0  0  0  0  0  0  0  0
  -21.3950   -0.0140  -30.0160 O   0  0  0  0  0  0  0  0  0  0  0  0
  -19.6860   -1.0340  -31.2620 N   0  0  0  0  0  0  0  0  0  0  0  0
  -20.5580   -1.3110  -32.3820 C   0  0  0  0  0  0  0  0  0  0  0  0
  -19.7250   -1.1470  -33.6400 C   0  0  0  0  0  0  0  0  0  0  0  0
  -18.7080   -0.0360  -33.5040 C   0  0  0  0  0  0  0  0  0  0  0  0
  -18.1340    0.1790  -34.8130 N   0  0  0  0  0  0  0  0  0  0  0  0
  -18.9600    1.0940  -35.5160 C   0  0  0  0  0  0  0  0  0  0  0  0
  -19.0240    1.2870  -36.7710 O   0  0  0  0  0  0  0  0  0  0  0  0
  -19.7260    1.7770  -34.5200 N   0  0  0  0  0  0  0  0  0  0  0  0
  -19.3590    1.2720  -33.2350 C   0  0  0  0  0  0  0  0  0  0  0  0
  -19.5640    1.8470  -32.1320 O   0  0  0  0  0  0  0  0  0  0  0  0
  -20.7290    2.8240  -34.7270 C   0  0  0  0  0  0  0  0  0  0  0  0
  -17.6710   -0.3390  -32.4630 C   0  0  0  0  0  0  0  0  0  0  0  0
  -18.2720   -1.2650  -31.4490 C   0  0  0  0  0  0  0  0  0  0  0  0
  -18.9400    1.4100  -28.6950 H   0  0  0  0  0  0  0  0  0  0  0  0
  -17.7260   -0.9570  -25.4300 H   0  0  0  0  0  0  0  0  0  0  0  0
  -18.8090   -2.9640  -26.3580 H   0  0  0  0  0  0  0  0  0  0  0  0
  -15.4680    3.8550  -26.0250 H   0  0  0  0  0  0  0  0  0  0  0  0
  -17.2900    3.7990  -24.1260 H   0  0  0  0  0  0  0  0  0  0  0  0
  -18.9190    1.7580  -24.7060 H   0  0  0  0  0  0  0  0  0  0  0  0
  -20.9310   -2.3530  -32.3040 H   0  0  0  0  0  0  0  0  0  0  0  0
  -21.3800   -0.5690  -32.4390 H   0  0  0  0  0  0  0  0  0  0  0  0
  -19.2120   -2.1000  -33.8760 H   0  0  0  0  0  0  0  0  0  0  0  0
  -20.3740   -0.9240  -34.5100 H   0  0  0  0  0  0  0  0  0  0  0  0
  -17.2660   -0.2720  -35.1560 H   0  0  0  0  0  0  0  0  0  0  0  0
  -21.5550    2.7450  -33.9790 H   0  0  0  0  0  0  0  0  0  0  0  0
  -21.1370    2.7490  -35.7510 H   0  0  0  0  0  0  0  0  0  0  0  0
  -20.2780    3.8220  -34.5760 H   0  0  0  0  0  0  0  0  0  0  0  0
  -17.3740    0.6280  -32.0010 H   0  0  0  0  0  0  0  0  0  0  0  0
  -16.8160   -0.8360  -32.9680 H   0  0  0  0  0  0  0  0  0  0  0  0
  -18.1710   -2.3110  -31.8520 H   0  0  0  0  0  0  0  0  0  0  0  0
  -17.7180   -1.2640  -30.4820 H   0  0  0  0  0  0  0  0  0  0  0  0
  1  2  1  0  0  0  0
  2  7  1  0  0  0  0
  3  4  1  0  0  0  0
  3  2  2  0  0  0  0
  4  5  2  0  0  0  0
  5  8  1  0  0  0  0
  5  6  1  0  0  0  0
  6 29  1  0  0  0  0
  7  6  2  0  0  0  0
  7 30  1  0  0  0  0
  8 12  1  0  0  0  0
  9  8  1  0  0  0  0
  9 10  2  0  0  0  0
 10 11  1  0  0  0  0
 11 32  1  0  0  0  0
 12 11  2  0  0  0  0
 12 33  1  0  0  0  0
 13 14  2  0  0  0  0
 13  3  1  0  0  0  0
 15 13  1  0  0  0  0
 16 34  1  0  0  0  0
 16 15  1  0  0  0  0
 17 18  1  0  0  0  0
 17 16  1  0  0  0  0
 18 23  1  0  0  0  0
 18 26  1  0  0  0  0
 19 18  1  0  0  0  0
 20 19  1  0  0  0  0
 20 22  1  0  0  0  0
 21 20  2  0  0  0  0
 22 23  1  0  0  0  0
 23 24  2  0  0  0  0
 25 41  1  0  0  0  0
 25 22  1  0  0  0  0
 25 39  1  0  0  0  0
 26 42  1  0  0  0  0
 26 27  1  0  0  0  0
 27 15  1  0  0  0  0
 27 45  1  0  0  0  0
 28  4  1  0  0  0  0
 31 10  1  0  0  0  0
 35 16  1  0  0  0  0
 36 17  1  0  0  0  0
 37 17  1  0  0  0  0
 38 19  1  0  0  0  0
 40 25  1  0  0  0  0
 43 26  1  0  0  0  0
 44 27  1  0  0  0  0
M  END
>  <Pose>
1

>  <Score>
-6.91

$$$$
