
 OpenBabel03222201593D

 53 56  0  0  1  0  0  0  0  0999 V2000
  -21.9510   -6.4480  -32.4180 Cl  0  0  0  0  0  0  0  0  0  0  0  0
  -21.6030   -4.7760  -32.0780 C   0  0  0  0  0  0  0  0  0  0  0  0
  -21.2120   -4.3650  -30.8380 C   0  0  0  0  0  0  0  0  0  0  0  0
  -20.9480   -3.0200  -30.6210 C   0  0  0  0  0  0  0  0  0  0  0  0
  -21.0600   -2.0730  -31.5870 C   0  0  0  0  0  0  0  0  0  0  0  0
  -21.4600   -2.4970  -32.8540 C   0  0  0  0  0  0  0  0  0  0  0  0
  -21.7280   -3.8250  -33.0940 C   0  0  0  0  0  0  0  0  0  0  0  0
  -20.7900   -0.6600  -31.3510 C   0  0  1  0  0  0  0  0  0  0  0  0
  -19.5830   -0.5170  -30.5170 N   0  0  0  0  0  0  0  0  0  0  0  0
  -18.4490   -0.5040  -31.3740 C   0  0  0  0  0  0  0  0  0  0  0  0
  -17.2800   -0.7530  -31.0720 O   0  0  0  0  0  0  0  0  0  0  0  0
  -18.9230   -0.1300  -32.7200 C   0  0  0  0  0  0  0  0  0  0  0  0
  -18.2370   -0.0060  -33.7850 O   0  0  0  0  0  0  0  0  0  0  0  0
  -20.3580    0.0690  -32.5890 C   0  0  0  0  0  0  0  0  0  0  0  0
  -21.0890    0.7420  -33.4420 C   0  0  0  0  0  0  0  0  0  0  0  0
  -22.4600    0.8130  -33.2130 O   0  0  0  0  0  0  0  0  0  0  0  0
  -20.5980    1.4390  -34.6260 C   0  0  0  0  0  0  0  0  0  0  0  0
  -20.6730    2.8270  -34.5950 C   0  0  0  0  0  0  0  0  0  0  0  0
  -20.2080    3.5470  -35.6590 C   0  0  0  0  0  0  0  0  0  0  0  0
  -19.6660    2.9230  -36.7660 C   0  0  0  0  0  0  0  0  0  0  0  0
  -19.5940    1.5470  -36.7920 C   0  0  0  0  0  0  0  0  0  0  0  0
  -20.0660    0.8300  -35.7110 C   0  0  0  0  0  0  0  0  0  0  0  0
  -19.0900    3.8790  -38.0920 Cl  0  0  0  0  0  0  0  0  0  0  0  0
  -19.6700   -0.4040  -29.0830 C   0  0  0  0  0  0  0  0  0  0  0  0
  -18.7160   -1.2320  -28.3100 C   0  0  0  0  0  0  0  0  0  0  0  0
  -17.9380   -0.6170  -27.2990 N   0  0  0  0  0  4  0  0  0  0  0  0
  -17.7610   -1.4290  -26.1140 C   0  0  0  0  0  0  0  0  0  0  0  0
  -18.2060   -0.7500  -24.8410 C   0  0  0  0  0  0  0  0  0  0  0  0
  -17.7340    0.5260  -24.6740 O   0  0  0  0  0  0  0  0  0  0  0  0
  -17.8700    1.3190  -25.7980 C   0  0  0  0  0  0  0  0  0  0  0  0
  -18.6660    0.5820  -26.8320 C   0  0  0  0  0  0  0  0  0  0  0  0
  -21.1180   -5.1050  -30.0540 H   0  0  0  0  0  0  0  0  0  0  0  0
  -20.6410   -2.7510  -29.6310 H   0  0  0  0  0  0  0  0  0  0  0  0
  -21.5530   -1.7550  -33.6330 H   0  0  0  0  0  0  0  0  0  0  0  0
  -22.0380   -4.1910  -34.0570 H   0  0  0  0  0  0  0  0  0  0  0  0
  -21.6350   -0.1280  -30.8590 H   0  0  0  0  0  0  0  0  0  0  0  0
  -21.1030    3.3380  -33.7190 H   0  0  0  0  0  0  0  0  0  0  0  0
  -20.2860    4.6330  -35.5930 H   0  0  0  0  0  0  0  0  0  0  0  0
  -19.1650    1.0870  -37.6710 H   0  0  0  0  0  0  0  0  0  0  0  0
  -19.9830   -0.2610  -35.7430 H   0  0  0  0  0  0  0  0  0  0  0  0
  -20.7110   -0.7480  -28.7910 H   0  0  0  0  0  0  0  0  0  0  0  0
  -19.6750    0.6670  -28.7590 H   0  0  0  0  0  0  0  0  0  0  0  0
  -19.2550   -2.1280  -27.8650 H   0  0  0  0  0  0  0  0  0  0  0  0
  -17.9690   -1.7510  -28.9990 H   0  0  0  0  0  0  0  0  0  0  0  0
  -17.0390   -0.2400  -27.6400 H   0  0  0  0  0  0  0  0  0  0  0  0
  -16.6930   -1.7110  -26.0460 H   0  0  0  0  0  0  0  0  0  0  0  0
  -18.3420   -2.3730  -26.1650 H   0  0  0  0  0  0  0  0  0  0  0  0
  -17.8020   -1.3880  -24.0090 H   0  0  0  0  0  0  0  0  0  0  0  0
  -19.3120   -0.8240  -24.7400 H   0  0  0  0  0  0  0  0  0  0  0  0
  -18.3790    2.2710  -25.5900 H   0  0  0  0  0  0  0  0  0  0  0  0
  -16.8720    1.5390  -26.2350 H   0  0  0  0  0  0  0  0  0  0  0  0
  -19.6380    0.2330  -26.4480 H   0  0  0  0  0  0  0  0  0  0  0  0
  -18.8800    1.2560  -27.6960 H   0  0  0  0  0  0  0  0  0  0  0  0
  1  2  1  0  0  0  0
  2  3  1  0  0  0  0
  3  4  2  0  0  0  0
  3 32  1  0  0  0  0
  4 33  1  0  0  0  0
  5  8  1  0  0  0  0
  5  4  1  0  0  0  0
  6  5  2  0  0  0  0
  7  6  1  0  0  0  0
  7  2  2  0  0  0  0
  8 36  1  1  0  0  0
  8  9  1  0  0  0  0
  9 24  1  0  0  0  0
 10 11  2  0  0  0  0
 10  9  1  0  0  0  0
 12 14  1  0  0  0  0
 12 10  1  0  0  0  0
 13 12  2  0  0  0  0
 14  8  1  0  0  0  0
 15 16  1  0  0  0  0
 15 14  2  0  0  0  0
 17 18  1  0  0  0  0
 17 15  1  0  0  0  0
 18 37  1  0  0  0  0
 19 38  1  0  0  0  0
 19 18  2  0  0  0  0
 20 19  1  0  0  0  0
 21 20  2  0  0  0  0
 21 22  1  0  0  0  0
 22 17  2  0  0  0  0
 23 20  1  0  0  0  0
 24 41  1  0  0  0  0
 24 42  1  0  0  0  0
 24 25  1  0  0  0  0
 25 43  1  0  0  0  0
 25 26  1  0  0  0  0
 26 31  1  0  0  0  0
 26 27  1  0  0  0  0
 27 46  1  0  0  0  0
 27 28  1  0  0  0  0
 28 49  1  0  0  0  0
 28 29  1  0  0  0  0
 28 48  1  0  0  0  0
 30 50  1  0  0  0  0
 30 29  1  0  0  0  0
 31 52  1  0  0  0  0
 31 30  1  0  0  0  0
 34  6  1  0  0  0  0
 35  7  1  0  0  0  0
 39 21  1  0  0  0  0
 40 22  1  0  0  0  0
 44 25  1  0  0  0  0
 45 26  1  0  0  0  0
 47 27  1  0  0  0  0
 51 30  1  0  0  0  0
 53 31  1  0  0  0  0
M  END
>  <Pose>
1

>  <Score>
-5.55

$$$$
