
 OpenBabel03222201593D

 60 64  0  0  1  0  0  0  0  0999 V2000
  -17.8790    0.7590  -25.5620 Cl  0  0  0  0  0  0  0  0  0  0  0  0
  -18.5450    0.0530  -27.0420 C   0  0  0  0  0  0  0  0  0  0  0  0
  -18.8150   -1.2930  -27.1010 C   0  0  0  0  0  0  0  0  0  0  0  0
  -19.3380   -1.8490  -28.2600 C   0  0  0  0  0  0  0  0  0  0  0  0
  -19.6120   -1.1200  -29.3850 C   0  0  0  0  0  0  0  0  0  0  0  0
  -19.3270    0.2510  -29.2960 C   0  0  0  0  0  0  0  0  0  0  0  0
  -18.8080    0.8140  -28.1510 C   0  0  0  0  0  0  0  0  0  0  0  0
  -20.1450   -1.9980  -30.4140 C   0  0  1  0  0  0  0  0  0  0  0  0
  -21.5070   -1.5630  -30.7120 N   0  0  0  0  0  0  0  0  0  0  0  0
  -21.3630   -0.8750  -31.9660 C   0  0  1  0  0  0  0  0  0  0  0  0
  -20.4510   -1.8070  -32.7310 C   0  0  2  0  0  0  0  0  0  0  0  0
  -19.3800   -2.0530  -31.6910 C   0  0  1  0  0  0  0  0  0  0  0  0
  -18.3980   -1.0140  -31.9260 C   0  0  0  0  0  0  0  0  0  0  0  0
  -17.4870   -0.6540  -31.1480 O   0  0  0  0  0  0  0  0  0  0  0  0
  -18.6230   -0.4430  -33.2080 N   0  0  0  0  0  0  0  0  0  0  0  0
  -19.7350   -1.0980  -33.8210 C   0  0  0  0  0  0  0  0  0  0  0  0
  -20.0920   -1.1140  -35.0230 O   0  0  0  0  0  0  0  0  0  0  0  0
  -17.8950    0.6250  -33.8670 C   0  0  0  0  0  0  0  0  0  0  0  0
  -18.7860    1.7100  -34.3170 C   0  0  0  0  0  0  0  0  0  0  0  0
  -19.0360    1.8210  -35.6680 C   0  0  0  0  0  0  0  0  0  0  0  0
  -19.8750    2.8460  -36.0840 C   0  0  0  0  0  0  0  0  0  0  0  0
  -20.4370    3.7170  -35.1940 C   0  0  0  0  0  0  0  0  0  0  0  0
  -20.1640    3.5720  -33.8550 C   0  0  0  0  0  0  0  0  0  0  0  0
  -19.3390    2.5770  -33.3780 C   0  0  0  0  0  0  0  0  0  0  0  0
  -18.4580    0.9300  -36.5470 O   0  0  0  0  0  0  0  0  0  0  0  0
  -19.1380    0.2460  -37.5520 C   0  0  0  0  0  0  0  0  0  0  0  0
  -22.6980   -0.6930  -32.6540 C   0  0  0  0  0  0  0  0  0  0  0  0
  -22.6480    0.6480  -33.3540 C   0  0  0  0  0  0  0  0  0  0  0  0
  -23.4810    0.6600  -34.5820 C   0  0  0  0  0  0  0  0  0  0  0  0
  -22.9770    0.2840  -35.6770 O   0  0  0  0  0  0  0  0  0  0  0  0
  -24.8260    1.1010  -34.4530 N   0  0  0  0  0  0  0  0  0  0  0  0
  -20.1760   -3.3440  -29.7940 C   0  0  0  0  0  0  0  0  0  0  0  0
  -20.5730   -4.4290  -30.3130 O   0  0  0  0  0  0  0  0  0  0  0  0
  -19.6740   -3.2140  -28.4830 N   0  0  0  0  0  0  0  0  0  0  0  0
  -18.5330   -2.1300  -25.9020 C   0  0  0  0  0  0  0  0  0  0  0  0
  -19.5190    0.8870  -30.1450 H   0  0  0  0  0  0  0  0  0  0  0  0
  -18.6000    1.8790  -28.1180 H   0  0  0  0  0  0  0  0  0  0  0  0
  -21.8650   -0.9730  -29.9310 H   0  0  0  0  0  0  0  0  0  0  0  0
  -20.8900    0.1060  -31.9200 H   0  0  0  0  0  0  0  0  0  0  0  0
  -20.9530   -2.7220  -33.0650 H   0  0  0  0  0  0  0  0  0  0  0  0
  -18.9010   -3.0400  -31.8790 H   0  0  0  0  0  0  0  0  0  0  0  0
  -17.1250    1.0470  -33.1940 H   0  0  0  0  0  0  0  0  0  0  0  0
  -17.3360    0.1530  -34.7120 H   0  0  0  0  0  0  0  0  0  0  0  0
  -20.0770    2.9390  -37.1390 H   0  0  0  0  0  0  0  0  0  0  0  0
  -21.0950    4.5110  -35.5700 H   0  0  0  0  0  0  0  0  0  0  0  0
  -20.6030    4.2570  -33.1430 H   0  0  0  0  0  0  0  0  0  0  0  0
  -19.1240    2.4670  -32.3070 H   0  0  0  0  0  0  0  0  0  0  0  0
  -18.4120   -0.4390  -38.0460 H   0  0  0  0  0  0  0  0  0  0  0  0
  -19.4370    0.9790  -38.3320 H   0  0  0  0  0  0  0  0  0  0  0  0
  -19.9810   -0.3270  -37.1410 H   0  0  0  0  0  0  0  0  0  0  0  0
  -23.5470   -0.7700  -31.9560 H   0  0  0  0  0  0  0  0  0  0  0  0
  -22.7410   -1.4630  -33.4620 H   0  0  0  0  0  0  0  0  0  0  0  0
  -22.9140    1.4940  -32.6720 H   0  0  0  0  0  0  0  0  0  0  0  0
  -21.5950    0.8170  -33.6560 H   0  0  0  0  0  0  0  0  0  0  0  0
  -25.0700    1.6970  -33.6450 H   0  0  0  0  0  0  0  0  0  0  0  0
  -25.5030    0.7910  -35.1960 H   0  0  0  0  0  0  0  0  0  0  0  0
  -19.5720   -4.0080  -27.7960 H   0  0  0  0  0  0  0  0  0  0  0  0
  -17.6210   -2.7270  -26.0440 H   0  0  0  0  0  0  0  0  0  0  0  0
  -18.4300   -1.5120  -25.0100 H   0  0  0  0  0  0  0  0  0  0  0  0
  -19.3640   -2.8690  -25.7240 H   0  0  0  0  0  0  0  0  0  0  0  0
  2  1  1  0  0  0  0
  3  2  1  0  0  0  0
  3 35  1  0  0  0  0
  4  3  2  0  0  0  0
  5  6  2  0  0  0  0
  5  4  1  0  0  0  0
  6  7  1  0  0  0  0
  7 37  1  0  0  0  0
  7  2  2  0  0  0  0
  8 32  1  1  0  0  0
  8  5  1  0  0  0  0
  9  8  1  0  0  0  0
  9 38  1  0  0  0  0
 10 39  1  1  0  0  0
 10  9  1  0  0  0  0
 11 40  1  6  0  0  0
 11 10  1  0  0  0  0
 11 12  1  0  0  0  0
 12 41  1  6  0  0  0
 12  8  1  0  0  0  0
 13 12  1  0  0  0  0
 13 14  2  0  0  0  0
 15 13  1  0  0  0  0
 16 15  1  0  0  0  0
 16 11  1  0  0  0  0
 17 16  2  0  0  0  0
 18 15  1  0  0  0  0
 18 42  1  0  0  0  0
 19 18  1  0  0  0  0
 19 24  1  0  0  0  0
 20 19  2  0  0  0  0
 21 20  1  0  0  0  0
 21 22  2  0  0  0  0
 22 23  1  0  0  0  0
 23 24  2  0  0  0  0
 23 46  1  0  0  0  0
 24 47  1  0  0  0  0
 25 20  1  0  0  0  0
 26 50  1  0  0  0  0
 26 25  1  0  0  0  0
 27 10  1  0  0  0  0
 27 51  1  0  0  0  0
 28 53  1  0  0  0  0
 28 27  1  0  0  0  0
 29 31  1  0  0  0  0
 29 28  1  0  0  0  0
 30 29  2  0  0  0  0
 31 55  1  0  0  0  0
 32 34  1  0  0  0  0
 33 32  2  0  0  0  0
 34  4  1  0  0  0  0
 34 57  1  0  0  0  0
 35 60  1  0  0  0  0
 35 59  1  0  0  0  0
 36  6  1  0  0  0  0
 43 18  1  0  0  0  0
 44 21  1  0  0  0  0
 45 22  1  0  0  0  0
 48 26  1  0  0  0  0
 49 26  1  0  0  0  0
 52 27  1  0  0  0  0
 54 28  1  0  0  0  0
 56 31  1  0  0  0  0
 58 35  1  0  0  0  0
M  END
>  <Pose>
1

>  <Score>
-6.17

$$$$
