
 OpenBabel03222201593D

 42 45  0  0  1  0  0  0  0  0999 V2000
  -17.9890    3.9530  -34.2660 Cl  0  0  0  0  0  0  0  0  0  0  0  0
  -18.0700    2.2710  -33.7910 C   0  0  0  0  0  0  0  0  0  0  0  0
  -19.1600    1.7430  -33.1410 C   0  0  0  0  0  0  0  0  0  0  0  0
  -19.2500    0.4130  -32.7500 C   0  0  0  0  0  0  0  0  0  0  0  0
  -18.1630   -0.4030  -33.0480 C   0  0  0  0  0  0  0  0  0  0  0  0
  -17.0590    0.1000  -33.6980 C   0  0  0  0  0  0  0  0  0  0  0  0
  -17.0150    1.4280  -34.0660 C   0  0  0  0  0  0  0  0  0  0  0  0
  -20.4480   -0.1140  -32.0490 C   0  0  1  0  0  0  0  0  0  0  0  0
  -21.1390   -1.1410  -32.7740 N   0  0  0  0  0  0  0  0  0  0  0  0
  -20.7350   -2.4310  -32.3250 C   0  0  0  0  0  0  0  0  0  0  0  0
  -20.9180   -3.5390  -32.9070 O   0  0  0  0  0  0  0  0  0  0  0  0
  -20.0450   -2.2570  -31.0300 C   0  0  0  0  0  0  0  0  0  0  0  0
  -19.5520   -3.1830  -30.3470 O   0  0  0  0  0  0  0  0  0  0  0  0
  -20.0810   -0.8230  -30.7740 C   0  0  0  0  0  0  0  0  0  0  0  0
  -19.7960   -0.2780  -29.6100 C   0  0  0  0  0  0  0  0  0  0  0  0
  -19.8280    1.1290  -29.5380 O   0  0  0  0  0  0  0  0  0  0  0  0
  -19.4600   -1.0300  -28.4090 C   0  0  0  0  0  0  0  0  0  0  0  0
  -18.3200   -0.6800  -27.6710 C   0  0  0  0  0  0  0  0  0  0  0  0
  -17.9930   -1.3540  -26.5150 C   0  0  0  0  0  0  0  0  0  0  0  0
  -18.7570   -2.3930  -26.0270 C   0  0  0  0  0  0  0  0  0  0  0  0
  -19.8810   -2.7520  -26.7360 C   0  0  0  0  0  0  0  0  0  0  0  0
  -20.2100   -2.0680  -27.9070 C   0  0  0  0  0  0  0  0  0  0  0  0
  -22.0880   -0.9230  -33.7960 C   0  0  1  0  0  0  0  0  0  0  0  0
  -21.8220   -1.5130  -34.9910 N   0  0  0  0  0  0  0  0  0  0  0  0
  -22.6400   -1.3840  -36.0350 C   0  0  0  0  0  0  0  0  0  0  0  0
  -23.7810   -0.6320  -35.8760 C   0  0  0  0  0  0  0  0  0  0  0  0
  -24.0310   -0.0440  -34.6540 C   0  0  0  0  0  0  0  0  0  0  0  0
  -23.1990   -0.1780  -33.6060 N   0  0  0  0  0  0  0  0  0  0  0  0
  -19.9720    2.4250  -32.9340 H   0  0  0  0  0  0  0  0  0  0  0  0
  -18.2180   -1.4450  -32.7460 H   0  0  0  0  0  0  0  0  0  0  0  0
  -16.2010   -0.5480  -33.9320 H   0  0  0  0  0  0  0  0  0  0  0  0
  -16.1440    1.8130  -34.5780 H   0  0  0  0  0  0  0  0  0  0  0  0
  -21.1100    0.7560  -31.8470 H   0  0  0  0  0  0  0  0  0  0  0  0
  -17.7230    0.1410  -28.0600 H   0  0  0  0  0  0  0  0  0  0  0  0
  -17.1040   -1.0490  -25.9790 H   0  0  0  0  0  0  0  0  0  0  0  0
  -18.5210   -2.9340  -25.1210 H   0  0  0  0  0  0  0  0  0  0  0  0
  -20.5040   -3.5770  -26.3690 H   0  0  0  0  0  0  0  0  0  0  0  0
  -21.1230   -2.3700  -28.4290 H   0  0  0  0  0  0  0  0  0  0  0  0
  -20.9490   -2.0960  -35.1220 H   0  0  0  0  0  0  0  0  0  0  0  0
  -22.3890   -1.8680  -36.9700 H   0  0  0  0  0  0  0  0  0  0  0  0
  -24.4530   -0.5200  -36.7170 H   0  0  0  0  0  0  0  0  0  0  0  0
  -24.9410    0.5360  -34.5790 H   0  0  0  0  0  0  0  0  0  0  0  0
  1  2  1  0  0  0  0
  2  3  1  0  0  0  0
  3 29  1  0  0  0  0
  3  4  2  0  0  0  0
  4  8  1  0  0  0  0
  5  4  1  0  0  0  0
  5 30  1  0  0  0  0
  6  5  2  0  0  0  0
  7  2  2  0  0  0  0
  7  6  1  0  0  0  0
  8 33  1  1  0  0  0
  8 14  1  0  0  0  0
  9 10  1  0  0  0  0
  9  8  1  0  0  0  0
 10 12  1  0  0  0  0
 11 10  2  0  0  0  0
 12 14  1  0  0  0  0
 12 13  2  0  0  0  0
 14 15  2  0  0  0  0
 15 16  1  0  0  0  0
 15 17  1  0  0  0  0
 17 22  2  0  0  0  0
 17 18  1  0  0  0  0
 18 19  2  0  0  0  0
 19 20  1  0  0  0  0
 19 35  1  0  0  0  0
 20 36  1  0  0  0  0
 21 37  1  0  0  0  0
 21 20  2  0  0  0  0
 22 21  1  0  0  0  0
 23 28  1  0  0  0  0
 23  9  1  1  0  0  0
 24 23  1  0  0  0  0
 25 26  2  0  0  0  0
 25 24  1  0  0  0  0
 26 27  1  0  0  0  0
 27 42  1  0  0  0  0
 27 28  2  0  0  0  0
 31  6  1  0  0  0  0
 32  7  1  0  0  0  0
 34 18  1  0  0  0  0
 38 22  1  0  0  0  0
 39 24  1  0  0  0  0
 40 25  1  0  0  0  0
 41 26  1  0  0  0  0
M  END
>  <Pose>
1

>  <Score>
-5.49

$$$$
