
 OpenBabel03222201593D

 32 35  0  0  1  0  0  0  0  0999 V2000
  -19.2730    3.8570  -38.6910 Cl  0  0  0  0  0  0  0  0  0  0  0  0
  -19.9480    2.4530  -39.5220 C   0  0  0  0  0  0  0  0  0  0  0  0
  -20.9560    1.7020  -38.9680 C   0  0  0  0  0  0  0  0  0  0  0  0
  -21.4760    0.5900  -39.6490 C   0  0  0  0  0  0  0  0  0  0  0  0
  -21.0030    0.2200  -40.8760 C   0  0  0  0  0  0  0  0  0  0  0  0
  -19.9710    0.9850  -41.4500 C   0  0  0  0  0  0  0  0  0  0  0  0
  -19.4840    2.0660  -40.7570 C   0  0  0  0  0  0  0  0  0  0  0  0
  -21.6660   -0.9260  -41.3830 N   0  0  0  0  0  0  0  0  0  0  0  0
  -22.6210   -1.3010  -40.4060 C   0  0  0  0  0  0  0  0  0  0  0  0
  -23.4000   -2.2920  -40.5260 O   0  0  0  0  0  0  0  0  0  0  0  0
  -22.5470   -0.3610  -39.2660 C   0  0  1  0  0  0  0  0  0  0  0  0
  -22.1560   -1.1780  -38.0520 C   0  0  0  0  0  0  0  0  0  0  0  0
  -23.3700   -2.0000  -37.7270 C   0  0  0  0  0  0  0  0  0  0  0  0
  -23.3430   -3.2380  -37.6070 O   0  0  0  0  0  0  0  0  0  0  0  0
  -24.5950   -1.2770  -37.5570 N   0  0  0  0  0  0  0  0  0  0  0  0
  -24.7900   -0.0570  -38.2600 C   0  0  0  0  0  0  0  0  0  0  0  0
  -25.8160    0.8370  -38.2980 N   0  0  0  0  0  0  0  0  0  0  0  0
  -25.4820    1.8090  -39.1120 N   0  0  0  0  0  0  0  0  0  0  0  0
  -24.2600    1.6060  -39.6300 C   0  0  0  0  0  0  0  0  0  0  0  0
  -23.7970    0.4000  -39.0890 C   0  0  0  0  0  0  0  0  0  0  0  0
  -21.3990   -1.5790  -42.6680 C   0  0  0  0  0  0  0  0  0  0  0  0
  -21.3530    1.9530  -38.0190 H   0  0  0  0  0  0  0  0  0  0  0  0
  -19.5980    0.6880  -42.4220 H   0  0  0  0  0  0  0  0  0  0  0  0
  -18.6830    2.6510  -41.2120 H   0  0  0  0  0  0  0  0  0  0  0  0
  -21.8410   -0.5760  -37.1980 H   0  0  0  0  0  0  0  0  0  0  0  0
  -21.3870   -1.8990  -38.3910 H   0  0  0  0  0  0  0  0  0  0  0  0
  -25.3470   -1.6310  -36.9260 H   0  0  0  0  0  0  0  0  0  0  0  0
  -26.6970    0.7150  -37.7480 H   0  0  0  0  0  0  0  0  0  0  0  0
  -23.6920    2.2010  -40.3220 H   0  0  0  0  0  0  0  0  0  0  0  0
  -21.9940   -2.5150  -42.6840 H   0  0  0  0  0  0  0  0  0  0  0  0
  -21.6060   -0.9210  -43.5190 H   0  0  0  0  0  0  0  0  0  0  0  0
  -20.3130   -1.8650  -42.7470 H   0  0  0  0  0  0  0  0  0  0  0  0
  2  3  1  0  0  0  0
  2  1  1  0  0  0  0
  3 22  1  0  0  0  0
  4 11  1  0  0  0  0
  4  3  2  0  0  0  0
  5  4  1  0  0  0  0
  6  5  2  0  0  0  0
  6  7  1  0  0  0  0
  7  2  2  0  0  0  0
  8  5  1  0  0  0  0
  8  9  1  0  0  0  0
 10  9  2  0  0  0  0
 11  9  1  6  0  0  0
 11 20  1  0  0  0  0
 11 12  1  0  0  0  0
 12 13  1  0  0  0  0
 12 25  1  0  0  0  0
 13 14  2  0  0  0  0
 13 15  1  0  0  0  0
 15 27  1  0  0  0  0
 16 15  1  0  0  0  0
 17 16  1  0  0  0  0
 17 28  1  0  0  0  0
 18 17  1  0  0  0  0
 19 18  2  0  0  0  0
 19 20  1  0  0  0  0
 20 16  2  0  0  0  0
 21  8  1  0  0  0  0
 23  6  1  0  0  0  0
 24  7  1  0  0  0  0
 26 12  1  0  0  0  0
 29 19  1  0  0  0  0
 30 21  1  0  0  0  0
 31 21  1  0  0  0  0
 32 21  1  0  0  0  0
M  END
>  <Pose>
1

>  <Score>
-4.93

$$$$
