
 OpenBabel03222201593D

 52 55  0  0  0  0  0  0  0  0999 V2000
  -22.4930   -2.4360  -35.2260 Cl  0  0  0  0  0  0  0  0  0  0  0  0
  -21.9030   -2.8900  -33.6590 C   0  0  0  0  0  0  0  0  0  0  0  0
  -20.9150   -2.2120  -32.9830 C   0  0  0  0  0  0  0  0  0  0  0  0
  -20.4610   -2.5870  -31.7330 C   0  0  0  0  0  0  0  0  0  0  0  0
  -20.9930   -3.6820  -31.1020 C   0  0  0  0  0  0  0  0  0  0  0  0
  -21.9850   -4.3570  -31.7940 C   0  0  0  0  0  0  0  0  0  0  0  0
  -22.4510   -3.9980  -33.0400 C   0  0  0  0  0  0  0  0  0  0  0  0
  -20.6280   -4.1390  -29.8100 N   0  0  0  0  0  0  0  0  0  0  0  0
  -20.6680   -5.3650  -29.3620 N   0  0  0  0  0  0  0  0  0  0  0  0
  -20.2730   -5.4610  -28.0880 C   0  0  0  0  0  0  0  0  0  0  0  0
  -19.9470   -4.1770  -27.6740 C   0  0  0  0  0  0  0  0  0  0  0  0
  -20.1840   -3.3750  -28.7860 C   0  0  0  0  0  0  0  0  0  0  0  0
  -19.9360   -2.0710  -28.6380 N   0  0  0  0  0  0  0  0  0  0  0  0
  -19.4820   -1.5620  -27.4720 C   0  0  0  0  0  0  0  0  0  0  0  0
  -19.2440   -2.3100  -26.3830 N   0  0  0  0  0  0  0  0  0  0  0  0
  -19.4840   -3.6420  -26.4940 C   0  0  0  0  0  0  0  0  0  0  0  0
  -19.2740   -4.3830  -25.5010 O   0  0  0  0  0  0  0  0  0  0  0  0
  -18.7650   -1.7610  -25.1110 C   0  0  0  0  0  0  0  0  0  0  0  0
  -17.7970   -0.6670  -25.3090 C   0  0  0  0  0  0  0  0  0  0  0  0
  -16.7390   -1.0000  -25.9510 O   0  0  0  0  0  0  0  0  0  0  0  0
  -17.9210    0.6520  -24.8810 N   0  0  0  0  0  0  0  0  0  0  0  0
  -18.3900    1.7060  -25.7940 C   0  0  0  0  0  0  0  0  0  0  0  0
  -17.1800    2.6370  -25.9450 C   0  0  0  0  0  0  0  0  0  0  0  0
  -16.6850    3.0300  -24.6520 N   0  0  0  0  0  0  0  0  0  0  0  0
  -17.4160    2.5660  -23.4880 C   0  0  0  0  0  0  0  0  0  0  0  0
  -17.6340    1.0750  -23.5280 C   0  0  0  0  0  0  0  0  0  0  0  0
  -15.5190    3.8150  -24.5170 C   0  0  0  0  0  0  0  0  0  0  0  0
  -14.5310    3.3020  -23.8710 O   0  0  0  0  0  0  0  0  0  0  0  0
  -15.3310    5.0850  -25.0140 O   0  0  0  0  0  0  0  0  0  0  0  0
  -16.4480    5.9720  -25.2140 C   0  0  0  0  0  0  0  0  0  0  0  0
  -16.9860    5.6680  -26.6010 C   0  0  0  0  0  0  0  0  0  0  0  0
  -20.5100   -1.3330  -33.5130 H   0  0  0  0  0  0  0  0  0  0  0  0
  -19.6860   -2.0300  -31.2410 H   0  0  0  0  0  0  0  0  0  0  0  0
  -22.4270   -5.2430  -31.3070 H   0  0  0  0  0  0  0  0  0  0  0  0
  -23.2360   -4.6010  -33.4880 H   0  0  0  0  0  0  0  0  0  0  0  0
  -20.1870   -6.3020  -27.4230 H   0  0  0  0  0  0  0  0  0  0  0  0
  -19.2860   -0.4860  -27.3730 H   0  0  0  0  0  0  0  0  0  0  0  0
  -18.2210   -2.5740  -24.5370 H   0  0  0  0  0  0  0  0  0  0  0  0
  -19.6530   -1.4570  -24.5340 H   0  0  0  0  0  0  0  0  0  0  0  0
  -19.2620    2.2330  -25.3830 H   0  0  0  0  0  0  0  0  0  0  0  0
  -18.5680    1.2460  -26.7640 H   0  0  0  0  0  0  0  0  0  0  0  0
  -17.4850    3.4660  -26.6010 H   0  0  0  0  0  0  0  0  0  0  0  0
  -16.3820    2.0640  -26.5070 H   0  0  0  0  0  0  0  0  0  0  0  0
  -18.3560    3.1320  -23.4490 H   0  0  0  0  0  0  0  0  0  0  0  0
  -16.7880    2.7910  -22.5830 H   0  0  0  0  0  0  0  0  0  0  0  0
  -18.5990    0.9080  -22.9550 H   0  0  0  0  0  0  0  0  0  0  0  0
  -16.8270    0.4850  -23.0670 H   0  0  0  0  0  0  0  0  0  0  0  0
  -17.2550    5.7050  -24.4610 H   0  0  0  0  0  0  0  0  0  0  0  0
  -16.2060    7.0170  -25.1280 H   0  0  0  0  0  0  0  0  0  0  0  0
  -18.0730    5.5740  -26.6540 H   0  0  0  0  0  0  0  0  0  0  0  0
  -16.5670    6.4720  -27.2790 H   0  0  0  0  0  0  0  0  0  0  0  0
  -16.5380    4.7290  -26.9480 H   0  0  0  0  0  0  0  0  0  0  0  0
  1  2  1  0  0  0  0
  2  7  2  0  0  0  0
  2  3  1  0  0  0  0
  3  4  2  0  0  0  0
  4 33  1  0  0  0  0
  4  5  1  0  0  0  0
  5  8  1  0  0  0  0
  6 34  1  0  0  0  0
  6  5  2  0  0  0  0
  7  6  1  0  0  0  0
  8  9  1  0  0  0  0
  8 12  1  0  0  0  0
  9 10  2  0  0  0  0
 10 11  1  0  0  0  0
 10 36  1  0  0  0  0
 11 16  1  0  0  0  0
 12 13  1  0  0  0  0
 12 11  2  0  0  0  0
 13 14  2  0  0  0  0
 14 37  1  0  0  0  0
 14 15  1  0  0  0  0
 15 18  1  0  0  0  0
 16 15  1  0  0  0  0
 16 17  2  0  0  0  0
 18 38  1  0  0  0  0
 18 39  1  0  0  0  0
 19 18  1  0  0  0  0
 19 21  1  0  0  0  0
 20 19  2  0  0  0  0
 21 26  1  0  0  0  0
 22 40  1  0  0  0  0
 22 21  1  0  0  0  0
 23 22  1  0  0  0  0
 23 24  1  0  0  0  0
 24 27  1  0  0  0  0
 24 25  1  0  0  0  0
 25 44  1  0  0  0  0
 25 45  1  0  0  0  0
 26 25  1  0  0  0  0
 26 47  1  0  0  0  0
 26 46  1  0  0  0  0
 27 28  2  0  0  0  0
 29 27  1  0  0  0  0
 30 49  1  0  0  0  0
 30 29  1  0  0  0  0
 30 48  1  0  0  0  0
 31 30  1  0  0  0  0
 32  3  1  0  0  0  0
 35  7  1  0  0  0  0
 41 22  1  0  0  0  0
 42 23  1  0  0  0  0
 43 23  1  0  0  0  0
 50 31  1  0  0  0  0
 51 31  1  0  0  0  0
 52 31  1  0  0  0  0
M  END
>  <Pose>
1

>  <Score>
-7.30

$$$$
