
 OpenBabel03222201593D

 54 58  0  0  1  0  0  0  0  0999 V2000
  -20.0840   -4.7370  -28.5940 S   0  0  0  0  0  0  0  0  0  0  0  0
  -18.6350   -5.2020  -28.6450 O   0  0  0  0  0  0  0  0  0  0  0  0
  -20.8620   -6.0070  -28.2460 O   0  0  0  0  0  0  0  0  0  0  0  0
  -20.2400   -3.6750  -27.3030 N   0  0  0  0  0  0  0  0  0  0  0  0
  -19.3730   -3.8950  -26.1750 C   0  0  0  0  0  0  0  0  0  0  0  0
  -18.7410   -2.6080  -25.6980 C   0  0  0  0  0  0  0  0  0  0  0  0
  -18.0460   -1.9360  -26.8240 N   0  0  0  0  0  0  0  0  0  0  0  0
  -19.0580   -1.5630  -27.8020 C   0  0  0  0  0  0  0  0  0  0  0  0
  -20.3800   -2.2820  -27.5970 C   0  0  0  0  0  0  0  0  0  0  0  0
  -17.4920   -0.7420  -26.2220 C   0  0  0  0  0  0  0  0  0  0  0  0
  -18.3510    0.4460  -26.1340 C   0  0  0  0  0  0  0  0  0  0  0  0
  -17.7930    1.6970  -25.7460 N   0  0  0  0  0  0  0  0  0  0  0  0
  -17.3210    2.1520  -24.4830 C   0  0  0  0  0  0  0  0  0  0  0  0
  -17.6910    1.7200  -23.3810 O   0  0  0  0  0  0  0  0  0  0  0  0
  -16.3190    3.2220  -24.7050 C   0  0  1  0  0  0  0  0  0  0  0  0
  -16.8380    3.8190  -26.0330 C   0  0  2  0  0  0  0  0  0  0  0  0
  -17.6200    5.0190  -25.6510 C   0  0  1  0  0  0  0  0  0  0  0  0
  -18.0110    4.7030  -24.1980 C   0  0  0  0  0  0  0  0  0  0  0  0
  -16.5690    4.3610  -23.7820 C   0  0  2  0  0  0  0  0  0  0  0  0
  -15.8680    5.5530  -24.3670 C   0  0  0  0  0  0  0  0  0  0  0  0
  -16.6080    6.1000  -25.3320 C   0  0  0  0  0  0  0  0  0  0  0  0
  -17.5710    2.7550  -26.7050 C   0  0  0  0  0  0  0  0  0  0  0  0
  -17.9310    2.7850  -27.9080 O   0  0  0  0  0  0  0  0  0  0  0  0
  -20.6400   -4.2040  -30.1290 C   0  0  0  0  0  0  0  0  0  0  0  0
  -21.4110   -5.0210  -30.9210 C   0  0  0  0  0  0  0  0  0  0  0  0
  -21.8490   -4.5530  -32.1470 C   0  0  0  0  0  0  0  0  0  0  0  0
  -21.5410   -3.2880  -32.6130 C   0  0  0  0  0  0  0  0  0  0  0  0
  -20.7680   -2.4720  -31.8150 C   0  0  0  0  0  0  0  0  0  0  0  0
  -20.3280   -2.9430  -30.5830 C   0  0  0  0  0  0  0  0  0  0  0  0
  -22.1430   -2.6440  -34.3040 B   0  0  0  0  0  0  0  0  0  0  0  0
  -20.0110   -4.2560  -25.3340 H   0  0  0  0  0  0  0  0  0  0  0  0
  -18.6340   -4.6660  -26.3890 H   0  0  0  0  0  0  0  0  0  0  0  0
  -17.9570   -2.8530  -24.9600 H   0  0  0  0  0  0  0  0  0  0  0  0
  -19.4560   -1.9070  -25.2300 H   0  0  0  0  0  0  0  0  0  0  0  0
  -18.7150   -1.8900  -28.7980 H   0  0  0  0  0  0  0  0  0  0  0  0
  -19.1810   -0.4670  -27.7540 H   0  0  0  0  0  0  0  0  0  0  0  0
  -21.0590   -2.1420  -28.4360 H   0  0  0  0  0  0  0  0  0  0  0  0
  -20.8580   -1.8130  -26.7070 H   0  0  0  0  0  0  0  0  0  0  0  0
  -16.5760   -0.4280  -26.8180 H   0  0  0  0  0  0  0  0  0  0  0  0
  -17.0230   -1.0230  -25.2260 H   0  0  0  0  0  0  0  0  0  0  0  0
  -18.7950    0.5920  -27.1740 H   0  0  0  0  0  0  0  0  0  0  0  0
  -19.2440    0.1720  -25.5050 H   0  0  0  0  0  0  0  0  0  0  0  0
  -15.2960    2.8670  -24.7760 H   0  0  0  0  0  0  0  0  0  0  0  0
  -15.9560    4.1740  -26.6380 H   0  0  0  0  0  0  0  0  0  0  0  0
  -18.4330    5.3230  -26.2670 H   0  0  0  0  0  0  0  0  0  0  0  0
  -18.3760    5.5860  -23.6620 H   0  0  0  0  0  0  0  0  0  0  0  0
  -18.6240    3.8120  -24.1000 H   0  0  0  0  0  0  0  0  0  0  0  0
  -16.4270    4.2170  -22.7390 H   0  0  0  0  0  0  0  0  0  0  0  0
  -14.9010    5.9530  -24.0850 H   0  0  0  0  0  0  0  0  0  0  0  0
  -16.5110    7.0740  -25.7740 H   0  0  0  0  0  0  0  0  0  0  0  0
  -21.6890   -6.0380  -30.6020 H   0  0  0  0  0  0  0  0  0  0  0  0
  -22.4600   -5.2030  -32.7730 H   0  0  0  0  0  0  0  0  0  0  0  0
  -20.5340   -1.4890  -32.1910 H   0  0  0  0  0  0  0  0  0  0  0  0
  -19.7300   -2.2380  -30.0220 H   0  0  0  0  0  0  0  0  0  0  0  0
  1  3  2  0  0  0  0
  1  4  1  0  0  0  0
  2  1  2  0  0  0  0
  4  5  1  0  0  0  0
  5  6  1  0  0  0  0
  5 31  1  0  0  0  0
  6 34  1  0  0  0  0
  6 33  1  0  0  0  0
  7 10  1  0  0  0  0
  7  6  1  0  0  0  0
  8 36  1  0  0  0  0
  8  9  1  0  0  0  0
  8  7  1  0  0  0  0
  9  4  1  0  0  0  0
  9 38  1  0  0  0  0
 10 11  1  0  0  0  0
 10 40  1  0  0  0  0
 11 12  1  0  0  0  0
 11 42  1  0  0  0  0
 12 13  1  0  0  0  0
 13 14  2  0  0  0  0
 15 43  1  6  0  0  0
 15 13  1  0  0  0  0
 15 19  1  0  0  0  0
 16 44  1  6  0  0  0
 16 17  1  0  0  0  0
 16 15  1  0  0  0  0
 17 45  1  6  0  0  0
 17 21  1  0  0  0  0
 17 18  1  0  0  0  0
 18 47  1  0  0  0  0
 18 19  1  0  0  0  0
 18 46  1  0  0  0  0
 19 48  1  1  0  0  0
 20 49  1  0  0  0  0
 20 19  1  0  0  0  0
 21 20  1  0  0  0  0
 22 16  1  0  0  0  0
 22 12  1  0  0  0  0
 23 22  2  0  0  0  0
 24  1  1  0  0  0  0
 25 51  1  0  0  0  0
 25 24  2  0  0  0  0
 26 25  1  0  0  0  0
 27 26  2  0  0  0  0
 27 28  1  0  0  0  0
 28 29  2  0  0  0  0
 29 24  1  0  0  0  0
 29 54  1  0  0  0  0
 30 27  1  0  0  0  0
 32  5  1  0  0  0  0
 35  8  1  0  0  0  0
 37  9  1  0  0  0  0
 39 10  1  0  0  0  0
 41 11  1  0  0  0  0
 50 21  1  0  0  0  0
 52 26  1  0  0  0  0
 53 28  1  0  0  0  0
M  END
>  <Pose>
1

>  <Score>
-6.80

$$$$
