
 OpenBabel03222201593D

 37 40  0  0  0  0  0  0  0  0999 V2000
  -17.4700    2.0900  -27.1180 B   0  0  0  0  0  0  0  0  0  0  0  0
  -18.1790    0.3150  -27.1060 C   0  0  0  0  0  0  0  0  0  0  0  0
  -18.2140   -0.4180  -25.9390 C   0  0  0  0  0  0  0  0  0  0  0  0
  -18.7200   -1.6970  -25.9090 C   0  0  0  0  0  0  0  0  0  0  0  0
  -18.8780   -2.6270  -24.9370 N   0  0  0  0  0  0  0  0  0  0  0  0
  -19.4270   -3.6910  -25.4920 N   0  0  0  0  0  0  0  0  0  0  0  0
  -19.6370   -3.5120  -26.7670 N   0  0  0  0  0  0  0  0  0  0  0  0
  -19.2010   -2.2590  -27.0660 C   0  0  0  0  0  0  0  0  0  0  0  0
  -19.1670   -1.5290  -28.2410 C   0  0  0  0  0  0  0  0  0  0  0  0
  -18.6560   -0.2390  -28.2650 C   0  0  0  0  0  0  0  0  0  0  0  0
  -19.6850   -2.1490  -29.4560 C   0  0  0  0  0  0  0  0  0  0  0  0
  -19.5540   -3.3800  -29.6000 O   0  0  0  0  0  0  0  0  0  0  0  0
  -20.3290   -1.4060  -30.4770 N   0  0  0  0  0  0  0  0  0  0  0  0
  -19.7580   -1.2910  -31.7960 C   0  0  0  0  0  0  0  0  0  0  0  0
  -20.7980   -1.6740  -32.8130 C   0  0  0  0  0  0  0  0  0  0  0  0
  -21.8090   -0.9130  -33.2620 N   0  0  0  0  0  0  0  0  0  0  0  0
  -22.5440   -1.5860  -34.1730 C   0  0  0  0  0  0  0  0  0  0  0  0
  -21.9740   -2.7910  -34.2880 N   0  0  0  0  0  0  0  0  0  0  0  0
  -20.9170   -2.8480  -33.4650 N   0  0  0  0  0  0  0  0  0  0  0  0
  -23.7030   -0.8550  -34.7570 C   0  0  0  0  0  0  0  0  0  0  0  0
  -23.1050    0.4520  -35.2990 C   0  0  0  0  0  0  0  0  0  0  0  0
  -22.3350    1.2040  -34.2630 C   0  0  0  0  0  0  0  0  0  0  0  0
  -22.2340    0.4360  -32.9630 C   0  0  0  0  0  0  0  0  0  0  0  0
  -17.8380    0.0190  -25.0260 H   0  0  0  0  0  0  0  0  0  0  0  0
  -20.0470   -4.1320  -27.4950 H   0  0  0  0  0  0  0  0  0  0  0  0
  -18.6530    0.2910  -29.2120 H   0  0  0  0  0  0  0  0  0  0  0  0
  -21.2270   -0.9350  -30.2770 H   0  0  0  0  0  0  0  0  0  0  0  0
  -19.3250   -0.3100  -31.9870 H   0  0  0  0  0  0  0  0  0  0  0  0
  -18.9460   -2.0670  -31.8620 H   0  0  0  0  0  0  0  0  0  0  0  0
  -24.4660   -0.6600  -33.9940 H   0  0  0  0  0  0  0  0  0  0  0  0
  -24.1040   -1.3800  -35.6590 H   0  0  0  0  0  0  0  0  0  0  0  0
  -22.4050    0.1350  -36.0970 H   0  0  0  0  0  0  0  0  0  0  0  0
  -23.8890    1.0730  -35.7730 H   0  0  0  0  0  0  0  0  0  0  0  0
  -22.7420    2.2280  -34.0820 H   0  0  0  0  0  0  0  0  0  0  0  0
  -21.2960    1.3650  -34.6120 H   0  0  0  0  0  0  0  0  0  0  0  0
  -23.2590    0.3670  -32.5330 H   0  0  0  0  0  0  0  0  0  0  0  0
  -21.5480    0.9100  -32.2510 H   0  0  0  0  0  0  0  0  0  0  0  0
  1  2  1  0  0  0  0
  2  3  1  0  0  0  0
  3  4  2  0  0  0  0
  3 24  1  0  0  0  0
  4  5  1  0  0  0  0
  6  5  2  0  0  0  0
  7  6  1  0  0  0  0
  8  7  1  0  0  0  0
  8  4  1  0  0  0  0
  9  8  2  0  0  0  0
 10  9  1  0  0  0  0
 10  2  2  0  0  0  0
 11  9  1  0  0  0  0
 12 11  2  0  0  0  0
 13 27  1  0  0  0  0
 13 11  1  0  0  0  0
 14 13  1  0  0  0  0
 15 14  1  0  0  0  0
 16 23  1  0  0  0  0
 16 15  1  0  0  0  0
 17 16  1  0  0  0  0
 18 17  2  0  0  0  0
 18 19  1  0  0  0  0
 19 15  2  0  0  0  0
 20 17  1  0  0  0  0
 20 30  1  0  0  0  0
 21 20  1  0  0  0  0
 21 22  1  0  0  0  0
 22 34  1  0  0  0  0
 22 23  1  0  0  0  0
 23 36  1  0  0  0  0
 23 37  1  0  0  0  0
 25  7  1  0  0  0  0
 26 10  1  0  0  0  0
 28 14  1  0  0  0  0
 29 14  1  0  0  0  0
 31 20  1  0  0  0  0
 32 21  1  0  0  0  0
 33 21  1  0  0  0  0
 35 22  1  0  0  0  0
M  END
>  <Pose>
1

>  <Score>
-6.73

$$$$
