
 OpenBabel03222201593D

 40 43  0  0  0  0  0  0  0  0999 V2000
  -20.9690    0.2690  -37.4940 Cl  0  0  0  0  0  0  0  0  0  0  0  0
  -20.4220   -0.1930  -35.8830 C   0  0  0  0  0  0  0  0  0  0  0  0
  -19.2520    0.2920  -35.3400 C   0  0  0  0  0  0  0  0  0  0  0  0
  -18.8720   -0.1040  -34.0730 C   0  0  0  0  0  0  0  0  0  0  0  0
  -17.8030    0.1910  -33.2850 N   0  0  0  0  0  0  0  0  0  0  0  0
  -17.9190   -0.4740  -32.1220 C   0  0  0  0  0  0  0  0  0  0  0  0
  -19.0510   -1.2100  -32.1200 N   0  0  0  0  0  0  0  0  0  0  0  0
  -19.6250   -0.9780  -33.3140 C   0  0  0  0  0  0  0  0  0  0  0  0
  -20.7950   -1.4670  -33.8470 C   0  0  0  0  0  0  0  0  0  0  0  0
  -21.1670   -1.0670  -35.1140 C   0  0  0  0  0  0  0  0  0  0  0  0
  -19.5070   -2.0550  -31.0380 C   0  0  0  0  0  0  0  0  0  0  0  0
  -20.4660   -1.3270  -30.1230 C   0  0  0  0  0  0  0  0  0  0  0  0
  -19.7770   -1.0690  -28.8630 N   0  0  0  0  0  0  0  0  0  0  0  0
  -19.6030   -2.0560  -27.9560 C   0  0  0  0  0  0  0  0  0  0  0  0
  -18.9560   -1.8450  -26.7580 C   0  0  0  0  0  0  0  0  0  0  0  0
  -18.4380   -0.5190  -26.4450 C   0  0  0  0  0  0  0  0  0  0  0  0
  -17.8690   -0.6150  -25.2350 N   0  0  0  0  0  0  0  0  0  0  0  0
  -17.9820   -1.8660  -24.7640 N   0  0  0  0  0  0  0  0  0  0  0  0
  -18.6320   -2.6190  -25.6650 C   0  0  0  0  0  0  0  0  0  0  0  0
  -18.8890   -3.8350  -25.5100 O   0  0  0  0  0  0  0  0  0  0  0  0
  -18.6330    0.4680  -27.3970 C   0  0  0  0  0  0  0  0  0  0  0  0
  -19.2910    0.1410  -28.5500 C   0  0  0  0  0  0  0  0  0  0  0  0
  -18.1280    1.8080  -27.1180 C   0  0  0  0  0  0  0  0  0  0  0  0
  -17.3050    2.3270  -27.9130 O   0  0  0  0  0  0  0  0  0  0  0  0
  -18.5270    2.5130  -26.0140 O   0  0  0  0  0  0  0  0  0  0  0  0
  -17.6020    2.9280  -25.0220 C   0  0  0  0  0  0  0  0  0  0  0  0
  -18.6560    0.9760  -35.9260 H   0  0  0  0  0  0  0  0  0  0  0  0
  -17.1980   -0.4040  -31.3360 H   0  0  0  0  0  0  0  0  0  0  0  0
  -21.3870   -2.1580  -33.2440 H   0  0  0  0  0  0  0  0  0  0  0  0
  -22.0850   -1.4460  -35.5420 H   0  0  0  0  0  0  0  0  0  0  0  0
  -20.0120   -2.9720  -31.4080 H   0  0  0  0  0  0  0  0  0  0  0  0
  -18.6370   -2.3820  -30.4410 H   0  0  0  0  0  0  0  0  0  0  0  0
  -21.3590   -1.9170  -29.8900 H   0  0  0  0  0  0  0  0  0  0  0  0
  -20.7740   -0.3860  -30.6060 H   0  0  0  0  0  0  0  0  0  0  0  0
  -19.9800   -3.0420  -28.1720 H   0  0  0  0  0  0  0  0  0  0  0  0
  -17.6000   -2.1520  -23.8270 H   0  0  0  0  0  0  0  0  0  0  0  0
  -19.4430    0.9280  -29.3020 H   0  0  0  0  0  0  0  0  0  0  0  0
  -16.5770    2.6580  -25.3710 H   0  0  0  0  0  0  0  0  0  0  0  0
  -17.8170    2.4180  -24.0500 H   0  0  0  0  0  0  0  0  0  0  0  0
  -17.6110    4.0360  -24.9130 H   0  0  0  0  0  0  0  0  0  0  0  0
  1  2  1  0  0  0  0
  2  3  2  0  0  0  0
  2 10  1  0  0  0  0
  3  4  1  0  0  0  0
  4  8  2  0  0  0  0
  4  5  1  0  0  0  0
  5  6  2  0  0  0  0
  6  7  1  0  0  0  0
  6 28  1  0  0  0  0
  7 11  1  0  0  0  0
  8  7  1  0  0  0  0
  9  8  1  0  0  0  0
  9 29  1  0  0  0  0
 10  9  2  0  0  0  0
 11 32  1  0  0  0  0
 11 12  1  0  0  0  0
 12 33  1  0  0  0  0
 12 13  1  0  0  0  0
 13 22  1  0  0  0  0
 13 14  1  0  0  0  0
 14 15  1  0  0  0  0
 15 16  2  0  0  0  0
 15 19  1  0  0  0  0
 16 17  1  0  0  0  0
 17 18  1  0  0  0  0
 18 36  1  0  0  0  0
 19 20  2  0  0  0  0
 19 18  1  0  0  0  0
 21 23  1  0  0  0  0
 21 16  1  0  0  0  0
 22 21  2  0  0  0  0
 23 25  1  0  0  0  0
 24 23  2  0  0  0  0
 25 26  1  0  0  0  0
 26 40  1  0  0  0  0
 26 39  1  0  0  0  0
 27  3  1  0  0  0  0
 30 10  1  0  0  0  0
 31 11  1  0  0  0  0
 34 12  1  0  0  0  0
 35 14  1  0  0  0  0
 37 22  1  0  0  0  0
 38 26  1  0  0  0  0
M  END
>  <Pose>
1

>  <Score>
-7.65

$$$$
