
 OpenBabel03222201593D

 55 58  0  0  1  0  0  0  0  0999 V2000
  -17.2010    1.3350  -23.0640 Cl  0  0  0  0  0  0  0  0  0  0  0  0
  -17.6740    1.2840  -24.7470 C   0  0  0  0  0  0  0  0  0  0  0  0
  -17.8810    0.0940  -25.4220 C   0  0  0  0  0  0  0  0  0  0  0  0
  -18.2530    0.0640  -26.7450 C   0  0  0  0  0  0  0  0  0  0  0  0
  -18.5090   -0.9290  -27.6070 N   0  0  0  0  0  0  0  0  0  0  0  0
  -18.8440   -0.4290  -28.8280 C   0  0  0  0  0  0  0  0  0  0  0  0
  -18.7830    0.8870  -28.6840 N   0  0  0  0  0  0  0  0  0  0  0  0
  -18.4290    1.2330  -27.4430 C   0  0  0  0  0  0  0  0  0  0  0  0
  -18.2290    2.4310  -26.7930 C   0  0  0  0  0  0  0  0  0  0  0  0
  -17.8540    2.4590  -25.4560 C   0  0  0  0  0  0  0  0  0  0  0  0
  -19.2000   -1.2510  -30.0090 C   0  0  0  0  0  0  0  0  0  0  0  0
  -19.4330   -0.3430  -31.1810 C   0  0  0  0  0  0  0  0  0  0  0  0
  -20.8400   -0.4400  -31.6060 C   0  0  0  0  0  0  0  0  0  0  0  0
  -21.6500   -1.1730  -30.9840 O   0  0  0  0  0  0  0  0  0  0  0  0
  -21.2610    0.3170  -32.7410 N   0  0  0  0  0  0  0  0  0  0  0  0
  -22.6290    0.7160  -32.9830 C   0  0  0  0  0  0  0  0  0  0  0  0
  -22.9470    0.6530  -34.4870 C   0  0  1  0  0  0  0  0  0  0  0  0
  -22.0250   -0.3640  -35.0690 C   0  0  2  0  0  0  0  0  0  0  0  0
  -20.6210    0.1960  -35.0980 C   0  0  0  0  0  0  0  0  0  0  0  0
  -20.2710    0.7150  -33.7190 C   0  0  0  0  0  0  0  0  0  0  0  0
  -22.4300   -0.9420  -36.3020 N   0  0  0  0  0  0  0  0  0  0  0  0
  -22.4790   -0.2680  -37.4600 C   0  0  0  0  0  0  0  0  0  0  0  0
  -22.8810   -0.8670  -38.6470 C   0  0  0  0  0  0  0  0  0  0  0  0
  -23.2390   -2.1950  -38.6370 C   0  0  0  0  0  0  0  0  0  0  0  0
  -23.6060   -2.7480  -39.7200 O   0  0  0  0  0  0  0  0  0  0  0  0
  -23.1890   -2.8670  -37.4780 N   0  0  0  0  0  0  0  0  0  0  0  0
  -22.7930   -2.2410  -36.3560 C   0  0  0  0  0  0  0  0  0  0  0  0
  -22.7470   -2.8870  -35.2500 O   0  0  0  0  0  0  0  0  0  0  0  0
  -22.9150   -0.0590  -39.9150 C   0  0  0  0  0  0  0  0  0  0  0  0
  -24.2920    0.2600  -34.5600 O   0  0  0  0  0  0  0  0  0  0  0  0
  -22.7930    2.0410  -35.0230 C   0  0  0  0  0  0  0  0  0  0  0  0
  -17.7340   -0.8090  -24.8460 H   0  0  0  0  0  0  0  0  0  0  0  0
  -18.4680   -1.9650  -27.4020 H   0  0  0  0  0  0  0  0  0  0  0  0
  -18.3720    3.3360  -27.3550 H   0  0  0  0  0  0  0  0  0  0  0  0
  -17.7060    3.4170  -24.9830 H   0  0  0  0  0  0  0  0  0  0  0  0
  -20.1710   -1.7770  -29.8190 H   0  0  0  0  0  0  0  0  0  0  0  0
  -18.3970   -1.9710  -30.2700 H   0  0  0  0  0  0  0  0  0  0  0  0
  -19.1760    0.7110  -30.9020 H   0  0  0  0  0  0  0  0  0  0  0  0
  -18.7240   -0.5780  -32.0120 H   0  0  0  0  0  0  0  0  0  0  0  0
  -23.3370    0.1300  -32.4000 H   0  0  0  0  0  0  0  0  0  0  0  0
  -22.7090    1.7820  -32.6160 H   0  0  0  0  0  0  0  0  0  0  0  0
  -21.9840   -1.2120  -34.3210 H   0  0  0  0  0  0  0  0  0  0  0  0
  -19.8700   -0.6130  -35.3120 H   0  0  0  0  0  0  0  0  0  0  0  0
  -20.4620    0.9540  -35.8800 H   0  0  0  0  0  0  0  0  0  0  0  0
  -19.2570    0.4050  -33.3980 H   0  0  0  0  0  0  0  0  0  0  0  0
  -20.3120    1.8430  -33.7640 H   0  0  0  0  0  0  0  0  0  0  0  0
  -22.1950    0.7660  -37.4430 H   0  0  0  0  0  0  0  0  0  0  0  0
  -23.4570   -3.8720  -37.4570 H   0  0  0  0  0  0  0  0  0  0  0  0
  -23.7420   -0.4950  -40.5440 H   0  0  0  0  0  0  0  0  0  0  0  0
  -23.2460    0.9510  -39.6300 H   0  0  0  0  0  0  0  0  0  0  0  0
  -21.9620   -0.1030  -40.4480 H   0  0  0  0  0  0  0  0  0  0  0  0
  -24.8730    1.0870  -34.5490 H   0  0  0  0  0  0  0  0  0  0  0  0
  -22.4680    2.7820  -34.2340 H   0  0  0  0  0  0  0  0  0  0  0  0
  -23.7830    2.4590  -35.3690 H   0  0  0  0  0  0  0  0  0  0  0  0
  -22.1100    2.1530  -35.8620 H   0  0  0  0  0  0  0  0  0  0  0  0
  2  1  1  0  0  0  0
  3 32  1  0  0  0  0
  3  2  1  0  0  0  0
  4  3  2  0  0  0  0
  5 33  1  0  0  0  0
  5  4  1  0  0  0  0
  6  7  2  0  0  0  0
  6  5  1  0  0  0  0
  7  8  1  0  0  0  0
  8  9  2  0  0  0  0
  8  4  1  0  0  0  0
  9 10  1  0  0  0  0
 10 35  1  0  0  0  0
 10  2  2  0  0  0  0
 11 36  1  0  0  0  0
 11  6  1  0  0  0  0
 12 38  1  0  0  0  0
 12 11  1  0  0  0  0
 13 12  1  0  0  0  0
 13 14  2  0  0  0  0
 15 13  1  0  0  0  0
 16 15  1  0  0  0  0
 16 41  1  0  0  0  0
 16 40  1  0  0  0  0
 17 30  1  6  0  0  0
 17 16  1  0  0  0  0
 18 17  1  0  0  0  0
 18 42  1  1  0  0  0
 19 18  1  0  0  0  0
 19 20  1  0  0  0  0
 20 45  1  0  0  0  0
 20 15  1  0  0  0  0
 21 18  1  0  0  0  0
 22 47  1  0  0  0  0
 22 21  1  0  0  0  0
 23 24  1  0  0  0  0
 23 22  2  0  0  0  0
 24 26  1  0  0  0  0
 25 24  2  0  0  0  0
 26 48  1  0  0  0  0
 26 27  1  0  0  0  0
 27 21  1  0  0  0  0
 27 28  2  0  0  0  0
 29 50  1  0  0  0  0
 29 23  1  0  0  0  0
 30 52  1  0  0  0  0
 31 17  1  0  0  0  0
 31 53  1  0  0  0  0
 34  9  1  0  0  0  0
 37 11  1  0  0  0  0
 39 12  1  0  0  0  0
 43 19  1  0  0  0  0
 44 19  1  0  0  0  0
 46 20  1  0  0  0  0
 49 29  1  0  0  0  0
 51 29  1  0  0  0  0
 54 31  1  0  0  0  0
 55 31  1  0  0  0  0
M  END
>  <Pose>
1

>  <Score>
-6.08

$$$$
