
 OpenBabel03222201593D

 55 59  0  0  1  0  0  0  0  0999 V2000
  -19.4270    2.2990  -41.4460 Cl  0  0  0  0  0  0  0  0  0  0  0  0
  -20.5810    1.7610  -40.2310 C   0  0  0  0  0  0  0  0  0  0  0  0
  -20.5350    0.4930  -39.7030 C   0  0  0  0  0  0  0  0  0  0  0  0
  -21.4690    0.1050  -38.7410 C   0  0  0  0  0  0  0  0  0  0  0  0
  -21.6720   -1.0350  -38.0590 N   0  0  0  0  0  0  0  0  0  0  0  0
  -22.7210   -0.9160  -37.2270 C   0  0  0  0  0  0  0  0  0  0  0  0
  -23.1820    0.3240  -37.3940 N   0  0  0  0  0  0  0  0  0  0  0  0
  -22.4420    0.9810  -38.3120 C   0  0  0  0  0  0  0  0  0  0  0  0
  -22.4880    2.2520  -38.8430 C   0  0  0  0  0  0  0  0  0  0  0  0
  -21.5480    2.6270  -39.8030 C   0  0  0  0  0  0  0  0  0  0  0  0
  -23.2170   -2.0040  -36.3220 C   0  0  0  0  0  0  0  0  0  0  0  0
  -23.4260   -1.4340  -34.9370 C   0  0  0  0  0  0  0  0  0  0  0  0
  -22.5730   -2.1280  -33.9600 C   0  0  0  0  0  0  0  0  0  0  0  0
  -22.9110   -3.2530  -33.5450 O   0  0  0  0  0  0  0  0  0  0  0  0
  -21.3890   -1.5320  -33.4970 N   0  0  0  0  0  0  0  0  0  0  0  0
  -20.0450   -2.0130  -33.4300 C   0  0  0  0  0  0  0  0  0  0  0  0
  -19.5260   -1.5160  -32.0600 C   0  0  1  0  0  0  0  0  0  0  0  0
  -20.2400   -0.2140  -31.9770 C   0  0  2  0  0  0  0  0  0  0  0  0
  -21.3420   -0.1770  -32.9810 C   0  0  0  0  0  0  0  0  0  0  0  0
  -19.4190    0.8840  -32.2350 O   0  0  0  0  0  0  0  0  0  0  0  0
  -19.9050   -2.4670  -31.0540 N   0  0  0  0  0  0  0  0  0  0  0  0
  -19.6780   -2.4100  -29.7310 C   0  0  0  0  0  0  0  0  0  0  0  0
  -20.2290   -3.5590  -29.1290 C   0  0  0  0  0  0  0  0  0  0  0  0
  -20.7730   -4.2750  -30.1270 N   0  0  0  0  0  0  0  0  0  0  0  0
  -20.5890   -3.6390  -31.2810 C   0  0  0  0  0  0  0  0  0  0  0  0
  -20.1430   -3.7650  -27.7710 C   0  0  0  0  0  0  0  0  0  0  0  0
  -20.6460   -4.8030  -27.2620 O   0  0  0  0  0  0  0  0  0  0  0  0
  -19.5200   -2.8340  -27.0390 N   0  0  0  0  0  0  0  0  0  0  0  0
  -19.0010   -1.7490  -27.6170 C   0  0  0  0  0  0  0  0  0  0  0  0
  -18.4160   -0.8830  -26.9140 O   0  0  0  0  0  0  0  0  0  0  0  0
  -19.0570   -1.4950  -28.9600 N   0  0  0  0  0  0  0  0  0  0  0  0
  -18.4780   -0.3110  -29.5110 C   0  0  0  0  0  0  0  0  0  0  0  0
  -19.4130   -3.0250  -25.5910 C   0  0  0  0  0  0  0  0  0  0  0  0
  -19.7820   -0.2060  -40.0250 H   0  0  0  0  0  0  0  0  0  0  0  0
  -21.0690   -1.8910  -38.1850 H   0  0  0  0  0  0  0  0  0  0  0  0
  -23.2390    2.9590  -38.5250 H   0  0  0  0  0  0  0  0  0  0  0  0
  -21.5790    3.6300  -40.2270 H   0  0  0  0  0  0  0  0  0  0  0  0
  -22.4580   -2.8070  -36.3140 H   0  0  0  0  0  0  0  0  0  0  0  0
  -24.1690   -2.4280  -36.7050 H   0  0  0  0  0  0  0  0  0  0  0  0
  -24.4930   -1.4400  -34.6740 H   0  0  0  0  0  0  0  0  0  0  0  0
  -23.1480   -0.3420  -35.0180 H   0  0  0  0  0  0  0  0  0  0  0  0
  -19.4850   -1.4440  -34.2350 H   0  0  0  0  0  0  0  0  0  0  0  0
  -19.8690   -3.0580  -33.6080 H   0  0  0  0  0  0  0  0  0  0  0  0
  -18.4380   -1.4600  -32.2670 H   0  0  0  0  0  0  0  0  0  0  0  0
  -20.7460   -0.1330  -30.9700 H   0  0  0  0  0  0  0  0  0  0  0  0
  -22.3170    0.1380  -32.5570 H   0  0  0  0  0  0  0  0  0  0  0  0
  -21.0810    0.5350  -33.8180 H   0  0  0  0  0  0  0  0  0  0  0  0
  -18.4550    0.6260  -32.2500 H   0  0  0  0  0  0  0  0  0  0  0  0
  -20.9040   -3.9540  -32.2530 H   0  0  0  0  0  0  0  0  0  0  0  0
  -19.1740    0.5460  -29.6130 H   0  0  0  0  0  0  0  0  0  0  0  0
  -17.7920    0.0860  -28.6710 H   0  0  0  0  0  0  0  0  0  0  0  0
  -17.7500   -0.4410  -30.3160 H   0  0  0  0  0  0  0  0  0  0  0  0
  -20.0470   -2.2800  -25.0590 H   0  0  0  0  0  0  0  0  0  0  0  0
  -19.7270   -4.0490  -25.3220 H   0  0  0  0  0  0  0  0  0  0  0  0
  -18.3680   -2.8270  -25.2840 H   0  0  0  0  0  0  0  0  0  0  0  0
  1  2  1  0  0  0  0
  2 10  2  0  0  0  0
  2  3  1  0  0  0  0
  3  4  2  0  0  0  0
  4  8  1  0  0  0  0
  4  5  1  0  0  0  0
  5  6  1  0  0  0  0
  6 11  1  0  0  0  0
  7  6  2  0  0  0  0
  8  7  1  0  0  0  0
  9 36  1  0  0  0  0
  9  8  2  0  0  0  0
 10  9  1  0  0  0  0
 11 38  1  0  0  0  0
 11 12  1  0  0  0  0
 12 40  1  0  0  0  0
 12 13  1  0  0  0  0
 13 14  2  0  0  0  0
 13 15  1  0  0  0  0
 15 16  1  0  0  0  0
 15 19  1  0  0  0  0
 16 17  1  0  0  0  0
 17 44  1  6  0  0  0
 17 18  1  0  0  0  0
 17 21  1  0  0  0  0
 18 45  1  1  0  0  0
 19 46  1  0  0  0  0
 19 18  1  0  0  0  0
 20 18  1  0  0  0  0
 21 22  1  0  0  0  0
 22 23  2  0  0  0  0
 22 31  1  0  0  0  0
 23 26  1  0  0  0  0
 24 23  1  0  0  0  0
 25 21  1  0  0  0  0
 25 24  2  0  0  0  0
 26 27  2  0  0  0  0
 26 28  1  0  0  0  0
 28 33  1  0  0  0  0
 29 28  1  0  0  0  0
 29 30  2  0  0  0  0
 31 29  1  0  0  0  0
 32 31  1  0  0  0  0
 32 51  1  0  0  0  0
 33 54  1  0  0  0  0
 33 55  1  0  0  0  0
 33 53  1  0  0  0  0
 34  3  1  0  0  0  0
 35  5  1  0  0  0  0
 37 10  1  0  0  0  0
 39 11  1  0  0  0  0
 41 12  1  0  0  0  0
 42 16  1  0  0  0  0
 43 16  1  0  0  0  0
 47 19  1  0  0  0  0
 48 20  1  0  0  0  0
 49 25  1  0  0  0  0
 50 32  1  0  0  0  0
 52 32  1  0  0  0  0
M  END
>  <Pose>
1

>  <Score>
-7.78

$$$$
