
 OpenBabel03222201593D

 51 55  0  0  1  0  0  0  0  0999 V2000
  -19.3400   -2.0250  -32.1450 Cl  0  0  0  0  0  0  0  0  0  0  0  0
  -20.5400   -1.7230  -33.3810 C   0  0  0  0  0  0  0  0  0  0  0  0
  -20.1280   -1.0090  -34.5070 C   0  0  0  0  0  0  0  0  0  0  0  0
  -21.0430   -0.7510  -35.5030 C   0  0  0  0  0  0  0  0  0  0  0  0
  -22.3470   -1.2200  -35.3330 C   0  0  0  0  0  0  0  0  0  0  0  0
  -22.7450   -1.9240  -34.2170 C   0  0  0  0  0  0  0  0  0  0  0  0
  -21.8270   -2.1830  -33.2210 C   0  0  0  0  0  0  0  0  0  0  0  0
  -20.4260    0.0060  -36.5920 C   0  0  1  0  0  0  0  0  0  0  0  0
  -20.5410   -0.6580  -37.8770 N   0  0  0  0  0  0  0  0  0  0  0  0
  -20.3780    0.3980  -38.8680 C   0  0  2  0  0  0  0  0  0  0  0  0
  -20.9730    1.6400  -38.2620 C   0  0  1  0  0  0  0  0  0  0  0  0
  -21.0340    1.3780  -36.7780 C   0  0  2  0  0  0  0  0  0  0  0  0
  -20.2040    2.4350  -36.1450 C   0  0  0  0  0  0  0  0  0  0  0  0
  -19.9400    2.4180  -34.9110 O   0  0  0  0  0  0  0  0  0  0  0  0
  -19.8080    3.3780  -37.1270 N   0  0  0  0  0  0  0  0  0  0  0  0
  -19.9800    2.7610  -38.3940 C   0  0  0  0  0  0  0  0  0  0  0  0
  -19.4260    3.0520  -39.4910 O   0  0  0  0  0  0  0  0  0  0  0  0
  -19.3340    4.6920  -36.8880 C   0  0  0  0  0  0  0  0  0  0  0  0
  -18.0950    5.1030  -37.5780 C   0  0  2  0  0  0  0  0  0  0  0  0
  -16.9370    4.4800  -37.1380 O   0  0  0  0  0  0  0  0  0  0  0  0
  -16.0010    4.9880  -38.0400 C   0  0  0  0  0  0  0  0  0  0  0  0
  -16.3050    6.4900  -38.1120 C   0  0  0  0  0  0  0  0  0  0  0  0
  -17.7320    6.5420  -37.5400 C   0  0  0  0  0  0  0  0  0  0  0  0
  -21.0720   -0.0100  -40.1340 C   0  0  0  0  0  0  0  0  0  0  0  0
  -21.5550   -1.4130  -39.9380 C   0  0  0  0  0  0  0  0  0  0  0  0
  -22.8020   -1.5820  -39.9210 O   0  0  0  0  0  0  0  0  0  0  0  0
  -20.6720   -2.5110  -39.7770 N   0  0  0  0  0  0  0  0  0  0  0  0
  -19.0260    0.1850  -36.1750 C   0  0  0  0  0  0  0  0  0  0  0  0
  -18.0910    0.7870  -36.8180 O   0  0  0  0  0  0  0  0  0  0  0  0
  -18.8890   -0.4400  -34.9110 N   0  0  0  0  0  0  0  0  0  0  0  0
  -23.1100   -1.0450  -36.0860 H   0  0  0  0  0  0  0  0  0  0  0  0
  -23.7560   -2.2860  -34.0880 H   0  0  0  0  0  0  0  0  0  0  0  0
  -22.1580   -2.7370  -32.3510 H   0  0  0  0  0  0  0  0  0  0  0  0
  -21.4590   -1.1440  -37.9860 H   0  0  0  0  0  0  0  0  0  0  0  0
  -19.2930    0.5190  -39.0200 H   0  0  0  0  0  0  0  0  0  0  0  0
  -21.9380    1.8890  -38.7070 H   0  0  0  0  0  0  0  0  0  0  0  0
  -22.0640    1.4110  -36.4270 H   0  0  0  0  0  0  0  0  0  0  0  0
  -20.1220    5.4530  -37.1730 H   0  0  0  0  0  0  0  0  0  0  0  0
  -19.1760    4.9100  -35.7900 H   0  0  0  0  0  0  0  0  0  0  0  0
  -18.2040    4.8200  -38.6540 H   0  0  0  0  0  0  0  0  0  0  0  0
  -16.1300    4.5800  -39.0540 H   0  0  0  0  0  0  0  0  0  0  0  0
  -14.9630    4.7970  -37.7230 H   0  0  0  0  0  0  0  0  0  0  0  0
  -15.5850    7.0160  -37.4920 H   0  0  0  0  0  0  0  0  0  0  0  0
  -16.3370    6.8380  -39.1710 H   0  0  0  0  0  0  0  0  0  0  0  0
  -17.6330    6.9950  -36.5550 H   0  0  0  0  0  0  0  0  0  0  0  0
  -18.3600    7.1700  -38.2130 H   0  0  0  0  0  0  0  0  0  0  0  0
  -20.3140    0.0240  -40.9480 H   0  0  0  0  0  0  0  0  0  0  0  0
  -21.9000    0.6740  -40.3490 H   0  0  0  0  0  0  0  0  0  0  0  0
  -19.8210   -2.5440  -40.3720 H   0  0  0  0  0  0  0  0  0  0  0  0
  -20.8200   -3.2850  -39.1010 H   0  0  0  0  0  0  0  0  0  0  0  0
  -18.0010   -0.4830  -34.3400 H   0  0  0  0  0  0  0  0  0  0  0  0
  2  7  1  0  0  0  0
  2  1  1  0  0  0  0
  3  2  2  0  0  0  0
  4  5  2  0  0  0  0
  4  3  1  0  0  0  0
  5  6  1  0  0  0  0
  6 32  1  0  0  0  0
  6  7  2  0  0  0  0
  7 33  1  0  0  0  0
  8 28  1  1  0  0  0
  8  4  1  0  0  0  0
  9  8  1  0  0  0  0
 10 35  1  6  0  0  0
 10 11  1  0  0  0  0
 10  9  1  0  0  0  0
 11 36  1  6  0  0  0
 11 12  1  0  0  0  0
 12  8  1  0  0  0  0
 12 37  1  1  0  0  0
 12 13  1  0  0  0  0
 13 14  2  0  0  0  0
 15 18  1  0  0  0  0
 15 13  1  0  0  0  0
 16 11  1  0  0  0  0
 16 15  1  0  0  0  0
 17 16  2  0  0  0  0
 18 39  1  0  0  0  0
 19 40  1  6  0  0  0
 19 23  1  0  0  0  0
 19 20  1  0  0  0  0
 19 18  1  0  0  0  0
 21 42  1  0  0  0  0
 21 20  1  0  0  0  0
 22 21  1  0  0  0  0
 22 23  1  0  0  0  0
 22 43  1  0  0  0  0
 23 45  1  0  0  0  0
 24 25  1  0  0  0  0
 24 10  1  0  0  0  0
 25 26  2  0  0  0  0
 25 27  1  0  0  0  0
 27 50  1  0  0  0  0
 28 30  1  0  0  0  0
 29 28  2  0  0  0  0
 30  3  1  0  0  0  0
 30 51  1  0  0  0  0
 31  5  1  0  0  0  0
 34  9  1  0  0  0  0
 38 18  1  0  0  0  0
 41 21  1  0  0  0  0
 44 22  1  0  0  0  0
 46 23  1  0  0  0  0
 47 24  1  0  0  0  0
 48 24  1  0  0  0  0
 49 27  1  0  0  0  0
M  END
>  <Pose>
1

>  <Score>
-5.92

$$$$
