
 OpenBabel03222201593D

 43 46  0  0  1  0  0  0  0  0999 V2000
  -24.4560    2.3210  -39.8320 Cl  0  0  0  0  0  0  0  0  0  0  0  0
  -23.4160    0.9350  -39.6390 C   0  0  0  0  0  0  0  0  0  0  0  0
  -22.7340    0.4280  -40.6570 N   0  0  0  0  0  4  0  0  0  0  0  0
  -21.9160   -0.6290  -40.5970 C   0  0  0  0  0  0  0  0  0  0  0  0
  -21.1470   -1.2980  -41.4700 N   0  0  0  0  0  0  0  0  0  0  0  0
  -20.5270   -2.3050  -40.8330 C   0  0  0  0  0  0  0  0  0  0  0  0
  -20.9240   -2.2480  -39.5470 N   0  0  0  0  0  0  0  0  0  0  0  0
  -21.7800   -1.2340  -39.3500 C   0  0  1  0  0  0  0  0  0  0  0  0
  -22.4810   -0.7160  -38.2880 C   0  0  0  0  0  0  0  0  0  0  0  0
  -23.2830    0.3480  -38.4280 N   0  0  0  0  0  0  0  0  0  0  0  0
  -22.3080   -1.3730  -37.0110 N   0  0  0  0  0  0  0  0  0  0  0  0
  -23.0770   -0.9480  -35.9030 C   0  0  0  0  0  0  0  0  0  0  0  0
  -22.3520   -0.2690  -34.8400 C   0  0  0  0  0  0  0  0  0  0  0  0
  -23.1800    0.3420  -33.9650 O   0  0  0  0  0  0  0  0  0  0  0  0
  -21.0170   -0.1390  -34.5770 N   0  0  0  0  0  0  0  0  0  0  0  0
  -19.9630   -1.0480  -34.8770 C   0  0  0  0  0  0  0  0  0  0  0  0
  -19.3040   -1.5900  -33.6110 C   0  0  0  0  0  0  0  0  0  0  0  0
  -19.4160   -0.5390  -32.6410 N   0  0  0  0  0  0  0  0  0  0  0  0
  -19.3080    0.8130  -33.1050 C   0  0  0  0  0  0  0  0  0  0  0  0
  -20.6090    1.1240  -33.8520 C   0  0  0  0  0  0  0  0  0  0  0  0
  -19.6200   -0.7880  -31.2720 C   0  0  0  0  0  0  0  0  0  0  0  0
  -19.9980    0.2010  -30.4100 N   0  0  0  0  0  0  0  0  0  0  0  0
  -20.2050    0.0350  -29.1160 C   0  0  0  0  0  0  0  0  0  0  0  0
  -20.0510   -1.1840  -28.5160 C   0  0  0  0  0  0  0  0  0  0  0  0
  -19.6680   -2.2350  -29.3360 C   0  0  0  0  0  0  0  0  0  0  0  0
  -19.4570   -2.0360  -30.6920 C   0  0  0  0  0  0  0  0  0  0  0  0
  -19.8310   -3.0430  -41.2380 H   0  0  0  0  0  0  0  0  0  0  0  0
  -20.6350   -2.8870  -38.7600 H   0  0  0  0  0  0  0  0  0  0  0  0
  -21.6260   -2.1320  -36.9220 H   0  0  0  0  0  0  0  0  0  0  0  0
  -23.9870   -0.3510  -36.2310 H   0  0  0  0  0  0  0  0  0  0  0  0
  -23.4900   -1.9080  -35.4240 H   0  0  0  0  0  0  0  0  0  0  0  0
  -20.2760   -1.8680  -35.4910 H   0  0  0  0  0  0  0  0  0  0  0  0
  -19.1460   -0.4450  -35.4200 H   0  0  0  0  0  0  0  0  0  0  0  0
  -18.2200   -1.7670  -33.8120 H   0  0  0  0  0  0  0  0  0  0  0  0
  -19.7640   -2.5300  -33.3450 H   0  0  0  0  0  0  0  0  0  0  0  0
  -18.4890    0.9470  -33.8440 H   0  0  0  0  0  0  0  0  0  0  0  0
  -19.2370    1.5200  -32.2630 H   0  0  0  0  0  0  0  0  0  0  0  0
  -20.4440    1.9090  -34.5780 H   0  0  0  0  0  0  0  0  0  0  0  0
  -21.4390    1.3280  -33.1700 H   0  0  0  0  0  0  0  0  0  0  0  0
  -20.5080    0.8890  -28.4950 H   0  0  0  0  0  0  0  0  0  0  0  0
  -20.2210   -1.3080  -27.4710 H   0  0  0  0  0  0  0  0  0  0  0  0
  -19.5390   -3.2230  -28.8750 H   0  0  0  0  0  0  0  0  0  0  0  0
  -19.1640   -2.8700  -31.2760 H   0  0  0  0  0  0  0  0  0  0  0  0
  1  2  1  0  0  0  0
  2 10  1  0  0  0  0
  3  4  2  0  0  0  0
  3  2  2  0  0  0  0
  5  6  2  0  0  0  0
  5  4  1  0  0  0  0
  6  7  1  0  0  0  0
  7  8  1  0  0  0  0
  7 28  1  0  0  0  0
  8  4  1  1  0  0  0
  8  9  1  0  0  0  0
  9 11  1  0  0  0  0
 10  9  2  0  0  0  0
 11 29  1  0  0  0  0
 11 12  1  0  0  0  0
 12 31  1  0  0  0  0
 12 13  1  0  0  0  0
 13 15  1  0  0  0  0
 13 14  2  0  0  0  0
 15 20  1  0  0  0  0
 16 15  1  0  0  0  0
 16 17  1  0  0  0  0
 17 35  1  0  0  0  0
 17 18  1  0  0  0  0
 18 21  1  0  0  0  0
 19 18  1  0  0  0  0
 19 37  1  0  0  0  0
 20 39  1  0  0  0  0
 20 19  1  0  0  0  0
 21 26  2  0  0  0  0
 21 22  1  0  0  0  0
 22 23  2  0  0  0  0
 23 24  1  0  0  0  0
 23 40  1  0  0  0  0
 24 41  1  0  0  0  0
 25 42  1  0  0  0  0
 25 24  2  0  0  0  0
 26 25  1  0  0  0  0
 27  6  1  0  0  0  0
 30 12  1  0  0  0  0
 32 16  1  0  0  0  0
 33 16  1  0  0  0  0
 34 17  1  0  0  0  0
 36 19  1  0  0  0  0
 38 20  1  0  0  0  0
 43 26  1  0  0  0  0
M  END
>  <Pose>
1

>  <Score>
-6.97

$$$$
