
 OpenBabel03222201593D

 39 42  0  0  0  0  0  0  0  0999 V2000
  -20.0560    0.1770  -37.8270 B   0  0  0  0  0  0  0  0  0  0  0  0
  -21.2870   -0.2890  -36.4660 C   0  0  0  0  0  0  0  0  0  0  0  0
  -20.7810   -0.6180  -35.2080 C   0  0  0  0  0  0  0  0  0  0  0  0
  -21.7370   -0.9480  -34.2640 C   0  0  0  0  0  0  0  0  0  0  0  0
  -23.1050   -0.9510  -34.5440 C   0  0  0  0  0  0  0  0  0  0  0  0
  -23.5410   -0.6180  -35.8020 C   0  0  0  0  0  0  0  0  0  0  0  0
  -22.6250   -0.2830  -36.7740 C   0  0  0  0  0  0  0  0  0  0  0  0
  -19.3910   -0.6020  -34.9660 N   0  0  0  0  0  0  0  0  0  0  0  0
  -18.6610    0.2260  -34.1140 C   0  0  0  0  0  0  0  0  0  0  0  0
  -18.6330    1.4610  -34.2680 O   0  0  0  0  0  0  0  0  0  0  0  0
  -17.8770   -0.3240  -32.9770 C   0  0  0  0  0  0  0  0  0  0  0  0
  -18.7660   -0.6950  -31.8640 N   0  0  0  0  0  0  0  0  0  0  0  0
  -19.9950   -0.2580  -31.6430 N   0  0  0  0  0  0  0  0  0  0  0  0
  -20.4810   -0.8150  -30.5400 N   0  0  0  0  0  0  0  0  0  0  0  0
  -19.5370   -1.6370  -30.0340 C   0  0  0  0  0  0  0  0  0  0  0  0
  -18.4980   -1.5340  -30.8780 N   0  0  0  0  0  0  0  0  0  0  0  0
  -19.6380   -2.4520  -28.8320 C   0  0  0  0  0  0  0  0  0  0  0  0
  -19.1760   -1.9220  -27.6500 C   0  0  0  0  0  0  0  0  0  0  0  0
  -19.2720   -2.6990  -26.5070 C   0  0  0  0  0  0  0  0  0  0  0  0
  -19.8050   -3.9620  -26.5250 C   0  0  0  0  0  0  0  0  0  0  0  0
  -20.2690   -4.4970  -27.7110 C   0  0  0  0  0  0  0  0  0  0  0  0
  -20.1730   -3.7190  -28.8510 C   0  0  0  0  0  0  0  0  0  0  0  0
  -18.6090   -0.6160  -27.5520 N   0  0  0  0  0  0  0  0  0  0  0  0
  -17.4130   -0.3630  -27.0360 N   0  0  0  0  0  0  0  0  0  0  0  0
  -17.1920    0.9320  -27.0950 N   0  0  0  0  0  0  0  0  0  0  0  0
  -18.2560    1.5060  -27.6530 N   0  0  0  0  0  0  0  0  0  0  0  0
  -19.1450    0.5320  -27.9400 C   0  0  0  0  0  0  0  0  0  0  0  0
  -21.4680   -1.2160  -33.2710 H   0  0  0  0  0  0  0  0  0  0  0  0
  -23.8260   -1.2110  -33.7930 H   0  0  0  0  0  0  0  0  0  0  0  0
  -24.5850   -0.6060  -36.0670 H   0  0  0  0  0  0  0  0  0  0  0  0
  -23.0020   -0.0260  -37.7520 H   0  0  0  0  0  0  0  0  0  0  0  0
  -18.8220   -1.3190  -35.5090 H   0  0  0  0  0  0  0  0  0  0  0  0
  -17.0930    0.3570  -32.6230 H   0  0  0  0  0  0  0  0  0  0  0  0
  -17.3680   -1.2830  -33.2580 H   0  0  0  0  0  0  0  0  0  0  0  0
  -18.9120   -2.2910  -25.5700 H   0  0  0  0  0  0  0  0  0  0  0  0
  -19.8870   -4.5830  -25.6320 H   0  0  0  0  0  0  0  0  0  0  0  0
  -20.6960   -5.4970  -27.7430 H   0  0  0  0  0  0  0  0  0  0  0  0
  -20.5430   -4.1590  -29.7680 H   0  0  0  0  0  0  0  0  0  0  0  0
  -20.1170    0.6410  -28.3980 H   0  0  0  0  0  0  0  0  0  0  0  0
  1  2  1  0  0  0  0
  2  3  1  0  0  0  0
  3  8  1  0  0  0  0
  3  4  2  0  0  0  0
  4 28  1  0  0  0  0
  5  4  1  0  0  0  0
  5 29  1  0  0  0  0
  6  5  2  0  0  0  0
  7  2  2  0  0  0  0
  7  6  1  0  0  0  0
  8  9  1  0  0  0  0
  9 11  1  0  0  0  0
 10  9  2  0  0  0  0
 11 33  1  0  0  0  0
 11 12  1  0  0  0  0
 12 13  1  0  0  0  0
 12 16  1  0  0  0  0
 13 14  1  0  0  0  0
 14 15  2  0  0  0  0
 15 17  1  0  0  0  0
 16 15  1  0  0  0  0
 17 18  1  0  0  0  0
 18 23  1  0  0  0  0
 18 19  2  0  0  0  0
 19 35  1  0  0  0  0
 20 19  1  0  0  0  0
 20 36  1  0  0  0  0
 21 20  2  0  0  0  0
 22 17  2  0  0  0  0
 22 21  1  0  0  0  0
 23 24  1  0  0  0  0
 25 24  2  0  0  0  0
 26 25  1  0  0  0  0
 27 26  2  0  0  0  0
 27 23  1  0  0  0  0
 30  6  1  0  0  0  0
 31  7  1  0  0  0  0
 32  8  1  0  0  0  0
 34 11  1  0  0  0  0
 37 21  1  0  0  0  0
 38 22  1  0  0  0  0
 39 27  1  0  0  0  0
M  END
>  <Pose>
1

>  <Score>
-7.20

$$$$
