
 OpenBabel03222201593D

 54 58  0  0  1  0  0  0  0  0999 V2000
  -17.0190    1.7140  -36.6270 Cl  0  0  0  0  0  0  0  0  0  0  0  0
  -18.5580    2.3020  -35.9750 C   0  0  0  0  0  0  0  0  0  0  0  0
  -19.4560    1.4370  -35.4010 C   0  0  0  0  0  0  0  0  0  0  0  0
  -20.6430    1.9000  -34.8990 C   0  0  0  0  0  0  0  0  0  0  0  0
  -20.9290    3.2400  -34.9760 C   0  0  0  0  0  0  0  0  0  0  0  0
  -20.0360    4.1420  -35.5530 C   0  0  0  0  0  0  0  0  0  0  0  0
  -18.8510    3.6460  -36.0480 C   0  0  0  0  0  0  0  0  0  0  0  0
  -22.1950    3.5270  -34.4110 N   0  0  0  0  0  0  0  0  0  0  0  0
  -22.7250    2.2900  -33.9580 C   0  0  0  0  0  0  0  0  0  0  0  0
  -23.8340    2.1330  -33.4030 O   0  0  0  0  0  0  0  0  0  0  0  0
  -21.7690    1.2010  -34.2380 C   0  0  1  0  0  0  0  0  0  0  0  0
  -22.3370    0.1670  -35.0690 N   0  0  0  0  0  0  0  0  0  0  0  0
  -21.8120   -1.0860  -34.6240 C   0  0  1  0  0  0  0  0  0  0  0  0
  -21.5960   -0.9670  -33.1330 C   0  0  2  0  0  0  0  0  0  0  0  0
  -21.3910    0.5180  -32.9750 C   0  0  1  0  0  0  0  0  0  0  0  0
  -19.9750    0.7070  -32.5750 C   0  0  0  0  0  0  0  0  0  0  0  0
  -19.2580    1.7360  -32.6630 O   0  0  0  0  0  0  0  0  0  0  0  0
  -19.5460   -0.5620  -32.0400 N   0  0  0  0  0  0  0  0  0  0  0  0
  -20.3300   -1.5930  -32.6740 C   0  0  0  0  0  0  0  0  0  0  0  0
  -20.0200   -2.8040  -32.8210 O   0  0  0  0  0  0  0  0  0  0  0  0
  -18.5170   -0.7830  -31.0450 C   0  0  0  0  0  0  0  0  0  0  0  0
  -19.1170   -1.3730  -29.8110 C   0  0  0  0  0  0  0  0  0  0  0  0
  -19.0130   -0.7260  -28.5970 C   0  0  0  0  0  0  0  0  0  0  0  0
  -19.5780   -1.2940  -27.4680 C   0  0  0  0  0  0  0  0  0  0  0  0
  -20.2510   -2.4990  -27.5130 C   0  0  0  0  0  0  0  0  0  0  0  0
  -20.3600   -3.1530  -28.7200 C   0  0  0  0  0  0  0  0  0  0  0  0
  -19.7950   -2.5790  -29.8350 C   0  0  0  0  0  0  0  0  0  0  0  0
  -18.3310    0.4940  -28.5530 O   0  0  0  0  0  0  0  0  0  0  0  0
  -18.1220    1.1080  -27.2780 C   0  0  0  0  0  0  0  0  0  0  0  0
  -22.7350   -2.2360  -34.9650 C   0  0  2  0  0  0  0  0  0  0  0  0
  -22.0710   -3.4170  -34.6430 O   0  0  0  0  0  0  0  0  0  0  0  0
  -22.8900   -2.2310  -36.4830 C   0  0  0  0  0  0  0  0  0  0  0  0
  -19.1610    0.3970  -35.3770 H   0  0  0  0  0  0  0  0  0  0  0  0
  -20.2540    5.1990  -35.6160 H   0  0  0  0  0  0  0  0  0  0  0  0
  -18.1090    4.3020  -36.5130 H   0  0  0  0  0  0  0  0  0  0  0  0
  -22.6900    4.4620  -34.3220 H   0  0  0  0  0  0  0  0  0  0  0  0
  -22.1350    0.3520  -36.0560 H   0  0  0  0  0  0  0  0  0  0  0  0
  -20.8520   -1.2790  -35.0990 H   0  0  0  0  0  0  0  0  0  0  0  0
  -22.4560   -1.3560  -32.5570 H   0  0  0  0  0  0  0  0  0  0  0  0
  -22.0930    0.8420  -32.1680 H   0  0  0  0  0  0  0  0  0  0  0  0
  -17.7190   -1.4720  -31.3960 H   0  0  0  0  0  0  0  0  0  0  0  0
  -17.9990    0.1610  -30.7680 H   0  0  0  0  0  0  0  0  0  0  0  0
  -19.5020   -0.7980  -26.5180 H   0  0  0  0  0  0  0  0  0  0  0  0
  -20.6990   -2.9580  -26.6420 H   0  0  0  0  0  0  0  0  0  0  0  0
  -20.8760   -4.1010  -28.8200 H   0  0  0  0  0  0  0  0  0  0  0  0
  -19.8850   -3.0900  -30.7600 H   0  0  0  0  0  0  0  0  0  0  0  0
  -19.1130    1.2880  -26.8300 H   0  0  0  0  0  0  0  0  0  0  0  0
  -17.5620    2.0550  -27.4370 H   0  0  0  0  0  0  0  0  0  0  0  0
  -17.5420    0.4750  -26.6030 H   0  0  0  0  0  0  0  0  0  0  0  0
  -23.6940   -2.1820  -34.4420 H   0  0  0  0  0  0  0  0  0  0  0  0
  -22.2110   -4.0790  -35.3570 H   0  0  0  0  0  0  0  0  0  0  0  0
  -22.8250   -3.2700  -36.8920 H   0  0  0  0  0  0  0  0  0  0  0  0
  -23.8210   -1.7190  -36.7920 H   0  0  0  0  0  0  0  0  0  0  0  0
  -22.0500   -1.6770  -36.9640 H   0  0  0  0  0  0  0  0  0  0  0  0
  1  2  1  0  0  0  0
  2  3  1  0  0  0  0
  3 33  1  0  0  0  0
  3  4  2  0  0  0  0
  5  4  1  0  0  0  0
  5  8  1  0  0  0  0
  6  5  2  0  0  0  0
  7  2  2  0  0  0  0
  7  6  1  0  0  0  0
  8 36  1  0  0  0  0
  8  9  1  0  0  0  0
  9 10  2  0  0  0  0
 11  4  1  6  0  0  0
 11  9  1  0  0  0  0
 11 15  1  0  0  0  0
 12 13  1  0  0  0  0
 12 11  1  0  0  0  0
 13 38  1  6  0  0  0
 13 14  1  0  0  0  0
 14 15  1  0  0  0  0
 14 19  1  0  0  0  0
 14 39  1  1  0  0  0
 15 16  1  0  0  0  0
 15 40  1  1  0  0  0
 16 18  1  0  0  0  0
 17 16  2  0  0  0  0
 18 21  1  0  0  0  0
 19 18  1  0  0  0  0
 20 19  2  0  0  0  0
 21 42  1  0  0  0  0
 21 22  1  0  0  0  0
 22 23  1  0  0  0  0
 23 28  1  0  0  0  0
 23 24  2  0  0  0  0
 24 43  1  0  0  0  0
 25 24  1  0  0  0  0
 25 44  1  0  0  0  0
 26 25  2  0  0  0  0
 27 22  2  0  0  0  0
 27 26  1  0  0  0  0
 28 29  1  0  0  0  0
 29 47  1  0  0  0  0
 29 49  1  0  0  0  0
 30 31  1  0  0  0  0
 30 13  1  0  0  0  0
 30 50  1  1  0  0  0
 32 30  1  0  0  0  0
 34  6  1  0  0  0  0
 35  7  1  0  0  0  0
 37 12  1  0  0  0  0
 41 21  1  0  0  0  0
 45 26  1  0  0  0  0
 46 27  1  0  0  0  0
 48 29  1  0  0  0  0
 51 31  1  0  0  0  0
 52 32  1  0  0  0  0
 53 32  1  0  0  0  0
 54 32  1  0  0  0  0
M  END
>  <Pose>
1

>  <Score>
-6.50

$$$$
