
 OpenBabel03222201593D

 53 56  0  0  0  0  0  0  0  0999 V2000
  -23.7210    0.2100  -37.1370 B   0  0  0  0  0  0  0  0  0  0  0  0
  -22.5190   -0.6110  -35.8880 C   0  0  0  0  0  0  0  0  0  0  0  0
  -22.9790   -1.6270  -35.0470 C   0  0  0  0  0  0  0  0  0  0  0  0
  -22.0890   -2.2070  -34.1500 C   0  0  0  0  0  0  0  0  0  0  0  0
  -20.7740   -1.8100  -34.0690 C   0  0  0  0  0  0  0  0  0  0  0  0
  -20.1190   -2.5340  -33.1160 N   0  0  0  0  0  0  0  0  0  0  0  0
  -21.0310   -3.3740  -32.6120 C   0  0  0  0  0  0  0  0  0  0  0  0
  -22.2600   -3.2090  -33.2190 C   0  0  0  0  0  0  0  0  0  0  0  0
  -18.7240   -2.3790  -32.7610 C   0  0  0  0  0  0  0  0  0  0  0  0
  -18.5470   -1.4620  -31.5840 C   0  0  0  0  0  0  0  0  0  0  0  0
  -17.5820   -0.6730  -31.5810 O   0  0  0  0  0  0  0  0  0  0  0  0
  -19.4450   -1.4870  -30.5070 N   0  0  0  0  0  0  0  0  0  0  0  0
  -19.5440   -2.5920  -29.5790 C   0  0  0  0  0  0  0  0  0  0  0  0
  -19.4250   -2.0070  -28.1820 C   0  0  0  0  0  0  0  0  0  0  0  0
  -19.0990   -0.6430  -28.2150 N   0  0  0  0  0  0  0  0  0  0  0  0
  -19.9120    0.2600  -28.9210 C   0  0  0  0  0  0  0  0  0  0  0  0
  -20.3670   -0.3750  -30.2300 C   0  0  0  0  0  0  0  0  0  0  0  0
  -17.8710   -0.2080  -27.6900 C   0  0  0  0  0  0  0  0  0  0  0  0
  -17.9720    0.4660  -26.3690 C   0  0  0  0  0  0  0  0  0  0  0  0
  -18.2070   -0.2710  -25.3790 O   0  0  0  0  0  0  0  0  0  0  0  0
  -17.8210    1.8490  -26.1840 N   0  0  0  0  0  0  0  0  0  0  0  0
  -17.5370    2.3850  -24.8670 C   0  0  0  0  0  0  0  0  0  0  0  0
  -16.2960    3.2430  -24.9940 C   0  0  0  0  0  0  0  0  0  0  0  0
  -16.6660    4.3180  -25.8150 O   0  0  0  0  0  0  0  0  0  0  0  0
  -16.9210    3.9100  -27.1020 C   0  0  0  0  0  0  0  0  0  0  0  0
  -17.9310    2.8260  -27.2490 C   0  0  0  0  0  0  0  0  0  0  0  0
  -20.3140   -0.8110  -34.8950 C   0  0  0  0  0  0  0  0  0  0  0  0
  -21.1990   -0.2260  -35.7940 C   0  0  0  0  0  0  0  0  0  0  0  0
  -24.0060   -1.9190  -35.1260 H   0  0  0  0  0  0  0  0  0  0  0  0
  -20.8280   -4.0940  -31.8260 H   0  0  0  0  0  0  0  0  0  0  0  0
  -23.1900   -3.7220  -33.0450 H   0  0  0  0  0  0  0  0  0  0  0  0
  -18.2540   -3.3490  -32.4880 H   0  0  0  0  0  0  0  0  0  0  0  0
  -18.1420   -1.9100  -33.5840 H   0  0  0  0  0  0  0  0  0  0  0  0
  -18.8280   -3.3910  -29.7890 H   0  0  0  0  0  0  0  0  0  0  0  0
  -20.5610   -3.0710  -29.6440 H   0  0  0  0  0  0  0  0  0  0  0  0
  -18.5580   -2.5530  -27.7060 H   0  0  0  0  0  0  0  0  0  0  0  0
  -20.3020   -2.2840  -27.5540 H   0  0  0  0  0  0  0  0  0  0  0  0
  -20.7550    0.6910  -28.3730 H   0  0  0  0  0  0  0  0  0  0  0  0
  -19.2770    1.1400  -29.2380 H   0  0  0  0  0  0  0  0  0  0  0  0
  -21.3520   -0.8450  -30.0320 H   0  0  0  0  0  0  0  0  0  0  0  0
  -20.3630    0.3220  -31.0650 H   0  0  0  0  0  0  0  0  0  0  0  0
  -17.1610   -1.0810  -27.6600 H   0  0  0  0  0  0  0  0  0  0  0  0
  -17.4060    0.4980  -28.4320 H   0  0  0  0  0  0  0  0  0  0  0  0
  -18.3720    3.0980  -24.6020 H   0  0  0  0  0  0  0  0  0  0  0  0
  -17.4550    1.6010  -24.1000 H   0  0  0  0  0  0  0  0  0  0  0  0
  -16.0550    3.6710  -23.9910 H   0  0  0  0  0  0  0  0  0  0  0  0
  -15.4740    2.6470  -25.4080 H   0  0  0  0  0  0  0  0  0  0  0  0
  -17.2920    4.7990  -27.6650 H   0  0  0  0  0  0  0  0  0  0  0  0
  -15.9390    3.6630  -27.5580 H   0  0  0  0  0  0  0  0  0  0  0  0
  -18.9480    3.2680  -27.2380 H   0  0  0  0  0  0  0  0  0  0  0  0
  -17.8080    2.3720  -28.2510 H   0  0  0  0  0  0  0  0  0  0  0  0
  -19.2830   -0.4690  -34.8610 H   0  0  0  0  0  0  0  0  0  0  0  0
  -20.8160    0.5580  -36.4350 H   0  0  0  0  0  0  0  0  0  0  0  0
  1  2  1  0  0  0  0
  2 28  2  0  0  0  0
  2  3  1  0  0  0  0
  3  4  2  0  0  0  0
  4  5  1  0  0  0  0
  4  8  1  0  0  0  0
  5  6  1  0  0  0  0
  6  9  1  0  0  0  0
  6  7  1  0  0  0  0
  7 30  1  0  0  0  0
  8 31  1  0  0  0  0
  8  7  2  0  0  0  0
  9 32  1  0  0  0  0
  9 10  1  0  0  0  0
 10 11  2  0  0  0  0
 10 12  1  0  0  0  0
 12 17  1  0  0  0  0
 12 13  1  0  0  0  0
 13 14  1  0  0  0  0
 14 36  1  0  0  0  0
 14 37  1  0  0  0  0
 15 14  1  0  0  0  0
 15 18  1  0  0  0  0
 16 38  1  0  0  0  0
 16 15  1  0  0  0  0
 17 40  1  0  0  0  0
 17 16  1  0  0  0  0
 18 42  1  0  0  0  0
 18 19  1  0  0  0  0
 19 21  1  0  0  0  0
 19 20  2  0  0  0  0
 21 22  1  0  0  0  0
 22 44  1  0  0  0  0
 22 45  1  0  0  0  0
 23 22  1  0  0  0  0
 23 46  1  0  0  0  0
 24 23  1  0  0  0  0
 25 24  1  0  0  0  0
 26 50  1  0  0  0  0
 26 25  1  0  0  0  0
 26 21  1  0  0  0  0
 27 52  1  0  0  0  0
 27  5  2  0  0  0  0
 28 27  1  0  0  0  0
 29  3  1  0  0  0  0
 33  9  1  0  0  0  0
 34 13  1  0  0  0  0
 35 13  1  0  0  0  0
 39 16  1  0  0  0  0
 41 17  1  0  0  0  0
 43 18  1  0  0  0  0
 47 23  1  0  0  0  0
 48 25  1  0  0  0  0
 49 25  1  0  0  0  0
 51 26  1  0  0  0  0
 53 28  1  0  0  0  0
M  END
>  <Pose>
1

>  <Score>
-5.68

$$$$
