
 OpenBabel03222201593D

 47 50  0  0  1  0  0  0  0  0999 V2000
  -24.6880    0.8800  -38.6220 Cl  0  0  0  0  0  0  0  0  0  0  0  0
  -23.6850   -0.0600  -37.5520 C   0  0  0  0  0  0  0  0  0  0  0  0
  -22.5200    0.4960  -37.0710 C   0  0  0  0  0  0  0  0  0  0  0  0
  -21.6660   -0.1970  -36.2050 C   0  0  0  0  0  0  0  0  0  0  0  0
  -22.0540   -1.4650  -35.8600 C   0  0  0  0  0  0  0  0  0  0  0  0
  -23.2180   -2.0290  -36.3360 C   0  0  0  0  0  0  0  0  0  0  0  0
  -24.0640   -1.3290  -37.2000 C   0  0  0  0  0  0  0  0  0  0  0  0
  -20.4960    0.4730  -35.7560 N   0  0  0  0  0  0  0  0  0  0  0  0
  -19.2400    0.4310  -36.4120 C   0  0  0  0  0  0  0  0  0  0  0  0
  -19.0680   -0.2430  -37.4370 O   0  0  0  0  0  0  0  0  0  0  0  0
  -18.1320    1.1780  -35.8880 N   0  0  0  0  0  0  0  0  0  0  0  0
  -18.2740    1.9720  -34.7120 C   0  0  0  0  0  0  0  0  0  0  0  0
  -17.5250    2.9330  -34.4650 O   0  0  0  0  0  0  0  0  0  0  0  0
  -19.3730    1.6220  -33.7440 C   0  0  1  0  0  0  0  0  0  0  0  0
  -20.5550    1.2940  -34.5690 C   0  0  0  0  0  0  0  0  0  0  0  0
  -21.7190    1.7370  -34.2580 O   0  0  0  0  0  0  0  0  0  0  0  0
  -18.9240    0.4870  -32.8830 C   0  0  0  0  0  0  0  0  0  0  0  0
  -19.0750    0.3190  -31.5850 C   0  0  0  0  0  0  0  0  0  0  0  0
  -18.4530   -0.9770  -31.1980 C   0  0  2  0  0  0  0  0  0  0  0  0
  -17.4740   -1.1510  -32.3020 N   0  0  0  0  0  0  0  0  0  0  0  0
  -18.1960   -0.6400  -33.3890 N   0  0  0  0  0  0  0  0  0  0  0  0
  -19.4520   -2.0660  -31.3770 C   0  0  0  0  0  0  0  0  0  0  0  0
  -19.9050   -2.8370  -30.2850 C   0  0  0  0  0  0  0  0  0  0  0  0
  -20.8410   -3.8180  -30.3950 C   0  0  0  0  0  0  0  0  0  0  0  0
  -21.3940   -4.0960  -31.6310 C   0  0  0  0  0  0  0  0  0  0  0  0
  -20.9740   -3.3650  -32.7180 C   0  0  0  0  0  0  0  0  0  0  0  0
  -20.0260   -2.3740  -32.5920 C   0  0  0  0  0  0  0  0  0  0  0  0
  -22.3530   -5.0950  -31.7610 O   0  0  0  0  0  0  0  0  0  0  0  0
  -21.2540   -4.5570  -29.2770 O   0  0  0  0  0  0  0  0  0  0  0  0
  -20.3130   -4.8870  -28.2780 C   0  0  0  0  0  0  0  0  0  0  0  0
  -22.2090    1.5160  -37.3490 H   0  0  0  0  0  0  0  0  0  0  0  0
  -21.4310   -2.0340  -35.2040 H   0  0  0  0  0  0  0  0  0  0  0  0
  -23.5250   -3.0350  -36.0650 H   0  0  0  0  0  0  0  0  0  0  0  0
  -24.9770   -1.7740  -37.5680 H   0  0  0  0  0  0  0  0  0  0  0  0
  -17.2300    1.1330  -36.3790 H   0  0  0  0  0  0  0  0  0  0  0  0
  -19.6490    2.4970  -33.1240 H   0  0  0  0  0  0  0  0  0  0  0  0
  -19.5550    0.9740  -30.8800 H   0  0  0  0  0  0  0  0  0  0  0  0
  -17.9800   -0.9650  -30.2210 H   0  0  0  0  0  0  0  0  0  0  0  0
  -16.6150   -0.6040  -32.0970 H   0  0  0  0  0  0  0  0  0  0  0  0
  -18.2160   -0.9780  -34.3450 H   0  0  0  0  0  0  0  0  0  0  0  0
  -19.4560   -2.5970  -29.3350 H   0  0  0  0  0  0  0  0  0  0  0  0
  -21.4240   -3.6150  -33.6660 H   0  0  0  0  0  0  0  0  0  0  0  0
  -19.7180   -1.8140  -33.4700 H   0  0  0  0  0  0  0  0  0  0  0  0
  -22.4000   -5.8240  -31.0610 H   0  0  0  0  0  0  0  0  0  0  0  0
  -19.9900   -3.9990  -27.7220 H   0  0  0  0  0  0  0  0  0  0  0  0
  -20.8400   -5.5800  -27.5750 H   0  0  0  0  0  0  0  0  0  0  0  0
  -19.4790   -5.4540  -28.7560 H   0  0  0  0  0  0  0  0  0  0  0  0
  1  2  1  0  0  0  0
  2  7  2  0  0  0  0
  2  3  1  0  0  0  0
  3  4  2  0  0  0  0
  4  5  1  0  0  0  0
  4  8  1  0  0  0  0
  5 32  1  0  0  0  0
  6 33  1  0  0  0  0
  6  5  2  0  0  0  0
  7  6  1  0  0  0  0
  8 15  1  0  0  0  0
  9 11  1  0  0  0  0
  9  8  1  0  0  0  0
 10  9  2  0  0  0  0
 11 12  1  0  0  0  0
 12 13  2  0  0  0  0
 12 14  1  0  0  0  0
 14 36  1  1  0  0  0
 14 17  1  0  0  0  0
 15 16  2  0  0  0  0
 15 14  1  0  0  0  0
 17 18  2  0  0  0  0
 18 19  1  0  0  0  0
 18 37  1  0  0  0  0
 19 38  1  1  0  0  0
 20 39  1  0  0  0  0
 20 19  1  0  0  0  0
 21 17  1  0  0  0  0
 21 20  1  0  0  0  0
 22 19  1  0  0  0  0
 22 23  1  0  0  0  0
 23 41  1  0  0  0  0
 24 23  2  0  0  0  0
 24 29  1  0  0  0  0
 25 24  1  0  0  0  0
 26 27  1  0  0  0  0
 26 25  2  0  0  0  0
 27 22  2  0  0  0  0
 28 25  1  0  0  0  0
 28 44  1  0  0  0  0
 29 30  1  0  0  0  0
 30 45  1  0  0  0  0
 30 46  1  0  0  0  0
 31  3  1  0  0  0  0
 34  7  1  0  0  0  0
 35 11  1  0  0  0  0
 40 21  1  0  0  0  0
 42 26  1  0  0  0  0
 43 27  1  0  0  0  0
 47 30  1  0  0  0  0
M  END
>  <Pose>
1

>  <Score>
-7.33

$$$$
