
 OpenBabel03222201593D

 47 50  0  0  0  0  0  0  0  0999 V2000
  -19.9610    0.5670  -38.9390 Cl  0  0  0  0  0  0  0  0  0  0  0  0
  -19.9770    0.2310  -37.2190 C   0  0  0  0  0  0  0  0  0  0  0  0
  -18.8680    0.4050  -36.4130 C   0  0  0  0  0  0  0  0  0  0  0  0
  -18.8910    0.1390  -35.0550 C   0  0  0  0  0  0  0  0  0  0  0  0
  -20.0400   -0.3190  -34.4400 C   0  0  0  0  0  0  0  0  0  0  0  0
  -21.1540   -0.4970  -35.2340 C   0  0  0  0  0  0  0  0  0  0  0  0
  -21.1300   -0.2280  -36.6000 C   0  0  0  0  0  0  0  0  0  0  0  0
  -20.0440   -0.5870  -33.0420 N   0  0  0  0  0  0  0  0  0  0  0  0
  -20.1800   -1.7450  -32.5000 N   0  0  0  0  0  0  0  0  0  0  0  0
  -20.1390   -1.6680  -31.1170 C   0  0  0  0  0  0  0  0  0  0  0  0
  -19.9670   -0.3920  -30.8290 N   0  0  0  0  0  0  0  0  0  0  0  0
  -19.9120    0.2760  -32.0320 C   0  0  0  0  0  0  0  0  0  0  0  0
  -19.7570    1.5120  -32.1210 O   0  0  0  0  0  0  0  0  0  0  0  0
  -19.7570    0.2340  -29.5620 C   0  0  0  0  0  0  0  0  0  0  0  0
  -18.5080   -0.1400  -28.8700 C   0  0  0  0  0  0  0  0  0  0  0  0
  -17.5400   -0.4340  -29.6870 O   0  0  0  0  0  0  0  0  0  0  0  0
  -18.2010   -0.2290  -27.5310 N   0  0  0  0  0  0  0  0  0  0  0  0
  -18.6630   -1.2520  -26.6310 C   0  0  0  0  0  0  0  0  0  0  0  0
  -18.0880   -1.0840  -25.2130 C   0  0  0  0  0  0  0  0  0  0  0  0
  -18.3660    0.2760  -24.7440 N   0  0  0  0  0  0  0  0  0  0  0  0
  -18.0580    1.2910  -25.7240 C   0  0  0  0  0  0  0  0  0  0  0  0
  -18.3960    2.4810  -25.5300 O   0  0  0  0  0  0  0  0  0  0  0  0
  -17.3380    0.7990  -26.9230 C   0  0  0  0  0  0  0  0  0  0  0  0
  -20.2490   -2.8820  -30.3110 C   0  0  0  0  0  0  0  0  0  0  0  0
  -20.6520   -4.0620  -30.9500 C   0  0  0  0  0  0  0  0  0  0  0  0
  -20.8530   -5.2500  -30.3040 C   0  0  0  0  0  0  0  0  0  0  0  0
  -20.6610   -5.3480  -28.9320 C   0  0  0  0  0  0  0  0  0  0  0  0
  -20.2700   -4.2020  -28.2970 C   0  0  0  0  0  0  0  0  0  0  0  0
  -20.0660   -2.9900  -28.9630 C   0  0  0  0  0  0  0  0  0  0  0  0
  -17.9660    0.7640  -36.8900 H   0  0  0  0  0  0  0  0  0  0  0  0
  -18.0280    0.2750  -34.4270 H   0  0  0  0  0  0  0  0  0  0  0  0
  -22.0460   -0.8540  -34.7550 H   0  0  0  0  0  0  0  0  0  0  0  0
  -22.0050   -0.3700  -37.2150 H   0  0  0  0  0  0  0  0  0  0  0  0
  -20.5640    0.1700  -28.8680 H   0  0  0  0  0  0  0  0  0  0  0  0
  -19.6670    1.3690  -29.7850 H   0  0  0  0  0  0  0  0  0  0  0  0
  -18.2190   -2.2120  -27.0060 H   0  0  0  0  0  0  0  0  0  0  0  0
  -19.7420   -1.3310  -26.5640 H   0  0  0  0  0  0  0  0  0  0  0  0
  -16.9950   -1.2220  -25.2240 H   0  0  0  0  0  0  0  0  0  0  0  0
  -18.5260   -1.8450  -24.5510 H   0  0  0  0  0  0  0  0  0  0  0  0
  -18.7410    0.4910  -23.8160 H   0  0  0  0  0  0  0  0  0  0  0  0
  -17.1890    1.6220  -27.6610 H   0  0  0  0  0  0  0  0  0  0  0  0
  -16.3730    0.3070  -26.6610 H   0  0  0  0  0  0  0  0  0  0  0  0
  -20.8010   -3.9990  -32.0340 H   0  0  0  0  0  0  0  0  0  0  0  0
  -21.1650   -6.1450  -30.8180 H   0  0  0  0  0  0  0  0  0  0  0  0
  -20.8120   -6.2740  -28.4030 H   0  0  0  0  0  0  0  0  0  0  0  0
  -20.1120   -4.2420  -27.2130 H   0  0  0  0  0  0  0  0  0  0  0  0
  -19.7910   -2.1570  -28.3780 H   0  0  0  0  0  0  0  0  0  0  0  0
  1  2  1  0  0  0  0
  2  7  2  0  0  0  0
  2  3  1  0  0  0  0
  3  4  2  0  0  0  0
  4  5  1  0  0  0  0
  4 31  1  0  0  0  0
  5  8  1  0  0  0  0
  6 32  1  0  0  0  0
  6  5  2  0  0  0  0
  7  6  1  0  0  0  0
  8  9  1  0  0  0  0
  8 12  1  0  0  0  0
  9 10  2  0  0  0  0
 10 11  1  0  0  0  0
 10 24  1  0  0  0  0
 11 14  1  0  0  0  0
 12 11  1  0  0  0  0
 13 12  2  0  0  0  0
 14 15  1  0  0  0  0
 14 34  1  0  0  0  0
 15 17  1  0  0  0  0
 16 15  2  0  0  0  0
 17 23  1  0  0  0  0
 17 18  1  0  0  0  0
 18 37  1  0  0  0  0
 18 19  1  0  0  0  0
 19 20  1  0  0  0  0
 19 39  1  0  0  0  0
 20 40  1  0  0  0  0
 21 22  2  0  0  0  0
 21 20  1  0  0  0  0
 23 42  1  0  0  0  0
 23 21  1  0  0  0  0
 24 29  1  0  0  0  0
 25 24  2  0  0  0  0
 25 26  1  0  0  0  0
 26 27  2  0  0  0  0
 27 45  1  0  0  0  0
 27 28  1  0  0  0  0
 28 46  1  0  0  0  0
 29 47  1  0  0  0  0
 29 28  2  0  0  0  0
 30  3  1  0  0  0  0
 33  7  1  0  0  0  0
 35 14  1  0  0  0  0
 36 18  1  0  0  0  0
 38 19  1  0  0  0  0
 41 23  1  0  0  0  0
 43 25  1  0  0  0  0
 44 26  1  0  0  0  0
M  END
>  <Pose>
1

>  <Score>
-6.07

$$$$
