
 OpenBabel03222201593D

 42 45  0  0  0  0  0  0  0  0999 V2000
  -21.3690   -4.3520  -31.5440 Cl  0  0  0  0  0  0  0  0  0  0  0  0
  -20.6270   -3.6050  -30.1280 C   0  0  0  0  0  0  0  0  0  0  0  0
  -19.7070   -2.6000  -30.2210 C   0  0  0  0  0  0  0  0  0  0  0  0
  -19.1060   -1.9920  -29.1380 C   0  0  0  0  0  0  0  0  0  0  0  0
  -19.4730   -2.4460  -27.8750 C   0  0  0  0  0  0  0  0  0  0  0  0
  -20.4150   -3.4780  -27.7720 C   0  0  0  0  0  0  0  0  0  0  0  0
  -20.9820   -4.0470  -28.8770 C   0  0  0  0  0  0  0  0  0  0  0  0
  -18.9000   -1.8720  -26.7190 N   0  0  0  0  0  0  0  0  0  0  0  0
  -18.5070   -2.5340  -25.6570 N   0  0  0  0  0  0  0  0  0  0  0  0
  -18.0300   -1.6340  -24.8020 N   0  0  0  0  0  0  0  0  0  0  0  0
  -18.1170   -0.3920  -25.3160 C   0  0  0  0  0  0  0  0  0  0  0  0
  -18.6670   -0.5620  -26.5230 C   0  0  0  0  0  0  0  0  0  0  0  0
  -18.7560    0.7160  -27.0560 C   0  0  0  0  0  0  0  0  0  0  0  0
  -19.2260    0.9680  -28.1880 O   0  0  0  0  0  0  0  0  0  0  0  0
  -18.2810    1.6440  -26.2120 N   0  0  0  0  0  0  0  0  0  0  0  0
  -17.8820    0.9550  -25.1270 C   0  0  0  0  0  0  0  0  0  0  0  0
  -17.3680    1.4650  -24.0870 O   0  0  0  0  0  0  0  0  0  0  0  0
  -18.1980    3.0560  -26.3820 C   0  0  0  0  0  0  0  0  0  0  0  0
  -19.0210    3.9430  -25.7160 C   0  0  0  0  0  0  0  0  0  0  0  0
  -18.9330    5.3090  -25.8850 C   0  0  0  0  0  0  0  0  0  0  0  0
  -18.0040    5.8590  -26.7440 C   0  0  0  0  0  0  0  0  0  0  0  0
  -17.1760    4.9860  -27.4160 C   0  0  0  0  0  0  0  0  0  0  0  0
  -17.2710    3.6170  -27.2390 C   0  0  0  0  0  0  0  0  0  0  0  0
  -17.9240    7.2390  -26.9080 O   0  0  0  0  0  0  0  0  0  0  0  0
  -16.8650    7.8820  -27.5500 C   0  0  0  0  0  0  0  0  0  0  0  0
  -19.7630    6.2020  -25.2140 O   0  0  0  0  0  0  0  0  0  0  0  0
  -20.2610    5.8030  -23.9500 C   0  0  0  0  0  0  0  0  0  0  0  0
  -19.4240   -2.2490  -31.2140 H   0  0  0  0  0  0  0  0  0  0  0  0
  -18.3790   -1.1960  -29.2470 H   0  0  0  0  0  0  0  0  0  0  0  0
  -20.7100   -3.8410  -26.7820 H   0  0  0  0  0  0  0  0  0  0  0  0
  -21.7220   -4.8550  -28.8110 H   0  0  0  0  0  0  0  0  0  0  0  0
  -18.5570   -3.5840  -25.5010 H   0  0  0  0  0  0  0  0  0  0  0  0
  -17.6460   -1.8890  -23.8610 H   0  0  0  0  0  0  0  0  0  0  0  0
  -19.7510    3.5210  -25.0420 H   0  0  0  0  0  0  0  0  0  0  0  0
  -16.4460    5.4150  -28.0900 H   0  0  0  0  0  0  0  0  0  0  0  0
  -16.6130    2.9400  -27.7740 H   0  0  0  0  0  0  0  0  0  0  0  0
  -16.7680    8.9520  -27.2750 H   0  0  0  0  0  0  0  0  0  0  0  0
  -15.8740    7.4150  -27.3090 H   0  0  0  0  0  0  0  0  0  0  0  0
  -17.0110    7.7970  -28.6440 H   0  0  0  0  0  0  0  0  0  0  0  0
  -19.4400    5.4290  -23.3150 H   0  0  0  0  0  0  0  0  0  0  0  0
  -20.8000    6.6190  -23.4370 H   0  0  0  0  0  0  0  0  0  0  0  0
  -21.0010    4.9940  -24.1190 H   0  0  0  0  0  0  0  0  0  0  0  0
  1  2  1  0  0  0  0
  2  7  1  0  0  0  0
  3  2  2  0  0  0  0
  3  4  1  0  0  0  0
  4  5  2  0  0  0  0
  5  6  1  0  0  0  0
  5  8  1  0  0  0  0
  6 30  1  0  0  0  0
  7 31  1  0  0  0  0
  7  6  2  0  0  0  0
  8 12  1  0  0  0  0
  8  9  1  0  0  0  0
  9 32  1  0  0  0  0
  9 10  1  0  0  0  0
 10 33  1  0  0  0  0
 11 16  1  0  0  0  0
 11 10  1  0  0  0  0
 12 11  2  0  0  0  0
 13 12  1  0  0  0  0
 13 15  1  0  0  0  0
 14 13  2  0  0  0  0
 15 16  1  0  0  0  0
 16 17  2  0  0  0  0
 18 15  1  0  0  0  0
 18 19  1  0  0  0  0
 19 34  1  0  0  0  0
 20 19  2  0  0  0  0
 20 26  1  0  0  0  0
 21 20  1  0  0  0  0
 22 23  1  0  0  0  0
 22 21  2  0  0  0  0
 23 18  2  0  0  0  0
 24 21  1  0  0  0  0
 25 38  1  0  0  0  0
 25 37  1  0  0  0  0
 25 24  1  0  0  0  0
 26 27  1  0  0  0  0
 27 41  1  0  0  0  0
 27 40  1  0  0  0  0
 28  3  1  0  0  0  0
 29  4  1  0  0  0  0
 35 22  1  0  0  0  0
 36 23  1  0  0  0  0
 39 25  1  0  0  0  0
 42 27  1  0  0  0  0
M  END
>  <Pose>
1

>  <Score>
-7.16

$$$$
