
 OpenBabel03222201593D

 57 60  0  0  1  0  0  0  0  0999 V2000
  -19.1000   -2.2220  -26.8940 S   0  0  0  0  0  0  0  0  0  0  0  0
  -18.0990   -2.9810  -26.0710 O   0  0  0  0  0  0  0  0  0  0  0  0
  -20.4040   -2.2940  -26.1280 O   0  0  0  0  0  0  0  0  0  0  0  0
  -19.3780   -2.9780  -28.4130 N   0  0  0  0  0  0  0  0  0  0  0  0
  -20.4190   -3.9700  -28.3220 C   0  0  0  0  0  0  0  0  0  0  0  0
  -20.8420   -4.3250  -29.7290 C   0  0  0  0  0  0  0  0  0  0  0  0
  -19.8910   -3.7810  -30.6650 N   0  0  0  0  0  0  0  0  0  0  0  0
  -18.4550   -3.8340  -30.4150 C   0  0  0  0  0  0  0  0  0  0  0  0
  -18.1890   -3.6320  -28.9210 C   0  0  0  0  0  0  0  0  0  0  0  0
  -20.3450   -3.1720  -31.8480 C   0  0  0  0  0  0  0  0  0  0  0  0
  -20.6840   -3.9120  -32.8360 O   0  0  0  0  0  0  0  0  0  0  0  0
  -20.4270   -1.6900  -31.9540 C   0  0  1  0  0  0  0  0  0  0  0  0
  -19.1540   -1.0710  -32.4540 C   0  0  0  0  0  0  0  0  0  0  0  0
  -19.4100   -0.7260  -33.8490 N   0  0  0  0  0  0  0  0  0  0  0  0
  -20.7050   -1.1610  -34.2190 C   0  0  0  0  0  0  0  0  0  0  0  0
  -21.0700   -1.3880  -35.3980 O   0  0  0  0  0  0  0  0  0  0  0  0
  -21.4670   -1.2700  -32.9560 C   0  0  0  0  0  0  0  0  0  0  0  0
  -18.4700   -0.0470  -34.7120 C   0  0  0  0  0  0  0  0  0  0  0  0
  -18.9300    1.3180  -35.0620 C   0  0  0  0  0  0  0  0  0  0  0  0
  -19.2630    1.6030  -36.3780 C   0  0  0  0  0  0  0  0  0  0  0  0
  -19.6980    2.8540  -36.7810 C   0  0  0  0  0  0  0  0  0  0  0  0
  -19.7910    3.8310  -35.8100 C   0  0  0  0  0  0  0  0  0  0  0  0
  -19.4680    3.5810  -34.4880 C   0  0  0  0  0  0  0  0  0  0  0  0
  -19.0320    2.3110  -34.1120 C   0  0  0  0  0  0  0  0  0  0  0  0
  -19.1230    0.3260  -37.5560 Cl  0  0  0  0  0  0  0  0  0  0  0  0
  -18.6520   -0.5540  -27.0810 C   0  0  0  0  0  0  0  0  0  0  0  0
  -18.6950    0.2730  -28.1810 C   0  0  0  0  0  0  0  0  0  0  0  0
  -18.2180    1.4970  -27.7960 N   0  0  0  0  0  0  0  0  0  0  0  0
  -17.9100    1.4220  -26.5570 O   0  0  0  0  0  0  0  0  0  0  0  0
  -18.1410    0.2290  -26.0630 C   0  0  0  0  0  0  0  0  0  0  0  0
  -17.8760   -0.1380  -24.6540 C   0  0  0  0  0  0  0  0  0  0  0  0
  -19.1800   -0.1140  -29.5190 C   0  0  0  0  0  0  0  0  0  0  0  0
  -20.0460   -4.9190  -27.8480 H   0  0  0  0  0  0  0  0  0  0  0  0
  -21.2770   -3.6300  -27.7060 H   0  0  0  0  0  0  0  0  0  0  0  0
  -20.9420   -5.4340  -29.8520 H   0  0  0  0  0  0  0  0  0  0  0  0
  -21.8210   -3.8520  -29.9120 H   0  0  0  0  0  0  0  0  0  0  0  0
  -18.0300   -4.7820  -30.7960 H   0  0  0  0  0  0  0  0  0  0  0  0
  -17.9950   -3.0110  -30.9910 H   0  0  0  0  0  0  0  0  0  0  0  0
  -17.2750   -3.0520  -28.8110 H   0  0  0  0  0  0  0  0  0  0  0  0
  -18.0320   -4.6450  -28.4970 H   0  0  0  0  0  0  0  0  0  0  0  0
  -20.6970   -1.2840  -30.9310 H   0  0  0  0  0  0  0  0  0  0  0  0
  -18.9260   -0.1570  -31.8500 H   0  0  0  0  0  0  0  0  0  0  0  0
  -18.2720   -1.7780  -32.4100 H   0  0  0  0  0  0  0  0  0  0  0  0
  -22.2930   -2.0090  -33.0340 H   0  0  0  0  0  0  0  0  0  0  0  0
  -21.8420   -0.2620  -32.6710 H   0  0  0  0  0  0  0  0  0  0  0  0
  -18.2610   -0.6070  -35.6470 H   0  0  0  0  0  0  0  0  0  0  0  0
  -17.5090    0.0800  -34.1500 H   0  0  0  0  0  0  0  0  0  0  0  0
  -19.9410    3.0120  -37.8200 H   0  0  0  0  0  0  0  0  0  0  0  0
  -20.1330    4.8300  -36.1010 H   0  0  0  0  0  0  0  0  0  0  0  0
  -19.5560    4.3740  -33.7660 H   0  0  0  0  0  0  0  0  0  0  0  0
  -18.7780    2.1160  -33.0810 H   0  0  0  0  0  0  0  0  0  0  0  0
  -18.0410   -1.2300  -24.5420 H   0  0  0  0  0  0  0  0  0  0  0  0
  -16.7780    0.0610  -24.4830 H   0  0  0  0  0  0  0  0  0  0  0  0
  -18.4710    0.4790  -23.9780 H   0  0  0  0  0  0  0  0  0  0  0  0
  -19.4930    0.8500  -30.0200 H   0  0  0  0  0  0  0  0  0  0  0  0
  -18.4140   -0.5430  -30.1720 H   0  0  0  0  0  0  0  0  0  0  0  0
  -20.0740   -0.7970  -29.4570 H   0  0  0  0  0  0  0  0  0  0  0  0
  1  3  2  0  0  0  0
  1  2  2  0  0  0  0
  4  5  1  0  0  0  0
  4  1  1  0  0  0  0
  5 33  1  0  0  0  0
  5 34  1  0  0  0  0
  6  5  1  0  0  0  0
  7  8  1  0  0  0  0
  7  6  1  0  0  0  0
  8  9  1  0  0  0  0
  9 39  1  0  0  0  0
  9 40  1  0  0  0  0
  9  4  1  0  0  0  0
 10  7  1  0  0  0  0
 11 10  2  0  0  0  0
 12 10  1  0  0  0  0
 12 41  1  1  0  0  0
 13 43  1  0  0  0  0
 13 12  1  0  0  0  0
 13 42  1  0  0  0  0
 14 13  1  0  0  0  0
 15 14  1  0  0  0  0
 15 17  1  0  0  0  0
 16 15  2  0  0  0  0
 17 45  1  0  0  0  0
 17 12  1  0  0  0  0
 18 47  1  0  0  0  0
 18 14  1  0  0  0  0
 19 18  1  0  0  0  0
 19 24  1  0  0  0  0
 20 19  2  0  0  0  0
 21 20  1  0  0  0  0
 21 22  2  0  0  0  0
 22 23  1  0  0  0  0
 23 24  2  0  0  0  0
 23 50  1  0  0  0  0
 24 51  1  0  0  0  0
 25 20  1  0  0  0  0
 26  1  1  0  0  0  0
 26 30  2  0  0  0  0
 27 28  2  0  0  0  0
 27 26  1  0  0  0  0
 28 29  1  0  0  0  0
 29 30  1  0  0  0  0
 30 31  1  0  0  0  0
 31 52  1  0  0  0  0
 31 53  1  0  0  0  0
 31 54  1  0  0  0  0
 32 57  1  0  0  0  0
 32 27  1  0  0  0  0
 35  6  1  0  0  0  0
 36  6  1  0  0  0  0
 37  8  1  0  0  0  0
 38  8  1  0  0  0  0
 44 17  1  0  0  0  0
 46 18  1  0  0  0  0
 48 21  1  0  0  0  0
 49 22  1  0  0  0  0
 55 32  1  0  0  0  0
 56 32  1  0  0  0  0
M  END
>  <Pose>
1

>  <Score>
-5.69

$$$$
