
 OpenBabel03222201593D

 58 61  0  0  0  0  0  0  0  0999 V2000
  -17.4220    2.7740  -25.0510 Cl  0  0  0  0  0  0  0  0  0  0  0  0
  -17.9390    1.1810  -25.5550 C   0  0  0  0  0  0  0  0  0  0  0  0
  -18.5530    0.9570  -26.7840 C   0  0  0  0  0  0  0  0  0  0  0  0
  -18.9600   -0.2950  -27.1760 C   0  0  0  0  0  0  0  0  0  0  0  0
  -18.7500   -1.3530  -26.3230 C   0  0  0  0  0  0  0  0  0  0  0  0
  -18.1310   -1.1230  -25.0870 C   0  0  0  0  0  0  0  0  0  0  0  0
  -17.7240    0.1310  -24.6930 C   0  0  0  0  0  0  0  0  0  0  0  0
  -17.1040    0.3520  -23.4490 O   0  0  0  0  0  0  0  0  0  0  0  0
  -16.9590    1.6420  -22.9090 C   0  0  0  0  0  0  0  0  0  0  0  0
  -19.1320   -2.5540  -26.6840 O   0  0  0  0  0  0  0  0  0  0  0  0
  -19.7140   -2.7980  -27.8330 C   0  0  0  0  0  0  0  0  0  0  0  0
  -20.0720   -3.9810  -28.1500 O   0  0  0  0  0  0  0  0  0  0  0  0
  -19.9750   -1.8010  -28.7720 C   0  0  0  0  0  0  0  0  0  0  0  0
  -19.5780   -0.5340  -28.4070 C   0  0  0  0  0  0  0  0  0  0  0  0
  -19.7930    0.5940  -29.3080 C   0  0  0  0  0  0  0  0  0  0  0  0
  -20.6340   -2.1420  -30.0520 C   0  0  0  0  0  0  0  0  0  0  0  0
  -19.7080   -1.9630  -31.2050 C   0  0  0  0  0  0  0  0  0  0  0  0
  -18.4640   -1.8230  -30.9410 O   0  0  0  0  0  0  0  0  0  0  0  0
  -20.0890   -1.9370  -32.5340 N   0  0  0  0  0  0  0  0  0  0  0  0
  -19.4990   -1.0680  -33.5040 C   0  0  0  0  0  0  0  0  0  0  0  0
  -20.6070   -0.1830  -34.0770 C   0  0  0  0  0  0  0  0  0  0  0  0
  -21.6510   -1.0030  -34.5930 N   0  0  0  0  0  0  0  0  0  0  0  0
  -21.4760   -2.4640  -34.4460 C   0  0  0  0  0  0  0  0  0  0  0  0
  -21.1320   -2.8140  -33.0160 C   0  0  0  0  0  0  0  0  0  0  0  0
  -22.8280   -0.5410  -35.2190 C   0  0  0  0  0  0  0  0  0  0  0  0
  -23.7650   -0.1540  -34.3590 O   0  0  0  0  0  0  0  0  0  0  0  0
  -23.1910   -0.4140  -36.5980 C   0  0  0  0  0  0  0  0  0  0  0  0
  -24.2380    0.4700  -36.9620 C   0  0  0  0  0  0  0  0  0  0  0  0
  -24.6190    0.6160  -38.2690 C   0  0  0  0  0  0  0  0  0  0  0  0
  -25.5520    1.4080  -38.5660 O   0  0  0  0  0  0  0  0  0  0  0  0
  -24.0390   -0.0580  -39.2710 N   0  0  0  0  0  0  0  0  0  0  0  0
  -23.0550   -0.8900  -38.9290 C   0  0  0  0  0  0  0  0  0  0  0  0
  -22.4700   -1.5560  -39.8450 O   0  0  0  0  0  0  0  0  0  0  0  0
  -22.6460   -1.0600  -37.6230 N   0  0  0  0  0  0  0  0  0  0  0  0
  -24.4570    0.1070  -40.6440 C   0  0  0  0  0  0  0  0  0  0  0  0
  -18.7250    1.7770  -27.4650 H   0  0  0  0  0  0  0  0  0  0  0  0
  -17.9750   -1.9670  -24.4310 H   0  0  0  0  0  0  0  0  0  0  0  0
  -17.8480    2.2840  -23.0570 H   0  0  0  0  0  0  0  0  0  0  0  0
  -16.6540    1.5410  -21.8540 H   0  0  0  0  0  0  0  0  0  0  0  0
  -16.1430    2.1410  -23.5110 H   0  0  0  0  0  0  0  0  0  0  0  0
  -20.3960    1.3540  -28.7250 H   0  0  0  0  0  0  0  0  0  0  0  0
  -20.3660    0.3760  -30.1990 H   0  0  0  0  0  0  0  0  0  0  0  0
  -18.8450    1.1290  -29.5380 H   0  0  0  0  0  0  0  0  0  0  0  0
  -21.6330   -1.7530  -30.1970 H   0  0  0  0  0  0  0  0  0  0  0  0
  -20.7750   -3.2700  -29.9990 H   0  0  0  0  0  0  0  0  0  0  0  0
  -19.0690   -1.6170  -34.3700 H   0  0  0  0  0  0  0  0  0  0  0  0
  -18.6700   -0.4530  -33.1010 H   0  0  0  0  0  0  0  0  0  0  0  0
  -21.0290    0.4430  -33.2520 H   0  0  0  0  0  0  0  0  0  0  0  0
  -20.1470    0.5110  -34.8170 H   0  0  0  0  0  0  0  0  0  0  0  0
  -22.3820   -2.9440  -34.8240 H   0  0  0  0  0  0  0  0  0  0  0  0
  -20.6120   -2.7290  -35.0710 H   0  0  0  0  0  0  0  0  0  0  0  0
  -22.0330   -2.6470  -32.4030 H   0  0  0  0  0  0  0  0  0  0  0  0
  -20.8180   -3.8610  -32.8990 H   0  0  0  0  0  0  0  0  0  0  0  0
  -24.7080    1.0150  -36.1550 H   0  0  0  0  0  0  0  0  0  0  0  0
  -21.8680   -1.7290  -37.4630 H   0  0  0  0  0  0  0  0  0  0  0  0
  -23.9930   -0.7010  -41.2480 H   0  0  0  0  0  0  0  0  0  0  0  0
  -24.0470    1.0640  -41.0750 H   0  0  0  0  0  0  0  0  0  0  0  0
  -25.5560    0.0900  -40.7690 H   0  0  0  0  0  0  0  0  0  0  0  0
  2  1  1  0  0  0  0
  2  7  1  0  0  0  0
  3  2  2  0  0  0  0
  4  3  1  0  0  0  0
  4  5  2  0  0  0  0
  5  6  1  0  0  0  0
  6  7  2  0  0  0  0
  6 37  1  0  0  0  0
  7  8  1  0  0  0  0
  8  9  1  0  0  0  0
  9 39  1  0  0  0  0
 10  5  1  0  0  0  0
 11 10  1  0  0  0  0
 12 11  2  0  0  0  0
 13 14  2  0  0  0  0
 13 11  1  0  0  0  0
 14  4  1  0  0  0  0
 15 41  1  0  0  0  0
 15 14  1  0  0  0  0
 16 45  1  0  0  0  0
 16 13  1  0  0  0  0
 17 18  2  0  0  0  0
 17 16  1  0  0  0  0
 19 17  1  0  0  0  0
 20 47  1  0  0  0  0
 20 19  1  0  0  0  0
 21 20  1  0  0  0  0
 21 48  1  0  0  0  0
 22 23  1  0  0  0  0
 22 21  1  0  0  0  0
 23 24  1  0  0  0  0
 24 53  1  0  0  0  0
 24 19  1  0  0  0  0
 24 52  1  0  0  0  0
 25 22  1  0  0  0  0
 25 26  2  0  0  0  0
 27 25  1  0  0  0  0
 28 27  2  0  0  0  0
 28 54  1  0  0  0  0
 29 28  1  0  0  0  0
 30 29  2  0  0  0  0
 31 32  1  0  0  0  0
 31 29  1  0  0  0  0
 32 34  1  0  0  0  0
 33 32  2  0  0  0  0
 34 55  1  0  0  0  0
 34 27  1  0  0  0  0
 35 31  1  0  0  0  0
 36  3  1  0  0  0  0
 38  9  1  0  0  0  0
 40  9  1  0  0  0  0
 42 15  1  0  0  0  0
 43 15  1  0  0  0  0
 44 16  1  0  0  0  0
 46 20  1  0  0  0  0
 49 21  1  0  0  0  0
 50 23  1  0  0  0  0
 51 23  1  0  0  0  0
 56 35  1  0  0  0  0
 57 35  1  0  0  0  0
 58 35  1  0  0  0  0
M  END
>  <Pose>
1

>  <Score>
-7.25

$$$$
