
 OpenBabel03222201593D

 47 50  0  0  1  0  0  0  0  0999 V2000
  -17.2980    3.7630  -27.5850 Cl  0  0  0  0  0  0  0  0  0  0  0  0
  -17.4370    2.9770  -26.0300 C   0  0  0  0  0  0  0  0  0  0  0  0
  -17.6820    1.6210  -26.0060 C   0  0  0  0  0  0  0  0  0  0  0  0
  -17.7900    1.0060  -24.7780 C   0  0  0  0  0  0  0  0  0  0  0  0
  -17.6600    1.7180  -23.5930 C   0  0  0  0  0  0  0  0  0  0  0  0
  -17.4150    3.0750  -23.6080 C   0  0  0  0  0  0  0  0  0  0  0  0
  -17.3070    3.6910  -24.8360 C   0  0  0  0  0  0  0  0  0  0  0  0
  -18.1020   -0.7260  -24.7420 Cl  0  0  0  0  0  0  0  0  0  0  0  0
  -17.8230    0.8500  -27.2450 C   0  0  0  0  0  0  0  0  0  0  0  0
  -18.8560    0.9490  -27.9980 N   0  0  0  0  0  0  0  0  0  0  0  0
  -18.9120    0.1780  -29.1610 N   0  0  0  0  0  0  0  0  0  0  0  0
  -19.2880   -1.1910  -29.1460 C   0  0  0  0  0  0  0  0  0  0  0  0
  -19.6990   -1.8990  -30.2100 N   0  0  0  0  0  0  0  0  0  0  0  0
  -19.9500   -3.1390  -29.7560 C   0  0  0  0  0  0  0  0  0  0  0  0
  -20.3850   -4.2720  -30.3590 N   0  0  0  0  0  0  0  0  0  0  0  0
  -20.5650   -5.4180  -29.6730 C   0  0  0  0  0  0  0  0  0  0  0  0
  -20.3110   -5.4610  -28.3480 N   0  0  0  0  0  0  0  0  0  0  0  0
  -19.8760   -4.3770  -27.6770 C   0  0  0  0  0  0  0  0  0  0  0  0
  -19.6990   -3.2150  -28.4020 C   0  0  0  0  0  0  0  0  0  0  0  0
  -19.2840   -1.9770  -28.0440 N   0  0  0  0  0  0  0  0  0  0  0  0
  -19.6170   -4.4540  -26.2900 N   0  0  0  0  0  0  0  0  0  0  0  0
  -19.8640   -1.5030  -31.5780 C   0  0  1  0  0  0  0  0  0  0  0  0
  -20.9690   -0.6780  -31.7680 O   0  0  0  0  0  0  0  0  0  0  0  0
  -20.7220   -0.1780  -33.0460 C   0  0  2  0  0  0  0  0  0  0  0  0
  -19.3250    0.3960  -32.8660 C   0  0  1  0  0  0  0  0  0  0  0  0
  -18.6650   -0.7110  -32.0700 C   0  0  2  0  0  0  0  0  0  0  0  0
  -17.8960   -1.4560  -32.9660 O   0  0  0  0  0  0  0  0  0  0  0  0
  -18.6920    0.6080  -34.0830 O   0  0  0  0  0  0  0  0  0  0  0  0
  -21.7120    0.8780  -33.4590 C   0  0  0  0  0  0  0  0  0  0  0  0
  -23.0160    0.4570  -33.3720 O   0  0  0  0  0  0  0  0  0  0  0  0
  -17.7440    1.2420  -22.6260 H   0  0  0  0  0  0  0  0  0  0  0  0
  -17.3060    3.6710  -22.7120 H   0  0  0  0  0  0  0  0  0  0  0  0
  -17.1130    4.7660  -24.8730 H   0  0  0  0  0  0  0  0  0  0  0  0
  -17.0380    0.1740  -27.5430 H   0  0  0  0  0  0  0  0  0  0  0  0
  -18.6580    0.6620  -30.0550 H   0  0  0  0  0  0  0  0  0  0  0  0
  -20.9120   -6.3260  -30.1470 H   0  0  0  0  0  0  0  0  0  0  0  0
  -20.1620   -5.0740  -25.6660 H   0  0  0  0  0  0  0  0  0  0  0  0
  -18.8620   -3.8720  -25.8860 H   0  0  0  0  0  0  0  0  0  0  0  0
  -19.9940   -2.3670  -32.2670 H   0  0  0  0  0  0  0  0  0  0  0  0
  -20.6580   -1.0170  -33.7360 H   0  0  0  0  0  0  0  0  0  0  0  0
  -19.3820    1.3360  -32.2530 H   0  0  0  0  0  0  0  0  0  0  0  0
  -18.0570   -0.3230  -31.2290 H   0  0  0  0  0  0  0  0  0  0  0  0
  -17.0190   -1.0520  -33.1240 H   0  0  0  0  0  0  0  0  0  0  0  0
  -18.3830   -0.2780  -34.4150 H   0  0  0  0  0  0  0  0  0  0  0  0
  -21.4780    1.1460  -34.5110 H   0  0  0  0  0  0  0  0  0  0  0  0
  -21.4870    1.7840  -32.8590 H   0  0  0  0  0  0  0  0  0  0  0  0
  -23.5260    0.9690  -32.7060 H   0  0  0  0  0  0  0  0  0  0  0  0
  1  2  1  0  0  0  0
  2  3  2  0  0  0  0
  2  7  1  0  0  0  0
  3  4  1  0  0  0  0
  4  8  1  0  0  0  0
  4  5  2  0  0  0  0
  5 31  1  0  0  0  0
  6  5  1  0  0  0  0
  6 32  1  0  0  0  0
  7  6  2  0  0  0  0
  9  3  1  0  0  0  0
 10  9  2  0  0  0  0
 11 12  1  0  0  0  0
 11 10  1  0  0  0  0
 12 20  2  0  0  0  0
 13 14  1  0  0  0  0
 13 12  1  0  0  0  0
 14 19  2  0  0  0  0
 15 14  1  0  0  0  0
 15 16  2  0  0  0  0
 16 17  1  0  0  0  0
 17 18  2  0  0  0  0
 18 21  1  0  0  0  0
 19 20  1  0  0  0  0
 19 18  1  0  0  0  0
 21 38  1  0  0  0  0
 21 37  1  0  0  0  0
 22 39  1  6  0  0  0
 22 13  1  0  0  0  0
 23 22  1  0  0  0  0
 24 40  1  6  0  0  0
 24 25  1  0  0  0  0
 24 23  1  0  0  0  0
 25 41  1  1  0  0  0
 25 26  1  0  0  0  0
 26 22  1  0  0  0  0
 26 42  1  1  0  0  0
 27 26  1  0  0  0  0
 28 25  1  0  0  0  0
 29 30  1  0  0  0  0
 29 24  1  0  0  0  0
 29 46  1  0  0  0  0
 30 47  1  0  0  0  0
 33  7  1  0  0  0  0
 34  9  1  0  0  0  0
 35 11  1  0  0  0  0
 36 16  1  0  0  0  0
 43 27  1  0  0  0  0
 44 28  1  0  0  0  0
 45 29  1  0  0  0  0
M  END
>  <Pose>
1

>  <Score>
-8.69

$$$$
