
 OpenBabel03222201593D

 49 52  0  0  1  0  0  0  0  0999 V2000
  -18.7870    4.2420  -20.2600 Cl  0  0  0  0  0  0  0  0  0  0  0  0
  -17.5590    3.6990  -21.3840 C   0  0  0  0  0  0  0  0  0  0  0  0
  -16.5160    4.5270  -21.7240 C   0  0  0  0  0  0  0  0  0  0  0  0
  -15.5970    4.0250  -22.6130 C   0  0  0  0  0  0  0  0  0  0  0  0
  -15.6830    2.7450  -23.1640 C   0  0  0  0  0  0  0  0  0  0  0  0
  -16.7200    1.9120  -22.8310 C   0  0  0  0  0  0  0  0  0  0  0  0
  -17.6540    2.4400  -21.9200 C   0  0  0  0  0  0  0  0  0  0  0  0
  -16.9070    0.5960  -23.3090 N   0  0  0  0  0  0  0  0  0  0  0  0
  -17.7110    0.2790  -24.4150 C   0  0  0  0  0  0  0  0  0  0  0  0
  -17.9290    1.0780  -25.3390 O   0  0  0  0  0  0  0  0  0  0  0  0
  -18.3620   -1.0700  -24.5420 C   0  0  0  0  0  0  0  0  0  0  0  0
  -18.7040   -1.3870  -25.8920 N   0  0  0  0  0  0  0  0  0  0  0  0
  -18.4200   -0.5940  -26.9490 C   0  0  0  0  0  0  0  0  0  0  0  0
  -18.7770   -0.9640  -28.1970 N   0  0  0  0  0  0  0  0  0  0  0  0
  -19.4170   -2.1090  -28.4600 C   0  0  0  0  0  0  0  0  0  0  0  0
  -19.7760   -2.4860  -29.6990 N   0  0  0  0  0  0  0  0  0  0  0  0
  -20.4190   -3.6290  -29.9900 C   0  0  0  0  0  0  0  0  0  0  0  0
  -20.7140   -4.4420  -28.9390 N   0  0  0  0  0  0  0  0  0  0  0  0
  -20.3740   -4.1040  -27.6860 C   0  0  0  0  0  0  0  0  0  0  0  0
  -19.7140   -2.9270  -27.3980 C   0  0  1  0  0  0  0  0  0  0  0  0
  -19.3560   -2.5620  -26.1160 C   0  0  0  0  0  0  0  0  0  0  0  0
  -19.6550   -3.3520  -25.1870 O   0  0  0  0  0  0  0  0  0  0  0  0
  -20.7790   -3.9910  -31.3100 N   0  0  0  0  0  0  0  0  0  0  0  0
  -21.0750   -5.3770  -31.5880 C   0  0  0  0  0  0  0  0  0  0  0  0
  -22.2620   -5.4430  -32.5480 C   0  0  0  0  0  0  0  0  0  0  0  0
  -22.0900   -4.5940  -33.6400 O   0  0  0  0  0  0  0  0  0  0  0  0
  -22.1700   -3.2910  -33.1480 C   0  0  0  0  0  0  0  0  0  0  0  0
  -20.8640   -3.0400  -32.3950 C   0  0  0  0  0  0  0  0  0  0  0  0
  -16.3970    5.8180  -21.1920 O   0  0  0  0  0  0  0  0  0  0  0  0
  -17.1380    6.8780  -21.7490 C   0  0  0  0  0  0  0  0  0  0  0  0
  -14.7560    4.6700  -22.8980 H   0  0  0  0  0  0  0  0  0  0  0  0
  -14.9310    2.4490  -23.8480 H   0  0  0  0  0  0  0  0  0  0  0  0
  -18.4780    1.7660  -21.6600 H   0  0  0  0  0  0  0  0  0  0  0  0
  -16.4090   -0.2070  -22.7970 H   0  0  0  0  0  0  0  0  0  0  0  0
  -17.7270   -1.8700  -24.1440 H   0  0  0  0  0  0  0  0  0  0  0  0
  -19.2940   -1.0480  -23.9440 H   0  0  0  0  0  0  0  0  0  0  0  0
  -17.9020    0.3300  -26.7340 H   0  0  0  0  0  0  0  0  0  0  0  0
  -20.6050   -4.7470  -26.8290 H   0  0  0  0  0  0  0  0  0  0  0  0
  -20.2170   -5.8990  -32.0640 H   0  0  0  0  0  0  0  0  0  0  0  0
  -21.4010   -5.8540  -30.6460 H   0  0  0  0  0  0  0  0  0  0  0  0
  -22.3230   -6.4740  -32.9470 H   0  0  0  0  0  0  0  0  0  0  0  0
  -23.1870   -5.1250  -32.0250 H   0  0  0  0  0  0  0  0  0  0  0  0
  -23.0090   -3.2360  -32.4400 H   0  0  0  0  0  0  0  0  0  0  0  0
  -22.3050   -2.5370  -33.9270 H   0  0  0  0  0  0  0  0  0  0  0  0
  -20.0070   -3.1160  -33.0950 H   0  0  0  0  0  0  0  0  0  0  0  0
  -20.9550   -2.0300  -31.9420 H   0  0  0  0  0  0  0  0  0  0  0  0
  -18.2000    6.5480  -21.8130 H   0  0  0  0  0  0  0  0  0  0  0  0
  -16.8160    7.1400  -22.7660 H   0  0  0  0  0  0  0  0  0  0  0  0
  -17.1360    7.7420  -21.0540 H   0  0  0  0  0  0  0  0  0  0  0  0
  2  1  1  0  0  0  0
  3  2  1  0  0  0  0
  3 29  1  0  0  0  0
  4  3  2  0  0  0  0
  5  6  2  0  0  0  0
  5  4  1  0  0  0  0
  6  7  1  0  0  0  0
  7 33  1  0  0  0  0
  7  2  2  0  0  0  0
  8  6  1  0  0  0  0
  8 34  1  0  0  0  0
  9  8  1  0  0  0  0
 10  9  2  0  0  0  0
 11  9  1  0  0  0  0
 11 35  1  0  0  0  0
 11 36  1  0  0  0  0
 12 11  1  0  0  0  0
 13 37  1  0  0  0  0
 13 12  1  0  0  0  0
 14 13  1  0  0  0  0
 15 14  2  0  0  0  0
 16 15  1  0  0  0  0
 17 16  2  0  0  0  0
 17 18  1  0  0  0  0
 18 19  2  0  0  0  0
 19 20  1  0  0  0  0
 19 38  1  0  0  0  0
 20 15  1  6  0  0  0
 20 21  1  0  0  0  0
 21 12  1  0  0  0  0
 21 22  2  0  0  0  0
 23 17  1  0  0  0  0
 24 23  1  0  0  0  0
 24 40  1  0  0  0  0
 25 42  1  0  0  0  0
 25 24  1  0  0  0  0
 26 27  1  0  0  0  0
 26 25  1  0  0  0  0
 27 43  1  0  0  0  0
 27 28  1  0  0  0  0
 28 46  1  0  0  0  0
 28 23  1  0  0  0  0
 30 29  1  0  0  0  0
 30 49  1  0  0  0  0
 31  4  1  0  0  0  0
 32  5  1  0  0  0  0
 39 24  1  0  0  0  0
 41 25  1  0  0  0  0
 44 27  1  0  0  0  0
 45 28  1  0  0  0  0
 47 30  1  0  0  0  0
 48 30  1  0  0  0  0
M  END
>  <Pose>
1

>  <Score>
-7.00

$$$$
