
 OpenBabel03222201593D

 38 41  0  0  0  0  0  0  0  0999 V2000
  -17.9160    0.6010  -26.3270 Cl  0  0  0  0  0  0  0  0  0  0  0  0
  -18.6400   -0.9540  -26.7100 C   0  0  0  0  0  0  0  0  0  0  0  0
  -19.2250   -1.1690  -27.9430 C   0  0  0  0  0  0  0  0  0  0  0  0
  -19.7880   -2.3780  -28.2420 C   0  0  0  0  0  0  0  0  0  0  0  0
  -19.7580   -3.3680  -27.2860 C   0  0  0  0  0  0  0  0  0  0  0  0
  -19.1810   -3.1740  -26.0500 C   0  0  0  0  0  0  0  0  0  0  0  0
  -18.6140   -1.9500  -25.7580 C   0  0  0  0  0  0  0  0  0  0  0  0
  -20.4330   -2.6860  -29.5410 C   0  0  0  0  0  0  0  0  0  0  0  0
  -20.1660   -1.5760  -30.4230 N   0  0  0  0  0  0  0  0  0  0  0  0
  -20.3610   -0.2520  -29.8790 C   0  0  0  0  0  0  0  0  0  0  0  0
  -19.2010   -0.0270  -28.9020 C   0  0  0  0  0  0  0  0  0  0  0  0
  -19.7330   -1.7460  -31.7580 C   0  0  0  0  0  0  0  0  0  0  0  0
  -18.5080   -1.6500  -32.0320 O   0  0  0  0  0  0  0  0  0  0  0  0
  -20.6540   -2.0350  -32.8820 C   0  0  0  0  0  0  0  0  0  0  0  0
  -21.6090   -1.0340  -33.0530 O   0  0  0  0  0  0  0  0  0  0  0  0
  -22.3840   -0.8830  -34.1950 C   0  0  0  0  0  0  0  0  0  0  0  0
  -22.2550   -1.7710  -35.2000 N   0  0  0  0  0  0  0  0  0  0  0  0
  -22.9680   -1.6810  -36.3190 N   0  0  0  0  0  0  0  0  0  0  0  0
  -23.8620   -0.7040  -36.5230 C   0  0  0  0  0  0  0  0  0  0  0  0
  -24.4270   -0.8680  -37.7350 N   0  0  0  0  0  0  0  0  0  0  0  0
  -23.8820   -1.9360  -38.2650 N   0  0  0  0  0  0  0  0  0  0  0  0
  -22.9810   -2.4590  -37.4170 C   0  0  0  0  0  0  0  0  0  0  0  0
  -24.0220    0.2310  -35.5070 C   0  0  0  0  0  0  0  0  0  0  0  0
  -23.2860    0.1400  -34.3500 C   0  0  0  0  0  0  0  0  0  0  0  0
  -20.1910   -4.3490  -27.4710 H   0  0  0  0  0  0  0  0  0  0  0  0
  -19.1680   -3.9800  -25.3040 H   0  0  0  0  0  0  0  0  0  0  0  0
  -18.1470   -1.7400  -24.8070 H   0  0  0  0  0  0  0  0  0  0  0  0
  -21.5350   -2.7810  -29.4640 H   0  0  0  0  0  0  0  0  0  0  0  0
  -20.0480   -3.6190  -29.9990 H   0  0  0  0  0  0  0  0  0  0  0  0
  -20.3780    0.5390  -30.6500 H   0  0  0  0  0  0  0  0  0  0  0  0
  -21.2960   -0.1830  -29.2870 H   0  0  0  0  0  0  0  0  0  0  0  0
  -19.2980    0.9090  -28.3510 H   0  0  0  0  0  0  0  0  0  0  0  0
  -18.2420   -0.0780  -29.4410 H   0  0  0  0  0  0  0  0  0  0  0  0
  -21.1850   -3.0010  -32.7710 H   0  0  0  0  0  0  0  0  0  0  0  0
  -20.0340   -2.1270  -33.8090 H   0  0  0  0  0  0  0  0  0  0  0  0
  -22.3530   -3.3480  -37.5550 H   0  0  0  0  0  0  0  0  0  0  0  0
  -24.7300    1.0090  -35.6640 H   0  0  0  0  0  0  0  0  0  0  0  0
  -23.3840    0.8480  -33.5390 H   0  0  0  0  0  0  0  0  0  0  0  0
  2  1  1  0  0  0  0
  2  7  1  0  0  0  0
  3  2  2  0  0  0  0
  4  3  1  0  0  0  0
  4  5  2  0  0  0  0
  5  6  1  0  0  0  0
  6  7  2  0  0  0  0
  6 26  1  0  0  0  0
  7 27  1  0  0  0  0
  8 28  1  0  0  0  0
  8  4  1  0  0  0  0
  9 10  1  0  0  0  0
  9  8  1  0  0  0  0
 10 31  1  0  0  0  0
 10 11  1  0  0  0  0
 11 32  1  0  0  0  0
 11  3  1  0  0  0  0
 12  9  1  0  0  0  0
 13 12  2  0  0  0  0
 14 34  1  0  0  0  0
 14 12  1  0  0  0  0
 15 14  1  0  0  0  0
 16 15  1  0  0  0  0
 17 16  2  0  0  0  0
 18 17  1  0  0  0  0
 19 18  1  0  0  0  0
 19 23  1  0  0  0  0
 20 19  2  0  0  0  0
 21 20  1  0  0  0  0
 21 22  2  0  0  0  0
 22 18  1  0  0  0  0
 23 24  2  0  0  0  0
 24 16  1  0  0  0  0
 24 38  1  0  0  0  0
 25  5  1  0  0  0  0
 29  8  1  0  0  0  0
 30 10  1  0  0  0  0
 33 11  1  0  0  0  0
 35 14  1  0  0  0  0
 36 22  1  0  0  0  0
 37 23  1  0  0  0  0
M  END
>  <Pose>
1

>  <Score>
-6.34

$$$$
