
 OpenBabel03222201593D

 42 45  0  0  1  0  0  0  0  0999 V2000
  -19.5770   -2.7230  -26.7360 S   0  0  0  0  0  0  0  0  0  0  0  0
  -19.0060   -3.5880  -25.6640 O   0  0  0  0  0  0  0  0  0  0  0  0
  -21.0630   -2.6030  -26.5210 O   0  0  0  0  0  0  0  0  0  0  0  0
  -19.3330   -3.4510  -28.2770 N   0  0  0  0  0  0  0  0  0  0  0  0
  -19.3370   -2.4980  -29.3420 C   0  0  0  0  0  0  0  0  0  0  0  0
  -20.2760   -3.0160  -30.4170 C   0  0  1  0  0  0  0  0  0  0  0  0
  -21.2420   -3.8550  -29.6060 C   0  0  0  0  0  0  0  0  0  0  0  0
  -20.2890   -4.4700  -28.5740 C   0  0  0  0  0  0  0  0  0  0  0  0
  -20.9850   -1.9050  -30.9400 O   0  0  0  0  0  0  0  0  0  0  0  0
  -20.6490   -1.3230  -32.1520 C   0  0  0  0  0  0  0  0  0  0  0  0
  -20.9160    0.0100  -32.2660 N   0  0  0  0  0  0  0  0  0  0  0  0
  -20.6000    0.6020  -33.4300 C   0  0  0  0  0  0  0  0  0  0  0  0
  -20.0300   -0.0850  -34.4820 C   0  0  0  0  0  0  0  0  0  0  0  0
  -19.7830   -1.4340  -34.3090 C   0  0  0  0  0  0  0  0  0  0  0  0
  -20.0990   -2.0280  -33.1390 N   0  0  0  0  0  0  0  0  0  0  0  0
  -19.6250    0.7000  -35.9950 Cl  0  0  0  0  0  0  0  0  0  0  0  0
  -18.8660   -1.1280  -26.6530 C   0  0  0  0  0  0  0  0  0  0  0  0
  -18.4580   -0.6070  -25.4410 C   0  0  0  0  0  0  0  0  0  0  0  0
  -17.8900    0.6500  -25.3210 C   0  0  0  0  0  0  0  0  0  0  0  0
  -17.7120    1.4340  -26.4460 C   0  0  0  0  0  0  0  0  0  0  0  0
  -18.1190    0.9090  -27.6460 C   0  0  0  0  0  0  0  0  0  0  0  0
  -18.6850   -0.3420  -27.7700 C   0  0  0  0  0  0  0  0  0  0  0  0
  -17.1380    2.6840  -26.2810 O   0  0  0  0  0  0  0  0  0  0  0  0
  -17.1900    3.4120  -25.0670 C   0  0  0  0  0  0  0  0  0  0  0  0
  -17.2430    2.5300  -23.8480 C   0  0  0  0  0  0  0  0  0  0  0  0
  -17.4800    1.1790  -24.1190 O   0  0  0  0  0  0  0  0  0  0  0  0
  -18.3200   -2.4880  -29.7980 H   0  0  0  0  0  0  0  0  0  0  0  0
  -19.5660   -1.4760  -29.0410 H   0  0  0  0  0  0  0  0  0  0  0  0
  -19.7410   -3.5900  -31.1820 H   0  0  0  0  0  0  0  0  0  0  0  0
  -22.0050   -3.2410  -29.1340 H   0  0  0  0  0  0  0  0  0  0  0  0
  -21.6250   -4.6880  -30.2260 H   0  0  0  0  0  0  0  0  0  0  0  0
  -20.8880   -4.7820  -27.6870 H   0  0  0  0  0  0  0  0  0  0  0  0
  -19.8100   -5.3370  -29.0360 H   0  0  0  0  0  0  0  0  0  0  0  0
  -20.7850    1.6540  -33.5880 H   0  0  0  0  0  0  0  0  0  0  0  0
  -19.3290   -2.0080  -35.1300 H   0  0  0  0  0  0  0  0  0  0  0  0
  -18.5950   -1.2180  -24.5500 H   0  0  0  0  0  0  0  0  0  0  0  0
  -17.9690    1.5450  -28.5260 H   0  0  0  0  0  0  0  0  0  0  0  0
  -18.9960   -0.7310  -28.7190 H   0  0  0  0  0  0  0  0  0  0  0  0
  -16.3200    4.0930  -25.0400 H   0  0  0  0  0  0  0  0  0  0  0  0
  -18.1100    4.0590  -25.1370 H   0  0  0  0  0  0  0  0  0  0  0  0
  -16.2870    2.6900  -23.2850 H   0  0  0  0  0  0  0  0  0  0  0  0
  -18.0660    2.9040  -23.2030 H   0  0  0  0  0  0  0  0  0  0  0  0
  1 17  1  0  0  0  0
  1  3  2  0  0  0  0
  1  2  2  0  0  0  0
  4  1  1  0  0  0  0
  5 28  1  0  0  0  0
  5  4  1  0  0  0  0
  6 29  1  6  0  0  0
  6  7  1  0  0  0  0
  6  5  1  0  0  0  0
  7 30  1  0  0  0  0
  7  8  1  0  0  0  0
  8  4  1  0  0  0  0
  8 32  1  0  0  0  0
  9  6  1  0  0  0  0
 10  9  1  0  0  0  0
 11 10  2  0  0  0  0
 12 11  1  0  0  0  0
 13 14  1  0  0  0  0
 13 12  2  0  0  0  0
 14 15  1  0  0  0  0
 15 10  2  0  0  0  0
 16 13  1  0  0  0  0
 17 18  1  0  0  0  0
 18 19  2  0  0  0  0
 18 36  1  0  0  0  0
 19 26  1  0  0  0  0
 20 23  1  0  0  0  0
 20 19  1  0  0  0  0
 21 20  2  0  0  0  0
 22 21  1  0  0  0  0
 22 17  2  0  0  0  0
 23 24  1  0  0  0  0
 24 39  1  0  0  0  0
 24 25  1  0  0  0  0
 25 41  1  0  0  0  0
 25 42  1  0  0  0  0
 26 25  1  0  0  0  0
 27  5  1  0  0  0  0
 31  7  1  0  0  0  0
 33  8  1  0  0  0  0
 34 12  1  0  0  0  0
 35 14  1  0  0  0  0
 37 21  1  0  0  0  0
 38 22  1  0  0  0  0
 40 24  1  0  0  0  0
M  END
>  <Pose>
1

>  <Score>
-6.32

$$$$
