
 OpenBabel03222201593D

 51 54  0  0  0  0  0  0  0  0999 V2000
  -20.0870    4.9980  -36.0430 B   0  0  0  0  0  0  0  0  0  0  0  0
  -19.6330    3.1640  -36.3000 C   0  0  0  0  0  0  0  0  0  0  0  0
  -18.9910    2.4680  -35.3180 C   0  0  0  0  0  0  0  0  0  0  0  0
  -18.6590    1.1180  -35.5110 C   0  0  0  0  0  0  0  0  0  0  0  0
  -18.9910    0.5230  -36.6980 C   0  0  0  0  0  0  0  0  0  0  0  0
  -19.6520    1.2460  -37.7050 C   0  0  0  0  0  0  0  0  0  0  0  0
  -19.9660    2.5640  -37.4940 C   0  0  0  0  0  0  0  0  0  0  0  0
  -18.6890   -0.8020  -36.9420 O   0  0  0  0  0  0  0  0  0  0  0  0
  -17.9750    0.3930  -34.4520 C   0  0  0  0  0  0  0  0  0  0  0  0
  -18.3670    0.5460  -33.2050 N   0  0  0  0  0  0  0  0  0  0  0  0
  -17.6840   -0.1670  -32.2200 N   0  0  0  0  0  0  0  0  0  0  0  0
  -18.3810   -0.8530  -31.1900 C   0  0  0  0  0  0  0  0  0  0  0  0
  -19.3500   -1.7400  -31.4630 N   0  0  0  0  0  4  0  0  0  0  0  0
  -20.0450   -2.4200  -30.5120 C   0  0  0  0  0  0  0  0  0  0  0  0
  -19.6890   -2.1400  -29.2310 N   0  0  0  0  0  0  0  0  0  0  0  0
  -18.7290   -1.2630  -28.8970 C   0  0  0  0  0  0  0  0  0  0  0  0
  -18.0970   -0.6390  -29.8830 N   0  0  0  0  0  0  0  0  0  0  0  0
  -18.4110   -1.0200  -27.5410 N   0  0  0  0  0  0  0  0  0  0  0  0
  -17.5730    0.0800  -27.1080 C   0  0  0  0  0  0  0  0  0  0  0  0
  -17.9880    0.5240  -25.7220 C   0  0  0  0  0  0  0  0  0  0  0  0
  -17.9590   -0.4790  -24.7900 O   0  0  0  0  0  0  0  0  0  0  0  0
  -17.8920   -1.7530  -25.3400 C   0  0  0  0  0  0  0  0  0  0  0  0
  -18.9160   -1.8790  -26.4650 C   0  0  0  0  0  0  0  0  0  0  0  0
  -21.0570   -3.3450  -30.8330 N   0  0  0  0  0  0  0  0  0  0  0  0
  -22.1030   -2.9930  -31.7450 C   0  0  0  0  0  0  0  0  0  0  0  0
  -22.1370   -4.0650  -32.8220 C   0  0  0  0  0  0  0  0  0  0  0  0
  -22.3640   -5.2870  -32.1710 O   0  0  0  0  0  0  0  0  0  0  0  0
  -21.2480   -5.6440  -31.4150 C   0  0  0  0  0  0  0  0  0  0  0  0
  -21.0660   -4.6550  -30.2560 C   0  0  0  0  0  0  0  0  0  0  0  0
  -18.7170    2.9160  -34.3680 H   0  0  0  0  0  0  0  0  0  0  0  0
  -19.9000    0.7460  -38.6310 H   0  0  0  0  0  0  0  0  0  0  0  0
  -20.4810    3.1530  -38.2590 H   0  0  0  0  0  0  0  0  0  0  0  0
  -18.8560   -1.5510  -36.3020 H   0  0  0  0  0  0  0  0  0  0  0  0
  -17.1540   -0.2690  -34.6550 H   0  0  0  0  0  0  0  0  0  0  0  0
  -16.6460   -0.1800  -32.2680 H   0  0  0  0  0  0  0  0  0  0  0  0
  -17.7010    0.9390  -27.7920 H   0  0  0  0  0  0  0  0  0  0  0  0
  -16.5340   -0.2820  -27.0490 H   0  0  0  0  0  0  0  0  0  0  0  0
  -18.9530    1.0720  -25.7600 H   0  0  0  0  0  0  0  0  0  0  0  0
  -17.2200    1.2910  -25.4100 H   0  0  0  0  0  0  0  0  0  0  0  0
  -18.0400   -2.5090  -24.5640 H   0  0  0  0  0  0  0  0  0  0  0  0
  -16.8880   -1.8570  -25.8030 H   0  0  0  0  0  0  0  0  0  0  0  0
  -19.0590   -2.9070  -26.7870 H   0  0  0  0  0  0  0  0  0  0  0  0
  -19.8410   -1.3840  -26.0960 H   0  0  0  0  0  0  0  0  0  0  0  0
  -23.0800   -3.0400  -31.2210 H   0  0  0  0  0  0  0  0  0  0  0  0
  -21.9100   -1.9920  -32.1840 H   0  0  0  0  0  0  0  0  0  0  0  0
  -21.1770   -4.1350  -33.3690 H   0  0  0  0  0  0  0  0  0  0  0  0
  -22.9630   -3.8910  -33.5390 H   0  0  0  0  0  0  0  0  0  0  0  0
  -20.3670   -5.5190  -32.0770 H   0  0  0  0  0  0  0  0  0  0  0  0
  -21.3700   -6.6690  -31.0450 H   0  0  0  0  0  0  0  0  0  0  0  0
  -21.8550   -4.7980  -29.4940 H   0  0  0  0  0  0  0  0  0  0  0  0
  -20.0730   -4.8680  -29.8000 H   0  0  0  0  0  0  0  0  0  0  0  0
  2  1  1  0  0  0  0
  2  3  1  0  0  0  0
  3 30  1  0  0  0  0
  4  3  2  0  0  0  0
  4  9  1  0  0  0  0
  5  4  1  0  0  0  0
  6  7  1  0  0  0  0
  6  5  2  0  0  0  0
  7  2  2  0  0  0  0
  8  5  1  0  0  0  0
  8 33  1  0  0  0  0
  9 10  2  0  0  0  0
 10 11  1  0  0  0  0
 11 12  1  0  0  0  0
 12 17  1  0  0  0  0
 13 12  2  0  0  0  0
 13 14  2  0  0  0  0
 14 15  1  0  0  0  0
 15 16  2  0  0  0  0
 16 18  1  0  0  0  0
 17 16  1  0  0  0  0
 18 19  1  0  0  0  0
 18 23  1  0  0  0  0
 19 37  1  0  0  0  0
 19 20  1  0  0  0  0
 20 39  1  0  0  0  0
 20 21  1  0  0  0  0
 22 21  1  0  0  0  0
 22 40  1  0  0  0  0
 23 43  1  0  0  0  0
 23 22  1  0  0  0  0
 24 14  1  0  0  0  0
 24 29  1  0  0  0  0
 25 44  1  0  0  0  0
 25 24  1  0  0  0  0
 26 27  1  0  0  0  0
 26 25  1  0  0  0  0
 27 28  1  0  0  0  0
 28 49  1  0  0  0  0
 28 29  1  0  0  0  0
 29 51  1  0  0  0  0
 29 50  1  0  0  0  0
 31  6  1  0  0  0  0
 32  7  1  0  0  0  0
 34  9  1  0  0  0  0
 35 11  1  0  0  0  0
 36 19  1  0  0  0  0
 38 20  1  0  0  0  0
 41 22  1  0  0  0  0
 42 23  1  0  0  0  0
 45 25  1  0  0  0  0
 46 26  1  0  0  0  0
 47 26  1  0  0  0  0
 48 28  1  0  0  0  0
M  END
>  <Pose>
1

>  <Score>
-7.71

$$$$
