
 OpenBabel03222201593D

 52 55  0  0  0  0  0  0  0  0999 V2000
  -20.0920    3.2470  -35.0380 Cl  0  0  0  0  0  0  0  0  0  0  0  0
  -19.6380    1.8160  -34.1160 C   0  0  0  0  0  0  0  0  0  0  0  0
  -20.5210    1.0950  -33.3630 C   0  0  0  0  0  0  0  0  0  0  0  0
  -20.1500   -0.0400  -32.6260 C   0  0  0  0  0  0  0  0  0  0  0  0
  -18.8440   -0.4220  -32.6810 C   0  0  0  0  0  0  0  0  0  0  0  0
  -17.9440    0.3070  -33.4450 C   0  0  0  0  0  0  0  0  0  0  0  0
  -18.3190    1.4220  -34.1670 C   0  0  0  0  0  0  0  0  0  0  0  0
  -21.2050   -0.7450  -31.8510 C   0  0  0  0  0  0  0  0  0  0  0  0
  -20.8160   -1.9830  -31.2640 N   0  0  0  0  0  0  0  0  0  0  0  0
  -21.2240   -3.1940  -31.7350 C   0  0  0  0  0  0  0  0  0  0  0  0
  -20.6900   -4.1570  -30.9200 C   0  0  0  0  0  0  0  0  0  0  0  0
  -19.9860   -3.5080  -29.9930 N   0  0  0  0  0  0  0  0  0  0  0  0
  -20.0480   -2.1630  -30.1870 C   0  0  0  0  0  0  0  0  0  0  0  0
  -19.3550   -1.1910  -29.3760 N   0  0  0  0  0  0  0  0  0  0  0  0
  -19.9750   -0.8940  -28.1050 C   0  0  0  0  0  0  0  0  0  0  0  0
  -19.1800    0.0590  -27.2500 C   0  0  0  0  0  0  0  0  0  0  0  0
  -17.8300   -0.3720  -27.2570 N   0  0  0  0  0  0  0  0  0  0  0  0
  -17.2400   -0.2790  -28.5510 C   0  0  0  0  0  0  0  0  0  0  0  0
  -18.1490   -0.5190  -29.7200 C   0  0  0  0  0  0  0  0  0  0  0  0
  -17.6990   -1.6530  -26.6380 C   0  0  0  0  0  0  0  0  0  0  0  0
  -18.3910   -1.7660  -25.3210 C   0  0  0  0  0  0  0  0  0  0  0  0
  -19.1740   -2.6800  -25.0190 O   0  0  0  0  0  0  0  0  0  0  0  0
  -18.0920   -0.7180  -24.3870 N   0  0  0  0  0  0  0  0  0  0  0  0
  -20.9450   -5.4460  -31.2000 N   0  0  0  0  0  0  0  0  0  0  0  0
  -21.7100   -5.8070  -32.2660 C   0  0  0  0  0  0  0  0  0  0  0  0
  -21.9560   -7.0240  -32.5390 O   0  0  0  0  0  0  0  0  0  0  0  0
  -22.2460   -4.8850  -33.0830 N   0  0  0  0  0  0  0  0  0  0  0  0
  -22.0030   -3.5950  -32.8180 C   0  0  0  0  0  0  0  0  0  0  0  0
  -22.5140   -2.7610  -33.5990 O   0  0  0  0  0  0  0  0  0  0  0  0
  -20.4040   -6.4950  -30.3760 C   0  0  0  0  0  0  0  0  0  0  0  0
  -21.5490    1.4340  -33.3420 H   0  0  0  0  0  0  0  0  0  0  0  0
  -18.5040   -1.2930  -32.1410 H   0  0  0  0  0  0  0  0  0  0  0  0
  -16.8990   -0.0070  -33.4840 H   0  0  0  0  0  0  0  0  0  0  0  0
  -17.5710    1.9670  -34.7590 H   0  0  0  0  0  0  0  0  0  0  0  0
  -21.5530   -0.0200  -31.0880 H   0  0  0  0  0  0  0  0  0  0  0  0
  -22.0910   -0.8850  -32.5200 H   0  0  0  0  0  0  0  0  0  0  0  0
  -20.9520   -0.3520  -28.3270 H   0  0  0  0  0  0  0  0  0  0  0  0
  -20.2870   -1.8190  -27.5960 H   0  0  0  0  0  0  0  0  0  0  0  0
  -19.6050    0.0370  -26.2370 H   0  0  0  0  0  0  0  0  0  0  0  0
  -19.2960    1.1120  -27.6040 H   0  0  0  0  0  0  0  0  0  0  0  0
  -16.3770   -1.0100  -28.5520 H   0  0  0  0  0  0  0  0  0  0  0  0
  -16.7780    0.7430  -28.6210 H   0  0  0  0  0  0  0  0  0  0  0  0
  -17.5480   -1.0540  -30.4900 H   0  0  0  0  0  0  0  0  0  0  0  0
  -18.3540    0.4850  -30.2130 H   0  0  0  0  0  0  0  0  0  0  0  0
  -18.1320   -2.4850  -27.2590 H   0  0  0  0  0  0  0  0  0  0  0  0
  -16.6080   -1.8240  -26.4340 H   0  0  0  0  0  0  0  0  0  0  0  0
  -18.7460    0.0820  -24.2310 H   0  0  0  0  0  0  0  0  0  0  0  0
  -17.2180   -0.7630  -23.8680 H   0  0  0  0  0  0  0  0  0  0  0  0
  -22.8450   -5.1720  -33.9160 H   0  0  0  0  0  0  0  0  0  0  0  0
  -19.4570   -6.1190  -29.9250 H   0  0  0  0  0  0  0  0  0  0  0  0
  -20.1800   -7.3970  -30.9660 H   0  0  0  0  0  0  0  0  0  0  0  0
  -21.1480   -6.7810  -29.6000 H   0  0  0  0  0  0  0  0  0  0  0  0
  1  2  1  0  0  0  0
  2  3  1  0  0  0  0
  3 31  1  0  0  0  0
  3  4  2  0  0  0  0
  4  8  1  0  0  0  0
  5  4  1  0  0  0  0
  5 32  1  0  0  0  0
  6  5  2  0  0  0  0
  7  2  2  0  0  0  0
  7  6  1  0  0  0  0
  8  9  1  0  0  0  0
  8 35  1  0  0  0  0
  9 13  1  0  0  0  0
 10  9  1  0  0  0  0
 10 11  2  0  0  0  0
 11 12  1  0  0  0  0
 13 12  2  0  0  0  0
 13 14  1  0  0  0  0
 14 15  1  0  0  0  0
 15 38  1  0  0  0  0
 15 16  1  0  0  0  0
 16 39  1  0  0  0  0
 17 16  1  0  0  0  0
 17 20  1  0  0  0  0
 18 17  1  0  0  0  0
 19 14  1  0  0  0  0
 19 18  1  0  0  0  0
 20 46  1  0  0  0  0
 20 21  1  0  0  0  0
 21 22  2  0  0  0  0
 21 23  1  0  0  0  0
 23 47  1  0  0  0  0
 23 48  1  0  0  0  0
 24 11  1  0  0  0  0
 24 30  1  0  0  0  0
 25 24  1  0  0  0  0
 26 25  2  0  0  0  0
 27 28  1  0  0  0  0
 27 25  1  0  0  0  0
 28 10  1  0  0  0  0
 29 28  2  0  0  0  0
 30 50  1  0  0  0  0
 30 52  1  0  0  0  0
 33  6  1  0  0  0  0
 34  7  1  0  0  0  0
 36  8  1  0  0  0  0
 37 15  1  0  0  0  0
 40 16  1  0  0  0  0
 41 18  1  0  0  0  0
 42 18  1  0  0  0  0
 43 19  1  0  0  0  0
 44 19  1  0  0  0  0
 45 20  1  0  0  0  0
 49 27  1  0  0  0  0
 51 30  1  0  0  0  0
M  END
>  <Pose>
1

>  <Score>
-5.92

$$$$
