
 OpenBabel03222201593D

 50 53  0  0  1  0  0  0  0  0999 V2000
  -19.3550    5.5330  -33.8920 Cl  0  0  0  0  0  0  0  0  0  0  0  0
  -19.2580    3.8580  -34.4040 C   0  0  0  0  0  0  0  0  0  0  0  0
  -18.2590    3.4100  -35.2560 C   0  0  0  0  0  0  0  0  0  0  0  0
  -18.2500    2.0640  -35.6140 C   0  0  0  0  0  0  0  0  0  0  0  0
  -19.1920    1.1820  -35.1530 C   0  0  0  0  0  0  0  0  0  0  0  0
  -20.1910    1.6240  -34.3030 C   0  0  0  0  0  0  0  0  0  0  0  0
  -20.2010    2.9580  -33.9470 C   0  0  0  0  0  0  0  0  0  0  0  0
  -19.1240   -0.2240  -35.5430 C   0  0  2  0  0  0  0  0  0  0  0  0
  -20.2890   -1.0130  -35.4480 N   0  0  0  0  0  4  0  0  0  0  0  0
  -20.3730   -1.6210  -34.1880 C   0  0  0  0  0  0  0  0  0  0  0  0
  -21.0860   -2.4890  -33.5140 C   0  0  0  0  0  0  0  0  0  0  0  0
  -20.7730   -2.8280  -32.1210 C   0  0  0  0  0  0  0  0  0  0  0  0
  -19.8940   -1.9720  -31.3340 C   0  0  0  0  0  0  0  0  0  0  0  0
  -19.2530   -0.8340  -32.0900 C   0  0  0  0  0  0  0  0  0  0  0  0
  -19.2100   -1.0990  -33.4840 N   0  0  0  0  0  0  0  0  0  0  0  0
  -18.2270   -0.9870  -34.5540 C   0  0  2  0  0  0  0  0  0  0  0  0
  -17.0260   -0.2720  -34.0950 C   0  0  0  0  0  0  0  0  0  0  0  0
  -21.4180   -0.5990  -36.1490 C   0  0  0  0  0  0  0  0  0  0  0  0
  -22.5810   -0.4130  -35.4200 C   0  0  0  0  0  0  0  0  0  0  0  0
  -23.7650   -0.0170  -35.9930 C   0  0  0  0  0  0  0  0  0  0  0  0
  -23.8760    0.2270  -37.3650 C   0  0  0  0  0  0  0  0  0  0  0  0
  -22.7090    0.0330  -38.0630 C   0  0  0  0  0  0  0  0  0  0  0  0
  -21.5290   -0.3620  -37.4830 C   0  0  0  0  0  0  0  0  0  0  0  0
  -25.0710    0.6280  -37.9300 O   0  0  0  0  0  0  0  0  0  0  0  0
  -25.0590    1.3920  -39.1100 C   0  0  0  0  0  0  0  0  0  0  0  0
  -18.5380   -0.3980  -36.7760 O   0  0  0  0  0  0  0  0  0  0  0  0
  -17.5160    4.0970  -35.6200 H   0  0  0  0  0  0  0  0  0  0  0  0
  -17.4260    1.8130  -36.2790 H   0  0  0  0  0  0  0  0  0  0  0  0
  -20.9100    0.9060  -33.9490 H   0  0  0  0  0  0  0  0  0  0  0  0
  -21.0040    3.2500  -33.2840 H   0  0  0  0  0  0  0  0  0  0  0  0
  -20.0010   -1.9020  -36.0630 H   0  0  0  0  0  0  0  0  0  0  0  0
  -21.9370   -3.0140  -33.9980 H   0  0  0  0  0  0  0  0  0  0  0  0
  -20.4040   -3.8920  -32.1150 H   0  0  0  0  0  0  0  0  0  0  0  0
  -21.7850   -2.9000  -31.6050 H   0  0  0  0  0  0  0  0  0  0  0  0
  -19.0960   -2.6090  -30.8290 H   0  0  0  0  0  0  0  0  0  0  0  0
  -20.4530   -1.5180  -30.4790 H   0  0  0  0  0  0  0  0  0  0  0  0
  -18.2200   -0.7280  -31.7100 H   0  0  0  0  0  0  0  0  0  0  0  0
  -19.7440    0.1310  -31.8520 H   0  0  0  0  0  0  0  0  0  0  0  0
  -17.9790   -1.9700  -34.9320 H   0  0  0  0  0  0  0  0  0  0  0  0
  -16.3240   -0.1030  -34.9300 H   0  0  0  0  0  0  0  0  0  0  0  0
  -17.1670    0.5670  -33.4080 H   0  0  0  0  0  0  0  0  0  0  0  0
  -16.4690   -1.0430  -33.4740 H   0  0  0  0  0  0  0  0  0  0  0  0
  -22.6250   -0.5540  -34.3240 H   0  0  0  0  0  0  0  0  0  0  0  0
  -24.6830    0.1270  -35.4180 H   0  0  0  0  0  0  0  0  0  0  0  0
  -22.7570    0.2140  -39.1490 H   0  0  0  0  0  0  0  0  0  0  0  0
  -20.7100   -0.4750  -38.1440 H   0  0  0  0  0  0  0  0  0  0  0  0
  -24.9470    0.7480  -40.0250 H   0  0  0  0  0  0  0  0  0  0  0  0
  -24.2710    2.1510  -39.1660 H   0  0  0  0  0  0  0  0  0  0  0  0
  -26.0410    1.9220  -39.2660 H   0  0  0  0  0  0  0  0  0  0  0  0
  -17.8200   -1.0540  -36.8360 H   0  0  0  0  0  0  0  0  0  0  0  0
  2  7  1  0  0  0  0
  2  1  1  0  0  0  0
  3  2  2  0  0  0  0
  4  3  1  0  0  0  0
  4  5  2  0  0  0  0
  5  6  1  0  0  0  0
  6 29  1  0  0  0  0
  6  7  2  0  0  0  0
  7 30  1  0  0  0  0
  8 26  1  6  0  0  0
  8  9  1  0  0  0  0
  8  5  1  0  0  0  0
  8 16  1  0  0  0  0
  9 10  1  0  0  0  0
 10 11  2  0  0  0  0
 10 15  1  0  0  0  0
 11 12  1  0  0  0  0
 12 33  1  0  0  0  0
 12 34  1  0  0  0  0
 12 13  1  0  0  0  0
 13 35  1  0  0  0  0
 13 36  1  0  0  0  0
 14 38  1  0  0  0  0
 14 37  1  0  0  0  0
 14 13  1  0  0  0  0
 15 14  1  0  0  0  0
 16 39  1  6  0  0  0
 16 17  1  0  0  0  0
 16 15  1  0  0  0  0
 17 42  1  0  0  0  0
 17 41  1  0  0  0  0
 18  9  1  0  0  0  0
 18 19  1  0  0  0  0
 19 43  1  0  0  0  0
 20 19  2  0  0  0  0
 20 44  1  0  0  0  0
 21 20  1  0  0  0  0
 22 23  1  0  0  0  0
 22 21  2  0  0  0  0
 23 18  2  0  0  0  0
 24 21  1  0  0  0  0
 25 24  1  0  0  0  0
 27  3  1  0  0  0  0
 28  4  1  0  0  0  0
 31  9  1  0  0  0  0
 32 11  1  0  0  0  0
 40 17  1  0  0  0  0
 45 22  1  0  0  0  0
 46 23  1  0  0  0  0
 47 25  1  0  0  0  0
 48 25  1  0  0  0  0
 49 25  1  0  0  0  0
 50 26  1  0  0  0  0
M  END
>  <Pose>
1

>  <Score>
-4.30

$$$$
