
 OpenBabel03222201593D

 37 40  0  0  0  0  0  0  0  0999 V2000
  -21.1630   -4.5710  -31.6770 Cl  0  0  0  0  0  0  0  0  0  0  0  0
  -20.5140   -3.5730  -30.3790 C   0  0  0  0  0  0  0  0  0  0  0  0
  -19.8760   -2.3800  -30.6480 C   0  0  0  0  0  0  0  0  0  0  0  0
  -19.3660   -1.5950  -29.6310 C   0  0  0  0  0  0  0  0  0  0  0  0
  -19.4700   -1.9650  -28.3070 C   0  0  0  0  0  0  0  0  0  0  0  0
  -20.1110   -3.1630  -28.0470 C   0  0  0  0  0  0  0  0  0  0  0  0
  -20.6240   -3.9540  -29.0570 C   0  0  0  0  0  0  0  0  0  0  0  0
  -18.9400   -1.1490  -27.2640 N   0  0  0  0  0  0  0  0  0  0  0  0
  -18.8100    0.1970  -27.2570 C   0  0  0  0  0  0  0  0  0  0  0  0
  -19.1500    0.9380  -28.2030 O   0  0  0  0  0  0  0  0  0  0  0  0
  -18.2520    0.6350  -26.0680 C   0  0  0  0  0  0  0  0  0  0  0  0
  -18.0390   -0.4680  -25.3360 C   0  0  0  0  0  0  0  0  0  0  0  0
  -17.5000   -0.0320  -24.1840 N   0  0  0  0  0  0  0  0  0  0  0  0
  -17.3900    1.2840  -24.2160 N   0  0  0  0  0  0  0  0  0  0  0  0
  -17.8500    1.7110  -25.3730 N   0  0  0  0  0  0  0  0  0  0  0  0
  -17.9140    3.0790  -25.8330 C   0  0  0  0  0  0  0  0  0  0  0  0
  -18.1940    4.0560  -24.7590 C   0  0  0  0  0  0  0  0  0  0  0  0
  -19.3770    4.7550  -24.7660 C   0  0  0  0  0  0  0  0  0  0  0  0
  -19.6150    5.6610  -23.7600 C   0  0  0  0  0  0  0  0  0  0  0  0
  -18.6950    5.8790  -22.7500 C   0  0  0  0  0  0  0  0  0  0  0  0
  -17.5090    5.1800  -22.7420 C   0  0  0  0  0  0  0  0  0  0  0  0
  -17.2880    4.2820  -23.7490 C   0  0  0  0  0  0  0  0  0  0  0  0
  -18.4640   -1.5500  -26.0790 C   0  0  0  0  0  0  0  0  0  0  0  0
  -18.4100   -2.7500  -25.6930 O   0  0  0  0  0  0  0  0  0  0  0  0
  -19.8000   -2.0990  -31.6910 H   0  0  0  0  0  0  0  0  0  0  0  0
  -18.8660   -0.6570  -29.8490 H   0  0  0  0  0  0  0  0  0  0  0  0
  -20.2030   -3.4700  -27.0230 H   0  0  0  0  0  0  0  0  0  0  0  0
  -21.1320   -4.9030  -28.8460 H   0  0  0  0  0  0  0  0  0  0  0  0
  -17.2040   -0.6120  -23.3720 H   0  0  0  0  0  0  0  0  0  0  0  0
  -16.9980    1.9010  -23.4450 H   0  0  0  0  0  0  0  0  0  0  0  0
  -16.9280    3.3500  -26.3030 H   0  0  0  0  0  0  0  0  0  0  0  0
  -18.6600    3.1910  -26.6660 H   0  0  0  0  0  0  0  0  0  0  0  0
  -20.1310    4.6060  -25.5540 H   0  0  0  0  0  0  0  0  0  0  0  0
  -20.5630    6.2150  -23.7730 H   0  0  0  0  0  0  0  0  0  0  0  0
  -18.8750    6.5990  -21.9440 H   0  0  0  0  0  0  0  0  0  0  0  0
  -16.7740    5.3290  -21.9700 H   0  0  0  0  0  0  0  0  0  0  0  0
  -16.3320    3.7420  -23.7140 H   0  0  0  0  0  0  0  0  0  0  0  0
  1  2  1  0  0  0  0
  2  7  1  0  0  0  0
  3  2  2  0  0  0  0
  3  4  1  0  0  0  0
  4  5  2  0  0  0  0
  5  6  1  0  0  0  0
  5  8  1  0  0  0  0
  6 27  1  0  0  0  0
  7 28  1  0  0  0  0
  7  6  2  0  0  0  0
  8  9  1  0  0  0  0
  8 23  1  0  0  0  0
  9 11  1  0  0  0  0
 10  9  2  0  0  0  0
 11 15  1  0  0  0  0
 11 12  2  0  0  0  0
 12 13  1  0  0  0  0
 13 29  1  0  0  0  0
 14 13  1  0  0  0  0
 14 30  1  0  0  0  0
 15 14  1  0  0  0  0
 16 15  1  0  0  0  0
 16 17  1  0  0  0  0
 17 22  1  0  0  0  0
 18 17  2  0  0  0  0
 18 19  1  0  0  0  0
 19 20  2  0  0  0  0
 20 21  1  0  0  0  0
 20 35  1  0  0  0  0
 21 36  1  0  0  0  0
 22 37  1  0  0  0  0
 22 21  2  0  0  0  0
 23 24  2  0  0  0  0
 23 12  1  0  0  0  0
 25  3  1  0  0  0  0
 26  4  1  0  0  0  0
 31 16  1  0  0  0  0
 32 16  1  0  0  0  0
 33 18  1  0  0  0  0
 34 19  1  0  0  0  0
M  END
>  <Pose>
1

>  <Score>
-6.86

$$$$
