
 OpenBabel03222201593D

 60 63  0  0  1  0  0  0  0  0999 V2000
  -21.2750   -1.1090  -39.8300 Cl  0  0  0  0  0  0  0  0  0  0  0  0
  -20.8250    0.3510  -38.9490 C   0  0  0  0  0  0  0  0  0  0  0  0
  -20.4620    0.2580  -37.6330 C   0  0  0  0  0  0  0  0  0  0  0  0
  -20.1080    1.3780  -36.9240 C   0  0  0  0  0  0  0  0  0  0  0  0
  -20.1360    2.6120  -37.6030 C   0  0  0  0  0  0  0  0  0  0  0  0
  -20.4990    2.6850  -38.9070 C   0  0  0  0  0  0  0  0  0  0  0  0
  -20.8510    1.5640  -39.6130 C   0  0  0  0  0  0  0  0  0  0  0  0
  -19.7470    1.3940  -35.6750 O   0  0  0  0  0  0  0  0  0  0  0  0
  -20.0080    1.2860  -34.3920 C   0  0  0  0  0  0  0  0  0  0  0  0
  -19.9880   -0.0480  -33.7020 C   0  0  1  0  0  0  0  0  0  0  0  0
  -18.7550   -0.6300  -34.0310 O   0  0  0  0  0  0  0  0  0  0  0  0
  -17.7120   -0.2420  -33.2370 C   0  0  0  0  0  0  0  0  0  0  0  0
  -17.7750   -0.7840  -31.8230 C   0  0  0  0  0  0  0  0  0  0  0  0
  -19.2190   -0.7150  -31.4800 N   0  0  0  0  0  0  0  0  0  0  0  0
  -19.9470    0.2620  -32.1950 C   0  0  0  0  0  0  0  0  0  0  0  0
  -19.7030   -1.5830  -30.5240 C   0  0  0  0  0  0  0  0  0  0  0  0
  -20.5170   -2.5390  -30.8590 O   0  0  0  0  0  0  0  0  0  0  0  0
  -19.3820   -1.5340  -29.1300 C   0  0  0  0  0  0  0  0  0  0  0  0
  -18.5530   -0.6390  -28.5910 N   0  0  0  0  0  0  0  0  0  0  0  0
  -18.2460   -0.5860  -27.2800 C   0  0  0  0  0  0  0  0  0  0  0  0
  -18.8120   -1.5060  -26.4120 C   0  0  0  0  0  0  0  0  0  0  0  0
  -19.6400   -2.4090  -26.9110 N   0  0  0  0  0  0  0  0  0  0  0  0
  -19.9320   -2.4440  -28.2220 C   0  0  0  0  0  0  0  0  0  0  0  0
  -18.4390   -1.4010  -24.9800 C   0  0  0  0  0  0  0  0  0  0  0  0
  -21.0490   -0.9880  -34.0500 C   0  0  0  0  0  0  0  0  0  0  0  0
  -22.4210   -0.4890  -34.1590 C   0  0  0  0  0  0  0  0  0  0  0  0
  -22.9390    0.1710  -33.2380 O   0  0  0  0  0  0  0  0  0  0  0  0
  -23.2120   -0.7370  -35.3180 N   0  0  0  0  0  0  0  0  0  0  0  0
  -23.2680   -2.0590  -35.9330 C   0  0  0  0  0  0  0  0  0  0  0  0
  -23.0690   -1.8650  -37.4210 C   0  0  0  0  0  0  0  0  0  0  0  0
  -24.0600   -1.0030  -37.9000 O   0  0  0  0  0  0  0  0  0  0  0  0
  -23.8020    0.2810  -37.4200 C   0  0  0  0  0  0  0  0  0  0  0  0
  -23.9990    0.3070  -35.9390 C   0  0  0  0  0  0  0  0  0  0  0  0
  -20.4650   -0.6970  -37.1310 H   0  0  0  0  0  0  0  0  0  0  0  0
  -19.8640    3.5350  -37.0860 H   0  0  0  0  0  0  0  0  0  0  0  0
  -20.5260    3.6280  -39.4500 H   0  0  0  0  0  0  0  0  0  0  0  0
  -21.1440    1.5670  -40.6400 H   0  0  0  0  0  0  0  0  0  0  0  0
  -19.3640    2.0170  -33.7590 H   0  0  0  0  0  0  0  0  0  0  0  0
  -21.0570    1.7290  -34.1750 H   0  0  0  0  0  0  0  0  0  0  0  0
  -16.7820   -0.6290  -33.6830 H   0  0  0  0  0  0  0  0  0  0  0  0
  -17.6320    0.8600  -33.2420 H   0  0  0  0  0  0  0  0  0  0  0  0
  -17.1830   -0.1270  -31.1840 H   0  0  0  0  0  0  0  0  0  0  0  0
  -17.5160   -1.8430  -31.8010 H   0  0  0  0  0  0  0  0  0  0  0  0
  -19.3090    1.2130  -32.1410 H   0  0  0  0  0  0  0  0  0  0  0  0
  -20.9140    0.5700  -31.8440 H   0  0  0  0  0  0  0  0  0  0  0  0
  -17.5620    0.1800  -26.9380 H   0  0  0  0  0  0  0  0  0  0  0  0
  -20.6100   -3.1930  -28.6000 H   0  0  0  0  0  0  0  0  0  0  0  0
  -19.1610   -1.9470  -24.3290 H   0  0  0  0  0  0  0  0  0  0  0  0
  -17.4170   -1.8190  -24.8870 H   0  0  0  0  0  0  0  0  0  0  0  0
  -18.3970   -0.3540  -24.6220 H   0  0  0  0  0  0  0  0  0  0  0  0
  -21.0500   -1.8600  -33.2860 H   0  0  0  0  0  0  0  0  0  0  0  0
  -20.7710   -1.5590  -34.9860 H   0  0  0  0  0  0  0  0  0  0  0  0
  -22.4920   -2.7320  -35.5210 H   0  0  0  0  0  0  0  0  0  0  0  0
  -24.2890   -2.5010  -35.8030 H   0  0  0  0  0  0  0  0  0  0  0  0
  -22.0590   -1.4680  -37.5890 H   0  0  0  0  0  0  0  0  0  0  0  0
  -23.2030   -2.8200  -37.9800 H   0  0  0  0  0  0  0  0  0  0  0  0
  -22.7720    0.6170  -37.6410 H   0  0  0  0  0  0  0  0  0  0  0  0
  -24.5660    0.9580  -37.8700 H   0  0  0  0  0  0  0  0  0  0  0  0
  -23.7210    1.3170  -35.5750 H   0  0  0  0  0  0  0  0  0  0  0  0
  -25.0570    0.1540  -35.6360 H   0  0  0  0  0  0  0  0  0  0  0  0
  1  2  1  0  0  0  0
  2  3  1  0  0  0  0
  3 34  1  0  0  0  0
  3  4  2  0  0  0  0
  4  8  1  0  0  0  0
  5 35  1  0  0  0  0
  5  4  1  0  0  0  0
  6  5  2  0  0  0  0
  7  2  2  0  0  0  0
  7  6  1  0  0  0  0
  8  9  1  0  0  0  0
  9 39  1  0  0  0  0
  9 38  1  0  0  0  0
 10  9  1  6  0  0  0
 10 15  1  0  0  0  0
 11 10  1  0  0  0  0
 11 12  1  0  0  0  0
 12 13  1  0  0  0  0
 13 43  1  0  0  0  0
 13 14  1  0  0  0  0
 13 42  1  0  0  0  0
 14 16  1  0  0  0  0
 15 44  1  0  0  0  0
 15 45  1  0  0  0  0
 15 14  1  0  0  0  0
 16 18  1  0  0  0  0
 17 16  2  0  0  0  0
 18 19  2  0  0  0  0
 18 23  1  0  0  0  0
 19 20  1  0  0  0  0
 20 46  1  0  0  0  0
 20 21  2  0  0  0  0
 21 24  1  0  0  0  0
 22 21  1  0  0  0  0
 23 22  2  0  0  0  0
 24 49  1  0  0  0  0
 24 50  1  0  0  0  0
 24 48  1  0  0  0  0
 25 10  1  0  0  0  0
 25 51  1  0  0  0  0
 26 25  1  0  0  0  0
 26 27  2  0  0  0  0
 28 26  1  0  0  0  0
 29 54  1  0  0  0  0
 29 53  1  0  0  0  0
 29 28  1  0  0  0  0
 30 29  1  0  0  0  0
 31 30  1  0  0  0  0
 31 32  1  0  0  0  0
 32 33  1  0  0  0  0
 33 60  1  0  0  0  0
 33 59  1  0  0  0  0
 33 28  1  0  0  0  0
 36  6  1  0  0  0  0
 37  7  1  0  0  0  0
 40 12  1  0  0  0  0
 41 12  1  0  0  0  0
 47 23  1  0  0  0  0
 52 25  1  0  0  0  0
 55 30  1  0  0  0  0
 56 30  1  0  0  0  0
 57 32  1  0  0  0  0
 58 32  1  0  0  0  0
M  END
>  <Pose>
1

>  <Score>
-6.20

$$$$
