
 OpenBabel03222201593D

 42 45  0  0  0  0  0  0  0  0999 V2000
  -17.0510    4.6070  -25.1770 Cl  0  0  0  0  0  0  0  0  0  0  0  0
  -17.3510    2.8920  -24.9040 C   0  0  0  0  0  0  0  0  0  0  0  0
  -17.8640    2.0680  -25.8920 C   0  0  0  0  0  0  0  0  0  0  0  0
  -18.1140    0.7240  -25.7210 C   0  0  0  0  0  0  0  0  0  0  0  0
  -18.5930   -0.2740  -26.4840 N   0  0  0  0  0  0  0  0  0  0  0  0
  -18.6290   -1.4280  -25.7910 C   0  0  0  0  0  0  0  0  0  0  0  0
  -18.1600   -1.1300  -24.5690 N   0  0  0  0  0  0  0  0  0  0  0  0
  -17.8280    0.1720  -24.4680 C   0  0  0  0  0  0  0  0  0  0  0  0
  -17.3180    0.9780  -23.4780 C   0  0  0  0  0  0  0  0  0  0  0  0
  -17.0760    2.3150  -23.6680 C   0  0  0  0  0  0  0  0  0  0  0  0
  -19.0990   -2.7670  -26.2870 C   0  0  0  0  0  0  0  0  0  0  0  0
  -20.0030   -2.5890  -27.4090 N   0  0  0  0  0  0  0  0  0  0  0  0
  -19.5650   -2.1820  -28.6830 C   0  0  0  0  0  0  0  0  0  0  0  0
  -18.6950   -1.2960  -28.7390 O   0  0  0  0  0  0  0  0  0  0  0  0
  -20.0920   -2.7570  -29.9330 C   0  0  0  0  0  0  0  0  0  0  0  0
  -19.9080   -4.2140  -30.1110 C   0  0  0  0  0  0  0  0  0  0  0  0
  -21.2660   -3.7740  -29.7320 C   0  0  0  0  0  0  0  0  0  0  0  0
  -20.3320   -1.9080  -31.0610 N   0  0  0  0  0  0  0  0  0  0  0  0
  -19.5890   -2.1860  -32.2260 C   0  0  0  0  0  0  0  0  0  0  0  0
  -18.3910   -1.2440  -32.2480 C   0  0  0  0  0  0  0  0  0  0  0  0
  -18.8110    0.0470  -32.4630 O   0  0  0  0  0  0  0  0  0  0  0  0
  -20.0600    0.3410  -31.9750 C   0  0  0  0  0  0  0  0  0  0  0  0
  -20.4500   -0.5320  -30.7990 C   0  0  0  0  0  0  0  0  0  0  0  0
  -18.0880    2.5060  -26.8720 H   0  0  0  0  0  0  0  0  0  0  0  0
  -18.0640   -1.8260  -23.7940 H   0  0  0  0  0  0  0  0  0  0  0  0
  -17.1030    0.5400  -22.5210 H   0  0  0  0  0  0  0  0  0  0  0  0
  -16.6730    2.9780  -22.9050 H   0  0  0  0  0  0  0  0  0  0  0  0
  -19.5890   -3.3350  -25.5060 H   0  0  0  0  0  0  0  0  0  0  0  0
  -18.2080   -3.2910  -26.6740 H   0  0  0  0  0  0  0  0  0  0  0  0
  -21.0230   -2.7700  -27.2580 H   0  0  0  0  0  0  0  0  0  0  0  0
  -19.3690   -4.8250  -29.3590 H   0  0  0  0  0  0  0  0  0  0  0  0
  -19.7780   -4.6620  -31.1230 H   0  0  0  0  0  0  0  0  0  0  0  0
  -21.6300   -3.8660  -28.6820 H   0  0  0  0  0  0  0  0  0  0  0  0
  -22.0470   -3.8250  -30.4780 H   0  0  0  0  0  0  0  0  0  0  0  0
  -19.3110   -3.2190  -32.4230 H   0  0  0  0  0  0  0  0  0  0  0  0
  -20.2140   -1.8720  -33.1150 H   0  0  0  0  0  0  0  0  0  0  0  0
  -17.8670   -1.3130  -31.2770 H   0  0  0  0  0  0  0  0  0  0  0  0
  -17.7170   -1.5960  -33.0760 H   0  0  0  0  0  0  0  0  0  0  0  0
  -20.0080    1.3960  -31.5710 H   0  0  0  0  0  0  0  0  0  0  0  0
  -20.8520    0.3740  -32.7530 H   0  0  0  0  0  0  0  0  0  0  0  0
  -19.8850   -0.1480  -29.9290 H   0  0  0  0  0  0  0  0  0  0  0  0
  -21.5270   -0.2770  -30.5820 H   0  0  0  0  0  0  0  0  0  0  0  0
  1  2  1  0  0  0  0
  2 10  1  0  0  0  0
  3  4  1  0  0  0  0
  3  2  2  0  0  0  0
  4  8  2  0  0  0  0
  5  6  2  0  0  0  0
  5  4  1  0  0  0  0
  6  7  1  0  0  0  0
  7  8  1  0  0  0  0
  7 25  1  0  0  0  0
  8  9  1  0  0  0  0
  9 26  1  0  0  0  0
 10  9  2  0  0  0  0
 10 27  1  0  0  0  0
 11  6  1  0  0  0  0
 11 28  1  0  0  0  0
 12 30  1  0  0  0  0
 12 11  1  0  0  0  0
 13 12  1  0  0  0  0
 14 13  2  0  0  0  0
 15 17  1  0  0  0  0
 15 13  1  0  0  0  0
 16 15  1  0  0  0  0
 16 17  1  0  0  0  0
 16 31  1  0  0  0  0
 17 33  1  0  0  0  0
 18 23  1  0  0  0  0
 18 15  1  0  0  0  0
 19 18  1  0  0  0  0
 20 19  1  0  0  0  0
 20 37  1  0  0  0  0
 21 20  1  0  0  0  0
 21 22  1  0  0  0  0
 22 39  1  0  0  0  0
 22 23  1  0  0  0  0
 23 42  1  0  0  0  0
 23 41  1  0  0  0  0
 24  3  1  0  0  0  0
 29 11  1  0  0  0  0
 32 16  1  0  0  0  0
 34 17  1  0  0  0  0
 35 19  1  0  0  0  0
 36 19  1  0  0  0  0
 38 20  1  0  0  0  0
 40 22  1  0  0  0  0
M  END
>  <Pose>
1

>  <Score>
-5.44

$$$$
