
 OpenBabel03222201593D

 45 48  0  0  0  0  0  0  0  0999 V2000
  -22.2190   -0.5550  -36.0140 Cl  0  0  0  0  0  0  0  0  0  0  0  0
  -21.3190   -0.5780  -34.5130 C   0  0  0  0  0  0  0  0  0  0  0  0
  -20.0840   -1.1540  -34.4990 C   0  0  0  0  0  0  0  0  0  0  0  0
  -19.3340   -1.1920  -33.3200 C   0  0  0  0  0  0  0  0  0  0  0  0
  -19.7840   -0.6690  -32.1520 C   0  0  0  0  0  0  0  0  0  0  0  0
  -21.0580   -0.0840  -32.2010 C   0  0  0  0  0  0  0  0  0  0  0  0
  -21.8140   -0.0350  -33.3490 C   0  0  0  0  0  0  0  0  0  0  0  0
  -19.0190   -0.6360  -30.9080 C   0  0  0  0  0  0  0  0  0  0  0  0
  -19.2290   -1.7200  -29.9840 N   0  0  0  0  0  0  0  0  0  0  0  0
  -18.9790   -1.6050  -28.6450 C   0  0  0  0  0  0  0  0  0  0  0  0
  -19.2690   -2.7830  -28.0140 C   0  0  0  0  0  0  0  0  0  0  0  0
  -19.6890   -3.5840  -28.9850 N   0  0  0  0  0  0  0  0  0  0  0  0
  -19.6750   -2.9570  -30.2050 C   0  0  0  0  0  0  0  0  0  0  0  0
  -20.0890   -3.6000  -31.3930 N   0  0  0  0  0  0  0  0  0  0  0  0
  -19.1670   -4.5460  -32.0080 C   0  0  0  0  0  0  0  0  0  0  0  0
  -20.0980   -5.6360  -32.5700 C   0  0  0  0  0  0  0  0  0  0  0  0
  -21.2690   -5.8150  -31.7410 N   0  0  0  0  0  0  0  0  0  0  0  0
  -22.1610   -4.6760  -31.7290 C   0  0  0  0  0  0  0  0  0  0  0  0
  -21.3110   -3.4680  -32.0960 C   0  0  0  0  0  0  0  0  0  0  0  0
  -19.1160   -2.9310  -26.6850 N   0  0  0  0  0  0  0  0  0  0  0  0
  -18.6620   -1.8890  -25.9390 C   0  0  0  0  0  0  0  0  0  0  0  0
  -18.5350   -2.0730  -24.7080 O   0  0  0  0  0  0  0  0  0  0  0  0
  -18.3630   -0.7110  -26.5130 N   0  0  0  0  0  0  0  0  0  0  0  0
  -18.5210   -0.5760  -27.8390 C   0  0  0  0  0  0  0  0  0  0  0  0
  -18.2310    0.5400  -28.3250 O   0  0  0  0  0  0  0  0  0  0  0  0
  -19.4470   -4.2170  -26.0970 C   0  0  0  0  0  0  0  0  0  0  0  0
  -19.6520   -1.5920  -35.3840 H   0  0  0  0  0  0  0  0  0  0  0  0
  -18.3690   -1.6710  -33.3770 H   0  0  0  0  0  0  0  0  0  0  0  0
  -21.4440    0.3470  -31.2690 H   0  0  0  0  0  0  0  0  0  0  0  0
  -22.7960    0.4160  -33.3870 H   0  0  0  0  0  0  0  0  0  0  0  0
  -19.0860    0.3690  -30.3880 H   0  0  0  0  0  0  0  0  0  0  0  0
  -17.9330   -0.6330  -31.2100 H   0  0  0  0  0  0  0  0  0  0  0  0
  -18.4520   -4.9670  -31.2980 H   0  0  0  0  0  0  0  0  0  0  0  0
  -18.6400   -4.1220  -32.8760 H   0  0  0  0  0  0  0  0  0  0  0  0
  -20.3260   -5.4510  -33.6360 H   0  0  0  0  0  0  0  0  0  0  0  0
  -19.5320   -6.5970  -32.5060 H   0  0  0  0  0  0  0  0  0  0  0  0
  -21.7910   -6.6160  -32.1340 H   0  0  0  0  0  0  0  0  0  0  0  0
  -22.6700   -4.5380  -30.7540 H   0  0  0  0  0  0  0  0  0  0  0  0
  -22.9690   -4.7800  -32.4920 H   0  0  0  0  0  0  0  0  0  0  0  0
  -21.1360   -3.6330  -33.2240 H   0  0  0  0  0  0  0  0  0  0  0  0
  -21.8270   -2.5260  -32.0940 H   0  0  0  0  0  0  0  0  0  0  0  0
  -18.0190    0.0550  -25.8980 H   0  0  0  0  0  0  0  0  0  0  0  0
  -18.7150   -4.9950  -26.4240 H   0  0  0  0  0  0  0  0  0  0  0  0
  -20.4690   -4.5670  -26.4120 H   0  0  0  0  0  0  0  0  0  0  0  0
  -19.4310   -4.2030  -25.0020 H   0  0  0  0  0  0  0  0  0  0  0  0
  1  2  1  0  0  0  0
  2  3  2  0  0  0  0
  2  7  1  0  0  0  0
  3  4  1  0  0  0  0
  4  5  2  0  0  0  0
  5  8  1  0  0  0  0
  6  5  1  0  0  0  0
  6 29  1  0  0  0  0
  7  6  2  0  0  0  0
  8 31  1  0  0  0  0
  8  9  1  0  0  0  0
  9 10  1  0  0  0  0
 10 11  2  0  0  0  0
 10 24  1  0  0  0  0
 11 20  1  0  0  0  0
 12 11  1  0  0  0  0
 13  9  1  0  0  0  0
 13 12  2  0  0  0  0
 14 13  1  0  0  0  0
 15 14  1  0  0  0  0
 15 33  1  0  0  0  0
 16 36  1  0  0  0  0
 16 15  1  0  0  0  0
 16 17  1  0  0  0  0
 17 18  1  0  0  0  0
 18 38  1  0  0  0  0
 19 41  1  0  0  0  0
 19 18  1  0  0  0  0
 19 14  1  0  0  0  0
 20 26  1  0  0  0  0
 20 21  1  0  0  0  0
 21 22  2  0  0  0  0
 23 21  1  0  0  0  0
 23 42  1  0  0  0  0
 24 23  1  0  0  0  0
 25 24  2  0  0  0  0
 26 45  1  0  0  0  0
 27  3  1  0  0  0  0
 28  4  1  0  0  0  0
 30  7  1  0  0  0  0
 32  8  1  0  0  0  0
 34 15  1  0  0  0  0
 35 16  1  0  0  0  0
 37 17  1  0  0  0  0
 39 18  1  0  0  0  0
 40 19  1  0  0  0  0
 43 26  1  0  0  0  0
 44 26  1  0  0  0  0
M  END
>  <Pose>
1

>  <Score>
-5.98

$$$$
