
 OpenBabel03222201593D

 50 53  0  0  1  0  0  0  0  0999 V2000
  -19.8640   -1.9280  -29.5900 Cl  0  0  0  0  0  0  0  0  0  0  0  0
  -19.7070   -1.1270  -31.1330 C   0  0  0  0  0  0  0  0  0  0  0  0
  -19.6780   -1.8160  -32.3260 C   0  0  0  0  0  0  0  0  0  0  0  0
  -19.5490   -1.1190  -33.5110 C   0  0  0  0  0  0  0  0  0  0  0  0
  -19.4480    0.2490  -33.5610 C   0  0  0  0  0  0  0  0  0  0  0  0
  -19.4800    0.9300  -32.3440 C   0  0  0  0  0  0  0  0  0  0  0  0
  -19.6070    0.2410  -31.1580 C   0  0  0  0  0  0  0  0  0  0  0  0
  -19.2990    0.9880  -34.8390 C   0  0  1  0  0  0  0  0  0  0  0  0
  -20.2280    0.4640  -35.8490 N   0  0  0  0  0  0  0  0  0  0  0  0
  -21.5230    0.7740  -35.3660 C   0  0  0  0  0  0  0  0  0  0  0  0
  -22.5780    0.1350  -35.5920 O   0  0  0  0  0  0  0  0  0  0  0  0
  -21.3940    1.9920  -34.5440 C   0  0  0  0  0  0  0  0  0  0  0  0
  -22.2980    2.6030  -33.9310 O   0  0  0  0  0  0  0  0  0  0  0  0
  -19.9780    2.3270  -34.6020 C   0  0  0  0  0  0  0  0  0  0  0  0
  -19.4450    3.4930  -34.4890 C   0  0  0  0  0  0  0  0  0  0  0  0
  -18.0650    3.6660  -34.5810 O   0  0  0  0  0  0  0  0  0  0  0  0
  -20.2730    4.6730  -34.2590 C   0  0  0  0  0  0  0  0  0  0  0  0
  -20.7380    5.2030  -33.1840 O   0  0  0  0  0  0  0  0  0  0  0  0
  -21.4390    6.2670  -33.4530 C   0  0  0  0  0  0  0  0  0  0  0  0
  -21.4480    6.4720  -34.8090 C   0  0  0  0  0  0  0  0  0  0  0  0
  -20.7030    5.4550  -35.3390 C   0  0  0  0  0  0  0  0  0  0  0  0
  -19.8620   -0.2320  -37.0740 C   0  0  0  0  0  0  0  0  0  0  0  0
  -20.2550    0.4850  -38.3290 C   0  0  0  0  0  0  0  0  0  0  0  0
  -20.4930   -0.3310  -39.4700 N   0  0  0  0  0  4  0  0  0  0  0  0
  -21.5370   -1.2990  -39.3630 C   0  0  0  0  0  0  0  0  0  0  0  0
  -22.9100   -0.6940  -39.1760 C   0  0  0  0  0  0  0  0  0  0  0  0
  -23.2110    0.1820  -40.2130 O   0  0  0  0  0  0  0  0  0  0  0  0
  -22.2010    1.1160  -40.4190 C   0  0  0  0  0  0  0  0  0  0  0  0
  -20.8500    0.4910  -40.6450 C   0  0  0  0  0  0  0  0  0  0  0  0
  -19.7590   -2.8900  -32.2690 H   0  0  0  0  0  0  0  0  0  0  0  0
  -19.5340   -1.6950  -34.4260 H   0  0  0  0  0  0  0  0  0  0  0  0
  -19.3970    2.0260  -32.3860 H   0  0  0  0  0  0  0  0  0  0  0  0
  -19.6320    0.7790  -30.2150 H   0  0  0  0  0  0  0  0  0  0  0  0
  -18.2780    1.0910  -35.1940 H   0  0  0  0  0  0  0  0  0  0  0  0
  -21.9640    6.9340  -32.7580 H   0  0  0  0  0  0  0  0  0  0  0  0
  -21.9370    7.2700  -35.3840 H   0  0  0  0  0  0  0  0  0  0  0  0
  -20.4920    5.2970  -36.3830 H   0  0  0  0  0  0  0  0  0  0  0  0
  -20.2780   -1.2680  -37.0720 H   0  0  0  0  0  0  0  0  0  0  0  0
  -18.7410   -0.3180  -37.0370 H   0  0  0  0  0  0  0  0  0  0  0  0
  -21.0740    1.2080  -38.1200 H   0  0  0  0  0  0  0  0  0  0  0  0
  -19.3770    1.1430  -38.5900 H   0  0  0  0  0  0  0  0  0  0  0  0
  -19.6120   -0.8410  -39.6980 H   0  0  0  0  0  0  0  0  0  0  0  0
  -21.5870   -1.8010  -40.3790 H   0  0  0  0  0  0  0  0  0  0  0  0
  -21.3780   -2.1050  -38.6560 H   0  0  0  0  0  0  0  0  0  0  0  0
  -23.6260   -1.5600  -39.3050 H   0  0  0  0  0  0  0  0  0  0  0  0
  -23.0910   -0.2910  -38.1750 H   0  0  0  0  0  0  0  0  0  0  0  0
  -22.1230    1.8360  -39.5740 H   0  0  0  0  0  0  0  0  0  0  0  0
  -22.4720    1.6830  -41.3340 H   0  0  0  0  0  0  0  0  0  0  0  0
  -20.9280   -0.1930  -41.5070 H   0  0  0  0  0  0  0  0  0  0  0  0
  -20.1340    1.3190  -40.7930 H   0  0  0  0  0  0  0  0  0  0  0  0
  2  1  1  0  0  0  0
  3 30  1  0  0  0  0
  3  2  2  0  0  0  0
  4  3  1  0  0  0  0
  5  4  2  0  0  0  0
  5  6  1  0  0  0  0
  6  7  2  0  0  0  0
  7  2  1  0  0  0  0
  7 33  1  0  0  0  0
  8 34  1  6  0  0  0
  8 14  1  0  0  0  0
  8  5  1  0  0  0  0
  9 10  1  0  0  0  0
  9  8  1  0  0  0  0
 10 12  1  0  0  0  0
 11 10  2  0  0  0  0
 12 13  2  0  0  0  0
 14 12  1  0  0  0  0
 14 15  2  0  0  0  0
 15 17  1  0  0  0  0
 16 15  1  0  0  0  0
 17 18  1  0  0  0  0
 19 18  1  0  0  0  0
 19 35  1  0  0  0  0
 20 19  2  0  0  0  0
 21 20  1  0  0  0  0
 21 17  2  0  0  0  0
 22 38  1  0  0  0  0
 22 39  1  0  0  0  0
 22  9  1  0  0  0  0
 23 40  1  0  0  0  0
 23 22  1  0  0  0  0
 24 25  1  0  0  0  0
 24 23  1  0  0  0  0
 25 26  1  0  0  0  0
 25 44  1  0  0  0  0
 26 46  1  0  0  0  0
 27 26  1  0  0  0  0
 28 27  1  0  0  0  0
 28 47  1  0  0  0  0
 29 28  1  0  0  0  0
 29 24  1  0  0  0  0
 31  4  1  0  0  0  0
 32  6  1  0  0  0  0
 36 20  1  0  0  0  0
 37 21  1  0  0  0  0
 41 23  1  0  0  0  0
 42 24  1  0  0  0  0
 43 25  1  0  0  0  0
 45 26  1  0  0  0  0
 48 28  1  0  0  0  0
 49 29  1  0  0  0  0
 50 29  1  0  0  0  0
M  END
>  <Pose>
1

>  <Score>
-5.33

$$$$
