
 OpenBabel03222201593D

 47 51  0  0  1  0  0  0  0  0999 V2000
  -19.9020   -3.3480  -27.9750 Cl  0  0  0  0  0  0  0  0  0  0  0  0
  -19.2680   -1.8880  -27.2360 C   0  0  0  0  0  0  0  0  0  0  0  0
  -19.2600   -0.7110  -27.9450 C   0  0  0  0  0  0  0  0  0  0  0  0
  -18.7480    0.4370  -27.3530 C   0  0  0  0  0  0  0  0  0  0  0  0
  -18.2440    0.4650  -26.0820 C   0  0  0  0  0  0  0  0  0  0  0  0
  -18.2660   -0.7250  -25.3970 C   0  0  0  0  0  0  0  0  0  0  0  0
  -18.7750   -1.8960  -25.9680 C   0  0  0  0  0  0  0  0  0  0  0  0
  -17.7250    1.6190  -25.4850 N   0  0  0  0  0  0  0  0  0  0  0  0
  -17.3990    1.8590  -24.0980 C   0  0  0  0  0  0  0  0  0  0  0  0
  -17.5700    1.0670  -23.1670 O   0  0  0  0  0  0  0  0  0  0  0  0
  -16.8240    3.2030  -23.9540 C   0  0  2  0  0  0  0  0  0  0  0  0
  -17.3850    4.0370  -22.8270 C   0  0  2  0  0  0  0  0  0  0  0  0
  -18.4740    4.8210  -23.3590 N   0  0  0  0  0  0  0  0  0  0  0  0
  -18.7850    4.2560  -24.6570 C   0  0  2  0  0  0  0  0  0  0  0  0
  -17.4000    3.9050  -25.1620 C   0  0  2  0  0  0  0  0  0  0  0  0
  -17.3930    2.8350  -26.1760 C   0  0  0  0  0  0  0  0  0  0  0  0
  -17.1400    3.0180  -27.3700 O   0  0  0  0  0  0  0  0  0  0  0  0
  -19.4620    5.2490  -25.5650 C   0  0  0  0  0  0  0  0  0  0  0  0
  -20.3210    6.2060  -24.8740 C   0  0  0  0  0  0  0  0  0  0  0  0
  -20.0900    7.4280  -24.9410 O   0  0  0  0  0  0  0  0  0  0  0  0
  -21.4260    5.7470  -24.1190 N   0  0  0  0  0  0  0  0  0  0  0  0
  -16.2410    4.9070  -22.3860 C   0  0  0  0  0  0  0  0  0  0  0  0
  -15.8530    4.4820  -21.1470 C   0  0  0  0  0  0  0  0  0  0  0  0
  -14.7600    5.0550  -20.4780 C   0  0  0  0  0  0  0  0  0  0  0  0
  -14.0460    6.0780  -21.0680 C   0  0  0  0  0  0  0  0  0  0  0  0
  -14.4360    6.5060  -22.3090 C   0  0  0  0  0  0  0  0  0  0  0  0
  -15.5110    5.9320  -22.9530 C   0  0  0  0  0  0  0  0  0  0  0  0
  -16.7360    3.4900  -20.6500 N   0  0  0  0  0  0  0  0  0  0  0  0
  -17.7380    3.2910  -21.6360 C   0  0  0  0  0  0  0  0  0  0  0  0
  -18.7470    2.5790  -21.4540 O   0  0  0  0  0  0  0  0  0  0  0  0
  -19.6510   -0.6780  -28.9640 H   0  0  0  0  0  0  0  0  0  0  0  0
  -18.7680    1.3100  -27.9510 H   0  0  0  0  0  0  0  0  0  0  0  0
  -17.9010   -0.8240  -24.4010 H   0  0  0  0  0  0  0  0  0  0  0  0
  -18.7830   -2.8320  -25.4080 H   0  0  0  0  0  0  0  0  0  0  0  0
  -15.7140    3.1960  -23.9710 H   0  0  0  0  0  0  0  0  0  0  0  0
  -19.2810    4.7330  -22.6980 H   0  0  0  0  0  0  0  0  0  0  0  0
  -19.3420    3.2980  -24.5610 H   0  0  0  0  0  0  0  0  0  0  0  0
  -16.8320    4.7960  -25.4750 H   0  0  0  0  0  0  0  0  0  0  0  0
  -20.1100    4.6390  -26.2640 H   0  0  0  0  0  0  0  0  0  0  0  0
  -18.6810    5.7080  -26.2060 H   0  0  0  0  0  0  0  0  0  0  0  0
  -22.3880    5.5990  -24.5080 H   0  0  0  0  0  0  0  0  0  0  0  0
  -21.3590    5.5150  -23.0850 H   0  0  0  0  0  0  0  0  0  0  0  0
  -14.4580    4.7100  -19.4960 H   0  0  0  0  0  0  0  0  0  0  0  0
  -13.1990    6.5030  -20.5260 H   0  0  0  0  0  0  0  0  0  0  0  0
  -13.8970    7.3030  -22.7840 H   0  0  0  0  0  0  0  0  0  0  0  0
  -15.8090    6.2880  -23.9340 H   0  0  0  0  0  0  0  0  0  0  0  0
  -16.6630    2.9890  -19.7120 H   0  0  0  0  0  0  0  0  0  0  0  0
  1  2  1  0  0  0  0
  2  7  1  0  0  0  0
  3  4  1  0  0  0  0
  3  2  2  0  0  0  0
  4  5  2  0  0  0  0
  5  8  1  0  0  0  0
  5  6  1  0  0  0  0
  6 33  1  0  0  0  0
  7 34  1  0  0  0  0
  7  6  2  0  0  0  0
  8  9  1  0  0  0  0
  9 11  1  0  0  0  0
  9 10  2  0  0  0  0
 11 35  1  6  0  0  0
 11 12  1  0  0  0  0
 12 22  1  1  0  0  0
 12 29  1  0  0  0  0
 13 12  1  0  0  0  0
 13 36  1  0  0  0  0
 14 37  1  1  0  0  0
 14 13  1  0  0  0  0
 15 38  1  6  0  0  0
 15 14  1  0  0  0  0
 15 11  1  0  0  0  0
 16  8  1  0  0  0  0
 16 15  1  0  0  0  0
 17 16  2  0  0  0  0
 18 19  1  0  0  0  0
 18 14  1  0  0  0  0
 19 21  1  0  0  0  0
 20 19  2  0  0  0  0
 21 42  1  0  0  0  0
 22 23  1  0  0  0  0
 23 28  1  0  0  0  0
 23 24  2  0  0  0  0
 24 43  1  0  0  0  0
 25 44  1  0  0  0  0
 25 24  1  0  0  0  0
 26 25  2  0  0  0  0
 27 22  2  0  0  0  0
 27 26  1  0  0  0  0
 28 47  1  0  0  0  0
 29 30  2  0  0  0  0
 29 28  1  0  0  0  0
 31  3  1  0  0  0  0
 32  4  1  0  0  0  0
 39 18  1  0  0  0  0
 40 18  1  0  0  0  0
 41 21  1  0  0  0  0
 45 26  1  0  0  0  0
 46 27  1  0  0  0  0
M  END
>  <Pose>
1

>  <Score>
-5.92

$$$$
