
 OpenBabel03222201593D

 57 61  0  0  1  0  0  0  0  0999 V2000
  -19.5930   -4.5540  -26.9090 Cl  0  0  0  0  0  0  0  0  0  0  0  0
  -20.1290   -4.1770  -28.5380 C   0  0  0  0  0  0  0  0  0  0  0  0
  -20.2780   -5.1520  -29.5050 C   0  0  0  0  0  0  0  0  0  0  0  0
  -20.6970   -4.8480  -30.7740 C   0  0  0  0  0  0  0  0  0  0  0  0
  -20.9930   -3.5380  -31.1480 C   0  0  0  0  0  0  0  0  0  0  0  0
  -20.8490   -2.5600  -30.1950 C   0  0  0  0  0  0  0  0  0  0  0  0
  -20.4270   -2.8920  -28.9300 C   0  0  0  0  0  0  0  0  0  0  0  0
  -21.4680   -3.2380  -32.5290 C   0  0  1  0  0  0  0  0  0  0  0  0
  -22.7650   -3.6630  -32.6580 O   0  0  0  0  0  0  0  0  0  0  0  0
  -21.2510   -1.8030  -32.9280 C   0  0  2  0  0  0  0  0  0  0  0  0
  -22.3240   -1.4850  -33.8620 N   0  0  0  0  0  0  0  0  0  0  0  0
  -21.7450   -0.6470  -34.8930 C   0  0  1  0  0  0  0  0  0  0  0  0
  -20.3450   -1.1780  -34.9970 C   0  0  2  0  0  0  0  0  0  0  0  0
  -19.9560   -1.5400  -33.5990 C   0  0  1  0  0  0  0  0  0  0  0  0
  -19.2400   -0.3530  -33.0550 C   0  0  0  0  0  0  0  0  0  0  0  0
  -18.9710   -0.1290  -31.8500 O   0  0  0  0  0  0  0  0  0  0  0  0
  -18.9190    0.4840  -34.1880 N   0  0  0  0  0  0  0  0  0  0  0  0
  -19.3370   -0.1700  -35.3680 C   0  0  0  0  0  0  0  0  0  0  0  0
  -18.9390    0.0500  -36.5380 O   0  0  0  0  0  0  0  0  0  0  0  0
  -18.2910    1.7700  -34.1120 C   0  0  0  0  0  0  0  0  0  0  0  0
  -19.1360    2.9300  -34.4860 C   0  0  0  0  0  0  0  0  0  0  0  0
  -18.8380    4.2220  -33.8110 C   0  0  0  0  0  0  0  0  0  0  0  0
  -17.5570    4.6940  -34.0660 O   0  0  0  0  0  0  0  0  0  0  0  0
  -17.0070    5.2160  -32.8760 C   0  0  0  0  0  0  0  0  0  0  0  0
  -22.4730   -0.7640  -36.1800 C   0  0  0  0  0  0  0  0  0  0  0  0
  -22.9730    0.4840  -36.4660 C   0  0  0  0  0  0  0  0  0  0  0  0
  -23.7040    0.6620  -37.6320 C   0  0  0  0  0  0  0  0  0  0  0  0
  -23.9080   -0.4110  -38.4680 C   0  0  0  0  0  0  0  0  0  0  0  0
  -23.4080   -1.6710  -38.1890 C   0  0  0  0  0  0  0  0  0  0  0  0
  -22.6840   -1.8340  -37.0260 C   0  0  0  0  0  0  0  0  0  0  0  0
  -22.6260    1.4280  -35.4360 N   0  0  0  0  0  0  0  0  0  0  0  0
  -21.8730    0.7330  -34.4590 C   0  0  0  0  0  0  0  0  0  0  0  0
  -21.4240    1.2600  -33.4280 O   0  0  0  0  0  0  0  0  0  0  0  0
  -20.0540   -6.1910  -29.2420 H   0  0  0  0  0  0  0  0  0  0  0  0
  -20.8140   -5.6310  -31.5390 H   0  0  0  0  0  0  0  0  0  0  0  0
  -21.0680   -1.5210  -30.4000 H   0  0  0  0  0  0  0  0  0  0  0  0
  -20.3060   -2.1250  -28.1570 H   0  0  0  0  0  0  0  0  0  0  0  0
  -20.7860   -3.8760  -33.2040 H   0  0  0  0  0  0  0  0  0  0  0  0
  -23.2710   -3.3530  -31.8640 H   0  0  0  0  0  0  0  0  0  0  0  0
  -21.4170   -1.1410  -32.0290 H   0  0  0  0  0  0  0  0  0  0  0  0
  -23.0990   -1.0180  -33.3770 H   0  0  0  0  0  0  0  0  0  0  0  0
  -20.3230   -2.0490  -35.6810 H   0  0  0  0  0  0  0  0  0  0  0  0
  -19.2520   -2.3880  -33.5650 H   0  0  0  0  0  0  0  0  0  0  0  0
  -17.3750    1.7510  -34.7320 H   0  0  0  0  0  0  0  0  0  0  0  0
  -17.9130    1.9700  -33.0660 H   0  0  0  0  0  0  0  0  0  0  0  0
  -18.9620    3.1110  -35.5900 H   0  0  0  0  0  0  0  0  0  0  0  0
  -20.2350    2.7110  -34.4400 H   0  0  0  0  0  0  0  0  0  0  0  0
  -18.9580    4.2010  -32.7150 H   0  0  0  0  0  0  0  0  0  0  0  0
  -19.5610    4.9760  -34.2090 H   0  0  0  0  0  0  0  0  0  0  0  0
  -17.6180    6.0470  -32.4830 H   0  0  0  0  0  0  0  0  0  0  0  0
  -17.0320    4.4080  -32.1120 H   0  0  0  0  0  0  0  0  0  0  0  0
  -15.9480    5.5030  -33.0260 H   0  0  0  0  0  0  0  0  0  0  0  0
  -24.1060    1.6590  -37.8660 H   0  0  0  0  0  0  0  0  0  0  0  0
  -24.4820   -0.2540  -39.3790 H   0  0  0  0  0  0  0  0  0  0  0  0
  -23.6090   -2.4690  -38.8910 H   0  0  0  0  0  0  0  0  0  0  0  0
  -22.2830   -2.8320  -36.7960 H   0  0  0  0  0  0  0  0  0  0  0  0
  -22.9100    2.4330  -35.4640 H   0  0  0  0  0  0  0  0  0  0  0  0
  2  1  1  0  0  0  0
  3 34  1  0  0  0  0
  3  2  2  0  0  0  0
  4  3  1  0  0  0  0
  5  4  2  0  0  0  0
  5  6  1  0  0  0  0
  6  7  2  0  0  0  0
  7  2  1  0  0  0  0
  7 37  1  0  0  0  0
  8 38  1  6  0  0  0
  8  5  1  0  0  0  0
  9  8  1  0  0  0  0
  9 39  1  0  0  0  0
 10  8  1  0  0  0  0
 10 40  1  1  0  0  0
 11 41  1  0  0  0  0
 11 10  1  0  0  0  0
 12 25  1  6  0  0  0
 12 32  1  0  0  0  0
 12 11  1  0  0  0  0
 13 42  1  6  0  0  0
 13 12  1  0  0  0  0
 13 14  1  0  0  0  0
 14 43  1  1  0  0  0
 14 15  1  0  0  0  0
 14 10  1  0  0  0  0
 15 16  2  0  0  0  0
 17 20  1  0  0  0  0
 17 15  1  0  0  0  0
 18 13  1  0  0  0  0
 18 17  1  0  0  0  0
 19 18  2  0  0  0  0
 20 45  1  0  0  0  0
 21 47  1  0  0  0  0
 21 20  1  0  0  0  0
 21 22  1  0  0  0  0
 22 48  1  0  0  0  0
 23 22  1  0  0  0  0
 23 24  1  0  0  0  0
 24 50  1  0  0  0  0
 24 51  1  0  0  0  0
 26 25  1  0  0  0  0
 26 31  1  0  0  0  0
 27 26  2  0  0  0  0
 28 29  2  0  0  0  0
 28 27  1  0  0  0  0
 29 30  1  0  0  0  0
 30 56  1  0  0  0  0
 30 25  2  0  0  0  0
 31 32  1  0  0  0  0
 32 33  2  0  0  0  0
 35  4  1  0  0  0  0
 36  6  1  0  0  0  0
 44 20  1  0  0  0  0
 46 21  1  0  0  0  0
 49 22  1  0  0  0  0
 52 24  1  0  0  0  0
 53 27  1  0  0  0  0
 54 28  1  0  0  0  0
 55 29  1  0  0  0  0
 57 31  1  0  0  0  0
M  END
>  <Pose>
1

>  <Score>
-6.04

$$$$
