
 OpenBabel03222201593D

 48 51  0  0  1  0  0  0  0  0999 V2000
  -23.4510   -2.1980  -39.0310 Cl  0  0  0  0  0  0  0  0  0  0  0  0
  -23.0790   -1.4070  -37.5140 C   0  0  0  0  0  0  0  0  0  0  0  0
  -23.6540   -1.8460  -36.3260 C   0  0  0  0  0  0  0  0  0  0  0  0
  -23.3520   -1.2150  -35.1390 C   0  0  0  0  0  0  0  0  0  0  0  0
  -22.4880   -0.1430  -35.0750 C   0  0  0  0  0  0  0  0  0  0  0  0
  -21.9150    0.2970  -36.2480 C   0  0  0  0  0  0  0  0  0  0  0  0
  -22.2150   -0.3320  -37.4350 C   0  0  0  0  0  0  0  0  0  0  0  0
  -22.1450    0.5520  -33.8240 C   0  0  0  0  0  0  0  0  0  0  0  0
  -20.7330    0.2630  -33.4130 C   0  0  0  0  0  0  0  0  0  0  0  0
  -19.9270    1.2570  -33.4000 O   0  0  0  0  0  0  0  0  0  0  0  0
  -20.3200   -1.0300  -33.0610 N   0  0  0  0  0  0  0  0  0  0  0  0
  -21.1060   -2.1860  -33.3540 C   0  0  0  0  0  0  0  0  0  0  0  0
  -20.8840   -3.3410  -32.4180 C   0  0  0  0  0  0  0  0  0  0  0  0
  -20.3780   -2.8510  -31.1130 C   0  0  2  0  0  0  0  0  0  0  0  0
  -19.4750   -1.8060  -31.0520 C   0  0  0  0  0  0  0  0  0  0  0  0
  -19.0080   -1.3610  -29.8800 N   0  0  0  0  0  0  0  0  0  0  0  0
  -19.3800   -1.8920  -28.6970 C   0  0  2  0  0  0  0  0  0  0  0  0
  -20.2660   -2.9160  -28.7510 N   0  0  0  0  0  0  0  0  0  0  0  0
  -20.7630   -3.3980  -29.9030 C   0  0  0  0  0  0  0  0  0  0  0  0
  -21.6680   -4.4490  -29.9230 O   0  0  0  0  0  0  0  0  0  0  0  0
  -18.8620   -1.3860  -27.4930 N   0  0  0  0  0  0  0  0  0  0  0  0
  -19.0430   -2.0970  -26.2620 C   0  0  0  0  0  0  0  0  0  0  0  0
  -17.9230   -1.6240  -25.3240 C   0  0  0  0  0  0  0  0  0  0  0  0
  -18.0290   -0.2810  -25.0620 O   0  0  0  0  0  0  0  0  0  0  0  0
  -18.2270    0.5310  -26.1450 C   0  0  0  0  0  0  0  0  0  0  0  0
  -18.1430   -0.1470  -27.4840 C   0  0  0  0  0  0  0  0  0  0  0  0
  -19.0680   -1.2120  -32.3800 C   0  0  0  0  0  0  0  0  0  0  0  0
  -24.3300   -2.6830  -36.3670 H   0  0  0  0  0  0  0  0  0  0  0  0
  -23.7970   -1.5490  -34.2040 H   0  0  0  0  0  0  0  0  0  0  0  0
  -21.2170    1.1490  -36.2620 H   0  0  0  0  0  0  0  0  0  0  0  0
  -21.7620    0.0120  -38.3770 H   0  0  0  0  0  0  0  0  0  0  0  0
  -22.8710    0.2160  -33.0420 H   0  0  0  0  0  0  0  0  0  0  0  0
  -22.3120    1.6380  -33.9880 H   0  0  0  0  0  0  0  0  0  0  0  0
  -22.1860   -1.9560  -33.4980 H   0  0  0  0  0  0  0  0  0  0  0  0
  -20.7800   -2.5720  -34.3730 H   0  0  0  0  0  0  0  0  0  0  0  0
  -20.1400   -4.0850  -32.8300 H   0  0  0  0  0  0  0  0  0  0  0  0
  -21.8090   -3.9460  -32.2660 H   0  0  0  0  0  0  0  0  0  0  0  0
  -21.4830   -5.3180  -30.4320 H   0  0  0  0  0  0  0  0  0  0  0  0
  -18.8910   -3.1960  -26.3690 H   0  0  0  0  0  0  0  0  0  0  0  0
  -20.0400   -1.9260  -25.7880 H   0  0  0  0  0  0  0  0  0  0  0  0
  -16.9760   -1.8000  -25.8750 H   0  0  0  0  0  0  0  0  0  0  0  0
  -17.9070   -2.2020  -24.4000 H   0  0  0  0  0  0  0  0  0  0  0  0
  -19.2050    1.0590  -26.0730 H   0  0  0  0  0  0  0  0  0  0  0  0
  -17.4260    1.3200  -26.1350 H   0  0  0  0  0  0  0  0  0  0  0  0
  -17.0640   -0.2780  -27.7760 H   0  0  0  0  0  0  0  0  0  0  0  0
  -18.6150    0.5450  -28.2180 H   0  0  0  0  0  0  0  0  0  0  0  0
  -18.5510   -0.2470  -32.2260 H   0  0  0  0  0  0  0  0  0  0  0  0
  -18.3860   -1.9110  -32.9120 H   0  0  0  0  0  0  0  0  0  0  0  0
  1  2  1  0  0  0  0
  2  7  2  0  0  0  0
  2  3  1  0  0  0  0
  3  4  2  0  0  0  0
  4  5  1  0  0  0  0
  4 29  1  0  0  0  0
  5  8  1  0  0  0  0
  6  5  2  0  0  0  0
  7  6  1  0  0  0  0
  8  9  1  0  0  0  0
  8 32  1  0  0  0  0
  9 10  2  0  0  0  0
  9 11  1  0  0  0  0
 11 27  1  0  0  0  0
 12 11  1  0  0  0  0
 12 13  1  0  0  0  0
 13 37  1  0  0  0  0
 13 14  1  0  0  0  0
 14 15  1  6  0  0  0
 14 19  1  0  0  0  0
 15 16  2  0  0  0  0
 16 17  1  0  0  0  0
 17 21  1  1  0  0  0
 18 17  1  0  0  0  0
 19 18  2  0  0  0  0
 20 19  1  0  0  0  0
 21 26  1  0  0  0  0
 21 22  1  0  0  0  0
 22 40  1  0  0  0  0
 22 23  1  0  0  0  0
 23 24  1  0  0  0  0
 23 42  1  0  0  0  0
 25 44  1  0  0  0  0
 25 43  1  0  0  0  0
 25 24  1  0  0  0  0
 26 25  1  0  0  0  0
 27 47  1  0  0  0  0
 27 15  1  0  0  0  0
 28  3  1  0  0  0  0
 30  6  1  0  0  0  0
 31  7  1  0  0  0  0
 33  8  1  0  0  0  0
 34 12  1  0  0  0  0
 35 12  1  0  0  0  0
 36 13  1  0  0  0  0
 38 20  1  0  0  0  0
 39 22  1  0  0  0  0
 41 23  1  0  0  0  0
 45 26  1  0  0  0  0
 46 26  1  0  0  0  0
 48 27  1  0  0  0  0
M  END
>  <Pose>
1

>  <Score>
-6.24

$$$$
