
 OpenBabel03222201593D

 52 55  0  0  0  0  0  0  0  0999 V2000
  -18.5070    4.0890  -25.8100 Cl  0  0  0  0  0  0  0  0  0  0  0  0
  -18.3860    2.3840  -26.1210 C   0  0  0  0  0  0  0  0  0  0  0  0
  -18.6210    1.8720  -27.3980 C   0  0  0  0  0  0  0  0  0  0  0  0
  -18.5240    0.5140  -27.6380 C   0  0  0  0  0  0  0  0  0  0  0  0
  -18.1890   -0.3720  -26.6180 C   0  0  0  0  0  0  0  0  0  0  0  0
  -17.9580    0.1240  -25.3650 C   0  0  0  0  0  0  0  0  0  0  0  0
  -18.0560    1.4950  -25.1250 C   0  0  0  0  0  0  0  0  0  0  0  0
  -18.0960   -1.8260  -26.9190 C   0  0  0  0  0  0  0  0  0  0  0  0
  -19.3050   -2.5480  -26.4770 C   0  0  0  0  0  0  0  0  0  0  0  0
  -19.3460   -2.9320  -25.2790 O   0  0  0  0  0  0  0  0  0  0  0  0
  -20.3990   -2.8260  -27.3110 N   0  0  0  0  0  0  0  0  0  0  0  0
  -21.3870   -1.7830  -27.6420 C   0  0  0  0  0  0  0  0  0  0  0  0
  -21.8010   -1.9700  -29.0930 C   0  0  0  0  0  0  0  0  0  0  0  0
  -20.6850   -2.6010  -29.7670 N   0  0  0  0  0  0  0  0  0  0  0  0
  -20.4730   -4.0010  -29.4410 C   0  0  0  0  0  0  0  0  0  0  0  0
  -20.6680   -4.1210  -27.9200 C   0  0  0  0  0  0  0  0  0  0  0  0
  -19.8500   -1.8920  -30.6690 C   0  0  0  0  0  0  0  0  0  0  0  0
  -18.5230   -1.6660  -30.3530 C   0  0  0  0  0  0  0  0  0  0  0  0
  -17.7450   -0.9700  -31.2330 N   0  0  0  0  0  0  0  0  0  0  0  0
  -18.2020   -0.4970  -32.3760 N   0  0  0  0  0  0  0  0  0  0  0  0
  -19.5050   -0.6840  -32.7520 C   0  0  0  0  0  0  0  0  0  0  0  0
  -20.2770   -1.3790  -31.8710 C   0  0  0  0  0  0  0  0  0  0  0  0
  -19.9280   -0.1480  -33.9880 N   0  0  0  0  0  0  0  0  0  0  0  0
  -19.8290    1.2740  -34.2590 C   0  0  0  0  0  0  0  0  0  0  0  0
  -21.1140    1.7850  -34.9110 C   0  0  0  0  0  0  0  0  0  0  0  0
  -21.5230    0.9630  -35.9430 O   0  0  0  0  0  0  0  0  0  0  0  0
  -21.8140   -0.2830  -35.4090 C   0  0  0  0  0  0  0  0  0  0  0  0
  -20.4820   -0.9600  -35.0410 C   0  0  0  0  0  0  0  0  0  0  0  0
  -18.8790    2.5550  -28.1800 H   0  0  0  0  0  0  0  0  0  0  0  0
  -18.7010    0.0820  -28.6220 H   0  0  0  0  0  0  0  0  0  0  0  0
  -17.6920   -0.5290  -24.5290 H   0  0  0  0  0  0  0  0  0  0  0  0
  -17.8700    1.8550  -24.1280 H   0  0  0  0  0  0  0  0  0  0  0  0
  -17.2100   -2.2030  -26.3300 H   0  0  0  0  0  0  0  0  0  0  0  0
  -17.8930   -1.9880  -27.9970 H   0  0  0  0  0  0  0  0  0  0  0  0
  -20.8780   -0.8230  -27.4710 H   0  0  0  0  0  0  0  0  0  0  0  0
  -22.2520   -1.8390  -26.9490 H   0  0  0  0  0  0  0  0  0  0  0  0
  -22.1170   -1.0340  -29.5760 H   0  0  0  0  0  0  0  0  0  0  0  0
  -22.6600   -2.6750  -29.1410 H   0  0  0  0  0  0  0  0  0  0  0  0
  -19.4960   -4.3940  -29.7250 H   0  0  0  0  0  0  0  0  0  0  0  0
  -21.3050   -4.5680  -29.9070 H   0  0  0  0  0  0  0  0  0  0  0  0
  -20.0880   -4.9390  -27.4960 H   0  0  0  0  0  0  0  0  0  0  0  0
  -21.7410   -4.3370  -27.7050 H   0  0  0  0  0  0  0  0  0  0  0  0
  -18.0600   -2.0060  -29.4590 H   0  0  0  0  0  0  0  0  0  0  0  0
  -21.3090   -1.5490  -32.1200 H   0  0  0  0  0  0  0  0  0  0  0  0
  -19.6720    1.8740  -33.3390 H   0  0  0  0  0  0  0  0  0  0  0  0
  -19.0270    1.4360  -35.0020 H   0  0  0  0  0  0  0  0  0  0  0  0
  -20.9120    2.7900  -35.3040 H   0  0  0  0  0  0  0  0  0  0  0  0
  -21.9260    1.8850  -34.1710 H   0  0  0  0  0  0  0  0  0  0  0  0
  -22.4120   -0.9140  -36.0690 H   0  0  0  0  0  0  0  0  0  0  0  0
  -22.3240   -0.1160  -34.4190 H   0  0  0  0  0  0  0  0  0  0  0  0
  -20.6490   -2.0050  -34.8100 H   0  0  0  0  0  0  0  0  0  0  0  0
  -19.8130   -0.8350  -35.9370 H   0  0  0  0  0  0  0  0  0  0  0  0
  2  1  1  0  0  0  0
  2  7  1  0  0  0  0
  3  2  2  0  0  0  0
  4  3  1  0  0  0  0
  4  5  2  0  0  0  0
  5  6  1  0  0  0  0
  6  7  2  0  0  0  0
  6 31  1  0  0  0  0
  7 32  1  0  0  0  0
  8  5  1  0  0  0  0
  8  9  1  0  0  0  0
  8 33  1  0  0  0  0
  9 10  2  0  0  0  0
 11  9  1  0  0  0  0
 12 35  1  0  0  0  0
 12 11  1  0  0  0  0
 12 36  1  0  0  0  0
 13 12  1  0  0  0  0
 14 15  1  0  0  0  0
 14 13  1  0  0  0  0
 15 16  1  0  0  0  0
 16 42  1  0  0  0  0
 16 41  1  0  0  0  0
 16 11  1  0  0  0  0
 17 18  1  0  0  0  0
 17 14  1  0  0  0  0
 18 43  1  0  0  0  0
 19 18  2  0  0  0  0
 20 19  1  0  0  0  0
 21 20  2  0  0  0  0
 21 22  1  0  0  0  0
 22 17  2  0  0  0  0
 23 21  1  0  0  0  0
 24 23  1  0  0  0  0
 24 45  1  0  0  0  0
 25 24  1  0  0  0  0
 25 48  1  0  0  0  0
 26 27  1  0  0  0  0
 26 25  1  0  0  0  0
 27 28  1  0  0  0  0
 27 50  1  0  0  0  0
 28 51  1  0  0  0  0
 28 23  1  0  0  0  0
 29  3  1  0  0  0  0
 30  4  1  0  0  0  0
 34  8  1  0  0  0  0
 37 13  1  0  0  0  0
 38 13  1  0  0  0  0
 39 15  1  0  0  0  0
 40 15  1  0  0  0  0
 44 22  1  0  0  0  0
 46 24  1  0  0  0  0
 47 25  1  0  0  0  0
 49 27  1  0  0  0  0
 52 28  1  0  0  0  0
M  END
>  <Pose>
1

>  <Score>
-5.61

$$$$
