
 OpenBabel03222201593D

 37 40  0  0  0  0  0  0  0  0999 V2000
  -20.1520   -3.2480  -31.2870 F   0  0  0  0  0  0  0  0  0  0  0  0
  -19.6100   -2.0660  -30.9030 C   0  0  0  0  0  0  0  0  0  0  0  0
  -19.3600   -1.7750  -29.5900 N   0  0  0  0  0  0  0  0  0  0  0  0
  -18.8370   -0.5380  -29.5950 C   0  0  0  0  0  0  0  0  0  0  0  0
  -18.7690   -0.0880  -30.8580 N   0  0  0  0  0  0  0  0  0  0  0  0
  -19.2440   -1.0180  -31.7100 C   0  0  0  0  0  0  0  0  0  0  0  0
  -19.3340   -0.9010  -33.1900 C   0  0  0  0  0  0  0  0  0  0  0  0
  -18.2450   -0.3930  -33.6670 O   0  0  0  0  0  0  0  0  0  0  0  0
  -20.4090   -1.2740  -33.9560 N   0  0  0  0  0  0  0  0  0  0  0  0
  -21.4780   -1.6450  -34.7180 C   0  0  0  0  0  0  0  0  0  0  0  0
  -22.6170   -0.6580  -34.7680 C   0  0  0  0  0  0  0  0  0  0  0  0
  -23.3850   -0.4070  -35.8320 N   0  0  0  0  0  0  0  0  0  0  0  0
  -24.2700    0.5110  -35.4820 N   0  0  0  0  0  0  0  0  0  0  0  0
  -24.0900    0.8540  -34.2250 N   0  0  0  0  0  0  0  0  0  0  0  0
  -23.0620    0.1240  -33.7900 N   0  0  0  0  0  0  0  0  0  0  0  0
  -23.2150   -1.0720  -37.0840 C   0  0  0  0  0  0  0  0  0  0  0  0
  -23.9830   -2.2050  -37.3340 C   0  0  0  0  0  0  0  0  0  0  0  0
  -23.8530   -2.9090  -38.5250 C   0  0  0  0  0  0  0  0  0  0  0  0
  -22.9590   -2.5080  -39.4970 C   0  0  0  0  0  0  0  0  0  0  0  0
  -22.2010   -1.3850  -39.2430 C   0  0  0  0  0  0  0  0  0  0  0  0
  -22.3280   -0.6820  -38.0580 C   0  0  0  0  0  0  0  0  0  0  0  0
  -18.4910    0.0030  -28.3810 C   0  0  0  0  0  0  0  0  0  0  0  0
  -18.6660   -0.6830  -27.1770 C   0  0  0  0  0  0  0  0  0  0  0  0
  -19.2030   -1.9420  -27.2120 C   0  0  0  0  0  0  0  0  0  0  0  0
  -19.5440   -2.4670  -28.4530 C   0  0  0  0  0  0  0  0  0  0  0  0
  -19.4470   -2.8680  -25.7310 Cl  0  0  0  0  0  0  0  0  0  0  0  0
  -19.6630   -2.2520  -34.5530 H   0  0  0  0  0  0  0  0  0  0  0  0
  -21.9820   -2.6050  -34.3330 H   0  0  0  0  0  0  0  0  0  0  0  0
  -21.2740   -1.9400  -35.7990 H   0  0  0  0  0  0  0  0  0  0  0  0
  -24.6870   -2.5290  -36.5840 H   0  0  0  0  0  0  0  0  0  0  0  0
  -24.4420   -3.7910  -38.7310 H   0  0  0  0  0  0  0  0  0  0  0  0
  -22.8510   -3.0660  -40.4390 H   0  0  0  0  0  0  0  0  0  0  0  0
  -21.4860   -1.0610  -40.0150 H   0  0  0  0  0  0  0  0  0  0  0  0
  -21.7130    0.1950  -37.8980 H   0  0  0  0  0  0  0  0  0  0  0  0
  -18.0650    0.9940  -28.3030 H   0  0  0  0  0  0  0  0  0  0  0  0
  -18.3890   -0.2400  -26.2120 H   0  0  0  0  0  0  0  0  0  0  0  0
  -19.9630   -3.4600  -28.4600 H   0  0  0  0  0  0  0  0  0  0  0  0
  1  2  1  0  0  0  0
  2  3  1  0  0  0  0
  3 25  1  0  0  0  0
  4  3  1  0  0  0  0
  4 22  1  0  0  0  0
  5  4  2  0  0  0  0
  6  2  2  0  0  0  0
  6  5  1  0  0  0  0
  7  6  1  0  0  0  0
  8  7  2  0  0  0  0
  9  7  1  0  0  0  0
 10 28  1  0  0  0  0
 10  9  1  0  0  0  0
 11 10  1  0  0  0  0
 11 15  2  0  0  0  0
 12 13  1  0  0  0  0
 12 11  1  0  0  0  0
 13 14  2  0  0  0  0
 14 15  1  0  0  0  0
 16 12  1  0  0  0  0
 17 16  1  0  0  0  0
 17 30  1  0  0  0  0
 18 17  2  0  0  0  0
 19 20  2  0  0  0  0
 19 18  1  0  0  0  0
 20 21  1  0  0  0  0
 21 34  1  0  0  0  0
 21 16  2  0  0  0  0
 22 35  1  0  0  0  0
 22 23  2  0  0  0  0
 23 36  1  0  0  0  0
 24 23  1  0  0  0  0
 24 26  1  0  0  0  0
 25 24  2  0  0  0  0
 27  9  1  0  0  0  0
 29 10  1  0  0  0  0
 31 18  1  0  0  0  0
 32 19  1  0  0  0  0
 33 20  1  0  0  0  0
 37 25  1  0  0  0  0
M  END
>  <Pose>
1

>  <Score>
-6.79

$$$$
