
 OpenBabel03222201593D

 42 45  0  0  0  0  0  0  0  0999 V2000
  -19.0420   -2.5120  -25.8550 Cl  0  0  0  0  0  0  0  0  0  0  0  0
  -19.5030   -2.7910  -27.5050 C   0  0  0  0  0  0  0  0  0  0  0  0
  -19.1120   -1.9880  -28.5690 C   0  0  0  0  0  0  0  0  0  0  0  0
  -19.4950   -2.2610  -29.8360 C   0  0  0  0  0  0  0  0  0  0  0  0
  -20.2910   -3.3750  -30.0140 C   0  0  0  0  0  0  0  0  0  0  0  0
  -20.7030   -4.1940  -29.0180 C   0  0  0  0  0  0  0  0  0  0  0  0
  -20.3260   -3.9380  -27.7450 C   0  0  0  0  0  0  0  0  0  0  0  0
  -19.1420   -1.4730  -30.9960 N   0  0  0  0  0  0  0  0  0  0  0  0
  -17.9070   -1.4570  -31.4500 N   0  0  0  0  0  0  0  0  0  0  0  0
  -17.9320   -0.7370  -32.3920 N   0  0  0  0  0  0  0  0  0  0  0  0
  -18.7770   -0.0720  -32.9570 C   0  0  0  0  0  0  0  0  0  0  0  0
  -19.8220   -0.6790  -31.7780 C   0  0  0  0  0  0  0  0  0  0  0  0
  -19.7860    0.7220  -33.6350 C   0  0  0  0  0  0  0  0  0  0  0  0
  -19.0630    1.2790  -34.6850 O   0  0  0  0  0  0  0  0  0  0  0  0
  -21.0790    1.1250  -33.6660 N   0  0  0  0  0  0  0  0  0  0  0  0
  -22.2740    0.5490  -33.1240 C   0  0  0  0  0  0  0  0  0  0  0  0
  -23.4860    1.0200  -33.9540 C   0  0  0  0  0  0  0  0  0  0  0  0
  -22.9470    1.1590  -35.3140 N   0  0  0  0  0  0  0  0  0  0  0  0
  -22.0590    2.2390  -35.5930 C   0  0  0  0  0  0  0  0  0  0  0  0
  -21.3040    2.4530  -34.3210 C   0  0  0  0  0  0  0  0  0  0  0  0
  -23.2180    0.1790  -36.2620 C   0  0  0  0  0  0  0  0  0  0  0  0
  -22.6970   -1.1130  -36.1300 N   0  0  0  0  0  0  0  0  0  0  0  0
  -22.9050   -2.0970  -36.9320 C   0  0  0  0  0  0  0  0  0  0  0  0
  -23.7230   -1.9710  -38.0650 C   0  0  0  0  0  0  0  0  0  0  0  0
  -24.2400   -0.6890  -38.2080 C   0  0  0  0  0  0  0  0  0  0  0  0
  -23.9910    0.2520  -37.3770 N   0  0  0  0  0  0  0  0  0  0  0  0
  -18.5280   -1.0970  -28.3550 H   0  0  0  0  0  0  0  0  0  0  0  0
  -20.5960   -3.5560  -31.0870 H   0  0  0  0  0  0  0  0  0  0  0  0
  -21.3260   -5.0570  -29.2390 H   0  0  0  0  0  0  0  0  0  0  0  0
  -20.5850   -4.5090  -26.9090 H   0  0  0  0  0  0  0  0  0  0  0  0
  -20.7940   -0.4120  -31.7540 H   0  0  0  0  0  0  0  0  0  0  0  0
  -22.4940    0.9870  -32.1190 H   0  0  0  0  0  0  0  0  0  0  0  0
  -22.3210   -0.5300  -33.1530 H   0  0  0  0  0  0  0  0  0  0  0  0
  -24.3080    0.3070  -33.9510 H   0  0  0  0  0  0  0  0  0  0  0  0
  -23.8120    2.0100  -33.5600 H   0  0  0  0  0  0  0  0  0  0  0  0
  -22.6070    3.1680  -35.8270 H   0  0  0  0  0  0  0  0  0  0  0  0
  -21.4020    1.9830  -36.4900 H   0  0  0  0  0  0  0  0  0  0  0  0
  -21.7500    3.1390  -33.5740 H   0  0  0  0  0  0  0  0  0  0  0  0
  -20.3110    2.8390  -34.5960 H   0  0  0  0  0  0  0  0  0  0  0  0
  -22.4430   -3.0940  -36.8310 H   0  0  0  0  0  0  0  0  0  0  0  0
  -23.9270   -2.7550  -38.7650 H   0  0  0  0  0  0  0  0  0  0  0  0
  -24.8800   -0.4990  -39.1050 H   0  0  0  0  0  0  0  0  0  0  0  0
  2  1  1  0  0  0  0
  3 27  1  0  0  0  0
  3  2  2  0  0  0  0
  4  3  1  0  0  0  0
  5  4  2  0  0  0  0
  5  6  1  0  0  0  0
  6  7  2  0  0  0  0
  7  2  1  0  0  0  0
  7 30  1  0  0  0  0
  8  4  1  0  0  0  0
  9  8  1  0  0  0  0
 10  9  2  0  0  0  0
 11 10  1  0  0  0  0
 11 12  2  0  0  0  0
 12 31  1  0  0  0  0
 12  8  1  0  0  0  0
 13 11  1  0  0  0  0
 14 13  2  0  0  0  0
 15 13  1  0  0  0  0
 15 16  1  0  0  0  0
 16 32  1  0  0  0  0
 17 34  1  0  0  0  0
 17 35  1  0  0  0  0
 17 16  1  0  0  0  0
 18 17  1  0  0  0  0
 19 18  1  0  0  0  0
 19 20  1  0  0  0  0
 20 15  1  0  0  0  0
 20 38  1  0  0  0  0
 21 22  2  0  0  0  0
 21 18  1  0  0  0  0
 23 40  1  0  0  0  0
 23 22  1  0  0  0  0
 24 23  2  0  0  0  0
 25 24  1  0  0  0  0
 25 26  2  0  0  0  0
 26 21  1  0  0  0  0
 28  5  1  0  0  0  0
 29  6  1  0  0  0  0
 33 16  1  0  0  0  0
 36 19  1  0  0  0  0
 37 19  1  0  0  0  0
 39 20  1  0  0  0  0
 41 24  1  0  0  0  0
 42 25  1  0  0  0  0
M  END
>  <Pose>
1

>  <Score>
-6.77

$$$$
