
 OpenBabel03222201593D

 33 36  0  0  1  0  0  0  0  0999 V2000
  -19.2360   -2.0770  -26.2460 Cl  0  0  0  0  0  0  0  0  0  0  0  0
  -19.6780   -2.9700  -27.6840 C   0  0  0  0  0  0  0  0  0  0  0  0
  -19.6060   -2.4010  -28.9380 C   0  0  0  0  0  0  0  0  0  0  0  0
  -19.9530   -3.0980  -30.0850 C   0  0  0  0  0  0  0  0  0  0  0  0
  -20.3800   -4.4010  -29.9190 C   0  0  0  0  0  0  0  0  0  0  0  0
  -20.4530   -4.9740  -28.6560 C   0  0  0  0  0  0  0  0  0  0  0  0
  -20.1040   -4.2720  -27.5200 C   0  0  0  0  0  0  0  0  0  0  0  0
  -19.8810   -2.5130  -31.3790 N   0  0  0  0  0  0  0  0  0  0  0  0
  -18.8880   -1.6050  -31.8930 C   0  0  0  0  0  0  0  0  0  0  0  0
  -17.9590   -1.1080  -31.2140 O   0  0  0  0  0  0  0  0  0  0  0  0
  -19.1330   -1.3570  -33.3110 C   0  0  2  0  0  0  0  0  0  0  0  0
  -19.6690   -0.0030  -33.6400 C   0  0  1  0  0  0  0  0  0  0  0  0
  -20.3570   -0.2930  -34.8450 O   0  0  0  0  0  0  0  0  0  0  0  0
  -21.2700   -1.2260  -34.2880 C   0  0  1  0  0  0  0  0  0  0  0  0
  -20.3240   -2.2460  -33.7060 C   0  0  2  0  0  0  0  0  0  0  0  0
  -20.8240   -2.7390  -32.4210 C   0  0  0  0  0  0  0  0  0  0  0  0
  -21.9350   -3.2940  -32.2380 O   0  0  0  0  0  0  0  0  0  0  0  0
  -21.8220   -0.4310  -33.1710 C   0  0  0  0  0  0  0  0  0  0  0  0
  -20.8100    0.3770  -32.7790 C   0  0  0  0  0  0  0  0  0  0  0  0
  -18.6430    1.0580  -33.8270 C   0  0  0  0  0  0  0  0  0  0  0  0
  -17.6980    0.6290  -34.7500 O   0  0  0  0  0  0  0  0  0  0  0  0
  -19.2690   -1.3740  -29.0770 H   0  0  0  0  0  0  0  0  0  0  0  0
  -20.6580   -4.9650  -30.8080 H   0  0  0  0  0  0  0  0  0  0  0  0
  -20.7890   -6.0010  -28.5420 H   0  0  0  0  0  0  0  0  0  0  0  0
  -20.1690   -4.7380  -26.5420 H   0  0  0  0  0  0  0  0  0  0  0  0
  -18.2670   -1.5580  -33.9640 H   0  0  0  0  0  0  0  0  0  0  0  0
  -21.9800   -1.6060  -35.0010 H   0  0  0  0  0  0  0  0  0  0  0  0
  -20.0320   -3.0320  -34.4050 H   0  0  0  0  0  0  0  0  0  0  0  0
  -22.8000   -0.4600  -32.7420 H   0  0  0  0  0  0  0  0  0  0  0  0
  -20.8560    1.1280  -32.0030 H   0  0  0  0  0  0  0  0  0  0  0  0
  -18.1230    1.1860  -32.8430 H   0  0  0  0  0  0  0  0  0  0  0  0
  -19.0630    2.0410  -34.0880 H   0  0  0  0  0  0  0  0  0  0  0  0
  -17.8350   -0.3230  -34.9630 H   0  0  0  0  0  0  0  0  0  0  0  0
  2  7  1  0  0  0  0
  2  1  1  0  0  0  0
  3  2  2  0  0  0  0
  4  5  2  0  0  0  0
  4  3  1  0  0  0  0
  5  6  1  0  0  0  0
  6 24  1  0  0  0  0
  6  7  2  0  0  0  0
  7 25  1  0  0  0  0
  8  4  1  0  0  0  0
  9  8  1  0  0  0  0
  9 10  2  0  0  0  0
 11 26  1  6  0  0  0
 11  9  1  0  0  0  0
 12 20  1  6  0  0  0
 12 11  1  0  0  0  0
 12 19  1  0  0  0  0
 13 14  1  0  0  0  0
 13 12  1  0  0  0  0
 14 27  1  6  0  0  0
 14 15  1  0  0  0  0
 14 18  1  0  0  0  0
 15 28  1  6  0  0  0
 15 11  1  0  0  0  0
 15 16  1  0  0  0  0
 16 17  2  0  0  0  0
 16  8  1  0  0  0  0
 18 19  2  0  0  0  0
 18 29  1  0  0  0  0
 19 30  1  0  0  0  0
 20 31  1  0  0  0  0
 21 20  1  0  0  0  0
 22  3  1  0  0  0  0
 23  5  1  0  0  0  0
 32 20  1  0  0  0  0
 33 21  1  0  0  0  0
M  END
>  <Pose>
1

>  <Score>
-4.95

$$$$
