
 OpenBabel03222201593D

 42 45  0  0  1  0  0  0  0  0999 V2000
  -18.0870   -1.4960  -25.3650 Cl  0  0  0  0  0  0  0  0  0  0  0  0
  -18.9040   -2.3060  -26.7020 C   0  0  0  0  0  0  0  0  0  0  0  0
  -18.8870   -1.7980  -27.9840 C   0  0  0  0  0  0  0  0  0  0  0  0
  -19.5080   -2.4050  -29.0240 N   0  0  0  0  0  0  0  0  0  0  0  0
  -20.1890   -3.5550  -28.8650 C   0  0  0  0  0  0  0  0  0  0  0  0
  -20.8190   -4.1780  -29.8950 N   0  0  0  0  0  0  0  0  0  0  0  0
  -20.8070   -3.6900  -31.1490 C   0  0  0  0  0  0  0  0  0  0  0  0
  -20.1070   -2.5020  -31.3300 C   0  0  1  0  0  0  0  0  0  0  0  0
  -20.0930   -1.9600  -32.7140 C   0  0  0  0  0  0  0  0  0  0  0  0
  -21.4790   -2.0670  -33.1840 N   0  0  0  0  0  0  0  0  0  0  0  0
  -22.0500   -3.3810  -33.2740 C   0  0  0  0  0  0  0  0  0  0  0  0
  -21.4890   -4.3620  -32.2840 C   0  0  0  0  0  0  0  0  0  0  0  0
  -22.2150   -0.9100  -33.5230 C   0  0  0  0  0  0  0  0  0  0  0  0
  -21.7570    0.2080  -33.1090 O   0  0  0  0  0  0  0  0  0  0  0  0
  -23.4610   -0.9540  -34.3200 C   0  0  0  0  0  0  0  0  0  0  0  0
  -23.2210   -1.4490  -35.7300 C   0  0  0  0  0  0  0  0  0  0  0  0
  -21.9350   -0.7760  -36.1910 C   0  0  0  0  0  0  0  0  0  0  0  0
  -21.8830    0.5350  -35.7190 O   0  0  0  0  0  0  0  0  0  0  0  0
  -23.1650    1.0920  -35.6130 C   0  0  0  0  0  0  0  0  0  0  0  0
  -23.9650    0.4880  -34.4750 C   0  0  0  0  0  0  0  0  0  0  0  0
  -19.4780   -1.8920  -30.2670 C   0  0  0  0  0  0  0  0  0  0  0  0
  -18.8440   -0.8050  -30.4600 O   0  0  0  0  0  0  0  0  0  0  0  0
  -20.2200   -4.0810  -27.5840 C   0  0  0  0  0  0  0  0  0  0  0  0
  -19.5950   -3.4830  -26.5090 C   0  0  0  0  0  0  0  0  0  0  0  0
  -18.3470   -0.8700  -28.1600 H   0  0  0  0  0  0  0  0  0  0  0  0
  -19.3990   -2.5540  -33.3180 H   0  0  0  0  0  0  0  0  0  0  0  0
  -19.7770   -0.9080  -32.7540 H   0  0  0  0  0  0  0  0  0  0  0  0
  -23.1500   -3.3540  -33.0950 H   0  0  0  0  0  0  0  0  0  0  0  0
  -21.8620   -3.7310  -34.3310 H   0  0  0  0  0  0  0  0  0  0  0  0
  -20.7200   -5.0230  -32.7820 H   0  0  0  0  0  0  0  0  0  0  0  0
  -22.2660   -5.0290  -31.8550 H   0  0  0  0  0  0  0  0  0  0  0  0
  -24.2210   -1.5710  -33.7910 H   0  0  0  0  0  0  0  0  0  0  0  0
  -24.0290   -0.9940  -36.3700 H   0  0  0  0  0  0  0  0  0  0  0  0
  -23.2150   -2.5280  -35.8470 H   0  0  0  0  0  0  0  0  0  0  0  0
  -21.0960   -1.3170  -35.7240 H   0  0  0  0  0  0  0  0  0  0  0  0
  -21.8020   -0.8370  -37.2860 H   0  0  0  0  0  0  0  0  0  0  0  0
  -23.0240    2.1660  -35.3720 H   0  0  0  0  0  0  0  0  0  0  0  0
  -23.7100    1.0500  -36.5740 H   0  0  0  0  0  0  0  0  0  0  0  0
  -23.8740    1.0470  -33.5390 H   0  0  0  0  0  0  0  0  0  0  0  0
  -25.0110    0.3950  -34.8490 H   0  0  0  0  0  0  0  0  0  0  0  0
  -20.7710   -5.0140  -27.4480 H   0  0  0  0  0  0  0  0  0  0  0  0
  -19.6230   -3.9020  -25.5090 H   0  0  0  0  0  0  0  0  0  0  0  0
  2 24  2  0  0  0  0
  2  1  1  0  0  0  0
  3  2  1  0  0  0  0
  4  5  1  0  0  0  0
  4  3  1  0  0  0  0
  5 23  2  0  0  0  0
  6  5  1  0  0  0  0
  7  6  2  0  0  0  0
  8  7  1  1  0  0  0
  8 21  1  0  0  0  0
  9  8  1  0  0  0  0
 10  9  1  0  0  0  0
 11 10  1  0  0  0  0
 11 28  1  0  0  0  0
 11 12  1  0  0  0  0
 12 31  1  0  0  0  0
 12  7  1  0  0  0  0
 13 10  1  0  0  0  0
 13 14  2  0  0  0  0
 15 32  1  0  0  0  0
 15 13  1  0  0  0  0
 16 15  1  0  0  0  0
 17 16  1  0  0  0  0
 17 35  1  0  0  0  0
 17 18  1  0  0  0  0
 18 19  1  0  0  0  0
 19 37  1  0  0  0  0
 19 20  1  0  0  0  0
 20 15  1  0  0  0  0
 20 39  1  0  0  0  0
 21  4  1  0  0  0  0
 22 21  2  0  0  0  0
 23 41  1  0  0  0  0
 23 24  1  0  0  0  0
 24 42  1  0  0  0  0
 25  3  1  0  0  0  0
 26  9  1  0  0  0  0
 27  9  1  0  0  0  0
 29 11  1  0  0  0  0
 30 12  1  0  0  0  0
 33 16  1  0  0  0  0
 34 16  1  0  0  0  0
 36 17  1  0  0  0  0
 38 19  1  0  0  0  0
 40 20  1  0  0  0  0
M  END
>  <Pose>
1

>  <Score>
-6.10

$$$$
