
 OpenBabel03222201593D

 41 44  0  0  0  0  0  0  0  0999 V2000
  -21.9310   -2.9400  -33.8200 F   0  0  0  0  0  0  0  0  0  0  0  0
  -21.9090   -1.8030  -34.5570 C   0  0  0  0  0  0  0  0  0  0  0  0
  -20.8840   -0.8960  -34.3390 C   0  0  0  0  0  0  0  0  0  0  0  0
  -20.7980    0.2810  -35.0500 C   0  0  0  0  0  0  0  0  0  0  0  0
  -21.7760    0.5320  -35.9970 C   0  0  0  0  0  0  0  0  0  0  0  0
  -22.7930   -0.3670  -36.2150 C   0  0  0  0  0  0  0  0  0  0  0  0
  -22.8740   -1.5400  -35.5010 C   0  0  0  0  0  0  0  0  0  0  0  0
  -21.6710    2.0300  -36.9050 Cl  0  0  0  0  0  0  0  0  0  0  0  0
  -19.6450    1.0580  -34.6440 C   0  0  0  0  0  0  0  0  0  0  0  0
  -19.2630    2.1700  -35.0750 O   0  0  0  0  0  0  0  0  0  0  0  0
  -18.9950    0.2720  -33.6030 C   0  0  0  0  0  0  0  0  0  0  0  0
  -17.9390    0.6070  -32.9810 O   0  0  0  0  0  0  0  0  0  0  0  0
  -19.7610   -0.9100  -33.4320 N   0  0  0  0  0  0  0  0  0  0  0  0
  -19.4990   -1.9900  -32.5030 C   0  0  0  0  0  0  0  0  0  0  0  0
  -20.4230   -2.0270  -31.3900 N   0  0  0  0  0  0  0  0  0  0  0  0
  -20.3330   -3.2640  -30.6920 C   0  0  0  0  0  0  0  0  0  0  0  0
  -20.3260   -3.1660  -29.2070 C   0  0  0  0  0  0  0  0  0  0  0  0
  -19.5720   -2.0470  -28.7040 N   0  0  0  0  0  0  0  0  0  0  0  0
  -19.2490   -0.9700  -29.6110 C   0  0  0  0  0  0  0  0  0  0  0  0
  -20.4060   -0.8560  -30.5810 C   0  0  0  0  0  0  0  0  0  0  0  0
  -19.1390   -1.9670  -27.3610 C   0  0  0  0  0  0  0  0  0  0  0  0
  -18.1960   -1.0890  -26.9810 N   0  0  0  0  0  0  0  0  0  0  0  0
  -17.7670   -0.9940  -25.7070 C   0  0  0  0  0  0  0  0  0  0  0  0
  -18.2940   -1.8140  -24.7290 C   0  0  0  0  0  0  0  0  0  0  0  0
  -19.2380   -2.6930  -25.1020 N   0  0  0  0  0  0  0  0  0  0  0  0
  -19.6680   -2.7900  -26.3750 C   0  0  0  0  0  0  0  0  0  0  0  0
  -23.5550   -0.1400  -36.9730 H   0  0  0  0  0  0  0  0  0  0  0  0
  -23.6970   -2.2390  -35.6970 H   0  0  0  0  0  0  0  0  0  0  0  0
  -19.4890   -2.9190  -33.0810 H   0  0  0  0  0  0  0  0  0  0  0  0
  -18.4790   -1.8530  -32.0870 H   0  0  0  0  0  0  0  0  0  0  0  0
  -21.2110   -3.8930  -30.9940 H   0  0  0  0  0  0  0  0  0  0  0  0
  -19.4390   -3.8430  -31.0560 H   0  0  0  0  0  0  0  0  0  0  0  0
  -21.3500   -3.2200  -28.7610 H   0  0  0  0  0  0  0  0  0  0  0  0
  -19.8050   -4.0900  -28.8190 H   0  0  0  0  0  0  0  0  0  0  0  0
  -18.3640   -1.3260  -30.2030 H   0  0  0  0  0  0  0  0  0  0  0  0
  -19.0440   -0.0200  -29.0890 H   0  0  0  0  0  0  0  0  0  0  0  0
  -20.4100    0.0450  -31.1880 H   0  0  0  0  0  0  0  0  0  0  0  0
  -21.3730   -0.8330  -29.9990 H   0  0  0  0  0  0  0  0  0  0  0  0
  -17.0040   -0.2810  -25.4120 H   0  0  0  0  0  0  0  0  0  0  0  0
  -17.9300   -1.7150  -23.7110 H   0  0  0  0  0  0  0  0  0  0  0  0
  -20.4280   -3.4970  -26.6840 H   0  0  0  0  0  0  0  0  0  0  0  0
  2  3  1  0  0  0  0
  2  1  1  0  0  0  0
  3 13  1  0  0  0  0
  4  9  1  0  0  0  0
  4  3  2  0  0  0  0
  5  4  1  0  0  0  0
  6  5  2  0  0  0  0
  6  7  1  0  0  0  0
  7  2  2  0  0  0  0
  8  5  1  0  0  0  0
  9 11  1  0  0  0  0
 10  9  2  0  0  0  0
 11 13  1  0  0  0  0
 11 12  2  0  0  0  0
 13 14  1  0  0  0  0
 14 30  1  0  0  0  0
 14 15  1  0  0  0  0
 15 16  1  0  0  0  0
 15 20  1  0  0  0  0
 16 17  1  0  0  0  0
 17 34  1  0  0  0  0
 17 33  1  0  0  0  0
 17 18  1  0  0  0  0
 18 21  1  0  0  0  0
 19 36  1  0  0  0  0
 19 18  1  0  0  0  0
 20 38  1  0  0  0  0
 20 19  1  0  0  0  0
 21 22  2  0  0  0  0
 21 26  1  0  0  0  0
 22 23  1  0  0  0  0
 23 39  1  0  0  0  0
 23 24  2  0  0  0  0
 24 40  1  0  0  0  0
 25 24  1  0  0  0  0
 26 25  2  0  0  0  0
 27  6  1  0  0  0  0
 28  7  1  0  0  0  0
 29 14  1  0  0  0  0
 31 16  1  0  0  0  0
 32 16  1  0  0  0  0
 35 19  1  0  0  0  0
 37 20  1  0  0  0  0
 41 26  1  0  0  0  0
M  END
>  <Pose>
1

>  <Score>
-6.68

$$$$
