
 OpenBabel03222201593D

 41 44  0  0  0  0  0  0  0  0999 V2000
  -18.2600   -0.8600  -32.8710 Cl  0  0  0  0  0  0  0  0  0  0  0  0
  -19.8030   -0.9410  -33.6790 C   0  0  0  0  0  0  0  0  0  0  0  0
  -20.0140   -0.3280  -34.9040 C   0  0  0  0  0  0  0  0  0  0  0  0
  -21.2310   -0.3820  -35.5570 C   0  0  0  0  0  0  0  0  0  0  0  0
  -22.2550   -1.0810  -34.9460 C   0  0  0  0  0  0  0  0  0  0  0  0
  -22.0270   -1.6870  -33.7250 C   0  0  0  0  0  0  0  0  0  0  0  0
  -20.8160   -1.6430  -33.0560 C   0  0  0  0  0  0  0  0  0  0  0  0
  -20.6310   -2.3230  -31.7380 C   0  0  0  0  0  0  0  0  0  0  0  0
  -20.4060   -1.3090  -30.6580 C   0  0  0  0  0  0  0  0  0  0  0  0
  -20.7280   -0.0980  -30.9160 O   0  0  0  0  0  0  0  0  0  0  0  0
  -19.8580   -1.6850  -29.4030 N   0  0  0  0  0  0  0  0  0  0  0  0
  -19.5300   -3.0470  -29.1680 C   0  0  0  0  0  0  0  0  0  0  0  0
  -20.1200   -3.4500  -27.8110 C   0  0  0  0  0  0  0  0  0  0  0  0
  -19.3600   -2.5660  -26.8440 C   0  0  0  0  0  0  0  0  0  0  0  0
  -19.1370   -1.2440  -27.1690 C   0  0  0  0  0  0  0  0  0  0  0  0
  -18.4390   -0.4700  -26.2890 N   0  0  0  0  0  0  0  0  0  0  0  0
  -17.9640   -0.9410  -25.1260 C   0  0  0  0  0  0  0  0  0  0  0  0
  -18.1910   -2.2320  -24.8260 N   0  0  0  0  0  0  0  0  0  0  0  0
  -18.8830   -3.0590  -25.6640 C   0  0  0  0  0  0  0  0  0  0  0  0
  -19.1170   -4.3880  -25.3580 O   0  0  0  0  0  0  0  0  0  0  0  0
  -19.6470   -0.6690  -28.4280 C   0  0  0  0  0  0  0  0  0  0  0  0
  -23.4690   -1.1360  -35.5990 O   0  0  0  0  0  0  0  0  0  0  0  0
  -23.6610   -0.8810  -36.9750 C   0  0  0  0  0  0  0  0  0  0  0  0
  -22.5390   -0.1540  -37.6280 C   0  0  0  0  0  0  0  0  0  0  0  0
  -21.4920    0.2070  -36.7690 O   0  0  0  0  0  0  0  0  0  0  0  0
  -19.2320    0.2210  -35.3980 H   0  0  0  0  0  0  0  0  0  0  0  0
  -22.8400   -2.2340  -33.2510 H   0  0  0  0  0  0  0  0  0  0  0  0
  -19.7400   -2.9790  -31.8470 H   0  0  0  0  0  0  0  0  0  0  0  0
  -21.4700   -2.9690  -31.4770 H   0  0  0  0  0  0  0  0  0  0  0  0
  -18.4150   -3.2090  -29.0940 H   0  0  0  0  0  0  0  0  0  0  0  0
  -19.8650   -3.7410  -29.9620 H   0  0  0  0  0  0  0  0  0  0  0  0
  -19.9690   -4.5070  -27.5900 H   0  0  0  0  0  0  0  0  0  0  0  0
  -21.1930   -3.1810  -27.8390 H   0  0  0  0  0  0  0  0  0  0  0  0
  -17.4090   -0.3080  -24.4340 H   0  0  0  0  0  0  0  0  0  0  0  0
  -20.0770   -4.6820  -25.2190 H   0  0  0  0  0  0  0  0  0  0  0  0
  -20.5870   -0.0750  -28.2500 H   0  0  0  0  0  0  0  0  0  0  0  0
  -18.8950    0.0940  -28.7500 H   0  0  0  0  0  0  0  0  0  0  0  0
  -23.7310   -1.8950  -37.4680 H   0  0  0  0  0  0  0  0  0  0  0  0
  -24.6540   -0.4220  -37.1450 H   0  0  0  0  0  0  0  0  0  0  0  0
  -22.0780   -0.7320  -38.4690 H   0  0  0  0  0  0  0  0  0  0  0  0
  -22.9650    0.7680  -38.1140 H   0  0  0  0  0  0  0  0  0  0  0  0
  2  7  1  0  0  0  0
  2  1  1  0  0  0  0
  3  2  2  0  0  0  0
  4  5  2  0  0  0  0
  4  3  1  0  0  0  0
  5  6  1  0  0  0  0
  6 27  1  0  0  0  0
  6  7  2  0  0  0  0
  7  8  1  0  0  0  0
  8 29  1  0  0  0  0
  8  9  1  0  0  0  0
  9 11  1  0  0  0  0
 10  9  2  0  0  0  0
 11 12  1  0  0  0  0
 11 21  1  0  0  0  0
 12 30  1  0  0  0  0
 12 13  1  0  0  0  0
 13 32  1  0  0  0  0
 13 14  1  0  0  0  0
 14 19  1  0  0  0  0
 15 14  2  0  0  0  0
 15 16  1  0  0  0  0
 16 17  2  0  0  0  0
 17 18  1  0  0  0  0
 17 34  1  0  0  0  0
 19 20  1  0  0  0  0
 19 18  2  0  0  0  0
 20 35  1  0  0  0  0
 21 36  1  0  0  0  0
 21 15  1  0  0  0  0
 22  5  1  0  0  0  0
 23 22  1  0  0  0  0
 24 23  1  0  0  0  0
 24 25  1  0  0  0  0
 25  4  1  0  0  0  0
 26  3  1  0  0  0  0
 28  8  1  0  0  0  0
 31 12  1  0  0  0  0
 33 13  1  0  0  0  0
 37 21  1  0  0  0  0
 38 23  1  0  0  0  0
 39 23  1  0  0  0  0
 40 24  1  0  0  0  0
 41 24  1  0  0  0  0
M  END
>  <Pose>
1

>  <Score>
-7.04

$$$$
