
 OpenBabel03222201593D

 36 39  0  0  0  0  0  0  0  0999 V2000
  -20.2740    2.3320  -34.4900 Cl  0  0  0  0  0  0  0  0  0  0  0  0
  -20.6230    0.6930  -33.9860 C   0  0  0  0  0  0  0  0  0  0  0  0
  -20.2150    0.1840  -32.7700 C   0  0  0  0  0  0  0  0  0  0  0  0
  -20.4820   -1.1060  -32.3600 C   0  0  0  0  0  0  0  0  0  0  0  0
  -21.1960   -1.9150  -33.2220 C   0  0  0  0  0  0  0  0  0  0  0  0
  -21.6100   -1.4180  -34.4410 C   0  0  0  0  0  0  0  0  0  0  0  0
  -21.3420   -0.1280  -34.8510 C   0  0  0  0  0  0  0  0  0  0  0  0
  -21.4960   -3.3020  -32.8040 C   0  0  0  0  0  0  0  0  0  0  0  0
  -22.1200   -4.2320  -33.3930 N   0  0  0  0  0  0  0  0  0  0  0  0
  -22.1910   -5.4590  -32.6280 C   0  0  0  0  0  0  0  0  0  0  0  0
  -21.4640   -5.1590  -31.3580 C   0  0  0  0  0  0  0  0  0  0  0  0
  -21.0530   -3.7810  -31.5410 N   0  0  0  0  0  0  0  0  0  0  0  0
  -20.3220   -2.8800  -30.7100 C   0  0  0  0  0  0  0  0  0  0  0  0
  -19.7880   -3.0510  -29.4870 N   0  0  0  0  0  0  0  0  0  0  0  0
  -19.1870   -1.9470  -29.0750 N   0  0  0  0  0  0  0  0  0  0  0  0
  -19.3560   -1.0570  -30.0840 C   0  0  0  0  0  0  0  0  0  0  0  0
  -18.9140    0.1110  -30.0460 O   0  0  0  0  0  0  0  0  0  0  0  0
  -20.0480   -1.6060  -31.0960 N   0  0  0  0  0  0  0  0  0  0  0  0
  -18.4980   -1.7380  -27.8160 C   0  0  0  0  0  0  0  0  0  0  0  0
  -19.5010   -1.8750  -26.6630 C   0  0  0  0  0  0  0  0  0  0  0  0
  -18.8830   -2.6160  -25.5340 C   0  0  0  0  0  0  0  0  0  0  0  0
  -18.9370   -3.8630  -25.3900 O   0  0  0  0  0  0  0  0  0  0  0  0
  -18.1850   -1.8660  -24.5530 N   0  0  0  0  0  0  0  0  0  0  0  0
  -19.6590    0.8460  -32.1210 H   0  0  0  0  0  0  0  0  0  0  0  0
  -22.1660   -2.0760  -35.0920 H   0  0  0  0  0  0  0  0  0  0  0  0
  -21.6660    0.2650  -35.8090 H   0  0  0  0  0  0  0  0  0  0  0  0
  -21.7440   -6.3120  -33.1760 H   0  0  0  0  0  0  0  0  0  0  0  0
  -23.2800   -5.6470  -32.4470 H   0  0  0  0  0  0  0  0  0  0  0  0
  -20.6130   -5.8400  -31.1640 H   0  0  0  0  0  0  0  0  0  0  0  0
  -22.1800   -5.2290  -30.4890 H   0  0  0  0  0  0  0  0  0  0  0  0
  -17.7730   -2.5710  -27.6670 H   0  0  0  0  0  0  0  0  0  0  0  0
  -18.0110   -0.7650  -27.7650 H   0  0  0  0  0  0  0  0  0  0  0  0
  -20.4120   -2.4030  -27.0010 H   0  0  0  0  0  0  0  0  0  0  0  0
  -19.7910   -0.8690  -26.2700 H   0  0  0  0  0  0  0  0  0  0  0  0
  -18.6310   -1.4850  -23.6990 H   0  0  0  0  0  0  0  0  0  0  0  0
  -17.1700   -1.6920  -24.7060 H   0  0  0  0  0  0  0  0  0  0  0  0
  1  2  1  0  0  0  0
  2  3  1  0  0  0  0
  3  4  2  0  0  0  0
  3 24  1  0  0  0  0
  4 18  1  0  0  0  0
  5  8  2  0  0  0  0
  5  4  1  0  0  0  0
  6  5  1  0  0  0  0
  7  6  1  0  0  0  0
  7  2  2  0  0  0  0
  8 12  1  0  0  0  0
  9  8  1  0  0  0  0
  9 10  1  0  0  0  0
 10 28  1  0  0  0  0
 10 11  1  0  0  0  0
 11 29  1  0  0  0  0
 11 30  1  0  0  0  0
 12 11  1  0  0  0  0
 12 13  1  0  0  0  0
 13 14  2  0  0  0  0
 14 15  1  0  0  0  0
 15 19  1  0  0  0  0
 16 17  2  0  0  0  0
 16 15  1  0  0  0  0
 18 13  1  0  0  0  0
 18 16  1  0  0  0  0
 19 32  1  0  0  0  0
 19 31  1  0  0  0  0
 19 20  1  0  0  0  0
 20 34  1  0  0  0  0
 20 21  1  0  0  0  0
 21 22  2  0  0  0  0
 21 23  1  0  0  0  0
 23 35  1  0  0  0  0
 25  6  1  0  0  0  0
 26  7  1  0  0  0  0
 27 10  1  0  0  0  0
 33 20  1  0  0  0  0
 36 23  1  0  0  0  0
M  END
>  <Pose>
1

>  <Score>
-6.79

$$$$
