
 OpenBabel03222201593D

 46 49  0  0  1  0  0  0  0  0999 V2000
  -18.6210    2.2970  -27.5550 Cl  0  0  0  0  0  0  0  0  0  0  0  0
  -18.9280    0.6310  -28.0160 C   0  0  0  0  0  0  0  0  0  0  0  0
  -19.6230    0.3310  -29.1700 C   0  0  0  0  0  0  0  0  0  0  0  0
  -19.8680   -0.9980  -29.5390 C   0  0  0  0  0  0  0  0  0  0  0  0
  -19.3860   -1.9700  -28.7010 C   0  0  0  0  0  0  0  0  0  0  0  0
  -18.6800   -1.6600  -27.5300 C   0  0  0  0  0  0  0  0  0  0  0  0
  -18.4440   -0.3500  -27.1760 C   0  0  0  0  0  0  0  0  0  0  0  0
  -19.6160   -3.2990  -29.0450 O   0  0  0  0  0  0  0  0  0  0  0  0
  -20.3040   -3.6800  -30.1850 C   0  0  0  0  0  0  0  0  0  0  0  0
  -20.7910   -2.6960  -31.0310 C   0  0  0  0  0  0  0  0  0  0  0  0
  -20.6190   -1.2600  -30.7830 C   0  0  2  0  0  0  0  0  0  0  0  0
  -19.8810   -0.6440  -31.9340 C   0  0  0  0  0  0  0  0  0  0  0  0
  -20.5500    0.0820  -32.8940 C   0  0  0  0  0  0  0  0  0  0  0  0
  -19.8690    0.6350  -33.9350 N   0  0  0  0  0  0  0  0  0  0  0  0
  -18.5260    0.4760  -34.0400 C   0  0  0  0  0  0  0  0  0  0  0  0
  -17.9270    1.0020  -35.0200 O   0  0  0  0  0  0  0  0  0  0  0  0
  -17.8470   -0.2270  -33.1200 N   0  0  0  0  0  0  0  0  0  0  0  0
  -18.5160   -0.7760  -32.0880 C   0  0  0  0  0  0  0  0  0  0  0  0
  -17.8750   -1.4220  -31.2460 O   0  0  0  0  0  0  0  0  0  0  0  0
  -16.4030   -0.3800  -33.2640 C   0  0  0  0  0  0  0  0  0  0  0  0
  -20.6340    1.3950  -34.9180 C   0  0  0  0  0  0  0  0  0  0  0  0
  -21.9030    0.2460  -32.7910 O   0  0  0  0  0  0  0  0  0  0  0  0
  -21.4690   -3.1260  -32.1550 C   0  0  0  0  0  0  0  0  0  0  0  0
  -21.9390   -2.2680  -32.9680 O   0  0  0  0  0  0  0  0  0  0  0  0
  -21.6790   -4.4140  -32.4670 N   0  0  0  0  0  0  0  0  0  0  0  0
  -21.1830   -5.3400  -31.6100 C   0  0  0  0  0  0  0  0  0  0  0  0
  -21.3920   -6.5440  -31.9220 O   0  0  0  0  0  0  0  0  0  0  0  0
  -20.5160   -4.9680  -30.5020 N   0  0  0  0  0  0  0  0  0  0  0  0
  -20.0190   -6.0180  -29.6360 C   0  0  0  0  0  0  0  0  0  0  0  0
  -22.4030   -4.8150  -33.6730 C   0  0  0  0  0  0  0  0  0  0  0  0
  -19.9970    1.1190  -29.8230 H   0  0  0  0  0  0  0  0  0  0  0  0
  -18.3270   -2.4840  -26.9150 H   0  0  0  0  0  0  0  0  0  0  0  0
  -17.8980   -0.1310  -26.2690 H   0  0  0  0  0  0  0  0  0  0  0  0
  -21.6260   -0.7890  -30.7710 H   0  0  0  0  0  0  0  0  0  0  0  0
  -16.0020   -1.2110  -32.6850 H   0  0  0  0  0  0  0  0  0  0  0  0
  -15.9660    0.5900  -32.8980 H   0  0  0  0  0  0  0  0  0  0  0  0
  -16.1640   -0.4240  -34.3500 H   0  0  0  0  0  0  0  0  0  0  0  0
  -21.6590    0.9650  -34.9590 H   0  0  0  0  0  0  0  0  0  0  0  0
  -20.7190    2.4580  -34.5460 H   0  0  0  0  0  0  0  0  0  0  0  0
  -20.1340    1.3770  -35.9020 H   0  0  0  0  0  0  0  0  0  0  0  0
  -19.0420   -6.3770  -30.0460 H   0  0  0  0  0  0  0  0  0  0  0  0
  -19.8530   -5.6650  -28.6060 H   0  0  0  0  0  0  0  0  0  0  0  0
  -20.7430   -6.8650  -29.5860 H   0  0  0  0  0  0  0  0  0  0  0  0
  -21.5960   -5.1340  -34.3930 H   0  0  0  0  0  0  0  0  0  0  0  0
  -23.1320   -5.6010  -33.4870 H   0  0  0  0  0  0  0  0  0  0  0  0
  -22.8700   -3.9330  -34.1160 H   0  0  0  0  0  0  0  0  0  0  0  0
  2  1  1  0  0  0  0
  2  7  1  0  0  0  0
  3  2  2  0  0  0  0
  4  3  1  0  0  0  0
  4  5  2  0  0  0  0
  5  6  1  0  0  0  0
  6  7  2  0  0  0  0
  6 32  1  0  0  0  0
  7 33  1  0  0  0  0
  8  5  1  0  0  0  0
  9  8  1  0  0  0  0
 10 11  1  0  0  0  0
 10  9  2  0  0  0  0
 11 34  1  1  0  0  0
 11  4  1  0  0  0  0
 12 11  1  0  0  0  0
 13 22  2  0  0  0  0
 13 12  1  0  0  0  0
 14 13  1  0  0  0  0
 15 14  1  0  0  0  0
 15 17  1  0  0  0  0
 16 15  2  0  0  0  0
 17 18  1  0  0  0  0
 18 12  1  0  0  0  0
 18 19  2  0  0  0  0
 20 17  1  0  0  0  0
 20 36  1  0  0  0  0
 20 35  1  0  0  0  0
 21 39  1  0  0  0  0
 21 14  1  0  0  0  0
 23 10  1  0  0  0  0
 24 23  2  0  0  0  0
 25 23  1  0  0  0  0
 25 26  1  0  0  0  0
 26 28  1  0  0  0  0
 27 26  2  0  0  0  0
 28  9  1  0  0  0  0
 28 29  1  0  0  0  0
 29 43  1  0  0  0  0
 29 42  1  0  0  0  0
 30 45  1  0  0  0  0
 30 25  1  0  0  0  0
 31  3  1  0  0  0  0
 37 20  1  0  0  0  0
 38 21  1  0  0  0  0
 40 21  1  0  0  0  0
 41 29  1  0  0  0  0
 44 30  1  0  0  0  0
 46 30  1  0  0  0  0
M  END
>  <Pose>
1

>  <Score>
-4.73

$$$$
