
 OpenBabel03222201593D

 57 60  0  0  0  0  0  0  0  0999 V2000
  -17.9240   -1.2470  -25.2190 Cl  0  0  0  0  0  0  0  0  0  0  0  0
  -18.8690   -1.8390  -26.5640 C   0  0  0  0  0  0  0  0  0  0  0  0
  -18.4900   -1.5840  -27.8630 C   0  0  0  0  0  0  0  0  0  0  0  0
  -19.2430   -2.0550  -28.9060 C   0  0  0  0  0  0  0  0  0  0  0  0
  -20.4000   -2.7990  -28.6430 C   0  0  0  0  0  0  0  0  0  0  0  0
  -20.7900   -3.0600  -27.3390 C   0  0  0  0  0  0  0  0  0  0  0  0
  -20.0110   -2.5710  -26.3260 C   0  0  0  0  0  0  0  0  0  0  0  0
  -21.2650   -3.3420  -29.5800 O   0  0  0  0  0  0  0  0  0  0  0  0
  -20.9870   -3.6780  -30.9190 C   0  0  0  0  0  0  0  0  0  0  0  0
  -20.6630   -2.4810  -31.7520 C   0  0  0  0  0  0  0  0  0  0  0  0
  -19.8340   -1.4990  -31.1190 N   0  0  0  0  0  0  0  0  0  0  0  0
  -18.7080   -1.7010  -30.2450 C   0  0  0  0  0  0  0  0  0  0  0  0
  -20.1360   -0.1150  -31.3590 C   0  0  0  0  0  0  0  0  0  0  0  0
  -19.7440    0.7090  -30.4960 O   0  0  0  0  0  0  0  0  0  0  0  0
  -20.8620    0.3180  -32.5520 C   0  0  0  0  0  0  0  0  0  0  0  0
  -20.1270    0.9690  -33.5730 N   0  0  0  0  0  0  0  0  0  0  0  0
  -20.9450    1.9420  -34.3000 C   0  0  0  0  0  0  0  0  0  0  0  0
  -22.0730    1.2180  -34.9360 C   0  0  0  0  0  0  0  0  0  0  0  0
  -21.7330   -0.0370  -35.6670 C   0  0  0  0  0  0  0  0  0  0  0  0
  -20.3870   -0.6050  -35.4480 C   0  0  0  0  0  0  0  0  0  0  0  0
  -19.4710    0.1150  -34.5320 C   0  0  0  0  0  0  0  0  0  0  0  0
  -22.7810   -1.0720  -35.4910 C   0  0  0  0  0  0  0  0  0  0  0  0
  -23.6710   -0.9020  -34.6330 O   0  0  0  0  0  0  0  0  0  0  0  0
  -22.7650   -2.2360  -36.2890 N   0  0  0  0  0  0  0  0  0  0  0  0
  -19.8940   -4.7350  -30.9610 C   0  0  0  0  0  0  0  0  0  0  0  0
  -20.5060   -6.1240  -30.9580 C   0  0  0  0  0  0  0  0  0  0  0  0
  -21.2130   -6.3930  -32.1130 O   0  0  0  0  0  0  0  0  0  0  0  0
  -21.7190   -5.2240  -32.6690 C   0  0  0  0  0  0  0  0  0  0  0  0
  -22.2190   -4.3350  -31.5470 C   0  0  0  0  0  0  0  0  0  0  0  0
  -17.5990   -1.0120  -28.0780 H   0  0  0  0  0  0  0  0  0  0  0  0
  -21.6890   -3.6360  -27.1830 H   0  0  0  0  0  0  0  0  0  0  0  0
  -20.2830   -2.7540  -25.2900 H   0  0  0  0  0  0  0  0  0  0  0  0
  -20.1560   -2.8320  -32.6870 H   0  0  0  0  0  0  0  0  0  0  0  0
  -21.6380   -2.0370  -32.0820 H   0  0  0  0  0  0  0  0  0  0  0  0
  -17.9860   -2.4530  -30.6190 H   0  0  0  0  0  0  0  0  0  0  0  0
  -18.1230   -0.7580  -30.1180 H   0  0  0  0  0  0  0  0  0  0  0  0
  -21.6400    1.0580  -32.1960 H   0  0  0  0  0  0  0  0  0  0  0  0
  -21.4780   -0.5500  -32.9100 H   0  0  0  0  0  0  0  0  0  0  0  0
  -21.3290    2.6870  -33.6050 H   0  0  0  0  0  0  0  0  0  0  0  0
  -20.2940    2.3650  -35.0990 H   0  0  0  0  0  0  0  0  0  0  0  0
  -22.8570    0.9540  -34.1710 H   0  0  0  0  0  0  0  0  0  0  0  0
  -22.6100    1.9750  -35.5850 H   0  0  0  0  0  0  0  0  0  0  0  0
  -21.8050    0.2380  -36.7680 H   0  0  0  0  0  0  0  0  0  0  0  0
  -19.8780   -0.8330  -36.4330 H   0  0  0  0  0  0  0  0  0  0  0  0
  -20.5160   -1.6420  -35.0100 H   0  0  0  0  0  0  0  0  0  0  0  0
  -18.7140   -0.4870  -34.0210 H   0  0  0  0  0  0  0  0  0  0  0  0
  -18.8670    0.8230  -35.1800 H   0  0  0  0  0  0  0  0  0  0  0  0
  -23.6240   -2.8570  -36.2120 H   0  0  0  0  0  0  0  0  0  0  0  0
  -22.0140   -2.5330  -36.9230 H   0  0  0  0  0  0  0  0  0  0  0  0
  -19.2910   -4.6700  -30.0210 H   0  0  0  0  0  0  0  0  0  0  0  0
  -19.2690   -4.6480  -31.8640 H   0  0  0  0  0  0  0  0  0  0  0  0
  -19.6710   -6.8560  -30.8960 H   0  0  0  0  0  0  0  0  0  0  0  0
  -21.1680   -6.2510  -30.0820 H   0  0  0  0  0  0  0  0  0  0  0  0
  -20.8780   -4.7430  -33.2210 H   0  0  0  0  0  0  0  0  0  0  0  0
  -22.5070   -5.4420  -33.4130 H   0  0  0  0  0  0  0  0  0  0  0  0
  -22.6840   -5.0090  -30.7960 H   0  0  0  0  0  0  0  0  0  0  0  0
  -22.9470   -3.5860  -31.8870 H   0  0  0  0  0  0  0  0  0  0  0  0
  2  7  1  0  0  0  0
  2  1  1  0  0  0  0
  3  2  2  0  0  0  0
  4  5  2  0  0  0  0
  4  3  1  0  0  0  0
  5  6  1  0  0  0  0
  6 31  1  0  0  0  0
  6  7  2  0  0  0  0
  7 32  1  0  0  0  0
  8  5  1  0  0  0  0
  9  8  1  0  0  0  0
 10 11  1  0  0  0  0
 10  9  1  0  0  0  0
 11 12  1  0  0  0  0
 12 36  1  0  0  0  0
 12  4  1  0  0  0  0
 13 11  1  0  0  0  0
 13 14  2  0  0  0  0
 15 37  1  0  0  0  0
 15 13  1  0  0  0  0
 16 15  1  0  0  0  0
 17 39  1  0  0  0  0
 17 16  1  0  0  0  0
 18 17  1  0  0  0  0
 18 41  1  0  0  0  0
 19 22  1  0  0  0  0
 19 20  1  0  0  0  0
 19 18  1  0  0  0  0
 20 45  1  0  0  0  0
 20 21  1  0  0  0  0
 21 46  1  0  0  0  0
 21 16  1  0  0  0  0
 22 23  2  0  0  0  0
 24 48  1  0  0  0  0
 24 22  1  0  0  0  0
 25 26  1  0  0  0  0
 25  9  1  0  0  0  0
 25 50  1  0  0  0  0
 26 52  1  0  0  0  0
 26 53  1  0  0  0  0
 27 26  1  0  0  0  0
 28 27  1  0  0  0  0
 28 29  1  0  0  0  0
 29  9  1  0  0  0  0
 29 56  1  0  0  0  0
 30  3  1  0  0  0  0
 33 10  1  0  0  0  0
 34 10  1  0  0  0  0
 35 12  1  0  0  0  0
 38 15  1  0  0  0  0
 40 17  1  0  0  0  0
 42 18  1  0  0  0  0
 43 19  1  0  0  0  0
 44 20  1  0  0  0  0
 47 21  1  0  0  0  0
 49 24  1  0  0  0  0
 51 25  1  0  0  0  0
 54 28  1  0  0  0  0
 55 28  1  0  0  0  0
 57 29  1  0  0  0  0
M  END
>  <Pose>
1

>  <Score>
-5.21

$$$$
