
 OpenBabel03222201593D

 43 46  0  0  0  0  0  0  0  0999 V2000
  -21.3460   -4.3060  -31.3560 S   0  0  0  0  0  0  0  0  0  0  0  0
  -22.8230   -4.2060  -31.3250 O   0  0  0  0  0  0  0  0  0  0  0  0
  -20.9360   -5.6330  -31.9550 O   0  0  0  0  0  0  0  0  0  0  0  0
  -20.6650   -3.0600  -32.2780 N   0  0  0  0  0  0  0  0  0  0  0  0
  -20.2950   -1.8980  -31.5310 C   0  0  0  0  0  0  0  0  0  0  0  0
  -19.4040   -0.9550  -32.2960 C   0  0  0  0  0  0  0  0  0  0  0  0
  -19.7420   -0.8960  -33.6990 N   0  0  0  0  0  0  0  0  0  0  0  0
  -20.8310   -1.6290  -34.2860 C   0  0  0  0  0  0  0  0  0  0  0  0
  -21.2940   -2.8140  -33.5270 C   0  0  0  0  0  0  0  0  0  0  0  0
  -18.9560   -0.0660  -34.5430 C   0  0  0  0  0  0  0  0  0  0  0  0
  -17.8570    0.4390  -34.1360 O   0  0  0  0  0  0  0  0  0  0  0  0
  -19.3830    0.2370  -35.9090 C   0  0  0  0  0  0  0  0  0  0  0  0
  -18.6900   -0.1780  -37.0280 C   0  0  0  0  0  0  0  0  0  0  0  0
  -19.1450    0.1370  -38.2550 N   0  0  0  0  0  0  0  0  0  0  0  0
  -20.2640    0.8520  -38.4690 C   0  0  0  0  0  0  0  0  0  0  0  0
  -20.9520    1.2640  -37.3890 N   0  0  0  0  0  0  0  0  0  0  0  0
  -22.0770    1.9810  -37.5820 C   0  0  0  0  0  0  0  0  0  0  0  0
  -22.5370    2.3010  -38.8430 C   0  0  0  0  0  0  0  0  0  0  0  0
  -21.8540    1.8930  -39.9730 C   0  0  0  0  0  0  0  0  0  0  0  0
  -20.7030    1.1580  -39.7510 C   0  0  0  0  0  0  0  0  0  0  0  0
  -20.5300    0.9690  -36.1440 C   0  0  0  0  0  0  0  0  0  0  0  0
  -21.1710    1.3540  -35.1350 O   0  0  0  0  0  0  0  0  0  0  0  0
  -20.7010   -4.2110  -29.7080 C   0  0  0  0  0  0  0  0  0  0  0  0
  -20.0570   -2.8720  -28.8730 S   0  0  0  0  0  0  0  0  0  0  0  0
  -19.6850   -3.6310  -27.3920 C   0  0  0  0  0  0  0  0  0  0  0  0
  -20.0810   -4.9240  -27.5990 C   0  0  0  0  0  0  0  0  0  0  0  0
  -20.6050   -5.2260  -28.7910 C   0  0  0  0  0  0  0  0  0  0  0  0
  -18.9640   -2.9520  -25.9190 Cl  0  0  0  0  0  0  0  0  0  0  0  0
  -21.2180   -1.3420  -31.2680 H   0  0  0  0  0  0  0  0  0  0  0  0
  -19.8170   -2.2330  -30.5900 H   0  0  0  0  0  0  0  0  0  0  0  0
  -19.3950    0.0640  -31.8660 H   0  0  0  0  0  0  0  0  0  0  0  0
  -18.3720   -1.3540  -32.2190 H   0  0  0  0  0  0  0  0  0  0  0  0
  -20.4560   -1.9860  -35.2910 H   0  0  0  0  0  0  0  0  0  0  0  0
  -21.6710   -0.9340  -34.5460 H   0  0  0  0  0  0  0  0  0  0  0  0
  -22.3970   -2.6820  -33.3240 H   0  0  0  0  0  0  0  0  0  0  0  0
  -21.2290   -3.7660  -34.1330 H   0  0  0  0  0  0  0  0  0  0  0  0
  -17.7870   -0.7540  -36.8700 H   0  0  0  0  0  0  0  0  0  0  0  0
  -22.6270    2.3120  -36.7050 H   0  0  0  0  0  0  0  0  0  0  0  0
  -23.4460    2.8810  -38.9970 H   0  0  0  0  0  0  0  0  0  0  0  0
  -22.1860    2.1250  -40.9770 H   0  0  0  0  0  0  0  0  0  0  0  0
  -20.1520    0.8270  -40.6220 H   0  0  0  0  0  0  0  0  0  0  0  0
  -19.9600   -5.6720  -26.7880 H   0  0  0  0  0  0  0  0  0  0  0  0
  -20.9640   -6.2410  -29.0790 H   0  0  0  0  0  0  0  0  0  0  0  0
  1  2  2  0  0  0  0
  1 23  1  0  0  0  0
  3  1  2  0  0  0  0
  4  5  1  0  0  0  0
  4  1  1  0  0  0  0
  5 29  1  0  0  0  0
  5 30  1  0  0  0  0
  6 32  1  0  0  0  0
  6 31  1  0  0  0  0
  6  5  1  0  0  0  0
  7  6  1  0  0  0  0
  8  7  1  0  0  0  0
  8  9  1  0  0  0  0
  9 35  1  0  0  0  0
  9  4  1  0  0  0  0
 10 11  2  0  0  0  0
 10  7  1  0  0  0  0
 12 10  1  0  0  0  0
 13 37  1  0  0  0  0
 13 12  2  0  0  0  0
 14 13  1  0  0  0  0
 15 14  2  0  0  0  0
 15 16  1  0  0  0  0
 16 21  1  0  0  0  0
 17 16  1  0  0  0  0
 17 38  1  0  0  0  0
 18 17  2  0  0  0  0
 19 20  2  0  0  0  0
 19 18  1  0  0  0  0
 20 15  1  0  0  0  0
 21 12  1  0  0  0  0
 21 22  2  0  0  0  0
 23 24  1  0  0  0  0
 23 27  2  0  0  0  0
 24 25  1  0  0  0  0
 25 28  1  0  0  0  0
 26 25  2  0  0  0  0
 26 42  1  0  0  0  0
 27 26  1  0  0  0  0
 33  8  1  0  0  0  0
 34  8  1  0  0  0  0
 36  9  1  0  0  0  0
 39 18  1  0  0  0  0
 40 19  1  0  0  0  0
 41 20  1  0  0  0  0
 43 27  1  0  0  0  0
M  END
>  <Pose>
1

>  <Score>
-6.74

$$$$
