
 OpenBabel03222201593D

 50 53  0  0  1  0  0  0  0  0999 V2000
  -20.1850   -3.3210  -29.5200 S   0  0  0  0  0  0  0  0  0  0  0  0
  -21.5990   -3.5800  -29.0230 O   0  0  0  0  0  0  0  0  0  0  0  0
  -19.5210   -4.6960  -29.4750 O   0  0  0  0  0  0  0  0  0  0  0  0
  -19.3570   -2.2790  -28.5050 N   0  0  0  0  0  0  0  0  0  0  0  0
  -19.2000   -2.6440  -27.1660 C   0  0  0  0  0  0  0  0  0  0  0  0
  -18.2030   -1.7480  -26.4170 C   0  0  0  0  0  0  0  0  0  0  0  0
  -18.3190   -0.3790  -26.8200 N   0  0  0  0  0  0  0  0  0  0  0  0
  -18.4320   -0.0940  -28.2340 C   0  0  0  0  0  0  0  0  0  0  0  0
  -19.6270   -0.8800  -28.7390 C   0  0  0  0  0  0  0  0  0  0  0  0
  -18.3200    0.6450  -25.8660 C   0  0  0  0  0  0  0  0  0  0  0  0
  -18.2190    0.3730  -24.6430 O   0  0  0  0  0  0  0  0  0  0  0  0
  -18.4410    2.0900  -26.2400 C   0  0  0  0  0  0  0  0  0  0  0  0
  -17.3100    2.5870  -27.1090 C   0  0  0  0  0  0  0  0  0  0  0  0
  -16.5850    2.9810  -25.8240 C   0  0  0  0  0  0  0  0  0  0  0  0
  -17.9530    2.9950  -25.1370 C   0  0  0  0  0  0  0  0  0  0  0  0
  -20.2760   -2.8670  -31.2080 C   0  0  0  0  0  0  0  0  0  0  0  0
  -19.5860   -1.7150  -31.6370 C   0  0  0  0  0  0  0  0  0  0  0  0
  -19.6670   -1.2730  -32.9380 C   0  0  0  0  0  0  0  0  0  0  0  0
  -20.4190   -1.9190  -33.8930 C   0  0  0  0  0  0  0  0  0  0  0  0
  -21.0910   -3.0430  -33.4810 C   0  0  0  0  0  0  0  0  0  0  0  0
  -21.0200   -3.5100  -32.1600 C   0  0  0  0  0  0  0  0  0  0  0  0
  -21.8440   -4.9910  -31.7350 Cl  0  0  0  0  0  0  0  0  0  0  0  0
  -20.4620   -1.4110  -35.2130 N   0  0  0  0  0  0  0  0  0  0  0  0
  -19.7530   -0.2420  -35.6030 C   0  0  0  0  0  0  0  0  0  0  0  0
  -19.5420    0.1070  -36.7800 O   0  0  0  0  0  0  0  0  0  0  0  0
  -19.2370    0.6080  -34.4980 C   0  0  2  0  0  0  0  0  0  0  0  0
  -18.9740   -0.1300  -33.3360 O   0  0  0  0  0  0  0  0  0  0  0  0
  -20.2260    1.6980  -34.1530 C   0  0  0  0  0  0  0  0  0  0  0  0
  -18.7340   -3.6480  -27.1050 H   0  0  0  0  0  0  0  0  0  0  0  0
  -20.1420   -2.6320  -26.6010 H   0  0  0  0  0  0  0  0  0  0  0  0
  -18.4150   -1.8420  -25.3410 H   0  0  0  0  0  0  0  0  0  0  0  0
  -17.1780   -2.0830  -26.6700 H   0  0  0  0  0  0  0  0  0  0  0  0
  -18.5140    0.9820  -28.4510 H   0  0  0  0  0  0  0  0  0  0  0  0
  -17.5180   -0.5180  -28.7380 H   0  0  0  0  0  0  0  0  0  0  0  0
  -20.5300   -0.5740  -28.1710 H   0  0  0  0  0  0  0  0  0  0  0  0
  -19.7580   -0.7250  -29.8120 H   0  0  0  0  0  0  0  0  0  0  0  0
  -19.4550    2.3370  -26.6370 H   0  0  0  0  0  0  0  0  0  0  0  0
  -17.5630    3.4530  -27.7340 H   0  0  0  0  0  0  0  0  0  0  0  0
  -16.7690    1.7830  -27.6750 H   0  0  0  0  0  0  0  0  0  0  0  0
  -15.9240    2.1870  -25.4410 H   0  0  0  0  0  0  0  0  0  0  0  0
  -16.0800    3.9490  -25.8700 H   0  0  0  0  0  0  0  0  0  0  0  0
  -18.4440    3.9930  -25.1460 H   0  0  0  0  0  0  0  0  0  0  0  0
  -17.9490    2.5580  -24.1320 H   0  0  0  0  0  0  0  0  0  0  0  0
  -18.9960   -1.2000  -30.9000 H   0  0  0  0  0  0  0  0  0  0  0  0
  -21.6920   -3.5830  -34.1930 H   0  0  0  0  0  0  0  0  0  0  0  0
  -21.0350   -1.9070  -35.9360 H   0  0  0  0  0  0  0  0  0  0  0  0
  -18.3030    1.0770  -34.8410 H   0  0  0  0  0  0  0  0  0  0  0  0
  -20.9710    1.7760  -34.9970 H   0  0  0  0  0  0  0  0  0  0  0  0
  -19.6910    2.6550  -34.0250 H   0  0  0  0  0  0  0  0  0  0  0  0
  -20.7900    1.4220  -33.2420 H   0  0  0  0  0  0  0  0  0  0  0  0
  1  3  2  0  0  0  0
  1  2  2  0  0  0  0
  1  4  1  0  0  0  0
  4  5  1  0  0  0  0
  5 29  1  0  0  0  0
  5 30  1  0  0  0  0
  5  6  1  0  0  0  0
  6 31  1  0  0  0  0
  7  6  1  0  0  0  0
  7 10  1  0  0  0  0
  8  7  1  0  0  0  0
  9  4  1  0  0  0  0
  9  8  1  0  0  0  0
  9 35  1  0  0  0  0
 10 11  2  0  0  0  0
 12 10  1  0  0  0  0
 12 15  1  0  0  0  0
 13 12  1  0  0  0  0
 13 14  1  0  0  0  0
 14 40  1  0  0  0  0
 14 15  1  0  0  0  0
 15 43  1  0  0  0  0
 16  1  1  0  0  0  0
 17 16  1  0  0  0  0
 17 44  1  0  0  0  0
 18 17  2  0  0  0  0
 19 20  2  0  0  0  0
 19 18  1  0  0  0  0
 20 21  1  0  0  0  0
 21 22  1  0  0  0  0
 21 16  2  0  0  0  0
 23 19  1  0  0  0  0
 24 23  1  0  0  0  0
 24 26  1  0  0  0  0
 25 24  2  0  0  0  0
 26 47  1  6  0  0  0
 26 28  1  0  0  0  0
 26 27  1  0  0  0  0
 27 18  1  0  0  0  0
 28 49  1  0  0  0  0
 28 50  1  0  0  0  0
 32  6  1  0  0  0  0
 33  8  1  0  0  0  0
 34  8  1  0  0  0  0
 36  9  1  0  0  0  0
 37 12  1  0  0  0  0
 38 13  1  0  0  0  0
 39 13  1  0  0  0  0
 41 14  1  0  0  0  0
 42 15  1  0  0  0  0
 45 20  1  0  0  0  0
 46 23  1  0  0  0  0
 48 28  1  0  0  0  0
M  END
>  <Pose>
1

>  <Score>
-7.10

$$$$
