
 OpenBabel03222201593D

 37 40  0  0  1  0  0  0  0  0999 V2000
  -23.4930   -0.0990  -35.2260 Cl  0  0  0  0  0  0  0  0  0  0  0  0
  -22.0150   -0.5140  -34.3610 C   0  0  0  0  0  0  0  0  0  0  0  0
  -22.0370   -1.4690  -33.3490 C   0  0  0  0  0  0  0  0  0  0  0  0
  -20.8570   -1.7610  -32.7060 C   0  0  0  0  0  0  0  0  0  0  0  0
  -19.6640   -1.1120  -33.0590 C   0  0  0  0  0  0  0  0  0  0  0  0
  -19.6500   -0.1770  -34.0510 C   0  0  0  0  0  0  0  0  0  0  0  0
  -20.8370    0.1160  -34.7020 C   0  0  0  0  0  0  0  0  0  0  0  0
  -20.7810   -2.7200  -31.6580 N   0  0  0  0  0  0  0  0  0  0  0  0
  -20.8000   -4.1430  -31.6870 C   0  0  0  0  0  0  0  0  0  0  0  0
  -20.5140   -4.8300  -32.6820 O   0  0  0  0  0  0  0  0  0  0  0  0
  -21.2080   -4.6490  -30.3650 C   0  0  1  0  0  0  0  0  0  0  0  0
  -20.6330   -5.7930  -29.9130 O   0  0  0  0  0  0  0  0  0  0  0  0
  -20.5270   -5.5590  -28.5550 N   0  0  0  0  0  0  0  0  0  0  0  0
  -20.1680   -4.1880  -28.3670 C   0  0  0  0  0  0  0  0  0  0  0  0
  -20.5790   -3.6060  -29.4890 C   0  0  0  0  0  0  0  0  0  0  0  0
  -20.6420   -2.3720  -30.2560 C   0  0  0  0  0  0  0  0  0  0  0  0
  -20.5830   -1.2260  -29.7410 O   0  0  0  0  0  0  0  0  0  0  0  0
  -19.5540   -3.5590  -27.2150 C   0  0  0  0  0  0  0  0  0  0  0  0
  -19.0410   -2.2600  -27.2720 C   0  0  0  0  0  0  0  0  0  0  0  0
  -18.5210   -1.9280  -26.0810 N   0  0  0  0  0  0  0  0  0  0  0  0
  -18.6810   -2.9670  -25.2590 N   0  0  0  0  0  0  0  0  0  0  0  0
  -19.3040   -3.9610  -25.9350 C   0  0  0  0  0  0  0  0  0  0  0  0
  -19.6510   -5.2940  -25.3820 C   0  0  0  0  0  0  0  0  0  0  0  0
  -17.8780   -0.6840  -25.6730 C   0  0  0  0  0  0  0  0  0  0  0  0
  -22.9610   -1.9860  -33.0640 H   0  0  0  0  0  0  0  0  0  0  0  0
  -18.7490   -1.3730  -32.5230 H   0  0  0  0  0  0  0  0  0  0  0  0
  -18.6990    0.3250  -34.3130 H   0  0  0  0  0  0  0  0  0  0  0  0
  -20.8620    0.8620  -35.4980 H   0  0  0  0  0  0  0  0  0  0  0  0
  -22.3150   -4.6220  -30.2630 H   0  0  0  0  0  0  0  0  0  0  0  0
  -20.6960   -6.2780  -27.8320 H   0  0  0  0  0  0  0  0  0  0  0  0
  -19.0490   -1.6070  -28.1280 H   0  0  0  0  0  0  0  0  0  0  0  0
  -20.6510   -5.2570  -24.9390 H   0  0  0  0  0  0  0  0  0  0  0  0
  -18.9510   -5.5360  -24.5460 H   0  0  0  0  0  0  0  0  0  0  0  0
  -19.5290   -6.0980  -26.1260 H   0  0  0  0  0  0  0  0  0  0  0  0
  -16.8320   -0.8700  -25.3460 H   0  0  0  0  0  0  0  0  0  0  0  0
  -17.7620    0.0050  -26.5560 H   0  0  0  0  0  0  0  0  0  0  0  0
  -18.4130   -0.1920  -24.8390 H   0  0  0  0  0  0  0  0  0  0  0  0
  1  2  1  0  0  0  0
  2  3  1  0  0  0  0
  3 25  1  0  0  0  0
  3  4  2  0  0  0  0
  4  8  1  0  0  0  0
  5  4  1  0  0  0  0
  5 26  1  0  0  0  0
  6  5  2  0  0  0  0
  7  2  2  0  0  0  0
  7  6  1  0  0  0  0
  8 16  1  0  0  0  0
  9  8  1  0  0  0  0
  9 11  1  0  0  0  0
 10  9  2  0  0  0  0
 11 29  1  1  0  0  0
 11 12  1  0  0  0  0
 11 15  1  0  0  0  0
 12 13  1  0  0  0  0
 13 14  1  0  0  0  0
 13 30  1  0  0  0  0
 14 18  1  0  0  0  0
 15 14  2  0  0  0  0
 16 17  2  0  0  0  0
 16 15  1  0  0  0  0
 18 22  1  0  0  0  0
 19 18  2  0  0  0  0
 19 20  1  0  0  0  0
 20 24  1  0  0  0  0
 20 21  1  0  0  0  0
 22 23  1  0  0  0  0
 22 21  2  0  0  0  0
 23 32  1  0  0  0  0
 23 33  1  0  0  0  0
 24 35  1  0  0  0  0
 24 37  1  0  0  0  0
 27  6  1  0  0  0  0
 28  7  1  0  0  0  0
 31 19  1  0  0  0  0
 34 23  1  0  0  0  0
 36 24  1  0  0  0  0
M  END
>  <Pose>
1

>  <Score>
-6.27

$$$$
