
 OpenBabel03222201593D

 41 44  0  0  0  0  0  0  0  0999 V2000
  -18.9780   -0.0260  -33.1950 B   0  0  0  0  0  0  0  0  0  0  0  0
  -20.0400   -1.5530  -32.7240 C   0  0  0  0  0  0  0  0  0  0  0  0
  -19.9240   -2.1270  -31.4880 C   0  0  0  0  0  0  0  0  0  0  0  0
  -20.7010   -3.2350  -31.1580 C   0  0  0  0  0  0  0  0  0  0  0  0
  -21.5660   -3.7000  -32.1260 C   0  0  0  0  0  0  0  0  0  0  0  0
  -21.6740   -3.1200  -33.3550 C   0  0  0  0  0  0  0  0  0  0  0  0
  -20.9080   -2.0180  -33.6970 C   0  0  0  0  0  0  0  0  0  0  0  0
  -22.3410   -4.8250  -31.7660 O   0  0  0  0  0  0  0  0  0  0  0  0
  -22.2070   -6.0520  -32.4590 C   0  0  0  0  0  0  0  0  0  0  0  0
  -20.5300   -3.9070  -29.8740 C   0  0  0  0  0  0  0  0  0  0  0  0
  -20.0940   -3.5000  -28.6860 N   0  0  0  0  0  0  0  0  0  0  0  0
  -20.1220   -4.5380  -27.8000 C   0  0  0  0  0  0  0  0  0  0  0  0
  -20.5900   -5.5940  -28.5060 N   0  0  0  0  0  0  0  0  0  0  0  0
  -20.8370   -5.2350  -29.7370 N   0  0  0  0  0  0  0  0  0  0  0  0
  -19.6820   -4.1440  -26.5950 N   0  0  0  0  0  0  0  0  0  0  0  0
  -19.3570   -2.8580  -26.6550 C   0  0  0  0  0  0  0  0  0  0  0  0
  -19.6140   -2.4490  -27.9740 C   0  0  0  0  0  0  0  0  0  0  0  0
  -19.3640   -1.1840  -28.3340 N   0  0  0  0  0  0  0  0  0  0  0  0
  -18.8670   -0.3380  -27.3910 C   0  0  0  0  0  0  0  0  0  0  0  0
  -18.6410    0.8560  -27.7590 O   0  0  0  0  0  0  0  0  0  0  0  0
  -18.6090   -0.6750  -26.1300 N   0  0  0  0  0  0  0  0  0  0  0  0
  -18.8540   -1.9350  -25.7680 C   0  0  0  0  0  0  0  0  0  0  0  0
  -18.6270   -2.3070  -24.5880 O   0  0  0  0  0  0  0  0  0  0  0  0
  -18.0720    0.3040  -25.1680 C   0  0  0  0  0  0  0  0  0  0  0  0
  -19.5680   -0.7090  -29.6710 C   0  0  0  0  0  0  0  0  0  0  0  0
  -19.5710   -4.9650  -25.4060 C   0  0  0  0  0  0  0  0  0  0  0  0
  -19.2380   -1.7450  -30.7440 H   0  0  0  0  0  0  0  0  0  0  0  0
  -22.3810   -3.5360  -34.0850 H   0  0  0  0  0  0  0  0  0  0  0  0
  -20.9940   -1.5570  -34.6700 H   0  0  0  0  0  0  0  0  0  0  0  0
  -23.0760   -6.6820  -32.1580 H   0  0  0  0  0  0  0  0  0  0  0  0
  -22.2300   -5.9210  -33.5520 H   0  0  0  0  0  0  0  0  0  0  0  0
  -21.2950   -6.5990  -32.2070 H   0  0  0  0  0  0  0  0  0  0  0  0
  -17.0070    0.4900  -25.3210 H   0  0  0  0  0  0  0  0  0  0  0  0
  -18.6530    1.2520  -25.3390 H   0  0  0  0  0  0  0  0  0  0  0  0
  -18.3470   -0.0400  -24.1650 H   0  0  0  0  0  0  0  0  0  0  0  0
  -19.0640    0.3280  -29.7180 H   0  0  0  0  0  0  0  0  0  0  0  0
  -20.5970   -0.4850  -29.9200 H   0  0  0  0  0  0  0  0  0  0  0  0
  -18.9740   -1.2830  -30.3710 H   0  0  0  0  0  0  0  0  0  0  0  0
  -18.6400   -4.6950  -24.8510 H   0  0  0  0  0  0  0  0  0  0  0  0
  -20.4470   -4.7490  -24.7620 H   0  0  0  0  0  0  0  0  0  0  0  0
  -19.4690   -6.0440  -25.6500 H   0  0  0  0  0  0  0  0  0  0  0  0
  1  2  1  0  0  0  0
  2  3  1  0  0  0  0
  3  4  2  0  0  0  0
  3 27  1  0  0  0  0
  4 10  1  0  0  0  0
  5  8  1  0  0  0  0
  5  4  1  0  0  0  0
  6  5  2  0  0  0  0
  7  6  1  0  0  0  0
  7  2  2  0  0  0  0
  9 32  1  0  0  0  0
  9 30  1  0  0  0  0
  9  8  1  0  0  0  0
 10 14  2  0  0  0  0
 10 11  1  0  0  0  0
 11 17  1  0  0  0  0
 11 12  1  0  0  0  0
 12 15  1  0  0  0  0
 13 12  2  0  0  0  0
 14 13  1  0  0  0  0
 15 26  1  0  0  0  0
 16 15  1  0  0  0  0
 16 22  1  0  0  0  0
 17 16  2  0  0  0  0
 18 17  1  0  0  0  0
 18 19  1  0  0  0  0
 19 21  1  0  0  0  0
 20 19  2  0  0  0  0
 21 22  1  0  0  0  0
 21 24  1  0  0  0  0
 22 23  2  0  0  0  0
 24 35  1  0  0  0  0
 25 18  1  0  0  0  0
 26 39  1  0  0  0  0
 26 40  1  0  0  0  0
 28  6  1  0  0  0  0
 29  7  1  0  0  0  0
 31  9  1  0  0  0  0
 33 24  1  0  0  0  0
 34 24  1  0  0  0  0
 36 25  1  0  0  0  0
 37 25  1  0  0  0  0
 38 25  1  0  0  0  0
 41 26  1  0  0  0  0
M  END
>  <Pose>
1

>  <Score>
-6.81

$$$$
