
 OpenBabel03222201593D

 40 43  0  0  0  0  0  0  0  0999 V2000
  -15.8590    4.2420  -24.2180 Cl  0  0  0  0  0  0  0  0  0  0  0  0
  -16.8510    3.5080  -25.4670 C   0  0  0  0  0  0  0  0  0  0  0  0
  -17.1930    2.1700  -25.4480 C   0  0  0  0  0  0  0  0  0  0  0  0
  -17.9610    1.6110  -26.4200 N   0  0  0  0  0  0  0  0  0  0  0  0
  -18.4370    2.3180  -27.4590 C   0  0  0  0  0  0  0  0  0  0  0  0
  -19.1980    1.7740  -28.4270 N   0  0  0  0  0  0  0  0  0  0  0  0
  -19.5350    0.4720  -28.4170 C   0  0  0  0  0  0  0  0  0  0  0  0
  -19.0460   -0.2700  -27.3410 C   0  0  0  0  0  0  0  0  0  0  0  0
  -18.2670    0.2980  -26.3560 C   0  0  0  0  0  0  0  0  0  0  0  0
  -17.8220   -0.3840  -25.3770 O   0  0  0  0  0  0  0  0  0  0  0  0
  -20.3730   -0.1740  -29.4610 C   0  0  0  0  0  0  0  0  0  0  0  0
  -19.5670   -1.0470  -30.2320 N   0  0  0  0  0  0  0  0  0  0  0  0
  -18.4860   -0.4870  -30.9510 C   0  0  0  0  0  0  0  0  0  0  0  0
  -18.1190   -1.2410  -32.2200 C   0  0  0  0  0  0  0  0  0  0  0  0
  -19.3930   -1.4390  -32.9590 C   0  0  0  0  0  0  0  0  0  0  0  0
  -20.4490   -1.9240  -32.2170 C   0  0  0  0  0  0  0  0  0  0  0  0
  -21.6210   -2.1180  -32.8410 N   0  0  0  0  0  0  0  0  0  0  0  0
  -21.7510   -1.8380  -34.1740 C   0  0  0  0  0  0  0  0  0  0  0  0
  -20.6920   -1.3620  -34.8700 N   0  0  0  0  0  0  0  0  0  0  0  0
  -19.4860   -1.1450  -34.3000 C   0  0  0  0  0  0  0  0  0  0  0  0
  -23.0440   -2.0480  -34.8760 C   0  0  0  0  0  0  0  0  0  0  0  0
  -20.2040   -2.1970  -30.7800 C   0  0  0  0  0  0  0  0  0  0  0  0
  -18.1090    3.6660  -27.5030 C   0  0  0  0  0  0  0  0  0  0  0  0
  -17.3300    4.2520  -26.5250 C   0  0  0  0  0  0  0  0  0  0  0  0
  -16.8190    1.5710  -24.6140 H   0  0  0  0  0  0  0  0  0  0  0  0
  -19.2960   -1.3170  -27.3010 H   0  0  0  0  0  0  0  0  0  0  0  0
  -21.1660   -0.7440  -28.9240 H   0  0  0  0  0  0  0  0  0  0  0  0
  -20.8280    0.6250  -30.0670 H   0  0  0  0  0  0  0  0  0  0  0  0
  -17.5620   -0.3520  -30.3500 H   0  0  0  0  0  0  0  0  0  0  0  0
  -18.7960    0.5350  -31.3160 H   0  0  0  0  0  0  0  0  0  0  0  0
  -17.7340   -2.2430  -31.8770 H   0  0  0  0  0  0  0  0  0  0  0  0
  -17.3890   -0.6800  -32.8000 H   0  0  0  0  0  0  0  0  0  0  0  0
  -18.6610   -0.7640  -34.8860 H   0  0  0  0  0  0  0  0  0  0  0  0
  -23.6600   -2.7350  -34.2640 H   0  0  0  0  0  0  0  0  0  0  0  0
  -23.5440   -1.0470  -34.9230 H   0  0  0  0  0  0  0  0  0  0  0  0
  -22.8890   -2.4760  -35.8850 H   0  0  0  0  0  0  0  0  0  0  0  0
  -19.6110   -3.1360  -30.6470 H   0  0  0  0  0  0  0  0  0  0  0  0
  -21.1720   -2.3410  -30.2550 H   0  0  0  0  0  0  0  0  0  0  0  0
  -18.4920    4.2480  -28.3430 H   0  0  0  0  0  0  0  0  0  0  0  0
  -17.0760    5.3150  -26.5670 H   0  0  0  0  0  0  0  0  0  0  0  0
  2  3  1  0  0  0  0
  2  1  1  0  0  0  0
  3 25  1  0  0  0  0
  4  9  1  0  0  0  0
  4  3  1  0  0  0  0
  5  4  1  0  0  0  0
  6  7  2  0  0  0  0
  6  5  1  0  0  0  0
  7  8  1  0  0  0  0
  8 26  1  0  0  0  0
  8  9  1  0  0  0  0
  9 10  2  0  0  0  0
 11 27  1  0  0  0  0
 11  7  1  0  0  0  0
 12 11  1  0  0  0  0
 13 29  1  0  0  0  0
 13 12  1  0  0  0  0
 14 31  1  0  0  0  0
 14 13  1  0  0  0  0
 15 14  1  0  0  0  0
 15 16  2  0  0  0  0
 16 22  1  0  0  0  0
 17 16  1  0  0  0  0
 18 17  2  0  0  0  0
 19 20  2  0  0  0  0
 19 18  1  0  0  0  0
 20 15  1  0  0  0  0
 21 34  1  0  0  0  0
 21 18  1  0  0  0  0
 22 37  1  0  0  0  0
 22 38  1  0  0  0  0
 22 12  1  0  0  0  0
 23  5  2  0  0  0  0
 23 24  1  0  0  0  0
 24  2  2  0  0  0  0
 28 11  1  0  0  0  0
 30 13  1  0  0  0  0
 32 14  1  0  0  0  0
 33 20  1  0  0  0  0
 35 21  1  0  0  0  0
 36 21  1  0  0  0  0
 39 23  1  0  0  0  0
 40 24  1  0  0  0  0
M  END
>  <Pose>
1

>  <Score>
-5.86

$$$$
