
 OpenBabel03222201593D

 49 52  0  0  1  0  0  0  0  0999 V2000
  -22.2950    0.8520  -35.5950 S   0  0  0  0  0  0  0  0  0  0  0  0
  -23.4520    1.8120  -35.4450 O   0  0  0  0  0  0  0  0  0  0  0  0
  -21.0850    1.6680  -35.9010 O   0  0  0  0  0  0  0  0  0  0  0  0
  -22.1500    0.0110  -34.1020 N   0  0  0  0  0  0  0  0  0  0  0  0
  -20.7600   -0.0420  -33.6950 C   0  0  0  0  0  0  0  0  0  0  0  0
  -20.5910   -0.9830  -32.5090 C   0  0  0  0  0  0  0  0  0  0  0  0
  -21.0240   -2.3140  -32.9330 N   0  0  0  0  0  0  0  0  0  0  0  0
  -21.7080   -2.3560  -34.1910 C   0  0  0  0  0  0  0  0  0  0  0  0
  -22.7630   -1.2810  -34.1780 C   0  0  0  0  0  0  0  0  0  0  0  0
  -20.7410   -3.4170  -32.1200 C   0  0  0  0  0  0  0  0  0  0  0  0
  -21.2080   -4.5790  -32.4610 O   0  0  0  0  0  0  0  0  0  0  0  0
  -19.9600   -3.4600  -30.8800 C   0  0  0  0  0  0  0  0  0  0  0  0
  -20.8180   -4.1830  -29.4880 S   0  0  0  0  0  0  0  0  0  0  0  0
  -20.0990   -3.7910  -27.9030 C   0  0  1  0  0  0  0  0  0  0  0  0
  -20.0040   -4.7040  -26.9440 N   0  0  0  0  0  0  0  0  0  0  0  0
  -19.4590   -4.4660  -25.7480 C   0  0  0  0  0  0  0  0  0  0  0  0
  -18.9730   -3.2110  -25.4980 N   0  0  0  0  0  0  0  0  0  0  0  0
  -19.0540   -2.2680  -26.4420 C   0  0  0  0  0  0  0  0  0  0  0  0
  -18.6450   -0.9660  -26.4510 N   0  0  0  0  0  0  0  0  0  0  0  0
  -18.9420   -0.4470  -27.6250 N   0  0  0  0  0  0  0  0  0  0  0  0
  -19.5350   -1.3570  -28.4000 C   0  0  0  0  0  0  0  0  0  0  0  0
  -19.6190   -2.5190  -27.6790 C   0  0  0  0  0  0  0  0  0  0  0  0
  -17.9950   -0.2890  -25.3680 C   0  0  0  0  0  0  0  0  0  0  0  0
  -22.6240   -0.2880  -36.8800 C   0  0  0  0  0  0  0  0  0  0  0  0
  -22.0040   -0.2720  -38.1080 C   0  0  0  0  0  0  0  0  0  0  0  0
  -22.3130   -1.1910  -39.0820 C   0  0  0  0  0  0  0  0  0  0  0  0
  -23.2750   -2.1710  -38.8370 C   0  0  0  0  0  0  0  0  0  0  0  0
  -23.9140   -2.1990  -37.5930 C   0  0  0  0  0  0  0  0  0  0  0  0
  -23.5870   -1.2670  -36.6330 C   0  0  0  0  0  0  0  0  0  0  0  0
  -23.6560   -3.3310  -40.0820 Cl  0  0  0  0  0  0  0  0  0  0  0  0
  -20.4670    0.9610  -33.3560 H   0  0  0  0  0  0  0  0  0  0  0  0
  -20.0950   -0.3520  -34.5040 H   0  0  0  0  0  0  0  0  0  0  0  0
  -19.5080   -1.0000  -32.2690 H   0  0  0  0  0  0  0  0  0  0  0  0
  -21.2050   -0.5930  -31.6930 H   0  0  0  0  0  0  0  0  0  0  0  0
  -22.1130   -3.3500  -34.4570 H   0  0  0  0  0  0  0  0  0  0  0  0
  -20.9490   -2.1480  -34.9920 H   0  0  0  0  0  0  0  0  0  0  0  0
  -23.4940   -1.4000  -34.9890 H   0  0  0  0  0  0  0  0  0  0  0  0
  -23.3540   -1.4630  -33.2290 H   0  0  0  0  0  0  0  0  0  0  0  0
  -19.7050   -2.4170  -30.6050 H   0  0  0  0  0  0  0  0  0  0  0  0
  -18.9830   -3.9820  -30.9700 H   0  0  0  0  0  0  0  0  0  0  0  0
  -19.4020   -5.2380  -25.0020 H   0  0  0  0  0  0  0  0  0  0  0  0
  -19.8760   -1.2120  -29.4000 H   0  0  0  0  0  0  0  0  0  0  0  0
  -17.2610   -0.9470  -24.8230 H   0  0  0  0  0  0  0  0  0  0  0  0
  -17.4630    0.6150  -25.7750 H   0  0  0  0  0  0  0  0  0  0  0  0
  -18.7720    0.0390  -24.6520 H   0  0  0  0  0  0  0  0  0  0  0  0
  -21.2610    0.4820  -38.2950 H   0  0  0  0  0  0  0  0  0  0  0  0
  -21.8420   -1.2070  -40.0510 H   0  0  0  0  0  0  0  0  0  0  0  0
  -24.6630   -2.9740  -37.4340 H   0  0  0  0  0  0  0  0  0  0  0  0
  -24.0710   -1.2850  -35.6850 H   0  0  0  0  0  0  0  0  0  0  0  0
  1  2  2  0  0  0  0
  1  4  1  0  0  0  0
  3  1  2  0  0  0  0
  4  5  1  0  0  0  0
  5 31  1  0  0  0  0
  5  6  1  0  0  0  0
  6 33  1  0  0  0  0
  6 34  1  0  0  0  0
  7  6  1  0  0  0  0
  7 10  1  0  0  0  0
  8  9  1  0  0  0  0
  8  7  1  0  0  0  0
  9  4  1  0  0  0  0
  9 38  1  0  0  0  0
 10 12  1  0  0  0  0
 11 10  2  0  0  0  0
 12 39  1  0  0  0  0
 12 13  1  0  0  0  0
 14 13  1  6  0  0  0
 14 22  1  0  0  0  0
 14 15  1  0  0  0  0
 15 16  2  0  0  0  0
 16 17  1  0  0  0  0
 16 41  1  0  0  0  0
 18 17  1  0  0  0  0
 19 18  1  0  0  0  0
 19 23  1  0  0  0  0
 20 19  1  0  0  0  0
 21 22  1  0  0  0  0
 21 20  2  0  0  0  0
 22 18  2  0  0  0  0
 23 43  1  0  0  0  0
 23 45  1  0  0  0  0
 24 29  1  0  0  0  0
 24  1  1  0  0  0  0
 25 24  2  0  0  0  0
 26 27  2  0  0  0  0
 26 25  1  0  0  0  0
 27 28  1  0  0  0  0
 28 48  1  0  0  0  0
 28 29  2  0  0  0  0
 29 49  1  0  0  0  0
 30 27  1  0  0  0  0
 32  5  1  0  0  0  0
 35  8  1  0  0  0  0
 36  8  1  0  0  0  0
 37  9  1  0  0  0  0
 40 12  1  0  0  0  0
 42 21  1  0  0  0  0
 44 23  1  0  0  0  0
 46 25  1  0  0  0  0
 47 26  1  0  0  0  0
M  END
>  <Pose>
1

>  <Score>
-7.75

$$$$
