
 OpenBabel03222201593D

 49 52  0  0  0  0  0  0  0  0999 V2000
  -22.7190   -0.5210  -34.4900 S   0  0  0  0  0  0  0  0  0  0  0  0
  -24.0200   -0.9070  -33.7990 O   0  0  0  0  0  0  0  0  0  0  0  0
  -22.1000    0.5350  -33.5810 O   0  0  0  0  0  0  0  0  0  0  0  0
  -21.7170   -1.8690  -34.4850 N   0  0  0  0  0  0  0  0  0  0  0  0
  -22.0910   -2.9180  -33.5680 C   0  0  0  0  0  0  0  0  0  0  0  0
  -20.9090   -3.1660  -32.6340 C   0  0  0  0  0  0  0  0  0  0  0  0
  -20.3380   -1.9300  -32.2540 N   0  0  0  0  0  0  0  0  0  0  0  0
  -19.5340   -1.3420  -33.4160 C   0  0  0  0  0  0  0  0  0  0  0  0
  -20.3260   -1.6500  -34.6360 C   0  0  0  0  0  0  0  0  0  0  0  0
  -20.4210   -1.1890  -31.1120 C   0  0  0  0  0  0  0  0  0  0  0  0
  -21.2230   -0.0910  -31.3310 O   0  0  0  0  0  0  0  0  0  0  0  0
  -19.9600   -1.1660  -29.7790 C   0  0  0  0  0  0  0  0  0  0  0  0
  -19.8190   -1.9310  -28.7480 C   0  0  0  0  0  0  0  0  0  0  0  0
  -20.1950   -3.2820  -28.7190 N   0  0  0  0  0  0  0  0  0  0  0  0
  -19.9950   -4.1510  -27.6230 N   0  0  0  0  0  0  0  0  0  0  0  0
  -19.3800   -3.6540  -26.4690 C   0  0  0  0  0  0  0  0  0  0  0  0
  -19.1950   -4.4160  -25.4850 O   0  0  0  0  0  0  0  0  0  0  0  0
  -18.9640   -2.2410  -26.4400 C   0  0  0  0  0  0  0  0  0  0  0  0
  -19.1620   -1.3970  -27.5170 C   0  0  0  0  0  0  0  0  0  0  0  0
  -18.7480   -0.1080  -27.4060 C   0  0  0  0  0  0  0  0  0  0  0  0
  -18.1380    0.3310  -26.2270 C   0  0  0  0  0  0  0  0  0  0  0  0
  -17.9390   -0.5020  -25.1540 C   0  0  0  0  0  0  0  0  0  0  0  0
  -18.3610   -1.8080  -25.2710 C   0  0  0  0  0  0  0  0  0  0  0  0
  -22.9960    0.2000  -36.0260 C   0  0  0  0  0  0  0  0  0  0  0  0
  -22.1780    1.1900  -36.5110 C   0  0  0  0  0  0  0  0  0  0  0  0
  -22.4210    1.7550  -37.7490 C   0  0  0  0  0  0  0  0  0  0  0  0
  -23.4780    1.3570  -38.5370 C   0  0  0  0  0  0  0  0  0  0  0  0
  -24.3080    0.3590  -38.0530 C   0  0  0  0  0  0  0  0  0  0  0  0
  -24.0510   -0.2030  -36.8040 C   0  0  0  0  0  0  0  0  0  0  0  0
  -23.7430    2.1060  -40.0990 Cl  0  0  0  0  0  0  0  0  0  0  0  0
  -23.0230   -2.7330  -33.0220 H   0  0  0  0  0  0  0  0  0  0  0  0
  -22.2250   -3.8470  -34.1570 H   0  0  0  0  0  0  0  0  0  0  0  0
  -20.1450   -3.6860  -33.3370 H   0  0  0  0  0  0  0  0  0  0  0  0
  -21.0730   -3.8960  -31.8640 H   0  0  0  0  0  0  0  0  0  0  0  0
  -18.5970   -1.9230  -33.3720 H   0  0  0  0  0  0  0  0  0  0  0  0
  -19.3470   -0.2790  -33.2130 H   0  0  0  0  0  0  0  0  0  0  0  0
  -19.8870   -2.5860  -35.0940 H   0  0  0  0  0  0  0  0  0  0  0  0
  -20.1930   -0.8740  -35.4250 H   0  0  0  0  0  0  0  0  0  0  0  0
  -19.5820   -0.0940  -29.5300 H   0  0  0  0  0  0  0  0  0  0  0  0
  -20.6870   -3.7070  -29.5080 H   0  0  0  0  0  0  0  0  0  0  0  0
  -20.3220   -5.1580  -27.7200 H   0  0  0  0  0  0  0  0  0  0  0  0
  -18.8710    0.6040  -28.2050 H   0  0  0  0  0  0  0  0  0  0  0  0
  -17.8270    1.3570  -26.1840 H   0  0  0  0  0  0  0  0  0  0  0  0
  -17.4670   -0.1750  -24.2320 H   0  0  0  0  0  0  0  0  0  0  0  0
  -18.2290   -2.5200  -24.4480 H   0  0  0  0  0  0  0  0  0  0  0  0
  -21.3220    1.5720  -35.9690 H   0  0  0  0  0  0  0  0  0  0  0  0
  -21.7790    2.5470  -38.1540 H   0  0  0  0  0  0  0  0  0  0  0  0
  -25.1460    0.0350  -38.6660 H   0  0  0  0  0  0  0  0  0  0  0  0
  -24.7580   -0.9860  -36.5010 H   0  0  0  0  0  0  0  0  0  0  0  0
  1  4  1  0  0  0  0
  1  2  2  0  0  0  0
  1  3  2  0  0  0  0
  4  5  1  0  0  0  0
  5 31  1  0  0  0  0
  5  6  1  0  0  0  0
  6  7  1  0  0  0  0
  6 34  1  0  0  0  0
  7 10  1  0  0  0  0
  8 35  1  0  0  0  0
  8 36  1  0  0  0  0
  8  7  1  0  0  0  0
  9  4  1  0  0  0  0
  9  8  1  0  0  0  0
 10 12  1  0  0  0  0
 11 10  2  0  0  0  0
 12 39  1  0  0  0  0
 12 13  2  0  0  0  0
 13 14  1  0  0  0  0
 13 19  1  0  0  0  0
 14 15  1  0  0  0  0
 15 16  1  0  0  0  0
 16 18  1  0  0  0  0
 16 17  2  0  0  0  0
 18 23  1  0  0  0  0
 19 20  1  0  0  0  0
 19 18  2  0  0  0  0
 20 21  2  0  0  0  0
 21 43  1  0  0  0  0
 21 22  1  0  0  0  0
 22 44  1  0  0  0  0
 23 22  2  0  0  0  0
 23 45  1  0  0  0  0
 24  1  1  0  0  0  0
 25 24  1  0  0  0  0
 25 46  1  0  0  0  0
 26 25  2  0  0  0  0
 27 28  2  0  0  0  0
 27 26  1  0  0  0  0
 28 29  1  0  0  0  0
 29 49  1  0  0  0  0
 29 24  2  0  0  0  0
 30 27  1  0  0  0  0
 32  5  1  0  0  0  0
 33  6  1  0  0  0  0
 37  9  1  0  0  0  0
 38  9  1  0  0  0  0
 40 14  1  0  0  0  0
 41 15  1  0  0  0  0
 42 20  1  0  0  0  0
 47 26  1  0  0  0  0
 48 28  1  0  0  0  0
M  END
>  <Pose>
1

>  <Score>
-7.23

$$$$
