
 OpenBabel03222201593D

 44 46  0  0  0  0  0  0  0  0999 V2000
  -20.4310   -3.4800  -28.4830 Cl  0  0  0  0  0  0  0  0  0  0  0  0
  -20.3610   -2.9640  -30.1390 C   0  0  0  0  0  0  0  0  0  0  0  0
  -19.9600   -1.6960  -30.4720 C   0  0  0  0  0  0  0  0  0  0  0  0
  -19.9270   -1.3470  -31.8040 C   0  0  0  0  0  0  0  0  0  0  0  0
  -20.2760   -2.2080  -32.8220 C   0  0  0  0  0  0  0  0  0  0  0  0
  -20.6760   -3.4770  -32.4700 C   0  0  0  0  0  0  0  0  0  0  0  0
  -20.7130   -3.8350  -31.1400 C   0  0  0  0  0  0  0  0  0  0  0  0
  -20.2310   -1.8120  -34.2160 N   0  0  0  0  0  0  0  0  0  0  0  0
  -19.8500   -0.4690  -34.4800 C   0  0  0  0  0  0  0  0  0  0  0  0
  -20.7550    0.3700  -35.2610 C   0  0  0  0  0  0  0  0  0  0  0  0
  -20.1390    1.0090  -36.2250 O   0  0  0  0  0  0  0  0  0  0  0  0
  -22.1050    0.6040  -35.1710 N   0  0  0  0  0  0  0  0  0  0  0  0
  -23.1460   -0.2480  -35.6490 C   0  0  0  0  0  0  0  0  0  0  0  0
  -24.0370   -0.6280  -34.4700 C   0  0  0  0  0  0  0  0  0  0  0  0
  -24.6060    0.5930  -34.0440 O   0  0  0  0  0  0  0  0  0  0  0  0
  -23.6170    1.3470  -33.4520 C   0  0  0  0  0  0  0  0  0  0  0  0
  -22.5960    1.8220  -34.4910 C   0  0  0  0  0  0  0  0  0  0  0  0
  -19.5930   -0.7410  -29.5070 N   0  0  0  0  0  0  0  0  0  0  0  0
  -19.5650    0.5590  -29.7150 N   0  0  0  0  0  0  0  0  0  0  0  0
  -19.1910    1.1860  -28.6150 N   0  0  0  0  0  0  0  0  0  0  0  0
  -18.9830    0.2530  -27.7080 N   0  0  0  0  0  0  0  0  0  0  0  0
  -19.2320   -0.9750  -28.2530 C   0  0  0  0  0  0  0  0  0  0  0  0
  -19.0790   -2.2160  -27.4950 C   0  0  0  0  0  0  0  0  0  0  0  0
  -18.8050   -2.3130  -26.0670 C   0  0  0  0  0  0  0  0  0  0  0  0
  -20.2560   -2.5350  -26.5260 C   0  0  0  0  0  0  0  0  0  0  0  0
  -19.6080   -0.3310  -32.0970 H   0  0  0  0  0  0  0  0  0  0  0  0
  -20.9500   -4.1530  -33.2760 H   0  0  0  0  0  0  0  0  0  0  0  0
  -21.0400   -4.8600  -30.9170 H   0  0  0  0  0  0  0  0  0  0  0  0
  -20.4630   -2.4720  -34.9640 H   0  0  0  0  0  0  0  0  0  0  0  0
  -18.8840   -0.5210  -35.0730 H   0  0  0  0  0  0  0  0  0  0  0  0
  -19.5210    0.0610  -33.5410 H   0  0  0  0  0  0  0  0  0  0  0  0
  -23.8320    0.4670  -36.2470 H   0  0  0  0  0  0  0  0  0  0  0  0
  -22.8870   -1.0560  -36.3130 H   0  0  0  0  0  0  0  0  0  0  0  0
  -24.7870   -1.3510  -34.7910 H   0  0  0  0  0  0  0  0  0  0  0  0
  -23.4870   -1.0150  -33.6140 H   0  0  0  0  0  0  0  0  0  0  0  0
  -23.1140    0.7460  -32.6680 H   0  0  0  0  0  0  0  0  0  0  0  0
  -24.0490    2.2280  -32.9590 H   0  0  0  0  0  0  0  0  0  0  0  0
  -21.7970    2.3810  -34.0120 H   0  0  0  0  0  0  0  0  0  0  0  0
  -23.1710    2.3740  -35.2610 H   0  0  0  0  0  0  0  0  0  0  0  0
  -18.8400   -3.1520  -28.0970 H   0  0  0  0  0  0  0  0  0  0  0  0
  -18.2480   -3.2270  -25.6960 H   0  0  0  0  0  0  0  0  0  0  0  0
  -18.7380   -1.5010  -25.3480 H   0  0  0  0  0  0  0  0  0  0  0  0
  -20.5860   -3.5780  -26.4360 H   0  0  0  0  0  0  0  0  0  0  0  0
  -21.0030   -1.7630  -26.3650 H   0  0  0  0  0  0  0  0  0  0  0  0
  3  2  1  0  0  0  0
  3 18  1  0  0  0  0
  4  3  2  0  0  0  0
  5  6  2  0  0  0  0
  5  4  1  0  0  0  0
  6  7  1  0  0  0  0
  7 28  1  0  0  0  0
  7  2  2  0  0  0  0
  8  5  1  0  0  0  0
  9  8  1  0  0  0  0
  9 31  1  0  0  0  0
 10 12  1  0  0  0  0
 10  9  1  0  0  0  0
 11 10  2  0  0  0  0
 12 17  1  0  0  0  0
 13 12  1  0  0  0  0
 13 14  1  0  0  0  0
 14 15  1  0  0  0  0
 14 35  1  0  0  0  0
 15 16  1  0  0  0  0
 16 37  1  0  0  0  0
 16 36  1  0  0  0  0
 17 38  1  0  0  0  0
 17 16  1  0  0  0  0
 18 22  1  0  0  0  0
 19 18  1  0  0  0  0
 19 20  2  0  0  0  0
 20 21  1  0  0  0  0
 22 21  2  0  0  0  0
 22 23  1  0  0  0  0
 23 25  1  0  0  0  0
 23 24  1  0  0  0  0
 24 41  1  0  0  0  0
 24 42  1  0  0  0  0
 25 43  1  0  0  0  0
 25 44  1  0  0  0  0
 25 24  1  0  0  0  0
 26  4  1  0  0  0  0
 27  6  1  0  0  0  0
 29  8  1  0  0  0  0
 30  9  1  0  0  0  0
 32 13  1  0  0  0  0
 33 13  1  0  0  0  0
 34 14  1  0  0  0  0
 39 17  1  0  0  0  0
 40 23  1  0  0  0  0
M  END
>  <Pose>
1

>  <Score>
-5.43

$$$$
