
 OpenBabel03222201593D

 49 52  0  0  1  0  0  0  0  0999 V2000
  -15.4520    3.5370  -21.2590 B   0  0  0  0  0  0  0  0  0  0  0  0
  -16.2890    2.8240  -22.8240 C   0  0  0  0  0  0  0  0  0  0  0  0
  -17.1160    1.7260  -22.7650 C   0  0  0  0  0  0  0  0  0  0  0  0
  -17.7300    1.2000  -23.8950 C   0  0  0  0  0  0  0  0  0  0  0  0
  -17.5210    1.7750  -25.1310 C   0  0  0  0  0  0  0  0  0  0  0  0
  -16.6890    2.8800  -25.1880 C   0  0  0  0  0  0  0  0  0  0  0  0
  -16.0800    3.4040  -24.0660 C   0  0  0  0  0  0  0  0  0  0  0  0
  -18.1270    1.2800  -26.3490 C   0  0  0  0  0  0  0  0  0  0  0  0
  -18.6640    2.1420  -27.3010 C   0  0  0  0  0  0  0  0  0  0  0  0
  -19.2170    1.7140  -28.4100 O   0  0  0  0  0  0  0  0  0  0  0  0
  -19.3090    0.4410  -28.7140 C   0  0  0  0  0  0  0  0  0  0  0  0
  -18.8060   -0.4890  -27.8340 C   0  0  0  0  0  0  0  0  0  0  0  0
  -18.9250   -1.8090  -28.1930 C   0  0  0  0  0  0  0  0  0  0  0  0
  -19.5080   -2.2250  -29.3620 C   0  0  0  0  0  0  0  0  0  0  0  0
  -20.0310   -1.2890  -30.2780 C   0  0  0  0  0  0  0  0  0  0  0  0
  -19.9080    0.0310  -29.9120 C   0  0  0  0  0  0  0  0  0  0  0  0
  -20.6100   -1.7470  -31.4430 O   0  0  0  0  0  0  0  0  0  0  0  0
  -20.8460   -1.0230  -32.5740 C   0  0  2  0  0  0  0  0  0  0  0  0
  -22.2060   -1.0480  -32.9830 O   0  0  0  0  0  0  0  0  0  0  0  0
  -22.3800    0.0810  -33.7520 C   0  0  1  0  0  0  0  0  0  0  0  0
  -21.5790    0.1010  -35.0170 C   0  0  2  0  0  0  0  0  0  0  0  0
  -20.1610   -0.3770  -34.8090 C   0  0  1  0  0  0  0  0  0  0  0  0
  -20.0870   -1.5020  -33.7980 C   0  0  1  0  0  0  0  0  0  0  0  0
  -18.7470   -1.7350  -33.5140 O   0  0  0  0  0  0  0  0  0  0  0  0
  -19.6040   -0.7250  -36.0330 O   0  0  0  0  0  0  0  0  0  0  0  0
  -21.4930    1.4390  -35.4320 O   0  0  0  0  0  0  0  0  0  0  0  0
  -23.8280    0.3680  -34.0600 C   0  0  0  0  0  0  0  0  0  0  0  0
  -24.2720    1.5370  -33.4470 O   0  0  0  0  0  0  0  0  0  0  0  0
  -18.2190   -0.0720  -26.6590 C   0  0  0  0  0  0  0  0  0  0  0  0
  -17.7570   -0.9230  -25.8520 O   0  0  0  0  0  0  0  0  0  0  0  0
  -17.2920    1.2580  -21.7990 H   0  0  0  0  0  0  0  0  0  0  0  0
  -18.3750    0.3430  -23.8530 H   0  0  0  0  0  0  0  0  0  0  0  0
  -16.5230    3.3380  -26.1660 H   0  0  0  0  0  0  0  0  0  0  0  0
  -15.4270    4.2700  -24.1110 H   0  0  0  0  0  0  0  0  0  0  0  0
  -18.5910    3.2060  -27.0550 H   0  0  0  0  0  0  0  0  0  0  0  0
  -18.5190   -2.5350  -27.4840 H   0  0  0  0  0  0  0  0  0  0  0  0
  -19.5980   -3.2680  -29.6370 H   0  0  0  0  0  0  0  0  0  0  0  0
  -20.2870    0.7930  -30.5670 H   0  0  0  0  0  0  0  0  0  0  0  0
  -20.5700    0.0360  -32.4460 H   0  0  0  0  0  0  0  0  0  0  0  0
  -22.0200    0.9480  -33.1300 H   0  0  0  0  0  0  0  0  0  0  0  0
  -22.0720   -0.4610  -35.8500 H   0  0  0  0  0  0  0  0  0  0  0  0
  -19.5740    0.4650  -34.3870 H   0  0  0  0  0  0  0  0  0  0  0  0
  -20.5930   -2.4260  -34.1510 H   0  0  0  0  0  0  0  0  0  0  0  0
  -18.1640   -1.2560  -34.1490 H   0  0  0  0  0  0  0  0  0  0  0  0
  -19.0200   -1.5410  -35.9640 H   0  0  0  0  0  0  0  0  0  0  0  0
  -21.0600    1.5030  -36.3200 H   0  0  0  0  0  0  0  0  0  0  0  0
  -24.4760   -0.4960  -33.8130 H   0  0  0  0  0  0  0  0  0  0  0  0
  -23.9690    0.5330  -35.1630 H   0  0  0  0  0  0  0  0  0  0  0  0
  -25.1020    1.8040  -33.9520 H   0  0  0  0  0  0  0  0  0  0  0  0
  2  3  1  0  0  0  0
  2  1  1  0  0  0  0
  3 31  1  0  0  0  0
  4 32  1  0  0  0  0
  4  3  2  0  0  0  0
  5  4  1  0  0  0  0
  6  5  2  0  0  0  0
  6  7  1  0  0  0  0
  7  2  2  0  0  0  0
  8  5  1  0  0  0  0
  9 35  1  0  0  0  0
  9  8  2  0  0  0  0
 10  9  1  0  0  0  0
 11 10  1  0  0  0  0
 11 12  1  0  0  0  0
 12 29  1  0  0  0  0
 13 12  2  0  0  0  0
 13 36  1  0  0  0  0
 14 13  1  0  0  0  0
 15 16  1  0  0  0  0
 15 14  2  0  0  0  0
 16 11  2  0  0  0  0
 17 15  1  0  0  0  0
 18 39  1  1  0  0  0
 18 17  1  0  0  0  0
 19 18  1  0  0  0  0
 20 40  1  1  0  0  0
 20 19  1  0  0  0  0
 21 41  1  6  0  0  0
 21 22  1  0  0  0  0
 21 20  1  0  0  0  0
 22 42  1  1  0  0  0
 22 23  1  0  0  0  0
 23 43  1  6  0  0  0
 23 24  1  0  0  0  0
 23 18  1  0  0  0  0
 25 45  1  0  0  0  0
 25 22  1  0  0  0  0
 26 21  1  0  0  0  0
 27 47  1  0  0  0  0
 27 20  1  0  0  0  0
 27 28  1  0  0  0  0
 29  8  1  0  0  0  0
 29 30  2  0  0  0  0
 33  6  1  0  0  0  0
 34  7  1  0  0  0  0
 37 14  1  0  0  0  0
 38 16  1  0  0  0  0
 44 24  1  0  0  0  0
 46 26  1  0  0  0  0
 48 27  1  0  0  0  0
 49 28  1  0  0  0  0
M  END
>  <Pose>
1

>  <Score>
-7.42

$$$$
