
 OpenBabel03222201593D

 45 48  0  0  0  0  0  0  0  0999 V2000
  -22.6800   -1.2850  -34.8010 S   0  0  0  0  0  0  0  0  0  0  0  0
  -24.0200   -1.5950  -34.1710 O   0  0  0  0  0  0  0  0  0  0  0  0
  -22.2860    0.0810  -34.3810 O   0  0  0  0  0  0  0  0  0  0  0  0
  -21.5450   -2.4700  -34.2790 N   0  0  0  0  0  0  0  0  0  0  0  0
  -22.2400   -3.6410  -33.8850 C   0  0  0  0  0  0  0  0  0  0  0  0
  -21.9100   -4.2260  -32.5410 C   0  0  0  0  0  0  0  0  0  0  0  0
  -21.5570   -3.1740  -31.6460 N   0  0  0  0  0  0  0  0  0  0  0  0
  -20.3080   -2.6100  -32.1580 C   0  0  0  0  0  0  0  0  0  0  0  0
  -20.6060   -1.8860  -33.4170 C   0  0  0  0  0  0  0  0  0  0  0  0
  -21.4300   -3.5550  -30.2810 C   0  0  0  0  0  0  0  0  0  0  0  0
  -20.0150   -3.8360  -29.9090 C   0  0  0  0  0  0  0  0  0  0  0  0
  -19.5590   -3.0140  -28.8080 N   0  0  0  0  0  0  0  0  0  0  0  0
  -19.5190   -3.3420  -27.5170 N   0  0  0  0  0  0  0  0  0  0  0  0
  -19.0240   -2.3290  -26.7920 C   0  0  0  0  0  0  0  0  0  0  0  0
  -18.7440   -1.3350  -27.6430 N   0  0  0  0  0  0  0  0  0  0  0  0
  -18.2250   -0.1620  -27.2070 C   0  0  0  0  0  0  0  0  0  0  0  0
  -17.9580    0.0710  -25.8770 C   0  0  0  0  0  0  0  0  0  0  0  0
  -18.2370   -0.9380  -24.9760 C   0  0  0  0  0  0  0  0  0  0  0  0
  -18.7640   -2.1200  -25.4500 C   0  0  0  0  0  0  0  0  0  0  0  0
  -19.0820   -1.7710  -28.8920 C   0  0  0  0  0  0  0  0  0  0  0  0
  -18.9310   -1.0440  -29.9020 O   0  0  0  0  0  0  0  0  0  0  0  0
  -22.8060   -1.2970  -36.5670 C   0  0  0  0  0  0  0  0  0  0  0  0
  -21.9000   -0.4300  -37.7210 S   0  0  0  0  0  0  0  0  0  0  0  0
  -22.6380   -1.0060  -39.1420 C   0  0  0  0  0  0  0  0  0  0  0  0
  -23.5870   -1.8730  -38.6700 C   0  0  0  0  0  0  0  0  0  0  0  0
  -23.6740   -2.0230  -37.3420 C   0  0  0  0  0  0  0  0  0  0  0  0
  -22.2590   -0.5690  -40.9810 B   0  0  0  0  0  0  0  0  0  0  0  0
  -23.3450   -3.3830  -33.8460 H   0  0  0  0  0  0  0  0  0  0  0  0
  -22.0940   -4.4170  -34.6980 H   0  0  0  0  0  0  0  0  0  0  0  0
  -22.7920   -4.8270  -32.2360 H   0  0  0  0  0  0  0  0  0  0  0  0
  -21.0250   -4.9050  -32.7290 H   0  0  0  0  0  0  0  0  0  0  0  0
  -19.8420   -1.9260  -31.4380 H   0  0  0  0  0  0  0  0  0  0  0  0
  -19.6700   -3.4900  -32.4060 H   0  0  0  0  0  0  0  0  0  0  0  0
  -20.9120   -0.8380  -33.1300 H   0  0  0  0  0  0  0  0  0  0  0  0
  -19.6320   -1.7940  -33.9780 H   0  0  0  0  0  0  0  0  0  0  0  0
  -21.8090   -2.7500  -29.5780 H   0  0  0  0  0  0  0  0  0  0  0  0
  -22.0520   -4.4800  -30.1100 H   0  0  0  0  0  0  0  0  0  0  0  0
  -19.9420   -4.9030  -29.5550 H   0  0  0  0  0  0  0  0  0  0  0  0
  -19.3090   -3.6790  -30.7680 H   0  0  0  0  0  0  0  0  0  0  0  0
  -18.0070    0.6300  -27.9190 H   0  0  0  0  0  0  0  0  0  0  0  0
  -17.5430    1.0000  -25.5120 H   0  0  0  0  0  0  0  0  0  0  0  0
  -18.0310   -0.7680  -23.9190 H   0  0  0  0  0  0  0  0  0  0  0  0
  -18.9780   -2.8990  -24.7390 H   0  0  0  0  0  0  0  0  0  0  0  0
  -24.2400   -2.4120  -39.3900 H   0  0  0  0  0  0  0  0  0  0  0  0
  -24.4150   -2.7060  -36.8600 H   0  0  0  0  0  0  0  0  0  0  0  0
  1  3  2  0  0  0  0
  1  4  1  0  0  0  0
  1  2  2  0  0  0  0
  4  5  1  0  0  0  0
  4  9  1  0  0  0  0
  5 28  1  0  0  0  0
  5  6  1  0  0  0  0
  6 30  1  0  0  0  0
  6  7  1  0  0  0  0
  7 10  1  0  0  0  0
  8  7  1  0  0  0  0
  8 32  1  0  0  0  0
  9 34  1  0  0  0  0
  9  8  1  0  0  0  0
 10 37  1  0  0  0  0
 10 11  1  0  0  0  0
 10 36  1  0  0  0  0
 11 38  1  0  0  0  0
 11 12  1  0  0  0  0
 12 13  1  0  0  0  0
 13 14  2  0  0  0  0
 14 19  1  0  0  0  0
 15 16  1  0  0  0  0
 15 14  1  0  0  0  0
 16 17  2  0  0  0  0
 17 41  1  0  0  0  0
 17 18  1  0  0  0  0
 18 42  1  0  0  0  0
 19 18  2  0  0  0  0
 19 43  1  0  0  0  0
 20 12  1  0  0  0  0
 20 15  1  0  0  0  0
 21 20  2  0  0  0  0
 22  1  1  0  0  0  0
 23 22  1  0  0  0  0
 24 25  2  0  0  0  0
 24 23  1  0  0  0  0
 25 26  1  0  0  0  0
 26 45  1  0  0  0  0
 26 22  2  0  0  0  0
 27 24  1  0  0  0  0
 29  5  1  0  0  0  0
 31  6  1  0  0  0  0
 33  8  1  0  0  0  0
 35  9  1  0  0  0  0
 39 11  1  0  0  0  0
 40 16  1  0  0  0  0
 44 25  1  0  0  0  0
M  END
>  <Pose>
1

>  <Score>
-6.43

$$$$
