
 OpenBabel03222201593D

 52 55  0  0  0  0  0  0  0  0999 V2000
  -21.8760   -0.8120  -36.6490 Cl  0  0  0  0  0  0  0  0  0  0  0  0
  -21.2430   -1.1260  -35.0150 C   0  0  0  0  0  0  0  0  0  0  0  0
  -21.7040   -2.1670  -34.2180 C   0  0  0  0  0  0  0  0  0  0  0  0
  -21.2540   -2.3550  -32.9230 C   0  0  0  0  0  0  0  0  0  0  0  0
  -20.3030   -1.4740  -32.3750 C   0  0  0  0  0  0  0  0  0  0  0  0
  -19.8680   -0.4780  -33.1740 C   0  0  0  0  0  0  0  0  0  0  0  0
  -20.3040   -0.2680  -34.4700 C   0  0  0  0  0  0  0  0  0  0  0  0
  -19.9160   -1.7070  -30.9690 C   0  0  0  0  0  0  0  0  0  0  0  0
  -20.1670   -2.9050  -30.3400 C   0  0  0  0  0  0  0  0  0  0  0  0
  -19.8800   -3.0210  -28.9720 C   0  0  0  0  0  0  0  0  0  0  0  0
  -19.3520   -1.9680  -28.2580 C   0  0  0  0  0  0  0  0  0  0  0  0
  -19.0370   -1.9870  -26.8980 C   0  0  0  0  0  0  0  0  0  0  0  0
  -19.3230   -3.2270  -26.2730 C   0  0  0  0  0  0  0  0  0  0  0  0
  -19.8610   -4.3120  -26.9590 C   0  0  0  0  0  0  0  0  0  0  0  0
  -20.1380   -4.1950  -28.3110 C   0  0  0  0  0  0  0  0  0  0  0  0
  -19.0920   -3.4590  -24.9310 O   0  0  0  0  0  0  0  0  0  0  0  0
  -18.6470   -0.9040  -26.0660 C   0  0  0  0  0  0  0  0  0  0  0  0
  -17.4900   -0.9020  -25.2080 N   0  0  0  0  0  4  0  0  0  0  0  0
  -16.3030   -0.3180  -25.8910 C   0  0  0  0  0  0  0  0  0  0  0  0
  -16.7130    0.8620  -26.6980 C   0  0  0  0  0  0  0  0  0  0  0  0
  -17.3090    1.9450  -25.9510 N   0  0  0  0  0  0  0  0  0  0  0  0
  -17.9820    1.5070  -24.7750 C   0  0  0  0  0  0  0  0  0  0  0  0
  -17.7050    0.1950  -24.2100 C   0  0  0  0  0  0  0  0  0  0  0  0
  -18.2260    2.7110  -26.8090 C   0  0  0  0  0  0  0  0  0  0  0  0
  -17.9580    4.1970  -26.7460 C   0  0  0  0  0  0  0  0  0  0  0  0
  -19.0460    4.9180  -26.2760 O   0  0  0  0  0  0  0  0  0  0  0  0
  -19.1370   -0.8800  -28.8790 O   0  0  0  0  0  0  0  0  0  0  0  0
  -19.3790   -0.6720  -30.1760 C   0  0  0  0  0  0  0  0  0  0  0  0
  -19.1370    0.4130  -30.7180 O   0  0  0  0  0  0  0  0  0  0  0  0
  -22.4420   -2.8180  -34.6520 H   0  0  0  0  0  0  0  0  0  0  0  0
  -21.6320   -3.1690  -32.3160 H   0  0  0  0  0  0  0  0  0  0  0  0
  -19.1290    0.2370  -32.8290 H   0  0  0  0  0  0  0  0  0  0  0  0
  -19.9230    0.5420  -35.0730 H   0  0  0  0  0  0  0  0  0  0  0  0
  -20.5710   -3.7570  -30.8570 H   0  0  0  0  0  0  0  0  0  0  0  0
  -20.0330   -5.2590  -26.5060 H   0  0  0  0  0  0  0  0  0  0  0  0
  -20.6080   -5.0390  -28.8530 H   0  0  0  0  0  0  0  0  0  0  0  0
  -19.4660   -1.0230  -25.1640 H   0  0  0  0  0  0  0  0  0  0  0  0
  -18.9790    0.0510  -26.3980 H   0  0  0  0  0  0  0  0  0  0  0  0
  -17.2630   -1.7020  -24.6630 H   0  0  0  0  0  0  0  0  0  0  0  0
  -15.6810   -1.0320  -26.3970 H   0  0  0  0  0  0  0  0  0  0  0  0
  -15.6480    0.0780  -25.0300 H   0  0  0  0  0  0  0  0  0  0  0  0
  -17.3470    0.5760  -27.5460 H   0  0  0  0  0  0  0  0  0  0  0  0
  -15.7580    1.2740  -27.1340 H   0  0  0  0  0  0  0  0  0  0  0  0
  -19.0750    1.6670  -24.9240 H   0  0  0  0  0  0  0  0  0  0  0  0
  -17.7260    2.2670  -23.9460 H   0  0  0  0  0  0  0  0  0  0  0  0
  -18.5220   -0.1610  -23.5400 H   0  0  0  0  0  0  0  0  0  0  0  0
  -16.7330    0.2620  -23.6280 H   0  0  0  0  0  0  0  0  0  0  0  0
  -19.2370    2.4940  -26.4570 H   0  0  0  0  0  0  0  0  0  0  0  0
  -18.1600    2.4250  -27.8780 H   0  0  0  0  0  0  0  0  0  0  0  0
  -17.4930    4.6190  -27.6280 H   0  0  0  0  0  0  0  0  0  0  0  0
  -17.1390    4.2790  -25.9480 H   0  0  0  0  0  0  0  0  0  0  0  0
  -19.8870    4.4390  -26.5640 H   0  0  0  0  0  0  0  0  0  0  0  0
  1  2  1  0  0  0  0
  2  7  2  0  0  0  0
  2  3  1  0  0  0  0
  3  4  2  0  0  0  0
  4  5  1  0  0  0  0
  4 31  1  0  0  0  0
  5  8  1  0  0  0  0
  6 32  1  0  0  0  0
  6  5  2  0  0  0  0
  7  6  1  0  0  0  0
  8  9  2  0  0  0  0
  8 28  1  0  0  0  0
  9 10  1  0  0  0  0
 10 15  2  0  0  0  0
 10 11  1  0  0  0  0
 11 12  2  0  0  0  0
 12 13  1  0  0  0  0
 12 17  1  0  0  0  0
 13 16  1  0  0  0  0
 14 35  1  0  0  0  0
 14 13  2  0  0  0  0
 15 14  1  0  0  0  0
 17 18  1  0  0  0  0
 17 37  1  0  0  0  0
 18 39  1  0  0  0  0
 18 23  1  0  0  0  0
 19 18  1  0  0  0  0
 19 41  1  0  0  0  0
 20 21  1  0  0  0  0
 20 19  1  0  0  0  0
 21 22  1  0  0  0  0
 22 23  1  0  0  0  0
 22 45  1  0  0  0  0
 23 47  1  0  0  0  0
 23 46  1  0  0  0  0
 24 25  1  0  0  0  0
 24 48  1  0  0  0  0
 24 21  1  0  0  0  0
 25 26  1  0  0  0  0
 25 51  1  0  0  0  0
 27 11  1  0  0  0  0
 28 27  1  0  0  0  0
 29 28  2  0  0  0  0
 30  3  1  0  0  0  0
 33  7  1  0  0  0  0
 34  9  1  0  0  0  0
 36 15  1  0  0  0  0
 38 17  1  0  0  0  0
 40 19  1  0  0  0  0
 42 20  1  0  0  0  0
 43 20  1  0  0  0  0
 44 22  1  0  0  0  0
 49 24  1  0  0  0  0
 50 25  1  0  0  0  0
 52 26  1  0  0  0  0
M  END
>  <Pose>
1

>  <Score>
-6.84

$$$$
