
 OpenBabel03222201593D

 54 57  0  0  0  0  0  0  0  0999 V2000
  -21.9450    7.7400  -23.2290 B   0  0  0  0  0  0  0  0  0  0  0  0
  -20.4560    6.6740  -23.7610 C   0  0  0  0  0  0  0  0  0  0  0  0
  -19.6650    6.0410  -22.8280 C   0  0  0  0  0  0  0  0  0  0  0  0
  -18.5790    5.2650  -23.2360 C   0  0  0  0  0  0  0  0  0  0  0  0
  -18.3150    5.1450  -24.5690 C   0  0  0  0  0  0  0  0  0  0  0  0
  -19.0890    5.7660  -25.5060 C   0  0  0  0  0  0  0  0  0  0  0  0
  -20.1590    6.5290  -25.1060 C   0  0  0  0  0  0  0  0  0  0  0  0
  -17.1010    4.3230  -24.9620 C   0  0  0  0  0  0  0  0  0  0  0  0
  -17.4570    3.2770  -25.8860 N   0  0  0  0  0  0  0  0  0  0  0  0
  -17.6060    1.9590  -25.5310 C   0  0  0  0  0  0  0  0  0  0  0  0
  -17.9160    1.2120  -26.6510 C   0  0  0  0  0  0  0  0  0  0  0  0
  -17.9520    2.0880  -27.6590 N   0  0  0  0  0  0  0  0  0  0  0  0
  -17.6760    3.3500  -27.1990 C   0  0  0  0  0  0  0  0  0  0  0  0
  -17.7450    4.4730  -28.0390 N   0  0  0  0  0  0  0  0  0  0  0  0
  -18.5210    4.6920  -29.2070 C   0  0  0  0  0  0  0  0  0  0  0  0
  -17.8520    5.6790  -30.1700 C   0  0  0  0  0  0  0  0  0  0  0  0
  -16.4560    5.7860  -30.0590 N   0  0  0  0  0  0  0  0  0  0  0  0
  -15.9160    5.9290  -28.7650 C   0  0  0  0  0  0  0  0  0  0  0  0
  -16.8990    5.6360  -27.6550 C   0  0  0  0  0  0  0  0  0  0  0  0
  -15.6270    5.3380  -31.1000 C   0  0  0  0  0  0  0  0  0  0  0  0
  -15.0070    6.3570  -31.9600 C   0  0  0  0  0  0  0  0  0  0  0  0
  -14.2660    7.2700  -31.5080 O   0  0  0  0  0  0  0  0  0  0  0  0
  -15.2310    6.3330  -33.3200 O   0  0  0  0  0  0  0  0  0  0  0  0
  -14.3930    6.9820  -34.2360 C   0  0  0  0  0  0  0  0  0  0  0  0
  -18.1190   -0.1170  -26.5640 N   0  0  0  0  0  0  0  0  0  0  0  0
  -18.0150   -0.6970  -25.3600 C   0  0  0  0  0  0  0  0  0  0  0  0
  -18.2070   -1.9370  -25.2920 O   0  0  0  0  0  0  0  0  0  0  0  0
  -17.7190   -0.0080  -24.2530 N   0  0  0  0  0  0  0  0  0  0  0  0
  -17.5040    1.3410  -24.3030 C   0  0  0  0  0  0  0  0  0  0  0  0
  -17.2310    1.9600  -23.2460 O   0  0  0  0  0  0  0  0  0  0  0  0
  -18.4370   -0.8650  -27.7670 C   0  0  0  0  0  0  0  0  0  0  0  0
  -19.8610    6.1260  -21.7550 H   0  0  0  0  0  0  0  0  0  0  0  0
  -17.9840    4.7780  -22.4530 H   0  0  0  0  0  0  0  0  0  0  0  0
  -18.8680    5.6780  -26.5540 H   0  0  0  0  0  0  0  0  0  0  0  0
  -20.7660    7.0160  -25.8530 H   0  0  0  0  0  0  0  0  0  0  0  0
  -16.7120    3.9950  -24.0000 H   0  0  0  0  0  0  0  0  0  0  0  0
  -16.3920    5.0390  -25.4570 H   0  0  0  0  0  0  0  0  0  0  0  0
  -18.6670    3.7760  -29.8380 H   0  0  0  0  0  0  0  0  0  0  0  0
  -19.4710    5.1860  -28.9280 H   0  0  0  0  0  0  0  0  0  0  0  0
  -18.1130    5.4380  -31.2340 H   0  0  0  0  0  0  0  0  0  0  0  0
  -18.2700    6.7230  -30.0310 H   0  0  0  0  0  0  0  0  0  0  0  0
  -15.6150    7.0010  -28.6360 H   0  0  0  0  0  0  0  0  0  0  0  0
  -14.9920    5.3380  -28.6640 H   0  0  0  0  0  0  0  0  0  0  0  0
  -17.6180    6.4650  -27.4970 H   0  0  0  0  0  0  0  0  0  0  0  0
  -16.3330    5.4290  -26.7390 H   0  0  0  0  0  0  0  0  0  0  0  0
  -16.1230    4.5290  -31.6900 H   0  0  0  0  0  0  0  0  0  0  0  0
  -14.7570    4.7950  -30.6140 H   0  0  0  0  0  0  0  0  0  0  0  0
  -14.8310    7.9550  -34.5630 H   0  0  0  0  0  0  0  0  0  0  0  0
  -14.3720    6.3300  -35.1560 H   0  0  0  0  0  0  0  0  0  0  0  0
  -13.3730    7.1900  -33.8610 H   0  0  0  0  0  0  0  0  0  0  0  0
  -17.6430   -0.4790  -23.3160 H   0  0  0  0  0  0  0  0  0  0  0  0
  -19.3920   -0.4580  -28.1600 H   0  0  0  0  0  0  0  0  0  0  0  0
  -17.6700   -0.6890  -28.5620 H   0  0  0  0  0  0  0  0  0  0  0  0
  -18.4590   -1.9360  -27.5340 H   0  0  0  0  0  0  0  0  0  0  0  0
  2  1  1  0  0  0  0
  2  3  1  0  0  0  0
  3 32  1  0  0  0  0
  4  3  2  0  0  0  0
  4 33  1  0  0  0  0
  5  4  1  0  0  0  0
  6  7  1  0  0  0  0
  6  5  2  0  0  0  0
  7  2  2  0  0  0  0
  8  5  1  0  0  0  0
  8 36  1  0  0  0  0
  9 10  1  0  0  0  0
  9  8  1  0  0  0  0
 10 29  1  0  0  0  0
 11 25  1  0  0  0  0
 11 10  2  0  0  0  0
 12 13  2  0  0  0  0
 12 11  1  0  0  0  0
 13  9  1  0  0  0  0
 14 19  1  0  0  0  0
 14 13  1  0  0  0  0
 15 39  1  0  0  0  0
 15 14  1  0  0  0  0
 16 17  1  0  0  0  0
 16 41  1  0  0  0  0
 16 15  1  0  0  0  0
 17 18  1  0  0  0  0
 18 43  1  0  0  0  0
 18 42  1  0  0  0  0
 18 19  1  0  0  0  0
 19 44  1  0  0  0  0
 19 45  1  0  0  0  0
 20 47  1  0  0  0  0
 20 17  1  0  0  0  0
 21 22  2  0  0  0  0
 21 20  1  0  0  0  0
 23 21  1  0  0  0  0
 24 50  1  0  0  0  0
 24 23  1  0  0  0  0
 25 26  1  0  0  0  0
 26 27  2  0  0  0  0
 26 28  1  0  0  0  0
 28 51  1  0  0  0  0
 29 28  1  0  0  0  0
 29 30  2  0  0  0  0
 31 54  1  0  0  0  0
 31 25  1  0  0  0  0
 34  6  1  0  0  0  0
 35  7  1  0  0  0  0
 37  8  1  0  0  0  0
 38 15  1  0  0  0  0
 40 16  1  0  0  0  0
 46 20  1  0  0  0  0
 48 24  1  0  0  0  0
 49 24  1  0  0  0  0
 52 31  1  0  0  0  0
 53 31  1  0  0  0  0
M  END
>  <Pose>
1

>  <Score>
-6.44

$$$$
