
 OpenBabel03222201593D

 48 51  0  0  0  0  0  0  0  0999 V2000
  -18.2730    0.7550  -35.6520 B   0  0  0  0  0  0  0  0  0  0  0  0
  -18.8190    0.2450  -33.8980 C   0  0  0  0  0  0  0  0  0  0  0  0
  -17.9500   -0.3820  -33.0110 C   0  0  0  0  0  0  0  0  0  0  0  0
  -18.4130   -0.7400  -31.7470 C   0  0  0  0  0  0  0  0  0  0  0  0
  -19.6840   -0.5100  -31.3200 C   0  0  0  0  0  0  0  0  0  0  0  0
  -20.5270    0.1270  -32.2510 C   0  0  0  0  0  0  0  0  0  0  0  0
  -20.1140    0.4970  -33.5100 C   0  0  0  0  0  0  0  0  0  0  0  0
  -20.2460   -0.8890  -30.0390 C   0  0  0  0  0  0  0  0  0  0  0  0
  -20.3670   -2.2960  -29.7440 N   0  0  0  0  0  0  0  0  0  0  0  0
  -20.6800   -3.2730  -30.6070 C   0  0  0  0  0  0  0  0  0  0  0  0
  -20.6840   -4.4770  -29.9390 C   0  0  0  0  0  0  0  0  0  0  0  0
  -20.3710   -4.1940  -28.6830 N   0  0  0  0  0  0  0  0  0  0  0  0
  -20.1740   -2.8770  -28.5330 C   0  0  0  0  0  0  0  0  0  0  0  0
  -19.8210   -2.1920  -27.3240 N   0  0  0  0  0  0  0  0  0  0  0  0
  -19.6240   -0.7610  -27.3940 C   0  0  0  0  0  0  0  0  0  0  0  0
  -18.1620   -0.4770  -27.0810 C   0  0  0  0  0  0  0  0  0  0  0  0
  -17.5470   -1.5110  -26.3170 N   0  0  0  0  0  0  0  0  0  0  0  0
  -18.3980   -2.2190  -25.4200 C   0  0  0  0  0  0  0  0  0  0  0  0
  -19.6300   -2.8210  -26.0450 C   0  0  0  0  0  0  0  0  0  0  0  0
  -16.5010   -2.2410  -26.9250 C   0  0  0  0  0  0  0  0  0  0  0  0
  -20.9730   -5.6630  -30.5290 N   0  0  0  0  0  0  0  0  0  0  0  0
  -21.2710   -5.6330  -31.8380 C   0  0  0  0  0  0  0  0  0  0  0  0
  -21.5350   -6.7410  -32.3690 O   0  0  0  0  0  0  0  0  0  0  0  0
  -21.2880   -4.4900  -32.5450 N   0  0  0  0  0  0  0  0  0  0  0  0
  -21.0020   -3.3070  -31.9690 C   0  0  0  0  0  0  0  0  0  0  0  0
  -21.0120   -2.2360  -32.5920 O   0  0  0  0  0  0  0  0  0  0  0  0
  -20.9470   -6.8800  -29.7450 C   0  0  0  0  0  0  0  0  0  0  0  0
  -16.9270   -0.5810  -33.3010 H   0  0  0  0  0  0  0  0  0  0  0  0
  -17.7030   -1.2160  -31.1240 H   0  0  0  0  0  0  0  0  0  0  0  0
  -21.5600    0.3490  -32.0050 H   0  0  0  0  0  0  0  0  0  0  0  0
  -20.8210    0.9890  -34.1880 H   0  0  0  0  0  0  0  0  0  0  0  0
  -19.5870   -0.4640  -29.2210 H   0  0  0  0  0  0  0  0  0  0  0  0
  -21.2690   -0.4470  -29.9570 H   0  0  0  0  0  0  0  0  0  0  0  0
  -20.2520   -0.3020  -26.5740 H   0  0  0  0  0  0  0  0  0  0  0  0
  -19.9580   -0.2980  -28.3330 H   0  0  0  0  0  0  0  0  0  0  0  0
  -17.6410   -0.3950  -28.0560 H   0  0  0  0  0  0  0  0  0  0  0  0
  -18.0630    0.4970  -26.5660 H   0  0  0  0  0  0  0  0  0  0  0  0
  -18.7060   -1.5180  -24.5900 H   0  0  0  0  0  0  0  0  0  0  0  0
  -17.8180   -3.0270  -24.9320 H   0  0  0  0  0  0  0  0  0  0  0  0
  -20.5090   -2.5660  -25.3860 H   0  0  0  0  0  0  0  0  0  0  0  0
  -19.5100   -3.9200  -26.1050 H   0  0  0  0  0  0  0  0  0  0  0  0
  -16.4290   -2.1530  -28.0260 H   0  0  0  0  0  0  0  0  0  0  0  0
  -16.6620   -3.3250  -26.7060 H   0  0  0  0  0  0  0  0  0  0  0  0
  -15.4880   -2.0040  -26.5010 H   0  0  0  0  0  0  0  0  0  0  0  0
  -21.5240   -4.4760  -33.5610 H   0  0  0  0  0  0  0  0  0  0  0  0
  -21.6610   -7.6400  -30.1420 H   0  0  0  0  0  0  0  0  0  0  0  0
  -21.0620   -6.6510  -28.6880 H   0  0  0  0  0  0  0  0  0  0  0  0
  -19.9420   -7.3370  -29.8890 H   0  0  0  0  0  0  0  0  0  0  0  0
  1  2  1  0  0  0  0
  2  7  2  0  0  0  0
  2  3  1  0  0  0  0
  3  4  2  0  0  0  0
  4  5  1  0  0  0  0
  4 29  1  0  0  0  0
  5  8  1  0  0  0  0
  6 30  1  0  0  0  0
  6  5  2  0  0  0  0
  7  6  1  0  0  0  0
  8 33  1  0  0  0  0
  8  9  1  0  0  0  0
  8 32  1  0  0  0  0
  9 13  1  0  0  0  0
 10 11  2  0  0  0  0
 10  9  1  0  0  0  0
 11 12  1  0  0  0  0
 12 13  2  0  0  0  0
 13 14  1  0  0  0  0
 14 19  1  0  0  0  0
 15 14  1  0  0  0  0
 15 16  1  0  0  0  0
 15 34  1  0  0  0  0
 16 37  1  0  0  0  0
 16 17  1  0  0  0  0
 17 18  1  0  0  0  0
 18 39  1  0  0  0  0
 18 38  1  0  0  0  0
 19 18  1  0  0  0  0
 19 40  1  0  0  0  0
 20 43  1  0  0  0  0
 20 44  1  0  0  0  0
 20 17  1  0  0  0  0
 21 11  1  0  0  0  0
 21 27  1  0  0  0  0
 22 21  1  0  0  0  0
 23 22  2  0  0  0  0
 24 25  1  0  0  0  0
 24 22  1  0  0  0  0
 25 10  1  0  0  0  0
 26 25  2  0  0  0  0
 27 47  1  0  0  0  0
 28  3  1  0  0  0  0
 31  7  1  0  0  0  0
 35 15  1  0  0  0  0
 36 16  1  0  0  0  0
 41 19  1  0  0  0  0
 42 20  1  0  0  0  0
 45 24  1  0  0  0  0
 46 27  1  0  0  0  0
 48 27  1  0  0  0  0
M  END
>  <Pose>
1

>  <Score>
-5.65

$$$$
