
 OpenBabel03222201593D

 36 39  0  0  1  0  0  0  0  0999 V2000
  -19.3940   -2.9200  -25.8520 Cl  0  0  0  0  0  0  0  0  0  0  0  0
  -19.7590   -2.8600  -27.5670 C   0  0  0  0  0  0  0  0  0  0  0  0
  -19.5290   -1.7120  -28.2950 C   0  0  0  0  0  0  0  0  0  0  0  0
  -19.8210   -1.6740  -29.6490 C   0  0  0  0  0  0  0  0  0  0  0  0
  -20.3440   -2.7510  -30.3310 C   0  0  0  0  0  0  0  0  0  0  0  0
  -20.5720   -3.9020  -29.5900 C   0  0  0  0  0  0  0  0  0  0  0  0
  -20.2820   -3.9450  -28.2390 C   0  0  0  0  0  0  0  0  0  0  0  0
  -20.6480   -2.7220  -31.7270 N   0  0  0  0  0  0  0  0  0  0  0  0
  -21.7410   -3.3570  -32.4070 C   0  0  0  0  0  0  0  0  0  0  0  0
  -22.6140   -4.0930  -31.8830 O   0  0  0  0  0  0  0  0  0  0  0  0
  -21.7010   -3.0200  -33.8490 C   0  0  1  0  0  0  0  0  0  0  0  0
  -22.9180   -2.5410  -34.3200 O   0  0  0  0  0  0  0  0  0  0  0  0
  -23.1520   -1.3750  -33.7400 N   0  0  1  0  0  0  0  0  0  0  0  0
  -21.9660   -0.7680  -33.3230 C   0  0  1  0  0  0  0  0  0  0  0  0
  -20.8850   -1.7320  -33.8160 C   0  0  1  0  0  0  0  0  0  0  0  0
  -19.9120   -2.0420  -32.7420 C   0  0  0  0  0  0  0  0  0  0  0  0
  -18.6720   -1.7860  -32.6750 O   0  0  0  0  0  0  0  0  0  0  0  0
  -21.6990    0.6280  -33.6950 C   0  0  0  0  0  0  0  0  0  0  0  0
  -22.7400    1.3600  -34.4460 C   0  0  0  0  0  0  0  0  0  0  0  0
  -24.1000    0.8730  -33.9940 C   0  0  0  0  0  0  0  0  0  0  0  0
  -24.1600   -0.5950  -34.3290 C   0  0  0  0  0  0  0  0  0  0  0  0
  -19.1130   -0.8240  -27.7990 H   0  0  0  0  0  0  0  0  0  0  0  0
  -19.6440   -0.7790  -30.2240 H   0  0  0  0  0  0  0  0  0  0  0  0
  -20.9840   -4.7550  -30.1210 H   0  0  0  0  0  0  0  0  0  0  0  0
  -20.4590   -4.8370  -27.6630 H   0  0  0  0  0  0  0  0  0  0  0  0
  -21.2600   -3.7850  -34.4800 H   0  0  0  0  0  0  0  0  0  0  0  0
  -21.9210   -0.8470  -32.1940 H   0  0  0  0  0  0  0  0  0  0  0  0
  -20.4510   -1.4620  -34.7670 H   0  0  0  0  0  0  0  0  0  0  0  0
  -20.7580    0.6490  -34.3230 H   0  0  0  0  0  0  0  0  0  0  0  0
  -21.4140    1.2590  -32.8000 H   0  0  0  0  0  0  0  0  0  0  0  0
  -22.7000    2.4500  -34.2100 H   0  0  0  0  0  0  0  0  0  0  0  0
  -22.7010    1.2340  -35.5470 H   0  0  0  0  0  0  0  0  0  0  0  0
  -24.8580    1.3940  -34.6110 H   0  0  0  0  0  0  0  0  0  0  0  0
  -24.3010    1.0880  -32.9410 H   0  0  0  0  0  0  0  0  0  0  0  0
  -24.1970   -0.6830  -35.4440 H   0  0  0  0  0  0  0  0  0  0  0  0
  -25.1650   -0.9610  -33.9750 H   0  0  0  0  0  0  0  0  0  0  0  0
  2  1  1  0  0  0  0
  3 22  1  0  0  0  0
  3  2  2  0  0  0  0
  4  3  1  0  0  0  0
  5  4  2  0  0  0  0
  5  6  1  0  0  0  0
  6  7  2  0  0  0  0
  7 25  1  0  0  0  0
  7  2  1  0  0  0  0
  8  5  1  0  0  0  0
  9 10  2  0  0  0  0
  9  8  1  0  0  0  0
 11 26  1  6  0  0  0
 11 15  1  0  0  0  0
 11  9  1  0  0  0  0
 12 11  1  0  0  0  0
 13 12  1  6  0  0  0
 13 14  1  0  0  0  0
 14 27  1  1  0  0  0
 15 28  1  6  0  0  0
 15 14  1  0  0  0  0
 15 16  1  0  0  0  0
 16 17  2  0  0  0  0
 16  8  1  0  0  0  0
 18 14  1  0  0  0  0
 18 30  1  0  0  0  0
 19 31  1  0  0  0  0
 19 20  1  0  0  0  0
 19 18  1  0  0  0  0
 20 34  1  0  0  0  0
 21 20  1  0  0  0  0
 21 36  1  0  0  0  0
 21 13  1  0  0  0  0
 23  4  1  0  0  0  0
 24  6  1  0  0  0  0
 29 18  1  0  0  0  0
 32 19  1  0  0  0  0
 33 20  1  0  0  0  0
 35 21  1  0  0  0  0
M  END
>  <Pose>
1

>  <Score>
-5.46

$$$$
