
 OpenBabel03222201593D

 52 55  0  0  0  0  0  0  0  0999 V2000
  -18.0920   -1.5070  -25.3340 B   0  0  0  0  0  0  0  0  0  0  0  0
  -19.0530   -2.4430  -26.6810 C   0  0  0  0  0  0  0  0  0  0  0  0
  -19.4150   -3.7570  -26.4340 C   0  0  0  0  0  0  0  0  0  0  0  0
  -20.1070   -4.4180  -27.4300 C   0  0  0  0  0  0  0  0  0  0  0  0
  -20.4200   -3.7950  -28.6100 C   0  0  0  0  0  0  0  0  0  0  0  0
  -20.0690   -2.4730  -28.8810 C   0  0  0  0  0  0  0  0  0  0  0  0
  -19.3780   -1.8300  -27.8770 C   0  0  0  0  0  0  0  0  0  0  0  0
  -20.4490   -1.8670  -30.1400 C   0  0  0  0  0  0  0  0  0  0  0  0
  -19.6030   -1.6800  -31.0940 N   0  0  0  0  0  0  0  0  0  0  0  0
  -19.9190   -1.1020  -32.3120 N   0  0  0  0  0  0  0  0  0  0  0  0
  -20.7720   -1.7750  -33.2310 C   0  0  0  0  0  0  0  0  0  0  0  0
  -21.2840   -2.9560  -32.9260 N   0  0  0  0  0  4  0  0  0  0  0  0
  -22.1200   -3.6480  -33.7190 C   0  0  0  0  0  0  0  0  0  0  0  0
  -22.4430   -3.0780  -34.9000 N   0  0  0  0  0  0  0  0  0  0  0  0
  -21.9490   -1.8660  -35.2710 C   0  0  0  0  0  0  0  0  0  0  0  0
  -21.1100   -1.2280  -34.4180 N   0  0  0  0  0  0  0  0  0  0  0  0
  -22.3070   -1.2760  -36.5000 N   0  0  0  0  0  0  0  0  0  0  0  0
  -22.8830   -2.0550  -37.5660 C   0  0  0  0  0  0  0  0  0  0  0  0
  -24.1750   -1.3200  -37.9520 C   0  0  0  0  0  0  0  0  0  0  0  0
  -23.8780    0.0010  -38.2150 O   0  0  0  0  0  0  0  0  0  0  0  0
  -23.5330    0.6680  -37.0410 C   0  0  0  0  0  0  0  0  0  0  0  0
  -22.1230    0.1380  -36.7030 C   0  0  0  0  0  0  0  0  0  0  0  0
  -22.6550   -4.9270  -33.3420 N   0  0  0  0  0  0  0  0  0  0  0  0
  -23.8210   -5.4680  -33.9810 C   0  0  0  0  0  0  0  0  0  0  0  0
  -24.1360   -6.8850  -33.7000 C   0  0  0  0  0  0  0  0  0  0  0  0
  -23.4920   -7.4110  -32.5880 O   0  0  0  0  0  0  0  0  0  0  0  0
  -22.1320   -7.1330  -32.5910 C   0  0  0  0  0  0  0  0  0  0  0  0
  -21.9900   -5.6590  -32.3040 C   0  0  0  0  0  0  0  0  0  0  0  0
  -21.1200   -4.4710  -29.6160 O   0  0  0  0  0  0  0  0  0  0  0  0
  -19.1020   -4.4010  -25.2380 O   0  0  0  0  0  0  0  0  0  0  0  0
  -20.3830   -5.4560  -27.2170 H   0  0  0  0  0  0  0  0  0  0  0  0
  -19.0920   -0.7870  -28.0770 H   0  0  0  0  0  0  0  0  0  0  0  0
  -21.4710   -1.5590  -30.2960 H   0  0  0  0  0  0  0  0  0  0  0  0
  -19.5360   -0.1820  -32.5600 H   0  0  0  0  0  0  0  0  0  0  0  0
  -22.1970   -2.0660  -38.4370 H   0  0  0  0  0  0  0  0  0  0  0  0
  -23.1350   -3.0920  -37.2280 H   0  0  0  0  0  0  0  0  0  0  0  0
  -24.6140   -1.8440  -38.8200 H   0  0  0  0  0  0  0  0  0  0  0  0
  -24.8540   -1.4160  -37.0680 H   0  0  0  0  0  0  0  0  0  0  0  0
  -24.1990    0.2710  -36.2180 H   0  0  0  0  0  0  0  0  0  0  0  0
  -23.5650    1.7500  -37.1360 H   0  0  0  0  0  0  0  0  0  0  0  0
  -21.5370    0.2580  -37.6600 H   0  0  0  0  0  0  0  0  0  0  0  0
  -21.6730    0.6680  -35.8580 H   0  0  0  0  0  0  0  0  0  0  0  0
  -24.6800   -4.7960  -33.7030 H   0  0  0  0  0  0  0  0  0  0  0  0
  -23.6560   -5.3570  -35.0970 H   0  0  0  0  0  0  0  0  0  0  0  0
  -23.9300   -7.5240  -34.5970 H   0  0  0  0  0  0  0  0  0  0  0  0
  -25.2360   -6.9740  -33.5080 H   0  0  0  0  0  0  0  0  0  0  0  0
  -21.6560   -7.7730  -31.8430 H   0  0  0  0  0  0  0  0  0  0  0  0
  -21.6650   -7.2890  -33.6000 H   0  0  0  0  0  0  0  0  0  0  0  0
  -20.8840   -5.4680  -32.3030 H   0  0  0  0  0  0  0  0  0  0  0  0
  -22.3640   -5.3880  -31.2940 H   0  0  0  0  0  0  0  0  0  0  0  0
  -21.6190   -5.3190  -29.3660 H   0  0  0  0  0  0  0  0  0  0  0  0
  -19.5620   -5.2380  -24.9150 H   0  0  0  0  0  0  0  0  0  0  0  0
  2  3  1  0  0  0  0
  2  1  1  0  0  0  0
  3 30  1  0  0  0  0
  4 31  1  0  0  0  0
  4  3  2  0  0  0  0
  5  4  1  0  0  0  0
  6  5  2  0  0  0  0
  6  7  1  0  0  0  0
  7  2  2  0  0  0  0
  8  6  1  0  0  0  0
  9  8  2  0  0  0  0
 10  9  1  0  0  0  0
 11 12  2  0  0  0  0
 11 10  1  0  0  0  0
 13 23  1  0  0  0  0
 13 12  2  0  0  0  0
 14 13  1  0  0  0  0
 15 14  2  0  0  0  0
 15 16  1  0  0  0  0
 16 11  1  0  0  0  0
 17 15  1  0  0  0  0
 18 36  1  0  0  0  0
 18 17  1  0  0  0  0
 19 18  1  0  0  0  0
 19 38  1  0  0  0  0
 20 19  1  0  0  0  0
 20 21  1  0  0  0  0
 21 22  1  0  0  0  0
 21 39  1  0  0  0  0
 22 17  1  0  0  0  0
 22 42  1  0  0  0  0
 23 28  1  0  0  0  0
 24 43  1  0  0  0  0
 24 25  1  0  0  0  0
 24 23  1  0  0  0  0
 25 46  1  0  0  0  0
 25 26  1  0  0  0  0
 27 26  1  0  0  0  0
 27 28  1  0  0  0  0
 27 47  1  0  0  0  0
 28 49  1  0  0  0  0
 28 50  1  0  0  0  0
 29 51  1  0  0  0  0
 29  5  1  0  0  0  0
 30 52  1  0  0  0  0
 32  7  1  0  0  0  0
 33  8  1  0  0  0  0
 34 10  1  0  0  0  0
 35 18  1  0  0  0  0
 37 19  1  0  0  0  0
 40 21  1  0  0  0  0
 41 22  1  0  0  0  0
 44 24  1  0  0  0  0
 45 25  1  0  0  0  0
 48 27  1  0  0  0  0
M  END
>  <Pose>
1

>  <Score>
-6.96

$$$$
