
 OpenBabel03222201593D

 46 49  0  0  0  0  0  0  0  0999 V2000
  -21.9980   -5.6190  -32.1490 Cl  0  0  0  0  0  0  0  0  0  0  0  0
  -21.5940   -3.9990  -32.6960 C   0  0  0  0  0  0  0  0  0  0  0  0
  -20.6020   -3.2960  -32.0190 C   0  0  0  0  0  0  0  0  0  0  0  0
  -20.2850   -2.0170  -32.4550 C   0  0  0  0  0  0  0  0  0  0  0  0
  -20.9790   -1.5020  -33.5530 C   0  0  0  0  0  0  0  0  0  0  0  0
  -21.9500   -2.2040  -34.2050 C   0  0  0  0  0  0  0  0  0  0  0  0
  -22.2630   -3.4580  -33.7790 C   0  0  0  0  0  0  0  0  0  0  0  0
  -20.4770   -0.3170  -33.7200 O   0  0  0  0  0  0  0  0  0  0  0  0
  -19.5480   -0.0500  -32.8380 C   0  0  0  0  0  0  0  0  0  0  0  0
  -18.9140    1.0380  -32.7970 O   0  0  0  0  0  0  0  0  0  0  0  0
  -19.4040   -1.1110  -32.0240 N   0  0  0  0  0  0  0  0  0  0  0  0
  -18.4700   -1.1700  -30.9360 C   0  0  0  0  0  0  0  0  0  0  0  0
  -18.9040   -0.2750  -29.8290 C   0  0  0  0  0  0  0  0  0  0  0  0
  -20.1630    0.1450  -29.6170 N   0  0  0  0  0  0  0  0  0  0  0  0
  -20.2100    0.9420  -28.5870 O   0  0  0  0  0  0  0  0  0  0  0  0
  -18.9830    1.0450  -28.1200 C   0  0  0  0  0  0  0  0  0  0  0  0
  -18.1660    0.3020  -28.8720 N   0  0  0  0  0  0  0  0  0  0  0  0
  -18.6690    1.8980  -26.9240 C   0  0  0  0  0  0  0  0  0  0  0  0
  -18.6440    1.1880  -25.8600 O   0  0  0  0  0  0  0  0  0  0  0  0
  -18.4570    3.2190  -27.0670 N   0  0  0  0  0  0  0  0  0  0  0  0
  -18.2550    4.5770  -27.2200 C   0  0  0  0  0  0  0  0  0  0  0  0
  -16.8690    4.9300  -27.7740 C   0  0  0  0  0  0  0  0  0  0  0  0
  -16.8000    5.0400  -29.1770 N   0  0  0  0  0  0  0  0  0  0  0  0
  -15.4970    5.3730  -29.6010 C   0  0  0  0  0  0  0  0  0  0  0  0
  -15.4680    6.0940  -30.9070 C   0  0  0  0  0  0  0  0  0  0  0  0
  -16.3770    5.5180  -31.7560 O   0  0  0  0  0  0  0  0  0  0  0  0
  -17.6930    5.6850  -31.3670 C   0  0  0  0  0  0  0  0  0  0  0  0
  -17.9050    5.5350  -29.8900 C   0  0  0  0  0  0  0  0  0  0  0  0
  -20.0610   -3.6780  -31.1840 H   0  0  0  0  0  0  0  0  0  0  0  0
  -22.4600   -1.7580  -35.0600 H   0  0  0  0  0  0  0  0  0  0  0  0
  -23.0400   -4.0190  -34.3010 H   0  0  0  0  0  0  0  0  0  0  0  0
  -17.4690   -0.9010  -31.3180 H   0  0  0  0  0  0  0  0  0  0  0  0
  -18.3620   -2.1980  -30.5220 H   0  0  0  0  0  0  0  0  0  0  0  0
  -19.7190    3.3570  -27.5860 H   0  0  0  0  0  0  0  0  0  0  0  0
  -18.2660    5.1060  -26.2180 H   0  0  0  0  0  0  0  0  0  0  0  0
  -18.9710    5.1170  -27.8620 H   0  0  0  0  0  0  0  0  0  0  0  0
  -16.0920    4.2050  -27.4480 H   0  0  0  0  0  0  0  0  0  0  0  0
  -16.6040    5.9010  -27.3180 H   0  0  0  0  0  0  0  0  0  0  0  0
  -14.9450    5.9350  -28.8170 H   0  0  0  0  0  0  0  0  0  0  0  0
  -14.8910    4.4300  -29.7580 H   0  0  0  0  0  0  0  0  0  0  0  0
  -15.6440    7.1820  -30.7990 H   0  0  0  0  0  0  0  0  0  0  0  0
  -14.4590    5.9580  -31.4060 H   0  0  0  0  0  0  0  0  0  0  0  0
  -18.3150    4.9720  -31.9620 H   0  0  0  0  0  0  0  0  0  0  0  0
  -18.0070    6.7030  -31.6640 H   0  0  0  0  0  0  0  0  0  0  0  0
  -18.8170    4.8720  -29.7830 H   0  0  0  0  0  0  0  0  0  0  0  0
  -18.2020    6.5040  -29.4440 H   0  0  0  0  0  0  0  0  0  0  0  0
  2  1  1  0  0  0  0
  2  3  1  0  0  0  0
  3 29  1  0  0  0  0
  4 11  1  0  0  0  0
  4  3  2  0  0  0  0
  5  4  1  0  0  0  0
  6  7  1  0  0  0  0
  6  5  2  0  0  0  0
  7  2  2  0  0  0  0
  8  5  1  0  0  0  0
  8  9  1  0  0  0  0
  9 10  2  0  0  0  0
  9 11  1  0  0  0  0
 11 12  1  0  0  0  0
 12 33  1  0  0  0  0
 12 13  1  0  0  0  0
 13 14  2  0  0  0  0
 13 17  1  0  0  0  0
 14 15  1  0  0  0  0
 15 16  1  0  0  0  0
 16 18  1  0  0  0  0
 17 16  2  0  0  0  0
 18 19  2  0  0  0  0
 20 18  1  0  0  0  0
 21 20  1  0  0  0  0
 21 35  1  0  0  0  0
 22 37  1  0  0  0  0
 22 38  1  0  0  0  0
 22 21  1  0  0  0  0
 23 22  1  0  0  0  0
 24 23  1  0  0  0  0
 24 39  1  0  0  0  0
 25 41  1  0  0  0  0
 25 24  1  0  0  0  0
 26 27  1  0  0  0  0
 26 25  1  0  0  0  0
 27 28  1  0  0  0  0
 28 45  1  0  0  0  0
 28 46  1  0  0  0  0
 28 23  1  0  0  0  0
 30  6  1  0  0  0  0
 31  7  1  0  0  0  0
 32 12  1  0  0  0  0
 34 20  1  0  0  0  0
 36 21  1  0  0  0  0
 40 24  1  0  0  0  0
 42 25  1  0  0  0  0
 43 27  1  0  0  0  0
 44 27  1  0  0  0  0
M  END
>  <Pose>
1

>  <Score>
-6.41

$$$$
