
 OpenBabel03222201593D

 53 57  0  0  1  0  0  0  0  0999 V2000
  -21.3220   -0.8980  -41.1260 Cl  0  0  0  0  0  0  0  0  0  0  0  0
  -22.0690   -0.4510  -39.6060 C   0  0  0  0  0  0  0  0  0  0  0  0
  -21.3510   -0.3010  -38.4380 C   0  0  0  0  0  0  0  0  0  0  0  0
  -21.9760    0.0540  -37.2480 C   0  0  0  0  0  0  0  0  0  0  0  0
  -23.3300    0.2450  -37.2990 C   0  0  0  0  0  0  0  0  0  0  0  0
  -24.0620    0.1010  -38.4530 C   0  0  0  0  0  0  0  0  0  0  0  0
  -23.4450   -0.2470  -39.6170 C   0  0  0  0  0  0  0  0  0  0  0  0
  -20.9510    0.1330  -36.2010 C   0  0  2  0  0  0  0  0  0  0  0  0
  -21.2160   -0.7680  -35.0940 N   0  0  0  0  0  0  0  0  0  0  0  0
  -20.3200   -0.2480  -34.0580 C   0  0  1  0  0  0  0  0  0  0  0  0
  -20.2940    1.2250  -34.2150 C   0  0  2  0  0  0  0  0  0  0  0  0
  -20.9690    1.4780  -35.5250 C   0  0  1  0  0  0  0  0  0  0  0  0
  -20.2090    2.4980  -36.2520 C   0  0  0  0  0  0  0  0  0  0  0  0
  -20.6460    3.1180  -37.2540 O   0  0  0  0  0  0  0  0  0  0  0  0
  -18.9490    2.6130  -35.6020 N   0  0  0  0  0  0  0  0  0  0  0  0
  -18.8990    1.7370  -34.4840 C   0  0  0  0  0  0  0  0  0  0  0  0
  -17.9030    1.3990  -33.7870 O   0  0  0  0  0  0  0  0  0  0  0  0
  -17.8740    3.5030  -36.0310 C   0  0  0  0  0  0  0  0  0  0  0  0
  -17.9170    4.7450  -35.1520 C   0  0  0  0  0  0  0  0  0  0  0  0
  -17.4530    4.4640  -33.8770 O   0  0  0  0  0  0  0  0  0  0  0  0
  -18.5230    4.3810  -33.0060 C   0  0  0  0  0  0  0  0  0  0  0  0
  -20.7840   -0.6460  -32.6890 C   0  0  0  0  0  0  0  0  0  0  0  0
  -21.0510   -2.0840  -32.5260 C   0  0  0  0  0  0  0  0  0  0  0  0
  -21.9790   -2.6700  -33.3840 C   0  0  0  0  0  0  0  0  0  0  0  0
  -22.2340   -4.0120  -33.2710 C   0  0  0  0  0  0  0  0  0  0  0  0
  -21.6130   -4.8150  -32.3440 C   0  0  0  0  0  0  0  0  0  0  0  0
  -20.7020   -4.1980  -31.5140 C   0  0  0  0  0  0  0  0  0  0  0  0
  -20.4070   -2.8530  -31.5850 C   0  0  0  0  0  0  0  0  0  0  0  0
  -19.6690   -0.2040  -36.8400 C   0  0  0  0  0  0  0  0  0  0  0  0
  -18.5400   -0.2640  -36.3330 O   0  0  0  0  0  0  0  0  0  0  0  0
  -19.9590   -0.4600  -38.2070 N   0  0  0  0  0  0  0  0  0  0  0  0
  -23.8290    0.5280  -36.3560 H   0  0  0  0  0  0  0  0  0  0  0  0
  -25.1160    0.2630  -38.4310 H   0  0  0  0  0  0  0  0  0  0  0  0
  -24.0010   -0.3660  -40.5340 H   0  0  0  0  0  0  0  0  0  0  0  0
  -20.9750   -1.7690  -35.3340 H   0  0  0  0  0  0  0  0  0  0  0  0
  -19.3080   -0.7190  -34.1860 H   0  0  0  0  0  0  0  0  0  0  0  0
  -20.7450    1.8150  -33.3950 H   0  0  0  0  0  0  0  0  0  0  0  0
  -22.0460    1.7430  -35.4090 H   0  0  0  0  0  0  0  0  0  0  0  0
  -18.0320    3.8290  -37.0630 H   0  0  0  0  0  0  0  0  0  0  0  0
  -16.8870    3.0120  -35.9600 H   0  0  0  0  0  0  0  0  0  0  0  0
  -17.3160    5.5280  -35.6610 H   0  0  0  0  0  0  0  0  0  0  0  0
  -18.9620    5.0990  -35.0450 H   0  0  0  0  0  0  0  0  0  0  0  0
  -19.2290    3.5860  -33.3030 H   0  0  0  0  0  0  0  0  0  0  0  0
  -19.1030    5.3240  -32.9300 H   0  0  0  0  0  0  0  0  0  0  0  0
  -18.1160    4.1790  -31.9900 H   0  0  0  0  0  0  0  0  0  0  0  0
  -20.0860   -0.2500  -31.9200 H   0  0  0  0  0  0  0  0  0  0  0  0
  -21.7550   -0.0940  -32.5210 H   0  0  0  0  0  0  0  0  0  0  0  0
  -22.4870   -2.0430  -34.1320 H   0  0  0  0  0  0  0  0  0  0  0  0
  -22.9550   -4.4640  -33.9380 H   0  0  0  0  0  0  0  0  0  0  0  0
  -21.8030   -5.8730  -32.2420 H   0  0  0  0  0  0  0  0  0  0  0  0
  -20.1810   -4.7800  -30.7660 H   0  0  0  0  0  0  0  0  0  0  0  0
  -19.6570   -2.4200  -30.9030 H   0  0  0  0  0  0  0  0  0  0  0  0
  -19.2680   -0.7290  -38.9580 H   0  0  0  0  0  0  0  0  0  0  0  0
  1  2  1  0  0  0  0
  2  3  1  0  0  0  0
  3 31  1  0  0  0  0
  3  4  2  0  0  0  0
  5  4  1  0  0  0  0
  5 32  1  0  0  0  0
  6 33  1  0  0  0  0
  6  5  2  0  0  0  0
  7  2  2  0  0  0  0
  7  6  1  0  0  0  0
  8  4  1  6  0  0  0
  8 12  1  0  0  0  0
  8  9  1  0  0  0  0
  9 10  1  0  0  0  0
 10 36  1  6  0  0  0
 10 22  1  0  0  0  0
 11 10  1  0  0  0  0
 11 37  1  1  0  0  0
 12 38  1  1  0  0  0
 12 11  1  0  0  0  0
 13 15  1  0  0  0  0
 13 12  1  0  0  0  0
 14 13  2  0  0  0  0
 15 16  1  0  0  0  0
 16 11  1  0  0  0  0
 16 17  2  0  0  0  0
 18 40  1  0  0  0  0
 18 15  1  0  0  0  0
 18 19  1  0  0  0  0
 19 42  1  0  0  0  0
 19 20  1  0  0  0  0
 20 21  1  0  0  0  0
 21 44  1  0  0  0  0
 21 45  1  0  0  0  0
 22 23  1  0  0  0  0
 22 47  1  0  0  0  0
 22 46  1  0  0  0  0
 23 28  1  0  0  0  0
 24 25  1  0  0  0  0
 24 23  2  0  0  0  0
 25 26  2  0  0  0  0
 26 50  1  0  0  0  0
 26 27  1  0  0  0  0
 27 51  1  0  0  0  0
 28 27  2  0  0  0  0
 28 52  1  0  0  0  0
 29 30  2  0  0  0  0
 29  8  1  0  0  0  0
 31 29  1  0  0  0  0
 34  7  1  0  0  0  0
 35  9  1  0  0  0  0
 39 18  1  0  0  0  0
 41 19  1  0  0  0  0
 43 21  1  0  0  0  0
 48 24  1  0  0  0  0
 49 25  1  0  0  0  0
 53 31  1  0  0  0  0
M  END
>  <Pose>
1

>  <Score>
-6.14

$$$$
