
 OpenBabel03222201593D

 42 45  0  0  0  0  0  0  0  0999 V2000
  -18.1490    4.5220  -25.0430 Cl  0  0  0  0  0  0  0  0  0  0  0  0
  -18.2160    3.0170  -25.9530 C   0  0  0  0  0  0  0  0  0  0  0  0
  -17.8470    1.8380  -25.3570 C   0  0  0  0  0  0  0  0  0  0  0  0
  -17.9060    0.6620  -26.0880 C   0  0  0  0  0  0  0  0  0  0  0  0
  -18.3240    0.6510  -27.3900 C   0  0  0  0  0  0  0  0  0  0  0  0
  -18.6950    1.8310  -27.9900 C   0  0  0  0  0  0  0  0  0  0  0  0
  -18.6370    2.9950  -27.2680 C   0  0  0  0  0  0  0  0  0  0  0  0
  -18.3550   -0.6560  -28.0940 C   0  0  0  0  0  0  0  0  0  0  0  0
  -19.2610   -0.5250  -29.2330 N   0  0  0  0  0  0  0  0  0  0  0  0
  -20.5520   -0.2500  -29.2340 N   0  0  0  0  0  0  0  0  0  0  0  0
  -21.0320   -0.2140  -30.4630 N   0  0  0  0  0  0  0  0  0  0  0  0
  -20.0390   -0.4720  -31.3140 C   0  0  0  0  0  0  0  0  0  0  0  0
  -18.9170   -0.6700  -30.5380 C   0  0  0  0  0  0  0  0  0  0  0  0
  -17.7650   -0.9500  -31.1640 N   0  0  0  0  0  0  0  0  0  0  0  0
  -17.7090   -1.0350  -32.5040 C   0  0  0  0  0  0  0  0  0  0  0  0
  -18.8170   -0.8380  -33.2400 N   0  0  0  0  0  0  0  0  0  0  0  0
  -20.0310   -0.5490  -32.7010 C   0  0  0  0  0  0  0  0  0  0  0  0
  -21.1920   -0.3430  -33.4670 N   0  0  0  0  0  0  0  0  0  0  0  0
  -22.0920    0.7760  -33.3810 C   0  0  0  0  0  0  0  0  0  0  0  0
  -22.1340    1.4440  -34.7050 C   0  0  0  0  0  0  0  0  0  0  0  0
  -21.6700    0.7340  -35.8210 N   0  0  0  0  0  0  0  0  0  0  0  0
  -21.5660   -0.6620  -35.7850 C   0  0  0  0  0  0  0  0  0  0  0  0
  -21.5740   -1.3200  -34.4560 C   0  0  0  0  0  0  0  0  0  0  0  0
  -20.4060    1.3000  -36.2590 C   0  0  0  0  0  0  0  0  0  0  0  0
  -17.5130    1.8140  -24.3300 H   0  0  0  0  0  0  0  0  0  0  0  0
  -17.6110   -0.2690  -25.6030 H   0  0  0  0  0  0  0  0  0  0  0  0
  -19.0200    1.8210  -29.0040 H   0  0  0  0  0  0  0  0  0  0  0  0
  -18.9220    3.9630  -27.7020 H   0  0  0  0  0  0  0  0  0  0  0  0
  -17.3570   -0.9190  -28.4670 H   0  0  0  0  0  0  0  0  0  0  0  0
  -18.7020   -1.4420  -27.3910 H   0  0  0  0  0  0  0  0  0  0  0  0
  -16.7630   -1.2620  -32.9750 H   0  0  0  0  0  0  0  0  0  0  0  0
  -21.8090    1.5030  -32.5980 H   0  0  0  0  0  0  0  0  0  0  0  0
  -23.0980    0.4050  -33.0900 H   0  0  0  0  0  0  0  0  0  0  0  0
  -23.2090    1.7350  -34.9010 H   0  0  0  0  0  0  0  0  0  0  0  0
  -21.6120    2.4400  -34.6340 H   0  0  0  0  0  0  0  0  0  0  0  0
  -22.4290   -1.0970  -36.3750 H   0  0  0  0  0  0  0  0  0  0  0  0
  -20.6610   -1.0160  -36.3600 H   0  0  0  0  0  0  0  0  0  0  0  0
  -22.5740   -1.7350  -34.2040 H   0  0  0  0  0  0  0  0  0  0  0  0
  -20.8470   -2.1800  -34.4590 H   0  0  0  0  0  0  0  0  0  0  0  0
  -20.1790    2.2560  -35.7090 H   0  0  0  0  0  0  0  0  0  0  0  0
  -19.5820    0.6010  -36.0000 H   0  0  0  0  0  0  0  0  0  0  0  0
  -20.4150    1.5620  -37.3330 H   0  0  0  0  0  0  0  0  0  0  0  0
  2  3  1  0  0  0  0
  2  1  1  0  0  0  0
  3 25  1  0  0  0  0
  4 26  1  0  0  0  0
  4  3  2  0  0  0  0
  5  4  1  0  0  0  0
  6  5  2  0  0  0  0
  6  7  1  0  0  0  0
  7  2  2  0  0  0  0
  8 30  1  0  0  0  0
  8  5  1  0  0  0  0
  9  8  1  0  0  0  0
 10  9  1  0  0  0  0
 11 10  2  0  0  0  0
 12 13  2  0  0  0  0
 12 11  1  0  0  0  0
 13  9  1  0  0  0  0
 14 13  1  0  0  0  0
 15 14  2  0  0  0  0
 16 17  2  0  0  0  0
 16 15  1  0  0  0  0
 17 12  1  0  0  0  0
 18 19  1  0  0  0  0
 18 17  1  0  0  0  0
 19 33  1  0  0  0  0
 19 32  1  0  0  0  0
 20 35  1  0  0  0  0
 20 19  1  0  0  0  0
 21 22  1  0  0  0  0
 21 20  1  0  0  0  0
 22 23  1  0  0  0  0
 23 38  1  0  0  0  0
 23 18  1  0  0  0  0
 24 41  1  0  0  0  0
 24 21  1  0  0  0  0
 24 40  1  0  0  0  0
 27  6  1  0  0  0  0
 28  7  1  0  0  0  0
 29  8  1  0  0  0  0
 31 15  1  0  0  0  0
 34 20  1  0  0  0  0
 36 22  1  0  0  0  0
 37 22  1  0  0  0  0
 39 23  1  0  0  0  0
 42 24  1  0  0  0  0
M  END
>  <Pose>
1

>  <Score>
-5.26

$$$$
