
 OpenBabel03222201593D

 48 52  0  0  1  0  0  0  0  0999 V2000
  -17.1390    1.8930  -22.6770 Cl  0  0  0  0  0  0  0  0  0  0  0  0
  -17.5370    1.3710  -24.3170 C   0  0  0  0  0  0  0  0  0  0  0  0
  -17.8910    0.0590  -24.5450 C   0  0  0  0  0  0  0  0  0  0  0  0
  -18.2070   -0.3780  -25.8090 C   0  0  0  0  0  0  0  0  0  0  0  0
  -18.1810    0.4790  -26.8900 C   0  0  0  0  0  0  0  0  0  0  0  0
  -17.8240    1.7880  -26.6420 C   0  0  0  0  0  0  0  0  0  0  0  0
  -17.5050    2.2410  -25.3830 C   0  0  0  0  0  0  0  0  0  0  0  0
  -18.5170   -0.0320  -28.1700 N   0  0  0  0  0  0  0  0  0  0  0  0
  -18.8850   -1.3840  -28.4220 C   0  0  0  0  0  0  0  0  0  0  0  0
  -19.1910   -1.8260  -29.6200 C   0  0  0  0  0  0  0  0  0  0  0  0
  -19.1980   -1.0380  -30.8030 N   0  0  0  0  0  0  0  0  0  0  0  0
  -17.9250   -0.6700  -31.3770 C   0  0  0  0  0  0  0  0  0  0  0  0
  -17.9390   -1.0480  -32.8350 C   0  0  0  0  0  0  0  0  0  0  0  0
  -19.1670   -0.6790  -33.5110 N   0  0  2  0  0  0  0  0  0  0  0  0
  -20.4330   -1.0260  -32.8970 C   0  0  0  0  0  0  0  0  0  0  0  0
  -20.4020   -0.5810  -31.4580 C   0  0  0  0  0  0  0  0  0  0  0  0
  -19.1130    0.0130  -34.7600 C   0  0  2  0  0  0  0  0  0  0  0  0
  -19.4840   -0.6380  -35.8800 N   0  0  0  0  0  0  0  0  0  0  0  0
  -19.4470   -0.0160  -37.0920 C   0  0  0  0  0  0  0  0  0  0  0  0
  -19.0380    1.2670  -37.1970 N   0  0  0  0  0  0  0  0  0  0  0  0
  -18.6580    1.9650  -36.1220 C   0  0  0  0  0  0  0  0  0  0  0  0
  -18.2160    3.2230  -35.9440 N   0  0  0  0  0  0  0  0  0  0  0  0
  -17.9840    3.3820  -34.6540 N   0  0  0  0  0  0  0  0  0  0  0  0
  -18.2710    2.2310  -33.9820 C   0  0  0  0  0  0  0  0  0  0  0  0
  -18.7010    1.3130  -34.8880 C   0  0  0  0  0  0  0  0  0  0  0  0
  -18.0190    4.2520  -36.9700 C   0  0  0  0  0  0  0  0  0  0  0  0
  -18.9150   -2.2730  -27.3160 N   0  0  0  0  0  0  0  0  0  0  0  0
  -18.5850   -1.7880  -26.0370 C   0  0  0  0  0  0  0  0  0  0  0  0
  -18.5900   -2.5270  -24.9990 O   0  0  0  0  0  0  0  0  0  0  0  0
  -17.9150   -0.6260  -23.6970 H   0  0  0  0  0  0  0  0  0  0  0  0
  -17.7960    2.4760  -27.4710 H   0  0  0  0  0  0  0  0  0  0  0  0
  -17.2270    3.2610  -25.1900 H   0  0  0  0  0  0  0  0  0  0  0  0
  -18.5000    0.6080  -28.9930 H   0  0  0  0  0  0  0  0  0  0  0  0
  -19.4630   -2.8720  -29.7430 H   0  0  0  0  0  0  0  0  0  0  0  0
  -17.7380    0.4230  -31.3270 H   0  0  0  0  0  0  0  0  0  0  0  0
  -17.0870   -1.2230  -30.9050 H   0  0  0  0  0  0  0  0  0  0  0  0
  -17.0920   -0.4580  -33.3000 H   0  0  0  0  0  0  0  0  0  0  0  0
  -17.6480   -2.1070  -33.0180 H   0  0  0  0  0  0  0  0  0  0  0  0
  -21.2330   -0.4300  -33.4280 H   0  0  0  0  0  0  0  0  0  0  0  0
  -20.6600   -2.1050  -32.9380 H   0  0  0  0  0  0  0  0  0  0  0  0
  -21.3170   -0.8620  -30.9060 H   0  0  0  0  0  0  0  0  0  0  0  0
  -20.3440    0.5470  -31.4860 H   0  0  0  0  0  0  0  0  0  0  0  0
  -19.7560   -0.5820  -37.9680 H   0  0  0  0  0  0  0  0  0  0  0  0
  -18.1810    2.0540  -32.9200 H   0  0  0  0  0  0  0  0  0  0  0  0
  -18.2820    5.2570  -36.5740 H   0  0  0  0  0  0  0  0  0  0  0  0
  -18.7280    4.0690  -37.8170 H   0  0  0  0  0  0  0  0  0  0  0  0
  -16.9640    4.2860  -37.2980 H   0  0  0  0  0  0  0  0  0  0  0  0
  -19.1750   -3.2800  -27.4200 H   0  0  0  0  0  0  0  0  0  0  0  0
  2  1  1  0  0  0  0
  3  2  1  0  0  0  0
  3 30  1  0  0  0  0
  4  3  2  0  0  0  0
  5  6  2  0  0  0  0
  5  4  1  0  0  0  0
  6  7  1  0  0  0  0
  7 32  1  0  0  0  0
  7  2  2  0  0  0  0
  8  5  1  0  0  0  0
  9  8  1  0  0  0  0
  9 27  1  0  0  0  0
 10  9  2  0  0  0  0
 11 10  1  0  0  0  0
 12 35  1  0  0  0  0
 12 36  1  0  0  0  0
 12 11  1  0  0  0  0
 13 12  1  0  0  0  0
 14 15  1  6  0  0  0
 14 13  1  0  0  0  0
 15 16  1  0  0  0  0
 16 41  1  0  0  0  0
 16 11  1  0  0  0  0
 17 18  1  6  0  0  0
 17 14  1  0  0  0  0
 19 18  2  0  0  0  0
 20 19  1  0  0  0  0
 20 21  1  0  0  0  0
 21 22  1  0  0  0  0
 21 25  2  0  0  0  0
 22 23  1  0  0  0  0
 23 24  2  0  0  0  0
 24 44  1  0  0  0  0
 25 17  1  0  0  0  0
 25 24  1  0  0  0  0
 26 45  1  0  0  0  0
 26 22  1  0  0  0  0
 27 28  1  0  0  0  0
 28  4  1  0  0  0  0
 28 29  2  0  0  0  0
 31  6  1  0  0  0  0
 33  8  1  0  0  0  0
 34 10  1  0  0  0  0
 37 13  1  0  0  0  0
 38 13  1  0  0  0  0
 39 15  1  0  0  0  0
 40 15  1  0  0  0  0
 42 16  1  0  0  0  0
 43 19  1  0  0  0  0
 46 26  1  0  0  0  0
 47 26  1  0  0  0  0
 48 27  1  0  0  0  0
M  END
>  <Pose>
1

>  <Score>
-7.27

$$$$
