
 OpenBabel03222201593D

 49 52  0  0  0  0  0  0  0  0999 V2000
  -17.9600   -0.6710  -26.2170 Cl  0  0  0  0  0  0  0  0  0  0  0  0
  -18.8710   -1.8650  -27.1480 C   0  0  0  0  0  0  0  0  0  0  0  0
  -19.0820   -1.7750  -28.4980 C   0  0  0  0  0  0  0  0  0  0  0  0
  -19.7450   -2.7440  -29.1670 C   0  0  0  0  0  0  0  0  0  0  0  0
  -20.2270   -3.8470  -28.5180 C   0  0  0  0  0  0  0  0  0  0  0  0
  -20.0140   -3.9420  -27.1220 C   0  0  0  0  0  0  0  0  0  0  0  0
  -19.3490   -2.9670  -26.4320 C   0  0  0  0  0  0  0  0  0  0  0  0
  -19.1750   -3.0800  -25.0340 O   0  0  0  0  0  0  0  0  0  0  0  0
  -20.8480   -4.8130  -29.1330 O   0  0  0  0  0  0  0  0  0  0  0  0
  -21.0360   -4.7540  -30.4460 C   0  0  0  0  0  0  0  0  0  0  0  0
  -21.6280   -5.6840  -31.0100 O   0  0  0  0  0  0  0  0  0  0  0  0
  -20.5680   -3.6520  -31.1900 C   0  0  0  0  0  0  0  0  0  0  0  0
  -19.9220   -2.6320  -30.5820 C   0  0  0  0  0  0  0  0  0  0  0  0
  -19.4410   -1.3480  -31.1170 C   0  0  0  0  0  0  0  0  0  0  0  0
  -18.8390   -1.2350  -32.3720 N   0  0  0  0  0  4  0  0  0  0  0  0
  -18.0870   -0.1620  -32.8110 C   0  0  0  0  0  0  0  0  0  0  0  0
  -18.4210    0.1680  -34.3070 C   0  0  0  0  0  0  0  0  0  0  0  0
  -19.8290    0.7520  -34.0850 N   0  0  0  0  0  0  0  0  0  0  0  0
  -20.7290   -0.2180  -33.6920 C   0  0  0  0  0  0  0  0  0  0  0  0
  -19.9010   -1.4860  -33.3900 C   0  0  0  0  0  0  0  0  0  0  0  0
  -19.8660    2.1520  -34.2630 C   0  0  0  0  0  0  0  0  0  0  0  0
  -20.8720    2.8680  -34.8130 C   0  0  0  0  0  0  0  0  0  0  0  0
  -20.9200    4.2880  -34.7200 C   0  0  0  0  0  0  0  0  0  0  0  0
  -19.9470    4.9970  -34.0670 C   0  0  0  0  0  0  0  0  0  0  0  0
  -18.9030    4.2700  -33.5040 C   0  0  0  0  0  0  0  0  0  0  0  0
  -18.8630    2.8870  -33.6040 C   0  0  0  0  0  0  0  0  0  0  0  0
  -20.0370    6.3820  -34.0040 O   0  0  0  0  0  0  0  0  0  0  0  0
  -21.0870    7.0210  -33.2610 C   0  0  0  0  0  0  0  0  0  0  0  0
  -18.6930   -0.9190  -28.9780 H   0  0  0  0  0  0  0  0  0  0  0  0
  -20.3920   -4.8070  -26.5910 H   0  0  0  0  0  0  0  0  0  0  0  0
  -20.7980   -3.6420  -32.2400 H   0  0  0  0  0  0  0  0  0  0  0  0
  -19.3350   -0.5010  -30.4310 H   0  0  0  0  0  0  0  0  0  0  0  0
  -20.5690   -0.9570  -31.4940 H   0  0  0  0  0  0  0  0  0  0  0  0
  -18.2360   -2.1130  -32.4850 H   0  0  0  0  0  0  0  0  0  0  0  0
  -18.2800    0.8510  -32.3510 H   0  0  0  0  0  0  0  0  0  0  0  0
  -16.9730   -0.2420  -32.7990 H   0  0  0  0  0  0  0  0  0  0  0  0
  -18.4790   -0.5880  -34.9850 H   0  0  0  0  0  0  0  0  0  0  0  0
  -17.7510    1.0050  -34.5180 H   0  0  0  0  0  0  0  0  0  0  0  0
  -21.2490    0.1070  -32.7520 H   0  0  0  0  0  0  0  0  0  0  0  0
  -21.5370   -0.5380  -34.4010 H   0  0  0  0  0  0  0  0  0  0  0  0
  -19.4350   -1.8330  -34.2840 H   0  0  0  0  0  0  0  0  0  0  0  0
  -20.5440   -2.3170  -33.0290 H   0  0  0  0  0  0  0  0  0  0  0  0
  -21.6540    2.3180  -35.3500 H   0  0  0  0  0  0  0  0  0  0  0  0
  -21.7520    4.7840  -35.1690 H   0  0  0  0  0  0  0  0  0  0  0  0
  -18.1120    4.7900  -32.9740 H   0  0  0  0  0  0  0  0  0  0  0  0
  -18.0300    2.3730  -33.1940 H   0  0  0  0  0  0  0  0  0  0  0  0
  -21.8050    7.4980  -34.0160 H   0  0  0  0  0  0  0  0  0  0  0  0
  -20.7450    7.7280  -32.5110 H   0  0  0  0  0  0  0  0  0  0  0  0
  -21.7520    6.2990  -32.7430 H   0  0  0  0  0  0  0  0  0  0  0  0
  2  7  1  0  0  0  0
  2  1  1  0  0  0  0
  3  2  2  0  0  0  0
  4  5  2  0  0  0  0
  4  3  1  0  0  0  0
  5  6  1  0  0  0  0
  6 30  1  0  0  0  0
  6  7  2  0  0  0  0
  7  8  1  0  0  0  0
  9  5  1  0  0  0  0
 10  9  1  0  0  0  0
 11 10  2  0  0  0  0
 12 13  2  0  0  0  0
 12 10  1  0  0  0  0
 13  4  1  0  0  0  0
 14 13  1  0  0  0  0
 14 32  1  0  0  0  0
 15 14  1  0  0  0  0
 16 36  1  0  0  0  0
 16 15  1  0  0  0  0
 16 35  1  0  0  0  0
 17 18  1  0  0  0  0
 17 16  1  0  0  0  0
 18 19  1  0  0  0  0
 19 20  1  0  0  0  0
 19 39  1  0  0  0  0
 20 42  1  0  0  0  0
 20 15  1  0  0  0  0
 21 18  1  0  0  0  0
 21 26  1  0  0  0  0
 22 23  1  0  0  0  0
 22 21  2  0  0  0  0
 23 24  2  0  0  0  0
 24 27  1  0  0  0  0
 24 25  1  0  0  0  0
 25 45  1  0  0  0  0
 26 25  2  0  0  0  0
 26 46  1  0  0  0  0
 27 28  1  0  0  0  0
 28 49  1  0  0  0  0
 28 48  1  0  0  0  0
 29  3  1  0  0  0  0
 31 12  1  0  0  0  0
 33 14  1  0  0  0  0
 34 15  1  0  0  0  0
 37 17  1  0  0  0  0
 38 17  1  0  0  0  0
 40 19  1  0  0  0  0
 41 20  1  0  0  0  0
 43 22  1  0  0  0  0
 44 23  1  0  0  0  0
 47 28  1  0  0  0  0
M  END
>  <Pose>
1

>  <Score>
-6.51

$$$$
