
 OpenBabel03222201593D

 47 50  0  0  1  0  0  0  0  0999 V2000
  -18.8390    0.2640  -28.2400 S   0  0  0  0  0  0  0  0  0  0  0  0
  -19.6320    1.2610  -29.0100 O   0  0  0  0  0  0  0  0  0  0  0  0
  -17.5080    0.0060  -28.9160 O   0  0  0  0  0  0  0  0  0  0  0  0
  -19.6310   -1.2220  -28.0530 N   0  0  0  0  0  0  0  0  0  0  0  0
  -19.1560   -2.2420  -28.8740 C   0  0  0  0  0  0  0  0  0  0  0  0
  -19.9370   -3.4610  -29.0940 C   0  0  1  0  0  0  0  0  0  0  0  0
  -21.0270   -3.6030  -28.0640 C   0  0  0  0  0  0  0  0  0  0  0  0
  -21.8200   -2.3460  -28.0360 C   0  0  0  0  0  0  0  0  0  0  0  0
  -20.9450   -1.2030  -27.6070 C   0  0  0  0  0  0  0  0  0  0  0  0
  -20.5440   -3.5890  -30.4470 C   0  0  0  0  0  0  0  0  0  0  0  0
  -20.6660   -2.5700  -31.2940 N   0  0  0  0  0  0  0  0  0  0  0  0
  -21.2270   -2.7180  -32.5070 C   0  0  0  0  0  0  0  0  0  0  0  0
  -21.4710   -1.8670  -33.5420 N   0  0  0  0  0  0  0  0  0  0  0  0
  -22.0490   -2.5830  -34.4830 N   0  0  0  0  0  0  0  0  0  0  0  0
  -22.1910   -3.8420  -34.1130 N   0  0  0  0  0  0  0  0  0  0  0  0
  -21.6890   -3.9720  -32.8810 C   0  0  0  0  0  0  0  0  0  0  0  0
  -21.5690   -5.0420  -32.0090 C   0  0  0  0  0  0  0  0  0  0  0  0
  -20.9950   -4.7890  -30.8250 N   0  0  0  0  0  0  0  0  0  0  0  0
  -22.0250   -6.3030  -32.3640 O   0  0  0  0  0  0  0  0  0  0  0  0
  -21.1560   -0.4730  -33.5860 C   0  0  0  0  0  0  0  0  0  0  0  0
  -20.4210   -0.0680  -34.8090 C   0  0  0  0  0  0  0  0  0  0  0  0
  -19.0780    0.1930  -34.7090 C   0  0  0  0  0  0  0  0  0  0  0  0
  -18.3130    0.5800  -35.8080 C   0  0  0  0  0  0  0  0  0  0  0  0
  -18.9050    0.7100  -37.0460 C   0  0  0  0  0  0  0  0  0  0  0  0
  -20.2530    0.4480  -37.1530 C   0  0  0  0  0  0  0  0  0  0  0  0
  -21.0080    0.0630  -36.0480 C   0  0  0  0  0  0  0  0  0  0  0  0
  -18.2640    0.0480  -33.1650 Cl  0  0  0  0  0  0  0  0  0  0  0  0
  -18.4260    0.9790  -26.6420 C   0  0  0  0  0  0  0  0  0  0  0  0
  -18.1130   -2.5130  -28.5260 H   0  0  0  0  0  0  0  0  0  0  0  0
  -18.9560   -1.7860  -29.8940 H   0  0  0  0  0  0  0  0  0  0  0  0
  -19.2640   -4.3650  -28.9200 H   0  0  0  0  0  0  0  0  0  0  0  0
  -21.6370   -4.5070  -28.2750 H   0  0  0  0  0  0  0  0  0  0  0  0
  -20.5860   -3.7420  -27.0470 H   0  0  0  0  0  0  0  0  0  0  0  0
  -22.6000   -2.4900  -27.2230 H   0  0  0  0  0  0  0  0  0  0  0  0
  -22.4000   -2.1100  -28.9290 H   0  0  0  0  0  0  0  0  0  0  0  0
  -21.4870   -0.2600  -27.8810 H   0  0  0  0  0  0  0  0  0  0  0  0
  -20.9400   -1.2000  -26.4790 H   0  0  0  0  0  0  0  0  0  0  0  0
  -22.6700   -6.7950  -31.7650 H   0  0  0  0  0  0  0  0  0  0  0  0
  -20.5380   -0.1350  -32.7230 H   0  0  0  0  0  0  0  0  0  0  0  0
  -22.1240    0.1020  -33.6100 H   0  0  0  0  0  0  0  0  0  0  0  0
  -17.2550    0.7890  -35.7440 H   0  0  0  0  0  0  0  0  0  0  0  0
  -18.3090    1.0150  -37.9170 H   0  0  0  0  0  0  0  0  0  0  0  0
  -20.7240    0.5520  -38.1410 H   0  0  0  0  0  0  0  0  0  0  0  0
  -22.0640   -0.1380  -36.1520 H   0  0  0  0  0  0  0  0  0  0  0  0
  -19.3320    1.3050  -26.1130 H   0  0  0  0  0  0  0  0  0  0  0  0
  -17.8560    0.1990  -26.0980 H   0  0  0  0  0  0  0  0  0  0  0  0
  -17.8260    1.8850  -26.8660 H   0  0  0  0  0  0  0  0  0  0  0  0
  1  4  1  0  0  0  0
  1 28  1  0  0  0  0
  2  1  2  0  0  0  0
  3  1  2  0  0  0  0
  4  9  1  0  0  0  0
  5 29  1  0  0  0  0
  5  4  1  0  0  0  0
  6 31  1  1  0  0  0
  6  5  1  0  0  0  0
  6  7  1  0  0  0  0
  7  8  1  0  0  0  0
  7 33  1  0  0  0  0
  8  9  1  0  0  0  0
  8 34  1  0  0  0  0
  9 37  1  0  0  0  0
 10  6  1  0  0  0  0
 11 10  2  0  0  0  0
 12 11  1  0  0  0  0
 13 12  1  0  0  0  0
 14 15  2  0  0  0  0
 14 13  1  0  0  0  0
 15 16  1  0  0  0  0
 16 12  2  0  0  0  0
 16 17  1  0  0  0  0
 17 18  2  0  0  0  0
 18 10  1  0  0  0  0
 19 17  1  0  0  0  0
 19 38  1  0  0  0  0
 20 13  1  0  0  0  0
 20 39  1  0  0  0  0
 21 22  1  0  0  0  0
 21 20  1  0  0  0  0
 22 27  1  0  0  0  0
 23 41  1  0  0  0  0
 23 22  2  0  0  0  0
 24 23  1  0  0  0  0
 25 24  2  0  0  0  0
 25 26  1  0  0  0  0
 26 21  2  0  0  0  0
 28 45  1  0  0  0  0
 28 46  1  0  0  0  0
 30  5  1  0  0  0  0
 32  7  1  0  0  0  0
 35  8  1  0  0  0  0
 36  9  1  0  0  0  0
 40 20  1  0  0  0  0
 42 24  1  0  0  0  0
 43 25  1  0  0  0  0
 44 26  1  0  0  0  0
 47 28  1  0  0  0  0
M  END
>  <Pose>
1

>  <Score>
-6.12

$$$$
