
 OpenBabel03222201593D

 54 57  0  0  1  0  0  0  0  0999 V2000
  -19.3850    0.0410  -28.5600 S   0  0  0  0  0  0  0  0  0  0  0  0
  -19.3250    1.4090  -29.2510 O   0  0  0  0  0  0  0  0  0  0  0  0
  -20.8620   -0.2600  -28.4760 O   0  0  0  0  0  0  0  0  0  0  0  0
  -18.5310   -1.0450  -29.5220 N   0  0  0  0  0  0  0  0  0  0  0  0
  -18.5490   -0.6420  -30.9430 C   0  0  0  0  0  0  0  0  0  0  0  0
  -19.9510   -0.7550  -31.4140 C   0  0  2  0  0  0  0  0  0  0  0  0
  -20.6430   -1.8750  -31.1330 O   0  0  0  0  0  0  0  0  0  0  0  0
  -20.2170   -2.7120  -30.1760 C   0  0  0  0  0  0  0  0  0  0  0  0
  -18.9070   -2.4110  -29.5330 C   0  0  0  0  0  0  0  0  0  0  0  0
  -19.9320   -0.5540  -32.8930 C   0  0  0  0  0  0  0  0  0  0  0  0
  -19.2830   -1.3880  -33.5780 O   0  0  0  0  0  0  0  0  0  0  0  0
  -20.5830    0.4950  -33.5700 N   0  0  0  0  0  0  0  0  0  0  0  0
  -22.0140    0.7310  -33.5260 C   0  0  0  0  0  0  0  0  0  0  0  0
  -22.2800    2.0170  -34.2830 C   0  0  0  0  0  0  0  0  0  0  0  0
  -21.8780    1.9390  -35.6750 N   0  0  0  0  0  0  0  0  0  0  0  0
  -20.5480    1.4250  -35.7580 C   0  0  0  0  0  0  0  0  0  0  0  0
  -19.8400    1.4560  -34.3980 C   0  0  0  0  0  0  0  0  0  0  0  0
  -22.8660    1.1950  -36.3870 C   0  0  0  0  0  0  0  0  0  0  0  0
  -22.7720    1.3310  -37.8820 C   0  0  0  0  0  0  0  0  0  0  0  0
  -24.1330    1.5040  -38.5550 C   0  0  0  0  0  0  0  0  0  0  0  0
  -23.2700    0.3060  -38.8010 C   0  0  0  0  0  0  0  0  0  0  0  0
  -18.6930    0.2820  -26.9880 C   0  0  0  0  0  0  0  0  0  0  0  0
  -18.6000   -0.7400  -26.0690 C   0  0  0  0  0  0  0  0  0  0  0  0
  -18.1030   -0.5430  -24.7940 C   0  0  0  0  0  0  0  0  0  0  0  0
  -17.6810    0.7070  -24.4190 C   0  0  0  0  0  0  0  0  0  0  0  0
  -17.7640    1.7480  -25.3320 C   0  0  0  0  0  0  0  0  0  0  0  0
  -18.2580    1.5480  -26.5900 C   0  0  0  0  0  0  0  0  0  0  0  0
  -19.0430   -2.3990  -26.5140 Cl  0  0  0  0  0  0  0  0  0  0  0  0
  -17.9200   -1.3510  -31.4790 H   0  0  0  0  0  0  0  0  0  0  0  0
  -18.1930    0.3770  -31.0850 H   0  0  0  0  0  0  0  0  0  0  0  0
  -20.5700    0.1150  -31.0270 H   0  0  0  0  0  0  0  0  0  0  0  0
  -20.1450   -3.7490  -30.6270 H   0  0  0  0  0  0  0  0  0  0  0  0
  -20.9860   -2.8150  -29.3910 H   0  0  0  0  0  0  0  0  0  0  0  0
  -18.7660   -2.8740  -28.5600 H   0  0  0  0  0  0  0  0  0  0  0  0
  -18.1010   -2.9230  -30.1770 H   0  0  0  0  0  0  0  0  0  0  0  0
  -22.5610   -0.1220  -33.9340 H   0  0  0  0  0  0  0  0  0  0  0  0
  -22.3490    0.9250  -32.4860 H   0  0  0  0  0  0  0  0  0  0  0  0
  -23.3910    2.2100  -34.2360 H   0  0  0  0  0  0  0  0  0  0  0  0
  -21.8100    2.8360  -33.7330 H   0  0  0  0  0  0  0  0  0  0  0  0
  -19.9470    2.0550  -36.4250 H   0  0  0  0  0  0  0  0  0  0  0  0
  -20.5600    0.3570  -36.0600 H   0  0  0  0  0  0  0  0  0  0  0  0
  -18.8390    1.0110  -34.5720 H   0  0  0  0  0  0  0  0  0  0  0  0
  -19.8200    2.4540  -33.9620 H   0  0  0  0  0  0  0  0  0  0  0  0
  -22.8580    0.1440  -36.0510 H   0  0  0  0  0  0  0  0  0  0  0  0
  -23.8650    1.6010  -36.0840 H   0  0  0  0  0  0  0  0  0  0  0  0
  -21.9870    2.0220  -38.2520 H   0  0  0  0  0  0  0  0  0  0  0  0
  -25.0460    1.3840  -37.9480 H   0  0  0  0  0  0  0  0  0  0  0  0
  -24.2320    2.2580  -39.3550 H   0  0  0  0  0  0  0  0  0  0  0  0
  -22.8320    0.2480  -39.8100 H   0  0  0  0  0  0  0  0  0  0  0  0
  -23.7110   -0.6500  -38.4600 H   0  0  0  0  0  0  0  0  0  0  0  0
  -18.0320   -1.3450  -24.0690 H   0  0  0  0  0  0  0  0  0  0  0  0
  -17.2950    0.8490  -23.4230 H   0  0  0  0  0  0  0  0  0  0  0  0
  -17.4190    2.7130  -24.9920 H   0  0  0  0  0  0  0  0  0  0  0  0
  -18.3290    2.3520  -27.3140 H   0  0  0  0  0  0  0  0  0  0  0  0
  1  3  2  0  0  0  0
  1 22  1  0  0  0  0
  2  1  2  0  0  0  0
  4  1  1  0  0  0  0
  5  4  1  0  0  0  0
  6  7  1  0  0  0  0
  6 31  1  1  0  0  0
  6  5  1  0  0  0  0
  7  8  1  0  0  0  0
  8  9  1  0  0  0  0
  8 33  1  0  0  0  0
  9  4  1  0  0  0  0
  9 34  1  0  0  0  0
 10  6  1  0  0  0  0
 11 10  2  0  0  0  0
 12 13  1  0  0  0  0
 12 10  1  0  0  0  0
 13 37  1  0  0  0  0
 14 38  1  0  0  0  0
 14 39  1  0  0  0  0
 14 13  1  0  0  0  0
 15 14  1  0  0  0  0
 16 15  1  0  0  0  0
 16 17  1  0  0  0  0
 17 43  1  0  0  0  0
 17 12  1  0  0  0  0
 18 45  1  0  0  0  0
 18 44  1  0  0  0  0
 18 15  1  0  0  0  0
 19 18  1  0  0  0  0
 20 47  1  0  0  0  0
 20 19  1  0  0  0  0
 21 20  1  0  0  0  0
 21 50  1  0  0  0  0
 21 19  1  0  0  0  0
 22 27  2  0  0  0  0
 22 23  1  0  0  0  0
 23 24  2  0  0  0  0
 24 25  1  0  0  0  0
 24 51  1  0  0  0  0
 25 52  1  0  0  0  0
 26 53  1  0  0  0  0
 26 25  2  0  0  0  0
 27 26  1  0  0  0  0
 28 23  1  0  0  0  0
 29  5  1  0  0  0  0
 30  5  1  0  0  0  0
 32  8  1  0  0  0  0
 35  9  1  0  0  0  0
 36 13  1  0  0  0  0
 40 16  1  0  0  0  0
 41 16  1  0  0  0  0
 42 17  1  0  0  0  0
 46 19  1  0  0  0  0
 48 20  1  0  0  0  0
 49 21  1  0  0  0  0
 54 27  1  0  0  0  0
M  END
>  <Pose>
1

>  <Score>
-5.54

$$$$
