
 OpenBabel03222201593D

 56 59  0  0  0  0  0  0  0  0999 V2000
  -16.4870    0.7690  -32.4920 B   0  0  0  0  0  0  0  0  0  0  0  0
  -18.3010    0.2680  -32.7900 C   0  0  0  0  0  0  0  0  0  0  0  0
  -18.7210   -1.0380  -32.4850 C   0  0  0  0  0  0  0  0  0  0  0  0
  -20.0090   -1.3720  -32.7050 C   0  0  0  0  0  0  0  0  0  0  0  0
  -20.9160   -0.4700  -33.2130 C   0  0  0  0  0  0  0  0  0  0  0  0
  -20.4760    0.8290  -33.5070 C   0  0  0  0  0  0  0  0  0  0  0  0
  -19.1640    1.2050  -33.3000 C   0  0  0  0  0  0  0  0  0  0  0  0
  -22.2350   -0.8490  -33.4190 O   0  0  0  0  0  0  0  0  0  0  0  0
  -22.7070   -1.6760  -34.4240 C   0  0  0  0  0  0  0  0  0  0  0  0
  -20.4890   -2.7050  -32.2990 C   0  0  0  0  0  0  0  0  0  0  0  0
  -20.2890   -3.0110  -31.0110 C   0  0  0  0  0  0  0  0  0  0  0  0
  -19.6680   -2.1670  -30.0980 O   0  0  0  0  0  0  0  0  0  0  0  0
  -19.6560   -2.7920  -28.8440 C   0  0  0  0  0  0  0  0  0  0  0  0
  -20.2370   -4.0230  -28.8710 C   0  0  0  0  0  0  0  0  0  0  0  0
  -20.3520   -4.7990  -27.7420 C   0  0  0  0  0  0  0  0  0  0  0  0
  -19.8660   -4.3290  -26.5270 C   0  0  0  0  0  0  0  0  0  0  0  0
  -19.2700   -3.0670  -26.5060 C   0  0  0  0  0  0  0  0  0  0  0  0
  -19.1560   -2.3060  -27.6240 C   0  0  0  0  0  0  0  0  0  0  0  0
  -18.3720   -1.0550  -27.7160 C   0  0  0  0  0  0  0  0  0  0  0  0
  -18.8280   -0.0440  -26.8820 N   0  0  0  0  0  4  0  0  0  0  0  0
  -17.8800    0.2300  -25.7570 C   0  0  0  0  0  0  0  0  0  0  0  0
  -17.7190    1.7700  -25.7690 C   0  0  0  0  0  0  0  0  0  0  0  0
  -18.7650    2.3470  -26.5530 N   0  0  0  0  0  0  0  0  0  0  0  0
  -20.0650    1.8750  -26.2790 C   0  0  0  0  0  0  0  0  0  0  0  0
  -20.1030    0.2950  -26.4560 C   0  0  0  0  0  0  0  0  0  0  0  0
  -18.4500    3.2870  -27.5090 C   0  0  0  0  0  0  0  0  0  0  0  0
  -18.1590    4.7010  -27.1180 C   0  0  0  0  0  0  0  0  0  0  0  0
  -18.6500    5.6010  -28.0770 O   0  0  0  0  0  0  0  0  0  0  0  0
  -18.8080   -2.6690  -25.2520 O   0  0  0  0  0  0  0  0  0  0  0  0
  -20.6650   -4.2080  -30.2890 C   0  0  0  0  0  0  0  0  0  0  0  0
  -21.2300   -5.2020  -30.7650 O   0  0  0  0  0  0  0  0  0  0  0  0
  -17.9620   -1.6870  -32.0780 H   0  0  0  0  0  0  0  0  0  0  0  0
  -21.1530    1.5670  -33.9090 H   0  0  0  0  0  0  0  0  0  0  0  0
  -18.8610    2.2380  -33.5540 H   0  0  0  0  0  0  0  0  0  0  0  0
  -22.2790   -2.6770  -34.4640 H   0  0  0  0  0  0  0  0  0  0  0  0
  -23.8130   -1.8000  -34.2830 H   0  0  0  0  0  0  0  0  0  0  0  0
  -22.5700   -1.1970  -35.4400 H   0  0  0  0  0  0  0  0  0  0  0  0
  -20.9460   -3.3900  -32.9680 H   0  0  0  0  0  0  0  0  0  0  0  0
  -20.8250   -5.7780  -27.8160 H   0  0  0  0  0  0  0  0  0  0  0  0
  -19.9620   -4.9580  -25.6520 H   0  0  0  0  0  0  0  0  0  0  0  0
  -17.2830   -1.3330  -27.4870 H   0  0  0  0  0  0  0  0  0  0  0  0
  -18.2990   -0.7670  -28.7980 H   0  0  0  0  0  0  0  0  0  0  0  0
  -18.5140    0.8420  -27.5380 H   0  0  0  0  0  0  0  0  0  0  0  0
  -16.9220   -0.2710  -25.9570 H   0  0  0  0  0  0  0  0  0  0  0  0
  -18.3750   -0.0910  -24.8270 H   0  0  0  0  0  0  0  0  0  0  0  0
  -17.7450    2.1130  -24.7250 H   0  0  0  0  0  0  0  0  0  0  0  0
  -16.7480    1.9720  -26.2100 H   0  0  0  0  0  0  0  0  0  0  0  0
  -20.2630    2.0180  -25.2060 H   0  0  0  0  0  0  0  0  0  0  0  0
  -20.8320    2.3390  -26.8610 H   0  0  0  0  0  0  0  0  0  0  0  0
  -20.2730   -0.1600  -25.4300 H   0  0  0  0  0  0  0  0  0  0  0  0
  -20.9820    0.0800  -27.0540 H   0  0  0  0  0  0  0  0  0  0  0  0
  -17.5070    2.9550  -28.0960 H   0  0  0  0  0  0  0  0  0  0  0  0
  -19.2220    3.3060  -28.3370 H   0  0  0  0  0  0  0  0  0  0  0  0
  -17.1220    4.9440  -26.8970 H   0  0  0  0  0  0  0  0  0  0  0  0
  -18.7340    4.9260  -26.1680 H   0  0  0  0  0  0  0  0  0  0  0  0
  -19.6580    5.5140  -28.1170 H   0  0  0  0  0  0  0  0  0  0  0  0
  2  1  1  0  0  0  0
  2  3  1  0  0  0  0
  3 32  1  0  0  0  0
  4  3  2  0  0  0  0
  4 10  1  0  0  0  0
  5  4  1  0  0  0  0
  6  7  1  0  0  0  0
  6  5  2  0  0  0  0
  7  2  2  0  0  0  0
  8  5  1  0  0  0  0
  9 36  1  0  0  0  0
  9  8  1  0  0  0  0
 10 11  2  0  0  0  0
 11 30  1  0  0  0  0
 11 12  1  0  0  0  0
 12 13  1  0  0  0  0
 13 18  1  0  0  0  0
 14 13  2  0  0  0  0
 14 15  1  0  0  0  0
 15 16  2  0  0  0  0
 16 17  1  0  0  0  0
 16 40  1  0  0  0  0
 17 29  1  0  0  0  0
 18 17  2  0  0  0  0
 19 18  1  0  0  0  0
 19 41  1  0  0  0  0
 19 20  1  0  0  0  0
 20 25  1  0  0  0  0
 20 21  1  0  0  0  0
 21 45  1  0  0  0  0
 22 21  1  0  0  0  0
 22 46  1  0  0  0  0
 23 24  1  0  0  0  0
 23 22  1  0  0  0  0
 24 48  1  0  0  0  0
 25 24  1  0  0  0  0
 25 50  1  0  0  0  0
 26 27  1  0  0  0  0
 26 23  1  0  0  0  0
 27 54  1  0  0  0  0
 27 55  1  0  0  0  0
 28 27  1  0  0  0  0
 30 14  1  0  0  0  0
 31 30  2  0  0  0  0
 33  6  1  0  0  0  0
 34  7  1  0  0  0  0
 35  9  1  0  0  0  0
 37  9  1  0  0  0  0
 38 10  1  0  0  0  0
 39 15  1  0  0  0  0
 42 19  1  0  0  0  0
 43 20  1  0  0  0  0
 44 21  1  0  0  0  0
 47 22  1  0  0  0  0
 49 24  1  0  0  0  0
 51 25  1  0  0  0  0
 52 26  1  0  0  0  0
 53 26  1  0  0  0  0
 56 28  1  0  0  0  0
M  END
>  <Pose>
1

>  <Score>
-6.06

$$$$
