
 OpenBabel03222201593D

 46 49  0  0  1  0  0  0  0  0999 V2000
  -21.4940   -4.6090  -32.2590 Cl  0  0  0  0  0  0  0  0  0  0  0  0
  -21.0650   -2.9140  -32.1780 C   0  0  0  0  0  0  0  0  0  0  0  0
  -21.5120   -2.0690  -33.2040 C   0  0  0  0  0  0  0  0  0  0  0  0
  -21.1920   -0.7370  -33.1700 C   0  0  0  0  0  0  0  0  0  0  0  0
  -20.4230   -0.2920  -32.0880 C   0  0  0  0  0  0  0  0  0  0  0  0
  -19.9900   -1.1320  -31.0860 C   0  0  0  0  0  0  0  0  0  0  0  0
  -20.3100   -2.4770  -31.1170 C   0  0  0  0  0  0  0  0  0  0  0  0
  -19.0240   -0.5490  -29.7370 Cl  0  0  0  0  0  0  0  0  0  0  0  0
  -21.6170    0.2210  -34.2020 C   0  0  2  0  0  0  0  0  0  0  0  0
  -22.4140   -0.4450  -35.2460 C   0  0  0  0  0  0  0  0  0  0  0  0
  -22.7200   -1.7690  -35.2620 C   0  0  0  0  0  0  0  0  0  0  0  0
  -23.4640   -2.3370  -36.2560 N   0  0  0  0  0  0  0  0  0  0  0  0
  -23.8920   -1.5430  -37.2340 C   0  0  0  0  0  0  0  0  0  0  0  0
  -24.5880   -2.0270  -38.1820 O   0  0  0  0  0  0  0  0  0  0  0  0
  -23.6110   -0.2250  -37.2580 N   0  0  0  0  0  0  0  0  0  0  0  0
  -22.8850    0.3430  -36.2890 C   0  0  0  0  0  0  0  0  0  0  0  0
  -22.6230    1.5720  -36.3100 O   0  0  0  0  0  0  0  0  0  0  0  0
  -24.1120    0.5910  -38.3550 C   0  0  0  0  0  0  0  0  0  0  0  0
  -23.7710   -3.7510  -36.2420 C   0  0  0  0  0  0  0  0  0  0  0  0
  -22.2700   -2.5690  -34.2470 O   0  0  0  0  0  0  0  0  0  0  0  0
  -20.4430    0.9510  -34.7870 C   0  0  0  0  0  0  0  0  0  0  0  0
  -19.4800    0.3060  -35.5240 C   0  0  0  0  0  0  0  0  0  0  0  0
  -18.4140    0.9300  -36.0510 N   0  0  0  0  0  0  0  0  0  0  0  0
  -18.2870    2.2540  -35.8420 C   0  0  0  0  0  0  0  0  0  0  0  0
  -17.2780    2.8320  -36.3420 O   0  0  0  0  0  0  0  0  0  0  0  0
  -19.2060    2.9250  -35.1260 N   0  0  0  0  0  0  0  0  0  0  0  0
  -20.2780    2.3210  -34.5930 C   0  0  0  0  0  0  0  0  0  0  0  0
  -21.1510    2.9200  -33.9210 O   0  0  0  0  0  0  0  0  0  0  0  0
  -19.0240    4.3450  -34.9290 C   0  0  0  0  0  0  0  0  0  0  0  0
  -17.4160    0.2210  -36.8290 C   0  0  0  0  0  0  0  0  0  0  0  0
  -19.6110   -1.0510  -35.7370 O   0  0  0  0  0  0  0  0  0  0  0  0
  -20.1670    0.7600  -32.0550 H   0  0  0  0  0  0  0  0  0  0  0  0
  -19.9870   -3.1600  -30.3490 H   0  0  0  0  0  0  0  0  0  0  0  0
  -22.2780    1.0170  -33.7550 H   0  0  0  0  0  0  0  0  0  0  0  0
  -24.6320   -0.0640  -39.1040 H   0  0  0  0  0  0  0  0  0  0  0  0
  -23.3250    1.1820  -38.8490 H   0  0  0  0  0  0  0  0  0  0  0  0
  -24.8940    1.3100  -38.0230 H   0  0  0  0  0  0  0  0  0  0  0  0
  -23.2090   -4.2720  -35.4270 H   0  0  0  0  0  0  0  0  0  0  0  0
  -23.4630   -4.2550  -37.1820 H   0  0  0  0  0  0  0  0  0  0  0  0
  -24.8490   -3.8740  -36.0320 H   0  0  0  0  0  0  0  0  0  0  0  0
  -19.9960    4.8580  -34.9610 H   0  0  0  0  0  0  0  0  0  0  0  0
  -18.3750    4.7950  -35.7090 H   0  0  0  0  0  0  0  0  0  0  0  0
  -18.4810    4.5500  -33.9600 H   0  0  0  0  0  0  0  0  0  0  0  0
  -17.4340    0.6900  -37.8570 H   0  0  0  0  0  0  0  0  0  0  0  0
  -16.3810    0.4000  -36.4570 H   0  0  0  0  0  0  0  0  0  0  0  0
  -17.6670   -0.8310  -36.9660 H   0  0  0  0  0  0  0  0  0  0  0  0
  1  2  1  0  0  0  0
  2  7  1  0  0  0  0
  3  4  1  0  0  0  0
  3  2  2  0  0  0  0
  4  5  2  0  0  0  0
  5 32  1  0  0  0  0
  5  6  1  0  0  0  0
  6  8  1  0  0  0  0
  7  6  2  0  0  0  0
  7 33  1  0  0  0  0
  9 34  1  1  0  0  0
  9  4  1  0  0  0  0
 10  9  1  0  0  0  0
 11 10  2  0  0  0  0
 11 20  1  0  0  0  0
 12 19  1  0  0  0  0
 12 11  1  0  0  0  0
 13 12  1  0  0  0  0
 14 13  2  0  0  0  0
 15 13  1  0  0  0  0
 15 16  1  0  0  0  0
 16 10  1  0  0  0  0
 17 16  2  0  0  0  0
 18 37  1  0  0  0  0
 18 15  1  0  0  0  0
 19 40  1  0  0  0  0
 19 38  1  0  0  0  0
 20  3  1  0  0  0  0
 21 27  1  0  0  0  0
 21  9  1  0  0  0  0
 22 21  1  0  0  0  0
 23 24  1  0  0  0  0
 23 22  1  0  0  0  0
 24 26  1  0  0  0  0
 25 24  2  0  0  0  0
 26 29  1  0  0  0  0
 26 27  1  0  0  0  0
 27 28  2  0  0  0  0
 29 43  1  0  0  0  0
 30 45  1  0  0  0  0
 30 23  1  0  0  0  0
 31 22  2  0  0  0  0
 35 18  1  0  0  0  0
 36 18  1  0  0  0  0
 39 19  1  0  0  0  0
 41 29  1  0  0  0  0
 42 29  1  0  0  0  0
 44 30  1  0  0  0  0
 46 30  1  0  0  0  0
M  END
>  <Pose>
1

>  <Score>
-4.96

$$$$
