
 OpenBabel03222201593D

 53 56  0  0  0  0  0  0  0  0999 V2000
  -19.5870   -3.0810  -26.5090 Cl  0  0  0  0  0  0  0  0  0  0  0  0
  -19.6520   -2.1700  -27.9970 C   0  0  0  0  0  0  0  0  0  0  0  0
  -19.4320   -0.8120  -28.0250 C   0  0  0  0  0  0  0  0  0  0  0  0
  -19.4780   -0.0900  -29.1780 C   0  0  0  0  0  0  0  0  0  0  0  0
  -19.7590   -0.6970  -30.4220 C   0  0  0  0  0  0  0  0  0  0  0  0
  -19.9820   -2.0890  -30.3730 C   0  0  0  0  0  0  0  0  0  0  0  0
  -19.9260   -2.7800  -29.1990 C   0  0  0  0  0  0  0  0  0  0  0  0
  -19.8170   -0.0640  -31.5490 O   0  0  0  0  0  0  0  0  0  0  0  0
  -19.8420    0.5830  -32.6580 C   0  0  0  0  0  0  0  0  0  0  0  0
  -20.8800    0.4240  -33.6950 C   0  0  0  0  0  0  0  0  0  0  0  0
  -20.6970    1.1780  -34.7440 O   0  0  0  0  0  0  0  0  0  0  0  0
  -21.9990   -0.3920  -33.7270 N   0  0  0  0  0  0  0  0  0  0  0  0
  -21.7790   -1.8710  -33.7390 C   0  0  0  0  0  0  0  0  0  0  0  0
  -22.7830   -2.4290  -34.7150 C   0  0  0  0  0  0  0  0  0  0  0  0
  -23.2780   -1.4380  -35.6530 N   0  0  0  0  0  0  0  0  0  0  0  0
  -23.9910   -0.3140  -35.1080 C   0  0  0  0  0  0  0  0  0  0  0  0
  -23.3930   -0.0330  -33.7390 C   0  0  0  0  0  0  0  0  0  0  0  0
  -23.0500   -1.5960  -37.0370 C   0  0  0  0  0  0  0  0  0  0  0  0
  -22.1590   -0.8080  -37.7010 N   0  0  0  0  0  0  0  0  0  0  0  0
  -21.9090   -0.9200  -38.9980 C   0  0  0  0  0  0  0  0  0  0  0  0
  -22.5880   -1.8760  -39.6840 N   0  0  0  0  0  0  0  0  0  0  0  0
  -23.4680   -2.6770  -39.1110 C   0  0  0  0  0  0  0  0  0  0  0  0
  -23.7260   -2.5540  -37.7490 C   0  0  0  0  0  0  0  0  0  0  0  0
  -20.9850   -0.1090  -39.7020 N   0  0  0  0  0  0  0  0  0  0  0  0
  -19.8950    0.5420  -38.9850 C   0  0  0  0  0  0  0  0  0  0  0  0
  -19.9930    2.0220  -39.3660 C   0  0  0  0  0  0  0  0  0  0  0  0
  -19.8450    2.1700  -40.7190 O   0  0  0  0  0  0  0  0  0  0  0  0
  -20.8240    1.5740  -41.4780 C   0  0  0  0  0  0  0  0  0  0  0  0
  -21.0560    0.1230  -41.1240 C   0  0  0  0  0  0  0  0  0  0  0  0
  -19.2150   -0.3480  -27.0590 H   0  0  0  0  0  0  0  0  0  0  0  0
  -19.2990    0.9550  -29.1810 H   0  0  0  0  0  0  0  0  0  0  0  0
  -20.1970   -2.5690  -31.3230 H   0  0  0  0  0  0  0  0  0  0  0  0
  -20.1010   -3.8510  -29.1920 H   0  0  0  0  0  0  0  0  0  0  0  0
  -18.8550    0.4110  -33.2580 H   0  0  0  0  0  0  0  0  0  0  0  0
  -19.7470    1.7390  -32.5530 H   0  0  0  0  0  0  0  0  0  0  0  0
  -22.0130   -2.1890  -32.7030 H   0  0  0  0  0  0  0  0  0  0  0  0
  -20.7290   -2.0860  -34.0350 H   0  0  0  0  0  0  0  0  0  0  0  0
  -23.6940   -2.7480  -34.1270 H   0  0  0  0  0  0  0  0  0  0  0  0
  -22.3800   -3.3060  -35.2880 H   0  0  0  0  0  0  0  0  0  0  0  0
  -24.0100    0.5760  -35.7400 H   0  0  0  0  0  0  0  0  0  0  0  0
  -25.0750   -0.6070  -34.9800 H   0  0  0  0  0  0  0  0  0  0  0  0
  -23.9170   -0.7860  -33.0600 H   0  0  0  0  0  0  0  0  0  0  0  0
  -23.6510    0.9290  -33.3160 H   0  0  0  0  0  0  0  0  0  0  0  0
  -24.0040   -3.4400  -39.6830 H   0  0  0  0  0  0  0  0  0  0  0  0
  -24.4490   -3.2200  -37.2820 H   0  0  0  0  0  0  0  0  0  0  0  0
  -19.9950    0.4280  -37.8900 H   0  0  0  0  0  0  0  0  0  0  0  0
  -18.9600    0.1540  -39.3880 H   0  0  0  0  0  0  0  0  0  0  0  0
  -20.9730    2.3940  -38.9840 H   0  0  0  0  0  0  0  0  0  0  0  0
  -19.1910    2.5440  -38.8440 H   0  0  0  0  0  0  0  0  0  0  0  0
  -21.8010    2.1040  -41.4300 H   0  0  0  0  0  0  0  0  0  0  0  0
  -20.4990    1.6020  -42.5390 H   0  0  0  0  0  0  0  0  0  0  0  0
  -22.0590   -0.1450  -41.5170 H   0  0  0  0  0  0  0  0  0  0  0  0
  -20.3170   -0.5030  -41.6510 H   0  0  0  0  0  0  0  0  0  0  0  0
  2  1  1  0  0  0  0
  3  2  1  0  0  0  0
  3 30  1  0  0  0  0
  4  3  2  0  0  0  0
  5  6  2  0  0  0  0
  5  4  1  0  0  0  0
  6  7  1  0  0  0  0
  7 33  1  0  0  0  0
  7  2  2  0  0  0  0
  8  5  1  0  0  0  0
  9 35  1  0  0  0  0
  9  8  1  0  0  0  0
 10  9  1  0  0  0  0
 11 10  2  0  0  0  0
 12 10  1  0  0  0  0
 13 12  1  0  0  0  0
 13 36  1  0  0  0  0
 14 38  1  0  0  0  0
 14 13  1  0  0  0  0
 15 16  1  0  0  0  0
 15 14  1  0  0  0  0
 16 41  1  0  0  0  0
 16 17  1  0  0  0  0
 17 12  1  0  0  0  0
 17 43  1  0  0  0  0
 17 42  1  0  0  0  0
 18 15  1  0  0  0  0
 19 18  1  0  0  0  0
 20 19  2  0  0  0  0
 21 22  2  0  0  0  0
 21 20  1  0  0  0  0
 22 23  1  0  0  0  0
 23 45  1  0  0  0  0
 23 18  2  0  0  0  0
 24 20  1  0  0  0  0
 24 25  1  0  0  0  0
 25 46  1  0  0  0  0
 26 25  1  0  0  0  0
 26 48  1  0  0  0  0
 26 49  1  0  0  0  0
 27 26  1  0  0  0  0
 28 50  1  0  0  0  0
 28 29  1  0  0  0  0
 28 27  1  0  0  0  0
 29 24  1  0  0  0  0
 31  4  1  0  0  0  0
 32  6  1  0  0  0  0
 34  9  1  0  0  0  0
 37 13  1  0  0  0  0
 39 14  1  0  0  0  0
 40 16  1  0  0  0  0
 44 22  1  0  0  0  0
 47 25  1  0  0  0  0
 51 28  1  0  0  0  0
 52 29  1  0  0  0  0
 53 29  1  0  0  0  0
M  END
>  <Pose>
1

>  <Score>
-5.91

$$$$
