
 OpenBabel03222201593D

 45 49  0  0  0  0  0  0  0  0999 V2000
  -21.1740   -4.7680  -31.3490 Cl  0  0  0  0  0  0  0  0  0  0  0  0
  -20.4330   -3.7020  -30.1960 C   0  0  0  0  0  0  0  0  0  0  0  0
  -19.7500   -2.5940  -30.6310 C   0  0  0  0  0  0  0  0  0  0  0  0
  -19.1600   -1.7460  -29.7200 C   0  0  0  0  0  0  0  0  0  0  0  0
  -19.2310   -1.9740  -28.3660 C   0  0  0  0  0  0  0  0  0  0  0  0
  -19.9220   -3.0940  -27.9600 C   0  0  0  0  0  0  0  0  0  0  0  0
  -20.5210   -3.9570  -28.8590 C   0  0  0  0  0  0  0  0  0  0  0  0
  -18.6450   -1.1370  -27.3810 N   0  0  0  0  0  0  0  0  0  0  0  0
  -17.9670   -1.5080  -26.3090 N   0  0  0  0  0  0  0  0  0  0  0  0
  -17.5610   -0.4700  -25.6040 N   0  0  0  0  0  0  0  0  0  0  0  0
  -17.9710    0.6600  -26.2060 C   0  0  0  0  0  0  0  0  0  0  0  0
  -18.6510    0.2190  -27.3230 C   0  0  0  0  0  0  0  0  0  0  0  0
  -19.1890    1.1520  -28.1410 N   0  0  0  0  0  0  0  0  0  0  0  0
  -19.0430    2.4560  -27.8400 C   0  0  0  0  0  0  0  0  0  0  0  0
  -18.3730    2.8830  -26.7410 N   0  0  0  0  0  0  0  0  0  0  0  0
  -17.8190    1.9960  -25.8950 C   0  0  0  0  0  0  0  0  0  0  0  0
  -17.1100    2.4270  -24.7330 N   0  0  0  0  0  0  0  0  0  0  0  0
  -16.2530    3.5860  -24.8910 C   0  0  0  0  0  0  0  0  0  0  0  0
  -16.0400    4.2920  -23.5530 C   0  0  0  0  0  0  0  0  0  0  0  0
  -15.9620    3.3640  -22.4830 N   0  0  0  0  0  0  0  0  0  0  0  0
  -17.2250    2.5850  -22.2940 C   0  0  0  0  0  0  0  0  0  0  0  0
  -17.2980    1.6940  -23.5200 C   0  0  0  0  0  0  0  0  0  0  0  0
  -14.8710    3.1380  -21.6620 C   0  0  0  0  0  0  0  0  0  0  0  0
  -15.1870    2.8530  -20.4100 O   0  0  0  0  0  0  0  0  0  0  0  0
  -13.4350    3.1470  -21.8970 C   0  0  0  0  0  0  0  0  0  0  0  0
  -12.8800    4.1100  -22.8760 C   0  0  0  0  0  0  0  0  0  0  0  0
  -12.4620    4.1260  -21.4240 C   0  0  0  0  0  0  0  0  0  0  0  0
  -19.6980   -2.4200  -31.7130 H   0  0  0  0  0  0  0  0  0  0  0  0
  -18.6320   -0.8860  -30.0970 H   0  0  0  0  0  0  0  0  0  0  0  0
  -19.9950   -3.3000  -26.8900 H   0  0  0  0  0  0  0  0  0  0  0  0
  -21.0520   -4.8250  -28.4490 H   0  0  0  0  0  0  0  0  0  0  0  0
  -19.4840    3.2060  -28.5100 H   0  0  0  0  0  0  0  0  0  0  0  0
  -15.3040    3.2930  -25.3710 H   0  0  0  0  0  0  0  0  0  0  0  0
  -16.7390    4.3240  -25.5590 H   0  0  0  0  0  0  0  0  0  0  0  0
  -17.0020    4.8860  -23.3600 H   0  0  0  0  0  0  0  0  0  0  0  0
  -15.2840    5.0370  -23.6830 H   0  0  0  0  0  0  0  0  0  0  0  0
  -17.1860    2.0020  -21.3770 H   0  0  0  0  0  0  0  0  0  0  0  0
  -18.0520    3.2940  -22.3400 H   0  0  0  0  0  0  0  0  0  0  0  0
  -16.5350    0.8910  -23.3570 H   0  0  0  0  0  0  0  0  0  0  0  0
  -18.2910    1.1970  -23.4970 H   0  0  0  0  0  0  0  0  0  0  0  0
  -12.9920    2.0810  -21.9850 H   0  0  0  0  0  0  0  0  0  0  0  0
  -13.5030    4.9030  -23.3150 H   0  0  0  0  0  0  0  0  0  0  0  0
  -12.0950    3.7770  -23.6060 H   0  0  0  0  0  0  0  0  0  0  0  0
  -11.4090    3.7360  -21.2100 H   0  0  0  0  0  0  0  0  0  0  0  0
  -12.6400    5.0420  -20.8810 H   0  0  0  0  0  0  0  0  0  0  0  0
  1  2  1  0  0  0  0
  2  7  1  0  0  0  0
  3  2  2  0  0  0  0
  3  4  1  0  0  0  0
  4  5  2  0  0  0  0
  5  6  1  0  0  0  0
  5  8  1  0  0  0  0
  6 30  1  0  0  0  0
  7 31  1  0  0  0  0
  7  6  2  0  0  0  0
  8 12  1  0  0  0  0
  8  9  1  0  0  0  0
  9 10  2  0  0  0  0
 11 16  1  0  0  0  0
 11 10  1  0  0  0  0
 12 11  2  0  0  0  0
 13 14  2  0  0  0  0
 13 12  1  0  0  0  0
 14 15  1  0  0  0  0
 15 16  2  0  0  0  0
 16 17  1  0  0  0  0
 17 22  1  0  0  0  0
 18 17  1  0  0  0  0
 18 19  1  0  0  0  0
 19 35  1  0  0  0  0
 19 20  1  0  0  0  0
 20 21  1  0  0  0  0
 20 23  1  0  0  0  0
 21 37  1  0  0  0  0
 22 40  1  0  0  0  0
 22 39  1  0  0  0  0
 22 21  1  0  0  0  0
 23 24  2  0  0  0  0
 25 23  1  0  0  0  0
 25 27  1  0  0  0  0
 26 25  1  0  0  0  0
 26 27  1  0  0  0  0
 27 44  1  0  0  0  0
 27 45  1  0  0  0  0
 28  3  1  0  0  0  0
 29  4  1  0  0  0  0
 32 14  1  0  0  0  0
 33 18  1  0  0  0  0
 34 18  1  0  0  0  0
 36 19  1  0  0  0  0
 38 21  1  0  0  0  0
 41 25  1  0  0  0  0
 42 26  1  0  0  0  0
 43 26  1  0  0  0  0
M  END
>  <Pose>
1

>  <Score>
-6.10

$$$$
