
 OpenBabel03222201593D

 41 44  0  0  1  0  0  0  0  0999 V2000
  -18.4290   -1.9750  -26.1160 S   0  0  0  0  0  0  0  0  0  0  0  0
  -18.7620   -2.5560  -24.7490 O   0  0  0  0  0  0  0  0  0  0  0  0
  -17.1840   -2.7400  -26.5550 O   0  0  0  0  0  0  0  0  0  0  0  0
  -19.6400   -2.2760  -27.2370 N   0  0  0  0  0  0  0  0  0  0  0  0
  -19.7040   -3.5590  -27.8140 C   0  0  0  0  0  0  0  0  0  0  0  0
  -20.6550   -3.6570  -28.9900 C   0  0  0  0  0  0  0  0  0  0  0  0
  -20.2650   -2.5610  -29.9270 C   0  0  1  0  0  0  0  0  0  0  0  0
  -20.0580   -1.3160  -29.3690 C   0  0  0  0  0  0  0  0  0  0  0  0
  -19.7080   -0.2960  -30.1510 N   0  0  0  0  0  0  0  0  0  0  0  0
  -19.5670   -0.5210  -31.4730 C   0  0  1  0  0  0  0  0  0  0  0  0
  -19.7620   -1.7240  -32.0420 N   0  0  0  0  0  0  0  0  0  0  0  0
  -19.5520   -1.6470  -33.3690 N   0  0  0  0  0  0  0  0  0  0  0  0
  -19.2120   -0.3960  -33.7100 C   0  0  0  0  0  0  0  0  0  0  0  0
  -19.2170    0.3220  -32.5370 C   0  0  0  0  0  0  0  0  0  0  0  0
  -20.1180   -2.7810  -31.2790 C   0  0  0  0  0  0  0  0  0  0  0  0
  -20.3150   -3.9290  -31.7520 O   0  0  0  0  0  0  0  0  0  0  0  0
  -20.2450   -1.1980  -27.9030 C   0  0  0  0  0  0  0  0  0  0  0  0
  -17.9910   -0.3280  -25.8740 C   0  0  0  0  0  0  0  0  0  0  0  0
  -17.5370    0.4520  -26.9350 C   0  0  0  0  0  0  0  0  0  0  0  0
  -17.1930    1.7670  -26.7060 C   0  0  0  0  0  0  0  0  0  0  0  0
  -17.2800    2.3350  -25.4770 C   0  0  0  0  0  0  0  0  0  0  0  0
  -17.7220    1.5960  -24.4160 C   0  0  0  0  0  0  0  0  0  0  0  0
  -18.0670    0.2800  -24.6440 C   0  0  0  0  0  0  0  0  0  0  0  0
  -17.8470    2.3110  -22.8050 Cl  0  0  0  0  0  0  0  0  0  0  0  0
  -17.4190   -0.0460  -28.2110 O   0  0  0  0  0  0  0  0  0  0  0  0
  -16.1660    0.0040  -28.8530 C   0  0  0  0  0  0  0  0  0  0  0  0
  -20.0170   -4.2990  -27.0360 H   0  0  0  0  0  0  0  0  0  0  0  0
  -18.6790   -3.8780  -28.1390 H   0  0  0  0  0  0  0  0  0  0  0  0
  -21.6940   -3.5320  -28.6140 H   0  0  0  0  0  0  0  0  0  0  0  0
  -20.5080   -4.6550  -29.4390 H   0  0  0  0  0  0  0  0  0  0  0  0
  -19.6460   -2.4640  -34.0160 H   0  0  0  0  0  0  0  0  0  0  0  0
  -18.9760    0.0060  -34.6940 H   0  0  0  0  0  0  0  0  0  0  0  0
  -18.9920    1.3890  -32.3840 H   0  0  0  0  0  0  0  0  0  0  0  0
  -21.3610   -1.2600  -27.7360 H   0  0  0  0  0  0  0  0  0  0  0  0
  -19.9350   -0.2360  -27.5000 H   0  0  0  0  0  0  0  0  0  0  0  0
  -16.8290    2.4110  -27.5220 H   0  0  0  0  0  0  0  0  0  0  0  0
  -17.0040    3.3840  -25.3010 H   0  0  0  0  0  0  0  0  0  0  0  0
  -18.4160   -0.2640  -23.7510 H   0  0  0  0  0  0  0  0  0  0  0  0
  -15.7550    1.0360  -28.8630 H   0  0  0  0  0  0  0  0  0  0  0  0
  -15.4090   -0.6350  -28.3320 H   0  0  0  0  0  0  0  0  0  0  0  0
  -16.2330   -0.4150  -29.8870 H   0  0  0  0  0  0  0  0  0  0  0  0
  1 18  1  0  0  0  0
  1  2  2  0  0  0  0
  3  1  2  0  0  0  0
  4  1  1  0  0  0  0
  5  4  1  0  0  0  0
  5 27  1  0  0  0  0
  6 29  1  0  0  0  0
  6  5  1  0  0  0  0
  7 15  1  1  0  0  0
  7  8  1  0  0  0  0
  7  6  1  0  0  0  0
  8 17  1  0  0  0  0
  9  8  2  0  0  0  0
 10 14  1  6  0  0  0
 10  9  1  0  0  0  0
 11 10  1  0  0  0  0
 11 15  1  0  0  0  0
 12 11  1  0  0  0  0
 13 12  1  0  0  0  0
 13 14  2  0  0  0  0
 14 33  1  0  0  0  0
 16 15  2  0  0  0  0
 17 34  1  0  0  0  0
 17 35  1  0  0  0  0
 17  4  1  0  0  0  0
 18 23  1  0  0  0  0
 19 20  1  0  0  0  0
 19 18  2  0  0  0  0
 20 21  2  0  0  0  0
 21 37  1  0  0  0  0
 21 22  1  0  0  0  0
 22 24  1  0  0  0  0
 23 22  2  0  0  0  0
 23 38  1  0  0  0  0
 25 19  1  0  0  0  0
 26 40  1  0  0  0  0
 26 25  1  0  0  0  0
 28  5  1  0  0  0  0
 30  6  1  0  0  0  0
 31 12  1  0  0  0  0
 32 13  1  0  0  0  0
 36 20  1  0  0  0  0
 39 26  1  0  0  0  0
 41 26  1  0  0  0  0
M  END
>  <Pose>
1

>  <Score>
-5.84

$$$$
