
 OpenBabel03222201593D

 41 44  0  0  1  0  0  0  0  0999 V2000
  -18.3740   -1.9950  -26.3140 S   0  0  0  0  0  0  0  0  0  0  0  0
  -18.5400   -2.7780  -25.0320 O   0  0  0  0  0  0  0  0  0  0  0  0
  -17.1400   -2.5220  -26.9840 O   0  0  0  0  0  0  0  0  0  0  0  0
  -19.7230   -2.2050  -27.2720 N   0  0  0  0  0  0  0  0  0  0  0  0
  -20.0530   -3.4830  -27.7200 C   0  0  0  0  0  0  0  0  0  0  0  0
  -20.6270   -3.5080  -29.1170 C   0  0  0  0  0  0  0  0  0  0  0  0
  -20.1620   -2.3890  -29.9690 C   0  0  2  0  0  0  0  0  0  0  0  0
  -19.9870   -1.1720  -29.3570 C   0  0  0  0  0  0  0  0  0  0  0  0
  -19.5720   -0.1030  -30.0470 N   0  0  0  0  0  0  0  0  0  0  0  0
  -19.3160   -0.2280  -31.3900 C   0  0  2  0  0  0  0  0  0  0  0  0
  -19.4930   -1.4320  -31.9740 N   0  0  0  0  0  0  0  0  0  0  0  0
  -19.1820   -1.2890  -33.2650 N   0  0  0  0  0  0  0  0  0  0  0  0
  -18.8140   -0.0390  -33.5150 C   0  0  0  0  0  0  0  0  0  0  0  0
  -18.8860    0.6870  -32.3270 C   0  0  0  0  0  0  0  0  0  0  0  0
  -19.9070   -2.5320  -31.3320 C   0  0  0  0  0  0  0  0  0  0  0  0
  -20.0710   -3.6500  -31.8770 O   0  0  0  0  0  0  0  0  0  0  0  0
  -20.2650   -1.0660  -27.9150 C   0  0  0  0  0  0  0  0  0  0  0  0
  -18.0630   -0.3370  -25.8510 C   0  0  0  0  0  0  0  0  0  0  0  0
  -17.9900    0.6980  -26.7670 C   0  0  0  0  0  0  0  0  0  0  0  0
  -17.7400    1.9940  -26.3430 C   0  0  0  0  0  0  0  0  0  0  0  0
  -17.5570    2.3110  -25.0170 C   0  0  0  0  0  0  0  0  0  0  0  0
  -17.6290    1.2820  -24.1030 C   0  0  0  0  0  0  0  0  0  0  0  0
  -17.8780   -0.0060  -24.5250 C   0  0  0  0  0  0  0  0  0  0  0  0
  -17.3060    3.6310  -24.6090 O   0  0  0  0  0  0  0  0  0  0  0  0
  -15.9790    4.0390  -24.3320 C   0  0  0  0  0  0  0  0  0  0  0  0
  -17.6510    3.2920  -27.5170 Cl  0  0  0  0  0  0  0  0  0  0  0  0
  -19.2050   -4.2100  -27.6220 H   0  0  0  0  0  0  0  0  0  0  0  0
  -20.8700   -3.8940  -27.0540 H   0  0  0  0  0  0  0  0  0  0  0  0
  -20.4810   -4.4940  -29.6050 H   0  0  0  0  0  0  0  0  0  0  0  0
  -21.7500   -3.3910  -29.0630 H   0  0  0  0  0  0  0  0  0  0  0  0
  -19.2170   -2.0450  -33.9870 H   0  0  0  0  0  0  0  0  0  0  0  0
  -18.5090    0.3810  -34.4510 H   0  0  0  0  0  0  0  0  0  0  0  0
  -18.6510    1.7190  -32.2130 H   0  0  0  0  0  0  0  0  0  0  0  0
  -19.8590   -0.1590  -27.4540 H   0  0  0  0  0  0  0  0  0  0  0  0
  -21.3890   -1.1160  -27.8060 H   0  0  0  0  0  0  0  0  0  0  0  0
  -18.1360    0.4380  -27.8090 H   0  0  0  0  0  0  0  0  0  0  0  0
  -17.4850    1.5220  -23.0410 H   0  0  0  0  0  0  0  0  0  0  0  0
  -17.9300   -0.8040  -23.7860 H   0  0  0  0  0  0  0  0  0  0  0  0
  -15.3700    3.7430  -25.2350 H   0  0  0  0  0  0  0  0  0  0  0  0
  -15.9180    5.1520  -24.3120 H   0  0  0  0  0  0  0  0  0  0  0  0
  -15.5840    3.5830  -23.4120 H   0  0  0  0  0  0  0  0  0  0  0  0
  1 18  1  0  0  0  0
  1  2  2  0  0  0  0
  3  1  2  0  0  0  0
  4  1  1  0  0  0  0
  5 27  1  0  0  0  0
  5  4  1  0  0  0  0
  5 28  1  0  0  0  0
  6 30  1  0  0  0  0
  6  5  1  0  0  0  0
  7 15  1  6  0  0  0
  7  8  1  0  0  0  0
  7  6  1  0  0  0  0
  8 17  1  0  0  0  0
  9  8  2  0  0  0  0
 10 14  1  1  0  0  0
 10  9  1  0  0  0  0
 11 10  1  0  0  0  0
 11 15  1  0  0  0  0
 12 11  1  0  0  0  0
 13 12  1  0  0  0  0
 13 14  2  0  0  0  0
 14 33  1  0  0  0  0
 16 15  2  0  0  0  0
 17 35  1  0  0  0  0
 17 34  1  0  0  0  0
 17  4  1  0  0  0  0
 18 23  1  0  0  0  0
 19 20  1  0  0  0  0
 19 18  2  0  0  0  0
 20 21  2  0  0  0  0
 21 24  1  0  0  0  0
 21 22  1  0  0  0  0
 22 37  1  0  0  0  0
 23 22  2  0  0  0  0
 23 38  1  0  0  0  0
 24 25  1  0  0  0  0
 25 40  1  0  0  0  0
 25 41  1  0  0  0  0
 26 20  1  0  0  0  0
 29  6  1  0  0  0  0
 31 12  1  0  0  0  0
 32 13  1  0  0  0  0
 36 19  1  0  0  0  0
 39 25  1  0  0  0  0
M  END
>  <Pose>
1

>  <Score>
-6.90

$$$$
