
 OpenBabel03222201593D

 47 50  0  0  1  0  0  0  0  0999 V2000
  -25.8790    1.0720  -34.3870 Cl  0  0  0  0  0  0  0  0  0  0  0  0
  -24.2140    0.5510  -34.4530 C   0  0  0  0  0  0  0  0  0  0  0  0
  -23.8330   -0.7080  -34.8990 C   0  0  0  0  0  0  0  0  0  0  0  0
  -22.5260   -1.0950  -34.9430 C   0  0  0  0  0  0  0  0  0  0  0  0
  -21.5230   -0.2350  -34.5390 C   0  0  0  0  0  0  0  0  0  0  0  0
  -21.8930    1.0110  -34.0970 C   0  0  0  0  0  0  0  0  0  0  0  0
  -23.2200    1.4020  -34.0540 C   0  0  0  0  0  0  0  0  0  0  0  0
  -20.1440   -0.6710  -34.6190 C   0  0  2  0  0  0  0  0  0  0  0  0
  -19.1630   -0.2940  -33.7290 N   0  0  0  0  0  4  0  0  0  0  0  0
  -18.8770    1.0890  -34.0490 C   0  0  0  0  0  0  0  0  0  0  0  0
  -18.6710    2.1740  -33.3750 C   0  0  0  0  0  0  0  0  0  0  0  0
  -18.3920    3.4850  -33.9890 C   0  0  0  0  0  0  0  0  0  0  0  0
  -18.3770    3.5110  -35.4760 C   0  0  0  0  0  0  0  0  0  0  0  0
  -18.1340    2.1880  -36.1180 C   0  0  0  0  0  0  0  0  0  0  0  0
  -18.8460    1.1100  -35.4650 N   0  0  0  0  0  0  0  0  0  0  0  0
  -19.5980   -0.0490  -35.9370 C   0  0  0  0  0  0  0  0  0  0  0  0
  -19.2050   -0.5400  -32.3650 C   0  0  0  0  0  0  0  0  0  0  0  0
  -18.3100   -1.2450  -31.6340 C   0  0  0  0  0  0  0  0  0  0  0  0
  -18.4830   -1.3960  -30.2600 C   0  0  0  0  0  0  0  0  0  0  0  0
  -19.5570   -0.8450  -29.5800 C   0  0  0  0  0  0  0  0  0  0  0  0
  -20.4510   -0.1330  -30.3510 C   0  0  0  0  0  0  0  0  0  0  0  0
  -20.3090    0.0330  -31.7030 C   0  0  0  0  0  0  0  0  0  0  0  0
  -19.6920   -1.0200  -28.2130 O   0  0  0  0  0  0  0  0  0  0  0  0
  -19.7320   -2.3210  -27.6850 C   0  0  0  0  0  0  0  0  0  0  0  0
  -20.0990   -2.0660  -34.8990 O   0  0  0  0  0  0  0  0  0  0  0  0
  -24.6490   -1.3700  -35.2130 H   0  0  0  0  0  0  0  0  0  0  0  0
  -22.3190   -2.1060  -35.3090 H   0  0  0  0  0  0  0  0  0  0  0  0
  -21.1940    1.7650  -33.7720 H   0  0  0  0  0  0  0  0  0  0  0  0
  -23.5080    2.4020  -33.7000 H   0  0  0  0  0  0  0  0  0  0  0  0
  -18.2500   -0.7730  -34.0690 H   0  0  0  0  0  0  0  0  0  0  0  0
  -18.7080    2.1740  -32.2920 H   0  0  0  0  0  0  0  0  0  0  0  0
  -17.4900    3.9640  -33.5330 H   0  0  0  0  0  0  0  0  0  0  0  0
  -19.2370    4.1540  -33.6430 H   0  0  0  0  0  0  0  0  0  0  0  0
  -17.5510    4.2160  -35.7850 H   0  0  0  0  0  0  0  0  0  0  0  0
  -19.3390    3.9100  -35.9040 H   0  0  0  0  0  0  0  0  0  0  0  0
  -17.0250    1.9810  -36.1250 H   0  0  0  0  0  0  0  0  0  0  0  0
  -18.4410    2.1990  -37.1820 H   0  0  0  0  0  0  0  0  0  0  0  0
  -18.8610   -0.7440  -36.3880 H   0  0  0  0  0  0  0  0  0  0  0  0
  -20.4100    0.2240  -36.6150 H   0  0  0  0  0  0  0  0  0  0  0  0
  -17.4610   -1.6810  -32.1340 H   0  0  0  0  0  0  0  0  0  0  0  0
  -17.7260   -1.9750  -29.7310 H   0  0  0  0  0  0  0  0  0  0  0  0
  -21.2920    0.2960  -29.7940 H   0  0  0  0  0  0  0  0  0  0  0  0
  -21.0540    0.6260  -32.2520 H   0  0  0  0  0  0  0  0  0  0  0  0
  -20.6700   -2.8350  -27.9760 H   0  0  0  0  0  0  0  0  0  0  0  0
  -19.5700   -2.3260  -26.5860 H   0  0  0  0  0  0  0  0  0  0  0  0
  -18.8960   -2.9630  -28.0870 H   0  0  0  0  0  0  0  0  0  0  0  0
  -19.3650   -2.1810  -35.5560 H   0  0  0  0  0  0  0  0  0  0  0  0
  2  1  1  0  0  0  0
  2  7  1  0  0  0  0
  3  2  2  0  0  0  0
  4  3  1  0  0  0  0
  4  5  2  0  0  0  0
  5  6  1  0  0  0  0
  6  7  2  0  0  0  0
  6 28  1  0  0  0  0
  7 29  1  0  0  0  0
  8 25  1  6  0  0  0
  8  5  1  0  0  0  0
  8  9  1  0  0  0  0
  9 17  1  0  0  0  0
 10  9  1  0  0  0  0
 10 11  2  0  0  0  0
 11 31  1  0  0  0  0
 12 33  1  0  0  0  0
 12 32  1  0  0  0  0
 12 11  1  0  0  0  0
 13 12  1  0  0  0  0
 14 13  1  0  0  0  0
 14 15  1  0  0  0  0
 15 10  1  0  0  0  0
 16 15  1  0  0  0  0
 16  8  1  0  0  0  0
 17 22  2  0  0  0  0
 17 18  1  0  0  0  0
 18 19  2  0  0  0  0
 19 41  1  0  0  0  0
 19 20  1  0  0  0  0
 20 23  1  0  0  0  0
 21 42  1  0  0  0  0
 21 20  2  0  0  0  0
 22 21  1  0  0  0  0
 23 24  1  0  0  0  0
 24 45  1  0  0  0  0
 26  3  1  0  0  0  0
 27  4  1  0  0  0  0
 30  9  1  0  0  0  0
 34 13  1  0  0  0  0
 35 13  1  0  0  0  0
 36 14  1  0  0  0  0
 37 14  1  0  0  0  0
 38 16  1  0  0  0  0
 39 16  1  0  0  0  0
 40 18  1  0  0  0  0
 43 22  1  0  0  0  0
 44 24  1  0  0  0  0
 46 24  1  0  0  0  0
 47 25  1  0  0  0  0
M  END
>  <Pose>
1

>  <Score>
-5.20

$$$$
