
 OpenBabel03222201593D

 51 54  0  0  0  0  0  0  0  0999 V2000
  -20.7940   -1.6430  -33.8970 Cl  0  0  0  0  0  0  0  0  0  0  0  0
  -20.5700   -2.2870  -32.2890 C   0  0  0  0  0  0  0  0  0  0  0  0
  -20.8770   -3.5900  -32.0130 C   0  0  0  0  0  0  0  0  0  0  0  0
  -20.6750   -4.0820  -30.7170 C   0  0  0  0  0  0  0  0  0  0  0  0
  -20.1770   -3.2970  -29.7050 C   0  0  0  0  0  0  0  0  0  0  0  0
  -19.8540   -1.9550  -29.9750 C   0  0  0  0  0  0  0  0  0  0  0  0
  -20.0670   -1.5030  -31.2670 C   0  0  0  0  0  0  0  0  0  0  0  0
  -20.0690   -4.0050  -28.5840 N   0  0  0  0  0  0  0  0  0  0  0  0
  -20.5170   -5.2640  -28.9130 C   0  0  0  0  0  0  0  0  0  0  0  0
  -20.5810   -6.2450  -28.1180 O   0  0  0  0  0  0  0  0  0  0  0  0
  -20.8610   -5.2580  -30.1770 O   0  0  0  0  0  0  0  0  0  0  0  0
  -19.6730   -3.6310  -27.2370 C   0  0  0  0  0  0  0  0  0  0  0  0
  -19.1060   -2.2980  -27.0500 C   0  0  0  0  0  0  0  0  0  0  0  0
  -18.3760   -1.9330  -25.8610 C   0  0  0  0  0  0  0  0  0  0  0  0
  -18.2930   -2.8650  -24.9710 O   0  0  0  0  0  0  0  0  0  0  0  0
  -17.7330   -0.7360  -25.5420 N   0  0  0  0  0  0  0  0  0  0  0  0
  -16.3300   -0.4260  -25.8780 C   0  0  0  0  0  0  0  0  0  0  0  0
  -16.5870    0.6540  -26.9750 C   0  0  0  0  0  0  0  0  0  0  0  0
  -17.1780    1.8120  -26.3200 N   0  0  0  0  0  0  0  0  0  0  0  0
  -17.8650    1.6810  -25.1550 C   0  0  0  0  0  0  0  0  0  0  0  0
  -18.3700    0.3130  -24.7950 C   0  0  0  0  0  0  0  0  0  0  0  0
  -17.2810    2.8260  -27.2590 C   0  0  0  0  0  0  0  0  0  0  0  0
  -16.5500    4.0930  -26.8130 C   0  0  0  0  0  0  0  0  0  0  0  0
  -16.2150    4.8630  -27.7930 O   0  0  0  0  0  0  0  0  0  0  0  0
  -16.2990    4.3320  -25.5320 N   0  0  0  0  0  0  0  0  0  0  0  0
  -16.0330    4.5860  -24.1670 C   0  0  0  0  0  0  0  0  0  0  0  0
  -14.7340    5.4380  -23.8990 C   0  0  0  0  0  0  0  0  0  0  0  0
  -14.7580    4.0240  -23.5740 C   0  0  0  0  0  0  0  0  0  0  0  0
  -21.2760   -4.2400  -32.7860 H   0  0  0  0  0  0  0  0  0  0  0  0
  -19.4780   -1.3730  -29.1790 H   0  0  0  0  0  0  0  0  0  0  0  0
  -19.8230   -0.4720  -31.4680 H   0  0  0  0  0  0  0  0  0  0  0  0
  -18.9330   -4.4180  -26.8980 H   0  0  0  0  0  0  0  0  0  0  0  0
  -20.6300   -3.7900  -26.6390 H   0  0  0  0  0  0  0  0  0  0  0  0
  -19.9390   -1.5030  -27.1460 H   0  0  0  0  0  0  0  0  0  0  0  0
  -18.3910   -2.1050  -27.9280 H   0  0  0  0  0  0  0  0  0  0  0  0
  -15.7590   -1.2480  -26.2400 H   0  0  0  0  0  0  0  0  0  0  0  0
  -15.8100    0.0630  -25.0340 H   0  0  0  0  0  0  0  0  0  0  0  0
  -15.6490    0.9320  -27.4510 H   0  0  0  0  0  0  0  0  0  0  0  0
  -17.2760    0.3080  -27.7460 H   0  0  0  0  0  0  0  0  0  0  0  0
  -18.7480    2.3940  -25.1100 H   0  0  0  0  0  0  0  0  0  0  0  0
  -17.2130    2.0740  -24.2770 H   0  0  0  0  0  0  0  0  0  0  0  0
  -19.4540    0.2630  -24.8050 H   0  0  0  0  0  0  0  0  0  0  0  0
  -18.0880    0.1880  -23.6840 H   0  0  0  0  0  0  0  0  0  0  0  0
  -18.3540    3.0950  -27.4100 H   0  0  0  0  0  0  0  0  0  0  0  0
  -16.9050    2.5600  -28.2920 H   0  0  0  0  0  0  0  0  0  0  0  0
  -14.9590    4.2900  -25.7460 H   0  0  0  0  0  0  0  0  0  0  0  0
  -16.8230    5.0370  -23.5240 H   0  0  0  0  0  0  0  0  0  0  0  0
  -14.3800    5.9200  -24.7930 H   0  0  0  0  0  0  0  0  0  0  0  0
  -14.7980    6.1440  -23.0170 H   0  0  0  0  0  0  0  0  0  0  0  0
  -14.1810    3.2610  -24.1670 H   0  0  0  0  0  0  0  0  0  0  0  0
  -14.7380    3.7430  -22.4830 H   0  0  0  0  0  0  0  0  0  0  0  0
  1  2  1  0  0  0  0
  2  3  2  0  0  0  0
  2  7  1  0  0  0  0
  3  4  1  0  0  0  0
  4 11  1  0  0  0  0
  4  5  2  0  0  0  0
  5  8  1  0  0  0  0
  6  5  1  0  0  0  0
  6 30  1  0  0  0  0
  7  6  2  0  0  0  0
  8 12  1  0  0  0  0
  9  8  1  0  0  0  0
  9 10  2  0  0  0  0
 11  9  1  0  0  0  0
 12 13  1  0  0  0  0
 12 32  1  0  0  0  0
 12 33  1  0  0  0  0
 13 14  1  0  0  0  0
 14 16  1  0  0  0  0
 14 15  2  0  0  0  0
 16 21  1  0  0  0  0
 17 16  1  0  0  0  0
 17 37  1  0  0  0  0
 18 19  1  0  0  0  0
 18 17  1  0  0  0  0
 19 20  1  0  0  0  0
 20 40  1  0  0  0  0
 20 21  1  0  0  0  0
 20 41  1  0  0  0  0
 21 43  1  0  0  0  0
 22 23  1  0  0  0  0
 22 19  1  0  0  0  0
 23 25  1  0  0  0  0
 24 23  2  0  0  0  0
 25 26  1  0  0  0  0
 26 27  1  0  0  0  0
 26 28  1  0  0  0  0
 26 47  1  0  0  0  0
 27 28  1  0  0  0  0
 27 49  1  0  0  0  0
 28 51  1  0  0  0  0
 29  3  1  0  0  0  0
 31  7  1  0  0  0  0
 34 13  1  0  0  0  0
 35 13  1  0  0  0  0
 36 17  1  0  0  0  0
 38 18  1  0  0  0  0
 39 18  1  0  0  0  0
 42 21  1  0  0  0  0
 44 22  1  0  0  0  0
 45 22  1  0  0  0  0
 46 25  1  0  0  0  0
 48 27  1  0  0  0  0
 50 28  1  0  0  0  0
M  END
>  <Pose>
1

>  <Score>
-6.52

$$$$
