
 OpenBabel03222201593D

 38 40  0  0  1  0  0  0  0  0999 V2000
  -21.4760   -5.4310  -31.7410 Cl  0  0  0  0  0  0  0  0  0  0  0  0
  -21.3150   -3.7490  -32.1960 C   0  0  0  0  0  0  0  0  0  0  0  0
  -20.5500   -2.8960  -31.4280 C   0  0  0  0  0  0  0  0  0  0  0  0
  -20.4640   -1.5870  -31.8480 C   0  0  0  0  0  0  0  0  0  0  0  0
  -19.7870   -0.7190  -31.2160 O   0  0  0  0  0  0  0  0  0  0  0  0
  -21.1070   -1.1960  -32.9580 N   0  0  0  0  0  0  0  0  0  0  0  0
  -21.8470   -1.9760  -33.7210 N   0  0  0  0  0  0  0  0  0  0  0  0
  -22.5270   -1.5090  -34.9180 C   0  0  1  0  0  0  0  0  0  0  0  0
  -23.7190   -0.6320  -34.5990 C   0  0  0  0  0  0  0  0  0  0  0  0
  -23.2710    0.7910  -34.3140 C   0  0  0  0  0  0  0  0  0  0  0  0
  -22.3390    0.8470  -33.1250 C   0  0  0  0  0  0  0  0  0  0  0  0
  -21.0010    0.2070  -33.3870 C   0  0  2  0  0  0  0  0  0  0  0  0
  -20.7840    0.1740  -34.8580 C   0  0  0  0  0  0  0  0  0  0  0  0
  -21.5350   -0.6130  -35.6210 C   0  0  0  0  0  0  0  0  0  0  0  0
  -21.9490   -3.2790  -33.3260 C   0  0  0  0  0  0  0  0  0  0  0  0
  -22.6600   -4.0590  -34.0460 O   0  0  0  0  0  0  0  0  0  0  0  0
  -19.8710   -3.3100  -30.2470 N   0  0  0  0  0  0  0  0  0  0  0  0
  -20.5200   -3.7750  -29.0510 C   0  0  0  0  0  0  0  0  0  0  0  0
  -20.3200   -5.2660  -28.8400 C   0  0  0  0  0  0  0  0  0  0  0  0
  -20.0990   -3.0720  -27.8040 C   0  0  0  0  0  0  0  0  0  0  0  0
  -22.8170   -2.3270  -35.5770 H   0  0  0  0  0  0  0  0  0  0  0  0
  -24.3550   -1.0370  -33.8020 H   0  0  0  0  0  0  0  0  0  0  0  0
  -24.3420   -0.5880  -35.5190 H   0  0  0  0  0  0  0  0  0  0  0  0
  -24.1750    1.3670  -34.0370 H   0  0  0  0  0  0  0  0  0  0  0  0
  -22.7710    1.1900  -35.2110 H   0  0  0  0  0  0  0  0  0  0  0  0
  -22.8800    0.3100  -32.2910 H   0  0  0  0  0  0  0  0  0  0  0  0
  -22.2550    1.8980  -32.7860 H   0  0  0  0  0  0  0  0  0  0  0  0
  -20.1750    0.7170  -32.8550 H   0  0  0  0  0  0  0  0  0  0  0  0
  -20.0110    0.7900  -35.3220 H   0  0  0  0  0  0  0  0  0  0  0  0
  -21.4540   -0.6270  -36.7010 H   0  0  0  0  0  0  0  0  0  0  0  0
  -18.8100   -3.2490  -30.3120 H   0  0  0  0  0  0  0  0  0  0  0  0
  -21.6120   -3.6280  -29.1720 H   0  0  0  0  0  0  0  0  0  0  0  0
  -19.2400   -5.5060  -28.7100 H   0  0  0  0  0  0  0  0  0  0  0  0
  -20.8210   -5.5210  -27.8900 H   0  0  0  0  0  0  0  0  0  0  0  0
  -20.7850   -5.8700  -29.6450 H   0  0  0  0  0  0  0  0  0  0  0  0
  -20.5950   -3.6010  -26.9550 H   0  0  0  0  0  0  0  0  0  0  0  0
  -20.4180   -2.0010  -27.7670 H   0  0  0  0  0  0  0  0  0  0  0  0
  -19.0200   -3.1840  -27.6360 H   0  0  0  0  0  0  0  0  0  0  0  0
  2  1  1  0  0  0  0
  2  3  2  0  0  0  0
  3 17  1  0  0  0  0
  4  3  1  0  0  0  0
  4  5  2  0  0  0  0
  6  4  1  0  0  0  0
  7 15  1  0  0  0  0
  7  6  1  0  0  0  0
  8 21  1  6  0  0  0
  8  9  1  0  0  0  0
  8  7  1  0  0  0  0
  9 10  1  0  0  0  0
  9 22  1  0  0  0  0
 10 24  1  0  0  0  0
 10 11  1  0  0  0  0
 11 27  1  0  0  0  0
 11 26  1  0  0  0  0
 12 11  1  0  0  0  0
 12  6  1  0  0  0  0
 12 28  1  1  0  0  0
 13 12  1  0  0  0  0
 14  8  1  0  0  0  0
 14 13  2  0  0  0  0
 15  2  1  0  0  0  0
 16 15  2  0  0  0  0
 17 18  1  0  0  0  0
 18 19  1  0  0  0  0
 18 20  1  0  0  0  0
 19 33  1  0  0  0  0
 19 34  1  0  0  0  0
 20 37  1  0  0  0  0
 20 38  1  0  0  0  0
 20 36  1  0  0  0  0
 23  9  1  0  0  0  0
 25 10  1  0  0  0  0
 29 13  1  0  0  0  0
 30 14  1  0  0  0  0
 31 17  1  0  0  0  0
 32 18  1  0  0  0  0
 35 19  1  0  0  0  0
M  END
>  <Pose>
1

>  <Score>
-5.16

$$$$
