
 OpenBabel03222201593D

 36 39  0  0  1  0  0  0  0  0999 V2000
  -20.3280   -4.6670  -28.6100 Cl  0  0  0  0  0  0  0  0  0  0  0  0
  -20.1960   -3.1780  -29.5250 C   0  0  0  0  0  0  0  0  0  0  0  0
  -19.9700   -2.0090  -28.8290 C   0  0  0  0  0  0  0  0  0  0  0  0
  -19.8810   -0.8580  -29.6220 C   0  0  0  0  0  0  0  0  0  0  0  0
  -19.6790    0.2270  -29.0450 O   0  0  0  0  0  0  0  0  0  0  0  0
  -20.0080   -0.9200  -30.9530 N   0  0  0  0  0  0  0  0  0  0  0  0
  -20.2240   -2.0460  -31.6150 N   0  0  0  0  0  0  0  0  0  0  0  0
  -20.3310   -1.9370  -33.0630 C   0  0  1  0  0  0  0  0  0  0  0  0
  -21.4500   -0.9490  -33.3390 C   0  0  1  0  0  0  0  0  0  0  0  0
  -21.2520    0.2880  -32.5760 C   0  0  1  0  0  0  0  0  0  0  0  0
  -19.9260    0.2710  -31.8030 C   0  0  2  0  0  0  0  0  0  0  0  0
  -18.8690   -0.0730  -32.8150 C   0  0  0  0  0  0  0  0  0  0  0  0
  -19.0720   -1.2060  -33.4660 C   0  0  0  0  0  0  0  0  0  0  0  0
  -21.1750    0.2880  -34.1090 C   0  0  0  0  0  0  0  0  0  0  0  0
  -20.3190   -3.1700  -30.9120 C   0  0  0  0  0  0  0  0  0  0  0  0
  -20.5240   -4.2450  -31.5310 O   0  0  0  0  0  0  0  0  0  0  0  0
  -19.8280   -1.9290  -27.4140 N   0  0  0  0  0  0  0  0  0  0  0  0
  -18.7520   -2.4660  -26.6640 C   0  0  0  0  0  0  0  0  0  0  0  0
  -18.0410   -1.4710  -25.7830 C   0  0  0  0  0  0  0  0  0  0  0  0
  -19.1660   -3.6210  -25.7630 C   0  0  0  0  0  0  0  0  0  0  0  0
  -20.4450   -2.8880  -33.5710 H   0  0  0  0  0  0  0  0  0  0  0  0
  -22.4360   -1.4130  -33.5070 H   0  0  0  0  0  0  0  0  0  0  0  0
  -22.0840    0.8580  -32.1220 H   0  0  0  0  0  0  0  0  0  0  0  0
  -19.7340    1.1840  -31.2610 H   0  0  0  0  0  0  0  0  0  0  0  0
  -18.0430    0.6020  -32.9400 H   0  0  0  0  0  0  0  0  0  0  0  0
  -18.4530   -1.6420  -34.2260 H   0  0  0  0  0  0  0  0  0  0  0  0
  -21.9920    0.7510  -34.6650 H   0  0  0  0  0  0  0  0  0  0  0  0
  -20.1200    0.4030  -34.4890 H   0  0  0  0  0  0  0  0  0  0  0  0
  -20.5960   -1.4280  -26.9180 H   0  0  0  0  0  0  0  0  0  0  0  0
  -17.9850   -2.8830  -27.3460 H   0  0  0  0  0  0  0  0  0  0  0  0
  -17.4470   -0.7250  -26.3490 H   0  0  0  0  0  0  0  0  0  0  0  0
  -17.2770   -2.0010  -25.1400 H   0  0  0  0  0  0  0  0  0  0  0  0
  -18.6820   -0.9380  -25.0860 H   0  0  0  0  0  0  0  0  0  0  0  0
  -18.2020   -3.9970  -25.3120 H   0  0  0  0  0  0  0  0  0  0  0  0
  -19.5550   -4.4650  -26.3580 H   0  0  0  0  0  0  0  0  0  0  0  0
  -19.7920   -3.3140  -24.9270 H   0  0  0  0  0  0  0  0  0  0  0  0
  2  3  2  0  0  0  0
  2  1  1  0  0  0  0
  3 17  1  0  0  0  0
  4  5  2  0  0  0  0
  4  3  1  0  0  0  0
  6  4  1  0  0  0  0
  7  6  1  0  0  0  0
  7 15  1  0  0  0  0
  8 21  1  6  0  0  0
  8  7  1  0  0  0  0
  9 22  1  6  0  0  0
  9  8  1  0  0  0  0
  9 10  1  0  0  0  0
 10 23  1  1  0  0  0
 10 11  1  0  0  0  0
 11 24  1  1  0  0  0
 11  6  1  0  0  0  0
 12 11  1  0  0  0  0
 13  8  1  0  0  0  0
 13 12  2  0  0  0  0
 14  9  1  0  0  0  0
 14 10  1  0  0  0  0
 15  2  1  0  0  0  0
 16 15  2  0  0  0  0
 17 29  1  0  0  0  0
 17 18  1  0  0  0  0
 18 19  1  0  0  0  0
 18 20  1  0  0  0  0
 19 32  1  0  0  0  0
 19 33  1  0  0  0  0
 20 34  1  0  0  0  0
 20 36  1  0  0  0  0
 25 12  1  0  0  0  0
 26 13  1  0  0  0  0
 27 14  1  0  0  0  0
 28 14  1  0  0  0  0
 30 18  1  0  0  0  0
 31 19  1  0  0  0  0
 35 20  1  0  0  0  0
M  END
>  <Pose>
1

>  <Score>
-5.02

$$$$
