
 OpenBabel03222201593D

 59 62  0  0  1  0  0  0  0  0999 V2000
  -20.4010   -4.5490  -29.0160 Cl  0  0  0  0  0  0  0  0  0  0  0  0
  -19.8870   -2.8690  -29.4500 C   0  0  2  0  0  0  0  0  0  0  0  0
  -19.3870   -2.1180  -28.4780 C   0  0  2  0  0  0  0  0  0  0  0  0
  -19.0310   -0.7350  -28.8800 C   0  0  0  0  0  0  0  0  0  0  0  0
  -19.2070   -0.4070  -30.1040 N   0  0  0  0  0  0  0  0  0  0  0  0
  -19.7070   -1.2160  -31.0750 N   0  0  0  0  0  0  0  0  0  0  0  0
  -20.0510   -2.4360  -30.7660 C   0  0  0  0  0  0  0  0  0  0  0  0
  -20.5190   -3.2790  -31.6040 O   0  0  0  0  0  0  0  0  0  0  0  0
  -19.5750   -0.7480  -32.4540 C   0  0  0  0  0  0  0  0  0  0  0  0
  -20.5800   -0.8430  -33.3620 C   0  0  0  0  0  0  0  0  0  0  0  0
  -20.4680   -0.2840  -34.6170 C   0  0  0  0  0  0  0  0  0  0  0  0
  -19.3130    0.4000  -34.9900 C   0  0  0  0  0  0  0  0  0  0  0  0
  -18.2950    0.4740  -34.0400 C   0  0  0  0  0  0  0  0  0  0  0  0
  -18.4240   -0.0770  -32.8240 C   0  0  0  0  0  0  0  0  0  0  0  0
  -18.8740   -2.5510  -27.2650 N   0  0  0  0  0  0  0  0  0  0  0  0
  -19.4250   -2.9400  -26.0370 C   0  0  0  0  0  0  0  0  0  0  0  0
  -18.8310   -1.9800  -24.9420 C   0  0  0  0  0  0  0  0  0  0  0  0
  -18.1460   -0.8680  -25.3800 N   0  0  0  0  0  0  0  0  0  0  0  0
  -17.4970   -0.8970  -26.6620 C   0  0  0  0  0  0  0  0  0  0  0  0
  -17.3630   -2.3750  -27.1560 C   0  0  0  0  0  0  0  0  0  0  0  0
  -17.0380   -0.4070  -24.4780 C   0  0  0  0  0  0  0  0  0  0  0  0
  -17.4830    0.7380  -23.6990 C   0  0  0  0  0  0  0  0  0  0  0  0
  -18.1930    1.5850  -23.8580 O   0  0  0  0  0  0  0  0  0  0  0  0
  -16.7060    0.7390  -22.1770 N   0  0  0  0  0  0  0  0  0  0  0  0
  -16.7910    2.2320  -22.0010 C   0  0  0  0  0  0  0  0  0  0  0  0
  -17.7980    2.8840  -22.0280 O   0  0  0  0  0  0  0  0  0  0  0  0
  -15.4740    2.7820  -21.7750 N   0  0  0  0  0  0  0  0  0  0  0  0
  -14.8340    3.8150  -22.4970 C   0  0  0  0  0  0  0  0  0  0  0  0
  -14.7620    5.1710  -21.9250 C   0  0  0  0  0  0  0  0  0  0  0  0
  -13.4480    5.2710  -21.1440 C   0  0  0  0  0  0  0  0  0  0  0  0
  -12.5450    4.3920  -21.9770 C   0  0  0  0  0  0  0  0  0  0  0  0
  -13.3650    3.3610  -22.6190 C   0  0  0  0  0  0  0  0  0  0  0  0
  -18.6660   -0.1930  -28.0360 H   0  0  0  0  0  0  0  0  0  0  0  0
  -21.4850   -1.3930  -33.1050 H   0  0  0  0  0  0  0  0  0  0  0  0
  -21.2480   -0.3170  -35.3140 H   0  0  0  0  0  0  0  0  0  0  0  0
  -19.2740    0.8290  -35.9660 H   0  0  0  0  0  0  0  0  0  0  0  0
  -17.4160    1.0380  -34.3560 H   0  0  0  0  0  0  0  0  0  0  0  0
  -17.6150    0.0060  -32.1110 H   0  0  0  0  0  0  0  0  0  0  0  0
  -20.4990   -3.0260  -25.9390 H   0  0  0  0  0  0  0  0  0  0  0  0
  -19.0360   -3.9770  -25.8250 H   0  0  0  0  0  0  0  0  0  0  0  0
  -18.2070   -2.6820  -24.3080 H   0  0  0  0  0  0  0  0  0  0  0  0
  -19.7100   -1.7830  -24.2550 H   0  0  0  0  0  0  0  0  0  0  0  0
  -18.0790   -0.4290  -27.4940 H   0  0  0  0  0  0  0  0  0  0  0  0
  -16.4600   -0.5790  -26.5780 H   0  0  0  0  0  0  0  0  0  0  0  0
  -16.8540   -2.4700  -28.0670 H   0  0  0  0  0  0  0  0  0  0  0  0
  -17.0110   -2.9420  -26.2590 H   0  0  0  0  0  0  0  0  0  0  0  0
  -16.8050   -1.2980  -23.9090 H   0  0  0  0  0  0  0  0  0  0  0  0
  -16.1980   -0.1310  -25.1230 H   0  0  0  0  0  0  0  0  0  0  0  0
  -16.6640   -0.0270  -22.2730 H   0  0  0  0  0  0  0  0  0  0  0  0
  -14.9230    2.3290  -20.9710 H   0  0  0  0  0  0  0  0  0  0  0  0
  -15.3210    3.9240  -23.5400 H   0  0  0  0  0  0  0  0  0  0  0  0
  -14.6570    5.8950  -22.7690 H   0  0  0  0  0  0  0  0  0  0  0  0
  -15.6240    5.4710  -21.2930 H   0  0  0  0  0  0  0  0  0  0  0  0
  -13.5590    4.8490  -20.1230 H   0  0  0  0  0  0  0  0  0  0  0  0
  -13.0720    6.3280  -21.1130 H   0  0  0  0  0  0  0  0  0  0  0  0
  -11.8580    3.8700  -21.2180 H   0  0  0  0  0  0  0  0  0  0  0  0
  -11.8970    4.9510  -22.6820 H   0  0  0  0  0  0  0  0  0  0  0  0
  -13.0930    3.0580  -23.6500 H   0  0  0  0  0  0  0  0  0  0  0  0
  -13.2740    2.4170  -21.9470 H   0  0  0  0  0  0  0  0  0  0  0  0
  2  1  1  1  0  0  0
  2  3  1  0  0  0  0
  3 15  1  6  0  0  0
  4  3  1  0  0  0  0
  4 33  1  0  0  0  0
  5  4  2  0  0  0  0
  6  7  1  0  0  0  0
  6  5  1  0  0  0  0
  7  2  1  0  0  0  0
  8  7  2  0  0  0  0
  9  6  1  0  0  0  0
 10 34  1  0  0  0  0
 10  9  2  0  0  0  0
 11 10  1  0  0  0  0
 12 11  2  0  0  0  0
 12 13  1  0  0  0  0
 13 14  2  0  0  0  0
 14  9  1  0  0  0  0
 14 38  1  0  0  0  0
 15 20  1  0  0  0  0
 15 16  1  0  0  0  0
 16 39  1  0  0  0  0
 16 40  1  0  0  0  0
 16 17  1  0  0  0  0
 17 41  1  0  0  0  0
 17 42  1  0  0  0  0
 18 17  1  0  0  0  0
 18 21  1  0  0  0  0
 19 44  1  0  0  0  0
 19 18  1  0  0  0  0
 20 19  1  0  0  0  0
 20 46  1  0  0  0  0
 21 47  1  0  0  0  0
 21 22  1  0  0  0  0
 22 24  1  0  0  0  0
 23 22  2  0  0  0  0
 24 25  1  0  0  0  0
 25 27  1  0  0  0  0
 26 25  2  0  0  0  0
 27 50  1  0  0  0  0
 28 29  1  0  0  0  0
 28 27  1  0  0  0  0
 29 53  1  0  0  0  0
 29 30  1  0  0  0  0
 30 55  1  0  0  0  0
 30 54  1  0  0  0  0
 31 56  1  0  0  0  0
 31 30  1  0  0  0  0
 32 28  1  0  0  0  0
 32 31  1  0  0  0  0
 32 59  1  0  0  0  0
 35 11  1  0  0  0  0
 36 12  1  0  0  0  0
 37 13  1  0  0  0  0
 43 19  1  0  0  0  0
 45 20  1  0  0  0  0
 48 21  1  0  0  0  0
 49 24  1  0  0  0  0
 51 28  1  0  0  0  0
 52 29  1  0  0  0  0
 57 31  1  0  0  0  0
 58 32  1  0  0  0  0
M  END
>  <Pose>
1

>  <Score>
-6.30

$$$$
