
 OpenBabel03222201593D

 56 59  0  0  1  0  0  0  0  0999 V2000
  -19.7170   -0.2570  -29.6170 Cl  0  0  0  0  0  0  0  0  0  0  0  0
  -18.8560   -0.1990  -28.0930 C   0  0  0  0  0  0  0  0  0  0  0  0
  -18.5750   -1.4150  -27.4770 C   0  0  0  0  0  0  0  0  0  0  0  0
  -17.8970   -1.3330  -26.2800 C   0  0  0  0  0  0  0  0  0  0  0  0
  -17.5470   -0.1380  -25.7740 N   0  0  0  0  0  0  0  0  0  0  0  0
  -17.8030    1.0270  -26.3430 N   0  0  0  0  0  0  0  0  0  0  0  0
  -18.4650    0.9930  -27.5150 C   0  0  0  0  0  0  0  0  0  0  0  0
  -18.7220    2.0930  -28.0790 O   0  0  0  0  0  0  0  0  0  0  0  0
  -17.4010    2.2640  -25.7410 C   0  0  0  0  0  0  0  0  0  0  0  0
  -17.6240    2.4860  -24.4020 C   0  0  0  0  0  0  0  0  0  0  0  0
  -17.2350    3.6900  -23.8040 C   0  0  0  0  0  0  0  0  0  0  0  0
  -16.6210    4.6830  -24.5310 C   0  0  0  0  0  0  0  0  0  0  0  0
  -16.3920    4.4700  -25.8730 C   0  0  0  0  0  0  0  0  0  0  0  0
  -16.7840    3.2700  -26.4560 C   0  0  0  0  0  0  0  0  0  0  0  0
  -18.9710   -2.6540  -28.0450 N   0  0  0  0  0  0  0  0  0  0  0  0
  -18.1690   -3.3550  -29.0190 C   0  0  0  0  0  0  0  0  0  0  0  0
  -19.0340   -3.8400  -30.1400 C   0  0  0  0  0  0  0  0  0  0  0  0
  -20.3200   -3.2040  -29.9960 N   0  0  0  0  0  0  0  0  0  0  0  0
  -20.9740   -3.7440  -28.8590 C   0  0  0  0  0  0  0  0  0  0  0  0
  -20.2250   -3.2300  -27.6260 C   0  0  0  0  0  0  0  0  0  0  0  0
  -21.0620   -3.0160  -31.1780 C   0  0  0  0  0  0  0  0  0  0  0  0
  -20.3080   -3.2270  -32.4180 C   0  0  0  0  0  0  0  0  0  0  0  0
  -20.2720   -4.4270  -32.8540 O   0  0  0  0  0  0  0  0  0  0  0  0
  -19.6300   -2.2340  -33.1650 N   0  0  0  0  0  0  0  0  0  0  0  0
  -19.9400   -0.8270  -33.1140 C   0  0  0  0  0  0  0  0  0  0  0  0
  -21.1130   -0.5410  -34.0000 C   0  0  1  0  0  0  0  0  0  0  0  0
  -22.2100   -0.2640  -33.2290 O   0  0  0  0  0  0  0  0  0  0  0  0
  -22.7210    0.9690  -33.5270 C   0  0  0  0  0  0  0  0  0  0  0  0
  -22.3290    1.1680  -34.9760 C   0  0  0  0  0  0  0  0  0  0  0  0
  -20.8730    0.6790  -34.8790 C   0  0  0  0  0  0  0  0  0  0  0  0
  -17.6640   -2.2700  -25.7770 H   0  0  0  0  0  0  0  0  0  0  0  0
  -18.1120    1.6980  -23.8190 H   0  0  0  0  0  0  0  0  0  0  0  0
  -17.4070    3.8690  -22.7560 H   0  0  0  0  0  0  0  0  0  0  0  0
  -16.3010    5.6380  -24.0990 H   0  0  0  0  0  0  0  0  0  0  0  0
  -15.9090    5.2550  -26.4430 H   0  0  0  0  0  0  0  0  0  0  0  0
  -16.6090    3.0930  -27.5100 H   0  0  0  0  0  0  0  0  0  0  0  0
  -17.5450   -4.1550  -28.5690 H   0  0  0  0  0  0  0  0  0  0  0  0
  -17.4160   -2.6550  -29.4910 H   0  0  0  0  0  0  0  0  0  0  0  0
  -19.2230   -4.9450  -29.9810 H   0  0  0  0  0  0  0  0  0  0  0  0
  -18.6440   -3.6440  -31.1400 H   0  0  0  0  0  0  0  0  0  0  0  0
  -22.0520   -3.5530  -28.8060 H   0  0  0  0  0  0  0  0  0  0  0  0
  -20.8280   -4.8510  -28.8710 H   0  0  0  0  0  0  0  0  0  0  0  0
  -20.0850   -4.0370  -26.8650 H   0  0  0  0  0  0  0  0  0  0  0  0
  -20.8960   -2.4490  -27.1910 H   0  0  0  0  0  0  0  0  0  0  0  0
  -21.5630   -2.0080  -31.2160 H   0  0  0  0  0  0  0  0  0  0  0  0
  -21.9100   -3.7670  -31.1610 H   0  0  0  0  0  0  0  0  0  0  0  0
  -18.8530   -2.5450  -33.7820 H   0  0  0  0  0  0  0  0  0  0  0  0
  -19.0670   -0.2090  -33.4560 H   0  0  0  0  0  0  0  0  0  0  0  0
  -20.1690   -0.5520  -32.0740 H   0  0  0  0  0  0  0  0  0  0  0  0
  -21.3270   -1.3770  -34.6830 H   0  0  0  0  0  0  0  0  0  0  0  0
  -22.1760    1.7350  -32.9410 H   0  0  0  0  0  0  0  0  0  0  0  0
  -23.8130    1.0100  -33.3780 H   0  0  0  0  0  0  0  0  0  0  0  0
  -22.4040    2.1950  -35.3210 H   0  0  0  0  0  0  0  0  0  0  0  0
  -22.8720    0.4250  -35.5950 H   0  0  0  0  0  0  0  0  0  0  0  0
  -20.3410    1.4760  -34.3100 H   0  0  0  0  0  0  0  0  0  0  0  0
  -20.4520    0.4550  -35.8540 H   0  0  0  0  0  0  0  0  0  0  0  0
  1  2  1  0  0  0  0
  2  7  1  0  0  0  0
  2  3  2  0  0  0  0
  3  4  1  0  0  0  0
  4 31  1  0  0  0  0
  4  5  2  0  0  0  0
  6  5  1  0  0  0  0
  6  9  1  0  0  0  0
  7  6  1  0  0  0  0
  8  7  2  0  0  0  0
  9 10  1  0  0  0  0
 10 32  1  0  0  0  0
 10 11  2  0  0  0  0
 11 33  1  0  0  0  0
 12 34  1  0  0  0  0
 12 11  1  0  0  0  0
 13 12  2  0  0  0  0
 14 13  1  0  0  0  0
 14  9  2  0  0  0  0
 15 20  1  0  0  0  0
 15  3  1  0  0  0  0
 16 37  1  0  0  0  0
 16 15  1  0  0  0  0
 17 18  1  0  0  0  0
 17 39  1  0  0  0  0
 17 16  1  0  0  0  0
 18 19  1  0  0  0  0
 19 41  1  0  0  0  0
 19 20  1  0  0  0  0
 20 44  1  0  0  0  0
 20 43  1  0  0  0  0
 21 46  1  0  0  0  0
 21 18  1  0  0  0  0
 22 21  1  0  0  0  0
 23 22  2  0  0  0  0
 24 25  1  0  0  0  0
 24 22  1  0  0  0  0
 25 49  1  0  0  0  0
 26 50  1  6  0  0  0
 26 27  1  0  0  0  0
 26 25  1  0  0  0  0
 28 52  1  0  0  0  0
 28 27  1  0  0  0  0
 28 51  1  0  0  0  0
 29 30  1  0  0  0  0
 29 28  1  0  0  0  0
 30 55  1  0  0  0  0
 30 26  1  0  0  0  0
 35 13  1  0  0  0  0
 36 14  1  0  0  0  0
 38 16  1  0  0  0  0
 40 17  1  0  0  0  0
 42 19  1  0  0  0  0
 45 21  1  0  0  0  0
 47 24  1  0  0  0  0
 48 25  1  0  0  0  0
 53 29  1  0  0  0  0
 54 29  1  0  0  0  0
 56 30  1  0  0  0  0
M  END
>  <Pose>
1

>  <Score>
-5.99

$$$$
