
 OpenBabel03222201593D

 50 54  0  0  0  0  0  0  0  0999 V2000
  -23.1560    0.9320  -37.4560 S   0  0  0  0  0  0  0  0  0  0  0  0
  -22.6520    2.3030  -37.8980 O   0  0  0  0  0  0  0  0  0  0  0  0
  -24.6500    0.8590  -37.6400 O   0  0  0  0  0  0  0  0  0  0  0  0
  -22.6930    0.6800  -35.8830 N   0  0  0  0  0  0  0  0  0  0  0  0
  -21.3530    0.7670  -35.4940 C   0  0  0  0  0  0  0  0  0  0  0  0
  -21.0870   -0.1070  -34.2640 C   0  0  0  0  0  0  0  0  0  0  0  0
  -21.5890   -1.4000  -34.5120 N   0  0  0  0  0  0  0  0  0  0  0  0
  -22.9660   -1.4480  -34.8250 C   0  0  0  0  0  0  0  0  0  0  0  0
  -23.5080   -0.0470  -35.0020 C   0  0  0  0  0  0  0  0  0  0  0  0
  -21.1070   -2.4480  -33.6700 C   0  0  0  0  0  0  0  0  0  0  0  0
  -20.3230   -1.8490  -32.5640 C   0  0  0  0  0  0  0  0  0  0  0  0
  -18.9430   -1.7970  -32.5760 C   0  0  0  0  0  0  0  0  0  0  0  0
  -18.1740   -1.2530  -31.5790 C   0  0  0  0  0  0  0  0  0  0  0  0
  -16.9060   -1.2640  -31.7030 O   0  0  0  0  0  0  0  0  0  0  0  0
  -18.7810   -0.7160  -30.4790 N   0  0  0  0  0  0  0  0  0  0  0  0
  -18.1860   -0.1830  -29.4870 N   0  0  0  0  0  0  0  0  0  0  0  0
  -18.8270    0.3100  -28.4690 C   0  0  0  0  0  0  0  0  0  0  0  0
  -20.4490   -0.0120  -28.9650 S   0  0  0  0  0  0  0  0  0  0  0  0
  -20.1140   -0.7680  -30.4700 C   0  0  0  0  0  0  0  0  0  0  0  0
  -20.8680   -1.3040  -31.4550 N   0  0  0  0  0  0  0  0  0  0  0  0
  -18.3620    0.9600  -27.2380 C   0  0  0  0  0  0  0  0  0  0  0  0
  -18.1080    2.3150  -27.2600 C   0  0  0  0  0  0  0  0  0  0  0  0
  -17.6660    2.9880  -26.1300 C   0  0  0  0  0  0  0  0  0  0  0  0
  -17.4750    2.2960  -24.9520 C   0  0  0  0  0  0  0  0  0  0  0  0
  -17.7240    0.9350  -24.9050 C   0  0  0  0  0  0  0  0  0  0  0  0
  -18.1590    0.3120  -26.0520 C   0  0  0  0  0  0  0  0  0  0  0  0
  -16.9250    3.1240  -23.5310 Cl  0  0  0  0  0  0  0  0  0  0  0  0
  -22.3890   -0.2130  -38.5340 C   0  0  0  0  0  0  0  0  0  0  0  0
  -22.9550   -1.3270  -39.0760 N   0  0  0  0  0  0  0  0  0  0  0  0
  -22.0710   -1.9640  -39.8470 C   0  0  0  0  0  0  0  0  0  0  0  0
  -20.9080   -1.2990  -39.8390 N   0  0  0  0  0  0  0  0  0  0  0  0
  -21.1080   -0.2220  -39.0300 C   0  0  0  0  0  0  0  0  0  0  0  0
  -21.1520    1.8490  -35.2120 H   0  0  0  0  0  0  0  0  0  0  0  0
  -20.5890    0.4740  -36.2490 H   0  0  0  0  0  0  0  0  0  0  0  0
  -21.6510    0.3600  -33.4300 H   0  0  0  0  0  0  0  0  0  0  0  0
  -20.0030   -0.1010  -34.0150 H   0  0  0  0  0  0  0  0  0  0  0  0
  -23.0890   -1.9490  -35.8120 H   0  0  0  0  0  0  0  0  0  0  0  0
  -23.5840   -1.9530  -34.0390 H   0  0  0  0  0  0  0  0  0  0  0  0
  -24.5670   -0.0880  -35.3980 H   0  0  0  0  0  0  0  0  0  0  0  0
  -23.5790    0.4760  -34.0240 H   0  0  0  0  0  0  0  0  0  0  0  0
  -20.4290   -3.0870  -34.2720 H   0  0  0  0  0  0  0  0  0  0  0  0
  -21.9570   -2.9880  -33.2450 H   0  0  0  0  0  0  0  0  0  0  0  0
  -18.4680   -2.2370  -33.4770 H   0  0  0  0  0  0  0  0  0  0  0  0
  -18.2400    2.9060  -28.1540 H   0  0  0  0  0  0  0  0  0  0  0  0
  -17.4580    4.0490  -26.1160 H   0  0  0  0  0  0  0  0  0  0  0  0
  -17.5740    0.3930  -23.9810 H   0  0  0  0  0  0  0  0  0  0  0  0
  -18.3500   -0.7450  -26.0040 H   0  0  0  0  0  0  0  0  0  0  0  0
  -22.2690   -2.8770  -40.3930 H   0  0  0  0  0  0  0  0  0  0  0  0
  -20.0430   -1.5540  -40.3430 H   0  0  0  0  0  0  0  0  0  0  0  0
  -20.3350    0.4970  -38.8340 H   0  0  0  0  0  0  0  0  0  0  0  0
  1  4  1  0  0  0  0
  2  1  2  0  0  0  0
  3  1  2  0  0  0  0
  4  5  1  0  0  0  0
  4  9  1  0  0  0  0
  5 33  1  0  0  0  0
  5  6  1  0  0  0  0
  6 36  1  0  0  0  0
  6 35  1  0  0  0  0
  7  6  1  0  0  0  0
  7 10  1  0  0  0  0
  8  7  1  0  0  0  0
  8 38  1  0  0  0  0
  9  8  1  0  0  0  0
  9 40  1  0  0  0  0
 10 42  1  0  0  0  0
 10 11  1  0  0  0  0
 11 20  1  0  0  0  0
 12 11  2  0  0  0  0
 12 13  1  0  0  0  0
 13 15  1  0  0  0  0
 14 13  2  0  0  0  0
 15 19  1  0  0  0  0
 15 16  1  0  0  0  0
 16 17  2  0  0  0  0
 17 21  1  0  0  0  0
 18 17  1  0  0  0  0
 19 18  1  0  0  0  0
 20 19  2  0  0  0  0
 21 26  1  0  0  0  0
 22 21  2  0  0  0  0
 22 23  1  0  0  0  0
 23 45  1  0  0  0  0
 23 24  2  0  0  0  0
 24 25  1  0  0  0  0
 24 27  1  0  0  0  0
 25 46  1  0  0  0  0
 26 47  1  0  0  0  0
 26 25  2  0  0  0  0
 28  1  1  0  0  0  0
 29 28  1  0  0  0  0
 30 31  1  0  0  0  0
 30 29  2  0  0  0  0
 31 32  1  0  0  0  0
 32 50  1  0  0  0  0
 32 28  2  0  0  0  0
 34  5  1  0  0  0  0
 37  8  1  0  0  0  0
 39  9  1  0  0  0  0
 41 10  1  0  0  0  0
 43 12  1  0  0  0  0
 44 22  1  0  0  0  0
 48 30  1  0  0  0  0
 49 31  1  0  0  0  0
M  END
>  <Pose>
1

>  <Score>
-7.85

$$$$
