
 OpenBabel03222201593D

 55 58  0  0  0  0  0  0  0  0999 V2000
  -18.5170    0.8620  -33.9500 S   0  0  0  0  0  0  0  0  0  0  0  0
  -17.7230    0.3760  -35.1480 O   0  0  0  0  0  0  0  0  0  0  0  0
  -17.6740    1.7650  -33.1220 O   0  0  0  0  0  0  0  0  0  0  0  0
  -19.8920    1.7960  -34.5840 N   0  0  0  0  0  0  0  0  0  0  0  0
  -19.9640    1.4730  -35.9780 C   0  0  0  0  0  0  0  0  0  0  0  0
  -21.3560    1.6860  -36.6010 C   0  0  0  0  0  0  0  0  0  0  0  0
  -22.2730    0.9200  -35.8180 N   0  0  0  0  0  0  0  0  0  0  0  0
  -22.3590    1.5280  -34.5190 C   0  0  0  0  0  0  0  0  0  0  0  0
  -21.0550    1.1740  -33.8590 C   0  0  0  0  0  0  0  0  0  0  0  0
  -23.3480    0.3050  -36.4370 C   0  0  0  0  0  0  0  0  0  0  0  0
  -23.3970   -1.1590  -36.4160 C   0  0  0  0  0  0  0  0  0  0  0  0
  -23.9620   -1.6290  -35.3320 O   0  0  0  0  0  0  0  0  0  0  0  0
  -22.9770   -2.1030  -37.3080 N   0  0  0  0  0  0  0  0  0  0  0  0
  -23.4380   -2.2130  -38.6930 C   0  0  0  0  0  0  0  0  0  0  0  0
  -22.7350   -1.2060  -39.5140 C   0  0  0  0  0  0  0  0  0  0  0  0
  -23.2680    0.0920  -39.6870 C   0  0  0  0  0  0  0  0  0  0  0  0
  -22.7380    0.9920  -40.5310 C   0  0  0  0  0  0  0  0  0  0  0  0
  -21.5820    0.6630  -41.3060 C   0  0  0  0  0  0  0  0  0  0  0  0
  -21.0710   -0.5640  -41.1620 C   0  0  0  0  0  0  0  0  0  0  0  0
  -21.6060   -1.5220  -40.2920 C   0  0  0  0  0  0  0  0  0  0  0  0
  -24.6930    0.5430  -38.7180 Cl  0  0  0  0  0  0  0  0  0  0  0  0
  -19.0300   -0.5000  -33.0340 C   0  0  0  0  0  0  0  0  0  0  0  0
  -18.6830   -0.4680  -31.6760 C   0  0  0  0  0  0  0  0  0  0  0  0
  -19.0920   -1.4350  -30.7540 C   0  0  0  0  0  0  0  0  0  0  0  0
  -19.8870   -2.4820  -31.2120 C   0  0  0  0  0  0  0  0  0  0  0  0
  -20.2160   -2.5020  -32.5560 C   0  0  0  0  0  0  0  0  0  0  0  0
  -19.8050   -1.5330  -33.4620 C   0  0  0  0  0  0  0  0  0  0  0  0
  -20.2610   -3.3980  -30.2470 O   0  0  0  0  0  0  0  0  0  0  0  0
  -20.5950   -2.8810  -28.9310 C   0  0  0  0  0  0  0  0  0  0  0  0
  -19.6530   -1.8200  -28.4640 C   0  0  0  0  0  0  0  0  0  0  0  0
  -18.7250   -1.3730  -29.4210 O   0  0  0  0  0  0  0  0  0  0  0  0
  -19.3080    2.2520  -36.5020 H   0  0  0  0  0  0  0  0  0  0  0  0
  -19.5620    0.5090  -36.3190 H   0  0  0  0  0  0  0  0  0  0  0  0
  -21.6010    2.7470  -36.5480 H   0  0  0  0  0  0  0  0  0  0  0  0
  -21.4050    1.3480  -37.6270 H   0  0  0  0  0  0  0  0  0  0  0  0
  -22.4250    2.6080  -34.5890 H   0  0  0  0  0  0  0  0  0  0  0  0
  -23.1550    1.0230  -33.9090 H   0  0  0  0  0  0  0  0  0  0  0  0
  -20.8840    0.0560  -34.0100 H   0  0  0  0  0  0  0  0  0  0  0  0
  -21.0210    1.5340  -32.8500 H   0  0  0  0  0  0  0  0  0  0  0  0
  -23.2460    0.6370  -37.5590 H   0  0  0  0  0  0  0  0  0  0  0  0
  -24.3560    0.7440  -36.2040 H   0  0  0  0  0  0  0  0  0  0  0  0
  -22.2320   -2.8480  -37.0970 H   0  0  0  0  0  0  0  0  0  0  0  0
  -22.9890   -3.2230  -39.0130 H   0  0  0  0  0  0  0  0  0  0  0  0
  -24.5030   -2.1930  -38.7430 H   0  0  0  0  0  0  0  0  0  0  0  0
  -23.1640    1.9530  -40.6320 H   0  0  0  0  0  0  0  0  0  0  0  0
  -21.1780    1.3910  -41.9670 H   0  0  0  0  0  0  0  0  0  0  0  0
  -20.1940   -0.8740  -41.7380 H   0  0  0  0  0  0  0  0  0  0  0  0
  -21.1690   -2.4900  -40.2480 H   0  0  0  0  0  0  0  0  0  0  0  0
  -18.0330    0.3650  -31.3410 H   0  0  0  0  0  0  0  0  0  0  0  0
  -20.8040   -3.3260  -32.8640 H   0  0  0  0  0  0  0  0  0  0  0  0
  -20.1060   -1.5930  -34.4880 H   0  0  0  0  0  0  0  0  0  0  0  0
  -21.6640   -2.5000  -29.0410 H   0  0  0  0  0  0  0  0  0  0  0  0
  -20.5940   -3.7080  -28.2210 H   0  0  0  0  0  0  0  0  0  0  0  0
  -19.0890   -2.1680  -27.5920 H   0  0  0  0  0  0  0  0  0  0  0  0
  -20.2990   -0.9540  -28.1430 H   0  0  0  0  0  0  0  0  0  0  0  0
  1  3  2  0  0  0  0
  1 22  1  0  0  0  0
  2  1  2  0  0  0  0
  4  1  1  0  0  0  0
  4  9  1  0  0  0  0
  5  4  1  0  0  0  0
  6 34  1  0  0  0  0
  6  5  1  0  0  0  0
  6  7  1  0  0  0  0
  7  8  1  0  0  0  0
  8 37  1  0  0  0  0
  8  9  1  0  0  0  0
  9 39  1  0  0  0  0
 10 11  1  0  0  0  0
 10 41  1  0  0  0  0
 10  7  1  0  0  0  0
 11 12  2  0  0  0  0
 13 42  1  0  0  0  0
 13 11  1  0  0  0  0
 14 13  1  0  0  0  0
 15 14  1  0  0  0  0
 16 15  1  0  0  0  0
 16 21  1  0  0  0  0
 17 16  2  0  0  0  0
 18 19  2  0  0  0  0
 18 17  1  0  0  0  0
 19 20  1  0  0  0  0
 20 48  1  0  0  0  0
 20 15  2  0  0  0  0
 22 23  1  0  0  0  0
 23 49  1  0  0  0  0
 23 24  2  0  0  0  0
 24 31  1  0  0  0  0
 25 24  1  0  0  0  0
 25 28  1  0  0  0  0
 26 25  2  0  0  0  0
 27 22  2  0  0  0  0
 27 26  1  0  0  0  0
 28 29  1  0  0  0  0
 29 30  1  0  0  0  0
 29 53  1  0  0  0  0
 30 55  1  0  0  0  0
 30 54  1  0  0  0  0
 31 30  1  0  0  0  0
 32  5  1  0  0  0  0
 33  5  1  0  0  0  0
 35  6  1  0  0  0  0
 36  8  1  0  0  0  0
 38  9  1  0  0  0  0
 40 10  1  0  0  0  0
 43 14  1  0  0  0  0
 44 14  1  0  0  0  0
 45 17  1  0  0  0  0
 46 18  1  0  0  0  0
 47 19  1  0  0  0  0
 50 26  1  0  0  0  0
 51 27  1  0  0  0  0
 52 29  1  0  0  0  0
M  END
>  <Pose>
1

>  <Score>
-6.45

$$$$
