
 OpenBabel03222201593D

 68 71  0  0  0  0  0  0  0  0999 V2000
  -18.5970   -2.1840  -26.1030 S   0  0  0  0  0  0  0  0  0  0  0  0
  -18.9940   -2.4830  -24.6780 O   0  0  0  0  0  0  0  0  0  0  0  0
  -17.3650   -3.0220  -26.3630 O   0  0  0  0  0  0  0  0  0  0  0  0
  -19.8220   -2.4150  -27.2020 N   0  0  0  0  0  0  0  0  0  0  0  0
  -20.4640   -3.6220  -27.3840 C   0  0  0  0  0  0  0  0  0  0  0  0
  -20.5170   -3.9820  -28.8450 C   0  0  0  0  0  0  0  0  0  0  0  0
  -20.8670   -2.9280  -29.7280 N   0  0  0  0  0  0  0  0  0  0  0  0
  -21.3000   -1.7690  -29.0170 C   0  0  0  0  0  0  0  0  0  0  0  0
  -20.2430   -1.3470  -28.0010 C   0  0  0  0  0  0  0  0  0  0  0  0
  -19.8630   -2.6240  -30.7060 C   0  0  0  0  0  0  0  0  0  0  0  0
  -20.4600   -2.5170  -32.0800 C   0  0  0  0  0  0  0  0  0  0  0  0
  -21.5160   -3.1530  -32.2890 O   0  0  0  0  0  0  0  0  0  0  0  0
  -19.8520   -1.7300  -33.0900 N   0  0  0  0  0  0  0  0  0  0  0  0
  -19.9070   -0.3040  -32.9440 C   0  0  0  0  0  0  0  0  0  0  0  0
  -20.4800    0.4580  -34.0760 C   0  0  0  0  0  0  0  0  0  0  0  0
  -21.9250    0.7830  -33.7830 C   0  0  0  0  0  0  0  0  0  0  0  0
  -22.8790   -0.2890  -34.3200 C   0  0  0  0  0  0  0  0  0  0  0  0
  -22.8710   -0.2840  -35.8360 C   0  0  0  0  0  0  0  0  0  0  0  0
  -21.4760    0.1210  -36.2790 C   0  0  0  0  0  0  0  0  0  0  0  0
  -20.5230   -0.5020  -35.2800 C   0  0  0  0  0  0  0  0  0  0  0  0
  -19.7950    1.6120  -34.5150 N   0  0  0  0  0  0  0  0  0  0  0  0
  -20.4920    2.8490  -34.5260 C   0  0  0  0  0  0  0  0  0  0  0  0
  -19.6780    3.7850  -35.4380 C   0  0  0  0  0  0  0  0  0  0  0  0
  -18.4310    3.9980  -34.9010 O   0  0  0  0  0  0  0  0  0  0  0  0
  -18.1890    3.3140  -33.7360 C   0  0  0  0  0  0  0  0  0  0  0  0
  -18.5210    1.8270  -33.8640 C   0  0  0  0  0  0  0  0  0  0  0  0
  -18.0950   -0.4950  -26.1130 C   0  0  0  0  0  0  0  0  0  0  0  0
  -18.1130    0.2580  -24.9720 C   0  0  0  0  0  0  0  0  0  0  0  0
  -17.7240    1.5710  -24.9750 C   0  0  0  0  0  0  0  0  0  0  0  0
  -17.3070    2.1400  -26.1590 C   0  0  0  0  0  0  0  0  0  0  0  0
  -17.2880    1.3820  -27.3140 C   0  0  0  0  0  0  0  0  0  0  0  0
  -17.6800    0.0680  -27.2990 C   0  0  0  0  0  0  0  0  0  0  0  0
  -16.8150    3.8240  -26.1290 Cl  0  0  0  0  0  0  0  0  0  0  0  0
  -21.5360   -3.6640  -27.0330 H   0  0  0  0  0  0  0  0  0  0  0  0
  -19.9800   -4.4850  -26.8550 H   0  0  0  0  0  0  0  0  0  0  0  0
  -21.2790   -4.7970  -28.9690 H   0  0  0  0  0  0  0  0  0  0  0  0
  -19.5460   -4.4620  -29.0910 H   0  0  0  0  0  0  0  0  0  0  0  0
  -22.2380   -2.0060  -28.4390 H   0  0  0  0  0  0  0  0  0  0  0  0
  -21.4350   -0.9350  -29.7140 H   0  0  0  0  0  0  0  0  0  0  0  0
  -19.4060   -0.8560  -28.5770 H   0  0  0  0  0  0  0  0  0  0  0  0
  -20.7010   -0.5250  -27.3760 H   0  0  0  0  0  0  0  0  0  0  0  0
  -18.9960   -3.3150  -30.6850 H   0  0  0  0  0  0  0  0  0  0  0  0
  -19.4610   -1.6130  -30.4860 H   0  0  0  0  0  0  0  0  0  0  0  0
  -19.3890   -2.2310  -33.8950 H   0  0  0  0  0  0  0  0  0  0  0  0
  -20.4660   -0.1030  -32.0020 H   0  0  0  0  0  0  0  0  0  0  0  0
  -18.8540    0.0900  -32.8050 H   0  0  0  0  0  0  0  0  0  0  0  0
  -22.2480    1.7320  -34.2830 H   0  0  0  0  0  0  0  0  0  0  0  0
  -22.1230    0.8210  -32.6890 H   0  0  0  0  0  0  0  0  0  0  0  0
  -23.8940   -0.0040  -33.9850 H   0  0  0  0  0  0  0  0  0  0  0  0
  -22.6590   -1.2840  -33.8980 H   0  0  0  0  0  0  0  0  0  0  0  0
  -23.0840   -1.3140  -36.1910 H   0  0  0  0  0  0  0  0  0  0  0  0
  -23.6400    0.4060  -36.1890 H   0  0  0  0  0  0  0  0  0  0  0  0
  -21.2480   -0.2380  -37.3120 H   0  0  0  0  0  0  0  0  0  0  0  0
  -21.3650    1.2220  -36.2170 H   0  0  0  0  0  0  0  0  0  0  0  0
  -19.5520   -0.6120  -35.7550 H   0  0  0  0  0  0  0  0  0  0  0  0
  -20.8520   -1.5080  -34.9450 H   0  0  0  0  0  0  0  0  0  0  0  0
  -21.4900    2.8040  -35.0120 H   0  0  0  0  0  0  0  0  0  0  0  0
  -20.5580    3.3780  -33.5560 H   0  0  0  0  0  0  0  0  0  0  0  0
  -19.5300    3.2020  -36.3900 H   0  0  0  0  0  0  0  0  0  0  0  0
  -20.2410    4.6960  -35.6500 H   0  0  0  0  0  0  0  0  0  0  0  0
  -18.6920    3.7550  -32.8350 H   0  0  0  0  0  0  0  0  0  0  0  0
  -17.0950    3.3580  -33.5050 H   0  0  0  0  0  0  0  0  0  0  0  0
  -17.7260    1.3700  -34.4830 H   0  0  0  0  0  0  0  0  0  0  0  0
  -18.4630    1.4180  -32.8400 H   0  0  0  0  0  0  0  0  0  0  0  0
  -18.4440   -0.1800  -24.0180 H   0  0  0  0  0  0  0  0  0  0  0  0
  -17.7440    2.1620  -24.0580 H   0  0  0  0  0  0  0  0  0  0  0  0
  -16.9550    1.8460  -28.2440 H   0  0  0  0  0  0  0  0  0  0  0  0
  -17.6570   -0.5100  -28.2260 H   0  0  0  0  0  0  0  0  0  0  0  0
  1  2  2  0  0  0  0
  3  1  2  0  0  0  0
  4  1  1  0  0  0  0
  5  4  1  0  0  0  0
  5 34  1  0  0  0  0
  5 35  1  0  0  0  0
  6  5  1  0  0  0  0
  7  8  1  0  0  0  0
  7  6  1  0  0  0  0
  8 38  1  0  0  0  0
  8  9  1  0  0  0  0
  9 41  1  0  0  0  0
  9  4  1  0  0  0  0
 10 42  1  0  0  0  0
 10 43  1  0  0  0  0
 10  7  1  0  0  0  0
 11 10  1  0  0  0  0
 12 11  2  0  0  0  0
 13 14  1  0  0  0  0
 13 11  1  0  0  0  0
 14 46  1  0  0  0  0
 14 45  1  0  0  0  0
 15 16  1  0  0  0  0
 15 14  1  0  0  0  0
 16 48  1  0  0  0  0
 17 49  1  0  0  0  0
 17 50  1  0  0  0  0
 17 16  1  0  0  0  0
 18 17  1  0  0  0  0
 19 54  1  0  0  0  0
 19 18  1  0  0  0  0
 19 20  1  0  0  0  0
 20 56  1  0  0  0  0
 20 15  1  0  0  0  0
 21 15  1  0  0  0  0
 21 26  1  0  0  0  0
 22 21  1  0  0  0  0
 22 58  1  0  0  0  0
 23 24  1  0  0  0  0
 23 22  1  0  0  0  0
 24 25  1  0  0  0  0
 25 62  1  0  0  0  0
 25 61  1  0  0  0  0
 26 25  1  0  0  0  0
 26 64  1  0  0  0  0
 27  1  1  0  0  0  0
 27 28  1  0  0  0  0
 28 65  1  0  0  0  0
 29 28  2  0  0  0  0
 29 66  1  0  0  0  0
 30 33  1  0  0  0  0
 30 29  1  0  0  0  0
 31 32  1  0  0  0  0
 31 30  2  0  0  0  0
 32 27  2  0  0  0  0
 36  6  1  0  0  0  0
 37  6  1  0  0  0  0
 39  8  1  0  0  0  0
 40  9  1  0  0  0  0
 44 13  1  0  0  0  0
 47 16  1  0  0  0  0
 51 18  1  0  0  0  0
 52 18  1  0  0  0  0
 53 19  1  0  0  0  0
 55 20  1  0  0  0  0
 57 22  1  0  0  0  0
 59 23  1  0  0  0  0
 60 23  1  0  0  0  0
 63 26  1  0  0  0  0
 67 31  1  0  0  0  0
 68 32  1  0  0  0  0
M  END
>  <Pose>
1

>  <Score>
-5.96

$$$$
