
 OpenBabel03222201593D

 38 41  0  0  0  0  0  0  0  0999 V2000
  -23.9270   -1.1420  -37.4110 Cl  0  0  0  0  0  0  0  0  0  0  0  0
  -22.7010   -1.0260  -36.1650 C   0  0  0  0  0  0  0  0  0  0  0  0
  -22.5650   -1.9850  -35.1700 C   0  0  0  0  0  0  0  0  0  0  0  0
  -21.6260   -1.9230  -34.1770 C   0  0  0  0  0  0  0  0  0  0  0  0
  -20.7580   -0.8700  -34.1370 C   0  0  0  0  0  0  0  0  0  0  0  0
  -20.8670    0.1080  -35.1240 C   0  0  0  0  0  0  0  0  0  0  0  0
  -21.8230    0.0280  -36.1180 C   0  0  0  0  0  0  0  0  0  0  0  0
  -19.6980   -0.6670  -33.1360 C   0  0  0  0  0  0  0  0  0  0  0  0
  -19.3980   -1.9620  -32.4560 C   0  0  0  0  0  0  0  0  0  0  0  0
  -20.4660   -2.2720  -31.3920 C   0  0  0  0  0  0  0  0  0  0  0  0
  -20.2730   -1.1910  -30.4150 N   0  0  0  0  0  0  0  0  0  0  0  0
  -20.5960    0.1130  -30.9020 C   0  0  0  0  0  0  0  0  0  0  0  0
  -19.9180    0.4580  -32.1960 C   0  0  0  0  0  0  0  0  0  0  0  0
  -19.7990   -1.5180  -29.1220 C   0  0  0  0  0  0  0  0  0  0  0  0
  -20.0890   -2.7190  -28.5930 N   0  0  0  0  0  0  0  0  0  0  0  0
  -19.6980   -3.1430  -27.4080 N   0  0  0  0  0  0  0  0  0  0  0  0
  -19.8610   -4.2670  -26.7050 N   0  0  0  0  0  0  0  0  0  0  0  0
  -19.2480   -4.1810  -25.5450 N   0  0  0  0  0  0  0  0  0  0  0  0
  -18.6830   -3.0060  -25.4890 N   0  0  0  0  0  0  0  0  0  0  0  0
  -18.9540   -2.3470  -26.6420 C   0  0  0  0  0  0  0  0  0  0  0  0
  -18.6150   -1.0930  -27.1200 C   0  0  0  0  0  0  0  0  0  0  0  0
  -19.0330   -0.6650  -28.3620 C   0  0  0  0  0  0  0  0  0  0  0  0
  -18.5410   -0.3590  -33.8970 O   0  0  0  0  0  0  0  0  0  0  0  0
  -23.2400   -2.8230  -35.1750 H   0  0  0  0  0  0  0  0  0  0  0  0
  -21.5180   -2.6750  -33.4060 H   0  0  0  0  0  0  0  0  0  0  0  0
  -20.2270    0.9710  -35.1690 H   0  0  0  0  0  0  0  0  0  0  0  0
  -21.9020    0.8170  -36.8920 H   0  0  0  0  0  0  0  0  0  0  0  0
  -19.4030   -2.8120  -33.1670 H   0  0  0  0  0  0  0  0  0  0  0  0
  -18.4270   -1.9720  -31.9320 H   0  0  0  0  0  0  0  0  0  0  0  0
  -20.2810   -3.2580  -30.9450 H   0  0  0  0  0  0  0  0  0  0  0  0
  -21.4880   -2.1590  -31.7820 H   0  0  0  0  0  0  0  0  0  0  0  0
  -21.7100    0.1150  -31.1040 H   0  0  0  0  0  0  0  0  0  0  0  0
  -20.4060    0.9120  -30.1600 H   0  0  0  0  0  0  0  0  0  0  0  0
  -18.8960    0.8500  -31.8960 H   0  0  0  0  0  0  0  0  0  0  0  0
  -20.4130    1.3220  -32.6610 H   0  0  0  0  0  0  0  0  0  0  0  0
  -18.0130   -0.4770  -26.4730 H   0  0  0  0  0  0  0  0  0  0  0  0
  -18.7700    0.3090  -28.7330 H   0  0  0  0  0  0  0  0  0  0  0  0
  -18.1370   -1.2390  -34.1740 H   0  0  0  0  0  0  0  0  0  0  0  0
  1  2  1  0  0  0  0
  2  7  2  0  0  0  0
  2  3  1  0  0  0  0
  3  4  2  0  0  0  0
  4  5  1  0  0  0  0
  4 25  1  0  0  0  0
  5  8  1  0  0  0  0
  6  5  2  0  0  0  0
  7  6  1  0  0  0  0
  8  9  1  0  0  0  0
  8 13  1  0  0  0  0
  9 29  1  0  0  0  0
  9 10  1  0  0  0  0
 10 30  1  0  0  0  0
 10 11  1  0  0  0  0
 11 14  1  0  0  0  0
 12 11  1  0  0  0  0
 12 33  1  0  0  0  0
 13 34  1  0  0  0  0
 13 12  1  0  0  0  0
 14 15  2  0  0  0  0
 14 22  1  0  0  0  0
 15 16  1  0  0  0  0
 16 17  1  0  0  0  0
 16 20  1  0  0  0  0
 17 18  2  0  0  0  0
 18 19  1  0  0  0  0
 20 19  2  0  0  0  0
 21 20  1  0  0  0  0
 21 36  1  0  0  0  0
 22 21  2  0  0  0  0
 23  8  1  0  0  0  0
 24  3  1  0  0  0  0
 26  6  1  0  0  0  0
 27  7  1  0  0  0  0
 28  9  1  0  0  0  0
 31 10  1  0  0  0  0
 32 12  1  0  0  0  0
 35 13  1  0  0  0  0
 37 22  1  0  0  0  0
 38 23  1  0  0  0  0
M  END
>  <Pose>
1

>  <Score>
-6.12

$$$$
