
 OpenBabel03222201593D

 50 53  0  0  1  0  0  0  0  0999 V2000
  -19.5330   -3.0490  -26.1540 S   0  0  0  0  0  0  0  0  0  0  0  0
  -19.0270   -4.2640  -25.4410 O   0  0  0  0  0  0  0  0  0  0  0  0
  -20.8050   -2.6360  -25.4560 O   0  0  0  0  0  0  0  0  0  0  0  0
  -18.4220   -1.7720  -26.0410 N   0  0  0  0  0  0  0  0  0  0  0  0
  -18.4660   -1.0220  -24.8440 C   0  0  0  0  0  0  0  0  0  0  0  0
  -17.9500    0.3880  -24.9580 C   0  0  0  0  0  0  0  0  0  0  0  0
  -18.3850    1.0550  -26.1530 N   0  0  0  0  0  0  0  0  0  0  0  0
  -18.9960    0.2370  -27.1710 C   0  0  0  0  0  0  0  0  0  0  0  0
  -18.1840   -1.0530  -27.2440 C   0  0  0  0  0  0  0  0  0  0  0  0
  -18.2040    2.4400  -26.2950 C   0  0  0  0  0  0  0  0  0  0  0  0
  -19.2420    3.1500  -26.4090 O   0  0  0  0  0  0  0  0  0  0  0  0
  -16.8760    3.1140  -26.3180 C   0  0  2  0  0  0  0  0  0  0  0  0
  -16.6340    3.8430  -25.1280 N   0  0  0  0  0  0  0  0  0  0  0  0
  -17.0600    5.2050  -25.1170 C   0  0  2  0  0  0  0  0  0  0  0  0
  -16.8790    5.6930  -26.8450 S   0  0  0  0  0  0  0  0  0  0  0  0
  -16.7020    3.9940  -27.5190 C   0  0  0  0  0  0  0  0  0  0  0  0
  -15.9560    5.8950  -24.3400 C   0  0  0  0  0  0  0  0  0  0  0  0
  -15.8450    4.9160  -23.1630 C   0  0  0  0  0  0  0  0  0  0  0  0
  -16.0510    3.6290  -23.8220 C   0  0  0  0  0  0  0  0  0  0  0  0
  -15.7510    2.5150  -23.2950 O   0  0  0  0  0  0  0  0  0  0  0  0
  -18.3990    5.4680  -24.5520 C   0  0  0  0  0  0  0  0  0  0  0  0
  -19.9740   -3.4330  -27.8150 C   0  0  0  0  0  0  0  0  0  0  0  0
  -20.2860   -4.7250  -28.1750 C   0  0  0  0  0  0  0  0  0  0  0  0
  -20.6340   -5.0590  -29.4630 C   0  0  0  0  0  0  0  0  0  0  0  0
  -20.6850   -4.1050  -30.4630 C   0  0  0  0  0  0  0  0  0  0  0  0
  -20.3660   -2.8160  -30.0710 C   0  0  0  0  0  0  0  0  0  0  0  0
  -20.0180   -2.4680  -28.7890 C   0  0  0  0  0  0  0  0  0  0  0  0
  -21.1230   -4.4940  -32.1140 Cl  0  0  0  0  0  0  0  0  0  0  0  0
  -17.9640   -1.5730  -24.0240 H   0  0  0  0  0  0  0  0  0  0  0  0
  -19.5450   -0.9350  -24.5330 H   0  0  0  0  0  0  0  0  0  0  0  0
  -16.8430    0.3430  -24.8540 H   0  0  0  0  0  0  0  0  0  0  0  0
  -18.2890    0.9660  -24.0480 H   0  0  0  0  0  0  0  0  0  0  0  0
  -19.0390    0.7340  -28.1580 H   0  0  0  0  0  0  0  0  0  0  0  0
  -20.0200   -0.0180  -26.8110 H   0  0  0  0  0  0  0  0  0  0  0  0
  -17.1300   -0.8440  -27.4360 H   0  0  0  0  0  0  0  0  0  0  0  0
  -18.5480   -1.6790  -28.0990 H   0  0  0  0  0  0  0  0  0  0  0  0
  -16.1270    2.3020  -26.4410 H   0  0  0  0  0  0  0  0  0  0  0  0
  -15.7030    3.9400  -27.9810 H   0  0  0  0  0  0  0  0  0  0  0  0
  -17.4480    3.8220  -28.3210 H   0  0  0  0  0  0  0  0  0  0  0  0
  -15.0480    5.8500  -24.9820 H   0  0  0  0  0  0  0  0  0  0  0  0
  -16.2230    6.8990  -24.0150 H   0  0  0  0  0  0  0  0  0  0  0  0
  -14.8170    5.0140  -22.7340 H   0  0  0  0  0  0  0  0  0  0  0  0
  -16.6430    5.1510  -22.4530 H   0  0  0  0  0  0  0  0  0  0  0  0
  -18.4030    6.5240  -24.1470 H   0  0  0  0  0  0  0  0  0  0  0  0
  -19.2140    5.4800  -25.3260 H   0  0  0  0  0  0  0  0  0  0  0  0
  -18.6530    4.8330  -23.6840 H   0  0  0  0  0  0  0  0  0  0  0  0
  -20.2500   -5.4940  -27.3940 H   0  0  0  0  0  0  0  0  0  0  0  0
  -20.8790   -6.0870  -29.7330 H   0  0  0  0  0  0  0  0  0  0  0  0
  -20.4140   -2.0800  -30.8810 H   0  0  0  0  0  0  0  0  0  0  0  0
  -19.7840   -1.4480  -28.5630 H   0  0  0  0  0  0  0  0  0  0  0  0
  1  4  1  0  0  0  0
  1  3  2  0  0  0  0
  1  2  2  0  0  0  0
  4  5  1  0  0  0  0
  5 30  1  0  0  0  0
  5 29  1  0  0  0  0
  6 31  1  0  0  0  0
  6  5  1  0  0  0  0
  6 32  1  0  0  0  0
  7  6  1  0  0  0  0
  8 34  1  0  0  0  0
  8  7  1  0  0  0  0
  9  8  1  0  0  0  0
  9  4  1  0  0  0  0
 10  7  1  0  0  0  0
 11 10  2  0  0  0  0
 12 37  1  6  0  0  0
 12 10  1  0  0  0  0
 12 13  1  0  0  0  0
 13 14  1  0  0  0  0
 13 19  1  0  0  0  0
 14 21  1  1  0  0  0
 14 17  1  0  0  0  0
 15 14  1  0  0  0  0
 16 15  1  0  0  0  0
 16 12  1  0  0  0  0
 17 41  1  0  0  0  0
 17 18  1  0  0  0  0
 18 42  1  0  0  0  0
 18 43  1  0  0  0  0
 19 20  2  0  0  0  0
 19 18  1  0  0  0  0
 21 44  1  0  0  0  0
 21 46  1  0  0  0  0
 22  1  1  0  0  0  0
 23 22  1  0  0  0  0
 23 47  1  0  0  0  0
 24 23  2  0  0  0  0
 25 26  2  0  0  0  0
 25 24  1  0  0  0  0
 26 27  1  0  0  0  0
 27 50  1  0  0  0  0
 27 22  2  0  0  0  0
 28 25  1  0  0  0  0
 33  8  1  0  0  0  0
 35  9  1  0  0  0  0
 36  9  1  0  0  0  0
 38 16  1  0  0  0  0
 39 16  1  0  0  0  0
 40 17  1  0  0  0  0
 45 21  1  0  0  0  0
 48 24  1  0  0  0  0
 49 26  1  0  0  0  0
M  END
>  <Pose>
1

>  <Score>
-6.46

$$$$
