
 OpenBabel03222201593D

 44 47  0  0  1  0  0  0  0  0999 V2000
  -20.5210   -0.1240  -33.6680 B   0  0  0  0  0  0  0  0  0  0  0  0
  -20.4600   -1.4810  -32.3200 C   0  0  0  0  0  0  0  0  0  0  0  0
  -19.8450   -1.2680  -31.1040 C   0  0  0  0  0  0  0  0  0  0  0  0
  -19.7970   -2.2420  -30.1200 C   0  0  0  0  0  0  0  0  0  0  0  0
  -20.3980   -3.4460  -30.4180 C   0  0  0  0  0  0  0  0  0  0  0  0
  -21.0200   -3.6960  -31.6200 C   0  0  0  0  0  0  0  0  0  0  0  0
  -21.0600   -2.7110  -32.5940 C   0  0  0  0  0  0  0  0  0  0  0  0
  -21.8360   -5.3890  -31.9690 B   0  0  0  0  0  0  0  0  0  0  0  0
  -19.0970   -1.7590  -28.9400 C   0  0  0  0  0  0  0  0  0  0  0  0
  -18.8440   -2.3470  -27.8310 N   0  0  0  0  0  0  0  0  0  0  0  0
  -18.1500   -1.7280  -26.7870 N   0  0  0  0  0  0  0  0  0  0  0  0
  -18.6050   -1.9440  -25.4670 C   0  0  0  0  0  0  0  0  0  0  0  0
  -18.9070   -3.0930  -25.0820 O   0  0  0  0  0  0  0  0  0  0  0  0
  -18.7490   -0.8310  -24.4770 C   0  0  0  0  0  0  0  0  0  0  0  0
  -17.5440   -0.0560  -24.3610 N   0  0  0  0  0  0  0  0  0  0  0  0
  -17.4910    1.3360  -24.6480 C   0  0  0  0  0  0  0  0  0  0  0  0
  -17.4050    1.6920  -25.8430 O   0  0  0  0  0  0  0  0  0  0  0  0
  -17.5310    2.3960  -23.5970 C   0  0  2  0  0  0  0  0  0  0  0  0
  -16.7670    3.5110  -23.9510 O   0  0  0  0  0  0  0  0  0  0  0  0
  -15.5700    3.8810  -23.3420 C   0  0  0  0  0  0  0  0  0  0  0  0
  -15.3120    3.3520  -22.1050 C   0  0  0  0  0  0  0  0  0  0  0  0
  -14.1210    3.7060  -21.4710 C   0  0  0  0  0  0  0  0  0  0  0  0
  -13.2060    4.5610  -22.0420 C   0  0  0  0  0  0  0  0  0  0  0  0
  -13.5000    5.0750  -23.2900 C   0  0  0  0  0  0  0  0  0  0  0  0
  -14.6730    4.7290  -23.9200 C   0  0  0  0  0  0  0  0  0  0  0  0
  -16.2150    2.5010  -21.5290 O   0  0  0  0  0  0  0  0  0  0  0  0
  -17.2430    1.8650  -22.2370 C   0  0  0  0  0  0  0  0  0  0  0  0
  -18.6970   -0.3830  -29.2520 C   0  0  0  0  0  0  0  0  0  0  0  0
  -18.0620    0.3620  -28.4580 O   0  0  0  0  0  0  0  0  0  0  0  0
  -19.1700   -0.1380  -30.5620 N   0  0  0  0  0  0  0  0  0  0  0  0
  -20.3860   -4.2340  -29.6850 H   0  0  0  0  0  0  0  0  0  0  0  0
  -21.5370   -2.8820  -33.5310 H   0  0  0  0  0  0  0  0  0  0  0  0
  -17.3310   -1.1350  -27.0400 H   0  0  0  0  0  0  0  0  0  0  0  0
  -19.5520   -0.1760  -24.8800 H   0  0  0  0  0  0  0  0  0  0  0  0
  -19.1060   -1.2110  -23.4940 H   0  0  0  0  0  0  0  0  0  0  0  0
  -16.6440   -0.4930  -24.0550 H   0  0  0  0  0  0  0  0  0  0  0  0
  -18.6040    2.7510  -23.6080 H   0  0  0  0  0  0  0  0  0  0  0  0
  -13.9400    3.2760  -20.4940 H   0  0  0  0  0  0  0  0  0  0  0  0
  -12.2960    4.8090  -21.5170 H   0  0  0  0  0  0  0  0  0  0  0  0
  -12.7620    5.7600  -23.7430 H   0  0  0  0  0  0  0  0  0  0  0  0
  -14.8790    5.1470  -24.8960 H   0  0  0  0  0  0  0  0  0  0  0  0
  -18.1790    1.8910  -21.5980 H   0  0  0  0  0  0  0  0  0  0  0  0
  -16.9670    0.7870  -22.3130 H   0  0  0  0  0  0  0  0  0  0  0  0
  -19.0430    0.7540  -31.0680 H   0  0  0  0  0  0  0  0  0  0  0  0
  1  2  1  0  0  0  0
  2  3  1  0  0  0  0
  3 30  1  0  0  0  0
  3  4  2  0  0  0  0
  4  9  1  0  0  0  0
  5  4  1  0  0  0  0
  5 31  1  0  0  0  0
  6  5  2  0  0  0  0
  7  2  2  0  0  0  0
  7  6  1  0  0  0  0
  8  6  1  0  0  0  0
  9 10  2  0  0  0  0
 10 11  1  0  0  0  0
 11 12  1  0  0  0  0
 12 13  2  0  0  0  0
 12 14  1  0  0  0  0
 14 15  1  0  0  0  0
 14 35  1  0  0  0  0
 15 36  1  0  0  0  0
 16 15  1  0  0  0  0
 16 18  1  0  0  0  0
 17 16  2  0  0  0  0
 18 37  1  1  0  0  0
 18 27  1  0  0  0  0
 19 18  1  0  0  0  0
 19 20  1  0  0  0  0
 20 21  1  0  0  0  0
 21 26  1  0  0  0  0
 21 22  2  0  0  0  0
 22 38  1  0  0  0  0
 23 39  1  0  0  0  0
 23 22  1  0  0  0  0
 24 23  2  0  0  0  0
 25 20  2  0  0  0  0
 25 24  1  0  0  0  0
 27 42  1  0  0  0  0
 27 26  1  0  0  0  0
 28  9  1  0  0  0  0
 28 29  2  0  0  0  0
 30 28  1  0  0  0  0
 32  7  1  0  0  0  0
 33 11  1  0  0  0  0
 34 14  1  0  0  0  0
 40 24  1  0  0  0  0
 41 25  1  0  0  0  0
 43 27  1  0  0  0  0
 44 30  1  0  0  0  0
M  END
>  <Pose>
1

>  <Score>
-7.52

$$$$
