
 OpenBabel03222201593D

 39 42  0  0  0  0  0  0  0  0999 V2000
  -19.1820   -0.8560  -29.7190 Cl  0  0  0  0  0  0  0  0  0  0  0  0
  -19.9150   -2.2720  -30.4600 C   0  0  0  0  0  0  0  0  0  0  0  0
  -20.1340   -2.2380  -31.8210 C   0  0  0  0  0  0  0  0  0  0  0  0
  -20.7090   -3.3580  -32.3830 C   0  0  0  0  0  0  0  0  0  0  0  0
  -21.0690   -4.4770  -31.6780 C   0  0  0  0  0  0  0  0  0  0  0  0
  -20.8270   -4.4620  -30.3000 C   0  0  0  0  0  0  0  0  0  0  0  0
  -20.2580   -3.3780  -29.6860 C   0  0  0  0  0  0  0  0  0  0  0  0
  -21.6760   -5.6500  -32.2920 C   0  0  0  0  0  0  0  0  0  0  0  0
  -22.6570   -5.7250  -33.1960 N   0  0  0  0  0  0  0  0  0  0  0  0
  -22.8930   -7.0160  -33.4780 N   0  0  0  0  0  0  0  0  0  0  0  0
  -22.0670   -7.7530  -32.7560 N   0  0  0  0  0  0  0  0  0  0  0  0
  -21.3200   -6.9180  -32.0310 N   0  0  0  0  0  0  0  0  0  0  0  0
  -19.7710   -1.0680  -32.6410 C   0  0  0  0  0  0  0  0  0  0  0  0
  -19.7080    0.0400  -32.0610 O   0  0  0  0  0  0  0  0  0  0  0  0
  -19.4990   -1.1400  -34.0090 N   0  0  0  0  0  0  0  0  0  0  0  0
  -20.0000   -0.3990  -35.0940 C   0  0  0  0  0  0  0  0  0  0  0  0
  -19.2270   -0.2530  -36.3340 C   0  0  0  0  0  0  0  0  0  0  0  0
  -19.9040    0.1470  -37.5640 C   0  0  0  0  0  0  0  0  0  0  0  0
  -21.1690   -0.1020  -37.9210 N   0  0  0  0  0  0  0  0  0  0  0  0
  -21.3930    0.4740  -39.0910 C   0  0  0  0  0  0  0  0  0  0  0  0
  -20.2620    1.0860  -39.4670 N   0  0  0  0  0  0  0  0  0  0  0  0
  -19.3640    0.8850  -38.5410 N   0  0  0  0  0  0  0  0  0  0  0  0
  -22.6110    0.4010  -39.7320 C   0  0  0  0  0  0  0  0  0  0  0  0
  -23.6180   -0.3080  -39.1030 C   0  0  0  0  0  0  0  0  0  0  0  0
  -23.3770   -0.9010  -37.8940 C   0  0  0  0  0  0  0  0  0  0  0  0
  -22.1500   -0.7930  -37.3080 C   0  0  0  0  0  0  0  0  0  0  0  0
  -20.8810   -3.3350  -33.4490 H   0  0  0  0  0  0  0  0  0  0  0  0
  -21.1190   -5.3600  -29.7530 H   0  0  0  0  0  0  0  0  0  0  0  0
  -20.0790   -3.3870  -28.6190 H   0  0  0  0  0  0  0  0  0  0  0  0
  -23.6020   -7.3940  -34.1470 H   0  0  0  0  0  0  0  0  0  0  0  0
  -18.7770   -1.9050  -34.2630 H   0  0  0  0  0  0  0  0  0  0  0  0
  -21.0280   -0.8200  -35.3810 H   0  0  0  0  0  0  0  0  0  0  0  0
  -20.3050    0.6430  -34.7540 H   0  0  0  0  0  0  0  0  0  0  0  0
  -18.6070   -1.1960  -36.5100 H   0  0  0  0  0  0  0  0  0  0  0  0
  -18.3940    0.5090  -36.1710 H   0  0  0  0  0  0  0  0  0  0  0  0
  -22.7540    0.8780  -40.6750 H   0  0  0  0  0  0  0  0  0  0  0  0
  -24.5830   -0.3990  -39.5510 H   0  0  0  0  0  0  0  0  0  0  0  0
  -24.1400   -1.4600  -37.3790 H   0  0  0  0  0  0  0  0  0  0  0  0
  -21.9250   -1.2510  -36.3480 H   0  0  0  0  0  0  0  0  0  0  0  0
  2  1  1  0  0  0  0
  2  7  1  0  0  0  0
  3  2  2  0  0  0  0
  4  3  1  0  0  0  0
  4  5  2  0  0  0  0
  5  6  1  0  0  0  0
  6 28  1  0  0  0  0
  6  7  2  0  0  0  0
  7 29  1  0  0  0  0
  8 12  1  0  0  0  0
  8  5  1  0  0  0  0
  9  8  2  0  0  0  0
 10  9  1  0  0  0  0
 10 11  1  0  0  0  0
 11 12  2  0  0  0  0
 13 14  2  0  0  0  0
 13  3  1  0  0  0  0
 15 13  1  0  0  0  0
 16 33  1  0  0  0  0
 16 15  1  0  0  0  0
 17 35  1  0  0  0  0
 17 16  1  0  0  0  0
 18 17  1  0  0  0  0
 19 18  1  0  0  0  0
 19 26  1  0  0  0  0
 20 19  1  0  0  0  0
 21 20  2  0  0  0  0
 21 22  1  0  0  0  0
 22 18  2  0  0  0  0
 23 24  2  0  0  0  0
 23 20  1  0  0  0  0
 24 25  1  0  0  0  0
 25 38  1  0  0  0  0
 25 26  2  0  0  0  0
 26 39  1  0  0  0  0
 27  4  1  0  0  0  0
 30 10  1  0  0  0  0
 31 15  1  0  0  0  0
 32 16  1  0  0  0  0
 34 17  1  0  0  0  0
 36 23  1  0  0  0  0
 37 24  1  0  0  0  0
M  END
>  <Pose>
1

>  <Score>
-7.81

$$$$
