
 OpenBabel03222201593D

 67 70  0  0  1  0  0  0  0  0999 V2000
  -22.7460    0.8660  -35.8060 S   0  0  0  0  0  0  0  0  0  0  0  0
  -22.9150    2.0880  -34.9040 O   0  0  0  0  0  0  0  0  0  0  0  0
  -23.8810   -0.0540  -35.3720 O   0  0  0  0  0  0  0  0  0  0  0  0
  -21.3020    0.1300  -35.4380 N   0  0  0  0  0  0  0  0  0  0  0  0
  -21.0900   -0.4040  -34.1520 C   0  0  0  0  0  0  0  0  0  0  0  0
  -19.8910    0.1850  -33.4410 C   0  0  2  0  0  0  0  0  0  0  0  0
  -18.8280    0.6770  -34.3470 C   0  0  0  0  0  0  0  0  0  0  0  0
  -18.8730    0.2100  -35.7570 C   0  0  0  0  0  0  0  0  0  0  0  0
  -20.2500    0.0720  -36.3540 C   0  0  0  0  0  0  0  0  0  0  0  0
  -19.3250   -0.7820  -32.4660 C   0  0  0  0  0  0  0  0  0  0  0  0
  -18.4110   -1.5480  -32.8590 O   0  0  0  0  0  0  0  0  0  0  0  0
  -19.8190   -0.8280  -31.1090 N   0  0  0  0  0  0  0  0  0  0  0  0
  -18.8950   -1.1690  -30.0900 C   0  0  0  0  0  0  0  0  0  0  0  0
  -19.2880   -2.1680  -29.0690 C   0  0  0  0  0  0  0  0  0  0  0  0
  -19.5620   -1.7370  -27.7480 N   0  0  0  0  0  0  0  0  0  0  0  0
  -18.6220   -0.9440  -27.1030 C   0  0  0  0  0  0  0  0  0  0  0  0
  -17.9440   -1.5430  -25.9050 C   0  0  0  0  0  0  0  0  0  0  0  0
  -18.8110   -2.2870  -25.1180 O   0  0  0  0  0  0  0  0  0  0  0  0
  -19.2460   -3.3510  -25.9060 C   0  0  0  0  0  0  0  0  0  0  0  0
  -20.1740   -2.7730  -26.9490 C   0  0  0  0  0  0  0  0  0  0  0  0
  -23.0030    1.3010  -37.4550 C   0  0  0  0  0  0  0  0  0  0  0  0
  -23.0630    2.6360  -37.8240 C   0  0  0  0  0  0  0  0  0  0  0  0
  -23.2510    3.0350  -39.1250 C   0  0  0  0  0  0  0  0  0  0  0  0
  -23.3900    2.0570  -40.1170 C   0  0  0  0  0  0  0  0  0  0  0  0
  -23.3310    0.7540  -39.7470 C   0  0  0  0  0  0  0  0  0  0  0  0
  -23.1390    0.3540  -38.4340 C   0  0  0  0  0  0  0  0  0  0  0  0
  -23.0770   -1.5320  -38.0270 B   0  0  0  0  0  0  0  0  0  0  0  0
  -23.5850    2.6950  -41.4480 C   0  0  0  0  0  0  0  0  0  0  0  0
  -24.0800    4.0720  -41.0560 C   0  0  0  0  0  0  0  0  0  0  0  0
  -23.3450    4.2800  -39.8030 N   0  0  0  0  0  0  0  0  0  0  0  0
  -22.8460    5.5180  -39.4050 C   0  0  0  0  0  0  0  0  0  0  0  0
  -22.3420    6.3080  -40.2770 O   0  0  0  0  0  0  0  0  0  0  0  0
  -22.8540    5.9990  -38.0250 C   0  0  0  0  0  0  0  0  0  0  0  0
  -23.9760    7.0040  -37.7760 C   0  0  0  0  0  0  0  0  0  0  0  0
  -20.8750   -1.5070  -34.2570 H   0  0  0  0  0  0  0  0  0  0  0  0
  -22.0170   -0.3320  -33.5590 H   0  0  0  0  0  0  0  0  0  0  0  0
  -20.3110    1.0520  -32.8480 H   0  0  0  0  0  0  0  0  0  0  0  0
  -17.8210    0.3530  -33.9400 H   0  0  0  0  0  0  0  0  0  0  0  0
  -18.8310    1.7950  -34.3620 H   0  0  0  0  0  0  0  0  0  0  0  0
  -18.3400    0.9660  -36.3940 H   0  0  0  0  0  0  0  0  0  0  0  0
  -18.2550   -0.7180  -35.8690 H   0  0  0  0  0  0  0  0  0  0  0  0
  -20.4330    0.7360  -37.2190 H   0  0  0  0  0  0  0  0  0  0  0  0
  -20.2620   -0.9650  -36.8200 H   0  0  0  0  0  0  0  0  0  0  0  0
  -20.8140   -0.6150  -30.9990 H   0  0  0  0  0  0  0  0  0  0  0  0
  -18.6720   -0.2160  -29.5310 H   0  0  0  0  0  0  0  0  0  0  0  0
  -17.9390   -1.4790  -30.6250 H   0  0  0  0  0  0  0  0  0  0  0  0
  -20.1890   -2.7660  -29.4570 H   0  0  0  0  0  0  0  0  0  0  0  0
  -18.4920   -2.9910  -29.0630 H   0  0  0  0  0  0  0  0  0  0  0  0
  -19.2210   -0.0630  -26.6440 H   0  0  0  0  0  0  0  0  0  0  0  0
  -17.9460   -0.4140  -27.7880 H   0  0  0  0  0  0  0  0  0  0  0  0
  -17.1480   -2.2280  -26.2440 H   0  0  0  0  0  0  0  0  0  0  0  0
  -17.4690   -0.7750  -25.2640 H   0  0  0  0  0  0  0  0  0  0  0  0
  -18.4110   -3.9260  -26.3100 H   0  0  0  0  0  0  0  0  0  0  0  0
  -19.8650   -4.0670  -25.3030 H   0  0  0  0  0  0  0  0  0  0  0  0
  -20.9990   -2.2600  -26.3710 H   0  0  0  0  0  0  0  0  0  0  0  0
  -20.6830   -3.5370  -27.5550 H   0  0  0  0  0  0  0  0  0  0  0  0
  -22.9620    3.4310  -37.0990 H   0  0  0  0  0  0  0  0  0  0  0  0
  -23.4350   -0.0350  -40.5000 H   0  0  0  0  0  0  0  0  0  0  0  0
  -22.6780    2.7360  -42.0540 H   0  0  0  0  0  0  0  0  0  0  0  0
  -24.3920    2.1800  -41.9990 H   0  0  0  0  0  0  0  0  0  0  0  0
  -23.8170    4.8390  -41.8110 H   0  0  0  0  0  0  0  0  0  0  0  0
  -25.1630    4.0780  -40.9280 H   0  0  0  0  0  0  0  0  0  0  0  0
  -23.0750    5.0870  -37.3860 H   0  0  0  0  0  0  0  0  0  0  0  0
  -21.9200    6.4420  -37.6700 H   0  0  0  0  0  0  0  0  0  0  0  0
  -24.4470    6.7870  -36.8050 H   0  0  0  0  0  0  0  0  0  0  0  0
  -24.6930    6.9260  -38.6220 H   0  0  0  0  0  0  0  0  0  0  0  0
  -23.5370    8.0210  -37.7900 H   0  0  0  0  0  0  0  0  0  0  0  0
  1  4  1  0  0  0  0
  1  3  2  0  0  0  0
  1  2  2  0  0  0  0
  4  5  1  0  0  0  0
  5 36  1  0  0  0  0
  5  6  1  0  0  0  0
  6 37  1  1  0  0  0
  6 10  1  0  0  0  0
  7 38  1  0  0  0  0
  7  6  1  0  0  0  0
  8  7  1  0  0  0  0
  9  8  1  0  0  0  0
  9  4  1  0  0  0  0
 10 12  1  0  0  0  0
 11 10  2  0  0  0  0
 12 44  1  0  0  0  0
 12 13  1  0  0  0  0
 13 45  1  0  0  0  0
 13 14  1  0  0  0  0
 14 48  1  0  0  0  0
 14 15  1  0  0  0  0
 15 16  1  0  0  0  0
 15 20  1  0  0  0  0
 16 49  1  0  0  0  0
 16 17  1  0  0  0  0
 17 52  1  0  0  0  0
 17 18  1  0  0  0  0
 19 54  1  0  0  0  0
 19 18  1  0  0  0  0
 20 55  1  0  0  0  0
 20 19  1  0  0  0  0
 21  1  1  0  0  0  0
 22 21  1  0  0  0  0
 22 57  1  0  0  0  0
 23 22  2  0  0  0  0
 24 25  2  0  0  0  0
 24 23  1  0  0  0  0
 25 26  1  0  0  0  0
 26 27  1  0  0  0  0
 26 21  2  0  0  0  0
 28 29  1  0  0  0  0
 28 24  1  0  0  0  0
 29 62  1  0  0  0  0
 29 30  1  0  0  0  0
 30 31  1  0  0  0  0
 30 23  1  0  0  0  0
 31 33  1  0  0  0  0
 32 31  2  0  0  0  0
 33 34  1  0  0  0  0
 33 64  1  0  0  0  0
 33 63  1  0  0  0  0
 34 65  1  0  0  0  0
 35  5  1  0  0  0  0
 39  7  1  0  0  0  0
 40  8  1  0  0  0  0
 41  8  1  0  0  0  0
 42  9  1  0  0  0  0
 43  9  1  0  0  0  0
 46 13  1  0  0  0  0
 47 14  1  0  0  0  0
 50 16  1  0  0  0  0
 51 17  1  0  0  0  0
 53 19  1  0  0  0  0
 56 20  1  0  0  0  0
 58 25  1  0  0  0  0
 59 28  1  0  0  0  0
 60 28  1  0  0  0  0
 61 29  1  0  0  0  0
 66 34  1  0  0  0  0
 67 34  1  0  0  0  0
M  END
>  <Pose>
1

>  <Score>
-6.65

$$$$
