
 OpenBabel03222201593D

 49 52  0  0  1  0  0  0  0  0999 V2000
  -24.7030    0.6620  -38.1480 Cl  0  0  0  0  0  0  0  0  0  0  0  0
  -23.6410   -0.1110  -36.9710 C   0  0  0  0  0  0  0  0  0  0  0  0
  -23.5240   -1.4740  -36.9200 C   0  0  0  0  0  0  0  0  0  0  0  0
  -22.6880   -2.0670  -35.9930 C   0  0  0  0  0  0  0  0  0  0  0  0
  -21.9450   -1.3330  -35.0930 C   0  0  0  0  0  0  0  0  0  0  0  0
  -22.0720    0.0390  -35.1560 C   0  0  0  0  0  0  0  0  0  0  0  0
  -22.9180    0.6490  -36.0930 C   0  0  0  0  0  0  0  0  0  0  0  0
  -21.0810   -1.9460  -34.1410 N   0  0  0  0  0  0  0  0  0  0  0  0
  -19.6840   -1.6380  -33.8620 C   0  0  0  0  0  0  0  0  0  0  0  0
  -19.4330   -2.0540  -32.4390 C   0  0  2  0  0  0  0  0  0  0  0  0
  -20.5400   -2.9760  -32.0490 C   0  0  0  0  0  0  0  0  0  0  0  0
  -21.4210   -3.0220  -33.2400 C   0  0  0  0  0  0  0  0  0  0  0  0
  -22.3580   -3.8370  -33.5240 O   0  0  0  0  0  0  0  0  0  0  0  0
  -19.1630   -0.9520  -31.5080 C   0  0  0  0  0  0  0  0  0  0  0  0
  -18.5380    0.0680  -31.9840 O   0  0  0  0  0  0  0  0  0  0  0  0
  -19.5100   -0.8870  -30.1550 N   0  0  0  0  0  0  0  0  0  0  0  0
  -20.7470   -0.2410  -29.7460 C   0  0  0  0  0  0  0  0  0  0  0  0
  -20.4610    0.8810  -28.7530 C   0  0  0  0  0  0  0  0  0  0  0  0
  -19.3510    0.5030  -27.9290 N   0  0  0  0  0  0  0  0  0  0  0  0
  -19.0890   -0.8880  -27.7240 C   0  0  0  0  0  0  0  0  0  0  0  0
  -18.6900   -1.4440  -29.1050 C   0  0  0  0  0  0  0  0  0  0  0  0
  -18.5240    1.4800  -27.3350 C   0  0  0  0  0  0  0  0  0  0  0  0
  -17.9570    1.4240  -26.0980 N   0  0  0  0  0  0  0  0  0  0  0  0
  -17.2360    2.5350  -25.8990 C   0  0  0  0  0  0  0  0  0  0  0  0
  -17.3390    3.3220  -27.0220 C   0  0  0  0  0  0  0  0  0  0  0  0
  -18.1170    2.6550  -27.8560 N   0  0  0  0  0  0  0  0  0  0  0  0
  -18.1150    0.3230  -25.1390 C   0  0  0  0  0  0  0  0  0  0  0  0
  -24.1090   -2.0550  -37.6280 H   0  0  0  0  0  0  0  0  0  0  0  0
  -22.6380   -3.1500  -36.0000 H   0  0  0  0  0  0  0  0  0  0  0  0
  -21.5220    0.6480  -34.4840 H   0  0  0  0  0  0  0  0  0  0  0  0
  -23.0090    1.7260  -36.1340 H   0  0  0  0  0  0  0  0  0  0  0  0
  -19.4960   -0.5870  -34.0690 H   0  0  0  0  0  0  0  0  0  0  0  0
  -19.0870   -2.2450  -34.5970 H   0  0  0  0  0  0  0  0  0  0  0  0
  -18.5100   -2.7130  -32.4930 H   0  0  0  0  0  0  0  0  0  0  0  0
  -20.2070   -4.0480  -31.9010 H   0  0  0  0  0  0  0  0  0  0  0  0
  -21.0480   -2.6900  -31.1180 H   0  0  0  0  0  0  0  0  0  0  0  0
  -21.3610   -1.0140  -29.2260 H   0  0  0  0  0  0  0  0  0  0  0  0
  -21.3450    0.1140  -30.5970 H   0  0  0  0  0  0  0  0  0  0  0  0
  -21.3490    0.9570  -28.0800 H   0  0  0  0  0  0  0  0  0  0  0  0
  -20.2900    1.8200  -29.3210 H   0  0  0  0  0  0  0  0  0  0  0  0
  -18.2140   -1.0730  -27.0610 H   0  0  0  0  0  0  0  0  0  0  0  0
  -20.0050   -1.4030  -27.3710 H   0  0  0  0  0  0  0  0  0  0  0  0
  -18.7550   -2.5470  -29.0270 H   0  0  0  0  0  0  0  0  0  0  0  0
  -17.6670   -1.0640  -29.2450 H   0  0  0  0  0  0  0  0  0  0  0  0
  -16.6710    2.7750  -25.0070 H   0  0  0  0  0  0  0  0  0  0  0  0
  -16.8810    4.3000  -27.2080 H   0  0  0  0  0  0  0  0  0  0  0  0
  -18.6230    0.7170  -24.2230 H   0  0  0  0  0  0  0  0  0  0  0  0
  -18.7510   -0.4520  -25.5930 H   0  0  0  0  0  0  0  0  0  0  0  0
  -17.1320   -0.0350  -24.8280 H   0  0  0  0  0  0  0  0  0  0  0  0
  1  2  1  0  0  0  0
  2  3  2  0  0  0  0
  2  7  1  0  0  0  0
  3  4  1  0  0  0  0
  4  5  2  0  0  0  0
  5  8  1  0  0  0  0
  6  5  1  0  0  0  0
  6 30  1  0  0  0  0
  7  6  2  0  0  0  0
  8  9  1  0  0  0  0
  8 12  1  0  0  0  0
  9 10  1  0  0  0  0
 10 34  1  6  0  0  0
 10 11  1  0  0  0  0
 10 14  1  0  0  0  0
 11 35  1  0  0  0  0
 11 36  1  0  0  0  0
 12 11  1  0  0  0  0
 13 12  2  0  0  0  0
 14 16  1  0  0  0  0
 15 14  2  0  0  0  0
 16 17  1  0  0  0  0
 16 21  1  0  0  0  0
 17 37  1  0  0  0  0
 17 18  1  0  0  0  0
 18 39  1  0  0  0  0
 18 19  1  0  0  0  0
 19 20  1  0  0  0  0
 19 22  1  0  0  0  0
 20 42  1  0  0  0  0
 20 41  1  0  0  0  0
 21 43  1  0  0  0  0
 21 20  1  0  0  0  0
 22 23  1  0  0  0  0
 23 24  1  0  0  0  0
 23 27  1  0  0  0  0
 24 45  1  0  0  0  0
 25 24  2  0  0  0  0
 26 22  2  0  0  0  0
 26 25  1  0  0  0  0
 27 49  1  0  0  0  0
 27 47  1  0  0  0  0
 28  3  1  0  0  0  0
 29  4  1  0  0  0  0
 31  7  1  0  0  0  0
 32  9  1  0  0  0  0
 33  9  1  0  0  0  0
 38 17  1  0  0  0  0
 40 18  1  0  0  0  0
 44 21  1  0  0  0  0
 46 25  1  0  0  0  0
 48 27  1  0  0  0  0
M  END
>  <Pose>
1

>  <Score>
-5.95

$$$$
