
 OpenBabel03222201593D

 35 38  0  0  1  0  0  0  0  0999 V2000
  -20.3300   -4.4900  -28.3630 Cl  0  0  0  0  0  0  0  0  0  0  0  0
  -20.5260   -3.6680  -29.9100 C   0  0  0  0  0  0  0  0  0  0  0  0
  -20.9950   -4.3560  -31.0130 C   0  0  0  0  0  0  0  0  0  0  0  0
  -21.1590   -3.7340  -32.2280 C   0  0  0  0  0  0  0  0  0  0  0  0
  -20.8550   -2.3770  -32.3860 C   0  0  0  0  0  0  0  0  0  0  0  0
  -20.3910   -1.7260  -31.2660 C   0  0  0  0  0  0  0  0  0  0  0  0
  -20.2180   -2.3220  -30.0400 C   0  0  0  0  0  0  0  0  0  0  0  0
  -21.0340   -1.7370  -33.6420 N   0  0  0  0  0  0  0  0  0  0  0  0
  -22.0480   -1.9700  -34.6330 C   0  0  0  0  0  0  0  0  0  0  0  0
  -22.8200   -2.9620  -34.6120 O   0  0  0  0  0  0  0  0  0  0  0  0
  -22.0420   -0.8920  -35.6540 C   0  0  1  0  0  0  0  0  0  0  0  0
  -23.2950   -0.0790  -35.6770 C   0  0  1  0  0  0  0  0  0  0  0  0
  -23.8510   -0.0640  -34.2690 C   0  0  1  0  0  0  0  0  0  0  0  0
  -22.7650    0.7080  -33.5220 C   0  0  1  0  0  0  0  0  0  0  0  0
  -21.7870    1.1760  -34.5750 C   0  0  1  0  0  0  0  0  0  0  0  0
  -20.9590    0.0690  -35.1480 C   0  0  1  0  0  0  0  0  0  0  0  0
  -20.1960   -0.7060  -34.1390 C   0  0  0  0  0  0  0  0  0  0  0  0
  -19.0100   -0.4620  -33.8090 O   0  0  0  0  0  0  0  0  0  0  0  0
  -22.7820    1.3700  -35.7420 C   0  0  0  0  0  0  0  0  0  0  0  0
  -23.2860    1.8630  -32.9400 O   0  0  0  0  0  0  0  0  0  0  0  0
  -24.9890    0.7140  -34.2710 O   0  0  0  0  0  0  0  0  0  0  0  0
  -21.2280   -5.4100  -30.8830 H   0  0  0  0  0  0  0  0  0  0  0  0
  -21.5190   -4.2450  -33.0990 H   0  0  0  0  0  0  0  0  0  0  0  0
  -20.1430   -0.6650  -31.3480 H   0  0  0  0  0  0  0  0  0  0  0  0
  -19.8490   -1.7860  -29.1610 H   0  0  0  0  0  0  0  0  0  0  0  0
  -21.7430   -1.2690  -36.6530 H   0  0  0  0  0  0  0  0  0  0  0  0
  -24.0070   -0.3070  -36.4500 H   0  0  0  0  0  0  0  0  0  0  0  0
  -23.9900   -1.0710  -33.8590 H   0  0  0  0  0  0  0  0  0  0  0  0
  -22.3110    0.1080  -32.7410 H   0  0  0  0  0  0  0  0  0  0  0  0
  -21.2530    2.0900  -34.3350 H   0  0  0  0  0  0  0  0  0  0  0  0
  -20.3370    0.4640  -35.9670 H   0  0  0  0  0  0  0  0  0  0  0  0
  -22.2800    1.5980  -36.6740 H   0  0  0  0  0  0  0  0  0  0  0  0
  -23.5800    2.0670  -35.4220 H   0  0  0  0  0  0  0  0  0  0  0  0
  -23.6810    1.5960  -32.0570 H   0  0  0  0  0  0  0  0  0  0  0  0
  -25.4710    0.7470  -35.1300 H   0  0  0  0  0  0  0  0  0  0  0  0
  2  1  1  0  0  0  0
  3 22  1  0  0  0  0
  3  2  2  0  0  0  0
  4  3  1  0  0  0  0
  5  4  2  0  0  0  0
  5  6  1  0  0  0  0
  6  7  2  0  0  0  0
  7  2  1  0  0  0  0
  7 25  1  0  0  0  0
  8  5  1  0  0  0  0
  9 10  2  0  0  0  0
  9  8  1  0  0  0  0
 11 26  1  6  0  0  0
 11 16  1  0  0  0  0
 11  9  1  0  0  0  0
 12 27  1  6  0  0  0
 12 11  1  0  0  0  0
 12 13  1  0  0  0  0
 13 28  1  1  0  0  0
 13 14  1  0  0  0  0
 14 20  1  0  0  0  0
 14 29  1  1  0  0  0
 15 30  1  1  0  0  0
 15 14  1  0  0  0  0
 16 31  1  6  0  0  0
 16 15  1  0  0  0  0
 16 17  1  0  0  0  0
 17 18  2  0  0  0  0
 17  8  1  0  0  0  0
 19 12  1  0  0  0  0
 19 33  1  0  0  0  0
 19 15  1  0  0  0  0
 20 34  1  0  0  0  0
 21 13  1  0  0  0  0
 23  4  1  0  0  0  0
 24  6  1  0  0  0  0
 32 19  1  0  0  0  0
 35 21  1  0  0  0  0
M  END
>  <Pose>
1

>  <Score>
-5.59

$$$$
