
 OpenBabel03222201593D

 51 54  0  0  1  0  0  0  0  0999 V2000
  -16.2370    3.7790  -24.3960 Cl  0  0  0  0  0  0  0  0  0  0  0  0
  -17.0710    2.5340  -25.3350 C   0  0  0  0  0  0  0  0  0  0  0  0
  -17.7180    1.4960  -24.7130 C   0  0  0  0  0  0  0  0  0  0  0  0
  -18.3630    0.5330  -25.4610 C   0  0  0  0  0  0  0  0  0  0  0  0
  -18.3830    0.5740  -26.8320 C   0  0  0  0  0  0  0  0  0  0  0  0
  -17.7380    1.6070  -27.4520 C   0  0  0  0  0  0  0  0  0  0  0  0
  -17.0780    2.5950  -26.7080 C   0  0  0  0  0  0  0  0  0  0  0  0
  -19.0540   -0.4350  -27.5740 N   0  0  0  0  0  0  0  0  0  0  0  0
  -18.7740   -1.8050  -27.3240 C   0  0  0  0  0  0  0  0  0  0  0  0
  -17.9090   -2.0670  -26.4170 O   0  0  0  0  0  0  0  0  0  0  0  0
  -19.4230   -2.8130  -28.0440 N   0  0  0  0  0  0  0  0  0  0  0  0
  -20.3750   -2.4920  -29.0400 C   0  0  0  0  0  0  0  0  0  0  0  0
  -21.1740   -3.3530  -29.4560 O   0  0  0  0  0  0  0  0  0  0  0  0
  -20.4240   -1.1220  -29.5970 C   0  0  1  0  0  0  0  0  0  0  0  0
  -20.0110   -0.1290  -28.5770 C   0  0  0  0  0  0  0  0  0  0  0  0
  -20.5230    1.0030  -28.6060 O   0  0  0  0  0  0  0  0  0  0  0  0
  -19.4870   -0.9990  -30.7670 C   0  0  0  0  0  0  0  0  0  0  0  0
  -19.7230   -1.3000  -32.0290 C   0  0  0  0  0  0  0  0  0  0  0  0
  -18.5180   -1.0220  -32.8510 C   0  0  2  0  0  0  0  0  0  0  0  0
  -17.4690   -0.9790  -31.8700 N   0  0  0  0  0  0  0  0  0  0  0  0
  -18.1420   -0.5340  -30.7220 N   0  0  0  0  0  0  0  0  0  0  0  0
  -18.7250    0.2240  -33.5790 C   0  0  0  0  0  0  0  0  0  0  0  0
  -18.7710    0.1810  -34.9560 C   0  0  0  0  0  0  0  0  0  0  0  0
  -18.9650    1.3040  -35.7340 C   0  0  0  0  0  0  0  0  0  0  0  0
  -19.1200    2.5320  -35.0790 C   0  0  0  0  0  0  0  0  0  0  0  0
  -19.0810    2.6270  -33.7050 C   0  0  0  0  0  0  0  0  0  0  0  0
  -18.8830    1.4610  -32.9920 C   0  0  0  0  0  0  0  0  0  0  0  0
  -19.2370    3.8460  -33.1170 O   0  0  0  0  0  0  0  0  0  0  0  0
  -18.2210    4.7450  -32.7760 C   0  0  0  0  0  0  0  0  0  0  0  0
  -19.3170    3.6810  -35.8120 O   0  0  0  0  0  0  0  0  0  0  0  0
  -19.0130    1.2710  -37.1220 O   0  0  0  0  0  0  0  0  0  0  0  0
  -19.4200    0.0560  -37.7170 C   0  0  0  0  0  0  0  0  0  0  0  0
  -17.7020    1.4650  -23.6360 H   0  0  0  0  0  0  0  0  0  0  0  0
  -18.8660   -0.2740  -24.9470 H   0  0  0  0  0  0  0  0  0  0  0  0
  -17.7430    1.6560  -28.5260 H   0  0  0  0  0  0  0  0  0  0  0  0
  -16.5730    3.4050  -27.2030 H   0  0  0  0  0  0  0  0  0  0  0  0
  -19.1770   -3.8200  -27.8150 H   0  0  0  0  0  0  0  0  0  0  0  0
  -21.4560   -0.9450  -29.9620 H   0  0  0  0  0  0  0  0  0  0  0  0
  -20.6840   -1.6940  -32.3780 H   0  0  0  0  0  0  0  0  0  0  0  0
  -18.3780   -1.8820  -33.5470 H   0  0  0  0  0  0  0  0  0  0  0  0
  -16.6580   -0.4180  -32.1230 H   0  0  0  0  0  0  0  0  0  0  0  0
  -17.7110    0.0400  -29.9700 H   0  0  0  0  0  0  0  0  0  0  0  0
  -18.6540   -0.7540  -35.4980 H   0  0  0  0  0  0  0  0  0  0  0  0
  -18.8460    1.4930  -31.9190 H   0  0  0  0  0  0  0  0  0  0  0  0
  -17.3340    4.2480  -32.3230 H   0  0  0  0  0  0  0  0  0  0  0  0
  -18.5210    5.5390  -32.0980 H   0  0  0  0  0  0  0  0  0  0  0  0
  -17.8510    5.2180  -33.7120 H   0  0  0  0  0  0  0  0  0  0  0  0
  -20.2280    3.8790  -36.2020 H   0  0  0  0  0  0  0  0  0  0  0  0
  -19.2880    0.0870  -38.8120 H   0  0  0  0  0  0  0  0  0  0  0  0
  -20.4340   -0.2460  -37.4200 H   0  0  0  0  0  0  0  0  0  0  0  0
  -18.7280   -0.7470  -37.3510 H   0  0  0  0  0  0  0  0  0  0  0  0
  2  3  1  0  0  0  0
  2  1  1  0  0  0  0
  3 33  1  0  0  0  0
  4 34  1  0  0  0  0
  4  3  2  0  0  0  0
  5  4  1  0  0  0  0
  6  5  2  0  0  0  0
  6  7  1  0  0  0  0
  7  2  2  0  0  0  0
  8  9  1  0  0  0  0
  8  5  1  0  0  0  0
  9 10  2  0  0  0  0
 11 37  1  0  0  0  0
 11  9  1  0  0  0  0
 12 11  1  0  0  0  0
 13 12  2  0  0  0  0
 14 38  1  6  0  0  0
 14 12  1  0  0  0  0
 14 15  1  0  0  0  0
 15  8  1  0  0  0  0
 16 15  2  0  0  0  0
 17 21  1  0  0  0  0
 17 14  1  0  0  0  0
 18 17  2  0  0  0  0
 19 40  1  6  0  0  0
 19 18  1  0  0  0  0
 19 20  1  0  0  0  0
 20 21  1  0  0  0  0
 21 42  1  0  0  0  0
 22 27  1  0  0  0  0
 22 19  1  0  0  0  0
 23 22  2  0  0  0  0
 24 25  2  0  0  0  0
 24 23  1  0  0  0  0
 25 26  1  0  0  0  0
 26 28  1  0  0  0  0
 26 27  2  0  0  0  0
 27 44  1  0  0  0  0
 28 29  1  0  0  0  0
 29 45  1  0  0  0  0
 29 46  1  0  0  0  0
 30 25  1  0  0  0  0
 31 24  1  0  0  0  0
 32 50  1  0  0  0  0
 32 51  1  0  0  0  0
 32 31  1  0  0  0  0
 35  6  1  0  0  0  0
 36  7  1  0  0  0  0
 39 18  1  0  0  0  0
 41 20  1  0  0  0  0
 43 23  1  0  0  0  0
 47 29  1  0  0  0  0
 48 30  1  0  0  0  0
 49 32  1  0  0  0  0
M  END
>  <Pose>
1

>  <Score>
-6.98

$$$$
