
 OpenBabel03222201593D

 47 50  0  0  1  0  0  0  0  0999 V2000
  -22.4820    5.0220  -39.2460 Cl  0  0  0  0  0  0  0  0  0  0  0  0
  -22.4610    3.6320  -38.1770 C   0  0  0  0  0  0  0  0  0  0  0  0
  -21.8380    3.6910  -36.9390 C   0  0  0  0  0  0  0  0  0  0  0  0
  -21.8390    2.5940  -36.1310 C   0  0  0  0  0  0  0  0  0  0  0  0
  -22.4480    1.4010  -36.5000 C   0  0  0  0  0  0  0  0  0  0  0  0
  -23.0650    1.3470  -37.7300 C   0  0  0  0  0  0  0  0  0  0  0  0
  -23.0780    2.4570  -38.5760 C   0  0  0  0  0  0  0  0  0  0  0  0
  -22.4450    0.2590  -35.6530 N   0  0  0  0  0  0  0  0  0  0  0  0
  -23.5580   -0.1060  -34.8490 C   0  0  0  0  0  0  0  0  0  0  0  0
  -24.5920    0.6230  -34.8920 O   0  0  0  0  0  0  0  0  0  0  0  0
  -23.5280   -1.2500  -34.0190 N   0  0  0  0  0  0  0  0  0  0  0  0
  -22.3760   -2.0690  -33.9670 C   0  0  0  0  0  0  0  0  0  0  0  0
  -22.3900   -3.2000  -33.3660 O   0  0  0  0  0  0  0  0  0  0  0  0
  -21.1200   -1.6650  -34.5960 C   0  0  1  0  0  0  0  0  0  0  0  0
  -21.3070   -0.5860  -35.5750 C   0  0  0  0  0  0  0  0  0  0  0  0
  -20.3920   -0.3630  -36.4410 O   0  0  0  0  0  0  0  0  0  0  0  0
  -20.1100   -1.3120  -33.5540 C   0  0  0  0  0  0  0  0  0  0  0  0
  -20.1670   -0.3580  -32.6630 C   0  0  0  0  0  0  0  0  0  0  0  0
  -18.9180   -0.4270  -31.8660 C   0  0  2  0  0  0  0  0  0  0  0  0
  -18.0200   -1.2070  -32.6910 N   0  0  0  0  0  0  0  0  0  0  0  0
  -18.8910   -2.0330  -33.4100 N   0  0  0  0  0  0  0  0  0  0  0  0
  -19.1590   -1.1200  -30.5700 C   0  0  0  0  0  0  0  0  0  0  0  0
  -19.8710   -2.2950  -30.4860 C   0  0  0  0  0  0  0  0  0  0  0  0
  -20.1020   -2.9450  -29.2880 C   0  0  0  0  0  0  0  0  0  0  0  0
  -19.6120   -2.4190  -28.1140 C   0  0  0  0  0  0  0  0  0  0  0  0
  -18.8990   -1.2470  -28.1770 C   0  0  0  0  0  0  0  0  0  0  0  0
  -18.6740   -0.6070  -29.3760 C   0  0  0  0  0  0  0  0  0  0  0  0
  -19.8310   -3.0520  -26.9070 O   0  0  0  0  0  0  0  0  0  0  0  0
  -19.0590   -2.6940  -25.7830 C   0  0  0  0  0  0  0  0  0  0  0  0
  -20.8240   -4.1230  -29.2670 O   0  0  0  0  0  0  0  0  0  0  0  0
  -21.3640    4.5970  -36.6320 H   0  0  0  0  0  0  0  0  0  0  0  0
  -21.3440    2.6480  -35.1540 H   0  0  0  0  0  0  0  0  0  0  0  0
  -23.5360    0.4130  -38.0080 H   0  0  0  0  0  0  0  0  0  0  0  0
  -23.5780    2.3660  -39.5370 H   0  0  0  0  0  0  0  0  0  0  0  0
  -24.3640   -1.5030  -33.4310 H   0  0  0  0  0  0  0  0  0  0  0  0
  -20.7390   -2.5710  -35.1520 H   0  0  0  0  0  0  0  0  0  0  0  0
  -21.0000    0.3360  -32.5670 H   0  0  0  0  0  0  0  0  0  0  0  0
  -18.5140    0.5970  -31.6820 H   0  0  0  0  0  0  0  0  0  0  0  0
  -17.4550   -0.5950  -33.3280 H   0  0  0  0  0  0  0  0  0  0  0  0
  -18.6360   -2.9950  -33.7520 H   0  0  0  0  0  0  0  0  0  0  0  0
  -20.2510   -2.6930  -31.4320 H   0  0  0  0  0  0  0  0  0  0  0  0
  -18.5030   -0.8200  -27.2470 H   0  0  0  0  0  0  0  0  0  0  0  0
  -18.1060    0.3290  -29.4360 H   0  0  0  0  0  0  0  0  0  0  0  0
  -19.2150   -1.6430  -25.4740 H   0  0  0  0  0  0  0  0  0  0  0  0
  -19.2910   -3.3960  -24.9600 H   0  0  0  0  0  0  0  0  0  0  0  0
  -17.9940   -2.8620  -26.0480 H   0  0  0  0  0  0  0  0  0  0  0  0
  -21.7940   -4.1420  -29.5100 H   0  0  0  0  0  0  0  0  0  0  0  0
  1  2  1  0  0  0  0
  2  3  1  0  0  0  0
  3 31  1  0  0  0  0
  3  4  2  0  0  0  0
  4 32  1  0  0  0  0
  5  4  1  0  0  0  0
  5  8  1  0  0  0  0
  6  5  2  0  0  0  0
  7  2  2  0  0  0  0
  7  6  1  0  0  0  0
  8 15  1  0  0  0  0
  8  9  1  0  0  0  0
  9 11  1  0  0  0  0
 10  9  2  0  0  0  0
 11 12  1  0  0  0  0
 11 35  1  0  0  0  0
 12 13  2  0  0  0  0
 14 36  1  6  0  0  0
 14 12  1  0  0  0  0
 14 17  1  0  0  0  0
 15 14  1  0  0  0  0
 16 15  2  0  0  0  0
 17 21  1  0  0  0  0
 17 18  2  0  0  0  0
 18 37  1  0  0  0  0
 18 19  1  0  0  0  0
 19 38  1  1  0  0  0
 19 22  1  0  0  0  0
 20 19  1  0  0  0  0
 21 20  1  0  0  0  0
 22 23  2  0  0  0  0
 22 27  1  0  0  0  0
 23 24  1  0  0  0  0
 24 30  1  0  0  0  0
 24 25  2  0  0  0  0
 25 28  1  0  0  0  0
 26 25  1  0  0  0  0
 26 42  1  0  0  0  0
 27 26  2  0  0  0  0
 28 29  1  0  0  0  0
 29 44  1  0  0  0  0
 29 45  1  0  0  0  0
 33  6  1  0  0  0  0
 34  7  1  0  0  0  0
 39 20  1  0  0  0  0
 40 21  1  0  0  0  0
 41 23  1  0  0  0  0
 43 27  1  0  0  0  0
 46 29  1  0  0  0  0
 47 30  1  0  0  0  0
M  END
>  <Pose>
1

>  <Score>
-7.23

$$$$
