
 OpenBabel03222201593D

 41 44  0  0  1  0  0  0  0  0999 V2000
  -20.8250   -5.2350  -28.2650 Cl  0  0  0  0  0  0  0  0  0  0  0  0
  -20.3670   -3.9110  -29.3230 C   0  0  0  0  0  0  0  0  0  0  0  0
  -20.6730   -3.9320  -30.6670 C   0  0  0  0  0  0  0  0  0  0  0  0
  -20.3070   -2.8820  -31.5020 C   0  0  0  0  0  0  0  0  0  0  0  0
  -19.6280   -1.7850  -31.0190 C   0  0  0  0  0  0  0  0  0  0  0  0
  -19.3250   -1.7670  -29.6750 C   0  0  0  0  0  0  0  0  0  0  0  0
  -19.6890   -2.8110  -28.8440 C   0  0  0  0  0  0  0  0  0  0  0  0
  -19.2420   -0.6830  -31.8750 N   0  0  0  0  0  0  0  0  0  0  0  0
  -17.8760   -0.4050  -32.1240 C   0  0  0  0  0  0  0  0  0  0  0  0
  -16.9810   -1.1190  -31.6070 O   0  0  0  0  0  0  0  0  0  0  0  0
  -17.5360    0.7020  -32.9770 N   0  0  0  0  0  0  0  0  0  0  0  0
  -18.5470    1.5110  -33.5630 C   0  0  0  0  0  0  0  0  0  0  0  0
  -18.2480    2.6450  -34.0120 O   0  0  0  0  0  0  0  0  0  0  0  0
  -19.9270    1.0040  -33.6350 C   0  0  2  0  0  0  0  0  0  0  0  0
  -20.2230    0.1440  -32.4760 C   0  0  0  0  0  0  0  0  0  0  0  0
  -21.4040    0.1310  -31.9830 O   0  0  0  0  0  0  0  0  0  0  0  0
  -20.1540    0.2460  -34.9100 C   0  0  0  0  0  0  0  0  0  0  0  0
  -20.2880    0.7180  -36.1230 C   0  0  0  0  0  0  0  0  0  0  0  0
  -20.4950   -0.4000  -37.0570 C   0  0  1  0  0  0  0  0  0  0  0  0
  -20.1090   -1.5590  -36.3030 N   0  0  0  0  0  0  0  0  0  0  0  0
  -20.2500   -1.1680  -34.9620 N   0  0  0  0  0  0  0  0  0  0  0  0
  -21.9480   -0.4480  -37.3630 C   0  0  0  0  0  0  0  0  0  0  0  0
  -22.5720   -1.6540  -37.5730 C   0  0  0  0  0  0  0  0  0  0  0  0
  -23.9030   -1.7050  -37.8540 N   0  0  0  0  0  0  0  0  0  0  0  0
  -24.6650   -0.6030  -37.9420 C   0  0  0  0  0  0  0  0  0  0  0  0
  -24.0710    0.6220  -37.7380 C   0  0  0  0  0  0  0  0  0  0  0  0
  -22.7010    0.6920  -37.4470 C   0  0  0  0  0  0  0  0  0  0  0  0
  -21.2040   -4.7820  -31.0630 H   0  0  0  0  0  0  0  0  0  0  0  0
  -20.5400   -2.8810  -32.5550 H   0  0  0  0  0  0  0  0  0  0  0  0
  -18.7850   -0.9010  -29.2780 H   0  0  0  0  0  0  0  0  0  0  0  0
  -19.4510   -2.8080  -27.7780 H   0  0  0  0  0  0  0  0  0  0  0  0
  -16.5440    0.9430  -33.1870 H   0  0  0  0  0  0  0  0  0  0  0  0
  -20.6790    1.8250  -33.6540 H   0  0  0  0  0  0  0  0  0  0  0  0
  -20.2460    1.7700  -36.3700 H   0  0  0  0  0  0  0  0  0  0  0  0
  -19.8950   -0.2890  -37.9920 H   0  0  0  0  0  0  0  0  0  0  0  0
  -19.1550   -1.8670  -36.5110 H   0  0  0  0  0  0  0  0  0  0  0  0
  -20.3980   -1.8590  -34.1910 H   0  0  0  0  0  0  0  0  0  0  0  0
  -21.9720   -2.5670  -37.5060 H   0  0  0  0  0  0  0  0  0  0  0  0
  -25.7390   -0.6660  -38.1710 H   0  0  0  0  0  0  0  0  0  0  0  0
  -24.6740    1.5140  -37.8050 H   0  0  0  0  0  0  0  0  0  0  0  0
  -22.2540    1.6420  -37.2910 H   0  0  0  0  0  0  0  0  0  0  0  0
  2  7  1  0  0  0  0
  2  1  1  0  0  0  0
  3  2  2  0  0  0  0
  4  5  2  0  0  0  0
  4  3  1  0  0  0  0
  5  6  1  0  0  0  0
  6 30  1  0  0  0  0
  6  7  2  0  0  0  0
  7 31  1  0  0  0  0
  8  5  1  0  0  0  0
  9  8  1  0  0  0  0
  9 10  2  0  0  0  0
 11  9  1  0  0  0  0
 12 11  1  0  0  0  0
 13 12  2  0  0  0  0
 14 33  1  1  0  0  0
 14 12  1  0  0  0  0
 14 15  1  0  0  0  0
 15 16  2  0  0  0  0
 15  8  1  0  0  0  0
 17 14  1  0  0  0  0
 18 17  2  0  0  0  0
 19 35  1  6  0  0  0
 19 20  1  0  0  0  0
 19 18  1  0  0  0  0
 20 21  1  0  0  0  0
 21 17  1  0  0  0  0
 21 37  1  0  0  0  0
 22 19  1  0  0  0  0
 23 38  1  0  0  0  0
 23 22  2  0  0  0  0
 24 23  1  0  0  0  0
 25 24  2  0  0  0  0
 25 26  1  0  0  0  0
 26 27  2  0  0  0  0
 27 22  1  0  0  0  0
 27 41  1  0  0  0  0
 28  3  1  0  0  0  0
 29  4  1  0  0  0  0
 32 11  1  0  0  0  0
 34 18  1  0  0  0  0
 36 20  1  0  0  0  0
 39 25  1  0  0  0  0
 40 26  1  0  0  0  0
M  END
>  <Pose>
1

>  <Score>
-6.25

$$$$
