
 OpenBabel03222201593D

 58 62  0  0  1  0  0  0  0  0999 V2000
  -24.0440   -3.6660  -38.8090 Cl  0  0  0  0  0  0  0  0  0  0  0  0
  -23.3560   -2.1430  -38.2900 C   0  0  0  0  0  0  0  0  0  0  0  0
  -23.6640   -1.6150  -37.0530 C   0  0  0  0  0  0  0  0  0  0  0  0
  -23.1390   -0.4190  -36.6180 C   0  0  0  0  0  0  0  0  0  0  0  0
  -22.2810    0.2540  -37.4600 C   0  0  0  0  0  0  0  0  0  0  0  0
  -21.9860   -0.2780  -38.6750 C   0  0  0  0  0  0  0  0  0  0  0  0
  -22.5000   -1.4710  -39.1290 C   0  0  0  0  0  0  0  0  0  0  0  0
  -23.4910    0.1330  -35.2640 C   0  0  0  0  0  0  0  0  0  0  0  0
  -22.2960    0.6420  -34.6130 N   0  0  0  0  0  0  0  0  0  0  0  0
  -21.8130    1.9600  -34.8400 C   0  0  0  0  0  0  0  0  0  0  0  0
  -22.3920    2.6980  -35.7010 O   0  0  0  0  0  0  0  0  0  0  0  0
  -20.6660    2.5320  -34.1280 C   0  0  1  0  0  0  0  0  0  0  0  0
  -19.9130    1.6020  -33.3540 N   0  0  1  0  0  0  0  0  0  0  0  0
  -20.6410    0.5240  -32.7690 C   0  0  0  0  0  0  0  0  0  0  0  0
  -21.2400    0.7920  -31.4100 C   0  0  0  0  0  0  0  0  0  0  0  0
  -20.3150   -0.1260  -30.8270 N   0  0  0  0  0  0  0  0  0  0  0  0
  -19.6790   -0.4080  -32.0520 C   0  0  0  0  0  0  0  0  0  0  0  0
  -19.5690    0.2660  -29.6870 C   0  0  0  0  0  0  0  0  0  0  0  0
  -19.4280   -0.7400  -28.6280 C   0  0  0  0  0  0  0  0  0  0  0  0
  -20.0320   -1.9660  -28.7600 C   0  0  0  0  0  0  0  0  0  0  0  0
  -19.9140   -2.9420  -27.7670 C   0  0  0  0  0  0  0  0  0  0  0  0
  -19.1780   -2.6630  -26.6380 C   0  0  0  0  0  0  0  0  0  0  0  0
  -18.5620   -1.4440  -26.4820 C   0  0  0  0  0  0  0  0  0  0  0  0
  -18.7000   -0.4930  -27.4910 C   0  0  0  0  0  0  0  0  0  0  0  0
  -20.5210   -4.1760  -27.8950 O   0  0  0  0  0  0  0  0  0  0  0  0
  -20.4240   -4.8500  -29.1360 C   0  0  0  0  0  0  0  0  0  0  0  0
  -21.5530   -0.1710  -33.7140 C   0  0  0  0  0  0  0  0  0  0  0  0
  -21.6890   -1.4210  -33.7470 O   0  0  0  0  0  0  0  0  0  0  0  0
  -18.8620    1.0790  -34.1790 C   0  0  0  0  0  0  0  0  0  0  0  0
  -18.9270    1.7700  -35.5110 C   0  0  1  0  0  0  0  0  0  0  0  0
  -19.6850    3.0290  -35.1990 C   0  0  0  0  0  0  0  0  0  0  0  0
  -17.6740    2.0220  -36.0530 O   0  0  0  0  0  0  0  0  0  0  0  0
  -24.3510   -2.1620  -36.3890 H   0  0  0  0  0  0  0  0  0  0  0  0
  -21.8680    1.1810  -37.1280 H   0  0  0  0  0  0  0  0  0  0  0  0
  -21.3060    0.2640  -39.3310 H   0  0  0  0  0  0  0  0  0  0  0  0
  -22.2440   -1.8750  -40.1160 H   0  0  0  0  0  0  0  0  0  0  0  0
  -23.9040   -0.7130  -34.6750 H   0  0  0  0  0  0  0  0  0  0  0  0
  -24.2310    0.9410  -35.4250 H   0  0  0  0  0  0  0  0  0  0  0  0
  -20.9550    3.4200  -33.5170 H   0  0  0  0  0  0  0  0  0  0  0  0
  -21.2390    1.8280  -31.0780 H   0  0  0  0  0  0  0  0  0  0  0  0
  -22.2780    0.3540  -31.3340 H   0  0  0  0  0  0  0  0  0  0  0  0
  -18.6190   -0.1730  -32.1840 H   0  0  0  0  0  0  0  0  0  0  0  0
  -19.8610   -1.4670  -32.3990 H   0  0  0  0  0  0  0  0  0  0  0  0
  -18.5610    0.6130  -30.0700 H   0  0  0  0  0  0  0  0  0  0  0  0
  -20.0220    1.2260  -29.2960 H   0  0  0  0  0  0  0  0  0  0  0  0
  -20.6260   -2.2520  -29.6190 H   0  0  0  0  0  0  0  0  0  0  0  0
  -19.1050   -3.4480  -25.8810 H   0  0  0  0  0  0  0  0  0  0  0  0
  -17.9970   -1.2820  -25.5760 H   0  0  0  0  0  0  0  0  0  0  0  0
  -18.1960    0.4450  -27.3130 H   0  0  0  0  0  0  0  0  0  0  0  0
  -21.0280   -5.7800  -29.0360 H   0  0  0  0  0  0  0  0  0  0  0  0
  -20.8160   -4.2210  -29.9710 H   0  0  0  0  0  0  0  0  0  0  0  0
  -19.3780   -5.1220  -29.3810 H   0  0  0  0  0  0  0  0  0  0  0  0
  -18.9530   -0.0200  -34.3670 H   0  0  0  0  0  0  0  0  0  0  0  0
  -17.8670    1.2870  -33.6860 H   0  0  0  0  0  0  0  0  0  0  0  0
  -19.5670    1.1580  -36.2060 H   0  0  0  0  0  0  0  0  0  0  0  0
  -20.2190    3.4420  -36.0690 H   0  0  0  0  0  0  0  0  0  0  0  0
  -19.0100    3.7450  -34.7190 H   0  0  0  0  0  0  0  0  0  0  0  0
  -17.1230    1.2160  -35.9050 H   0  0  0  0  0  0  0  0  0  0  0  0
  1  2  1  0  0  0  0
  2  3  1  0  0  0  0
  3  4  2  0  0  0  0
  3 33  1  0  0  0  0
  4  8  1  0  0  0  0
  5 34  1  0  0  0  0
  5  4  1  0  0  0  0
  6  5  2  0  0  0  0
  7  6  1  0  0  0  0
  7  2  2  0  0  0  0
  8 37  1  0  0  0  0
  8  9  1  0  0  0  0
  9 27  1  0  0  0  0
 10  9  1  0  0  0  0
 10 12  1  0  0  0  0
 11 10  2  0  0  0  0
 12 39  1  1  0  0  0
 12 13  1  0  0  0  0
 13 29  1  6  0  0  0
 13 14  1  0  0  0  0
 14 17  1  0  0  0  0
 14 15  1  0  0  0  0
 15 41  1  0  0  0  0
 15 40  1  0  0  0  0
 15 16  1  0  0  0  0
 16 18  1  0  0  0  0
 17 16  1  0  0  0  0
 18 45  1  0  0  0  0
 18 19  1  0  0  0  0
 19 24  1  0  0  0  0
 20 19  2  0  0  0  0
 20 21  1  0  0  0  0
 21 22  2  0  0  0  0
 22 23  1  0  0  0  0
 22 47  1  0  0  0  0
 23 48  1  0  0  0  0
 24 49  1  0  0  0  0
 24 23  2  0  0  0  0
 25 21  1  0  0  0  0
 26 50  1  0  0  0  0
 26 25  1  0  0  0  0
 27 14  1  0  0  0  0
 28 27  2  0  0  0  0
 29 54  1  0  0  0  0
 30 55  1  6  0  0  0
 30 31  1  0  0  0  0
 30 29  1  0  0  0  0
 31 57  1  0  0  0  0
 31 12  1  0  0  0  0
 32 58  1  0  0  0  0
 32 30  1  0  0  0  0
 35  6  1  0  0  0  0
 36  7  1  0  0  0  0
 38  8  1  0  0  0  0
 42 17  1  0  0  0  0
 43 17  1  0  0  0  0
 44 18  1  0  0  0  0
 46 20  1  0  0  0  0
 51 26  1  0  0  0  0
 52 26  1  0  0  0  0
 53 29  1  0  0  0  0
 56 31  1  0  0  0  0
M  END
>  <Pose>
1

>  <Score>
-5.99

$$$$
