
 OpenBabel03222201593D

 55 59  0  0  1  0  0  0  0  0999 V2000
  -16.4160    2.8800  -19.4070 B   0  0  0  0  0  0  0  0  0  0  0  0
  -16.5290    2.7240  -21.3030 C   0  0  0  0  0  0  0  0  0  0  0  0
  -15.9600    3.5170  -22.2800 C   0  0  0  0  0  0  0  0  0  0  0  0
  -16.3030    3.0440  -23.5060 N   0  0  0  0  0  0  0  0  0  0  0  0
  -17.0580    1.9970  -23.3140 N   0  0  0  0  0  0  0  0  0  0  0  0
  -17.2370    1.7450  -22.0050 C   0  0  0  0  0  0  0  0  0  0  0  0
  -15.9280    3.5690  -24.7970 C   0  0  0  0  0  0  0  0  0  0  0  0
  -16.7740    4.7500  -25.2130 C   0  0  2  0  0  0  0  0  0  0  0  0
  -17.8690    5.0180  -24.2360 C   0  0  0  0  0  0  0  0  0  0  0  0
  -17.2870    4.5220  -26.5950 C   0  0  0  0  0  0  0  0  0  0  0  0
  -16.4660    4.6820  -27.5340 O   0  0  0  0  0  0  0  0  0  0  0  0
  -18.6280    4.1480  -26.8510 N   0  0  0  0  0  0  0  0  0  0  0  0
  -19.0100    3.0930  -27.6480 N   0  0  0  0  0  0  0  0  0  0  0  0
  -18.3100    1.8770  -27.6390 C   0  0  0  0  0  0  0  0  0  0  0  0
  -17.2420    1.8040  -26.9580 O   0  0  0  0  0  0  0  0  0  0  0  0
  -18.7330    0.6630  -28.3750 C   0  0  1  0  0  0  0  0  0  0  0  0
  -18.8340   -0.5230  -27.4370 C   0  0  0  0  0  0  0  0  0  0  0  0
  -19.2510   -1.7600  -28.1810 C   0  0  1  0  0  0  0  0  0  0  0  0
  -20.6500   -1.4960  -28.7420 C   0  0  0  0  0  0  0  0  0  0  0  0
  -20.6060   -0.3210  -29.6650 C   0  0  1  0  0  0  0  0  0  0  0  0
  -20.1160    0.9090  -28.9360 C   0  0  0  0  0  0  0  0  0  0  0  0
  -19.6720   -0.6290  -30.8130 C   0  0  0  0  0  0  0  0  0  0  0  0
  -18.2970   -0.8790  -30.2380 C   0  0  2  0  0  0  0  0  0  0  0  0
  -18.3500   -2.0830  -29.3320 C   0  0  0  0  0  0  0  0  0  0  0  0
  -17.7980    0.3470  -29.5210 C   0  0  0  0  0  0  0  0  0  0  0  0
  -19.3240   -2.8390  -27.2160 N   0  0  1  0  0  0  0  0  0  0  0  0
  -19.0660   -2.8390  -25.9200 N   0  0  0  0  0  0  0  0  0  0  0  0
  -19.2480   -4.0090  -25.3860 N   0  0  0  0  0  0  0  0  0  0  0  0
  -19.6410   -4.8330  -26.3410 C   0  0  0  0  0  0  0  0  0  0  0  0
  -19.6900   -4.1020  -27.4900 N   0  0  0  0  0  0  0  0  0  0  0  0
  -15.3420    4.3730  -22.1050 H   0  0  0  0  0  0  0  0  0  0  0  0
  -17.8010    0.9610  -21.5210 H   0  0  0  0  0  0  0  0  0  0  0  0
  -16.0790    2.7750  -25.5480 H   0  0  0  0  0  0  0  0  0  0  0  0
  -14.8580    3.8670  -24.8370 H   0  0  0  0  0  0  0  0  0  0  0  0
  -16.1260    5.6500  -25.2640 H   0  0  0  0  0  0  0  0  0  0  0  0
  -17.3870    5.0730  -23.2200 H   0  0  0  0  0  0  0  0  0  0  0  0
  -18.2900    6.0360  -24.3960 H   0  0  0  0  0  0  0  0  0  0  0  0
  -18.6260    4.2280  -24.1780 H   0  0  0  0  0  0  0  0  0  0  0  0
  -19.3800    4.7310  -26.3870 H   0  0  0  0  0  0  0  0  0  0  0  0
  -19.8440    3.1980  -28.2760 H   0  0  0  0  0  0  0  0  0  0  0  0
  -17.8700   -0.6720  -26.8860 H   0  0  0  0  0  0  0  0  0  0  0  0
  -19.6730   -0.2880  -26.7320 H   0  0  0  0  0  0  0  0  0  0  0  0
  -21.0500   -2.3750  -29.2540 H   0  0  0  0  0  0  0  0  0  0  0  0
  -21.2600   -1.2000  -27.8530 H   0  0  0  0  0  0  0  0  0  0  0  0
  -21.6180   -0.1010  -30.0420 H   0  0  0  0  0  0  0  0  0  0  0  0
  -20.1450    1.7770  -29.6280 H   0  0  0  0  0  0  0  0  0  0  0  0
  -20.7970    1.0770  -28.0710 H   0  0  0  0  0  0  0  0  0  0  0  0
  -20.0420   -1.5740  -31.2850 H   0  0  0  0  0  0  0  0  0  0  0  0
  -19.6850    0.2140  -31.5100 H   0  0  0  0  0  0  0  0  0  0  0  0
  -17.6170   -1.0680  -31.1180 H   0  0  0  0  0  0  0  0  0  0  0  0
  -17.3340   -2.3600  -29.0060 H   0  0  0  0  0  0  0  0  0  0  0  0
  -18.8310   -2.9110  -29.8970 H   0  0  0  0  0  0  0  0  0  0  0  0
  -17.8120    1.2030  -30.2000 H   0  0  0  0  0  0  0  0  0  0  0  0
  -16.7980    0.1160  -29.1110 H   0  0  0  0  0  0  0  0  0  0  0  0
  -19.8730   -5.8800  -26.2150 H   0  0  0  0  0  0  0  0  0  0  0  0
  2  1  1  0  0  0  0
  3 31  1  0  0  0  0
  3  2  2  0  0  0  0
  4  5  1  0  0  0  0
  4  3  1  0  0  0  0
  5  6  2  0  0  0  0
  6 32  1  0  0  0  0
  6  2  1  0  0  0  0
  7  4  1  0  0  0  0
  8 35  1  6  0  0  0
  8  7  1  0  0  0  0
  8  9  1  0  0  0  0
  9 38  1  0  0  0  0
  9 36  1  0  0  0  0
 10  8  1  0  0  0  0
 11 10  2  0  0  0  0
 12 10  1  0  0  0  0
 12 39  1  0  0  0  0
 13 14  1  0  0  0  0
 13 12  1  0  0  0  0
 14 15  2  0  0  0  0
 16 14  1  1  0  0  0
 16 17  1  0  0  0  0
 17 41  1  0  0  0  0
 17 42  1  0  0  0  0
 18 24  1  6  0  0  0
 18 17  1  0  0  0  0
 18 26  1  0  0  0  0
 19 18  1  0  0  0  0
 19 44  1  0  0  0  0
 20 45  1  6  0  0  0
 20 21  1  0  0  0  0
 20 19  1  0  0  0  0
 21 16  1  0  0  0  0
 21 47  1  0  0  0  0
 22 23  1  0  0  0  0
 22 20  1  0  0  0  0
 23 50  1  6  0  0  0
 23 25  1  0  0  0  0
 23 24  1  0  0  0  0
 24 51  1  0  0  0  0
 25 54  1  0  0  0  0
 25 16  1  0  0  0  0
 26 30  1  1  0  0  0
 26 27  1  0  0  0  0
 27 28  1  0  0  0  0
 29 55  1  0  0  0  0
 29 28  2  0  0  0  0
 30 29  1  0  0  0  0
 33  7  1  0  0  0  0
 34  7  1  0  0  0  0
 37  9  1  0  0  0  0
 40 13  1  0  0  0  0
 43 19  1  0  0  0  0
 46 21  1  0  0  0  0
 48 22  1  0  0  0  0
 49 22  1  0  0  0  0
 52 24  1  0  0  0  0
 53 25  1  0  0  0  0
M  END
>  <Pose>
1

>  <Score>
-5.42

$$$$
