
 OpenBabel03222201593D

 58 61  0  0  1  0  0  0  0  0999 V2000
  -17.5170    4.5850  -23.0560 Cl  0  0  0  0  0  0  0  0  0  0  0  0
  -17.6430    3.2100  -24.1790 C   0  0  0  0  0  0  0  0  0  0  0  0
  -17.5360    3.4050  -25.5360 C   0  0  0  0  0  0  0  0  0  0  0  0
  -17.6520    2.3140  -26.4100 C   0  0  0  0  0  0  0  0  0  0  0  0
  -17.8710    1.0250  -25.9460 C   0  0  0  0  0  0  0  0  0  0  0  0
  -17.9690    0.8600  -24.6020 C   0  0  0  0  0  0  0  0  0  0  0  0
  -17.8620    1.9240  -23.7150 C   0  0  0  0  0  0  0  0  0  0  0  0
  -18.0070   -0.0280  -26.9780 C   0  0  1  0  0  0  0  0  0  0  0  0
  -18.5060   -1.3130  -26.4650 C   0  0  0  0  0  0  0  0  0  0  0  0
  -19.4010   -2.1230  -27.3690 C   0  0  0  0  0  0  0  0  0  0  0  0
  -19.5420   -1.6330  -28.7010 N   0  0  0  0  0  0  0  0  0  0  0  0
  -19.7970   -0.1810  -28.7830 C   0  0  0  0  0  0  0  0  0  0  0  0
  -18.8070    0.6120  -28.0850 C   0  0  0  0  0  0  0  0  0  0  0  0
  -19.7350   -2.4070  -29.8700 C   0  0  0  0  0  0  0  0  0  0  0  0
  -20.1520   -3.5610  -29.8070 O   0  0  0  0  0  0  0  0  0  0  0  0
  -19.4300   -1.8140  -31.2390 C   0  0  1  0  0  0  0  0  0  0  0  0
  -20.5740   -1.0660  -31.7040 N   0  0  0  0  0  0  0  0  0  0  0  0
  -20.6470   -0.3830  -32.9170 C   0  0  0  0  0  0  0  0  0  0  0  0
  -21.4920    0.7000  -32.7820 O   0  0  0  0  0  0  0  0  0  0  0  0
  -20.1180   -0.4400  -34.1980 C   0  0  0  0  0  0  0  0  0  0  0  0
  -19.9390    0.1040  -35.3640 C   0  0  0  0  0  0  0  0  0  0  0  0
  -19.1530   -0.6150  -36.3760 N   0  0  0  0  0  0  0  0  0  0  0  0
  -18.9870   -0.1610  -37.6700 N   0  0  0  0  0  0  0  0  0  0  0  0
  -19.5550    1.0220  -38.1150 C   0  0  0  0  0  0  0  0  0  0  0  0
  -19.4250    1.4750  -39.2800 O   0  0  0  0  0  0  0  0  0  0  0  0
  -20.3680    1.8190  -37.1650 C   0  0  0  0  0  0  0  0  0  0  0  0
  -20.5110    1.3290  -35.8880 C   0  0  0  0  0  0  0  0  0  0  0  0
  -21.3670    2.0620  -35.0590 C   0  0  0  0  0  0  0  0  0  0  0  0
  -22.0060    3.2060  -35.5140 C   0  0  0  0  0  0  0  0  0  0  0  0
  -21.8250    3.6630  -36.7940 C   0  0  0  0  0  0  0  0  0  0  0  0
  -20.9930    2.9500  -37.6300 C   0  0  0  0  0  0  0  0  0  0  0  0
  -18.0820   -1.4160  -31.5210 C   0  0  0  0  0  0  0  0  0  0  0  0
  -16.6950   -0.2660  -27.4880 O   0  0  0  0  0  0  0  0  0  0  0  0
  -17.3580    4.4110  -25.9130 H   0  0  0  0  0  0  0  0  0  0  0  0
  -17.5480    2.5150  -27.4660 H   0  0  0  0  0  0  0  0  0  0  0  0
  -18.1300   -0.1110  -24.1500 H   0  0  0  0  0  0  0  0  0  0  0  0
  -17.9430    1.8070  -22.6540 H   0  0  0  0  0  0  0  0  0  0  0  0
  -19.0230   -1.2510  -25.4700 H   0  0  0  0  0  0  0  0  0  0  0  0
  -17.6030   -1.9750  -26.2600 H   0  0  0  0  0  0  0  0  0  0  0  0
  -20.4700   -2.0280  -26.9370 H   0  0  0  0  0  0  0  0  0  0  0  0
  -19.2410   -3.2160  -27.3090 H   0  0  0  0  0  0  0  0  0  0  0  0
  -20.7900   -0.1030  -28.1710 H   0  0  0  0  0  0  0  0  0  0  0  0
  -20.0330    0.1590  -29.7840 H   0  0  0  0  0  0  0  0  0  0  0  0
  -18.1060    1.0850  -28.8000 H   0  0  0  0  0  0  0  0  0  0  0  0
  -19.3630    1.5300  -27.6640 H   0  0  0  0  0  0  0  0  0  0  0  0
  -19.5820   -2.8120  -31.8960 H   0  0  0  0  0  0  0  0  0  0  0  0
  -21.3440   -1.0530  -30.9540 H   0  0  0  0  0  0  0  0  0  0  0  0
  -19.5370   -1.5020  -34.2910 H   0  0  0  0  0  0  0  0  0  0  0  0
  -18.7150   -1.5200  -36.0530 H   0  0  0  0  0  0  0  0  0  0  0  0
  -18.4070   -0.7310  -38.3450 H   0  0  0  0  0  0  0  0  0  0  0  0
  -21.5580    1.7070  -34.1030 H   0  0  0  0  0  0  0  0  0  0  0  0
  -22.6680    3.7660  -34.8300 H   0  0  0  0  0  0  0  0  0  0  0  0
  -22.3550    4.5520  -37.0880 H   0  0  0  0  0  0  0  0  0  0  0  0
  -20.8200    3.2640  -38.6500 H   0  0  0  0  0  0  0  0  0  0  0  0
  -17.9120   -0.3400  -31.7550 H   0  0  0  0  0  0  0  0  0  0  0  0
  -17.6350   -1.9480  -32.4320 H   0  0  0  0  0  0  0  0  0  0  0  0
  -17.3600   -1.7410  -30.7160 H   0  0  0  0  0  0  0  0  0  0  0  0
  -16.0590   -0.4290  -26.7720 H   0  0  0  0  0  0  0  0  0  0  0  0
  2  7  1  0  0  0  0
  2  1  1  0  0  0  0
  3  2  2  0  0  0  0
  4  5  2  0  0  0  0
  4  3  1  0  0  0  0
  5  6  1  0  0  0  0
  6 36  1  0  0  0  0
  6  7  2  0  0  0  0
  7 37  1  0  0  0  0
  8 33  1  6  0  0  0
  8  9  1  0  0  0  0
  8  5  1  0  0  0  0
  9 39  1  0  0  0  0
  9 38  1  0  0  0  0
 10 41  1  0  0  0  0
 10 40  1  0  0  0  0
 10  9  1  0  0  0  0
 11 10  1  0  0  0  0
 12 11  1  0  0  0  0
 12 42  1  0  0  0  0
 12 13  1  0  0  0  0
 13 45  1  0  0  0  0
 13  8  1  0  0  0  0
 14 15  2  0  0  0  0
 14 11  1  0  0  0  0
 16 46  1  6  0  0  0
 16 14  1  0  0  0  0
 17 16  1  0  0  0  0
 17 47  1  0  0  0  0
 18 19  2  0  0  0  0
 18 17  1  0  0  0  0
 20 18  1  0  0  0  0
 21 20  2  0  0  0  0
 22 49  1  0  0  0  0
 22 21  1  0  0  0  0
 23 22  1  0  0  0  0
 24 23  1  0  0  0  0
 24 26  1  0  0  0  0
 25 24  2  0  0  0  0
 26 27  1  0  0  0  0
 27 21  1  0  0  0  0
 27 28  2  0  0  0  0
 28 51  1  0  0  0  0
 29 28  1  0  0  0  0
 29 52  1  0  0  0  0
 30 29  2  0  0  0  0
 31 26  2  0  0  0  0
 31 30  1  0  0  0  0
 32 16  1  0  0  0  0
 32 57  1  0  0  0  0
 33 58  1  0  0  0  0
 34  3  1  0  0  0  0
 35  4  1  0  0  0  0
 43 12  1  0  0  0  0
 44 13  1  0  0  0  0
 48 20  1  0  0  0  0
 50 23  1  0  0  0  0
 53 30  1  0  0  0  0
 54 31  1  0  0  0  0
 55 32  1  0  0  0  0
 56 32  1  0  0  0  0
M  END
>  <Pose>
1

>  <Score>
-7.78

$$$$
