
 OpenBabel03222201593D

 58 61  0  0  0  0  0  0  0  0999 V2000
  -18.5350   -2.5760  -25.5380 Cl  0  0  0  0  0  0  0  0  0  0  0  0
  -18.5210   -1.1820  -26.5890 C   0  0  0  0  0  0  0  0  0  0  0  0
  -18.8250   -1.3720  -27.9200 C   0  0  0  0  0  0  0  0  0  0  0  0
  -18.8080   -0.1980  -28.6860 C   0  0  0  0  0  0  0  0  0  0  0  0
  -18.5160    0.9960  -28.1370 N   0  0  0  0  0  0  0  0  0  0  0  0
  -18.2250    1.1850  -26.8680 N   0  0  0  0  0  0  0  0  0  0  0  0
  -18.2280    0.0920  -26.0950 C   0  0  0  0  0  0  0  0  0  0  0  0
  -17.9610    0.1850  -24.8700 O   0  0  0  0  0  0  0  0  0  0  0  0
  -17.9280    2.4860  -26.3700 C   0  0  0  0  0  0  0  0  0  0  0  0
  -18.8430    3.5250  -26.4320 C   0  0  0  0  0  0  0  0  0  0  0  0
  -18.5710    4.7910  -25.9550 C   0  0  0  0  0  0  0  0  0  0  0  0
  -17.3330    5.0240  -25.3940 C   0  0  0  0  0  0  0  0  0  0  0  0
  -16.3960    4.0100  -25.3170 C   0  0  0  0  0  0  0  0  0  0  0  0
  -16.7010    2.7360  -25.8100 C   0  0  0  0  0  0  0  0  0  0  0  0
  -19.0950   -2.6300  -28.4900 N   0  0  0  0  0  0  0  0  0  0  0  0
  -20.3760   -3.2860  -28.2430 C   0  0  0  0  0  0  0  0  0  0  0  0
  -21.1180   -3.5830  -29.5260 C   0  0  0  0  0  0  0  0  0  0  0  0
  -20.1680   -3.5240  -30.6110 N   0  0  0  0  0  0  0  0  0  0  0  0
  -18.8940   -4.1760  -30.3710 C   0  0  0  0  0  0  0  0  0  0  0  0
  -18.1330   -3.3040  -29.3730 C   0  0  0  0  0  0  0  0  0  0  0  0
  -20.4130   -2.8870  -31.8460 C   0  0  0  0  0  0  0  0  0  0  0  0
  -19.5400   -2.1290  -32.3220 O   0  0  0  0  0  0  0  0  0  0  0  0
  -21.6640   -3.0670  -32.6220 C   0  0  0  0  0  0  0  0  0  0  0  0
  -21.6830   -2.1560  -33.8280 C   0  0  0  0  0  0  0  0  0  0  0  0
  -23.0580   -1.6480  -34.1410 C   0  0  0  0  0  0  0  0  0  0  0  0
  -23.1500   -0.9400  -35.3990 N   0  0  0  0  0  0  0  0  0  0  0  0
  -23.2600   -1.5280  -36.6820 C   0  0  0  0  0  0  0  0  0  0  0  0
  -23.2950   -2.7780  -36.9440 O   0  0  0  0  0  0  0  0  0  0  0  0
  -23.3330   -0.5470  -37.6930 N   0  0  0  0  0  0  0  0  0  0  0  0
  -23.2550    0.7540  -37.0670 C   0  0  0  0  0  0  0  0  0  0  0  0
  -23.1530    0.4750  -35.6170 C   0  0  0  0  0  0  0  0  0  0  0  0
  -23.0800    1.3330  -34.7130 O   0  0  0  0  0  0  0  0  0  0  0  0
  -23.4630   -0.7840  -39.1160 C   0  0  0  0  0  0  0  0  0  0  0  0
  -19.0290   -0.3130  -29.7310 H   0  0  0  0  0  0  0  0  0  0  0  0
  -19.8100    3.3260  -26.8750 H   0  0  0  0  0  0  0  0  0  0  0  0
  -19.3120    5.6020  -26.0130 H   0  0  0  0  0  0  0  0  0  0  0  0
  -17.1280    6.0180  -25.0220 H   0  0  0  0  0  0  0  0  0  0  0  0
  -15.4410    4.2310  -24.8710 H   0  0  0  0  0  0  0  0  0  0  0  0
  -15.9780    1.9340  -25.7550 H   0  0  0  0  0  0  0  0  0  0  0  0
  -20.0800   -4.2710  -27.7510 H   0  0  0  0  0  0  0  0  0  0  0  0
  -21.0670   -2.7300  -27.6040 H   0  0  0  0  0  0  0  0  0  0  0  0
  -21.9430   -2.8630  -29.6970 H   0  0  0  0  0  0  0  0  0  0  0  0
  -21.5720   -4.6110  -29.4360 H   0  0  0  0  0  0  0  0  0  0  0  0
  -19.0870   -5.1560  -29.8910 H   0  0  0  0  0  0  0  0  0  0  0  0
  -18.3140   -4.3430  -31.2980 H   0  0  0  0  0  0  0  0  0  0  0  0
  -17.6790   -2.5250  -30.0000 H   0  0  0  0  0  0  0  0  0  0  0  0
  -17.5010   -3.9300  -28.7730 H   0  0  0  0  0  0  0  0  0  0  0  0
  -21.7750   -4.1140  -32.9720 H   0  0  0  0  0  0  0  0  0  0  0  0
  -22.5610   -2.8700  -31.9850 H   0  0  0  0  0  0  0  0  0  0  0  0
  -21.3160   -2.6920  -34.7220 H   0  0  0  0  0  0  0  0  0  0  0  0
  -20.9930   -1.2910  -33.6690 H   0  0  0  0  0  0  0  0  0  0  0  0
  -23.4140   -0.9580  -33.3310 H   0  0  0  0  0  0  0  0  0  0  0  0
  -23.8140   -2.4580  -34.1850 H   0  0  0  0  0  0  0  0  0  0  0  0
  -24.1710    1.3670  -37.2840 H   0  0  0  0  0  0  0  0  0  0  0  0
  -22.4000    1.3560  -37.4290 H   0  0  0  0  0  0  0  0  0  0  0  0
  -24.5340   -1.0060  -39.3340 H   0  0  0  0  0  0  0  0  0  0  0  0
  -22.9180   -1.7380  -39.3700 H   0  0  0  0  0  0  0  0  0  0  0  0
  -23.0900    0.0730  -39.6930 H   0  0  0  0  0  0  0  0  0  0  0  0
  2  7  1  0  0  0  0
  2  1  1  0  0  0  0
  3  2  2  0  0  0  0
  4  5  2  0  0  0  0
  4  3  1  0  0  0  0
  5  6  1  0  0  0  0
  6  9  1  0  0  0  0
  6  7  1  0  0  0  0
  7  8  2  0  0  0  0
  9 14  1  0  0  0  0
 10  9  2  0  0  0  0
 10 11  1  0  0  0  0
 11 12  2  0  0  0  0
 12 13  1  0  0  0  0
 12 37  1  0  0  0  0
 13 38  1  0  0  0  0
 14 39  1  0  0  0  0
 14 13  2  0  0  0  0
 15 16  1  0  0  0  0
 15  3  1  0  0  0  0
 16 40  1  0  0  0  0
 16 41  1  0  0  0  0
 17 43  1  0  0  0  0
 17 16  1  0  0  0  0
 18 19  1  0  0  0  0
 18 17  1  0  0  0  0
 19 44  1  0  0  0  0
 19 20  1  0  0  0  0
 20 47  1  0  0  0  0
 20 15  1  0  0  0  0
 21 18  1  0  0  0  0
 22 21  2  0  0  0  0
 23 49  1  0  0  0  0
 23 21  1  0  0  0  0
 24 51  1  0  0  0  0
 24 23  1  0  0  0  0
 25 24  1  0  0  0  0
 25 52  1  0  0  0  0
 26 25  1  0  0  0  0
 27 26  1  0  0  0  0
 28 27  2  0  0  0  0
 29 30  1  0  0  0  0
 29 27  1  0  0  0  0
 30 31  1  0  0  0  0
 31 26  1  0  0  0  0
 31 32  2  0  0  0  0
 33 29  1  0  0  0  0
 34  4  1  0  0  0  0
 35 10  1  0  0  0  0
 36 11  1  0  0  0  0
 42 17  1  0  0  0  0
 45 19  1  0  0  0  0
 46 20  1  0  0  0  0
 48 23  1  0  0  0  0
 50 24  1  0  0  0  0
 53 25  1  0  0  0  0
 54 30  1  0  0  0  0
 55 30  1  0  0  0  0
 56 33  1  0  0  0  0
 57 33  1  0  0  0  0
 58 33  1  0  0  0  0
M  END
>  <Pose>
1

>  <Score>
-6.78

$$$$
