
 OpenBabel03222201593D

 50 53  0  0  0  0  0  0  0  0999 V2000
  -22.2550   -1.8760  -33.5850 Cl  0  0  0  0  0  0  0  0  0  0  0  0
  -21.2450   -1.1720  -34.8270 C   0  0  0  0  0  0  0  0  0  0  0  0
  -19.9500   -0.8110  -34.5130 C   0  0  0  0  0  0  0  0  0  0  0  0
  -19.2060   -0.2590  -35.5400 C   0  0  0  0  0  0  0  0  0  0  0  0
  -19.7140   -0.0820  -36.7740 N   0  0  0  0  0  0  0  0  0  0  0  0
  -20.9530   -0.4230  -37.0930 N   0  0  0  0  0  0  0  0  0  0  0  0
  -21.7060   -0.9630  -36.1180 C   0  0  0  0  0  0  0  0  0  0  0  0
  -22.8760   -1.2880  -36.4100 O   0  0  0  0  0  0  0  0  0  0  0  0
  -21.4840   -0.2330  -38.4070 C   0  0  0  0  0  0  0  0  0  0  0  0
  -22.3540    0.8050  -38.6750 C   0  0  0  0  0  0  0  0  0  0  0  0
  -22.8710    0.9950  -39.9410 C   0  0  0  0  0  0  0  0  0  0  0  0
  -22.5470    0.1630  -40.9920 C   0  0  0  0  0  0  0  0  0  0  0  0
  -21.6780   -0.8760  -40.7310 C   0  0  0  0  0  0  0  0  0  0  0  0
  -21.1650   -1.0610  -39.4670 C   0  0  0  0  0  0  0  0  0  0  0  0
  -19.4000   -0.9940  -33.2070 N   0  0  0  0  0  0  0  0  0  0  0  0
  -19.8280   -2.1290  -32.4380 C   0  0  0  0  0  0  0  0  0  0  0  0
  -19.9730   -1.7840  -30.9730 C   0  0  0  0  0  0  0  0  0  0  0  0
  -19.0020   -0.8070  -30.5500 N   0  0  0  0  0  0  0  0  0  0  0  0
  -17.8850   -0.5200  -31.4180 C   0  0  0  0  0  0  0  0  0  0  0  0
  -18.4380   -0.0210  -32.7280 C   0  0  0  0  0  0  0  0  0  0  0  0
  -19.1500   -0.1460  -29.3050 C   0  0  0  0  0  0  0  0  0  0  0  0
  -19.6410    1.0260  -29.2300 O   0  0  0  0  0  0  0  0  0  0  0  0
  -18.7450   -0.7720  -28.0190 C   0  0  0  0  0  0  0  0  0  0  0  0
  -19.8140   -1.4310  -27.3970 O   0  0  0  0  0  0  0  0  0  0  0  0
  -19.6580   -2.7110  -26.9010 C   0  0  0  0  0  0  0  0  0  0  0  0
  -19.1940   -3.1200  -25.7150 N   0  0  0  0  0  0  0  0  0  0  0  0
  -19.2110   -4.4110  -25.6470 O   0  0  0  0  0  0  0  0  0  0  0  0
  -19.6770   -4.9450  -26.7570 C   0  0  0  0  0  0  0  0  0  0  0  0
  -19.9730   -3.8780  -27.5820 C   0  0  0  0  0  0  0  0  0  0  0  0
  -19.8150   -6.3960  -26.9730 C   0  0  0  0  0  0  0  0  0  0  0  0
  -18.1730    0.0340  -35.3010 H   0  0  0  0  0  0  0  0  0  0  0  0
  -22.6270    1.4730  -37.8710 H   0  0  0  0  0  0  0  0  0  0  0  0
  -23.5540    1.8070  -40.1520 H   0  0  0  0  0  0  0  0  0  0  0  0
  -22.9600    0.3230  -41.9850 H   0  0  0  0  0  0  0  0  0  0  0  0
  -21.4380   -1.5160  -41.5750 H   0  0  0  0  0  0  0  0  0  0  0  0
  -20.4910   -1.8840  -39.3060 H   0  0  0  0  0  0  0  0  0  0  0  0
  -20.7990   -2.5270  -32.7880 H   0  0  0  0  0  0  0  0  0  0  0  0
  -19.0720   -2.9380  -32.6020 H   0  0  0  0  0  0  0  0  0  0  0  0
  -21.0050   -1.5150  -30.7390 H   0  0  0  0  0  0  0  0  0  0  0  0
  -19.7530   -2.7210  -30.3980 H   0  0  0  0  0  0  0  0  0  0  0  0
  -17.3880   -1.5030  -31.6450 H   0  0  0  0  0  0  0  0  0  0  0  0
  -17.1560    0.1740  -30.9660 H   0  0  0  0  0  0  0  0  0  0  0  0
  -18.9090    0.9820  -32.6170 H   0  0  0  0  0  0  0  0  0  0  0  0
  -17.5750    0.0260  -33.4530 H   0  0  0  0  0  0  0  0  0  0  0  0
  -18.2610   -0.0460  -27.3370 H   0  0  0  0  0  0  0  0  0  0  0  0
  -17.9640   -1.5610  -28.2240 H   0  0  0  0  0  0  0  0  0  0  0  0
  -20.3780   -3.9750  -28.5760 H   0  0  0  0  0  0  0  0  0  0  0  0
  -20.0050   -6.6520  -28.0280 H   0  0  0  0  0  0  0  0  0  0  0  0
  -20.6610   -6.8250  -26.3600 H   0  0  0  0  0  0  0  0  0  0  0  0
  -18.8760   -6.9100  -26.6080 H   0  0  0  0  0  0  0  0  0  0  0  0
  2  3  2  0  0  0  0
  2  1  1  0  0  0  0
  3 15  1  0  0  0  0
  4 31  1  0  0  0  0
  4  3  1  0  0  0  0
  5  4  2  0  0  0  0
  6  5  1  0  0  0  0
  6  7  1  0  0  0  0
  7  2  1  0  0  0  0
  8  7  2  0  0  0  0
  9  6  1  0  0  0  0
 10  9  1  0  0  0  0
 10 32  1  0  0  0  0
 11 10  2  0  0  0  0
 12 13  2  0  0  0  0
 12 11  1  0  0  0  0
 13 14  1  0  0  0  0
 14 36  1  0  0  0  0
 14  9  2  0  0  0  0
 15 20  1  0  0  0  0
 15 16  1  0  0  0  0
 16 17  1  0  0  0  0
 17 39  1  0  0  0  0
 17 18  1  0  0  0  0
 17 40  1  0  0  0  0
 18 21  1  0  0  0  0
 19 42  1  0  0  0  0
 19 18  1  0  0  0  0
 20 43  1  0  0  0  0
 20 19  1  0  0  0  0
 21 22  2  0  0  0  0
 21 23  1  0  0  0  0
 23 24  1  0  0  0  0
 23 45  1  0  0  0  0
 24 25  1  0  0  0  0
 25 26  2  0  0  0  0
 26 27  1  0  0  0  0
 28 27  1  0  0  0  0
 29 25  1  0  0  0  0
 29 28  2  0  0  0  0
 30 28  1  0  0  0  0
 30 50  1  0  0  0  0
 30 49  1  0  0  0  0
 33 11  1  0  0  0  0
 34 12  1  0  0  0  0
 35 13  1  0  0  0  0
 37 16  1  0  0  0  0
 38 16  1  0  0  0  0
 41 19  1  0  0  0  0
 44 20  1  0  0  0  0
 46 23  1  0  0  0  0
 47 29  1  0  0  0  0
 48 30  1  0  0  0  0
M  END
>  <Pose>
1

>  <Score>
-5.82

$$$$
