
 OpenBabel03222201593D

 53 56  0  0  0  0  0  0  0  0999 V2000
  -18.0990    3.0750  -27.2510 Cl  0  0  0  0  0  0  0  0  0  0  0  0
  -18.4550    1.3690  -27.4990 C   0  0  0  0  0  0  0  0  0  0  0  0
  -19.3710    1.0510  -28.4990 C   0  0  0  0  0  0  0  0  0  0  0  0
  -19.6600   -0.2790  -28.7060 C   0  0  0  0  0  0  0  0  0  0  0  0
  -19.0490   -1.2580  -27.9330 C   0  0  0  0  0  0  0  0  0  0  0  0
  -18.1370   -0.9320  -26.9370 C   0  0  0  0  0  0  0  0  0  0  0  0
  -17.8470    0.4050  -26.7300 C   0  0  0  0  0  0  0  0  0  0  0  0
  -19.2880   -2.6140  -28.0800 O   0  0  0  0  0  0  0  0  0  0  0  0
  -20.4310   -3.2810  -28.5360 C   0  0  0  0  0  0  0  0  0  0  0  0
  -20.8600   -2.9710  -29.9240 C   0  0  0  0  0  0  0  0  0  0  0  0
  -20.4390   -1.7180  -30.4610 N   0  0  0  0  0  0  0  0  0  0  0  0
  -20.6500   -0.4190  -29.8070 C   0  0  0  0  0  0  0  0  0  0  0  0
  -19.7750   -1.6980  -31.7190 C   0  0  0  0  0  0  0  0  0  0  0  0
  -19.7050   -2.7840  -32.3390 O   0  0  0  0  0  0  0  0  0  0  0  0
  -19.2000   -0.4860  -32.2810 C   0  0  0  0  0  0  0  0  0  0  0  0
  -20.1100    0.5080  -32.8780 C   0  0  0  0  0  0  0  0  0  0  0  0
  -20.8610    0.1750  -34.0990 C   0  0  0  0  0  0  0  0  0  0  0  0
  -22.2760    0.1620  -34.0900 N   0  0  0  0  0  0  0  0  0  0  0  0
  -23.1120    1.3030  -34.0300 C   0  0  0  0  0  0  0  0  0  0  0  0
  -22.7770    2.5240  -33.9820 O   0  0  0  0  0  0  0  0  0  0  0  0
  -24.4510    0.8410  -34.0350 N   0  0  0  0  0  0  0  0  0  0  0  0
  -24.4630   -0.5530  -34.4730 C   0  0  0  0  0  0  0  0  0  0  0  0
  -23.0940   -0.9920  -34.1310 C   0  0  0  0  0  0  0  0  0  0  0  0
  -22.7410   -2.2060  -33.9150 O   0  0  0  0  0  0  0  0  0  0  0  0
  -20.1710   -4.7960  -28.4280 C   0  0  0  0  0  0  0  0  0  0  0  0
  -19.6700   -5.0420  -27.0310 C   0  0  0  0  0  0  0  0  0  0  0  0
  -19.7240   -3.9090  -26.2380 O   0  0  0  0  0  0  0  0  0  0  0  0
  -20.9960   -3.3690  -26.1620 C   0  0  0  0  0  0  0  0  0  0  0  0
  -21.5660   -3.0480  -27.5260 C   0  0  0  0  0  0  0  0  0  0  0  0
  -19.8190    1.8420  -29.0730 H   0  0  0  0  0  0  0  0  0  0  0  0
  -17.6890   -1.7070  -26.3640 H   0  0  0  0  0  0  0  0  0  0  0  0
  -17.1330    0.6920  -25.9550 H   0  0  0  0  0  0  0  0  0  0  0  0
  -21.9910   -2.9510  -29.9250 H   0  0  0  0  0  0  0  0  0  0  0  0
  -20.6160   -3.8280  -30.6130 H   0  0  0  0  0  0  0  0  0  0  0  0
  -20.6500    0.4180  -30.5020 H   0  0  0  0  0  0  0  0  0  0  0  0
  -21.6570   -0.4060  -29.3110 H   0  0  0  0  0  0  0  0  0  0  0  0
  -18.3890   -0.6860  -33.0260 H   0  0  0  0  0  0  0  0  0  0  0  0
  -18.6460    0.0380  -31.4430 H   0  0  0  0  0  0  0  0  0  0  0  0
  -19.4680    1.4150  -33.1380 H   0  0  0  0  0  0  0  0  0  0  0  0
  -20.7890    0.9550  -32.0760 H   0  0  0  0  0  0  0  0  0  0  0  0
  -20.4600    0.8770  -34.9110 H   0  0  0  0  0  0  0  0  0  0  0  0
  -20.5430   -0.8350  -34.5290 H   0  0  0  0  0  0  0  0  0  0  0  0
  -25.3080    1.3690  -33.7770 H   0  0  0  0  0  0  0  0  0  0  0  0
  -24.5760   -0.6190  -35.5700 H   0  0  0  0  0  0  0  0  0  0  0  0
  -25.2280   -1.1390  -33.9240 H   0  0  0  0  0  0  0  0  0  0  0  0
  -19.4880   -5.1370  -29.2090 H   0  0  0  0  0  0  0  0  0  0  0  0
  -21.1680   -5.2700  -28.5540 H   0  0  0  0  0  0  0  0  0  0  0  0
  -20.2110   -5.8770  -26.5240 H   0  0  0  0  0  0  0  0  0  0  0  0
  -18.6090   -5.3560  -27.1050 H   0  0  0  0  0  0  0  0  0  0  0  0
  -21.7000   -3.9820  -25.5560 H   0  0  0  0  0  0  0  0  0  0  0  0
  -20.8960   -2.3940  -25.6040 H   0  0  0  0  0  0  0  0  0  0  0  0
  -22.3530   -3.8180  -27.7330 H   0  0  0  0  0  0  0  0  0  0  0  0
  -21.9800   -2.0420  -27.5910 H   0  0  0  0  0  0  0  0  0  0  0  0
  2  1  1  0  0  0  0
  2  7  1  0  0  0  0
  3  2  2  0  0  0  0
  4  3  1  0  0  0  0
  4  5  2  0  0  0  0
  5  6  1  0  0  0  0
  6  7  2  0  0  0  0
  6 31  1  0  0  0  0
  7 32  1  0  0  0  0
  8  5  1  0  0  0  0
  9 25  1  0  0  0  0
  9  8  1  0  0  0  0
  9 29  1  0  0  0  0
 10  9  1  0  0  0  0
 11 10  1  0  0  0  0
 11 12  1  0  0  0  0
 12 36  1  0  0  0  0
 12  4  1  0  0  0  0
 13 11  1  0  0  0  0
 14 13  2  0  0  0  0
 15 13  1  0  0  0  0
 15 38  1  0  0  0  0
 16 15  1  0  0  0  0
 16 40  1  0  0  0  0
 17 18  1  0  0  0  0
 17 16  1  0  0  0  0
 18 19  1  0  0  0  0
 19 20  2  0  0  0  0
 21 19  1  0  0  0  0
 21 43  1  0  0  0  0
 22 23  1  0  0  0  0
 22 21  1  0  0  0  0
 22 45  1  0  0  0  0
 23 18  1  0  0  0  0
 23 24  2  0  0  0  0
 25 26  1  0  0  0  0
 26 48  1  0  0  0  0
 26 27  1  0  0  0  0
 27 28  1  0  0  0  0
 28 51  1  0  0  0  0
 28 50  1  0  0  0  0
 29 28  1  0  0  0  0
 30  3  1  0  0  0  0
 33 10  1  0  0  0  0
 34 10  1  0  0  0  0
 35 12  1  0  0  0  0
 37 15  1  0  0  0  0
 39 16  1  0  0  0  0
 41 17  1  0  0  0  0
 42 17  1  0  0  0  0
 44 22  1  0  0  0  0
 46 25  1  0  0  0  0
 47 25  1  0  0  0  0
 49 26  1  0  0  0  0
 52 29  1  0  0  0  0
 53 29  1  0  0  0  0
M  END
>  <Pose>
1

>  <Score>
-6.38

$$$$
