
 OpenBabel03222201593D

 39 42  0  0  0  0  0  0  0  0999 V2000
  -24.1700    0.0310  -37.8210 B   0  0  0  0  0  0  0  0  0  0  0  0
  -23.4010    0.1150  -36.0790 C   0  0  0  0  0  0  0  0  0  0  0  0
  -22.0840   -0.2260  -35.9390 C   0  0  0  0  0  0  0  0  0  0  0  0
  -21.5190   -0.1740  -34.7150 N   0  0  0  0  0  0  0  0  0  0  0  0
  -22.2310    0.2070  -33.6440 C   0  0  0  0  0  0  0  0  0  0  0  0
  -21.6590    0.2600  -32.4050 N   0  0  0  0  0  0  0  0  0  0  0  0
  -20.3680   -0.0670  -32.2230 C   0  0  0  0  0  0  0  0  0  0  0  0
  -19.6570   -0.4540  -33.3320 C   0  0  0  0  0  0  0  0  0  0  0  0
  -20.2040   -0.5180  -34.5950 C   0  0  0  0  0  0  0  0  0  0  0  0
  -19.5820   -0.8640  -35.6110 O   0  0  0  0  0  0  0  0  0  0  0  0
  -19.7880    0.0180  -30.8400 C   0  0  0  0  0  0  0  0  0  0  0  0
  -19.9310   -1.2230  -30.1060 N   0  0  0  0  0  0  0  0  0  0  0  0
  -19.6010   -1.5280  -28.8430 C   0  0  0  0  0  0  0  0  0  0  0  0
  -19.8950   -2.8570  -28.5600 C   0  0  0  0  0  0  0  0  0  0  0  0
  -20.4200   -3.3520  -29.7060 N   0  0  0  0  0  0  0  0  0  0  0  0
  -20.4430   -2.3850  -30.6260 C   0  0  0  0  0  0  0  0  0  0  0  0
  -19.6690   -3.4310  -27.3600 N   0  0  0  0  0  0  0  0  0  0  0  0
  -19.1310   -2.6410  -26.4130 C   0  0  0  0  0  0  0  0  0  0  0  0
  -18.9120   -3.1610  -25.2850 O   0  0  0  0  0  0  0  0  0  0  0  0
  -18.8290   -1.3520  -26.6340 N   0  0  0  0  0  0  0  0  0  0  0  0
  -19.0530   -0.7760  -27.8330 C   0  0  0  0  0  0  0  0  0  0  0  0
  -18.7820    0.4200  -28.0560 O   0  0  0  0  0  0  0  0  0  0  0  0
  -18.2490   -0.5030  -25.6090 C   0  0  0  0  0  0  0  0  0  0  0  0
  -19.9980   -4.8250  -27.1300 C   0  0  0  0  0  0  0  0  0  0  0  0
  -23.5660    0.5540  -33.7760 C   0  0  0  0  0  0  0  0  0  0  0  0
  -24.1690    0.5100  -35.0080 C   0  0  0  0  0  0  0  0  0  0  0  0
  -21.4720   -0.5430  -36.8010 H   0  0  0  0  0  0  0  0  0  0  0  0
  -18.6160   -0.7160  -33.2180 H   0  0  0  0  0  0  0  0  0  0  0  0
  -18.7350    0.3390  -30.9110 H   0  0  0  0  0  0  0  0  0  0  0  0
  -20.3560    0.8020  -30.3020 H   0  0  0  0  0  0  0  0  0  0  0  0
  -20.8020   -2.4520  -31.6480 H   0  0  0  0  0  0  0  0  0  0  0  0
  -17.6620    0.3250  -26.0520 H   0  0  0  0  0  0  0  0  0  0  0  0
  -19.0910   -0.1380  -24.9780 H   0  0  0  0  0  0  0  0  0  0  0  0
  -17.5820   -1.1190  -24.9470 H   0  0  0  0  0  0  0  0  0  0  0  0
  -20.9610   -4.9200  -26.5840 H   0  0  0  0  0  0  0  0  0  0  0  0
  -19.1480   -5.2820  -26.5640 H   0  0  0  0  0  0  0  0  0  0  0  0
  -20.0310   -5.3680  -28.1020 H   0  0  0  0  0  0  0  0  0  0  0  0
  -24.1180    0.8600  -32.8840 H   0  0  0  0  0  0  0  0  0  0  0  0
  -25.2260    0.7840  -35.1220 H   0  0  0  0  0  0  0  0  0  0  0  0
  1  2  1  0  0  0  0
  2  3  1  0  0  0  0
  2 26  2  0  0  0  0
  3  4  1  0  0  0  0
  4  9  1  0  0  0  0
  4  5  1  0  0  0  0
  5  6  1  0  0  0  0
  6  7  2  0  0  0  0
  7 11  1  0  0  0  0
  8 28  1  0  0  0  0
  8  7  1  0  0  0  0
  9  8  1  0  0  0  0
 10  9  2  0  0  0  0
 11 30  1  0  0  0  0
 11 12  1  0  0  0  0
 12 13  1  0  0  0  0
 13 14  2  0  0  0  0
 13 21  1  0  0  0  0
 14 17  1  0  0  0  0
 15 14  1  0  0  0  0
 16 12  1  0  0  0  0
 16 15  2  0  0  0  0
 17 24  1  0  0  0  0
 17 18  1  0  0  0  0
 18 19  2  0  0  0  0
 20 18  1  0  0  0  0
 20 23  1  0  0  0  0
 21 20  1  0  0  0  0
 22 21  2  0  0  0  0
 23 33  1  0  0  0  0
 23 34  1  0  0  0  0
 24 35  1  0  0  0  0
 24 36  1  0  0  0  0
 25  5  2  0  0  0  0
 25 38  1  0  0  0  0
 26 25  1  0  0  0  0
 27  3  1  0  0  0  0
 29 11  1  0  0  0  0
 31 16  1  0  0  0  0
 32 23  1  0  0  0  0
 37 24  1  0  0  0  0
 39 26  1  0  0  0  0
M  END
>  <Pose>
1

>  <Score>
-6.60

$$$$
