
 OpenBabel03222201593D

 58 62  0  0  1  0  0  0  0  0999 V2000
  -20.1170   -6.7360  -26.9580 B   0  0  0  0  0  0  0  0  0  0  0  0
  -19.8090   -4.8370  -27.0500 C   0  0  0  0  0  0  0  0  0  0  0  0
  -19.3000   -4.1440  -25.9940 C   0  0  0  0  0  0  0  0  0  0  0  0
  -19.0830   -2.7980  -26.0650 C   0  0  0  0  0  0  0  0  0  0  0  0
  -19.3660   -2.0690  -27.2020 C   0  0  0  0  0  0  0  0  0  0  0  0
  -19.8720   -2.7560  -28.2530 C   0  0  0  0  0  0  0  0  0  0  0  0
  -20.1030   -4.1520  -28.1950 C   0  0  0  0  0  0  0  0  0  0  0  0
  -19.1170   -0.6440  -27.1910 C   0  0  0  0  0  0  0  0  0  0  0  0
  -18.2270   -0.0340  -26.2920 C   0  0  0  0  0  0  0  0  0  0  0  0
  -18.2320    1.2640  -26.5720 N   0  0  0  0  0  0  0  0  0  0  0  0
  -17.6380    2.4180  -26.1410 C   0  0  0  0  0  0  0  0  0  0  0  0
  -18.1460    3.4080  -26.9440 C   0  0  0  0  0  0  0  0  0  0  0  0
  -18.9880    2.8360  -27.7910 N   0  0  0  0  0  0  0  0  0  0  0  0
  -19.0530    1.4920  -27.5690 C   0  0  1  0  0  0  0  0  0  0  0  0
  -19.6200    0.3170  -27.9740 N   0  0  0  0  0  0  0  0  0  0  0  0
  -20.5490    0.2750  -29.0620 C   0  0  0  0  0  0  0  0  0  0  0  0
  -19.9940    0.1780  -30.4260 C   0  0  0  0  0  0  0  0  0  0  0  0
  -19.4150   -1.1160  -30.8740 C   0  0  0  0  0  0  0  0  0  0  0  0
  -19.6680   -1.3660  -32.2750 N   0  0  0  0  0  4  0  0  0  0  0  0
  -20.3810   -2.5870  -32.5130 C   0  0  0  0  0  0  0  0  0  0  0  0
  -20.7990   -3.3300  -31.2750 C   0  0  0  0  0  0  0  0  0  0  0  0
  -21.0790   -4.7740  -31.7200 C   0  0  0  0  0  0  0  0  0  0  0  0
  -22.2030   -4.7590  -32.6960 C   0  0  0  0  0  0  0  0  0  0  0  0
  -21.9950   -3.8090  -33.8530 C   0  0  0  0  0  0  0  0  0  0  0  0
  -21.6460   -2.4070  -33.3410 C   0  0  0  0  0  0  0  0  0  0  0  0
  -17.7570    4.7420  -26.7910 C   0  0  0  0  0  0  0  0  0  0  0  0
  -16.8460    5.0780  -25.8130 C   0  0  0  0  0  0  0  0  0  0  0  0
  -16.3520    4.0670  -25.0200 C   0  0  0  0  0  0  0  0  0  0  0  0
  -16.7330    2.7390  -25.1670 C   0  0  0  0  0  0  0  0  0  0  0  0
  -19.0580   -4.6830  -25.0640 H   0  0  0  0  0  0  0  0  0  0  0  0
  -18.6640   -2.2960  -25.1690 H   0  0  0  0  0  0  0  0  0  0  0  0
  -20.1420   -2.3420  -29.1830 H   0  0  0  0  0  0  0  0  0  0  0  0
  -20.5050   -4.6900  -29.0360 H   0  0  0  0  0  0  0  0  0  0  0  0
  -17.6460   -0.5230  -25.5150 H   0  0  0  0  0  0  0  0  0  0  0  0
  -19.5020    3.3670  -28.5190 H   0  0  0  0  0  0  0  0  0  0  0  0
  -21.3230    1.0330  -28.9800 H   0  0  0  0  0  0  0  0  0  0  0  0
  -21.1340   -0.7250  -28.9350 H   0  0  0  0  0  0  0  0  0  0  0  0
  -20.8850    0.3520  -31.1190 H   0  0  0  0  0  0  0  0  0  0  0  0
  -19.3280    1.0470  -30.7210 H   0  0  0  0  0  0  0  0  0  0  0  0
  -19.7960   -1.9940  -30.3130 H   0  0  0  0  0  0  0  0  0  0  0  0
  -18.2970   -1.0150  -30.7780 H   0  0  0  0  0  0  0  0  0  0  0  0
  -20.0420   -0.5900  -32.8150 H   0  0  0  0  0  0  0  0  0  0  0  0
  -18.6890   -1.5300  -32.7120 H   0  0  0  0  0  0  0  0  0  0  0  0
  -19.7580   -3.3100  -33.1210 H   0  0  0  0  0  0  0  0  0  0  0  0
  -20.0740   -3.3020  -30.4620 H   0  0  0  0  0  0  0  0  0  0  0  0
  -21.8030   -2.9380  -30.9440 H   0  0  0  0  0  0  0  0  0  0  0  0
  -20.1450   -5.1940  -32.1740 H   0  0  0  0  0  0  0  0  0  0  0  0
  -21.3920   -5.3650  -30.8420 H   0  0  0  0  0  0  0  0  0  0  0  0
  -22.2990   -5.7760  -33.1290 H   0  0  0  0  0  0  0  0  0  0  0  0
  -23.1420   -4.5130  -32.1660 H   0  0  0  0  0  0  0  0  0  0  0  0
  -22.9460   -3.7530  -34.4040 H   0  0  0  0  0  0  0  0  0  0  0  0
  -21.1690   -4.1800  -34.4620 H   0  0  0  0  0  0  0  0  0  0  0  0
  -22.4850   -2.0520  -32.6910 H   0  0  0  0  0  0  0  0  0  0  0  0
  -21.4240   -1.7670  -34.1930 H   0  0  0  0  0  0  0  0  0  0  0  0
  -18.1490    5.5240  -27.4160 H   0  0  0  0  0  0  0  0  0  0  0  0
  -16.5160    6.1160  -25.6620 H   0  0  0  0  0  0  0  0  0  0  0  0
  -15.6420    4.3300  -24.2580 H   0  0  0  0  0  0  0  0  0  0  0  0
  -16.3470    1.9540  -24.5480 H   0  0  0  0  0  0  0  0  0  0  0  0
  2  1  1  0  0  0  0
  2  3  1  0  0  0  0
  3 30  1  0  0  0  0
  4  3  2  0  0  0  0
  4 31  1  0  0  0  0
  5  8  1  0  0  0  0
  5  4  1  0  0  0  0
  6  7  1  0  0  0  0
  6  5  2  0  0  0  0
  7  2  2  0  0  0  0
  8  9  2  0  0  0  0
  9 34  1  0  0  0  0
 10  9  1  0  0  0  0
 10 11  1  0  0  0  0
 11 29  1  0  0  0  0
 12 26  1  0  0  0  0
 12 11  2  0  0  0  0
 13 14  1  0  0  0  0
 13 12  1  0  0  0  0
 14 15  1  6  0  0  0
 14 10  1  0  0  0  0
 15  8  1  0  0  0  0
 16 36  1  0  0  0  0
 16 37  1  0  0  0  0
 16 15  1  0  0  0  0
 17 16  1  0  0  0  0
 18 41  1  0  0  0  0
 18 17  1  0  0  0  0
 18 40  1  0  0  0  0
 19 18  1  0  0  0  0
 20 19  1  0  0  0  0
 20 21  1  0  0  0  0
 21 46  1  0  0  0  0
 21 45  1  0  0  0  0
 22 21  1  0  0  0  0
 22 48  1  0  0  0  0
 23 50  1  0  0  0  0
 23 22  1  0  0  0  0
 24 25  1  0  0  0  0
 24 23  1  0  0  0  0
 25 53  1  0  0  0  0
 25 20  1  0  0  0  0
 26 27  2  0  0  0  0
 27 56  1  0  0  0  0
 27 28  1  0  0  0  0
 28 57  1  0  0  0  0
 29 28  2  0  0  0  0
 29 58  1  0  0  0  0
 32  6  1  0  0  0  0
 33  7  1  0  0  0  0
 35 13  1  0  0  0  0
 38 17  1  0  0  0  0
 39 17  1  0  0  0  0
 42 19  1  0  0  0  0
 43 19  1  0  0  0  0
 44 20  1  0  0  0  0
 47 22  1  0  0  0  0
 49 23  1  0  0  0  0
 51 24  1  0  0  0  0
 52 24  1  0  0  0  0
 54 25  1  0  0  0  0
 55 26  1  0  0  0  0
M  END
>  <Pose>
1

>  <Score>
-6.59

$$$$
