
 OpenBabel03222201593D

 49 52  0  0  1  0  0  0  0  0999 V2000
  -19.1900   -2.8440  -25.7990 B   0  0  0  0  0  0  0  0  0  0  0  0
  -19.2970   -2.2410  -27.6010 C   0  0  0  0  0  0  0  0  0  0  0  0
  -19.9810   -2.9680  -28.5490 C   0  0  0  0  0  0  0  0  0  0  0  0
  -20.0680   -2.5500  -29.8440 C   0  0  0  0  0  0  0  0  0  0  0  0
  -20.6530   -3.0320  -30.9770 N   0  0  0  0  0  0  0  0  0  0  0  0
  -20.4190   -2.2030  -31.9830 N   0  0  0  0  0  0  0  0  0  0  0  0
  -19.6850   -1.1610  -31.5690 C   0  0  0  0  0  0  0  0  0  0  0  0
  -19.4600   -1.3760  -30.2150 C   0  0  0  0  0  0  0  0  0  0  0  0
  -18.7640   -0.6230  -29.2780 C   0  0  0  0  0  0  0  0  0  0  0  0
  -18.6770   -1.0460  -27.9710 C   0  0  0  0  0  0  0  0  0  0  0  0
  -19.2020   -0.0360  -32.2840 N   0  0  0  0  0  0  0  0  0  0  0  0
  -18.1140   -0.0090  -33.2600 C   0  0  0  0  0  0  0  0  0  0  0  0
  -18.6260    0.9490  -34.3120 C   0  0  2  0  0  0  0  0  0  0  0  0
  -19.2370    2.0590  -33.4650 C   0  0  0  0  0  0  0  0  0  0  0  0
  -19.6520    1.3210  -32.2210 C   0  0  0  0  0  0  0  0  0  0  0  0
  -20.3040    1.8170  -31.2540 O   0  0  0  0  0  0  0  0  0  0  0  0
  -19.6630    0.3270  -35.1690 C   0  0  0  0  0  0  0  0  0  0  0  0
  -20.8530    0.7020  -35.0280 O   0  0  0  0  0  0  0  0  0  0  0  0
  -19.3620   -0.6660  -36.1300 N   0  0  0  0  0  0  0  0  0  0  0  0
  -20.2960   -1.0820  -37.1440 C   0  0  0  0  0  0  0  0  0  0  0  0
  -20.4920    0.0400  -38.1420 C   0  0  0  0  0  0  0  0  0  0  0  0
  -20.4900   -0.4180  -39.5090 N   0  0  0  0  0  0  0  0  0  0  0  0
  -21.0720   -1.7550  -39.5220 C   0  0  0  0  0  0  0  0  0  0  0  0
  -22.5950   -1.6680  -39.5720 C   0  0  0  0  0  0  0  0  0  0  0  0
  -23.0590   -1.1640  -40.7650 O   0  0  0  0  0  0  0  0  0  0  0  0
  -22.0670   -0.4240  -41.3660 C   0  0  0  0  0  0  0  0  0  0  0  0
  -21.2950    0.4180  -40.3700 C   0  0  0  0  0  0  0  0  0  0  0  0
  -20.4660   -3.8950  -28.2750 H   0  0  0  0  0  0  0  0  0  0  0  0
  -21.1880   -3.9360  -30.9480 H   0  0  0  0  0  0  0  0  0  0  0  0
  -18.2810    0.3160  -29.5910 H   0  0  0  0  0  0  0  0  0  0  0  0
  -18.1250   -0.4400  -27.2470 H   0  0  0  0  0  0  0  0  0  0  0  0
  -17.8570   -1.0010  -33.6480 H   0  0  0  0  0  0  0  0  0  0  0  0
  -17.2080    0.4410  -32.8050 H   0  0  0  0  0  0  0  0  0  0  0  0
  -17.7930    1.3830  -34.8890 H   0  0  0  0  0  0  0  0  0  0  0  0
  -20.1900    2.3610  -33.9490 H   0  0  0  0  0  0  0  0  0  0  0  0
  -18.5470    2.8740  -33.2620 H   0  0  0  0  0  0  0  0  0  0  0  0
  -18.4080   -1.1050  -36.0810 H   0  0  0  0  0  0  0  0  0  0  0  0
  -21.2880   -1.1920  -36.6240 H   0  0  0  0  0  0  0  0  0  0  0  0
  -20.0640   -2.0350  -37.6140 H   0  0  0  0  0  0  0  0  0  0  0  0
  -19.6310    0.7520  -38.0480 H   0  0  0  0  0  0  0  0  0  0  0  0
  -21.4060    0.6260  -37.9260 H   0  0  0  0  0  0  0  0  0  0  0  0
  -20.7350   -2.3750  -40.3500 H   0  0  0  0  0  0  0  0  0  0  0  0
  -20.8070   -2.2290  -38.5510 H   0  0  0  0  0  0  0  0  0  0  0  0
  -22.9500   -2.7320  -39.4490 H   0  0  0  0  0  0  0  0  0  0  0  0
  -22.9980   -1.0530  -38.7430 H   0  0  0  0  0  0  0  0  0  0  0  0
  -21.3510   -1.0330  -41.9500 H   0  0  0  0  0  0  0  0  0  0  0  0
  -22.5720    0.2650  -42.0860 H   0  0  0  0  0  0  0  0  0  0  0  0
  -20.6650    1.1080  -40.9850 H   0  0  0  0  0  0  0  0  0  0  0  0
  -22.0010    1.0600  -39.7960 H   0  0  0  0  0  0  0  0  0  0  0  0
  2  1  1  0  0  0  0
  3 28  1  0  0  0  0
  3  2  2  0  0  0  0
  4  3  1  0  0  0  0
  5 29  1  0  0  0  0
  5  4  1  0  0  0  0
  6  7  2  0  0  0  0
  6  5  1  0  0  0  0
  7  8  1  0  0  0  0
  8  4  2  0  0  0  0
  8  9  1  0  0  0  0
  9 10  2  0  0  0  0
 10  2  1  0  0  0  0
 10 31  1  0  0  0  0
 11 15  1  0  0  0  0
 11  7  1  0  0  0  0
 12 33  1  0  0  0  0
 12 11  1  0  0  0  0
 13 34  1  6  0  0  0
 13 14  1  0  0  0  0
 13 12  1  0  0  0  0
 14 36  1  0  0  0  0
 14 15  1  0  0  0  0
 15 16  2  0  0  0  0
 17 18  2  0  0  0  0
 17 13  1  0  0  0  0
 19 37  1  0  0  0  0
 19 17  1  0  0  0  0
 20 38  1  0  0  0  0
 20 19  1  0  0  0  0
 21 40  1  0  0  0  0
 21 41  1  0  0  0  0
 21 20  1  0  0  0  0
 22 21  1  0  0  0  0
 23 22  1  0  0  0  0
 23 43  1  0  0  0  0
 24 23  1  0  0  0  0
 24 44  1  0  0  0  0
 24 45  1  0  0  0  0
 25 24  1  0  0  0  0
 26 25  1  0  0  0  0
 26 27  1  0  0  0  0
 27 49  1  0  0  0  0
 27 22  1  0  0  0  0
 30  9  1  0  0  0  0
 32 12  1  0  0  0  0
 35 14  1  0  0  0  0
 39 20  1  0  0  0  0
 42 23  1  0  0  0  0
 46 26  1  0  0  0  0
 47 26  1  0  0  0  0
 48 27  1  0  0  0  0
M  END
>  <Pose>
1

>  <Score>
-5.41

$$$$
