
 OpenBabel03222201593D

 40 43  0  0  1  0  0  0  0  0999 V2000
  -19.6720    7.3960  -26.5510 Cl  0  0  0  0  0  0  0  0  0  0  0  0
  -18.6510    5.9840  -26.7200 C   0  0  0  0  0  0  0  0  0  0  0  0
  -19.0100    4.6710  -26.6760 N   0  0  0  0  0  0  0  0  0  0  0  0
  -17.9620    3.8640  -26.8430 C   0  0  0  0  0  0  0  0  0  0  0  0
  -16.8830    4.7430  -27.0000 C   0  0  0  0  0  0  0  0  0  0  0  0
  -17.3000    6.0510  -26.9250 C   0  0  0  0  0  0  0  0  0  0  0  0
  -16.3320    7.5030  -27.0600 Cl  0  0  0  0  0  0  0  0  0  0  0  0
  -17.8650    2.4270  -26.8530 C   0  0  0  0  0  0  0  0  0  0  0  0
  -18.3850    1.8990  -27.9450 O   0  0  0  0  0  0  0  0  0  0  0  0
  -17.3300    1.5490  -25.9240 N   0  0  0  0  0  0  0  0  0  0  0  0
  -16.1040    0.8050  -26.3020 C   0  0  0  0  0  0  0  0  0  0  0  0
  -16.4730   -0.6530  -26.2580 C   0  0  0  0  0  0  0  0  0  0  0  0
  -17.7790   -0.9230  -25.7460 N   0  0  0  0  0  0  0  0  0  0  0  0
  -18.4430   -0.1210  -24.7290 C   0  0  0  0  0  0  0  0  0  0  0  0
  -17.7720    1.2400  -24.6150 C   0  0  0  0  0  0  0  0  0  0  0  0
  -18.5140   -2.0380  -26.2360 C   0  0  2  0  0  0  0  0  0  0  0  0
  -18.6910   -3.1400  -25.4840 N   0  0  0  0  0  0  0  0  0  0  0  0
  -19.3850   -4.2110  -25.9360 C   0  0  0  0  0  0  0  0  0  0  0  0
  -19.9250   -4.2010  -27.1660 N   0  0  0  0  0  0  0  0  0  0  0  0
  -19.7940   -3.1400  -27.9780 C   0  0  0  0  0  0  0  0  0  0  0  0
  -20.2280   -2.8820  -29.2260 N   0  0  0  0  0  0  0  0  0  0  0  0
  -19.8090   -1.6730  -29.5400 N   0  0  0  0  0  0  0  0  0  0  0  0
  -19.1060   -1.1310  -28.5190 C   0  0  0  0  0  0  0  0  0  0  0  0
  -19.0730   -2.0420  -27.4960 C   0  0  0  0  0  0  0  0  0  0  0  0
  -21.0170   -3.7530  -30.0980 C   0  0  0  0  0  0  0  0  0  0  0  0
  -20.0130    4.4360  -26.5370 H   0  0  0  0  0  0  0  0  0  0  0  0
  -15.8260    4.4970  -27.1630 H   0  0  0  0  0  0  0  0  0  0  0  0
  -15.7580    1.1400  -27.2910 H   0  0  0  0  0  0  0  0  0  0  0  0
  -15.3320    1.0360  -25.5260 H   0  0  0  0  0  0  0  0  0  0  0  0
  -16.3050   -1.0600  -27.2750 H   0  0  0  0  0  0  0  0  0  0  0  0
  -15.7150   -1.1840  -25.6120 H   0  0  0  0  0  0  0  0  0  0  0  0
  -18.4240   -0.6440  -23.7690 H   0  0  0  0  0  0  0  0  0  0  0  0
  -19.4840    0.0290  -25.0570 H   0  0  0  0  0  0  0  0  0  0  0  0
  -16.8450    1.0020  -23.9640 H   0  0  0  0  0  0  0  0  0  0  0  0
  -18.3580    1.9430  -24.0590 H   0  0  0  0  0  0  0  0  0  0  0  0
  -19.5120   -5.0830  -25.3120 H   0  0  0  0  0  0  0  0  0  0  0  0
  -18.6580   -0.1660  -28.5120 H   0  0  0  0  0  0  0  0  0  0  0  0
  -20.3410   -4.0830  -30.9300 H   0  0  0  0  0  0  0  0  0  0  0  0
  -21.9040   -3.2420  -30.4970 H   0  0  0  0  0  0  0  0  0  0  0  0
  -21.3450   -4.6480  -29.5610 H   0  0  0  0  0  0  0  0  0  0  0  0
  2  3  1  0  0  0  0
  2  1  1  0  0  0  0
  3 26  1  0  0  0  0
  4  3  1  0  0  0  0
  5  6  1  0  0  0  0
  5  4  2  0  0  0  0
  6  2  2  0  0  0  0
  7  6  1  0  0  0  0
  8  4  1  0  0  0  0
  8 10  1  0  0  0  0
  9  8  2  0  0  0  0
 10 15  1  0  0  0  0
 11 12  1  0  0  0  0
 11 10  1  0  0  0  0
 11 29  1  0  0  0  0
 12 13  1  0  0  0  0
 12 31  1  0  0  0  0
 13 14  1  0  0  0  0
 14 15  1  0  0  0  0
 14 32  1  0  0  0  0
 15 35  1  0  0  0  0
 15 34  1  0  0  0  0
 16 13  1  6  0  0  0
 16 17  1  0  0  0  0
 18 17  2  0  0  0  0
 18 36  1  0  0  0  0
 19 18  1  0  0  0  0
 20 24  2  0  0  0  0
 20 19  1  0  0  0  0
 21 20  1  0  0  0  0
 22 21  1  0  0  0  0
 22 23  2  0  0  0  0
 23 37  1  0  0  0  0
 23 24  1  0  0  0  0
 24 16  1  0  0  0  0
 25 40  1  0  0  0  0
 25 21  1  0  0  0  0
 27  5  1  0  0  0  0
 28 11  1  0  0  0  0
 30 12  1  0  0  0  0
 33 14  1  0  0  0  0
 38 25  1  0  0  0  0
 39 25  1  0  0  0  0
M  END
>  <Pose>
1

>  <Score>
-6.50

$$$$
