
 OpenBabel03222201593D

 52 55  0  0  1  0  0  0  0  0999 V2000
  -17.0430    3.3110  -34.5120 Cl  0  0  0  0  0  0  0  0  0  0  0  0
  -18.5390    2.3830  -34.4970 C   0  0  0  0  0  0  0  0  0  0  0  0
  -18.5610    1.2120  -33.7250 C   0  0  0  0  0  0  0  0  0  0  0  0
  -19.7250    0.4950  -33.7160 C   0  0  0  0  0  0  0  0  0  0  0  0
  -20.8530    0.9140  -34.4520 C   0  0  0  0  0  0  0  0  0  0  0  0
  -20.8210    2.0600  -35.2050 C   0  0  0  0  0  0  0  0  0  0  0  0
  -19.6450    2.7790  -35.2100 C   0  0  0  0  0  0  0  0  0  0  0  0
  -19.5300   -0.6710  -32.8430 C   0  0  2  0  0  0  0  0  0  0  0  0
  -19.8620   -1.9170  -33.4360 N   0  0  0  0  0  0  0  0  0  0  0  0
  -20.2850   -2.8450  -32.4820 C   0  0  1  0  0  0  0  0  0  0  0  0
  -20.6380   -2.0210  -31.2630 C   0  0  2  0  0  0  0  0  0  0  0  0
  -20.4400   -0.5840  -31.6190 C   0  0  1  0  0  0  0  0  0  0  0  0
  -19.7710    0.0770  -30.4680 C   0  0  0  0  0  0  0  0  0  0  0  0
  -19.5520    1.3090  -30.3970 O   0  0  0  0  0  0  0  0  0  0  0  0
  -19.4470   -0.9320  -29.5110 N   0  0  0  0  0  0  0  0  0  0  0  0
  -19.6800   -2.1970  -30.1490 C   0  0  0  0  0  0  0  0  0  0  0  0
  -19.1480   -3.2640  -29.8050 O   0  0  0  0  0  0  0  0  0  0  0  0
  -18.9860   -0.7590  -28.1670 C   0  0  0  0  0  0  0  0  0  0  0  0
  -19.6480   -1.5990  -27.1350 C   0  0  0  0  0  0  0  0  0  0  0  0
  -18.7650   -2.2060  -26.1040 C   0  0  0  0  0  0  0  0  0  0  0  0
  -19.1300   -3.6610  -25.8300 C   0  0  0  0  0  0  0  0  0  0  0  0
  -21.3260   -3.8320  -32.8430 C   0  0  0  0  0  0  0  0  0  0  0  0
  -21.7260   -4.8310  -31.8330 C   0  0  0  0  0  0  0  0  0  0  0  0
  -21.8940   -6.2180  -32.2790 C   0  0  0  0  0  0  0  0  0  0  0  0
  -21.0180   -7.0700  -32.0420 O   0  0  0  0  0  0  0  0  0  0  0  0
  -23.0430   -6.6670  -32.9930 N   0  0  0  0  0  0  0  0  0  0  0  0
  -18.1410   -0.5830  -32.3820 C   0  0  0  0  0  0  0  0  0  0  0  0
  -17.4980   -1.3810  -31.6310 O   0  0  0  0  0  0  0  0  0  0  0  0
  -17.5650    0.5910  -32.9220 N   0  0  0  0  0  0  0  0  0  0  0  0
  -21.7610    0.3170  -34.4220 H   0  0  0  0  0  0  0  0  0  0  0  0
  -21.6670    2.4110  -35.7810 H   0  0  0  0  0  0  0  0  0  0  0  0
  -19.5970    3.6870  -35.7950 H   0  0  0  0  0  0  0  0  0  0  0  0
  -19.2310   -2.2460  -34.1850 H   0  0  0  0  0  0  0  0  0  0  0  0
  -19.3740   -3.4460  -32.1740 H   0  0  0  0  0  0  0  0  0  0  0  0
  -21.6430   -2.2480  -30.8700 H   0  0  0  0  0  0  0  0  0  0  0  0
  -21.3570   -0.0360  -31.8360 H   0  0  0  0  0  0  0  0  0  0  0  0
  -19.1810    0.3140  -27.8710 H   0  0  0  0  0  0  0  0  0  0  0  0
  -17.8740   -0.8550  -28.0920 H   0  0  0  0  0  0  0  0  0  0  0  0
  -20.3680   -0.9290  -26.5770 H   0  0  0  0  0  0  0  0  0  0  0  0
  -20.3250   -2.3500  -27.6160 H   0  0  0  0  0  0  0  0  0  0  0  0
  -18.7380   -1.7180  -25.1280 H   0  0  0  0  0  0  0  0  0  0  0  0
  -17.7180   -2.1760  -26.5200 H   0  0  0  0  0  0  0  0  0  0  0  0
  -20.2250   -3.8290  -25.8560 H   0  0  0  0  0  0  0  0  0  0  0  0
  -18.7460   -3.9920  -24.8380 H   0  0  0  0  0  0  0  0  0  0  0  0
  -18.6980   -4.3320  -26.5990 H   0  0  0  0  0  0  0  0  0  0  0  0
  -22.1920   -3.2610  -33.2720 H   0  0  0  0  0  0  0  0  0  0  0  0
  -20.9460   -4.4080  -33.7400 H   0  0  0  0  0  0  0  0  0  0  0  0
  -20.9690   -4.8820  -30.9860 H   0  0  0  0  0  0  0  0  0  0  0  0
  -22.6690   -4.5580  -31.2980 H   0  0  0  0  0  0  0  0  0  0  0  0
  -23.0960   -6.7030  -34.0260 H   0  0  0  0  0  0  0  0  0  0  0  0
  -23.8700   -6.9750  -32.4550 H   0  0  0  0  0  0  0  0  0  0  0  0
  -16.5980    0.9700  -32.7850 H   0  0  0  0  0  0  0  0  0  0  0  0
  1  2  1  0  0  0  0
  2  3  1  0  0  0  0
  3  4  2  0  0  0  0
  3 29  1  0  0  0  0
  5 30  1  0  0  0  0
  5  4  1  0  0  0  0
  6  5  2  0  0  0  0
  7  6  1  0  0  0  0
  7  2  2  0  0  0  0
  8  4  1  6  0  0  0
  8 27  1  0  0  0  0
  8 12  1  0  0  0  0
  9  8  1  0  0  0  0
  9 10  1  0  0  0  0
 10 34  1  1  0  0  0
 10 11  1  0  0  0  0
 11 35  1  1  0  0  0
 11 16  1  0  0  0  0
 12 36  1  6  0  0  0
 12 11  1  0  0  0  0
 12 13  1  0  0  0  0
 13 14  2  0  0  0  0
 13 15  1  0  0  0  0
 15 18  1  0  0  0  0
 16 17  2  0  0  0  0
 16 15  1  0  0  0  0
 18 38  1  0  0  0  0
 18 37  1  0  0  0  0
 18 19  1  0  0  0  0
 19 39  1  0  0  0  0
 19 20  1  0  0  0  0
 20 21  1  0  0  0  0
 20 41  1  0  0  0  0
 21 44  1  0  0  0  0
 22 10  1  0  0  0  0
 22 23  1  0  0  0  0
 23 49  1  0  0  0  0
 23 48  1  0  0  0  0
 24 25  2  0  0  0  0
 24 23  1  0  0  0  0
 26 51  1  0  0  0  0
 26 24  1  0  0  0  0
 27 28  2  0  0  0  0
 29 52  1  0  0  0  0
 29 27  1  0  0  0  0
 31  6  1  0  0  0  0
 32  7  1  0  0  0  0
 33  9  1  0  0  0  0
 40 19  1  0  0  0  0
 42 20  1  0  0  0  0
 43 21  1  0  0  0  0
 45 21  1  0  0  0  0
 46 22  1  0  0  0  0
 47 22  1  0  0  0  0
 50 26  1  0  0  0  0
M  END
>  <Pose>
1

>  <Score>
-7.98

$$$$
