
 OpenBabel03222201593D

 62 65  0  0  1  0  0  0  0  0999 V2000
  -24.1320    2.6120  -39.7930 S   0  0  0  0  0  0  0  0  0  0  0  0
  -25.5070    2.0860  -39.4410 O   0  0  0  0  0  0  0  0  0  0  0  0
  -23.7930    3.6380  -38.7200 O   0  0  0  0  0  0  0  0  0  0  0  0
  -22.9280    1.4130  -39.7720 N   0  0  0  0  0  0  0  0  0  0  0  0
  -23.0110    0.5040  -38.6780 C   0  0  0  0  0  0  0  0  0  0  0  0
  -22.0720    0.9730  -37.5850 C   0  0  0  0  0  0  0  0  0  0  0  0
  -20.7260    0.7690  -38.0600 N   0  0  0  0  0  0  0  0  0  0  0  0
  -20.5490    0.9020  -39.4580 C   0  0  0  0  0  0  0  0  0  0  0  0
  -21.5980    1.8880  -39.9750 C   0  0  0  0  0  0  0  0  0  0  0  0
  -19.9970   -0.2540  -37.3960 C   0  0  0  0  0  0  0  0  0  0  0  0
  -19.1440    0.3610  -36.3440 C   0  0  1  0  0  0  0  0  0  0  0  0
  -19.4330    1.8080  -36.1230 C   0  0  0  0  0  0  0  0  0  0  0  0
  -20.1980    2.4660  -36.8680 O   0  0  0  0  0  0  0  0  0  0  0  0
  -18.7750    2.3500  -35.0220 O   0  0  0  0  0  0  0  0  0  0  0  0
  -18.4040    1.6380  -33.9000 C   0  0  0  0  0  0  0  0  0  0  0  0
  -18.7000    0.3200  -33.8640 C   0  0  0  0  0  0  0  0  0  0  0  0
  -19.3860   -0.2660  -34.9950 C   0  0  0  0  0  0  0  0  0  0  0  0
  -20.1470   -1.2410  -34.8830 O   0  0  0  0  0  0  0  0  0  0  0  0
  -18.3530   -0.5020  -32.6970 C   0  0  0  0  0  0  0  0  0  0  0  0
  -19.3960   -0.7240  -31.7830 N   0  0  0  0  0  0  0  0  0  0  0  0
  -19.9340    0.3260  -31.0280 C   0  0  0  0  0  0  0  0  0  0  0  0
  -20.6410   -0.2230  -29.7680 C   0  0  0  0  0  0  0  0  0  0  0  0
  -19.7000   -1.1470  -29.1890 N   0  0  0  0  0  0  0  0  0  0  0  0
  -19.5020   -2.3650  -29.9620 C   0  0  0  0  0  0  0  0  0  0  0  0
  -19.7220   -2.0600  -31.4380 C   0  0  0  0  0  0  0  0  0  0  0  0
  -19.0190   -0.8880  -27.9840 C   0  0  0  0  0  0  0  0  0  0  0  0
  -18.5370    0.3510  -27.6270 C   0  0  0  0  0  0  0  0  0  0  0  0
  -17.8820    0.5490  -26.4340 C   0  0  0  0  0  0  0  0  0  0  0  0
  -17.6720   -0.4700  -25.5350 C   0  0  0  0  0  0  0  0  0  0  0  0
  -18.1400   -1.7160  -25.8620 C   0  0  0  0  0  0  0  0  0  0  0  0
  -18.8010   -1.9190  -27.0640 C   0  0  0  0  0  0  0  0  0  0  0  0
  -17.2940    2.1420  -26.0390 Cl  0  0  0  0  0  0  0  0  0  0  0  0
  -24.2480    3.4740  -41.3150 C   0  0  0  0  0  0  0  0  0  0  0  0
  -22.5690   -0.4710  -39.0420 H   0  0  0  0  0  0  0  0  0  0  0  0
  -24.0200    0.2820  -38.3450 H   0  0  0  0  0  0  0  0  0  0  0  0
  -22.2190    2.0640  -37.4510 H   0  0  0  0  0  0  0  0  0  0  0  0
  -22.2670    0.4850  -36.6280 H   0  0  0  0  0  0  0  0  0  0  0  0
  -20.5500   -0.0420  -40.0290 H   0  0  0  0  0  0  0  0  0  0  0  0
  -19.5530    1.3860  -39.6470 H   0  0  0  0  0  0  0  0  0  0  0  0
  -21.4160    2.8480  -39.4260 H   0  0  0  0  0  0  0  0  0  0  0  0
  -21.4120    2.1270  -41.0490 H   0  0  0  0  0  0  0  0  0  0  0  0
  -20.6770   -0.9840  -36.8880 H   0  0  0  0  0  0  0  0  0  0  0  0
  -19.4150   -0.8050  -38.1700 H   0  0  0  0  0  0  0  0  0  0  0  0
  -18.0880    0.2540  -36.5920 H   0  0  0  0  0  0  0  0  0  0  0  0
  -17.8950    2.0630  -33.0520 H   0  0  0  0  0  0  0  0  0  0  0  0
  -17.4350   -0.0380  -32.2330 H   0  0  0  0  0  0  0  0  0  0  0  0
  -18.0130   -1.5090  -33.0870 H   0  0  0  0  0  0  0  0  0  0  0  0
  -20.7000    0.9320  -31.5370 H   0  0  0  0  0  0  0  0  0  0  0  0
  -19.1050    0.9400  -30.5710 H   0  0  0  0  0  0  0  0  0  0  0  0
  -21.0090    0.5620  -29.1180 H   0  0  0  0  0  0  0  0  0  0  0  0
  -21.5330   -0.7510  -30.1740 H   0  0  0  0  0  0  0  0  0  0  0  0
  -18.4970   -2.7780  -29.8580 H   0  0  0  0  0  0  0  0  0  0  0  0
  -20.3130   -3.0630  -29.6710 H   0  0  0  0  0  0  0  0  0  0  0  0
  -19.0820   -2.7560  -32.0130 H   0  0  0  0  0  0  0  0  0  0  0  0
  -20.7670   -2.2820  -31.7370 H   0  0  0  0  0  0  0  0  0  0  0  0
  -18.6960    1.1770  -28.3360 H   0  0  0  0  0  0  0  0  0  0  0  0
  -17.1460   -0.2950  -24.5850 H   0  0  0  0  0  0  0  0  0  0  0  0
  -18.0040   -2.5670  -25.1890 H   0  0  0  0  0  0  0  0  0  0  0  0
  -19.1800   -2.9000  -27.3360 H   0  0  0  0  0  0  0  0  0  0  0  0
  -24.9830    3.0440  -42.0230 H   0  0  0  0  0  0  0  0  0  0  0  0
  -24.5890    4.5370  -41.1460 H   0  0  0  0  0  0  0  0  0  0  0  0
  -23.2890    3.5580  -41.8630 H   0  0  0  0  0  0  0  0  0  0  0  0
  1  4  1  0  0  0  0
  1  2  2  0  0  0  0
  1  3  2  0  0  0  0
  4  5  1  0  0  0  0
  5 35  1  0  0  0  0
  5  6  1  0  0  0  0
  6 36  1  0  0  0  0
  6 37  1  0  0  0  0
  7  6  1  0  0  0  0
  7 10  1  0  0  0  0
  8  7  1  0  0  0  0
  9  4  1  0  0  0  0
  9  8  1  0  0  0  0
  9 40  1  0  0  0  0
 10 42  1  0  0  0  0
 10 11  1  0  0  0  0
 11 44  1  6  0  0  0
 11 12  1  0  0  0  0
 11 17  1  0  0  0  0
 12 14  1  0  0  0  0
 13 12  2  0  0  0  0
 14 15  1  0  0  0  0
 15 16  2  0  0  0  0
 15 45  1  0  0  0  0
 16 19  1  0  0  0  0
 17 18  2  0  0  0  0
 17 16  1  0  0  0  0
 19 46  1  0  0  0  0
 19 20  1  0  0  0  0
 20 25  1  0  0  0  0
 20 21  1  0  0  0  0
 21 49  1  0  0  0  0
 21 22  1  0  0  0  0
 22 23  1  0  0  0  0
 22 50  1  0  0  0  0
 23 26  1  0  0  0  0
 24 52  1  0  0  0  0
 24 53  1  0  0  0  0
 24 23  1  0  0  0  0
 25 24  1  0  0  0  0
 26 27  2  0  0  0  0
 26 31  1  0  0  0  0
 27 28  1  0  0  0  0
 28 32  1  0  0  0  0
 28 29  2  0  0  0  0
 29 57  1  0  0  0  0
 30 29  1  0  0  0  0
 30 58  1  0  0  0  0
 31 30  2  0  0  0  0
 33 61  1  0  0  0  0
 33  1  1  0  0  0  0
 34  5  1  0  0  0  0
 38  8  1  0  0  0  0
 39  8  1  0  0  0  0
 41  9  1  0  0  0  0
 43 10  1  0  0  0  0
 47 19  1  0  0  0  0
 48 21  1  0  0  0  0
 51 22  1  0  0  0  0
 54 25  1  0  0  0  0
 55 25  1  0  0  0  0
 56 27  1  0  0  0  0
 59 31  1  0  0  0  0
 60 33  1  0  0  0  0
 62 33  1  0  0  0  0
M  END
>  <Pose>
1

>  <Score>
-6.91

$$$$
