/Users/jonathanwahrer/Desktop/Msc/3_Semester/Drug_Design_Praktikum/waehrer_HTS_screening/HTS_experiment/out/docking_results/vina_output/3npc/0003_docked.pdbqt
 OpenBabel03142213503D

 38 41  0  0  0  0  0  0  0  0999 V2000
   53.8750   85.4860   24.2090 C   0  0  0  0  0  0  0  0  0  0  0  0
   54.5970   86.4930   23.6210 N   0  0  0  0  0  0  0  0  0  0  0  0
   54.6180   86.3140   22.3290 N   0  0  0  0  0  0  0  0  0  0  0  0
   53.9450   85.2310   21.9810 N   0  0  0  0  0  0  0  0  0  0  0  0
   53.4770   84.6990   23.1230 C   0  0  0  0  0  0  0  0  0  0  0  0
   53.6380   85.3480   25.6340 C   0  0  0  0  0  0  0  0  0  0  0  0
   52.4310   85.2770   26.3160 N   0  0  0  0  0  0  0  0  0  0  0  0
   51.4670   85.3150   25.9080 H   0  0  0  0  0  0  0  0  0  0  0  0
   54.7080   85.2850   26.3480 O   0  0  0  0  0  0  0  0  0  0  0  0
   52.4940   85.1390   27.7450 N   0  0  0  0  0  0  0  0  0  0  0  0
   51.9120   84.1380   28.3040 C   0  0  0  0  0  3  0  0  0  0  0  0
   51.9150   83.9040   29.7390 C   0  0  0  0  0  0  0  0  0  0  0  0
   52.6960   82.9270   30.2970 C   0  0  0  0  0  3  0  0  0  0  0  0
   52.7130   82.6880   31.6680 C   0  0  0  0  0  0  0  0  0  0  0  0
   51.9160   83.4580   32.5100 C   0  0  0  0  0  0  0  0  0  0  0  0
   53.8100   81.3250   32.3970 Br  0  0  0  0  0  0  0  0  0  0  0  0
   51.1340   84.4330   31.9630 C   0  0  0  0  0  0  0  0  0  0  0  0
   50.0360   85.5040   33.0740 Br  0  0  0  0  0  0  0  0  0  0  0  0
   51.1320   84.6580   30.5850 C   0  0  0  0  0  0  0  0  0  0  0  0
   51.9470   83.2040   33.8740 O   0  0  0  0  0  0  0  0  0  0  0  0
   52.7090   83.5290   34.4460 H   0  0  0  0  0  0  0  0  0  0  0  0
   50.3450   85.6430   30.0090 O   0  0  0  0  0  0  0  0  0  0  0  0
   50.6850   86.1660   29.2120 H   0  0  0  0  0  0  0  0  0  0  0  0
   52.6390   83.5040   23.2590 C   0  0  0  0  0  2  0  0  0  0  0  0
   51.2190   83.7850   23.4890 N   0  0  0  0  0  0  0  0  0  0  0  0
   50.7130   82.8370   24.5000 C   0  0  0  0  0  2  0  0  0  0  0  0
   51.1560   81.4560   24.1630 C   0  0  0  0  0  2  0  0  0  0  0  0
   50.7840   81.1520   22.8770 O   0  0  0  0  0  0  0  0  0  0  0  0
   49.9450   82.0690   22.2990 C   0  0  0  0  0  2  0  0  0  0  0  0
   50.4830   83.4750   22.2410 C   0  0  0  0  0  2  0  0  0  0  0  0
   53.7690   84.8030   20.6420 C   0  0  0  0  0  0  0  0  0  0  0  0
   54.5090   83.9410   19.9130 N   0  0  0  0  0  0  0  0  0  0  0  0
   53.9930   83.8140   18.7190 O   0  0  0  0  0  0  0  0  0  0  0  0
   52.9240   84.5600   18.6030 N   0  0  0  0  0  0  0  0  0  0  0  0
   52.7550   85.1880   19.7780 C   0  0  0  0  0  0  0  0  0  0  0  0
   51.7020   86.0880   20.0540 N   0  0  0  0  0  0  0  0  0  0  0  0
   51.1930   86.5200   19.2610 H   0  0  0  0  0  0  0  0  0  0  0  0
   51.4170   86.3350   21.0180 H   0  0  0  0  0  0  0  0  0  0  0  0
  1  6  1  0  0  0  0
  2  1  1  0  0  0  0
  3  2  2  0  0  0  0
  4  3  1  0  0  0  0
  4  5  1  0  0  0  0
  5 24  1  0  0  0  0
  5  1  2  0  0  0  0
  6  7  1  0  0  0  0
  6  9  2  0  0  0  0
  7 10  1  0  0  0  0
  8  7  1  0  0  0  0
 10 11  2  0  0  0  0
 11 12  1  0  0  0  0
 12 13  2  0  0  0  0
 12 19  1  0  0  0  0
 13 14  1  0  0  0  0
 14 16  1  0  0  0  0
 14 15  2  0  0  0  0
 15 20  1  0  0  0  0
 17 15  1  0  0  0  0
 17 18  1  0  0  0  0
 19 17  2  0  0  0  0
 20 21  1  0  0  0  0
 22 19  1  0  0  0  0
 23 22  1  0  0  0  0
 24 25  1  0  0  0  0
 25 26  1  0  0  0  0
 27 26  1  0  0  0  0
 28 27  1  0  0  0  0
 29 28  1  0  0  0  0
 30 29  1  0  0  0  0
 30 25  1  0  0  0  0
 31  4  1  0  0  0  0
 32 31  2  0  0  0  0
 33 32  1  0  0  0  0
 34 33  1  0  0  0  0
 34 35  2  0  0  0  0
 35 36  1  0  0  0  0
 35 31  1  0  0  0  0
 36 38  1  0  0  0  0
 37 36  1  0  0  0  0
M  END
>  <Pose>
1

>  <Score>
-7.316

$$$$
