/Users/jonathanwahrer/Desktop/Msc/3_Semester/Drug_Design_Praktikum/waehrer_HTS_screening/HTS_experiment/out/docking_results/vina_output/3npc/0005_docked.pdbqt
 OpenBabel03192219083D

 38 41  0  0  1  0  0  0  0  0999 V2000
   52.5430   83.6800   23.5370 N   0  0  0  0  0  0  0  0  0  0  0  0
   51.4080   83.0000   23.8510 C   0  0  0  0  0  0  0  0  0  0  0  0
   51.2000   83.0580   25.2030 C   0  0  0  0  0  0  0  0  0  0  0  0
   52.2010   83.7690   25.6790 N   0  0  0  0  0  0  0  0  0  0  0  0
   53.0420   84.1710   24.6870 C   0  0  0  0  0  0  0  0  0  0  0  0
   50.1350   82.4870   25.8460 N   0  0  0  0  0  0  0  0  0  0  0  0
   49.2520   81.8370   25.0780 C   0  0  0  0  0  0  0  0  0  0  0  0
   48.2700   81.3100   25.6740 O   0  0  0  0  0  0  0  0  0  0  0  0
   49.4090   81.7540   23.7430 N   0  0  0  0  0  2  0  0  0  0  0  0
   50.4490   82.3090   23.0990 C   0  0  0  0  0  0  0  0  0  0  0  0
   50.5830   82.2140   21.7330 O   0  0  0  0  0  0  0  0  0  0  0  0
   50.0200   82.6050   27.2930 C   0  0  0  0  0  1  0  0  0  0  0  0
   53.0810   83.8390   22.2330 C   0  0  0  0  0  2  0  0  0  0  0  0
   52.7980   84.9990   21.4050 C   0  0  1  0  0  3  0  0  0  0  0  0
   53.7890   85.7640   20.6350 C   0  0  0  0  0  2  0  0  0  0  0  0
   53.6030   87.1640   20.8340 O   0  0  0  0  0  0  0  0  0  0  0  0
   53.8430   88.1420   19.9330 C   0  0  0  0  0  0  0  0  0  0  0  0
   54.9380   88.9980   20.1280 C   0  0  0  0  0  0  0  0  0  0  0  0
   56.0240   88.7080   21.6770 Br  0  0  0  0  0  0  0  0  0  0  0  0
   55.2280   90.0070   19.2460 C   0  0  0  0  0  3  0  0  0  0  0  0
   54.4420   90.2110   18.1320 C   0  0  0  0  0  0  0  0  0  0  0  0
   53.3630   89.3850   17.9190 C   0  0  0  0  0  3  0  0  0  0  0  0
   54.9210   91.6380   16.9640 Br  0  0  0  0  0  0  0  0  0  0  0  0
   53.0820   88.3600   18.8300 C   0  0  0  0  0  0  0  0  0  0  0  0
   51.5740   87.2930   18.4660 Br  0  0  0  0  0  0  0  0  0  0  0  0
   51.6150   85.0130   20.6450 O   0  0  0  0  0  0  0  0  0  0  0  0
   51.0430   84.2500   20.8430 H   0  0  0  0  0  0  0  0  0  0  0  0
   54.1480   85.0590   24.9340 N   0  0  0  0  0  0  0  0  0  0  0  0
   54.2930   86.3950   24.5020 C   0  0  0  0  0  2  0  0  0  0  0  0
   55.6150   86.9440   25.1060 C   0  0  0  0  0  2  0  0  0  0  0  0
   56.6540   86.1140   24.5280 N   0  0  0  0  0  4  0  0  0  0  0  0
   56.6030   84.8920   25.3530 C   0  0  0  0  0  2  0  0  0  0  0  0
   56.4490   85.8010   23.5550 H   0  0  0  0  0  0  0  0  0  0  0  0
   55.2340   84.5270   25.7680 C   0  0  0  0  0  2  0  0  0  0  0  0
   57.9600   86.7290   24.6490 C   0  0  0  0  0  2  0  0  0  0  0  0
   57.7810   88.1790   25.0400 C   0  0  0  0  0  2  0  0  0  0  0  0
   58.6110   88.4640   26.1310 O   0  0  0  0  0  0  0  0  0  0  0  0
   58.0960   88.4390   26.9840 H   0  0  0  0  0  0  0  0  0  0  0  0
  1  2  1  0  0  0  0
  1  5  1  0  0  0  0
  2  3  2  0  0  0  0
  3  4  1  0  0  0  0
  3  6  1  0  0  0  0
  5 28  1  0  0  0  0
  5  4  2  0  0  0  0
  6 12  1  0  0  0  0
  7  8  2  0  0  0  0
  7  6  1  0  0  0  0
  9  7  1  0  0  0  0
 10  9  1  0  0  0  0
 10  2  1  0  0  0  0
 11 10  2  0  0  0  0
 13  1  1  0  0  0  0
 14 15  1  6  0  0  0
 14 13  1  0  0  0  0
 15 16  1  0  0  0  0
 17 18  1  0  0  0  0
 17 16  1  0  0  0  0
 18 19  1  0  0  0  0
 20 18  2  0  0  0  0
 21 20  1  0  0  0  0
 22 21  2  0  0  0  0
 22 24  1  0  0  0  0
 23 21  1  0  0  0  0
 24 17  2  0  0  0  0
 25 24  1  0  0  0  0
 26 27  1  0  0  0  0
 26 14  1  0  0  0  0
 28 34  1  0  0  0  0
 29 28  1  0  0  0  0
 29 30  1  0  0  0  0
 31 35  1  0  0  0  0
 31 30  1  0  0  0  0
 31 32  1  0  0  0  0
 32 34  1  0  0  0  0
 33 31  1  0  0  0  0
 35 36  1  0  0  0  0
 36 37  1  0  0  0  0
 37 38  1  0  0  0  0
M  END
>  <Pose>
1

>  <Score>
-8.099

$$$$
