/Users/jonathanwahrer/Desktop/Msc/3_Semester/Drug_Design_Praktikum/waehrer_HTS_screening/HTS_experiment/out/docking_results/vina_output/3npc/0017_docked.pdbqt
 OpenBabel03192219093D

 38 41  0  0  0  0  0  0  0  0999 V2000
   48.2770  101.6140   29.7550 C   0  0  0  0  0  0  0  0  0  0  0  0
   47.0070  101.1900   29.7630 N   0  0  0  0  0  0  0  0  0  0  0  0
   46.3160  101.8870   30.6320 N   0  0  0  0  0  0  0  0  0  0  0  0
   47.0970  102.8020   31.2340 N   0  0  0  0  0  0  0  0  0  0  0  0
   48.3160  102.6510   30.7070 C   0  0  0  0  0  0  0  0  0  0  0  0
   49.3960  101.1340   28.9550 C   0  0  0  0  0  0  0  0  0  0  0  0
   50.0320   99.9020   29.2270 N   0  0  0  0  0  0  0  0  0  0  0  0
   49.6740   99.3230   30.0400 H   0  0  0  0  0  0  0  0  0  0  0  0
   49.8030  101.8300   28.0040 O   0  0  0  0  0  0  0  0  0  0  0  0
   51.0890   99.3920   28.5140 N   0  0  0  0  0  0  0  0  0  0  0  0
   51.5060   98.1810   28.5580 C   0  0  0  0  0  3  0  0  0  0  0  0
   52.6370   97.7300   27.7640 C   0  0  0  0  0  0  0  0  0  0  0  0
   53.7780   98.4900   27.5630 C   0  0  0  0  0  3  0  0  0  0  0  0
   54.8340   98.0390   26.8070 C   0  0  0  0  0  0  0  0  0  0  0  0
   54.7240   96.7880   26.2450 C   0  0  0  0  0  0  0  0  0  0  0  0
   53.5950   95.9970   26.4250 C   0  0  0  0  0  0  0  0  0  0  0  0
   53.4520   94.2660   25.6430 Br  0  0  0  0  0  0  0  0  0  0  0  0
   52.5700   96.4830   27.1820 C   0  0  0  0  0  3  0  0  0  0  0  0
   55.9800   98.7650   26.5870 O   0  0  0  0  0  0  0  0  0  0  0  0
   57.2830   98.2810   26.5510 C   0  0  0  0  0  2  0  0  0  0  0  0
   57.9380   98.3260   25.2080 C   0  0  0  0  0  1  0  0  0  0  0  0
   55.7610   96.2780   25.4700 O   0  0  0  0  0  0  0  0  0  0  0  0
   55.7680   96.4380   24.4690 H   0  0  0  0  0  0  0  0  0  0  0  0
   49.5530  103.3670   31.0210 C   0  0  0  0  0  2  0  0  0  0  0  0
   50.4280  102.7630   31.9940 N   0  0  0  0  0  0  0  0  0  0  0  0
   51.2910  103.8620   32.4460 C   0  0  0  0  0  2  0  0  0  0  0  0
   50.5840  104.9880   33.0880 C   0  0  0  0  0  2  0  0  0  0  0  0
   49.4600  104.5550   33.7760 O   0  0  0  0  0  0  0  0  0  0  0  0
   49.7160  103.2970   34.2760 C   0  0  0  0  0  2  0  0  0  0  0  0
   49.6400  102.2990   33.1370 C   0  0  0  0  0  2  0  0  0  0  0  0
   46.6200  103.6940   32.2470 C   0  0  0  0  0  0  0  0  0  0  0  0
   46.6150  105.0370   32.2560 N   0  0  0  0  0  0  0  0  0  0  0  0
   46.0780  105.4570   33.3760 O   0  0  0  0  0  0  0  0  0  0  0  0
   45.7220  104.4400   34.1230 N   0  0  0  0  0  0  0  0  0  0  0  0
   46.0480  103.3270   33.4410 C   0  0  0  0  0  0  0  0  0  0  0  0
   45.8120  102.0160   33.9270 N   0  0  0  0  0  0  0  0  0  0  0  0
   46.3580  101.5720   34.6940 H   0  0  0  0  0  0  0  0  0  0  0  0
   45.0470  101.4200   33.5180 H   0  0  0  0  0  0  0  0  0  0  0  0
  1  2  1  0  0  0  0
  1  5  2  0  0  0  0
  2  3  2  0  0  0  0
  3  4  1  0  0  0  0
  4 31  1  0  0  0  0
  5 24  1  0  0  0  0
  5  4  1  0  0  0  0
  6  7  1  0  0  0  0
  6  1  1  0  0  0  0
  7  8  1  0  0  0  0
  9  6  2  0  0  0  0
 10 11  2  0  0  0  0
 10  7  1  0  0  0  0
 12 11  1  0  0  0  0
 13 12  1  0  0  0  0
 14 13  2  0  0  0  0
 15 16  2  0  0  0  0
 15 14  1  0  0  0  0
 16 18  1  0  0  0  0
 17 16  1  0  0  0  0
 18 12  2  0  0  0  0
 19 14  1  0  0  0  0
 20 19  1  0  0  0  0
 21 20  1  0  0  0  0
 22 15  1  0  0  0  0
 23 22  1  0  0  0  0
 24 25  1  0  0  0  0
 25 26  1  0  0  0  0
 25 30  1  0  0  0  0
 26 27  1  0  0  0  0
 27 28  1  0  0  0  0
 28 29  1  0  0  0  0
 30 29  1  0  0  0  0
 31 32  2  0  0  0  0
 31 35  1  0  0  0  0
 32 33  1  0  0  0  0
 33 34  1  0  0  0  0
 35 36  1  0  0  0  0
 35 34  2  0  0  0  0
 36 37  1  0  0  0  0
 38 36  1  0  0  0  0
M  END
>  <Pose>
1

>  <Score>
-8.076

$$$$
