/Users/jonathanwahrer/Desktop/Msc/3_Semester/Drug_Design_Praktikum/waehrer_HTS_screening/HTS_experiment/out/docking_results/vina_output/3npc/0018_docked.pdbqt
 OpenBabel03192219103D

 37 40  0  0  0  0  0  0  0  0999 V2000
   53.1200   83.3740   21.4100 C   0  0  0  0  0  0  0  0  0  0  0  0
   52.4370   82.3920   21.8830 N   0  0  0  0  0  0  0  0  0  0  0  0
   52.2580   82.5500   23.1830 N   0  0  0  0  0  0  0  0  0  0  0  0
   52.8540   83.6720   23.5620 N   0  0  0  0  0  0  0  0  0  0  0  0
   53.4500   84.2810   22.5460 C   0  0  0  0  0  0  0  0  0  0  0  0
   53.2820   83.9940   20.1140 C   0  0  0  0  0  0  0  0  0  0  0  0
   52.1720   84.6770   19.4880 N   0  0  0  0  0  0  0  0  0  0  0  0
   51.2450   84.7640   19.4470 H   0  0  0  0  0  0  0  0  0  0  0  0
   54.3920   84.0030   19.5840 O   0  0  0  0  0  0  0  0  0  0  0  0
   52.9140   85.6910   18.5040 N   0  0  0  0  0  2  0  0  0  0  0  0
   52.6720   86.7860   19.2490 C   0  0  0  0  0  2  0  0  0  0  0  0
   52.8480   88.1370   19.3550 C   0  0  0  0  0  0  0  0  0  0  0  0
   51.9150   89.1510   19.2310 C   0  0  0  0  0  3  0  0  0  0  0  0
   52.2020   90.4900   19.3590 C   0  0  0  0  0  0  0  0  0  0  0  0
   53.4940   90.8460   19.6300 C   0  0  0  0  0  0  0  0  0  0  0  0
   54.4630   89.8740   19.7610 C   0  0  0  0  0  0  0  0  0  0  0  0
   56.2810   90.4170   20.1140 Br  0  0  0  0  0  0  0  0  0  0  0  0
   54.1930   88.5790   19.6370 C   0  0  0  0  0  3  0  0  0  0  0  0
   51.1930   91.4480   19.2020 O   0  0  0  0  0  0  0  0  0  0  0  0
   50.9430   91.9810   17.8860 C   0  0  0  0  0  1  0  0  0  0  0  0
   53.8420   92.1910   19.7760 O   0  0  0  0  0  0  0  0  0  0  0  0
   54.1810   92.7020   18.9330 H   0  0  0  0  0  0  0  0  0  0  0  0
   54.0930   85.5490   22.3560 C   0  0  0  0  0  2  0  0  0  0  0  0
   55.3570   85.7910   23.0560 N   0  0  0  0  0  0  0  0  0  0  0  0
   55.2300   86.7720   24.0840 C   0  0  0  0  0  2  0  0  0  0  0  0
   54.9690   88.1680   23.5960 C   0  0  0  0  0  2  0  0  0  0  0  0
   56.1290   88.6910   23.0490 O   0  0  0  0  0  0  0  0  0  0  0  0
   56.9760   87.6660   22.6130 C   0  0  0  0  0  2  0  0  0  0  0  0
   56.1640   86.5660   22.0170 C   0  0  0  0  0  2  0  0  0  0  0  0
   52.4780   84.3110   24.8060 C   0  0  0  0  0  0  0  0  0  0  0  0
   51.4800   84.9970   25.1810 N   0  0  0  0  0  0  0  0  0  0  0  0
   51.6010   85.4280   26.4370 O   0  0  0  0  0  0  0  0  0  0  0  0
   52.7290   84.9860   26.8630 N   0  0  0  0  0  0  0  0  0  0  0  0
   53.3620   84.2760   25.9280 C   0  0  0  0  0  0  0  0  0  0  0  0
   54.6170   83.6520   26.0090 N   0  0  0  0  0  0  0  0  0  0  0  0
   54.7540   82.6380   25.8460 H   0  0  0  0  0  0  0  0  0  0  0  0
   55.5140   84.2010   26.2340 H   0  0  0  0  0  0  0  0  0  0  0  0
  1  2  1  0  0  0  0
  1  5  2  0  0  0  0
  2  3  2  0  0  0  0
  3  4  1  0  0  0  0
  4 30  1  0  0  0  0
  5  4  1  0  0  0  0
  6  1  1  0  0  0  0
  7  6  1  0  0  0  0
  8  7  1  0  0  0  0
  9  6  2  0  0  0  0
 10 11  1  0  0  0  0
 10  7  1  0  0  0  0
 11 12  1  0  0  0  0
 12 18  1  0  0  0  0
 13 12  2  0  0  0  0
 13 14  1  0  0  0  0
 14 15  2  0  0  0  0
 15 16  1  0  0  0  0
 15 21  1  0  0  0  0
 16 17  1  0  0  0  0
 18 16  2  0  0  0  0
 19 14  1  0  0  0  0
 20 19  1  0  0  0  0
 22 21  1  0  0  0  0
 23  5  1  0  0  0  0
 23 24  1  0  0  0  0
 24 25  1  0  0  0  0
 26 25  1  0  0  0  0
 27 26  1  0  0  0  0
 28 27  1  0  0  0  0
 29 28  1  0  0  0  0
 29 24  1  0  0  0  0
 30 31  2  0  0  0  0
 30 34  1  0  0  0  0
 31 32  1  0  0  0  0
 32 33  1  0  0  0  0
 34 35  1  0  0  0  0
 34 33  2  0  0  0  0
 35 37  1  0  0  0  0
 36 35  1  0  0  0  0
M  END
>  <Pose>
1

>  <Score>
-7.737

$$$$
