/Users/jonathanwahrer/Desktop/Msc/3_Semester/Drug_Design_Praktikum/waehrer_HTS_screening/HTS_experiment/out/docking_results/vina_output/3npc/0020_docked.pdbqt
 OpenBabel03192219113D

 34 37  0  0  0  0  0  0  0  0999 V2000
   54.0130   84.9720   21.3730 C   0  0  0  0  0  0  0  0  0  0  0  0
   53.3240   84.3350   22.3000 N   0  0  0  0  0  4  0  0  0  0  0  0
   53.5320   84.5850   23.6250 C   0  0  0  0  0  0  0  0  0  0  0  0
   54.4740   85.5160   23.9080 N   0  0  0  0  0  0  0  0  0  0  0  0
   55.2070   86.1960   23.0060 C   0  0  0  0  0  0  0  0  0  0  0  0
   54.9530   85.8950   21.7120 N   0  0  0  0  0  2  0  0  0  0  0  0
   53.7090   84.9210   19.9240 N   0  0  0  0  0  0  0  0  0  0  0  0
   54.0210   84.0960   19.4490 H   0  0  0  0  0  0  0  0  0  0  0  0
   53.0590   85.9980   19.5640 N   0  0  0  0  0  2  0  0  0  0  0  0
   52.4680   86.9430   19.2360 C   0  0  0  0  0  2  0  0  0  0  0  0
   52.8330   88.3720   19.3230 C   0  0  0  0  0  0  0  0  0  0  0  0
   54.0580   88.8430   19.6940 C   0  0  0  0  0  3  0  0  0  0  0  0
   54.3860   90.1830   19.5390 C   0  0  0  0  0  0  0  0  0  0  0  0
   53.4580   91.0730   19.0040 C   0  0  0  0  0  0  0  0  0  0  0  0
   52.2230   90.6140   18.6370 C   0  0  0  0  0  0  0  0  0  0  0  0
   50.9500   91.8330   17.8780 Br  0  0  0  0  0  0  0  0  0  0  0  0
   51.9360   89.2770   18.8010 C   0  0  0  0  0  3  0  0  0  0  0  0
   55.5850   90.7250   19.8840 O   0  0  0  0  0  0  0  0  0  0  0  0
   56.1000   91.0070   21.1360 C   0  0  0  0  0  2  0  0  0  0  0  0
   55.3550   92.1300   21.8430 C   0  0  0  0  0  1  0  0  0  0  0  0
   53.7390   92.4110   18.8260 O   0  0  0  0  0  0  0  0  0  0  0  0
   54.1270   92.9970   19.5260 H   0  0  0  0  0  0  0  0  0  0  0  0
   52.7560   83.9880   24.6460 N   0  0  0  0  0  0  0  0  0  0  0  0
   51.6700   84.7570   25.2740 C   0  0  0  0  0  2  0  0  0  0  0  0
   51.8540   84.5330   26.7970 C   0  0  0  0  0  2  0  0  0  0  0  0
   51.5630   83.2120   26.9850 O   0  0  0  0  0  0  0  0  0  0  0  0
   52.4960   82.3580   26.4660 C   0  0  0  0  0  2  0  0  0  0  0  0
   53.0220   82.6790   25.1060 C   0  0  0  0  0  2  0  0  0  0  0  0
   56.0440   87.2380   23.3650 N   0  0  0  0  0  0  0  0  0  0  0  0
   57.4510   87.2770   23.4730 C   0  0  0  0  0  2  0  0  0  0  0  0
   57.7680   87.5930   24.9380 C   0  0  0  0  0  2  0  0  0  0  0  0
   57.1130   88.7600   25.2640 O   0  0  0  0  0  0  0  0  0  0  0  0
   55.7400   88.7190   25.1700 C   0  0  0  0  0  2  0  0  0  0  0  0
   55.3480   88.5220   23.6780 C   0  0  0  0  0  2  0  0  0  0  0  0
  1  6  1  0  0  0  0
  1  2  2  0  0  0  0
  2  3  2  0  0  0  0
  3  4  1  0  0  0  0
  3 23  1  0  0  0  0
  5 29  1  0  0  0  0
  5  4  2  0  0  0  0
  6  5  1  0  0  0  0
  7  1  1  0  0  0  0
  8  7  1  0  0  0  0
  9  7  1  0  0  0  0
 10 11  1  0  0  0  0
 10  9  1  0  0  0  0
 11 12  1  0  0  0  0
 13 12  2  0  0  0  0
 13 18  1  0  0  0  0
 14 13  1  0  0  0  0
 15 17  1  0  0  0  0
 15 14  2  0  0  0  0
 16 15  1  0  0  0  0
 17 11  2  0  0  0  0
 18 19  1  0  0  0  0
 19 20  1  0  0  0  0
 21 14  1  0  0  0  0
 21 22  1  0  0  0  0
 23 28  1  0  0  0  0
 23 24  1  0  0  0  0
 24 25  1  0  0  0  0
 25 26  1  0  0  0  0
 27 26  1  0  0  0  0
 28 27  1  0  0  0  0
 29 30  1  0  0  0  0
 29 34  1  0  0  0  0
 30 31  1  0  0  0  0
 31 32  1  0  0  0  0
 33 32  1  0  0  0  0
 34 33  1  0  0  0  0
M  END
>  <Pose>
1

>  <Score>
-8.186

$$$$
