/Users/jonathanwahrer/Desktop/Msc/3_Semester/Drug_Design_Praktikum/waehrer_HTS_screening/HTS_experiment/out/docking_results/vina_output/3npc/0023_docked.pdbqt
 OpenBabel03192219113D

 37 40  0  0  1  0  0  0  0  0999 V2000
   52.9230   84.9210   21.1990 C   0  0  1  0  0  3  0  0  0  0  0  0
   52.0970   84.3400   22.2360 N   0  0  0  0  0  0  0  0  0  0  0  0
   52.7580   84.3190   23.4690 C   0  0  0  0  0  0  0  0  0  0  0  0
   52.3560   83.7720   24.5070 O   0  0  0  0  0  0  0  0  0  0  0  0
   54.0110   85.0580   23.3120 C   0  0  0  0  0  0  0  0  0  0  0  0
   54.8310   85.2100   24.2540 O   0  0  0  0  0  0  0  0  0  0  0  0
   54.0840   85.5290   21.9460 C   0  0  1  0  0  3  0  0  0  0  0  0
   55.0220   86.2980   21.4630 C   0  0  1  0  0  3  0  0  0  0  0  0
   56.3360   85.8610   21.4650 O   0  0  0  0  0  1  0  0  0  0  0  0
   54.7360   87.6010   20.9130 C   0  0  0  0  0  0  0  0  0  0  0  0
   53.8450   87.5980   19.8310 C   0  0  0  0  0  3  0  0  0  0  0  0
   53.4550   88.7690   19.2310 C   0  0  0  0  0  0  0  0  0  0  0  0
   53.9390   89.9730   19.6860 C   0  0  0  0  0  0  0  0  0  0  0  0
   52.5300   88.9830   18.0710 C   0  0  0  0  0  2  0  0  0  0  0  0
   54.8170   89.9510   20.7540 C   0  0  0  0  0  3  0  0  0  0  0  0
   53.3790   90.9980   18.8950 O   0  0  0  0  0  0  0  0  0  0  0  0
   55.2190   88.7850   21.3700 C   0  0  0  0  0  3  0  0  0  0  0  0
   52.8560   90.4130   17.7060 C   0  0  1  0  0  3  0  0  0  0  0  0
   53.8810   90.3790   16.5890 C   0  0  0  0  0  1  0  0  0  0  0  0
   53.3790   83.8070   20.3260 C   0  0  0  0  0  0  0  0  0  0  0  0
   53.1940   83.9810   18.9640 C   0  0  0  0  0  3  0  0  0  0  0  0
   53.5710   83.0480   18.0570 C   0  0  0  0  0  0  0  0  0  0  0  0
   54.1630   81.8770   18.5120 C   0  0  0  0  0  0  0  0  0  0  0  0
   54.3490   81.7020   19.8910 C   0  0  0  0  0  0  0  0  0  0  0  0
   55.1580   80.1030   20.5100 Br  0  0  0  0  0  0  0  0  0  0  0  0
   53.9610   82.6600   20.8060 C   0  0  0  0  0  3  0  0  0  0  0  0
   53.3840   83.2270   16.6840 O   0  0  0  0  0  0  0  0  0  0  0  0
   54.3320   83.8380   15.8520 C   0  0  0  0  0  1  0  0  0  0  0  0
   54.5500   80.9230   17.6040 O   0  0  0  0  0  0  0  0  0  0  0  0
   54.0420   80.0780   17.5160 H   0  0  0  0  0  0  0  0  0  0  0  0
   50.7620   83.8560   21.9520 C   0  0  0  0  0  2  0  0  0  0  0  0
   50.5900   82.3980   21.8790 C   0  0  0  0  0  2  0  0  0  0  0  0
   49.9810   81.7060   23.0420 C   0  0  0  0  0  2  0  0  0  0  0  0
   50.9340   81.1050   23.9410 N   0  0  0  0  0  4  0  0  0  0  0  0
   52.0550   80.5650   23.1570 C   0  0  0  0  0  1  0  0  0  0  0  0
   50.2760   79.9760   24.5730 C   0  0  0  0  0  1  0  0  0  0  0  0
   51.2790   81.7170   24.6850 H   0  0  0  0  0  0  0  0  0  0  0  0
  1 20  1  6  0  0  0
  1  7  1  0  0  0  0
  1  2  1  0  0  0  0
  2  3  1  0  0  0  0
  3  4  2  0  0  0  0
  5  3  1  0  0  0  0
  5  6  2  0  0  0  0
  7  8  1  6  0  0  0
  7  5  1  0  0  0  0
  8  9  1  6  0  0  0
 10 17  1  0  0  0  0
 10  8  1  0  0  0  0
 11 10  2  0  0  0  0
 12 13  2  0  0  0  0
 12 11  1  0  0  0  0
 13 15  1  0  0  0  0
 14 12  1  0  0  0  0
 15 17  2  0  0  0  0
 16 13  1  0  0  0  0
 18 19  1  6  0  0  0
 18 14  1  0  0  0  0
 18 16  1  0  0  0  0
 20 26  1  0  0  0  0
 21 20  2  0  0  0  0
 22 23  2  0  0  0  0
 22 21  1  0  0  0  0
 23 24  1  0  0  0  0
 24 25  1  0  0  0  0
 24 26  2  0  0  0  0
 27 22  1  0  0  0  0
 28 27  1  0  0  0  0
 29 23  1  0  0  0  0
 30 29  1  0  0  0  0
 31  2  1  0  0  0  0
 32 31  1  0  0  0  0
 32 33  1  0  0  0  0
 33 34  1  0  0  0  0
 34 36  1  0  0  0  0
 34 37  1  0  0  0  0
 35 34  1  0  0  0  0
M  END
>  <Pose>
1

>  <Score>
-7.781

$$$$
