/Users/jonathanwahrer/Desktop/Msc/3_Semester/Drug_Design_Praktikum/waehrer_HTS_screening/HTS_experiment/out/docking_results/vina_output/3npc/0026_docked.pdbqt
 OpenBabel03192219113D

 29 32  0  0  1  0  0  0  0  0999 V2000
   51.8760   85.7320   19.6400 C   0  0  2  0  0  3  0  0  0  0  0  0
   51.7420   85.2480   20.9500 N   0  0  0  0  0  4  0  0  0  0  0  0
   51.9950   83.8840   21.2210 C   0  0  1  0  0  3  0  0  0  0  0  0
   51.9260   82.9640   20.0310 C   0  0  0  0  0  2  0  0  0  0  0  0
   52.6290   83.5260   18.8540 C   0  0  0  0  0  0  0  0  0  0  0  0
   53.3490   82.9450   17.8440 C   0  0  0  0  0  0  0  0  0  0  0  0
   53.7550   83.9980   17.0430 C   0  0  0  0  0  0  0  0  0  0  0  0
   53.2860   85.1620   17.5680 N   0  0  0  0  0  0  0  0  0  0  0  0
   52.5950   84.8760   18.6790 C   0  0  0  0  0  0  0  0  0  0  0  0
   54.5100   83.6810   15.9340 C   0  0  0  0  0  3  0  0  0  0  0  0
   54.8460   82.3770   15.6360 C   0  0  0  0  0  3  0  0  0  0  0  0
   54.4410   81.3290   16.4360 C   0  0  0  0  0  3  0  0  0  0  0  0
   53.6810   81.6300   17.5540 C   0  0  0  0  0  3  0  0  0  0  0  0
   52.2980   85.8270   21.6430 H   0  0  0  0  0  0  0  0  0  0  0  0
   50.7410   85.4520   21.2690 H   0  0  0  0  0  0  0  0  0  0  0  0
   53.4840   86.0780   17.1090 H   0  0  0  0  0  0  0  0  0  0  0  0
   52.5960   87.0360   19.6660 C   0  0  0  0  0  0  0  0  0  0  0  0
   53.7890   87.2050   20.3360 C   0  0  0  0  0  3  0  0  0  0  0  0
   54.3610   88.4580   20.2950 C   0  0  0  0  0  0  0  0  0  0  0  0
   53.8100   89.5320   19.6290 C   0  0  0  0  0  0  0  0  0  0  0  0
   56.0120   88.7260   21.2100 Br  0  0  0  0  0  0  0  0  0  0  0  0
   52.6200   89.3560   18.9630 C   0  0  0  0  0  0  0  0  0  0  0  0
   51.8270   90.8110   18.0330 Br  0  0  0  0  0  0  0  0  0  0  0  0
   52.0230   88.0920   18.9920 C   0  0  0  0  0  3  0  0  0  0  0  0
   54.4590   90.7830   19.6350 O   0  0  0  0  0  0  0  0  0  0  0  0
   53.9340   91.5830   19.9600 H   0  0  0  0  0  0  0  0  0  0  0  0
   53.3150   83.6600   21.8730 C   0  0  0  0  0  0  0  0  0  0  0  0
   53.8910   84.6330   22.4690 O   0  0  0  0  0  1  0  0  0  0  0  0
   53.9020   82.4060   21.8230 O   0  0  0  0  0  0  0  0  0  0  0  0
  1 17  1  1  0  0  0
  1  2  1  0  0  0  0
  2  3  1  0  0  0  0
  2 15  1  0  0  0  0
  2 14  1  0  0  0  0
  3 27  1  6  0  0  0
  4  3  1  0  0  0  0
  5  4  1  0  0  0  0
  6  5  1  0  0  0  0
  7  8  1  0  0  0  0
  7  6  2  0  0  0  0
  8  9  1  0  0  0  0
  9  5  2  0  0  0  0
  9  1  1  0  0  0  0
 10  7  1  0  0  0  0
 11 10  2  0  0  0  0
 11 12  1  0  0  0  0
 12 13  2  0  0  0  0
 13  6  1  0  0  0  0
 16  8  1  0  0  0  0
 17 18  1  0  0  0  0
 19 18  2  0  0  0  0
 19 21  1  0  0  0  0
 20 25  1  0  0  0  0
 20 19  1  0  0  0  0
 22 24  1  0  0  0  0
 22 20  2  0  0  0  0
 23 22  1  0  0  0  0
 24 17  2  0  0  0  0
 25 26  1  0  0  0  0
 27 28  1  0  0  0  0
 29 27  2  0  0  0  0
M  END
>  <Pose>
1

>  <Score>
-8.600

$$$$
