/Users/jonathanwahrer/Desktop/Msc/3_Semester/Drug_Design_Praktikum/waehrer_HTS_screening/HTS_experiment/out/docking_results/vina_output/3npc/0031_docked.pdbqt
 OpenBabel03192219123D

 24 27  0  0  1  0  0  0  0  0999 V2000
   54.3200   85.4780   24.1190 Br  0  0  0  0  0  0  0  0  0  0  0  0
   54.8780   87.2010   23.4770 C   0  0  0  0  0  0  0  0  0  0  0  0
   54.6990   87.5610   22.1890 C   0  0  0  0  0  0  0  0  0  0  0  0
   55.1750   88.8170   21.7110 C   0  0  0  0  0  0  0  0  0  0  0  0
   55.8150   89.6220   22.5890 C   0  0  0  0  0  3  0  0  0  0  0  0
   55.9990   89.2290   23.9000 C   0  0  0  0  0  3  0  0  0  0  0  0
   55.5380   88.0320   24.3560 C   0  0  0  0  0  3  0  0  0  0  0  0
   55.2640   88.8800   20.2390 C   0  0  0  0  0  2  0  0  0  0  0  0
   54.3690   89.6540   19.4800 N   0  0  2  0  0  4  0  0  0  0  0  0
   53.4790   90.5270   20.0590 C   0  0  0  0  0  2  0  0  0  0  0  0
   52.7530   91.3150   19.0660 N   0  0  2  0  0  0  0  0  0  0  0  0
   52.0530   90.3850   18.1970 C   0  0  0  0  0  2  0  0  0  0  0  0
   53.6130   92.1120   18.2260 C   0  0  0  0  0  2  0  0  0  0  0  0
   52.9500   89.4210   17.5920 N   0  0  2  0  0  0  0  0  0  0  0  0
   53.7140   88.6940   18.5260 C   0  0  0  0  0  2  0  0  0  0  0  0
   53.8230   90.1330   16.6820 C   0  0  0  0  0  2  0  0  0  0  0  0
   54.5620   91.1510   17.5130 C   0  0  2  0  0  3  0  0  0  0  0  0
   55.2960   90.4200   18.5750 C   0  0  0  0  0  2  0  0  0  0  0  0
   54.0670   86.7500   21.3160 O   0  0  0  0  0  0  0  0  0  0  0  0
   54.6540   85.5560   20.7610 C   0  0  0  0  0  2  0  0  0  0  0  0
   53.7560   84.4410   20.4700 C   0  0  0  0  0  0  0  0  0  0  0  0
   52.5860   84.5460   20.1330 O   0  0  0  0  0  0  0  0  0  0  0  0
   54.2910   83.1500   20.5520 O   0  0  0  0  0  0  0  0  0  0  0  0
   54.3520   82.2760   19.4580 C   0  0  0  0  0  1  0  0  0  0  0  0
  2  1  1  0  0  0  0
  2  7  1  0  0  0  0
  3  2  2  0  0  0  0
  4  3  1  0  0  0  0
  4  5  2  0  0  0  0
  5  6  1  0  0  0  0
  6  7  2  0  0  0  0
  8  4  1  0  0  0  0
  9 10  1  0  0  0  0
  9  8  1  1  0  0  0
 11 12  1  6  0  0  0
 11 10  1  0  0  0  0
 13 11  1  0  0  0  0
 14 16  1  6  0  0  0
 14 12  1  0  0  0  0
 14 15  1  0  0  0  0
 15  9  1  0  0  0  0
 17 16  1  1  0  0  0
 17 13  1  0  0  0  0
 17 18  1  0  0  0  0
 18  9  1  0  0  0  0
 19  3  1  0  0  0  0
 20 19  1  0  0  0  0
 21 23  1  0  0  0  0
 21 20  1  0  0  0  0
 22 21  2  0  0  0  0
 24 23  1  0  0  0  0
M  END
>  <Pose>
1

>  <Score>
-6.600

$$$$
