/Users/jonathanwahrer/Desktop/Msc/3_Semester/Drug_Design_Praktikum/waehrer_HTS_screening/HTS_experiment/out/docking_results/vina_output/3npc/0035_docked.pdbqt
 OpenBabel03192219123D

 33 36  0  0  0  0  0  0  0  0999 V2000
   55.3220   91.1090   21.9370 C   0  0  0  0  0  0  0  0  0  0  0  0
   54.7020   90.5610   20.8880 N   0  0  0  0  0  4  0  0  0  0  0  0
   54.4630   89.2250   20.8040 C   0  0  0  0  0  0  0  0  0  0  0  0
   54.8650   88.4320   21.8100 N   0  0  0  0  0  0  0  0  0  0  0  0
   55.4900   88.9520   22.8770 C   0  0  0  0  0  0  0  0  0  0  0  0
   55.7120   90.2990   22.9260 N   0  0  0  0  0  2  0  0  0  0  0  0
   55.5320   92.5030   21.9650 N   0  0  0  0  0  0  0  0  0  0  0  0
   56.0840   92.9310   21.1930 H   0  0  0  0  0  0  0  0  0  0  0  0
   55.0110   93.3200   23.0070 N   0  0  0  0  0  0  0  0  0  0  0  0
   55.7950   94.0780   23.7010 C   0  0  0  0  0  3  0  0  0  0  0  0
   55.3620   94.9390   24.7740 C   0  0  0  0  0  0  0  0  0  0  0  0
   56.1840   95.8910   25.3300 C   0  0  0  0  0  0  0  0  0  0  0  0
   57.9470   96.0480   24.6220 Br  0  0  0  0  0  0  0  0  0  0  0  0
   55.7670   96.7090   26.3640 C   0  0  0  0  0  0  0  0  0  0  0  0
   54.4800   96.5740   26.8610 C   0  0  0  0  0  3  0  0  0  0  0  0
   53.6380   95.6280   26.3220 C   0  0  0  0  0  0  0  0  0  0  0  0
   54.0920   94.8260   25.2860 C   0  0  0  0  0  3  0  0  0  0  0  0
   56.6180   97.6570   26.9030 O   0  0  0  0  0  0  0  0  0  0  0  0
   56.3110   98.6220   26.9180 H   0  0  0  0  0  0  0  0  0  0  0  0
   52.3600   95.5260   26.8490 O   0  0  0  0  0  0  0  0  0  0  0  0
   52.1590   95.2820   27.8090 H   0  0  0  0  0  0  0  0  0  0  0  0
   53.8050   88.7490   19.6510 N   0  0  0  0  0  0  0  0  0  0  0  0
   53.1430   87.4740   19.6930 C   0  0  0  0  0  2  0  0  0  0  0  0
   51.6900   87.7610   19.2840 C   0  0  0  0  0  2  0  0  0  0  0  0
   51.7620   88.2470   17.9780 O   0  0  0  0  0  0  0  0  0  0  0  0
   52.3460   89.5080   17.9200 C   0  0  0  0  0  2  0  0  0  0  0  0
   53.7770   89.5000   18.4200 C   0  0  0  0  0  2  0  0  0  0  0  0
   55.9220   88.1160   23.9510 N   0  0  0  0  0  0  0  0  0  0  0  0
   57.3000   87.9930   24.3600 C   0  0  0  0  0  2  0  0  0  0  0  0
   57.6700   86.5400   24.5730 C   0  0  0  0  0  2  0  0  0  0  0  0
   56.6160   85.6790   24.3070 O   0  0  0  0  0  0  0  0  0  0  0  0
   55.5260   86.0250   25.1280 C   0  0  0  0  0  2  0  0  0  0  0  0
   54.9310   87.3420   24.6710 C   0  0  0  0  0  2  0  0  0  0  0  0
  1  7  1  0  0  0  0
  1  6  1  0  0  0  0
  2  1  2  0  0  0  0
  3  2  2  0  0  0  0
  3  4  1  0  0  0  0
  4  5  2  0  0  0  0
  5  6  1  0  0  0  0
  5 28  1  0  0  0  0
  7  9  1  0  0  0  0
  8  7  1  0  0  0  0
  9 10  2  0  0  0  0
 10 11  1  0  0  0  0
 11 17  2  0  0  0  0
 11 12  1  0  0  0  0
 12 14  2  0  0  0  0
 13 12  1  0  0  0  0
 14 15  1  0  0  0  0
 14 18  1  0  0  0  0
 16 20  1  0  0  0  0
 16 15  2  0  0  0  0
 17 16  1  0  0  0  0
 18 19  1  0  0  0  0
 20 21  1  0  0  0  0
 22 23  1  0  0  0  0
 22  3  1  0  0  0  0
 24 23  1  0  0  0  0
 25 24  1  0  0  0  0
 26 25  1  0  0  0  0
 26 27  1  0  0  0  0
 27 22  1  0  0  0  0
 28 29  1  0  0  0  0
 28 33  1  0  0  0  0
 29 30  1  0  0  0  0
 31 30  1  0  0  0  0
 31 32  1  0  0  0  0
 33 32  1  0  0  0  0
M  END
>  <Pose>
1

>  <Score>
-8.998

$$$$
