/Users/jonathanwahrer/Desktop/Msc/3_Semester/Drug_Design_Praktikum/waehrer_HTS_screening/HTS_experiment/out/docking_results/vina_output/3npc/0039_docked.pdbqt
 OpenBabel03192219133D

 21 23  0  0  1  0  0  0  0  0999 V2000
   52.3330   98.3540   27.0780 N   0  0  0  0  0  0  0  0  0  0  0  0
   53.4130   97.7670   27.7410 C   0  0  0  0  0  0  0  0  0  0  0  0
   53.3510   97.4710   28.9420 O   0  0  0  0  0  0  0  0  0  0  0  0
   52.4830   98.5700   26.0480 H   0  0  0  0  0  0  0  0  0  0  0  0
   54.6520   97.4950   26.9860 C   0  0  0  0  0  2  0  0  0  0  0  0
   54.7560   96.1970   26.4030 N   0  0  1  0  0  4  0  0  0  0  0  0
   55.6470   96.3060   25.2370 C   0  0  0  0  0  2  0  0  0  0  0  0
   56.2250   94.9340   24.9900 C   0  0  0  0  0  2  0  0  0  0  0  0
   55.1370   93.9890   25.2390 N   0  0  1  0  0  0  0  0  0  0  0  0
   55.0870   93.8250   26.6880 C   0  0  0  0  0  2  0  0  0  0  0  0
   53.8770   94.5970   24.8420 C   0  0  0  0  0  2  0  0  0  0  0  0
   55.2890   95.1940   27.3210 C   0  0  0  0  0  2  0  0  0  0  0  0
   53.5120   95.6710   25.8810 C   0  0  0  0  0  2  0  0  0  0  0  0
   51.0640   98.7000   27.5960 C   0  0  0  0  0  0  0  0  0  0  0  0
   50.5880  100.0150   27.4920 C   0  0  0  0  0  0  0  0  0  0  0  0
   51.7560  101.2680   26.6210 Br  0  0  0  0  0  0  0  0  0  0  0  0
   49.3650  100.4100   27.9760 C   0  0  0  0  0  3  0  0  0  0  0  0
   48.5190   99.5260   28.6010 C   0  0  0  0  0  0  0  0  0  0  0  0
   48.9640   98.2310   28.7140 C   0  0  0  0  0  3  0  0  0  0  0  0
   47.1860   99.9450   29.1310 C   0  0  0  0  0  1  0  0  0  0  0  0
   50.2070   97.8220   28.2260 C   0  0  0  0  0  3  0  0  0  0  0  0
  1 14  1  0  0  0  0
  1  2  1  0  0  0  0
  2  3  2  0  0  0  0
  4  1  1  0  0  0  0
  5  2  1  0  0  0  0
  6  5  1  1  0  0  0
  6 12  1  0  0  0  0
  7  6  1  0  0  0  0
  8  7  1  0  0  0  0
  8  9  1  0  0  0  0
  9 11  1  1  0  0  0
  9 10  1  0  0  0  0
 10 12  1  0  0  0  0
 11 13  1  0  0  0  0
 13  6  1  0  0  0  0
 14 21  1  0  0  0  0
 15 14  2  0  0  0  0
 15 17  1  0  0  0  0
 16 15  1  0  0  0  0
 17 18  2  0  0  0  0
 18 19  1  0  0  0  0
 18 20  1  0  0  0  0
 21 19  2  0  0  0  0
M  END
>  <Pose>
1

>  <Score>
-7.632

$$$$
