/Users/jonathanwahrer/Desktop/Msc/3_Semester/Drug_Design_Praktikum/waehrer_HTS_screening/HTS_experiment/out/docking_results/vina_output/3npc/0064_docked.pdbqt
 OpenBabel03192219133D

 22 25  0  0  1  0  0  0  0  0999 V2000
   55.6080   88.4620   21.7490 N   0  0  0  0  0  0  0  0  0  0  0  0
   56.5880   87.5230   22.1590 C   0  0  0  0  0  0  0  0  0  0  0  0
   56.9680   86.5600   21.4700 O   0  0  0  0  0  0  0  0  0  0  0  0
   57.0970   87.8400   23.5130 C   0  0  2  0  0  3  0  0  0  0  0  0
   56.7670   86.8000   24.5260 C   0  0  1  0  0  0  0  0  0  0  0  0
   56.1440   87.4990   25.5930 O   0  0  0  0  0  0  0  0  0  0  0  0
   55.1760   88.1650   24.7980 C   0  0  1  0  0  3  0  0  0  0  0  0
   56.1600   88.9800   23.9510 C   0  0  2  0  0  3  0  0  0  0  0  0
   55.5260   89.5000   22.7310 C   0  0  0  0  0  0  0  0  0  0  0  0
   55.0070   90.6220   22.5450 O   0  0  0  0  0  0  0  0  0  0  0  0
   54.6140   87.0250   24.0440 C   0  0  0  0  0  2  0  0  0  0  0  0
   55.5540   86.0800   24.0290 C   0  0  0  0  0  2  0  0  0  0  0  0
   54.7900   88.4560   20.5870 C   0  0  0  0  0  0  0  0  0  0  0  0
   55.0260   89.2410   19.4810 C   0  0  0  0  0  0  0  0  0  0  0  0
   56.5630   90.4010   19.5440 Br  0  0  0  0  0  0  0  0  0  0  0  0
   54.2170   89.2180   18.3670 C   0  0  0  0  0  3  0  0  0  0  0  0
   53.1190   88.4020   18.3060 C   0  0  0  0  0  3  0  0  0  0  0  0
   52.8500   87.5950   19.4060 C   0  0  0  0  0  3  0  0  0  0  0  0
   53.6730   87.6310   20.5150 C   0  0  0  0  0  3  0  0  0  0  0  0
   57.8530   85.9160   24.9740 C   0  0  0  0  0  2  0  0  0  0  0  0
   58.7850   86.6950   25.6850 O   0  0  0  0  0  0  0  0  0  0  0  0
   58.4250   86.8890   26.5990 H   0  0  0  0  0  0  0  0  0  0  0  0
  1  2  1  0  0  0  0
  1  9  1  0  0  0  0
  3  2  2  0  0  0  0
  4  2  1  6  0  0  0
  4  8  1  0  0  0  0
  4  5  1  0  0  0  0
  5 20  1  1  0  0  0
  5  6  1  0  0  0  0
  7 11  1  6  0  0  0
  7  6  1  0  0  0  0
  8  9  1  6  0  0  0
  8  7  1  0  0  0  0
 10  9  2  0  0  0  0
 12 11  1  0  0  0  0
 12  5  1  0  0  0  0
 13  1  1  0  0  0  0
 14 15  1  0  0  0  0
 14 13  2  0  0  0  0
 16 14  1  0  0  0  0
 17 16  2  0  0  0  0
 17 18  1  0  0  0  0
 18 19  2  0  0  0  0
 19 13  1  0  0  0  0
 20 21  1  0  0  0  0
 21 22  1  0  0  0  0
M  END
>  <Pose>
1

>  <Score>
-7.424

$$$$
