/Users/jonathanwahrer/Desktop/Msc/3_Semester/Drug_Design_Praktikum/waehrer_HTS_screening/HTS_experiment/out/docking_results/vina_output/3npc/0067_docked.pdbqt
 OpenBabel03192219133D

 22 25  0  0  1  0  0  0  0  0999 V2000
   53.5640   88.4240   19.0740 N   0  0  0  0  0  0  0  0  0  0  0  0
   54.1730   88.4700   17.7300 C   0  0  0  0  0  2  0  0  0  0  0  0
   54.0790   89.8890   17.4140 C   0  0  2  0  0  0  0  0  0  0  0  0
   55.1210   90.6990   17.8960 O   0  0  0  0  0  0  0  0  0  0  0  0
   54.5180   91.9360   17.5440 C   0  0  2  0  0  3  0  0  0  0  0  0
   53.2900   91.8250   18.4590 C   0  0  1  0  0  3  0  0  0  0  0  0
   52.8210   90.4490   18.1010 C   0  0  2  0  0  3  0  0  0  0  0  0
   52.6510   89.5080   19.1960 C   0  0  0  0  0  0  0  0  0  0  0  0
   51.8260   89.6140   20.1260 O   0  0  0  0  0  0  0  0  0  0  0  0
   54.1740   91.6740   16.1160 C   0  0  0  0  0  2  0  0  0  0  0  0
   54.0190   90.3340   16.0250 C   0  0  0  0  0  2  0  0  0  0  0  0
   53.8220   87.4790   20.1000 C   0  0  0  0  0  0  0  0  0  0  0  0
   53.3350   86.1840   20.0590 C   0  0  0  0  0  0  0  0  0  0  0  0
   52.2810   85.5660   18.6240 Br  0  0  0  0  0  0  0  0  0  0  0  0
   53.6080   85.2790   21.0870 C   0  0  0  0  0  3  0  0  0  0  0  0
   54.3660   85.6400   22.1690 C   0  0  0  0  0  3  0  0  0  0  0  0
   54.8540   86.9070   22.2290 C   0  0  0  0  0  3  0  0  0  0  0  0
   54.5850   87.7950   21.2180 C   0  0  0  0  0  3  0  0  0  0  0  0
   53.8470   91.8380   19.8490 C   0  0  0  0  0  0  0  0  0  0  0  0
   53.2540   92.3560   20.8060 O   0  0  0  0  0  0  0  0  0  0  0  0
   55.0820   91.2440   20.0720 O   0  0  0  0  0  0  0  0  0  0  0  0
   55.6640   91.3430   21.3770 C   0  0  0  0  0  1  0  0  0  0  0  0
  1  8  1  0  0  0  0
  1 12  1  0  0  0  0
  2  1  1  0  0  0  0
  3 11  1  6  0  0  0
  3  2  1  0  0  0  0
  3  4  1  0  0  0  0
  3  7  1  0  0  0  0
  5 10  1  6  0  0  0
  5  4  1  0  0  0  0
  5  6  1  0  0  0  0
  6 19  1  1  0  0  0
  7  6  1  0  0  0  0
  7  8  1  1  0  0  0
  8  9  2  0  0  0  0
 11 10  1  0  0  0  0
 12 18  1  0  0  0  0
 13 12  2  0  0  0  0
 13 15  1  0  0  0  0
 14 13  1  0  0  0  0
 15 16  2  0  0  0  0
 16 17  1  0  0  0  0
 18 17  2  0  0  0  0
 19 21  1  0  0  0  0
 19 20  2  0  0  0  0
 21 22  1  0  0  0  0
M  END
>  <Pose>
1

>  <Score>
-6.776

$$$$
