/Users/jonathanwahrer/Desktop/Msc/3_Semester/Drug_Design_Praktikum/waehrer_HTS_screening/HTS_experiment/out/docking_results/vina_output/3npc/0085_docked.pdbqt
 OpenBabel03192219133D

 26 29  0  0  0  0  0  0  0  0999 V2000
   52.0920   98.6800   27.5960 C   0  0  0  0  0  0  0  0  0  0  0  0
   51.6080   99.9100   27.1060 C   0  0  0  0  0  0  0  0  0  0  0  0
   51.8520  100.5550   25.9330 N   0  0  0  0  0  0  0  0  0  0  0  0
   51.1670  101.6580   25.9540 O   0  0  0  0  0  0  0  0  0  0  0  0
   50.5030  101.7610   27.0630 N   0  0  0  0  0  0  0  0  0  0  0  0
   50.7420  100.6880   27.8280 C   0  0  0  0  0  0  0  0  0  0  0  0
   50.2860  100.3220   29.0780 C   0  0  0  0  0  0  0  0  0  0  0  0
   50.7630   99.1160   29.5550 C   0  0  0  0  0  3  0  0  0  0  0  0
   51.6440   98.3160   28.8290 C   0  0  0  0  0  3  0  0  0  0  0  0
   52.9840   97.9610   26.7610 N   0  0  0  0  0  0  0  0  0  0  0  0
   53.9870   97.1010   27.2010 C   0  0  0  0  0  0  0  0  0  0  0  0
   54.1550   96.9050   28.4620 O   0  0  0  0  0  0  0  0  0  0  0  0
   52.8990   98.0560   25.7040 H   0  0  0  0  0  0  0  0  0  0  0  0
   54.9020   96.3730   26.2980 C   0  0  0  0  0  0  0  0  0  0  0  0
   56.1450   96.7190   25.8780 C   0  0  0  0  0  0  0  0  0  0  0  0
   57.1910   98.2480   26.3390 Br  0  0  0  0  0  0  0  0  0  0  0  0
   56.5780   95.6990   25.0080 C   0  0  0  0  0  3  0  0  0  0  0  0
   55.5810   94.8230   24.9660 N   0  0  0  0  0  0  0  0  0  0  0  0
   54.5660   95.1730   25.7100 N   0  0  0  0  0  0  0  0  0  0  0  0
   53.3330   94.4510   25.8850 C   0  0  0  0  0  1  0  0  0  0  0  0
   49.3980  101.1100   29.8310 N   0  0  0  0  0  0  0  0  0  0  0  0
   47.9880  101.1240   29.4500 C   0  0  0  0  0  2  0  0  0  0  0  0
   47.2100  102.1420   30.2380 C   0  0  0  0  0  2  0  0  0  0  0  0
   47.8380  103.3190   30.4750 O   0  0  0  0  0  0  0  0  0  0  0  0
   49.1970  103.3220   30.5960 C   0  0  0  0  0  2  0  0  0  0  0  0
   49.6820  101.9350   30.9660 C   0  0  0  0  0  2  0  0  0  0  0  0
  1  9  2  0  0  0  0
  2  1  1  0  0  0  0
  2  6  1  0  0  0  0
  3  4  1  0  0  0  0
  3  2  2  0  0  0  0
  4  5  1  0  0  0  0
  5  6  2  0  0  0  0
  6  7  1  0  0  0  0
  7  8  2  0  0  0  0
  7 21  1  0  0  0  0
  9  8  1  0  0  0  0
 10 11  1  0  0  0  0
 10  1  1  0  0  0  0
 11 12  2  0  0  0  0
 13 10  1  0  0  0  0
 14 11  1  0  0  0  0
 15 14  2  0  0  0  0
 15 16  1  0  0  0  0
 17 15  1  0  0  0  0
 18 17  2  0  0  0  0
 18 19  1  0  0  0  0
 19 20  1  0  0  0  0
 19 14  1  0  0  0  0
 21 26  1  0  0  0  0
 22 21  1  0  0  0  0
 22 23  1  0  0  0  0
 23 24  1  0  0  0  0
 24 25  1  0  0  0  0
 25 26  1  0  0  0  0
M  END
>  <Pose>
1

>  <Score>
-9.095

$$$$
