/Users/jonathanwahrer/Desktop/Msc/3_Semester/Drug_Design_Praktikum/waehrer_HTS_screening/HTS_experiment/out/docking_results/vina_output/3npc/0106_docked.pdbqt
 OpenBabel03192219143D

 29 32  0  0  0  0  0  0  0  0999 V2000
   52.3700   86.2810   18.6240 C   0  0  0  0  0  3  0  0  0  0  0  0
   52.7790   87.4780   18.9420 C   0  0  0  0  0  0  0  0  0  0  0  0
   53.7790   87.7470   19.8630 O   0  0  0  0  0  0  0  0  0  0  0  0
   54.0010   89.1050   20.0010 C   0  0  0  0  0  0  0  0  0  0  0  0
   53.1580   89.8180   19.1790 C   0  0  0  0  0  0  0  0  0  0  0  0
   53.2110   91.1960   19.1610 C   0  0  0  0  0  3  0  0  0  0  0  0
   54.1140   91.8500   19.9720 C   0  0  0  0  0  3  0  0  0  0  0  0
   54.9650   91.0960   20.8040 C   0  0  0  0  0  0  0  0  0  0  0  0
   54.9320   89.7360   20.8380 C   0  0  0  0  0  0  0  0  0  0  0  0
   55.8280   91.8950   21.5720 O   0  0  0  0  0  1  0  0  0  0  0  0
   52.3580   88.8050   18.4830 C   0  0  0  0  0  0  0  0  0  0  0  0
   51.4620   89.0210   17.6370 O   0  0  0  0  0  0  0  0  0  0  0  0
   52.8710   85.0280   19.1610 C   0  0  0  0  0  0  0  0  0  0  0  0
   52.6300   84.6180   20.4540 C   0  0  0  0  0  3  0  0  0  0  0  0
   53.1020   83.4520   20.9840 C   0  0  0  0  0  0  0  0  0  0  0  0
   52.7890   82.8560   22.7650 Br  0  0  0  0  0  0  0  0  0  0  0  0
   53.8720   82.6400   20.1550 C   0  0  0  0  0  3  0  0  0  0  0  0
   54.1490   83.0010   18.8420 C   0  0  0  0  0  3  0  0  0  0  0  0
   53.6490   84.1820   18.3650 C   0  0  0  0  0  0  0  0  0  0  0  0
   53.9100   84.5720   17.0660 O   0  0  0  0  0  0  0  0  0  0  0  0
   54.4470   83.6590   16.1450 C   0  0  0  0  0  1  0  0  0  0  0  0
   55.7880   88.9160   21.6510 C   0  0  0  0  0  2  0  0  0  0  0  0
   55.2950   87.9810   22.5760 N   0  0  0  0  0  4  0  0  0  0  0  0
   55.9320   86.6920   22.5650 C   0  0  0  0  0  2  0  0  0  0  0  0
   57.2220   86.6360   23.3460 C   0  0  0  0  0  2  0  0  0  0  0  0
   57.6290   87.8700   23.8350 O   0  0  0  0  0  0  0  0  0  0  0  0
   56.6010   88.3240   24.6540 C   0  0  0  0  0  2  0  0  0  0  0  0
   55.2930   88.5020   23.9550 C   0  0  0  0  0  2  0  0  0  0  0  0
   54.2810   87.8270   22.3980 H   0  0  0  0  0  0  0  0  0  0  0  0
  1  2  2  0  0  0  0
  1 13  1  0  0  0  0
  2  3  1  0  0  0  0
  3  4  1  0  0  0  0
  4  9  1  0  0  0  0
  5  4  2  0  0  0  0
  6  5  1  0  0  0  0
  6  7  2  0  0  0  0
  7  8  1  0  0  0  0
  8  9  2  0  0  0  0
  8 10  1  0  0  0  0
  9 22  1  0  0  0  0
 11  2  1  0  0  0  0
 11  5  1  0  0  0  0
 12 11  2  0  0  0  0
 13 14  1  0  0  0  0
 14 15  2  0  0  0  0
 15 16  1  0  0  0  0
 17 15  1  0  0  0  0
 18 17  2  0  0  0  0
 19 18  1  0  0  0  0
 19 13  2  0  0  0  0
 20 19  1  0  0  0  0
 21 20  1  0  0  0  0
 22 23  1  0  0  0  0
 23 28  1  0  0  0  0
 24 23  1  0  0  0  0
 24 25  1  0  0  0  0
 25 26  1  0  0  0  0
 26 27  1  0  0  0  0
 28 27  1  0  0  0  0
 29 23  1  0  0  0  0
M  END
>  <Pose>
1

>  <Score>
-8.575

$$$$
