/Users/jonathanwahrer/Desktop/Msc/3_Semester/Drug_Design_Praktikum/waehrer_HTS_screening/HTS_experiment/out/docking_results/vina_output/3npc/0107_docked.pdbqt
 OpenBabel03192219143D

 31 34  0  0  0  0  0  0  0  0999 V2000
   52.7640   86.4400   19.2380 C   0  0  0  0  0  0  0  0  0  0  0  0
   53.5270   86.4880   20.3510 N   0  0  0  0  0  4  0  0  0  0  0  0
   54.2180   87.5850   20.6830 C   0  0  0  0  0  0  0  0  0  0  0  0
   54.1400   88.6570   19.8780 N   0  0  0  0  0  0  0  0  0  0  0  0
   53.3920   88.6790   18.7430 C   0  0  0  0  0  0  0  0  0  0  0  0
   52.7170   87.5290   18.4690 N   0  0  0  0  0  2  0  0  0  0  0  0
   52.0170   85.2920   18.8560 N   0  0  0  0  0  0  0  0  0  0  0  0
   50.9650   85.2740   18.9430 H   0  0  0  0  0  0  0  0  0  0  0  0
   52.6150   84.1360   18.3520 N   0  0  0  0  0  0  0  0  0  0  0  0
   53.6380   84.1370   17.5830 C   0  0  0  0  0  3  0  0  0  0  0  0
   54.2500   82.9190   17.0650 C   0  0  0  0  0  0  0  0  0  0  0  0
   54.1920   82.5950   15.7320 C   0  0  0  0  0  3  0  0  0  0  0  0
   54.7740   81.4410   15.2540 C   0  0  0  0  0  0  0  0  0  0  0  0
   54.6920   80.9920   13.4040 Br  0  0  0  0  0  0  0  0  0  0  0  0
   55.4400   80.5610   16.0970 C   0  0  0  0  0  3  0  0  0  0  0  0
   55.5020   80.8820   17.4440 C   0  0  0  0  0  3  0  0  0  0  0  0
   54.9070   82.0550   17.9150 C   0  0  0  0  0  0  0  0  0  0  0  0
   54.9520   82.4070   19.2590 O   0  0  0  0  0  0  0  0  0  0  0  0
   54.3090   81.6820   20.2810 C   0  0  0  0  0  1  0  0  0  0  0  0
   55.0210   87.6350   21.8530 N   0  0  0  0  0  0  0  0  0  0  0  0
   54.9630   86.6150   22.8770 C   0  0  0  0  0  2  0  0  0  0  0  0
   54.9920   87.2290   24.2690 C   0  0  0  0  0  2  0  0  0  0  0  0
   55.9750   88.2220   24.3460 O   0  0  0  0  0  0  0  0  0  0  0  0
   55.7310   89.2490   23.4660 C   0  0  0  0  0  2  0  0  0  0  0  0
   55.9410   88.7310   22.0600 C   0  0  0  0  0  2  0  0  0  0  0  0
   53.3150   89.8050   17.9040 N   0  0  0  0  0  0  0  0  0  0  0  0
   54.0250   89.8600   16.6610 C   0  0  0  0  0  2  0  0  0  0  0  0
   54.8440   91.1490   16.6710 C   0  0  0  0  0  2  0  0  0  0  0  0
   53.9570   92.1900   16.8870 O   0  0  0  0  0  0  0  0  0  0  0  0
   53.3990   92.1700   18.1440 C   0  0  0  0  0  2  0  0  0  0  0  0
   52.5150   90.9310   18.2870 C   0  0  0  0  0  2  0  0  0  0  0  0
  1  2  2  0  0  0  0
  2  3  2  0  0  0  0
  3 20  1  0  0  0  0
  4  3  1  0  0  0  0
  5  4  2  0  0  0  0
  6  5  1  0  0  0  0
  6  1  1  0  0  0  0
  7  8  1  0  0  0  0
  7  1  1  0  0  0  0
  9  7  1  0  0  0  0
 10  9  2  0  0  0  0
 11 10  1  0  0  0  0
 11 17  1  0  0  0  0
 12 11  2  0  0  0  0
 13 12  1  0  0  0  0
 13 15  2  0  0  0  0
 14 13  1  0  0  0  0
 15 16  1  0  0  0  0
 16 17  2  0  0  0  0
 17 18  1  0  0  0  0
 18 19  1  0  0  0  0
 20 25  1  0  0  0  0
 20 21  1  0  0  0  0
 21 22  1  0  0  0  0
 22 23  1  0  0  0  0
 24 23  1  0  0  0  0
 25 24  1  0  0  0  0
 26 31  1  0  0  0  0
 26  5  1  0  0  0  0
 27 28  1  0  0  0  0
 27 26  1  0  0  0  0
 28 29  1  0  0  0  0
 29 30  1  0  0  0  0
 30 31  1  0  0  0  0
M  END
>  <Pose>
1

>  <Score>
-8.683

$$$$
