/Users/jonathanwahrer/Desktop/Msc/3_Semester/Drug_Design_Praktikum/waehrer_HTS_screening/HTS_experiment/out/docking_results/vina_output/3npc/0127_docked.pdbqt
 OpenBabel03192219143D

 29 32  0  0  0  0  0  0  0  0999 V2000
   50.5650   98.8280   28.0840 N   0  0  0  0  0  0  0  0  0  0  0  0
   51.1210  100.1160   27.8950 C   0  0  0  0  0  2  0  0  0  0  0  0
   50.3820  101.2410   28.5110 C   0  0  0  0  0  2  0  0  0  0  0  0
   50.1250  100.9950   29.8940 N   0  0  0  0  0  0  0  0  0  0  0  0
   50.1460   99.6400   30.3640 C   0  0  0  0  0  2  0  0  0  0  0  0
   49.8490   98.6150   29.2940 C   0  0  0  0  0  2  0  0  0  0  0  0
   49.8260  102.0400   30.8080 C   0  0  0  0  0  0  0  0  0  0  0  0
   48.5510  102.3960   30.9540 C   0  0  0  0  0  0  0  0  0  0  0  0
   47.3200  101.9760   30.3930 N   0  0  0  0  0  0  0  0  0  0  0  0
   48.2830  103.4870   31.9170 C   0  0  0  0  0  0  0  0  0  0  0  0
   46.3390  102.7900   31.0020 N   0  0  0  0  0  0  0  0  0  0  0  0
   47.1180  100.9380   29.4110 C   0  0  0  0  0  1  0  0  0  0  0  0
   46.9720  103.6770   31.9040 C   0  0  0  0  0  0  0  0  0  0  0  0
   45.3270  102.6960   30.7720 H   0  0  0  0  0  0  0  0  0  0  0  0
   46.3120  104.7040   32.7530 C   0  0  0  0  0  1  0  0  0  0  0  0
   49.3600  104.0920   32.6240 N   0  0  0  0  0  0  0  0  0  0  0  0
   50.5760  103.7090   32.4470 C   0  0  0  0  0  3  0  0  0  0  0  0
   50.8910  102.6760   31.5440 N   0  0  0  0  0  0  0  0  0  0  0  0
   51.8520  102.3350   31.3670 H   0  0  0  0  0  0  0  0  0  0  0  0
   51.3120   97.7360   27.5950 C   0  0  0  0  0  2  0  0  0  0  0  0
   52.6890   97.6830   28.0880 C   0  0  0  0  0  0  0  0  0  0  0  0
   52.9530   98.1640   29.2190 O   0  0  0  0  0  0  0  0  0  0  0  0
   53.7180   97.0730   27.2520 C   0  0  0  0  0  0  0  0  0  0  0  0
   54.8680   97.7540   26.9490 C   0  0  0  0  0  3  0  0  0  0  0  0
   55.8670   97.2040   26.1560 C   0  0  0  0  0  0  0  0  0  0  0  0
   57.4630   98.1520   25.7400 Br  0  0  0  0  0  0  0  0  0  0  0  0
   55.6980   95.9320   25.6540 C   0  0  0  0  0  3  0  0  0  0  0  0
   54.5280   95.2530   25.9690 C   0  0  0  0  0  3  0  0  0  0  0  0
   53.5450   95.8020   26.7530 C   0  0  0  0  0  3  0  0  0  0  0  0
  1  6  1  0  0  0  0
  2  1  1  0  0  0  0
  2  3  1  0  0  0  0
  3  4  1  0  0  0  0
  4  5  1  0  0  0  0
  4  7  1  0  0  0  0
  6  5  1  0  0  0  0
  7  8  2  0  0  0  0
  7 18  1  0  0  0  0
  8 10  1  0  0  0  0
  9  8  1  0  0  0  0
  9 11  1  0  0  0  0
 10 16  1  0  0  0  0
 11 13  1  0  0  0  0
 12  9  1  0  0  0  0
 13 10  2  0  0  0  0
 13 15  1  0  0  0  0
 14 11  1  0  0  0  0
 17 16  2  0  0  0  0
 18 17  1  0  0  0  0
 19 18  1  0  0  0  0
 20  1  1  0  0  0  0
 20 21  1  0  0  0  0
 21 22  2  0  0  0  0
 23 21  1  0  0  0  0
 24 23  1  0  0  0  0
 25 24  2  0  0  0  0
 26 25  1  0  0  0  0
 27 28  2  0  0  0  0
 27 25  1  0  0  0  0
 28 29  1  0  0  0  0
 29 23  2  0  0  0  0
M  END
>  <Pose>
1

>  <Score>
-8.631

$$$$
