/Users/jonathanwahrer/Desktop/Msc/3_Semester/Drug_Design_Praktikum/waehrer_HTS_screening/HTS_experiment/out/docking_results/vina_output/3npc/0129_docked.pdbqt
 OpenBabel03192219153D

 31 34  0  0  1  0  0  0  0  0999 V2000
   54.7390   85.8290   25.2330 C   0  0  0  0  0  0  0  0  0  0  0  0
   54.9290   86.4400   26.3300 O   0  0  0  0  0  0  0  0  0  0  0  0
   53.5420   85.0890   25.0140 N   0  0  0  0  0  0  0  0  0  0  0  0
   53.3500   84.2460   23.8610 C   0  0  0  0  0  2  0  0  0  0  0  0
   53.2750   82.8300   24.4790 C   0  0  0  0  0  2  0  0  0  0  0  0
   51.9230   82.7720   25.1370 C   0  0  2  0  0  0  0  0  0  0  0  0
   51.9500   81.6200   26.0360 N   0  0  0  0  0  0  0  0  0  0  0  0
   52.2650   80.4050   25.3820 C   0  0  0  0  0  2  0  0  0  0  0  0
   51.2270   79.9960   24.3520 C   0  0  0  0  0  2  0  0  0  0  0  0
   50.6210   81.1650   23.6890 C   0  0  0  0  0  0  0  0  0  0  0  0
   49.7240   81.2060   22.6890 N   0  0  0  0  0  0  0  0  0  0  0  0
   49.4690   82.5070   22.4300 C   0  0  0  0  0  3  0  0  0  0  0  0
   50.2170   83.2600   23.2770 N   0  0  0  0  0  0  0  0  0  0  0  0
   50.9470   82.4520   24.0710 C   0  0  0  0  0  0  0  0  0  0  0  0
   51.5490   83.9720   25.9340 C   0  0  0  0  0  3  0  0  0  0  0  0
   52.4760   85.1390   25.9500 C   0  0  0  0  0  3  0  0  0  0  0  0
   51.0780   81.5550   26.6220 H   0  0  0  0  0  0  0  0  0  0  0  0
   50.1470   84.2960   23.2240 H   0  0  0  0  0  0  0  0  0  0  0  0
   55.8040   85.9170   24.2440 C   0  0  2  0  0  3  0  0  0  0  0  0
   57.1540   85.9230   24.9420 C   0  0  0  0  0  1  0  0  0  0  0  0
   55.6250   86.9430   23.2820 N   0  0  0  0  0  0  0  0  0  0  0  0
   55.4280   86.7390   21.9200 C   0  0  0  0  0  0  0  0  0  0  0  0
   55.3260   85.7070   21.2790 O   0  0  0  0  0  0  0  0  0  0  0  0
   55.5930   87.9340   23.6690 H   0  0  0  0  0  0  0  0  0  0  0  0
   55.3430   88.0220   21.1270 C   0  0  0  0  0  0  0  0  0  0  0  0
   54.1700   88.2650   20.4470 C   0  0  0  0  0  3  0  0  0  0  0  0
   54.0590   89.4000   19.6790 C   0  0  0  0  0  0  0  0  0  0  0  0
   52.4160   89.7540   18.7370 Br  0  0  0  0  0  0  0  0  0  0  0  0
   55.0900   90.3090   19.5630 C   0  0  0  0  0  3  0  0  0  0  0  0
   56.2570   90.0110   20.2710 C   0  0  0  0  0  3  0  0  0  0  0  0
   56.3860   88.8890   21.0420 C   0  0  0  0  0  3  0  0  0  0  0  0
  1  2  2  0  0  0  0
  3  1  1  0  0  0  0
  3 16  1  0  0  0  0
  4  5  1  0  0  0  0
  4  3  1  0  0  0  0
  6  5  1  6  0  0  0
  6 15  1  0  0  0  0
  6  7  1  0  0  0  0
  7 17  1  0  0  0  0
  8  7  1  0  0  0  0
  9  8  1  0  0  0  0
 10 14  2  0  0  0  0
 10  9  1  0  0  0  0
 11 10  1  0  0  0  0
 12 11  2  0  0  0  0
 12 13  1  0  0  0  0
 13 14  1  0  0  0  0
 14  6  1  0  0  0  0
 15 16  2  0  0  0  0
 18 13  1  0  0  0  0
 19 20  1  1  0  0  0
 19  1  1  0  0  0  0
 21 24  1  0  0  0  0
 21 19  1  0  0  0  0
 22 21  1  0  0  0  0
 23 22  2  0  0  0  0
 25 22  1  0  0  0  0
 26 25  2  0  0  0  0
 27 26  1  0  0  0  0
 28 27  1  0  0  0  0
 29 27  2  0  0  0  0
 29 30  1  0  0  0  0
 30 31  2  0  0  0  0
 31 25  1  0  0  0  0
M  END
>  <Pose>
1

>  <Score>
-8.733

$$$$
