/Users/jonathanwahrer/Desktop/Msc/3_Semester/Drug_Design_Praktikum/waehrer_HTS_screening/HTS_experiment/out/docking_results/vina_output/3npc/0138_docked.pdbqt
 OpenBabel03192219153D

 25 28  0  0  1  0  0  0  0  0999 V2000
   50.2990  100.1280   28.5430 C   0  0  2  0  0  3  0  0  0  0  0  0
   50.6000  100.8790   29.7980 C   0  0  0  0  0  2  0  0  0  0  0  0
   49.3590  101.6370   30.0320 N   0  0  0  0  0  0  0  0  0  0  0  0
   48.3080  101.1100   29.1730 C   0  0  1  0  0  3  0  0  0  0  0  0
   48.8260   99.7620   28.7750 C   0  0  0  0  0  2  0  0  0  0  0  0
   47.0700  101.0770   29.9470 C   0  0  0  0  0  0  0  0  0  0  0  0
   46.2450  100.1680   29.7940 O   0  0  0  0  0  0  0  0  0  0  0  0
   46.8030  102.1140   30.9010 N   0  0  0  0  0  0  0  0  0  0  0  0
   47.6680  103.2670   30.8440 C   0  0  1  0  0  3  0  0  0  0  0  0
   47.3490  104.2040   31.9360 C   0  0  0  0  0  2  0  0  0  0  0  0
   45.9710  103.7430   32.3680 C   0  0  0  0  0  2  0  0  0  0  0  0
   45.8520  102.3160   31.9510 C   0  0  0  0  0  2  0  0  0  0  0  0
   49.0680  102.7220   30.9080 C   0  0  0  0  0  0  0  0  0  0  0  0
   49.9250  103.1950   31.6870 O   0  0  0  0  0  0  0  0  0  0  0  0
   51.1140   98.9960   28.3030 N   0  0  0  0  0  0  0  0  0  0  0  0
   52.2500   99.0980   27.4710 C   0  0  0  0  0  0  0  0  0  0  0  0
   52.5350  100.2260   26.9350 O   0  0  0  0  0  0  0  0  0  0  0  0
   50.8870   98.0820   28.7360 H   0  0  0  0  0  0  0  0  0  0  0  0
   53.1580   98.0100   27.1530 C   0  0  0  0  0  0  0  0  0  0  0  0
   54.4470   98.2110   26.7290 C   0  0  0  0  0  3  0  0  0  0  0  0
   55.3140   97.1940   26.4250 C   0  0  0  0  0  0  0  0  0  0  0  0
   57.0940   97.5120   25.8390 Br  0  0  0  0  0  0  0  0  0  0  0  0
   54.8890   95.8890   26.5460 C   0  0  0  0  0  3  0  0  0  0  0  0
   53.5950   95.6350   26.9720 C   0  0  0  0  0  3  0  0  0  0  0  0
   52.7400   96.7060   27.2720 C   0  0  0  0  0  3  0  0  0  0  0  0
  1 15  1  1  0  0  0
  1  5  1  0  0  0  0
  1  2  1  0  0  0  0
  2  3  1  0  0  0  0
  3 13  1  0  0  0  0
  4  5  1  1  0  0  0
  4  6  1  0  0  0  0
  4  3  1  0  0  0  0
  6  8  1  0  0  0  0
  7  6  2  0  0  0  0
  8 12  1  0  0  0  0
  9  8  1  0  0  0  0
  9 13  1  0  0  0  0
  9 10  1  1  0  0  0
 10 11  1  0  0  0  0
 12 11  1  0  0  0  0
 13 14  2  0  0  0  0
 15 18  1  0  0  0  0
 16 15  1  0  0  0  0
 17 16  2  0  0  0  0
 19 25  1  0  0  0  0
 19 16  1  0  0  0  0
 20 19  2  0  0  0  0
 21 23  2  0  0  0  0
 21 20  1  0  0  0  0
 22 21  1  0  0  0  0
 23 24  1  0  0  0  0
 24 25  2  0  0  0  0
M  END
>  <Pose>
1

>  <Score>
-8.774

$$$$
