/Users/jonathanwahrer/Desktop/Msc/3_Semester/Drug_Design_Praktikum/waehrer_HTS_screening/HTS_experiment/out/docking_results/vina_output/3npc/0152_docked.pdbqt
 OpenBabel03192219163D

 27 30  0  0  0  0  0  0  0  0999 V2000
   52.2230   86.4120   18.4200 C   0  0  0  0  0  3  0  0  0  0  0  0
   52.6870   87.5840   18.8700 C   0  0  0  0  0  0  0  0  0  0  0  0
   53.7070   87.7590   19.7090 O   0  0  0  0  0  0  0  0  0  0  0  0
   53.9200   89.1430   19.9270 C   0  0  0  0  0  0  0  0  0  0  0  0
   53.0350   89.8860   19.2230 C   0  0  0  0  0  0  0  0  0  0  0  0
   53.1590   91.2730   19.2700 C   0  0  0  0  0  3  0  0  0  0  0  0
   54.1310   91.8540   20.0230 C   0  0  0  0  0  3  0  0  0  0  0  0
   54.9990   91.0700   20.7550 C   0  0  0  0  0  0  0  0  0  0  0  0
   54.9390   89.6970   20.7510 C   0  0  0  0  0  0  0  0  0  0  0  0
   55.9730   91.7130   21.5220 O   0  0  0  0  0  1  0  0  0  0  0  0
   52.1780   88.9130   18.5060 C   0  0  0  0  0  0  0  0  0  0  0  0
   51.2200   89.1730   17.7550 O   0  0  0  0  0  0  0  0  0  0  0  0
   52.8690   85.1420   18.8490 C   0  0  0  0  0  0  0  0  0  0  0  0
   53.8190   84.5440   18.0070 C   0  0  0  0  0  3  0  0  0  0  0  0
   54.1930   83.2020   18.1570 C   0  0  0  0  0  0  0  0  0  0  0  0
   55.4760   82.4940   16.9350 Br  0  0  0  0  0  0  0  0  0  0  0  0
   53.6510   82.4390   19.1260 C   0  0  0  0  0  3  0  0  0  0  0  0
   52.6890   83.0060   20.0030 C   0  0  0  0  0  3  0  0  0  0  0  0
   52.3310   84.3610   19.8300 C   0  0  0  0  0  3  0  0  0  0  0  0
   55.4230   88.7770   21.7610 C   0  0  0  0  0  2  0  0  0  0  0  0
   56.2070   88.7220   22.8560 N   0  0  0  0  0  4  0  0  0  0  0  0
   55.8360   88.9750   24.1790 C   0  0  0  0  0  2  0  0  0  0  0  0
   55.4720   87.7070   24.9810 C   0  0  0  0  0  2  0  0  0  0  0  0
   56.5370   86.8600   25.1760 O   0  0  0  0  0  0  0  0  0  0  0  0
   57.3220   86.8210   24.0180 C   0  0  0  0  0  2  0  0  0  0  0  0
   56.6110   87.2200   22.8340 C   0  0  0  0  0  2  0  0  0  0  0  0
   57.1520   89.2220   22.6500 H   0  0  0  0  0  0  0  0  0  0  0  0
  1 13  1  0  0  0  0
  1  2  2  0  0  0  0
  2  3  1  0  0  0  0
  3  4  1  0  0  0  0
  4  9  1  0  0  0  0
  5  6  1  0  0  0  0
  5  4  2  0  0  0  0
  6  7  2  0  0  0  0
  7  8  1  0  0  0  0
  8 10  1  0  0  0  0
  9  8  2  0  0  0  0
  9 20  1  0  0  0  0
 11  2  1  0  0  0  0
 11  5  1  0  0  0  0
 12 11  2  0  0  0  0
 13 19  1  0  0  0  0
 14 15  1  0  0  0  0
 14 13  2  0  0  0  0
 15 17  2  0  0  0  0
 16 15  1  0  0  0  0
 17 18  1  0  0  0  0
 19 18  2  0  0  0  0
 20 21  1  0  0  0  0
 21 22  1  0  0  0  0
 22 23  1  0  0  0  0
 23 24  1  0  0  0  0
 25 24  1  0  0  0  0
 26 21  1  0  0  0  0
 26 25  1  0  0  0  0
 27 21  1  0  0  0  0
M  END
>  <Pose>
1

>  <Score>
-8.798

$$$$
