/Users/jonathanwahrer/Desktop/Msc/3_Semester/Drug_Design_Praktikum/waehrer_HTS_screening/HTS_experiment/out/docking_results/vina_output/3npc/0153_docked.pdbqt
 OpenBabel03192219163D

 34 37  0  0  0  0  0  0  0  0999 V2000
   55.0420   86.3710   23.9630 C   0  0  0  0  0  0  0  0  0  0  0  0
   55.2810   87.0780   25.0140 N   0  0  0  0  0  0  0  0  0  0  0  0
   54.6620   86.5510   26.0660 N   0  0  0  0  0  0  0  0  0  0  0  0
   53.9810   85.4470   25.6600 N   0  0  0  0  0  0  0  0  0  0  0  0
   54.1990   85.2750   24.3990 C   0  0  0  0  0  0  0  0  0  0  0  0
   55.3360   86.6220   22.4900 C   0  0  0  0  0  0  0  0  0  0  0  0
   54.6220   87.6380   21.9250 N   0  0  0  0  0  0  0  0  0  0  0  0
   54.0330   88.1250   22.8810 H   0  0  0  0  0  0  0  0  0  0  0  0
   56.2010   85.8930   21.9570 O   0  0  0  0  0  0  0  0  0  0  0  0
   54.2480   88.4260   20.9410 N   0  0  0  0  0  0  0  0  0  0  0  0
   55.0040   89.1070   20.1250 C   0  0  0  0  0  3  0  0  0  0  0  0
   54.4540   89.9770   19.0680 C   0  0  0  0  0  0  0  0  0  0  0  0
   53.1510   90.4330   19.0120 C   0  0  0  0  0  3  0  0  0  0  0  0
   52.7950   91.3620   18.0350 C   0  0  0  0  0  0  0  0  0  0  0  0
   51.0170   92.0740   17.9260 Br  0  0  0  0  0  0  0  0  0  0  0  0
   53.6870   91.8670   17.0960 C   0  0  0  0  0  3  0  0  0  0  0  0
   54.9600   91.3680   17.1940 C   0  0  0  0  0  3  0  0  0  0  0  0
   55.3530   90.4620   18.1360 C   0  0  0  0  0  3  0  0  0  0  0  0
   53.8320   84.2780   23.3990 C   0  0  0  0  0  2  0  0  0  0  0  0
   52.6010   83.6290   23.3790 N   0  0  0  0  0  0  0  0  0  0  0  0
   51.3290   83.9740   23.1220 C   0  0  0  0  0  2  0  0  0  0  0  0
   50.9140   83.3410   21.7660 C   0  0  0  0  0  2  0  0  0  0  0  0
   52.1010   83.1380   21.0150 N   0  0  0  0  0  0  0  0  0  0  0  0
   52.8870   82.0790   21.5710 C   0  0  0  0  0  2  0  0  0  0  0  0
   52.0630   83.2260   19.6160 C   0  0  0  0  0  1  0  0  0  0  0  0
   52.7780   82.1730   23.0990 C   0  0  0  0  0  2  0  0  0  0  0  0
   52.8840   85.0080   26.5100 C   0  0  0  0  0  0  0  0  0  0  0  0
   53.2300   83.9010   27.3690 N   0  0  0  0  0  0  0  0  0  0  0  0
   52.2580   83.5570   28.0720 O   0  0  0  0  0  0  0  0  0  0  0  0
   51.2420   84.3140   27.7910 N   0  0  0  0  0  0  0  0  0  0  0  0
   51.6500   85.2190   26.8130 C   0  0  0  0  0  0  0  0  0  0  0  0
   50.7310   86.1710   26.3270 N   0  0  0  0  0  0  0  0  0  0  0  0
   50.5020   86.9370   27.0530 H   0  0  0  0  0  0  0  0  0  0  0  0
   50.2590   86.2660   25.4490 H   0  0  0  0  0  0  0  0  0  0  0  0
  1  5  2  0  0  0  0
  1  2  1  0  0  0  0
  2  3  2  0  0  0  0
  4  3  1  0  0  0  0
  4 27  1  0  0  0  0
  5  4  1  0  0  0  0
  6  1  1  0  0  0  0
  7  6  1  0  0  0  0
  7  8  1  0  0  0  0
  9  6  2  0  0  0  0
 10  7  1  0  0  0  0
 11 10  2  0  0  0  0
 12 11  1  0  0  0  0
 13 12  1  0  0  0  0
 14 13  2  0  0  0  0
 15 14  1  0  0  0  0
 16 17  2  0  0  0  0
 16 14  1  0  0  0  0
 17 18  1  0  0  0  0
 18 12  2  0  0  0  0
 19  5  1  0  0  0  0
 20 19  1  0  0  0  0
 21 20  1  0  0  0  0
 22 21  1  0  0  0  0
 23 24  1  0  0  0  0
 23 22  1  0  0  0  0
 24 26  1  0  0  0  0
 25 23  1  0  0  0  0
 26 20  1  0  0  0  0
 27 31  1  0  0  0  0
 27 28  2  0  0  0  0
 28 29  1  0  0  0  0
 30 29  1  0  0  0  0
 31 30  2  0  0  0  0
 32 31  1  0  0  0  0
 32 33  1  0  0  0  0
 34 32  1  0  0  0  0
M  END
>  <Pose>
1

>  <Score>
-8.669

$$$$
