/Users/jonathanwahrer/Desktop/Msc/3_Semester/Drug_Design_Praktikum/waehrer_HTS_screening/HTS_experiment/out/docking_results/vina_output/3npc/0167_docked.pdbqt
 OpenBabel03192219173D

 35 38  0  0  1  0  0  0  0  0999 V2000
   52.7530   84.1890   19.3710 C   0  0  1  0  0  3  0  0  0  0  0  0
   53.7260   83.5550   18.5640 N   0  0  0  0  0  0  0  0  0  0  0  0
   54.3820   82.5430   19.3110 C   0  0  0  0  0  0  0  0  0  0  0  0
   55.3680   81.8570   18.8990 O   0  0  0  0  0  0  0  0  0  0  0  0
   53.7330   82.4290   20.5990 C   0  0  0  0  0  0  0  0  0  0  0  0
   54.1220   81.6010   21.4660 O   0  0  0  0  0  0  0  0  0  0  0  0
   52.6580   83.4030   20.6280 C   0  0  0  0  0  0  0  0  0  0  0  0
   51.8180   83.5570   21.6270 C   0  0  0  0  0  0  0  0  0  0  0  0
   50.8810   84.5620   21.5650 O   0  0  0  0  0  1  0  0  0  0  0  0
   53.1090   85.5900   19.6220 C   0  0  0  0  0  0  0  0  0  0  0  0
   52.5220   86.5680   18.8400 C   0  0  0  0  0  3  0  0  0  0  0  0
   52.7300   87.9090   18.9570 C   0  0  0  0  0  0  0  0  0  0  0  0
   51.8900   89.2170   17.8490 Br  0  0  0  0  0  0  0  0  0  0  0  0
   53.6210   88.3200   19.9620 C   0  0  0  0  0  3  0  0  0  0  0  0
   54.2260   87.3650   20.7600 C   0  0  0  0  0  3  0  0  0  0  0  0
   53.9900   86.0120   20.6140 C   0  0  0  0  0  3  0  0  0  0  0  0
   51.8580   82.6900   22.7780 C   0  0  0  0  0  0  0  0  0  0  0  0
   52.5300   83.0020   23.9730 C   0  0  0  0  0  0  0  0  0  0  0  0
   52.3430   82.0110   24.8530 N   0  0  0  0  0  0  0  0  0  0  0  0
   53.3140   84.2540   24.1830 C   0  0  0  0  0  1  0  0  0  0  0  0
   51.5890   81.1040   24.2590 N   0  0  0  0  0  0  0  0  0  0  0  0
   51.2740   81.4760   23.0100 C   0  0  0  0  0  3  0  0  0  0  0  0
   52.8380   81.9350   26.1820 C   0  0  0  0  0  0  0  0  0  0  0  0
   52.0440   82.4050   27.2190 C   0  0  0  0  0  3  0  0  0  0  0  0
   52.4570   82.3530   28.5360 C   0  0  0  0  0  3  0  0  0  0  0  0
   53.7000   81.8200   28.8770 C   0  0  0  0  0  3  0  0  0  0  0  0
   54.4920   81.3510   27.8440 C   0  0  0  0  0  3  0  0  0  0  0  0
   54.0590   81.4150   26.5450 C   0  0  0  0  0  3  0  0  0  0  0  0
   54.0350   83.8500   17.1360 C   0  0  0  0  0  2  0  0  0  0  0  0
   53.2870   82.8890   16.2480 C   0  0  0  0  0  2  0  0  0  0  0  0
   54.1790   81.9530   15.4970 C   0  0  0  0  0  2  0  0  0  0  0  0
   54.5880   80.7770   16.1920 N   0  0  0  0  0  4  0  0  0  0  0  0
   53.6190   79.7380   16.3060 C   0  0  0  0  0  1  0  0  0  0  0  0
   55.7840   80.2030   15.5540 C   0  0  0  0  0  1  0  0  0  0  0  0
   54.9170   81.0390   17.1700 H   0  0  0  0  0  0  0  0  0  0  0  0
  1 10  1  1  0  0  0
  1  7  1  0  0  0  0
  2  3  1  0  0  0  0
  2  1  1  0  0  0  0
  3  5  1  0  0  0  0
  4  3  2  0  0  0  0
  5  7  1  0  0  0  0
  5  6  2  0  0  0  0
  7  8  2  0  0  0  0
  8 17  1  0  0  0  0
  9  8  1  0  0  0  0
 10 16  1  0  0  0  0
 11 12  1  0  0  0  0
 11 10  2  0  0  0  0
 12 14  2  0  0  0  0
 13 12  1  0  0  0  0
 14 15  1  0  0  0  0
 16 15  2  0  0  0  0
 17 22  1  0  0  0  0
 17 18  2  0  0  0  0
 18 20  1  0  0  0  0
 18 19  1  0  0  0  0
 19 23  1  0  0  0  0
 21 19  1  0  0  0  0
 22 21  2  0  0  0  0
 23 28  2  0  0  0  0
 23 24  1  0  0  0  0
 24 25  2  0  0  0  0
 25 26  1  0  0  0  0
 27 26  2  0  0  0  0
 28 27  1  0  0  0  0
 29  2  1  0  0  0  0
 30 29  1  0  0  0  0
 31 32  1  0  0  0  0
 31 30  1  0  0  0  0
 32 33  1  0  0  0  0
 32 35  1  0  0  0  0
 34 32  1  0  0  0  0
M  END
>  <Pose>
1

>  <Score>
-6.831

$$$$
