/Users/jonathanwahrer/Desktop/Msc/3_Semester/Drug_Design_Praktikum/waehrer_HTS_screening/HTS_experiment/out/docking_results/vina_output/3npc/0169_docked.pdbqt
 OpenBabel03192219183D

 37 40  0  0  1  0  0  0  0  0999 V2000
   52.4900   84.9950   25.8360 C   0  0  2  0  0  3  0  0  0  0  0  0
   53.9020   84.7680   26.0730 N   0  0  0  0  0  0  0  0  0  0  0  0
   53.9920   83.5500   26.7980 C   0  0  0  0  0  0  0  0  0  0  0  0
   54.9610   82.7590   26.8410 O   0  0  0  0  0  0  0  0  0  0  0  0
   52.7040   83.3780   27.5070 C   0  0  0  0  0  0  0  0  0  0  0  0
   52.3730   82.4370   28.2610 O   0  0  0  0  0  0  0  0  0  0  0  0
   51.9030   84.5400   27.1460 C   0  0  0  0  0  0  0  0  0  0  0  0
   50.9440   85.0530   27.8540 C   0  0  0  0  0  0  0  0  0  0  0  0
   50.3180   86.2220   27.3740 O   0  0  0  0  0  1  0  0  0  0  0  0
   52.0500   84.1020   24.7380 C   0  0  0  0  0  0  0  0  0  0  0  0
   52.7300   84.0460   23.5280 C   0  0  0  0  0  3  0  0  0  0  0  0
   52.3220   83.2240   22.4990 C   0  0  0  0  0  0  0  0  0  0  0  0
   53.3020   83.1960   20.8630 Br  0  0  0  0  0  0  0  0  0  0  0  0
   51.2130   82.4160   22.6260 C   0  0  0  0  0  3  0  0  0  0  0  0
   50.5220   82.4550   23.8170 C   0  0  0  0  0  3  0  0  0  0  0  0
   50.9380   83.2800   24.8400 C   0  0  0  0  0  3  0  0  0  0  0  0
   50.4420   84.5240   29.1140 C   0  0  0  0  0  0  0  0  0  0  0  0
   50.7760   84.7270   30.4110 C   0  0  0  0  0  0  0  0  0  0  0  0
   49.9330   84.0080   31.1810 N   0  0  0  0  0  0  0  0  0  0  0  0
   51.9060   85.5530   30.9530 C   0  0  0  0  0  1  0  0  0  0  0  0
   49.0510   83.3310   30.4340 C   0  0  0  0  0  0  0  0  0  0  0  0
   49.9740   83.9850   32.2410 H   0  0  0  0  0  0  0  0  0  0  0  0
   49.3470   83.6370   29.1320 C   0  0  0  0  0  0  0  0  0  0  0  0
   48.6240   83.1110   27.9360 C   0  0  0  0  0  1  0  0  0  0  0  0
   47.9780   82.4380   30.9150 C   0  0  0  0  0  0  0  0  0  0  0  0
   48.1870   81.2170   30.9700 O   0  0  0  0  0  0  0  0  0  0  0  0
   46.7540   82.9500   31.3010 O   0  0  0  0  0  0  0  0  0  0  0  0
   45.5520   82.7140   30.6050 C   0  0  0  0  0  1  0  0  0  0  0  0
   55.0220   85.6160   25.6580 C   0  0  0  0  0  2  0  0  0  0  0  0
   54.5730   87.0460   25.4460 C   0  0  0  0  0  2  0  0  0  0  0  0
   54.8120   87.5390   24.1290 N   0  0  0  0  0  4  0  0  0  0  0  0
   55.3580   86.5420   23.2160 C   0  0  0  0  0  2  0  0  0  0  0  0
   55.1290   87.0390   21.8140 C   0  0  0  0  0  2  0  0  0  0  0  0
   54.9920   88.4040   21.8310 O   0  0  0  0  0  0  0  0  0  0  0  0
   55.8980   89.0590   22.6470 C   0  0  0  0  0  2  0  0  0  0  0  0
   55.7670   88.6400   24.1110 C   0  0  0  0  0  2  0  0  0  0  0  0
   53.9330   87.9280   23.7440 H   0  0  0  0  0  0  0  0  0  0  0  0
  1 10  1  6  0  0  0
  1  2  1  0  0  0  0
  1  7  1  0  0  0  0
  2  3  1  0  0  0  0
  3  4  2  0  0  0  0
  3  5  1  0  0  0  0
  5  6  2  0  0  0  0
  7  5  1  0  0  0  0
  7  8  2  0  0  0  0
  8 17  1  0  0  0  0
  9  8  1  0  0  0  0
 10 16  1  0  0  0  0
 11 10  2  0  0  0  0
 12 14  2  0  0  0  0
 12 11  1  0  0  0  0
 13 12  1  0  0  0  0
 14 15  1  0  0  0  0
 15 16  2  0  0  0  0
 17 23  1  0  0  0  0
 17 18  2  0  0  0  0
 18 20  1  0  0  0  0
 18 19  1  0  0  0  0
 19 22  1  0  0  0  0
 21 25  1  0  0  0  0
 21 19  1  0  0  0  0
 23 21  2  0  0  0  0
 24 23  1  0  0  0  0
 25 26  2  0  0  0  0
 25 27  1  0  0  0  0
 28 27  1  0  0  0  0
 29  2  1  0  0  0  0
 30 29  1  0  0  0  0
 31 30  1  0  0  0  0
 32 31  1  0  0  0  0
 33 34  1  0  0  0  0
 33 32  1  0  0  0  0
 34 35  1  0  0  0  0
 35 36  1  0  0  0  0
 36 31  1  0  0  0  0
 37 31  1  0  0  0  0
M  END
>  <Pose>
1

>  <Score>
-6.955

$$$$
