/Users/jonathanwahrer/Desktop/Msc/3_Semester/Drug_Design_Praktikum/waehrer_HTS_screening/HTS_experiment/out/docking_results/vina_output/3npc/0170_docked.pdbqt
 OpenBabel03192219183D

 35 38  0  0  1  0  0  0  0  0999 V2000
   52.5130   84.5870   19.3080 C   0  0  1  0  0  3  0  0  0  0  0  0
   52.5570   84.0440   20.6520 N   0  0  0  0  0  0  0  0  0  0  0  0
   53.4570   84.7730   21.4570 C   0  0  0  0  0  0  0  0  0  0  0  0
   54.0180   84.4810   22.5440 O   0  0  0  0  0  0  0  0  0  0  0  0
   53.6640   86.0660   20.7570 C   0  0  0  0  0  0  0  0  0  0  0  0
   54.4040   86.9730   21.1880 O   0  0  0  0  0  0  0  0  0  0  0  0
   52.8610   86.0310   19.5480 C   0  0  0  0  0  0  0  0  0  0  0  0
   52.4790   87.0690   18.8500 C   0  0  0  0  0  0  0  0  0  0  0  0
   51.6410   86.8770   17.7380 O   0  0  0  0  0  1  0  0  0  0  0  0
   53.4660   83.9410   18.3890 C   0  0  0  0  0  0  0  0  0  0  0  0
   54.1630   82.8060   18.7390 C   0  0  0  0  0  3  0  0  0  0  0  0
   55.0590   82.2120   17.8570 C   0  0  0  0  0  0  0  0  0  0  0  0
   56.0140   80.6440   18.3620 Br  0  0  0  0  0  0  0  0  0  0  0  0
   55.2590   82.7640   16.6010 C   0  0  0  0  0  3  0  0  0  0  0  0
   54.5560   83.8990   16.2610 C   0  0  0  0  0  3  0  0  0  0  0  0
   53.6680   84.4850   17.1400 C   0  0  0  0  0  3  0  0  0  0  0  0
   52.8920   88.4080   19.1720 C   0  0  0  0  0  0  0  0  0  0  0  0
   54.2730   88.6520   19.2050 C   0  0  0  0  0  3  0  0  0  0  0  0
   54.7570   89.8860   19.5420 C   0  0  0  0  0  0  0  0  0  0  0  0
   53.9150   90.9430   19.8640 C   0  0  0  0  0  0  0  0  0  0  0  0
   56.2350   90.1290   19.5730 C   0  0  0  0  0  1  0  0  0  0  0  0
   52.5800   90.6830   19.8270 C   0  0  0  0  0  3  0  0  0  0  0  0
   52.0740   89.4440   19.4900 C   0  0  0  0  0  3  0  0  0  0  0  0
   54.4820   92.1570   20.1930 O   0  0  0  0  0  0  0  0  0  0  0  0
   54.5960   92.5640   21.5480 C   0  0  0  0  0  1  0  0  0  0  0  0
   51.7770   82.8970   21.1440 C   0  0  0  0  0  2  0  0  0  0  0  0
   50.6340   83.3830   21.9910 C   0  0  0  0  0  2  0  0  0  0  0  0
   50.6460   82.9070   23.4030 C   0  0  0  0  0  2  0  0  0  0  0  0
   51.8460   83.2670   24.1270 N   0  0  0  0  0  4  0  0  0  0  0  0
   51.6410   84.4330   24.9640 C   0  0  0  0  0  2  0  0  0  0  0  0
   51.7860   84.0790   26.4190 C   0  0  0  0  0  2  0  0  0  0  0  0
   53.1010   83.6110   26.6180 O   0  0  0  0  0  0  0  0  0  0  0  0
   53.3100   82.4300   25.9100 C   0  0  0  0  0  2  0  0  0  0  0  0
   52.2220   82.1050   24.9380 C   0  0  0  0  0  2  0  0  0  0  0  0
   52.6660   83.4410   23.5090 H   0  0  0  0  0  0  0  0  0  0  0  0
  1 10  1  6  0  0  0
  1  7  1  0  0  0  0
  1  2  1  0  0  0  0
  2 26  1  0  0  0  0
  2  3  1  0  0  0  0
  3  4  2  0  0  0  0
  5  6  2  0  0  0  0
  5  3  1  0  0  0  0
  7  5  1  0  0  0  0
  8 17  1  0  0  0  0
  8  7  2  0  0  0  0
  9  8  1  0  0  0  0
 10 11  1  0  0  0  0
 12 13  1  0  0  0  0
 12 11  2  0  0  0  0
 14 12  1  0  0  0  0
 15 14  2  0  0  0  0
 15 16  1  0  0  0  0
 16 10  2  0  0  0  0
 17 18  2  0  0  0  0
 17 23  1  0  0  0  0
 18 19  1  0  0  0  0
 19 21  1  0  0  0  0
 19 20  2  0  0  0  0
 20 24  1  0  0  0  0
 22 20  1  0  0  0  0
 23 22  2  0  0  0  0
 24 25  1  0  0  0  0
 26 27  1  0  0  0  0
 27 28  1  0  0  0  0
 28 29  1  0  0  0  0
 29 34  1  0  0  0  0
 29 30  1  0  0  0  0
 30 31  1  0  0  0  0
 31 32  1  0  0  0  0
 33 32  1  0  0  0  0
 34 33  1  0  0  0  0
 35 29  1  0  0  0  0
M  END
>  <Pose>
1

>  <Score>
-8.288

$$$$
