/Users/jonathanwahrer/Desktop/Msc/3_Semester/Drug_Design_Praktikum/waehrer_HTS_screening/HTS_experiment/out/docking_results/vina_output/3npc/0176_docked.pdbqt
 OpenBabel03192219193D

 33 36  0  0  1  0  0  0  0  0999 V2000
   52.7930   85.0230   20.0570 C   0  0  1  0  0  3  0  0  0  0  0  0
   53.2130   84.9230   21.4450 N   0  0  0  0  0  0  0  0  0  0  0  0
   54.2790   85.8770   21.6300 C   0  0  0  0  0  0  0  0  0  0  0  0
   55.1010   85.8560   22.5790 O   0  0  0  0  0  0  0  0  0  0  0  0
   54.1960   86.8220   20.5360 C   0  0  0  0  0  0  0  0  0  0  0  0
   54.9430   87.8240   20.3060 O   0  0  0  0  0  0  0  0  0  0  0  0
   53.0730   86.4250   19.6980 C   0  0  0  0  0  0  0  0  0  0  0  0
   52.4870   87.1910   18.7890 C   0  0  0  0  0  0  0  0  0  0  0  0
   51.4560   86.5470   18.0730 O   0  0  0  0  0  1  0  0  0  0  0  0
   52.7260   83.9770   22.3970 C   0  0  0  0  0  2  0  0  0  0  0  0
   51.5050   84.2860   23.1620 C   0  0  0  0  0  2  0  0  0  0  0  0
   51.5070   84.1850   24.6420 C   0  0  0  0  0  2  0  0  0  0  0  0
   52.1980   85.1830   25.3860 N   0  0  0  0  0  4  0  0  0  0  0  0
   51.6680   85.2870   26.7220 C   0  0  0  0  0  2  0  0  0  0  0  0
   52.4040   84.4260   27.7280 C   0  0  0  0  0  2  0  0  0  0  0  0
   53.7150   84.8820   27.8790 O   0  0  0  0  0  0  0  0  0  0  0  0
   54.1420   85.5590   26.7350 C   0  0  0  0  0  2  0  0  0  0  0  0
   53.6310   84.7880   25.5490 C   0  0  0  0  0  2  0  0  0  0  0  0
   52.2570   86.0740   24.9000 H   0  0  0  0  0  0  0  0  0  0  0  0
   53.5300   84.0480   19.2140 C   0  0  0  0  0  0  0  0  0  0  0  0
   53.6340   84.2460   17.8560 C   0  0  0  0  0  3  0  0  0  0  0  0
   54.3100   83.3620   17.0270 C   0  0  0  0  0  0  0  0  0  0  0  0
   54.4640   83.6280   15.1520 Br  0  0  0  0  0  0  0  0  0  0  0  0
   54.9060   82.2390   17.5600 C   0  0  0  0  0  3  0  0  0  0  0  0
   54.8030   82.0380   18.9180 C   0  0  0  0  0  3  0  0  0  0  0  0
   54.1190   82.9390   19.7450 C   0  0  0  0  0  3  0  0  0  0  0  0
   52.8350   88.5760   18.5190 C   0  0  0  0  0  0  0  0  0  0  0  0
   52.4050   89.6610   19.2450 C   0  0  0  0  0  3  0  0  0  0  0  0
   52.7970   90.9540   18.9620 C   0  0  0  0  0  3  0  0  0  0  0  0
   53.6530   91.2120   17.9150 C   0  0  0  0  0  0  0  0  0  0  0  0
   54.0950   90.1340   17.1740 C   0  0  0  0  0  3  0  0  0  0  0  0
   54.1700   92.8570   17.5330 Cl  0  0  0  0  0  0  0  0  0  0  0  0
   53.6970   88.8440   17.4660 C   0  0  0  0  0  3  0  0  0  0  0  0
  1 20  1  6  0  0  0
  1  2  1  0  0  0  0
  2  3  1  0  0  0  0
  2 10  1  0  0  0  0
  3  4  2  0  0  0  0
  5  3  1  0  0  0  0
  6  5  2  0  0  0  0
  7  1  1  0  0  0  0
  7  5  1  0  0  0  0
  8  7  2  0  0  0  0
  9  8  1  0  0  0  0
 10 11  1  0  0  0  0
 11 12  1  0  0  0  0
 12 13  1  0  0  0  0
 13 18  1  0  0  0  0
 13 14  1  0  0  0  0
 14 15  1  0  0  0  0
 15 16  1  0  0  0  0
 17 16  1  0  0  0  0
 18 17  1  0  0  0  0
 19 13  1  0  0  0  0
 20 26  1  0  0  0  0
 21 20  2  0  0  0  0
 22 24  2  0  0  0  0
 22 21  1  0  0  0  0
 23 22  1  0  0  0  0
 24 25  1  0  0  0  0
 25 26  2  0  0  0  0
 27  8  1  0  0  0  0
 27 28  1  0  0  0  0
 29 28  2  0  0  0  0
 30 29  1  0  0  0  0
 31 33  1  0  0  0  0
 31 30  2  0  0  0  0
 32 30  1  0  0  0  0
 33 27  2  0  0  0  0
M  END
>  <Pose>
1

>  <Score>
-8.384

$$$$
