/Users/jonathanwahrer/Desktop/Msc/3_Semester/Drug_Design_Praktikum/waehrer_HTS_screening/HTS_experiment/out/docking_results/vina_output/3npc/0182_docked.pdbqt
 OpenBabel03192219203D

 36 40  0  0  1  0  0  0  0  0999 V2000
   52.8200   84.9920   21.0360 C   0  0  2  0  0  3  0  0  0  0  0  0
   52.2200   84.1890   22.0440 N   0  0  0  0  0  0  0  0  0  0  0  0
   51.3850   83.2560   21.2810 C   0  0  0  0  0  0  0  0  0  0  0  0
   50.3490   82.7030   21.6810 O   0  0  0  0  0  0  0  0  0  0  0  0
   52.0260   83.1170   19.9620 C   0  0  0  0  0  0  0  0  0  0  0  0
   51.6570   82.4150   18.9940 O   0  0  0  0  0  0  0  0  0  0  0  0
   53.2050   83.9780   20.0110 C   0  0  0  0  0  0  0  0  0  0  0  0
   54.3170   83.8270   19.3390 C   0  0  0  0  0  0  0  0  0  0  0  0
   55.3530   84.7500   19.5960 O   0  0  0  0  0  1  0  0  0  0  0  0
   53.7990   85.9830   21.3680 C   0  0  0  0  0  0  0  0  0  0  0  0
   53.8460   87.1810   20.6270 C   0  0  0  0  0  3  0  0  0  0  0  0
   54.7570   88.1760   20.8680 C   0  0  0  0  0  0  0  0  0  0  0  0
   54.7600   89.7790   19.8190 Br  0  0  0  0  0  0  0  0  0  0  0  0
   55.6890   88.0560   21.8630 C   0  0  0  0  0  3  0  0  0  0  0  0
   55.6820   86.9030   22.6140 C   0  0  0  0  0  3  0  0  0  0  0  0
   54.7580   85.9140   22.3540 C   0  0  0  0  0  3  0  0  0  0  0  0
   54.5120   82.7730   18.3540 C   0  0  0  0  0  0  0  0  0  0  0  0
   54.4400   82.7750   17.0150 N   0  0  0  0  0  0  0  0  0  0  0  0
   54.6590   81.5410   16.5510 C   0  0  0  0  0  0  0  0  0  0  0  0
   54.2050   83.8330   16.1910 C   0  0  0  0  0  3  0  0  0  0  0  0
   54.8760   80.7390   17.6260 N   0  0  0  0  0  0  0  0  0  0  0  0
   54.6560   81.2610   15.1870 C   0  0  0  0  0  0  0  0  0  0  0  0
   54.7950   81.4570   18.7540 C   0  0  0  0  0  0  0  0  0  0  0  0
   54.9690   80.9620   20.1490 C   0  0  0  0  0  1  0  0  0  0  0  0
   54.4200   82.3170   14.3270 C   0  0  0  0  0  3  0  0  0  0  0  0
   54.9030   79.8720   14.7290 C   0  0  0  0  0  1  0  0  0  0  0  0
   54.1990   83.5810   14.8400 C   0  0  0  0  0  3  0  0  0  0  0  0
   52.2550   84.1800   23.4960 C   0  0  0  0  0  2  0  0  0  0  0  0
   52.9590   83.0180   24.1080 C   0  0  0  0  0  2  0  0  0  0  0  0
   53.1180   83.1450   25.5430 N   0  0  0  0  0  4  0  0  0  0  0  0
   53.6930   81.9510   26.1200 C   0  0  0  0  0  2  0  0  0  0  0  0
   55.1780   81.8650   25.7520 C   0  0  0  0  0  2  0  0  0  0  0  0
   55.7910   82.9470   26.3930 O   0  0  0  0  0  0  0  0  0  0  0  0
   55.3570   84.0950   25.6970 C   0  0  0  0  0  2  0  0  0  0  0  0
   53.8780   84.3300   25.8910 C   0  0  0  0  0  2  0  0  0  0  0  0
   52.1710   83.2600   25.9810 H   0  0  0  0  0  0  0  0  0  0  0  0
  1 10  1  1  0  0  0
  1  2  1  0  0  0  0
  2 28  1  0  0  0  0
  3  4  2  0  0  0  0
  3  2  1  0  0  0  0
  5  7  1  0  0  0  0
  5  3  1  0  0  0  0
  6  5  2  0  0  0  0
  7  1  1  0  0  0  0
  8  9  1  0  0  0  0
  8  7  2  0  0  0  0
 10 16  1  0  0  0  0
 11 12  1  0  0  0  0
 11 10  2  0  0  0  0
 12 14  2  0  0  0  0
 13 12  1  0  0  0  0
 14 15  1  0  0  0  0
 16 15  2  0  0  0  0
 17 23  2  0  0  0  0
 17  8  1  0  0  0  0
 18 17  1  0  0  0  0
 19 18  1  0  0  0  0
 19 21  2  0  0  0  0
 20 18  1  0  0  0  0
 21 23  1  0  0  0  0
 22 19  1  0  0  0  0
 23 24  1  0  0  0  0
 25 27  1  0  0  0  0
 25 22  2  0  0  0  0
 26 22  1  0  0  0  0
 27 20  2  0  0  0  0
 28 29  1  0  0  0  0
 29 30  1  0  0  0  0
 30 35  1  0  0  0  0
 30 36  1  0  0  0  0
 30 31  1  0  0  0  0
 32 31  1  0  0  0  0
 32 33  1  0  0  0  0
 34 35  1  0  0  0  0
 34 33  1  0  0  0  0
M  END
>  <Pose>
1

>  <Score>
-7.561

$$$$
