/Users/jonathanwahrer/Desktop/Msc/3_Semester/Drug_Design_Praktikum/waehrer_HTS_screening/HTS_experiment/out/docking_results/vina_output/3npc/0184_docked.pdbqt
 OpenBabel03192219203D

 33 36  0  0  1  0  0  0  0  0999 V2000
   50.8350   83.3980   24.2250 C   0  0  2  0  0  3  0  0  0  0  0  0
   49.9160   82.2880   24.3870 N   0  0  0  0  0  0  0  0  0  0  0  0
   49.4170   82.0210   23.0690 C   0  0  0  0  0  0  0  0  0  0  0  0
   48.3380   81.4850   22.7600 O   0  0  0  0  0  0  0  0  0  0  0  0
   50.4250   82.4980   22.1300 C   0  0  0  0  0  0  0  0  0  0  0  0
   50.4400   82.4860   20.8630 O   0  0  0  0  0  0  0  0  0  0  0  0
   51.5070   83.0410   22.9360 C   0  0  0  0  0  0  0  0  0  0  0  0
   52.7570   83.1990   22.5490 C   0  0  0  0  0  0  0  0  0  0  0  0
   53.6170   83.8040   23.4760 O   0  0  0  0  0  1  0  0  0  0  0  0
   51.8080   83.5550   25.3130 C   0  0  0  0  0  0  0  0  0  0  0  0
   52.5170   82.5370   25.8560 C   0  0  0  0  0  3  0  0  0  0  0  0
   53.4180   82.7730   26.8950 C   0  0  0  0  0  0  0  0  0  0  0  0
   54.3930   81.3180   27.6300 Br  0  0  0  0  0  0  0  0  0  0  0  0
   53.6200   84.0470   27.4050 C   0  0  0  0  0  3  0  0  0  0  0  0
   52.8890   85.0690   26.8380 C   0  0  0  0  0  3  0  0  0  0  0  0
   52.0080   84.8430   25.8220 C   0  0  0  0  0  3  0  0  0  0  0  0
   53.2940   82.7920   21.2590 C   0  0  0  0  0  0  0  0  0  0  0  0
   53.3290   83.5070   20.1240 N   0  0  0  0  0  0  0  0  0  0  0  0
   53.9460   82.8130   19.1340 C   0  0  0  0  0  0  0  0  0  0  0  0
   52.8550   84.7490   19.8080 C   0  0  0  0  0  3  0  0  0  0  0  0
   54.2960   81.6260   19.7030 N   0  0  0  0  0  0  0  0  0  0  0  0
   54.1080   83.3130   17.8520 C   0  0  0  0  0  3  0  0  0  0  0  0
   53.9250   81.5730   20.9700 C   0  0  0  0  0  0  0  0  0  0  0  0
   54.0790   80.5110   21.9900 C   0  0  0  0  0  1  0  0  0  0  0  0
   53.6280   84.5690   17.5410 C   0  0  0  0  0  3  0  0  0  0  0  0
   52.9960   85.2720   18.5600 C   0  0  0  0  0  3  0  0  0  0  0  0
   49.5450   81.5850   25.6170 C   0  0  0  0  0  2  0  0  0  0  0  0
   48.3380   82.1400   26.2780 C   0  0  0  0  0  2  0  0  0  0  0  0
   48.4300   82.5390   27.6930 C   0  0  0  0  0  2  0  0  0  0  0  0
   49.2980   83.6230   27.9960 N   0  0  0  0  0  4  0  0  0  0  0  0
   50.3180   83.1980   28.9240 C   0  0  0  0  0  1  0  0  0  0  0  0
   48.5360   84.6760   28.6930 C   0  0  0  0  0  1  0  0  0  0  0  0
   49.6890   84.1110   27.1600 H   0  0  0  0  0  0  0  0  0  0  0  0
  1  2  1  0  0  0  0
  1 10  1  1  0  0  0
  2 27  1  0  0  0  0
  3  2  1  0  0  0  0
  4  3  2  0  0  0  0
  5  7  1  0  0  0  0
  5  3  1  0  0  0  0
  6  5  2  0  0  0  0
  7  1  1  0  0  0  0
  8  7  2  0  0  0  0
  8  9  1  0  0  0  0
 10 16  2  0  0  0  0
 10 11  1  0  0  0  0
 11 12  2  0  0  0  0
 12 14  1  0  0  0  0
 12 13  1  0  0  0  0
 15 14  2  0  0  0  0
 16 15  1  0  0  0  0
 17  8  1  0  0  0  0
 18 17  1  0  0  0  0
 19 21  2  0  0  0  0
 19 18  1  0  0  0  0
 20 18  1  0  0  0  0
 21 23  1  0  0  0  0
 22 19  1  0  0  0  0
 23 17  2  0  0  0  0
 23 24  1  0  0  0  0
 25 22  2  0  0  0  0
 25 26  1  0  0  0  0
 26 20  2  0  0  0  0
 27 28  1  0  0  0  0
 28 29  1  0  0  0  0
 29 30  1  0  0  0  0
 30 32  1  0  0  0  0
 30 31  1  0  0  0  0
 33 30  1  0  0  0  0
M  END
>  <Pose>
1

>  <Score>
-6.845

$$$$
