/Users/jonathanwahrer/Desktop/Msc/3_Semester/Drug_Design_Praktikum/waehrer_HTS_screening/HTS_experiment/out/docking_results/vina_output/3npc/0188_docked.pdbqt
 OpenBabel03192219203D

 31 34  0  0  1  0  0  0  0  0999 V2000
   52.3440   84.5040   19.4630 C   0  0  2  0  0  3  0  0  0  0  0  0
   52.4740   85.9490   19.3400 N   0  0  0  0  0  0  0  0  0  0  0  0
   53.5980   86.2510   20.1990 C   0  0  0  0  0  0  0  0  0  0  0  0
   54.3560   87.2420   20.1140 O   0  0  0  0  0  0  0  0  0  0  0  0
   53.7170   85.2000   21.2010 C   0  0  0  0  0  0  0  0  0  0  0  0
   54.5380   85.0420   22.1410 O   0  0  0  0  0  0  0  0  0  0  0  0
   52.6340   84.2590   20.9220 C   0  0  0  0  0  0  0  0  0  0  0  0
   52.0620   83.3960   21.7120 C   0  0  0  0  0  0  0  0  0  0  0  0
   51.0510   82.5720   21.1730 O   0  0  0  0  0  1  0  0  0  0  0  0
   51.7330   86.9110   18.5680 C   0  0  0  0  0  2  0  0  0  0  0  0
   51.5940   88.2580   19.2400 C   0  0  0  0  0  2  0  0  0  0  0  0
   52.0170   89.3230   18.3080 C   0  0  0  0  0  2  0  0  0  0  0  0
   53.3860   89.7630   18.4590 N   0  0  0  0  0  4  0  0  0  0  0  0
   54.1950   89.4630   17.3010 C   0  0  0  0  0  2  0  0  0  0  0  0
   54.3340   90.5800   16.3280 C   0  0  0  0  0  2  0  0  0  0  0  0
   54.5220   91.8290   16.8790 O   0  0  0  0  0  0  0  0  0  0  0  0
   53.6080   92.1440   17.8760 C   0  0  0  0  0  2  0  0  0  0  0  0
   53.5550   91.0880   18.9500 C   0  0  0  0  0  2  0  0  0  0  0  0
   53.7760   89.1230   19.2210 H   0  0  0  0  0  0  0  0  0  0  0  0
   53.4220   83.7980   18.7090 C   0  0  0  0  0  0  0  0  0  0  0  0
   53.9780   82.6390   19.2050 C   0  0  0  0  0  3  0  0  0  0  0  0
   54.9810   81.9440   18.5470 C   0  0  0  0  0  0  0  0  0  0  0  0
   55.7240   80.3320   19.2740 Br  0  0  0  0  0  0  0  0  0  0  0  0
   55.4560   82.4180   17.3410 C   0  0  0  0  0  3  0  0  0  0  0  0
   54.9120   83.5790   16.8250 C   0  0  0  0  0  3  0  0  0  0  0  0
   53.9020   84.2680   17.5020 C   0  0  0  0  0  3  0  0  0  0  0  0
   52.4550   83.2910   23.1050 C   0  0  0  0  0  0  0  0  0  0  0  0
   53.4160   82.5110   23.5240 O   0  0  0  0  0  0  0  0  0  0  0  0
   53.5670   82.5990   24.8170 C   0  0  0  0  0  3  0  0  0  0  0  0
   52.6530   83.4910   25.2910 C   0  0  0  0  0  3  0  0  0  0  0  0
   51.9250   83.9430   24.1840 C   0  0  0  0  0  3  0  0  0  0  0  0
  1 20  1  6  0  0  0
  1  7  1  0  0  0  0
  2  1  1  0  0  0  0
  2  3  1  0  0  0  0
  3  5  1  0  0  0  0
  4  3  2  0  0  0  0
  5  6  2  0  0  0  0
  7  5  1  0  0  0  0
  7  8  2  0  0  0  0
  8 27  1  0  0  0  0
  9  8  1  0  0  0  0
 10 11  1  0  0  0  0
 10  2  1  0  0  0  0
 12 13  1  0  0  0  0
 12 11  1  0  0  0  0
 13 18  1  0  0  0  0
 13 19  1  0  0  0  0
 14 13  1  0  0  0  0
 15 16  1  0  0  0  0
 15 14  1  0  0  0  0
 16 17  1  0  0  0  0
 17 18  1  0  0  0  0
 20 21  1  0  0  0  0
 22 21  2  0  0  0  0
 22 23  1  0  0  0  0
 24 22  1  0  0  0  0
 25 24  2  0  0  0  0
 25 26  1  0  0  0  0
 26 20  2  0  0  0  0
 27 28  1  0  0  0  0
 27 31  2  0  0  0  0
 28 29  1  0  0  0  0
 29 30  2  0  0  0  0
 31 30  1  0  0  0  0
M  END
>  <Pose>
1

>  <Score>
-7.946

$$$$
