/Users/jonathanwahrer/Desktop/Msc/3_Semester/Drug_Design_Praktikum/waehrer_HTS_screening/HTS_experiment/out/docking_results/vina_output/3npc/0191_docked.pdbqt
 OpenBabel03192219213D

 34 37  0  0  1  0  0  0  0  0999 V2000
   52.5500   84.6550   19.5310 C   0  0  2  0  0  3  0  0  0  0  0  0
   52.6990   86.0940   19.4400 N   0  0  0  0  0  0  0  0  0  0  0  0
   53.7550   86.4360   20.3640 C   0  0  0  0  0  0  0  0  0  0  0  0
   54.4580   87.4740   20.3130 O   0  0  0  0  0  0  0  0  0  0  0  0
   53.8250   85.3480   21.3430 C   0  0  0  0  0  0  0  0  0  0  0  0
   54.6000   85.2300   22.3270 O   0  0  0  0  0  0  0  0  0  0  0  0
   52.8080   84.3640   20.9900 C   0  0  0  0  0  0  0  0  0  0  0  0
   52.2690   83.4420   21.7700 C   0  0  0  0  0  0  0  0  0  0  0  0
   51.3320   82.5860   21.2480 O   0  0  0  0  0  1  0  0  0  0  0  0
   53.5030   83.9080   18.6710 C   0  0  0  0  0  0  0  0  0  0  0  0
   54.1090   82.7290   19.1110 C   0  0  0  0  0  3  0  0  0  0  0  0
   54.9930   82.0130   18.3560 C   0  0  0  0  0  0  0  0  0  0  0  0
   55.7770   80.3970   19.0470 Br  0  0  0  0  0  0  0  0  0  0  0  0
   55.3220   82.4420   17.1040 C   0  0  0  0  0  3  0  0  0  0  0  0
   54.7580   83.5890   16.6230 C   0  0  0  0  0  3  0  0  0  0  0  0
   53.8580   84.3110   17.4030 C   0  0  0  0  0  3  0  0  0  0  0  0
   52.6510   83.3170   23.1890 C   0  0  0  0  0  0  0  0  0  0  0  0
   53.6580   82.6220   23.6440 O   0  0  0  0  0  0  0  0  0  0  0  0
   53.7830   82.6710   24.9280 C   0  0  0  0  0  0  0  0  0  0  0  0
   52.7690   83.4730   25.3940 C   0  0  0  0  0  0  0  0  0  0  0  0
   54.7110   82.0770   25.7720 C   0  0  0  0  0  0  0  0  0  0  0  0
   52.0520   83.8810   24.2890 C   0  0  0  0  0  3  0  0  0  0  0  0
   52.6800   83.6870   26.7520 C   0  0  0  0  0  3  0  0  0  0  0  0
   53.5750   83.1210   27.6370 C   0  0  0  0  0  3  0  0  0  0  0  0
   54.5910   82.3120   27.1190 C   0  0  0  0  0  3  0  0  0  0  0  0
   55.7240   81.2790   25.3050 O   0  0  0  0  0  0  0  0  0  0  0  0
   55.5910   80.0880   24.5970 C   0  0  0  0  0  1  0  0  0  0  0  0
   51.9820   87.0210   18.5990 C   0  0  0  0  0  2  0  0  0  0  0  0
   51.6090   88.2760   19.3500 C   0  0  0  0  0  2  0  0  0  0  0  0
   52.0530   89.5460   18.7190 C   0  0  0  0  0  2  0  0  0  0  0  0
   53.4630   89.7790   18.7530 N   0  0  0  0  0  4  0  0  0  0  0  0
   53.7730   90.9600   19.5630 C   0  0  0  0  0  1  0  0  0  0  0  0
   54.0340   89.9300   17.4500 C   0  0  0  0  0  1  0  0  0  0  0  0
   53.9900   88.9950   19.2350 H   0  0  0  0  0  0  0  0  0  0  0  0
  1 10  1  6  0  0  0
  1  7  1  0  0  0  0
  2  1  1  0  0  0  0
  2  3  1  0  0  0  0
  3  5  1  0  0  0  0
  4  3  2  0  0  0  0
  5  6  2  0  0  0  0
  7  5  1  0  0  0  0
  7  8  2  0  0  0  0
  8 17  1  0  0  0  0
  9  8  1  0  0  0  0
 10 11  1  0  0  0  0
 12 13  1  0  0  0  0
 12 11  2  0  0  0  0
 14 12  1  0  0  0  0
 15 14  2  0  0  0  0
 15 16  1  0  0  0  0
 16 10  2  0  0  0  0
 17 18  1  0  0  0  0
 17 22  2  0  0  0  0
 18 19  1  0  0  0  0
 19 20  2  0  0  0  0
 19 21  1  0  0  0  0
 20 23  1  0  0  0  0
 21 25  2  0  0  0  0
 22 20  1  0  0  0  0
 23 24  2  0  0  0  0
 25 24  1  0  0  0  0
 26 21  1  0  0  0  0
 27 26  1  0  0  0  0
 28 29  1  0  0  0  0
 28  2  1  0  0  0  0
 30 31  1  0  0  0  0
 30 29  1  0  0  0  0
 31 34  1  0  0  0  0
 31 32  1  0  0  0  0
 33 31  1  0  0  0  0
M  END
>  <Pose>
1

>  <Score>
-7.815

$$$$
