/Users/jonathanwahrer/Desktop/Msc/3_Semester/Drug_Design_Praktikum/waehrer_HTS_screening/HTS_experiment/out/docking_results/vina_output/3npc/0200_docked.pdbqt
 OpenBabel03192219213D

 21 24  0  0  1  0  0  0  0  0999 V2000
   51.5550   98.7430   28.5270 C   0  0  1  0  0  3  0  0  0  0  0  0
   50.6230   97.9360   29.0230 N   0  0  0  0  0  0  0  0  0  0  0  0
   49.3040   98.1860   29.0290 C   0  0  0  0  0  0  0  0  0  0  0  0
   48.1950   97.5550   29.4540 N   0  0  0  0  0  2  0  0  0  0  0  0
   47.1320   98.2550   29.2100 O   0  0  0  0  0  0  0  0  0  0  0  0
   47.5070   99.3400   28.6320 N   0  0  0  0  0  0  0  0  0  0  0  0
   48.8420   99.3750   28.4810 C   0  0  0  0  0  0  0  0  0  0  0  0
   49.7450  100.2240   27.9680 N   0  0  0  0  0  0  0  0  0  0  0  0
   49.5520  101.4090   27.3960 N   0  0  0  0  0  0  0  0  0  0  0  0
   50.7580  101.8790   27.0430 N   0  0  0  0  0  0  0  0  0  0  0  0
   51.6730  100.9760   27.4020 N   0  0  0  0  0  0  0  0  0  0  0  0
   51.0570   99.9410   27.9790 C   0  0  0  0  0  0  0  0  0  0  0  0
   52.9520   98.5220   28.4990 N   0  0  0  0  0  0  0  0  0  0  0  0
   53.5750   99.0230   29.1940 H   0  0  0  0  0  0  0  0  0  0  0  0
   53.6110   97.6630   27.5940 C   0  0  0  0  0  0  0  0  0  0  0  0
   54.8150   97.8840   26.9820 C   0  0  0  0  0  3  0  0  0  0  0  0
   55.4280   97.0130   26.0970 C   0  0  0  0  0  0  0  0  0  0  0  0
   57.1110   97.4170   25.2980 Br  0  0  0  0  0  0  0  0  0  0  0  0
   54.8000   95.8330   25.7960 C   0  0  0  0  0  3  0  0  0  0  0  0
   53.5850   95.5480   26.3780 C   0  0  0  0  0  3  0  0  0  0  0  0
   53.0050   96.4350   27.2510 C   0  0  0  0  0  3  0  0  0  0  0  0
  1 13  1  1  0  0  0
  1  2  1  0  0  0  0
  2  3  2  0  0  0  0
  3  4  1  0  0  0  0
  5  4  1  0  0  0  0
  6  5  1  0  0  0  0
  7  6  2  0  0  0  0
  7  3  1  0  0  0  0
  8 12  1  0  0  0  0
  8  7  1  0  0  0  0
  9  8  1  0  0  0  0
 10  9  2  0  0  0  0
 10 11  1  0  0  0  0
 11 12  2  0  0  0  0
 12  1  1  0  0  0  0
 13 14  1  0  0  0  0
 15 13  1  0  0  0  0
 16 15  2  0  0  0  0
 17 16  1  0  0  0  0
 18 17  1  0  0  0  0
 19 17  2  0  0  0  0
 19 20  1  0  0  0  0
 20 21  2  0  0  0  0
 21 15  1  0  0  0  0
M  END
>  <Pose>
1

>  <Score>
-8.967

$$$$
