/Users/jonathanwahrer/Desktop/Msc/3_Semester/Drug_Design_Praktikum/waehrer_HTS_screening/HTS_experiment/out/docking_results/vina_output/3npc/0231_docked.pdbqt
 OpenBabel03192219233D

 34 37  0  0  1  0  0  0  0  0999 V2000
   52.7400   84.3740   22.3740 C   0  0  2  0  0  3  0  0  0  0  0  0
   52.8270   85.1820   23.6460 C   0  0  1  0  0  3  0  0  0  0  0  0
   52.1320   84.3370   24.5910 N   0  0  0  0  0  0  0  0  0  0  0  0
   52.4170   82.9950   24.2120 C   0  0  0  0  0  0  0  0  0  0  0  0
   52.1090   81.9550   24.8730 O   0  0  0  0  0  0  0  0  0  0  0  0
   53.1310   83.0220   22.9210 C   0  0  0  0  0  0  0  0  0  0  0  0
   53.8580   82.1380   22.4410 O   0  0  0  0  0  0  0  0  0  0  0  0
   53.6190   84.8090   21.3050 C   0  0  0  0  0  0  0  0  0  0  0  0
   54.7130   84.2440   21.0960 O   0  0  0  0  0  0  0  0  0  0  0  0
   53.2340   85.9200   20.4540 C   0  0  0  0  0  0  0  0  0  0  0  0
   53.9180   87.1390   20.5150 C   0  0  0  0  0  3  0  0  0  0  0  0
   53.5680   88.2040   19.7260 C   0  0  0  0  0  3  0  0  0  0  0  0
   52.5200   88.0790   18.8470 C   0  0  0  0  0  0  0  0  0  0  0  0
   52.0510   89.5640   17.7630 Br  0  0  0  0  0  0  0  0  0  0  0  0
   51.8110   86.9120   18.7390 C   0  0  0  0  0  3  0  0  0  0  0  0
   52.1920   85.8600   19.5510 C   0  0  0  0  0  3  0  0  0  0  0  0
   54.1800   85.5400   24.0420 C   0  0  0  0  0  0  0  0  0  0  0  0
   54.8090   86.7020   23.5740 C   0  0  0  0  0  3  0  0  0  0  0  0
   56.0910   87.0370   23.9570 C   0  0  0  0  0  0  0  0  0  0  0  0
   56.8080   86.2350   24.8260 C   0  0  0  0  0  0  0  0  0  0  0  0
   56.2080   85.0880   25.3000 C   0  0  0  0  0  3  0  0  0  0  0  0
   58.1010   86.5490   25.2280 O   0  0  0  0  0  1  0  0  0  0  0  0
   54.9200   84.7650   24.9040 C   0  0  0  0  0  3  0  0  0  0  0  0
   56.7180   88.1820   23.4980 O   0  0  0  0  0  0  0  0  0  0  0  0
   56.0900   89.1410   22.6850 C   0  0  0  0  0  1  0  0  0  0  0  0
   51.3000   84.6930   25.7130 C   0  0  0  0  0  2  0  0  0  0  0  0
   52.0440   84.7580   27.0130 C   0  0  0  0  0  2  0  0  0  0  0  0
   52.0390   83.5710   27.7780 N   0  0  0  0  0  4  0  0  0  0  0  0
   51.4590   83.8780   29.0890 C   0  0  0  0  0  2  0  0  0  0  0  0
   52.3580   84.7220   29.9310 C   0  0  0  0  0  2  0  0  0  0  0  0
   53.6550   84.8040   29.4860 O   0  0  0  0  0  0  0  0  0  0  0  0
   54.1240   83.5770   29.0870 C   0  0  0  0  0  2  0  0  0  0  0  0
   53.2960   82.9480   27.9990 C   0  0  0  0  0  2  0  0  0  0  0  0
   51.3860   82.8510   27.3610 H   0  0  0  0  0  0  0  0  0  0  0  0
  1  8  1  6  0  0  0
  1  6  1  0  0  0  0
  1  2  1  0  0  0  0
  2 17  1  1  0  0  0
  2  3  1  0  0  0  0
  3 26  1  0  0  0  0
  4  3  1  0  0  0  0
  4  5  2  0  0  0  0
  6  4  1  0  0  0  0
  7  6  2  0  0  0  0
  9  8  2  0  0  0  0
 10 11  1  0  0  0  0
 10  8  1  0  0  0  0
 12 11  2  0  0  0  0
 13 12  1  0  0  0  0
 14 13  1  0  0  0  0
 15 13  2  0  0  0  0
 15 16  1  0  0  0  0
 16 10  2  0  0  0  0
 17 23  1  0  0  0  0
 18 19  1  0  0  0  0
 18 17  2  0  0  0  0
 19 20  2  0  0  0  0
 20 22  1  0  0  0  0
 20 21  1  0  0  0  0
 23 21  2  0  0  0  0
 24 19  1  0  0  0  0
 25 24  1  0  0  0  0
 26 27  1  0  0  0  0
 27 28  1  0  0  0  0
 28 33  1  0  0  0  0
 28 29  1  0  0  0  0
 29 30  1  0  0  0  0
 31 30  1  0  0  0  0
 32 31  1  0  0  0  0
 33 32  1  0  0  0  0
 34 28  1  0  0  0  0
M  END
>  <Pose>
1

>  <Score>
-7.416

$$$$
