/Users/jonathanwahrer/Desktop/Msc/3_Semester/Drug_Design_Praktikum/waehrer_HTS_screening/HTS_experiment/out/docking_results/vina_output/3npc/0244_docked.pdbqt
 OpenBabel03192219243D

 25 28  0  0  1  0  0  0  0  0999 V2000
   47.8340  101.7320   28.7100 C   0  0  2  0  0  3  0  0  0  0  0  0
   47.6530  100.3160   29.2050 C   0  0  0  0  0  2  0  0  0  0  0  0
   48.7770   99.6160   28.6080 N   0  0  0  0  0  0  0  0  0  0  0  0
   49.1780  100.3090   27.4000 C   0  0  1  0  0  3  0  0  0  0  0  0
   48.4230  101.5930   27.3270 C   0  0  0  0  0  2  0  0  0  0  0  0
   50.6480  100.5020   27.4910 C   0  0  0  0  0  0  0  0  0  0  0  0
   51.2230  101.5840   27.2280 O   0  0  0  0  0  0  0  0  0  0  0  0
   51.4710   99.4230   27.8940 N   0  0  0  0  0  0  0  0  0  0  0  0
   50.9870   98.3500   28.7380 C   0  0  2  0  0  3  0  0  0  0  0  0
   51.4210   97.1540   27.9510 C   0  0  0  0  0  2  0  0  0  0  0  0
   52.8180   97.5850   27.4880 C   0  0  0  0  0  2  0  0  0  0  0  0
   52.8450   99.1110   27.6170 C   0  0  0  0  0  2  0  0  0  0  0  0
   49.5210   98.4530   28.9480 C   0  0  0  0  0  0  0  0  0  0  0  0
   48.8820   97.4680   29.4540 O   0  0  0  0  0  0  0  0  0  0  0  0
   48.7380  102.4980   29.5030 N   0  0  0  0  0  0  0  0  0  0  0  0
   48.2660  103.1600   30.6650 C   0  0  0  0  0  0  0  0  0  0  0  0
   47.0620  103.0660   30.9840 O   0  0  0  0  0  0  0  0  0  0  0  0
   49.7430  102.5500   29.1980 H   0  0  0  0  0  0  0  0  0  0  0  0
   49.1710  103.9620   31.5120 C   0  0  0  0  0  0  0  0  0  0  0  0
   48.8530  105.2760   31.7760 C   0  0  0  0  0  3  0  0  0  0  0  0
   49.6770  106.0510   32.5620 C   0  0  0  0  0  3  0  0  0  0  0  0
   50.8430  105.5550   33.1170 C   0  0  0  0  0  0  0  0  0  0  0  0
   51.9290  106.6820   34.1910 Br  0  0  0  0  0  0  0  0  0  0  0  0
   51.1620  104.2360   32.8530 C   0  0  0  0  0  3  0  0  0  0  0  0
   50.3180  103.4670   32.0560 C   0  0  0  0  0  3  0  0  0  0  0  0
  1  2  1  0  0  0  0
  1 15  1  1  0  0  0
  3 13  1  0  0  0  0
  3  2  1  0  0  0  0
  4  5  1  1  0  0  0
  4  6  1  0  0  0  0
  4  3  1  0  0  0  0
  5  1  1  0  0  0  0
  6  8  1  0  0  0  0
  7  6  2  0  0  0  0
  8  9  1  0  0  0  0
  9 10  1  6  0  0  0
  9 13  1  0  0  0  0
 11 12  1  0  0  0  0
 11 10  1  0  0  0  0
 12  8  1  0  0  0  0
 13 14  2  0  0  0  0
 15 16  1  0  0  0  0
 16 17  2  0  0  0  0
 16 19  1  0  0  0  0
 18 15  1  0  0  0  0
 19 20  2  0  0  0  0
 19 25  1  0  0  0  0
 20 21  1  0  0  0  0
 21 22  2  0  0  0  0
 22 23  1  0  0  0  0
 24 22  1  0  0  0  0
 25 24  2  0  0  0  0
M  END
>  <Pose>
1

>  <Score>
-8.778

$$$$
