/Users/jonathanwahrer/Desktop/Msc/3_Semester/Drug_Design_Praktikum/waehrer_HTS_screening/HTS_experiment/out/docking_results/vina_output/3npc/0247_docked.pdbqt
 OpenBabel03192219243D

 23 26  0  0  1  0  0  0  0  0999 V2000
   51.2200   98.8650   28.1170 N   0  0  0  0  0  0  0  0  0  0  0  0
   51.2510   99.9910   28.9860 C   0  0  0  0  0  0  0  0  0  0  0  0
   52.3400  100.6090   29.2400 O   0  0  0  0  0  0  0  0  0  0  0  0
   49.8900  100.2900   29.5030 C   0  0  2  0  0  3  0  0  0  0  0  0
   49.0340   99.3200   28.7120 C   0  0  1  0  0  3  0  0  0  0  0  0
   48.5110  100.2300   27.6220 C   0  0  1  0  0  3  0  0  0  0  0  0
   48.0140  101.3670   28.5390 C   0  0  0  0  0  2  0  0  0  0  0  0
   49.4300  101.6550   29.0720 C   0  0  2  0  0  3  0  0  0  0  0  0
   50.0940  101.9140   27.7460 C   0  0  0  0  0  2  0  0  0  0  0  0
   49.6220  100.9610   26.9520 C   0  0  0  0  0  2  0  0  0  0  0  0
   49.9360   98.2790   28.1890 C   0  0  0  0  0  0  0  0  0  0  0  0
   49.6040   97.1140   27.8780 O   0  0  0  0  0  0  0  0  0  0  0  0
   52.2480   98.3490   27.2860 N   0  0  0  0  0  0  0  0  0  0  0  0
   53.3370   97.6310   27.8240 C   0  0  0  0  0  0  0  0  0  0  0  0
   53.4430   97.4120   29.0740 O   0  0  0  0  0  0  0  0  0  0  0  0
   52.1830   98.5040   26.2640 H   0  0  0  0  0  0  0  0  0  0  0  0
   54.3740   97.1150   26.9630 C   0  0  0  0  0  0  0  0  0  0  0  0
   55.5650   97.8240   26.8420 C   0  0  0  0  0  3  0  0  0  0  0  0
   56.5800   97.3760   26.0230 C   0  0  0  0  0  3  0  0  0  0  0  0
   56.4360   96.2220   25.3090 C   0  0  0  0  0  0  0  0  0  0  0  0
   57.8560   95.6230   24.1760 Br  0  0  0  0  0  0  0  0  0  0  0  0
   55.2490   95.4990   25.4190 C   0  0  0  0  0  3  0  0  0  0  0  0
   54.2470   95.9540   26.2360 C   0  0  0  0  0  3  0  0  0  0  0  0
  1 11  1  0  0  0  0
  1  2  1  0  0  0  0
  2  3  2  0  0  0  0
  4  2  1  6  0  0  0
  5 11  1  6  0  0  0
  5  4  1  0  0  0  0
  6 10  1  6  0  0  0
  6  7  1  0  0  0  0
  6  5  1  0  0  0  0
  7  8  1  0  0  0  0
  8  9  1  6  0  0  0
  8  4  1  0  0  0  0
 10  9  1  0  0  0  0
 12 11  2  0  0  0  0
 13 14  1  0  0  0  0
 13  1  1  0  0  0  0
 14 15  2  0  0  0  0
 16 13  1  0  0  0  0
 17 14  1  0  0  0  0
 18 17  1  0  0  0  0
 19 18  2  0  0  0  0
 20 22  2  0  0  0  0
 20 19  1  0  0  0  0
 21 20  1  0  0  0  0
 22 23  1  0  0  0  0
 23 17  2  0  0  0  0
M  END
>  <Pose>
1

>  <Score>
-8.705

$$$$
