/Users/jonathanwahrer/Desktop/Msc/3_Semester/Drug_Design_Praktikum/waehrer_HTS_screening/HTS_experiment/out/docking_results/vina_output/3npc/0265_docked.pdbqt
 OpenBabel03192219253D

 35 38  0  0  1  0  0  0  0  0999 V2000
   52.4780   86.7090   18.8430 C   0  0  0  0  0  0  0  0  0  0  0  0
   52.9400   86.0580   19.8880 C   0  0  0  0  0  0  0  0  0  0  0  0
   52.6440   84.6220   20.2370 C   0  0  2  0  0  3  0  0  0  0  0  0
   53.2840   84.3790   21.4830 N   0  0  0  0  0  0  0  0  0  0  0  0
   54.0810   85.5110   21.8890 C   0  0  0  0  0  0  0  0  0  0  0  0
   54.8200   85.6250   22.8770 O   0  0  0  0  0  0  0  0  0  0  0  0
   53.8620   86.5690   20.8760 C   0  0  0  0  0  0  0  0  0  0  0  0
   54.4060   87.7200   20.8970 O   0  0  0  0  0  0  0  0  0  0  0  0
   51.6350   85.9660   17.9840 O   0  0  0  0  0  1  0  0  0  0  0  0
   53.2720   83.8330   19.1330 C   0  0  0  0  0  0  0  0  0  0  0  0
   52.5220   82.8830   18.5150 C   0  0  0  0  0  3  0  0  0  0  0  0
   53.0530   82.1220   17.4940 C   0  0  0  0  0  3  0  0  0  0  0  0
   54.3460   82.3220   17.0940 C   0  0  0  0  0  0  0  0  0  0  0  0
   55.1000   83.2820   17.7180 C   0  0  0  0  0  3  0  0  0  0  0  0
   54.5730   84.0490   18.7440 C   0  0  0  0  0  3  0  0  0  0  0  0
   54.9220   81.5190   16.0130 C   0  0  0  0  0  0  0  0  0  0  0  0
   55.8000   80.6590   16.2820 O   0  0  0  0  0  0  0  0  0  0  0  0
   54.5530   81.6540   14.7030 O   0  0  0  0  0  0  0  0  0  0  0  0
   54.8830   80.7090   13.7100 C   0  0  0  0  0  1  0  0  0  0  0  0
   53.2160   83.1960   22.2980 C   0  0  0  0  0  2  0  0  0  0  0  0
   52.4330   83.3330   23.5580 C   0  0  0  0  0  2  0  0  0  0  0  0
   51.2440   82.5390   23.6330 N   0  0  0  0  0  4  0  0  0  0  0  0
   51.4890   81.1110   23.6560 C   0  0  0  0  0  2  0  0  0  0  0  0
   50.1610   80.4360   23.9320 C   0  0  0  0  0  2  0  0  0  0  0  0
   49.3680   80.6650   22.7820 O   0  0  0  0  0  0  0  0  0  0  0  0
   49.0810   82.0320   22.7870 C   0  0  0  0  0  2  0  0  0  0  0  0
   50.3690   82.7740   22.4670 C   0  0  0  0  0  2  0  0  0  0  0  0
   50.6310   82.8210   24.4440 H   0  0  0  0  0  0  0  0  0  0  0  0
   52.7890   88.1000   18.5530 C   0  0  0  0  0  0  0  0  0  0  0  0
   53.8290   88.4210   17.6710 C   0  0  0  0  0  3  0  0  0  0  0  0
   54.1480   89.7190   17.3310 C   0  0  0  0  0  3  0  0  0  0  0  0
   53.4380   90.7760   17.8580 C   0  0  0  0  0  0  0  0  0  0  0  0
   53.9030   92.5670   17.3720 Br  0  0  0  0  0  0  0  0  0  0  0  0
   52.4120   90.4870   18.7260 C   0  0  0  0  0  3  0  0  0  0  0  0
   52.0920   89.1670   19.0680 C   0  0  0  0  0  3  0  0  0  0  0  0
  1  2  2  0  0  0  0
  2  3  1  0  0  0  0
  2  7  1  0  0  0  0
  3 10  1  6  0  0  0
  3  4  1  0  0  0  0
  4  5  1  0  0  0  0
  4 20  1  0  0  0  0
  5  6  2  0  0  0  0
  7  8  2  0  0  0  0
  7  5  1  0  0  0  0
  9  1  1  0  0  0  0
 11 10  2  0  0  0  0
 12 11  1  0  0  0  0
 13 12  2  0  0  0  0
 13 14  1  0  0  0  0
 14 15  2  0  0  0  0
 15 10  1  0  0  0  0
 16 17  2  0  0  0  0
 16 13  1  0  0  0  0
 18 16  1  0  0  0  0
 19 18  1  0  0  0  0
 20 21  1  0  0  0  0
 21 22  1  0  0  0  0
 22 23  1  0  0  0  0
 22 28  1  0  0  0  0
 23 24  1  0  0  0  0
 25 26  1  0  0  0  0
 25 24  1  0  0  0  0
 27 26  1  0  0  0  0
 27 22  1  0  0  0  0
 29  1  1  0  0  0  0
 29 35  1  0  0  0  0
 30 29  2  0  0  0  0
 31 30  1  0  0  0  0
 31 32  2  0  0  0  0
 32 34  1  0  0  0  0
 33 32  1  0  0  0  0
 34 35  2  0  0  0  0
M  END
>  <Pose>
1

>  <Score>
-8.027

$$$$
