/Users/jonathanwahrer/Desktop/Msc/3_Semester/Drug_Design_Praktikum/waehrer_HTS_screening/HTS_experiment/out/docking_results/vina_output/3npc/0274_docked.pdbqt
 OpenBabel03192219253D

 31 34  0  0  1  0  0  0  0  0999 V2000
   52.0460   83.7020   21.6500 C   0  0  0  0  0  0  0  0  0  0  0  0
   52.6630   84.6140   20.9230 C   0  0  0  0  0  0  0  0  0  0  0  0
   52.5190   84.9450   19.4770 C   0  0  1  0  0  3  0  0  0  0  0  0
   52.7420   86.4000   19.4490 N   0  0  0  0  0  0  0  0  0  0  0  0
   53.7190   86.6350   20.4440 C   0  0  0  0  0  0  0  0  0  0  0  0
   54.4610   87.6250   20.4870 O   0  0  0  0  0  0  0  0  0  0  0  0
   53.7010   85.5270   21.3930 C   0  0  0  0  0  0  0  0  0  0  0  0
   54.3960   85.3200   22.4200 O   0  0  0  0  0  0  0  0  0  0  0  0
   51.0990   82.8870   20.9980 O   0  0  0  0  0  1  0  0  0  0  0  0
   52.2710   83.4770   23.0670 C   0  0  0  0  0  0  0  0  0  0  0  0
   53.1300   82.4980   23.5130 C   0  0  0  0  0  3  0  0  0  0  0  0
   53.3260   82.2590   24.8640 C   0  0  0  0  0  3  0  0  0  0  0  0
   52.6630   83.0000   25.8160 C   0  0  0  0  0  0  0  0  0  0  0  0
   52.9280   82.6790   27.6880 Br  0  0  0  0  0  0  0  0  0  0  0  0
   51.8010   83.9800   25.3850 C   0  0  0  0  0  3  0  0  0  0  0  0
   51.6070   84.2150   24.0200 C   0  0  0  0  0  3  0  0  0  0  0  0
   53.4310   84.2100   18.5980 C   0  0  0  0  0  0  0  0  0  0  0  0
   53.5370   84.5330   17.2400 C   0  0  0  0  0  3  0  0  0  0  0  0
   54.3660   83.8900   16.3730 C   0  0  0  0  0  3  0  0  0  0  0  0
   55.1620   82.8530   16.8230 C   0  0  0  0  0  3  0  0  0  0  0  0
   55.0810   82.5150   18.1430 C   0  0  0  0  0  3  0  0  0  0  0  0
   54.2300   83.1760   19.0330 C   0  0  0  0  0  3  0  0  0  0  0  0
   52.0570   87.2620   18.5570 C   0  0  0  0  0  2  0  0  0  0  0  0
   51.8690   88.6730   18.9370 C   0  0  0  0  0  2  0  0  0  0  0  0
   52.2510   89.6510   17.9660 N   0  0  0  0  0  4  0  0  0  0  0  0
   53.5570   89.5120   17.4230 C   0  0  0  0  0  2  0  0  0  0  0  0
   54.4480   90.5850   18.0080 C   0  0  0  0  0  2  0  0  0  0  0  0
   54.2030   90.7960   19.3620 O   0  0  0  0  0  0  0  0  0  0  0  0
   52.9570   91.3470   19.5950 C   0  0  0  0  0  2  0  0  0  0  0  0
   52.0620   91.0100   18.4230 C   0  0  0  0  0  2  0  0  0  0  0  0
   51.5610   89.5230   17.1630 H   0  0  0  0  0  0  0  0  0  0  0  0
  1 10  1  0  0  0  0
  2  7  1  0  0  0  0
  2  1  2  0  0  0  0
  3 17  1  6  0  0  0
  3  2  1  0  0  0  0
  4  3  1  0  0  0  0
  4  5  1  0  0  0  0
  5  6  2  0  0  0  0
  5  7  1  0  0  0  0
  7  8  2  0  0  0  0
  9  1  1  0  0  0  0
 10 11  2  0  0  0  0
 10 16  1  0  0  0  0
 11 12  1  0  0  0  0
 12 13  2  0  0  0  0
 13 14  1  0  0  0  0
 15 13  1  0  0  0  0
 16 15  2  0  0  0  0
 17 22  1  0  0  0  0
 18 17  2  0  0  0  0
 19 20  2  0  0  0  0
 19 18  1  0  0  0  0
 20 21  1  0  0  0  0
 21 22  2  0  0  0  0
 23 24  1  0  0  0  0
 23  4  1  0  0  0  0
 25 30  1  0  0  0  0
 25 24  1  0  0  0  0
 26 25  1  0  0  0  0
 26 27  1  0  0  0  0
 27 28  1  0  0  0  0
 28 29  1  0  0  0  0
 30 29  1  0  0  0  0
 31 25  1  0  0  0  0
M  END
>  <Pose>
1

>  <Score>
-8.234

$$$$
