/Users/jonathanwahrer/Desktop/Msc/3_Semester/Drug_Design_Praktikum/waehrer_HTS_screening/HTS_experiment/out/docking_results/vina_output/3npc/0278_docked.pdbqt
 OpenBabel03192219253D

 30 33  0  0  1  0  0  0  0  0999 V2000
   50.9890   99.3070   27.3190 N   0  0  0  0  0  0  0  0  0  0  0  0
   49.9590   98.5910   27.8300 C   0  0  0  0  0  0  0  0  0  0  0  0
   49.0800   99.5140   28.3750 C   0  0  0  0  0  0  0  0  0  0  0  0
   47.9260   99.0540   28.9800 C   0  0  0  0  0  3  0  0  0  0  0  0
   47.6230   97.6890   29.0550 C   0  0  0  0  0  3  0  0  0  0  0  0
   48.5340   96.8030   28.4950 C   0  0  0  0  0  3  0  0  0  0  0  0
   49.6890   97.2330   27.8880 C   0  0  0  0  0  3  0  0  0  0  0  0
   49.5650  100.7790   28.1980 N   0  0  0  0  0  0  0  0  0  0  0  0
   50.7450  100.6120   27.5440 C   0  0  1  0  0  3  0  0  0  0  0  0
   52.1000   98.6790   26.6650 C   0  0  0  0  0  2  0  0  0  0  0  0
   52.9700   97.8880   27.5940 C   0  0  1  0  0  3  0  0  0  0  0  0
   54.1620   97.3230   26.8580 C   0  0  0  0  0  0  0  0  0  0  0  0
   54.0610   96.1240   26.1980 C   0  0  0  0  0  3  0  0  0  0  0  0
   55.1400   95.6120   25.5270 C   0  0  0  0  0  3  0  0  0  0  0  0
   56.3210   96.3190   25.5260 C   0  0  0  0  0  0  0  0  0  0  0  0
   57.8340   95.6120   24.5890 Br  0  0  0  0  0  0  0  0  0  0  0  0
   56.4760   97.5240   26.1680 C   0  0  0  0  0  3  0  0  0  0  0  0
   55.3580   98.0010   26.8340 C   0  0  0  0  0  3  0  0  0  0  0  0
   53.4610   98.6100   28.6650 O   0  0  0  0  0  0  0  0  0  0  0  0
   53.5640   98.0820   29.4800 H   0  0  0  0  0  0  0  0  0  0  0  0
   51.5080  101.5940   27.2000 N   0  0  0  0  0  0  0  0  0  0  0  0
   51.7790  102.3160   27.9340 H   0  0  0  0  0  0  0  0  0  0  0  0
   51.8930  101.7720   26.2690 H   0  0  0  0  0  0  0  0  0  0  0  0
   48.8900  101.9650   28.6330 C   0  0  0  0  0  2  0  0  0  0  0  0
   48.9330  102.1710   30.1210 C   0  0  0  0  0  0  0  0  0  0  0  0
   47.7770  102.5530   30.7800 C   0  0  0  0  0  3  0  0  0  0  0  0
   47.7360  102.7600   32.1450 C   0  0  0  0  0  3  0  0  0  0  0  0
   48.8990  102.5720   32.8480 C   0  0  0  0  0  3  0  0  0  0  0  0
   50.0580  102.1960   32.2220 C   0  0  0  0  0  3  0  0  0  0  0  0
   50.0650  101.9980   30.8670 C   0  0  0  0  0  3  0  0  0  0  0  0
  1  9  1  0  0  0  0
  1  2  1  0  0  0  0
  2  7  2  0  0  0  0
  2  3  1  0  0  0  0
  3  4  2  0  0  0  0
  4  5  1  0  0  0  0
  6  5  2  0  0  0  0
  7  6  1  0  0  0  0
  8  3  1  0  0  0  0
  8 24  1  0  0  0  0
  9 21  1  1  0  0  0
  9  8  1  0  0  0  0
 10  1  1  0  0  0  0
 11 10  1  6  0  0  0
 11 19  1  0  0  0  0
 12 11  1  0  0  0  0
 13 12  2  0  0  0  0
 14 13  1  0  0  0  0
 15 14  2  0  0  0  0
 15 17  1  0  0  0  0
 16 15  1  0  0  0  0
 17 18  2  0  0  0  0
 18 12  1  0  0  0  0
 19 20  1  0  0  0  0
 21 22  1  0  0  0  0
 23 21  1  0  0  0  0
 24 25  1  0  0  0  0
 25 26  2  0  0  0  0
 25 30  1  0  0  0  0
 26 27  1  0  0  0  0
 27 28  2  0  0  0  0
 29 28  1  0  0  0  0
 30 29  2  0  0  0  0
M  END
>  <Pose>
1

>  <Score>
-8.982

$$$$
