/Users/jonathanwahrer/Desktop/Msc/3_Semester/Drug_Design_Praktikum/waehrer_HTS_screening/HTS_experiment/out/docking_results/vina_output/3npc/0289_docked.pdbqt
 OpenBabel03192219263D

 31 34  0  0  0  0  0  0  0  0999 V2000
   54.3150   85.7820   24.1520 C   0  0  0  0  0  0  0  0  0  0  0  0
   53.3620   85.1940   24.8930 N   0  0  0  0  0  0  0  0  0  0  0  0
   52.6560   84.3400   24.1160 C   0  0  0  0  0  0  0  0  0  0  0  0
   53.1690   84.3820   22.8380 C   0  0  0  0  0  0  0  0  0  0  0  0
   54.1700   85.2620   22.8870 N   0  0  0  0  0  0  0  0  0  0  0  0
   52.6260   83.6090   21.8790 N   0  0  0  0  0  0  0  0  0  0  0  0
   51.5930   82.7940   22.1290 C   0  0  0  0  0  0  0  0  0  0  0  0
   51.1070   82.0760   21.1960 O   0  0  0  0  0  0  0  0  0  0  0  0
   51.0780   82.7370   23.3690 N   0  0  0  0  0  0  0  0  0  0  0  0
   51.5940   83.4940   24.3470 C   0  0  0  0  0  0  0  0  0  0  0  0
   51.1120   83.4390   25.5050 O   0  0  0  0  0  0  0  0  0  0  0  0
   53.2030   83.6770   20.5320 C   0  0  0  0  0  1  0  0  0  0  0  0
   50.2590   82.0940   23.5740 H   0  0  0  0  0  0  0  0  0  0  0  0
   55.2960   86.7000   24.5650 N   0  0  0  0  0  0  0  0  0  0  0  0
   55.0920   88.1060   24.6060 C   0  0  0  0  0  2  0  0  0  0  0  0
   56.0920   88.7340   23.6400 C   0  0  0  0  0  2  0  0  0  0  0  0
   56.9790   87.7940   23.0980 N   0  0  0  0  0  0  0  0  0  0  0  0
   57.5520   86.7880   23.8940 C   0  0  0  0  0  2  0  0  0  0  0  0
   56.6020   86.2290   24.9590 C   0  0  0  0  0  2  0  0  0  0  0  0
   56.8630   87.5520   21.6980 C   0  0  0  0  0  2  0  0  0  0  0  0
   55.9760   88.4900   20.9840 C   0  0  0  0  0  0  0  0  0  0  0  0
   56.5120   89.6690   20.5290 C   0  0  0  0  0  3  0  0  0  0  0  0
   55.7200   90.5750   19.8420 C   0  0  0  0  0  3  0  0  0  0  0  0
   54.3860   90.3100   19.6050 C   0  0  0  0  0  0  0  0  0  0  0  0
   53.2920   91.5680   18.6480 Br  0  0  0  0  0  0  0  0  0  0  0  0
   53.8690   89.1230   20.0710 C   0  0  0  0  0  3  0  0  0  0  0  0
   54.6450   88.2100   20.7570 C   0  0  0  0  0  3  0  0  0  0  0  0
   53.0420   85.4140   26.2780 C   0  0  0  0  0  2  0  0  0  0  0  0
   53.9640   84.6530   27.2040 C   0  0  0  0  0  2  0  0  0  0  0  0
   53.8460   85.0110   28.5320 O   0  0  0  0  0  0  0  0  0  0  0  0
   52.6740   84.3720   28.9990 C   0  0  0  0  0  1  0  0  0  0  0  0
  1 14  1  0  0  0  0
  1  2  1  0  0  0  0
  2 28  1  0  0  0  0
  3 10  1  0  0  0  0
  3  2  1  0  0  0  0
  4  5  1  0  0  0  0
  4  3  2  0  0  0  0
  5  1  2  0  0  0  0
  6  7  1  0  0  0  0
  6  4  1  0  0  0  0
  7  9  1  0  0  0  0
  8  7  2  0  0  0  0
  9 13  1  0  0  0  0
  9 10  1  0  0  0  0
 10 11  2  0  0  0  0
 12  6  1  0  0  0  0
 14 15  1  0  0  0  0
 14 19  1  0  0  0  0
 16 15  1  0  0  0  0
 17 16  1  0  0  0  0
 17 18  1  0  0  0  0
 18 19  1  0  0  0  0
 20 17  1  0  0  0  0
 21 20  1  0  0  0  0
 22 21  2  0  0  0  0
 23 22  1  0  0  0  0
 24 23  2  0  0  0  0
 24 26  1  0  0  0  0
 25 24  1  0  0  0  0
 26 27  2  0  0  0  0
 27 21  1  0  0  0  0
 28 29  1  0  0  0  0
 29 30  1  0  0  0  0
 30 31  1  0  0  0  0
M  END
>  <Pose>
1

>  <Score>
-8.303

$$$$
