/Users/jonathanwahrer/Desktop/Msc/3_Semester/Drug_Design_Praktikum/waehrer_HTS_screening/HTS_experiment/out/docking_results/vina_output/3npc/0293_docked.pdbqt
 OpenBabel03192219263D

 27 30  0  0  0  0  0  0  0  0999 V2000
   52.0880   86.5970   18.3310 C   0  0  0  0  0  3  0  0  0  0  0  0
   52.5980   87.7580   18.7580 C   0  0  0  0  0  0  0  0  0  0  0  0
   53.6850   87.8470   19.6120 O   0  0  0  0  0  0  0  0  0  0  0  0
   54.0080   89.1700   19.8960 C   0  0  0  0  0  0  0  0  0  0  0  0
   53.1310   89.9700   19.2280 C   0  0  0  0  0  0  0  0  0  0  0  0
   53.2270   91.3420   19.3360 C   0  0  0  0  0  3  0  0  0  0  0  0
   54.2250   91.8460   20.1290 C   0  0  0  0  0  3  0  0  0  0  0  0
   55.1290   91.0260   20.8170 C   0  0  0  0  0  0  0  0  0  0  0  0
   55.0480   89.6590   20.7230 C   0  0  0  0  0  0  0  0  0  0  0  0
   56.1160   91.6190   21.6040 O   0  0  0  0  0  1  0  0  0  0  0  0
   52.2010   89.1120   18.4810 C   0  0  0  0  0  0  0  0  0  0  0  0
   51.2440   89.4520   17.7390 O   0  0  0  0  0  0  0  0  0  0  0  0
   52.6870   85.3420   18.7710 C   0  0  0  0  0  0  0  0  0  0  0  0
   53.5390   84.6400   17.9350 C   0  0  0  0  0  3  0  0  0  0  0  0
   54.1200   83.4470   18.3190 C   0  0  0  0  0  3  0  0  0  0  0  0
   53.8750   82.9040   19.5600 C   0  0  0  0  0  0  0  0  0  0  0  0
   54.6870   81.2460   20.0950 Br  0  0  0  0  0  0  0  0  0  0  0  0
   53.0290   83.5890   20.4060 C   0  0  0  0  0  3  0  0  0  0  0  0
   52.4440   84.7950   20.0110 C   0  0  0  0  0  3  0  0  0  0  0  0
   55.9160   88.6750   21.3810 C   0  0  0  0  0  2  0  0  0  0  0  0
   55.3720   87.8840   22.4160 N   0  0  0  0  0  4  0  0  0  0  0  0
   56.1710   86.7080   22.6920 C   0  0  0  0  0  2  0  0  0  0  0  0
   57.2620   87.0600   23.6870 C   0  0  0  0  0  2  0  0  0  0  0  0
   56.6910   87.1050   24.9490 O   0  0  0  0  0  0  0  0  0  0  0  0
   55.3930   87.6100   24.8150 C   0  0  0  0  0  2  0  0  0  0  0  0
   55.3450   88.6280   23.6870 C   0  0  0  0  0  2  0  0  0  0  0  0
   54.3760   87.6380   22.2420 H   0  0  0  0  0  0  0  0  0  0  0  0
  1  2  2  0  0  0  0
  1 13  1  0  0  0  0
  2  3  1  0  0  0  0
  3  4  1  0  0  0  0
  4  9  1  0  0  0  0
  5  6  1  0  0  0  0
  5  4  2  0  0  0  0
  6  7  2  0  0  0  0
  7  8  1  0  0  0  0
  8 10  1  0  0  0  0
  9  8  2  0  0  0  0
  9 20  1  0  0  0  0
 11  2  1  0  0  0  0
 11  5  1  0  0  0  0
 12 11  2  0  0  0  0
 13 19  1  0  0  0  0
 14 15  1  0  0  0  0
 14 13  2  0  0  0  0
 15 16  2  0  0  0  0
 16 17  1  0  0  0  0
 16 18  1  0  0  0  0
 19 18  2  0  0  0  0
 20 21  1  0  0  0  0
 21 22  1  0  0  0  0
 21 26  1  0  0  0  0
 22 23  1  0  0  0  0
 23 24  1  0  0  0  0
 25 24  1  0  0  0  0
 26 25  1  0  0  0  0
 27 21  1  0  0  0  0
M  END
>  <Pose>
1

>  <Score>
-8.329

$$$$
