/Users/jonathanwahrer/Desktop/Msc/3_Semester/Drug_Design_Praktikum/waehrer_HTS_screening/HTS_experiment/out/docking_results/vina_output/3npc/0294_docked.pdbqt
 OpenBabel03192219263D

 35 38  0  0  0  0  0  0  0  0999 V2000
   55.2860   90.1100   21.1610 N   0  0  0  0  0  0  0  0  0  0  0  0
   55.8350   89.5710   22.2920 N   0  0  0  0  0  0  0  0  0  0  0  0
   55.4550   88.2890   22.3870 C   0  0  0  0  0  0  0  0  0  0  0  0
   54.6870   88.0620   21.3230 N   0  0  0  0  0  0  0  0  0  0  0  0
   54.5740   89.2040   20.5450 C   0  0  0  0  0  0  0  0  0  0  0  0
   55.5630   91.4910   20.8180 C   0  0  0  0  0  2  0  0  0  0  0  0
   54.9500   92.4250   21.7980 C   0  0  0  0  0  0  0  0  0  0  0  0
   55.6750   92.8760   22.9270 N   0  0  0  0  0  0  0  0  0  0  0  0
   56.6760   92.5550   23.0990 H   0  0  0  0  0  0  0  0  0  0  0  0
   53.7760   92.8230   21.6270 O   0  0  0  0  0  0  0  0  0  0  0  0
   55.0770   93.7420   23.8160 N   0  0  0  0  0  0  0  0  0  0  0  0
   55.6250   94.2380   24.8550 C   0  0  0  0  0  3  0  0  0  0  0  0
   54.9420   95.1540   25.7630 C   0  0  0  0  0  0  0  0  0  0  0  0
   55.6260   96.1400   26.4420 C   0  0  0  0  0  3  0  0  0  0  0  0
   54.9580   96.9980   27.2980 C   0  0  0  0  0  3  0  0  0  0  0  0
   53.5900   96.9050   27.5090 C   0  0  0  0  0  0  0  0  0  0  0  0
   52.6970   98.1030   28.6960 Br  0  0  0  0  0  0  0  0  0  0  0  0
   52.9060   95.9180   26.8310 C   0  0  0  0  0  3  0  0  0  0  0  0
   53.5840   95.0700   25.9790 C   0  0  0  0  0  3  0  0  0  0  0  0
   53.7920   89.2360   19.3260 C   0  0  0  0  0  0  0  0  0  0  0  0
   54.2500   89.8710   18.1750 N   0  0  0  0  0  0  0  0  0  0  0  0
   53.3900   89.7440   17.2430 O   0  0  0  0  0  0  0  0  0  0  0  0
   52.3870   89.0770   17.6610 N   0  0  0  0  0  0  0  0  0  0  0  0
   52.6050   88.7410   18.9680 C   0  0  0  0  0  0  0  0  0  0  0  0
   51.6590   87.9890   19.6760 N   0  0  0  0  0  0  0  0  0  0  0  0
   50.6730   88.3320   19.7340 H   0  0  0  0  0  0  0  0  0  0  0  0
   51.8630   87.0870   20.1540 H   0  0  0  0  0  0  0  0  0  0  0  0
   55.8050   87.3350   23.4320 C   0  0  0  0  0  0  0  0  0  0  0  0
   56.5250   86.2170   23.2970 N   0  0  0  0  0  0  0  0  0  0  0  0
   56.6250   85.6200   24.4720 O   0  0  0  0  0  0  0  0  0  0  0  0
   55.9960   86.3060   25.3830 N   0  0  0  0  0  0  0  0  0  0  0  0
   55.4630   87.4010   24.7590 C   0  0  0  0  0  0  0  0  0  0  0  0
   54.7000   88.3940   25.4250 N   0  0  0  0  0  0  0  0  0  0  0  0
   53.9210   88.1050   26.0800 H   0  0  0  0  0  0  0  0  0  0  0  0
   54.8550   89.4140   25.3130 H   0  0  0  0  0  0  0  0  0  0  0  0
  1  2  1  0  0  0  0
  2  3  2  0  0  0  0
  3 28  1  0  0  0  0
  4  3  1  0  0  0  0
  5  1  1  0  0  0  0
  5  4  2  0  0  0  0
  6  1  1  0  0  0  0
  6  7  1  0  0  0  0
  7  8  1  0  0  0  0
  8  9  1  0  0  0  0
  8 11  1  0  0  0  0
 10  7  2  0  0  0  0
 11 12  2  0  0  0  0
 12 13  1  0  0  0  0
 13 19  2  0  0  0  0
 13 14  1  0  0  0  0
 14 15  2  0  0  0  0
 15 16  1  0  0  0  0
 16 17  1  0  0  0  0
 18 16  2  0  0  0  0
 19 18  1  0  0  0  0
 20  5  1  0  0  0  0
 21 20  2  0  0  0  0
 22 23  1  0  0  0  0
 22 21  1  0  0  0  0
 23 24  2  0  0  0  0
 24 20  1  0  0  0  0
 24 25  1  0  0  0  0
 25 26  1  0  0  0  0
 25 27  1  0  0  0  0
 28 32  1  0  0  0  0
 29 28  2  0  0  0  0
 29 30  1  0  0  0  0
 30 31  1  0  0  0  0
 32 31  2  0  0  0  0
 32 33  1  0  0  0  0
 33 34  1  0  0  0  0
 35 33  1  0  0  0  0
M  END
>  <Pose>
1

>  <Score>
-10.771

$$$$
