/Users/jonathanwahrer/Desktop/Msc/3_Semester/Drug_Design_Praktikum/waehrer_HTS_screening/HTS_experiment/out/docking_results/vina_output/3npc/0305_docked.pdbqt
 OpenBabel03192219273D

 27 30  0  0  0  0  0  0  0  0999 V2000
   52.7400   86.7050   19.3260 C   0  0  0  0  0  0  0  0  0  0  0  0
   53.2480   87.8760   19.6860 N   0  0  0  0  0  0  0  0  0  0  0  0
   52.5670   88.8930   19.1040 C   0  0  0  0  0  0  0  0  0  0  0  0
   51.5990   88.3220   18.3640 N   0  0  0  0  0  0  0  0  0  0  0  0
   51.6780   87.0370   18.4800 N   0  0  0  0  0  0  0  0  0  0  0  0
   53.0560   90.0890   19.4540 N   0  0  0  0  0  0  0  0  0  0  0  0
   54.0690   89.8240   20.2870 C   0  0  0  0  0  0  0  0  0  0  0  0
   54.2150   88.4410   20.4610 C   0  0  0  0  0  0  0  0  0  0  0  0
   55.1330   87.9480   21.2760 N   0  0  0  0  0  0  0  0  0  0  0  0
   55.9400   88.8380   21.9310 C   0  0  0  0  0  0  0  0  0  0  0  0
   56.8260   88.4110   22.7090 O   0  0  0  0  0  0  0  0  0  0  0  0
   55.8310   90.1630   21.7800 N   0  0  0  0  0  0  0  0  0  0  0  0
   54.9010   90.6850   20.9640 C   0  0  0  0  0  0  0  0  0  0  0  0
   54.7670   91.9250   20.7970 O   0  0  0  0  0  0  0  0  0  0  0  0
   55.3130   86.5670   21.6450 C   0  0  0  0  0  1  0  0  0  0  0  0
   56.4460   90.8400   22.2760 H   0  0  0  0  0  0  0  0  0  0  0  0
   53.0150   85.3060   19.5920 C   0  0  0  0  0  0  0  0  0  0  0  0
   53.9060   84.6480   18.7400 C   0  0  0  0  0  3  0  0  0  0  0  0
   54.3470   83.3850   18.9820 C   0  0  0  0  0  3  0  0  0  0  0  0
   53.9130   82.7100   20.1040 C   0  0  0  0  0  0  0  0  0  0  0  0
   54.5290   80.9510   20.4380 Br  0  0  0  0  0  0  0  0  0  0  0  0
   53.0360   83.3050   20.9830 C   0  0  0  0  0  3  0  0  0  0  0  0
   52.6250   84.5800   20.6880 C   0  0  0  0  0  3  0  0  0  0  0  0
   52.5950   91.3890   19.0230 C   0  0  0  0  0  2  0  0  0  0  0  0
   52.9200   91.6710   17.5720 C   0  0  0  0  0  2  0  0  0  0  0  0
   54.2900   91.6880   17.3410 O   0  0  0  0  0  0  0  0  0  0  0  0
   54.5520   90.7660   16.3280 C   0  0  0  0  0  1  0  0  0  0  0  0
  1 17  1  0  0  0  0
  1  2  1  0  0  0  0
  2  8  1  0  0  0  0
  3  6  1  0  0  0  0
  3  2  1  0  0  0  0
  4  5  1  0  0  0  0
  4  3  2  0  0  0  0
  5  1  2  0  0  0  0
  6  7  1  0  0  0  0
  7  8  2  0  0  0  0
  7 13  1  0  0  0  0
  8  9  1  0  0  0  0
  9 15  1  0  0  0  0
  9 10  1  0  0  0  0
 10 11  2  0  0  0  0
 12 10  1  0  0  0  0
 12 16  1  0  0  0  0
 13 12  1  0  0  0  0
 14 13  2  0  0  0  0
 17 23  1  0  0  0  0
 18 19  1  0  0  0  0
 18 17  2  0  0  0  0
 19 20  2  0  0  0  0
 20 21  1  0  0  0  0
 20 22  1  0  0  0  0
 23 22  2  0  0  0  0
 24  6  1  0  0  0  0
 25 24  1  0  0  0  0
 26 25  1  0  0  0  0
 27 26  1  0  0  0  0
M  END
>  <Pose>
1

>  <Score>
-7.596

$$$$
