/Users/jonathanwahrer/Desktop/Msc/3_Semester/Drug_Design_Praktikum/waehrer_HTS_screening/HTS_experiment/out/docking_results/vina_output/3npc/0309_docked.pdbqt
 OpenBabel03192219273D

 33 36  0  0  0  0  0  0  0  0999 V2000
   54.6320   85.7250   24.4780 C   0  0  0  0  0  0  0  0  0  0  0  0
   53.9020   85.4450   23.3480 C   0  0  0  0  0  0  0  0  0  0  0  0
   53.9660   86.1790   22.2540 O   0  0  0  0  0  0  0  0  0  0  0  0
   54.7410   87.2300   22.1770 C   0  0  0  0  0  0  0  0  0  0  0  0
   55.4840   87.5580   23.2550 C   0  0  0  0  0  0  0  0  0  0  0  0
   56.3120   88.6580   23.2040 C   0  0  0  0  0  3  0  0  0  0  0  0
   56.3550   89.3910   22.0460 C   0  0  0  0  0  3  0  0  0  0  0  0
   55.5760   89.0390   20.9270 C   0  0  0  0  0  0  0  0  0  0  0  0
   54.7490   87.9560   20.9540 C   0  0  0  0  0  0  0  0  0  0  0  0
   55.7500   89.8920   19.8500 O   0  0  0  0  0  1  0  0  0  0  0  0
   55.4700   86.8410   24.4360 C   0  0  0  0  0  0  0  0  0  0  0  0
   56.1510   87.1440   25.4210 O   0  0  0  0  0  0  0  0  0  0  0  0
   53.8790   87.4850   19.9030 C   0  0  0  0  0  2  0  0  0  0  0  0
   53.1160   88.3390   19.0880 N   0  0  0  0  0  4  0  0  0  0  0  0
   53.7230   88.5720   17.8260 C   0  0  0  0  0  2  0  0  0  0  0  0
   53.4430   89.8360   17.1140 C   0  0  0  0  0  2  0  0  0  0  0  0
   52.9430   90.8500   17.9380 N   0  0  0  0  0  0  0  0  0  0  0  0
   51.9500   90.5310   18.8680 C   0  0  0  0  0  2  0  0  0  0  0  0
   53.4370   92.1590   17.8380 C   0  0  0  0  0  1  0  0  0  0  0  0
   52.3540   89.3610   19.7090 C   0  0  0  0  0  2  0  0  0  0  0  0
   52.2800   87.6310   18.7800 H   0  0  0  0  0  0  0  0  0  0  0  0
   53.0110   84.2750   23.3720 C   0  0  0  0  0  0  0  0  0  0  0  0
   53.4340   83.2030   22.8710 O   0  0  0  0  0  0  0  0  0  0  0  0
   51.7590   84.2890   23.9050 O   0  0  0  0  0  0  0  0  0  0  0  0
   51.0760   83.0860   24.1630 C   0  0  0  0  0  2  0  0  0  0  0  0
   51.2110   82.7460   25.6210 C   0  0  0  0  0  1  0  0  0  0  0  0
   54.5490   84.8770   25.6370 C   0  0  0  0  0  0  0  0  0  0  0  0
   55.2580   83.6850   25.7620 C   0  0  0  0  0  3  0  0  0  0  0  0
   55.1900   82.8780   26.8770 C   0  0  0  0  0  3  0  0  0  0  0  0
   54.3930   83.2490   27.9190 C   0  0  0  0  0  0  0  0  0  0  0  0
   54.3140   82.1190   29.4600 Br  0  0  0  0  0  0  0  0  0  0  0  0
   53.6690   84.4210   27.8450 C   0  0  0  0  0  3  0  0  0  0  0  0
   53.7550   85.2270   26.6980 C   0  0  0  0  0  3  0  0  0  0  0  0
  1 27  1  0  0  0  0
  2 22  1  0  0  0  0
  2  1  2  0  0  0  0
  3  2  1  0  0  0  0
  4  3  1  0  0  0  0
  4  5  1  0  0  0  0
  5 11  1  0  0  0  0
  6  5  2  0  0  0  0
  7  6  1  0  0  0  0
  8  9  1  0  0  0  0
  8  7  2  0  0  0  0
  9  4  2  0  0  0  0
 10  8  1  0  0  0  0
 11  1  1  0  0  0  0
 11 12  2  0  0  0  0
 13  9  1  0  0  0  0
 14 20  1  0  0  0  0
 14 13  1  0  0  0  0
 15 14  1  0  0  0  0
 16 15  1  0  0  0  0
 16 17  1  0  0  0  0
 17 18  1  0  0  0  0
 18 20  1  0  0  0  0
 19 17  1  0  0  0  0
 21 14  1  0  0  0  0
 22 24  1  0  0  0  0
 23 22  2  0  0  0  0
 24 25  1  0  0  0  0
 25 26  1  0  0  0  0
 27 28  2  0  0  0  0
 27 33  1  0  0  0  0
 28 29  1  0  0  0  0
 29 30  2  0  0  0  0
 30 31  1  0  0  0  0
 32 30  1  0  0  0  0
 33 32  2  0  0  0  0
M  END
>  <Pose>
1

>  <Score>
-7.527

$$$$
