/Users/jonathanwahrer/Desktop/Msc/3_Semester/Drug_Design_Praktikum/waehrer_HTS_screening/HTS_experiment/out/docking_results/vina_output/3npc/0347_docked.pdbqt
 OpenBabel03192219293D

 34 37  0  0  1  0  0  0  0  0999 V2000
   53.9690   84.2330   20.9580 C   0  0  2  0  0  3  0  0  0  0  0  0
   54.0490   85.6780   21.0210 N   0  0  0  0  0  0  0  0  0  0  0  0
   53.0960   86.1740   20.0790 C   0  0  0  0  0  0  0  0  0  0  0  0
   52.5210   87.2900   20.1060 O   0  0  0  0  0  0  0  0  0  0  0  0
   52.9330   85.1190   19.0840 C   0  0  0  0  0  0  0  0  0  0  0  0
   52.2010   85.0920   18.0640 O   0  0  0  0  0  0  0  0  0  0  0  0
   53.8060   84.0160   19.4730 C   0  0  0  0  0  0  0  0  0  0  0  0
   54.2770   83.0690   18.7000 C   0  0  0  0  0  0  0  0  0  0  0  0
   55.0570   82.0850   19.3330 O   0  0  0  0  0  1  0  0  0  0  0  0
   54.9290   86.4940   21.8750 C   0  0  0  0  0  2  0  0  0  0  0  0
   55.6710   87.5400   21.0290 C   0  0  0  0  0  2  0  0  0  0  0  0
   55.3690   88.9110   21.5630 C   0  0  0  0  0  2  0  0  0  0  0  0
   55.8860   89.8980   20.6460 N   0  0  0  0  0  4  0  0  0  0  0  0
   55.9410   91.2210   21.1820 C   0  0  0  0  0  2  0  0  0  0  0  0
   54.6000   91.8560   21.3230 C   0  0  0  0  0  2  0  0  0  0  0  0
   53.9260   91.8620   20.1140 O   0  0  0  0  0  0  0  0  0  0  0  0
   53.7470   90.5350   19.7220 C   0  0  0  0  0  2  0  0  0  0  0  0
   55.1150   89.9560   19.4160 C   0  0  0  0  0  2  0  0  0  0  0  0
   56.8530   89.6100   20.3680 H   0  0  0  0  0  0  0  0  0  0  0  0
   52.8210   83.7330   21.7030 C   0  0  0  0  0  0  0  0  0  0  0  0
   51.9190   82.8840   21.1120 C   0  0  0  0  0  3  0  0  0  0  0  0
   50.8070   82.4060   21.8100 C   0  0  0  0  0  3  0  0  0  0  0  0
   50.5950   82.7830   23.1150 C   0  0  0  0  0  0  0  0  0  0  0  0
   49.0740   82.1310   24.0640 Br  0  0  0  0  0  0  0  0  0  0  0  0
   51.4880   83.6300   23.7170 C   0  0  0  0  0  3  0  0  0  0  0  0
   52.5840   84.0930   23.0110 C   0  0  0  0  0  3  0  0  0  0  0  0
   54.0340   83.0090   17.2630 C   0  0  0  0  0  0  0  0  0  0  0  0
   53.0450   82.2510   16.6770 C   0  0  0  0  0  3  0  0  0  0  0  0
   52.8220   82.1730   15.3140 C   0  0  0  0  0  0  0  0  0  0  0  0
   53.6300   82.8920   14.4810 C   0  0  0  0  0  3  0  0  0  0  0  0
   54.6430   83.6730   15.0290 C   0  0  0  0  0  3  0  0  0  0  0  0
   54.8360   83.7260   16.3930 C   0  0  0  0  0  3  0  0  0  0  0  0
   51.7860   81.3650   14.9030 O   0  0  0  0  0  0  0  0  0  0  0  0
   51.5280   80.0560   15.2790 C   0  0  0  0  0  1  0  0  0  0  0  0
  1  2  1  0  0  0  0
  1 20  1  1  0  0  0
  2 10  1  0  0  0  0
  3  4  2  0  0  0  0
  3  2  1  0  0  0  0
  5  7  1  0  0  0  0
  5  3  1  0  0  0  0
  6  5  2  0  0  0  0
  7  1  1  0  0  0  0
  8  9  1  0  0  0  0
  8  7  2  0  0  0  0
 11 12  1  0  0  0  0
 11 10  1  0  0  0  0
 13 14  1  0  0  0  0
 13 12  1  0  0  0  0
 14 15  1  0  0  0  0
 16 15  1  0  0  0  0
 17 16  1  0  0  0  0
 18 17  1  0  0  0  0
 18 13  1  0  0  0  0
 19 13  1  0  0  0  0
 20 26  1  0  0  0  0
 21 20  2  0  0  0  0
 21 22  1  0  0  0  0
 22 23  2  0  0  0  0
 23 25  1  0  0  0  0
 23 24  1  0  0  0  0
 26 25  2  0  0  0  0
 27  8  1  0  0  0  0
 28 27  1  0  0  0  0
 29 28  2  0  0  0  0
 30 31  2  0  0  0  0
 30 29  1  0  0  0  0
 31 32  1  0  0  0  0
 32 27  2  0  0  0  0
 33 34  1  0  0  0  0
 33 29  1  0  0  0  0
M  END
>  <Pose>
1

>  <Score>
-8.078

$$$$
