/Users/jonathanwahrer/Desktop/Msc/3_Semester/Drug_Design_Praktikum/waehrer_HTS_screening/HTS_experiment/out/docking_results/vina_output/3npc/0354_docked.pdbqt
 OpenBabel03192219303D

 32 35  0  0  1  0  0  0  0  0999 V2000
   53.1130   87.1320   20.1310 C   0  0  1  0  0  3  0  0  0  0  0  0
   53.0810   85.8270   19.5530 N   0  0  0  0  0  0  0  0  0  0  0  0
   53.4290   84.9170   20.6270 C   0  0  0  0  0  0  0  0  0  0  0  0
   53.1650   83.6860   20.6340 O   0  0  0  0  0  0  0  0  0  0  0  0
   54.1170   85.6790   21.6510 C   0  0  0  0  0  0  0  0  0  0  0  0
   54.5890   85.2540   22.7500 O   0  0  0  0  0  0  0  0  0  0  0  0
   54.1680   87.0460   21.1750 C   0  0  0  0  0  0  0  0  0  0  0  0
   55.0100   87.9790   21.5850 C   0  0  0  0  0  0  0  0  0  0  0  0
   54.9070   89.2360   20.9410 O   0  0  0  0  0  1  0  0  0  0  0  0
   52.7110   85.3550   18.2170 C   0  0  0  0  0  2  0  0  0  0  0  0
   53.8040   84.6800   17.4590 C   0  0  0  0  0  2  0  0  0  0  0  0
   53.4940   83.2140   17.2000 C   0  0  0  0  0  2  0  0  0  0  0  0
   54.3300   82.6790   16.1500 N   0  0  0  0  0  4  0  0  0  0  0  0
   54.4360   81.2390   16.2030 C   0  0  0  0  0  2  0  0  0  0  0  0
   54.9610   80.7870   14.8390 C   0  0  0  0  0  2  0  0  0  0  0  0
   53.9180   80.8650   13.9170 O   0  0  0  0  0  0  0  0  0  0  0  0
   53.1440   82.0080   14.1130 C   0  0  0  0  0  2  0  0  0  0  0  0
   53.9210   83.0860   14.8410 C   0  0  0  0  0  2  0  0  0  0  0  0
   55.2930   83.0600   16.3150 H   0  0  0  0  0  0  0  0  0  0  0  0
   53.2600   88.2750   19.2510 C   0  0  0  0  0  0  0  0  0  0  0  0
   54.1370   88.4170   18.2300 C   0  0  0  0  0  3  0  0  0  0  0  0
   54.1730   89.5490   17.4370 C   0  0  0  0  0  3  0  0  0  0  0  0
   53.3110   90.6030   17.6470 C   0  0  0  0  0  0  0  0  0  0  0  0
   53.3430   92.1750   16.5640 Br  0  0  0  0  0  0  0  0  0  0  0  0
   52.4050   90.4930   18.6800 C   0  0  0  0  0  3  0  0  0  0  0  0
   52.3870   89.3570   19.4560 C   0  0  0  0  0  3  0  0  0  0  0  0
   55.9980   87.7930   22.6280 C   0  0  0  0  0  0  0  0  0  0  0  0
   55.7620   88.4760   23.8280 C   0  0  0  0  0  3  0  0  0  0  0  0
   56.5960   88.3560   24.9200 C   0  0  0  0  0  3  0  0  0  0  0  0
   57.6780   87.5600   24.8430 N   0  0  0  0  0  0  0  0  0  0  0  0
   57.9300   86.8900   23.7000 C   0  0  0  0  0  3  0  0  0  0  0  0
   57.0940   87.0020   22.5900 C   0  0  0  0  0  3  0  0  0  0  0  0
  1 20  1  6  0  0  0
  1  7  1  0  0  0  0
  2  1  1  0  0  0  0
  2  3  1  0  0  0  0
  3  4  2  0  0  0  0
  3  5  1  0  0  0  0
  5  6  2  0  0  0  0
  7  8  2  0  0  0  0
  7  5  1  0  0  0  0
  8 27  1  0  0  0  0
  9  8  1  0  0  0  0
 10  2  1  0  0  0  0
 11 10  1  0  0  0  0
 12 11  1  0  0  0  0
 13 14  1  0  0  0  0
 13 19  1  0  0  0  0
 13 12  1  0  0  0  0
 15 14  1  0  0  0  0
 16 17  1  0  0  0  0
 16 15  1  0  0  0  0
 17 18  1  0  0  0  0
 18 13  1  0  0  0  0
 20 26  1  0  0  0  0
 21 20  2  0  0  0  0
 22 23  2  0  0  0  0
 22 21  1  0  0  0  0
 23 25  1  0  0  0  0
 24 23  1  0  0  0  0
 25 26  2  0  0  0  0
 27 28  1  0  0  0  0
 28 29  2  0  0  0  0
 30 29  1  0  0  0  0
 31 30  2  0  0  0  0
 32 27  2  0  0  0  0
 32 31  1  0  0  0  0
M  END
>  <Pose>
1

>  <Score>
-8.108

$$$$
