/Users/jonathanwahrer/Desktop/Msc/3_Semester/Drug_Design_Praktikum/waehrer_HTS_screening/HTS_experiment/out/docking_results/vina_output/3npc/0361_docked.pdbqt
 OpenBabel03192219313D

 33 36  0  0  1  0  0  0  0  0999 V2000
   51.0480   83.6510   29.6360 C   0  0  1  0  0  3  0  0  0  0  0  0
   50.8030   84.9210   30.3440 N   0  0  0  0  0  0  0  0  0  0  0  0
   49.6510   85.4650   29.7110 C   0  0  0  0  0  0  0  0  0  0  0  0
   49.3680   86.6970   29.6860 O   0  0  0  0  0  0  0  0  0  0  0  0
   48.8820   84.3760   29.1170 C   0  0  0  0  0  0  0  0  0  0  0  0
   47.8090   84.4710   28.4870 O   0  0  0  0  0  0  0  0  0  0  0  0
   49.6320   83.1730   29.4250 C   0  0  0  0  0  0  0  0  0  0  0  0
   49.1870   81.9470   29.5370 C   0  0  0  0  0  0  0  0  0  0  0  0
   50.0360   80.9080   29.8900 O   0  0  0  0  0  1  0  0  0  0  0  0
   51.6200   83.9010   28.2940 C   0  0  0  0  0  0  0  0  0  0  0  0
   51.0590   83.3550   27.1640 C   0  0  0  0  0  3  0  0  0  0  0  0
   51.5750   83.5890   25.8900 C   0  0  0  0  0  3  0  0  0  0  0  0
   52.6880   84.3940   25.7310 C   0  0  0  0  0  0  0  0  0  0  0  0
   53.4160   84.7300   23.9850 Br  0  0  0  0  0  0  0  0  0  0  0  0
   53.2450   84.9380   26.8620 C   0  0  0  0  0  3  0  0  0  0  0  0
   52.7280   84.6990   28.1130 C   0  0  0  0  0  3  0  0  0  0  0  0
   47.7960   81.6140   29.2970 C   0  0  0  0  0  0  0  0  0  0  0  0
   46.7130   81.6580   30.1000 N   0  0  0  0  0  0  0  0  0  0  0  0
   45.6230   81.2180   29.4560 C   0  0  0  0  0  0  0  0  0  0  0  0
   46.5500   82.0740   31.3820 C   0  0  0  0  0  3  0  0  0  0  0  0
   46.0320   80.8880   28.2120 N   0  0  0  0  0  0  0  0  0  0  0  0
   44.3580   81.1710   30.0430 C   0  0  0  0  0  3  0  0  0  0  0  0
   47.3240   81.1080   28.0660 C   0  0  0  0  0  0  0  0  0  0  0  0
   48.2010   80.8940   26.8700 C   0  0  0  0  0  1  0  0  0  0  0  0
   44.1880   81.5900   31.3430 C   0  0  0  0  0  3  0  0  0  0  0  0
   45.3170   82.0410   31.9870 C   0  0  0  0  0  3  0  0  0  0  0  0
   51.5900   85.4630   31.4210 C   0  0  0  0  0  2  0  0  0  0  0  0
   51.2180   85.1560   32.8180 C   0  0  0  0  0  2  0  0  0  0  0  0
   49.8560   85.4380   33.3150 C   0  0  0  0  0  2  0  0  0  0  0  0
   48.8640   84.4140   33.1820 N   0  0  0  0  0  4  0  0  0  0  0  0
   49.5810   83.1120   33.2940 C   0  0  0  0  0  1  0  0  0  0  0  0
   47.9820   84.4300   34.3310 C   0  0  0  0  0  1  0  0  0  0  0  0
   48.3190   84.4070   32.3210 H   0  0  0  0  0  0  0  0  0  0  0  0
  1 10  1  6  0  0  0
  1  2  1  0  0  0  0
  2 27  1  0  0  0  0
  3  2  1  0  0  0  0
  4  3  2  0  0  0  0
  5  7  1  0  0  0  0
  5  3  1  0  0  0  0
  6  5  2  0  0  0  0
  7  8  2  0  0  0  0
  7  1  1  0  0  0  0
  8  9  1  0  0  0  0
 11 10  2  0  0  0  0
 12 11  1  0  0  0  0
 13 12  2  0  0  0  0
 13 15  1  0  0  0  0
 14 13  1  0  0  0  0
 15 16  2  0  0  0  0
 16 10  1  0  0  0  0
 17  8  1  0  0  0  0
 17 18  1  0  0  0  0
 18 20  1  0  0  0  0
 19 22  1  0  0  0  0
 19 18  1  0  0  0  0
 20 26  2  0  0  0  0
 21 19  2  0  0  0  0
 22 25  2  0  0  0  0
 23 21  1  0  0  0  0
 23 17  2  0  0  0  0
 24 23  1  0  0  0  0
 25 26  1  0  0  0  0
 27 28  1  0  0  0  0
 28 29  1  0  0  0  0
 30 31  1  0  0  0  0
 30 29  1  0  0  0  0
 30 32  1  0  0  0  0
 33 30  1  0  0  0  0
M  END
>  <Pose>
1

>  <Score>
-6.461

$$$$
