/Users/jonathanwahrer/Desktop/Msc/3_Semester/Drug_Design_Praktikum/waehrer_HTS_screening/HTS_experiment/out/docking_results/vina_output/3npc/0381_docked.pdbqt
 OpenBabel03192219323D

 29 32  0  0  0  0  0  0  0  0999 V2000
   53.3260   86.2590   20.4740 N   0  0  0  0  0  0  0  0  0  0  0  0
   53.5290   87.4890   20.0110 N   0  0  0  0  0  0  0  0  0  0  0  0
   54.5750   88.2530   20.4410 C   0  0  0  0  0  0  0  0  0  0  0  0
   55.4210   87.7520   21.3540 N   0  0  0  0  0  0  0  0  0  0  0  0
   56.4380   88.7250   21.6890 C   0  0  0  0  0  3  0  0  0  0  0  0
   56.1630   89.9460   20.8630 C   0  0  0  0  0  3  0  0  0  0  0  0
   55.0120   89.5550   20.0700 N   0  0  0  0  0  0  0  0  0  0  0  0
   55.2670   86.5200   21.8570 C   0  0  0  0  0  0  0  0  0  0  0  0
   56.0590   86.0550   22.7110 O   0  0  0  0  0  0  0  0  0  0  0  0
   54.1940   85.7900   21.3870 C   0  0  0  0  0  0  0  0  0  0  0  0
   54.0070   84.6290   21.8300 O   0  0  0  0  0  0  0  0  0  0  0  0
   52.2210   85.4110   19.9960 C   0  0  0  0  0  2  0  0  0  0  0  0
   52.6920   84.4720   18.9790 C   0  0  0  0  0  0  0  0  0  0  0  0
   53.5660   84.7220   17.9150 N   0  0  0  0  0  0  0  0  0  0  0  0
   53.9260   85.7140   17.8250 H   0  0  0  0  0  0  0  0  0  0  0  0
   52.2130   83.2780   19.1280 O   0  0  0  0  0  0  0  0  0  0  0  0
   53.9930   83.7840   16.9700 C   0  0  0  0  0  0  0  0  0  0  0  0
   55.0280   82.8910   17.0940 C   0  0  0  0  0  3  0  0  0  0  0  0
   55.3610   81.9670   16.0940 C   0  0  0  0  0  3  0  0  0  0  0  0
   54.6580   81.9040   14.9190 C   0  0  0  0  0  0  0  0  0  0  0  0
   55.0960   80.6470   13.5480 Br  0  0  0  0  0  0  0  0  0  0  0  0
   53.6120   82.7930   14.7720 C   0  0  0  0  0  3  0  0  0  0  0  0
   53.2930   83.6930   15.7510 C   0  0  0  0  0  3  0  0  0  0  0  0
   54.4450   90.3910   19.0800 C   0  0  0  0  0  0  0  0  0  0  0  0
   53.2570   91.0550   19.2310 C   0  0  0  0  0  3  0  0  0  0  0  0
   52.7210   91.8540   18.2370 C   0  0  0  0  0  3  0  0  0  0  0  0
   53.3970   91.9980   17.0400 C   0  0  0  0  0  3  0  0  0  0  0  0
   54.5780   91.3480   16.8690 C   0  0  0  0  0  3  0  0  0  0  0  0
   55.1050   90.5530   17.8650 C   0  0  0  0  0  3  0  0  0  0  0  0
  1 10  1  0  0  0  0
  2  3  2  0  0  0  0
  2  1  1  0  0  0  0
  3  4  1  0  0  0  0
  4  5  1  0  0  0  0
  4  8  1  0  0  0  0
  6  5  2  0  0  0  0
  7  3  1  0  0  0  0
  7  6  1  0  0  0  0
  8  9  2  0  0  0  0
 10 11  2  0  0  0  0
 10  8  1  0  0  0  0
 12  1  1  0  0  0  0
 13 16  2  0  0  0  0
 13 12  1  0  0  0  0
 14 13  1  0  0  0  0
 15 14  1  0  0  0  0
 17 18  1  0  0  0  0
 17 14  1  0  0  0  0
 19 18  2  0  0  0  0
 20 19  1  0  0  0  0
 21 20  1  0  0  0  0
 22 20  2  0  0  0  0
 22 23  1  0  0  0  0
 23 17  2  0  0  0  0
 24 25  1  0  0  0  0
 24  7  1  0  0  0  0
 26 25  2  0  0  0  0
 27 26  1  0  0  0  0
 28 27  2  0  0  0  0
 28 29  1  0  0  0  0
 29 24  2  0  0  0  0
M  END
>  <Pose>
1

>  <Score>
-9.538

$$$$
