/Users/jonathanwahrer/Desktop/Msc/3_Semester/Drug_Design_Praktikum/waehrer_HTS_screening/HTS_experiment/out/docking_results/vina_output/3npc/0385_docked.pdbqt
 OpenBabel03192219323D

 32 35  0  0  1  0  0  0  0  0999 V2000
   47.4980  101.2190   28.8220 C   0  0  2  0  0  3  0  0  0  0  0  0
   48.2380  101.5020   27.5490 C   0  0  0  0  0  2  0  0  0  0  0  0
   49.6270  101.9420   27.7350 C   0  0  0  0  0  0  0  0  0  0  0  0
   50.4650  101.6470   26.8390 O   0  0  0  0  0  0  0  0  0  0  0  0
   49.9960  102.6710   28.8920 N   0  0  0  0  0  0  0  0  0  0  0  0
   49.1380  102.6980   30.0130 C   0  0  0  0  0  0  0  0  0  0  0  0
   49.5090  103.4210   31.1150 N   0  0  0  0  0  0  0  0  0  0  0  0
   48.7410  103.5010   32.2040 C   0  0  0  0  0  0  0  0  0  0  0  0
   47.5750  102.8420   32.1920 N   0  0  0  0  0  0  0  0  0  0  0  0
   47.1590  102.1060   31.1210 C   0  0  0  0  0  0  0  0  0  0  0  0
   47.9340  102.0080   29.9820 C   0  0  0  0  0  0  0  0  0  0  0  0
   50.9100  103.2070   28.9450 H   0  0  0  0  0  0  0  0  0  0  0  0
   47.6690   99.7040   29.0610 C   0  0  0  0  0  0  0  0  0  0  0  0
   48.8530   99.1410   28.8900 N   0  0  0  0  0  0  0  0  0  0  0  0
   48.2960   97.9090   29.0530 H   0  0  0  0  0  0  0  0  0  0  0  0
   46.5330   99.1920   29.4160 O   0  0  0  0  0  0  0  0  0  0  0  0
   50.0820   98.5560   28.7120 C   0  0  0  0  0  0  0  0  0  0  0  0
   50.1470   97.4940   27.7550 C   0  0  0  0  0  3  0  0  0  0  0  0
   51.3130   96.8940   27.4440 C   0  0  0  0  0  3  0  0  0  0  0  0
   52.4950   97.2720   28.0330 C   0  0  0  0  0  0  0  0  0  0  0  0
   54.1480   96.4100   27.5730 Br  0  0  0  0  0  0  0  0  0  0  0  0
   52.4750   98.2890   28.9610 C   0  0  0  0  0  3  0  0  0  0  0  0
   51.2890   98.9030   29.2780 C   0  0  0  0  0  3  0  0  0  0  0  0
   45.9160  101.4130   31.1620 N   0  0  0  0  0  0  0  0  0  0  0  0
   45.0550  101.7780   30.7430 H   0  0  0  0  0  0  0  0  0  0  0  0
   45.8780  100.4830   31.6520 H   0  0  0  0  0  0  0  0  0  0  0  0
   49.1560  104.2690   33.3570 N   0  0  0  0  0  0  0  0  0  0  0  0
   48.2360  104.3630   34.4370 C   0  0  0  0  0  2  0  0  0  0  0  0
   48.8560  104.7650   35.7440 C   0  0  0  0  0  2  0  0  0  0  0  0
   50.2390  104.8800   35.6640 O   0  0  0  0  0  0  0  0  0  0  0  0
   50.6310  105.6820   34.6000 C   0  0  0  0  0  2  0  0  0  0  0  0
   50.4690  104.8790   33.3350 C   0  0  0  0  0  2  0  0  0  0  0  0
  1 13  1  1  0  0  0
  1 11  1  0  0  0  0
  2  3  1  0  0  0  0
  2  1  1  0  0  0  0
  3  5  1  0  0  0  0
  4  3  2  0  0  0  0
  5 12  1  0  0  0  0
  5  6  1  0  0  0  0
  6  7  1  0  0  0  0
  7  8  2  0  0  0  0
  8 27  1  0  0  0  0
  9  8  1  0  0  0  0
 10 24  1  0  0  0  0
 10  9  2  0  0  0  0
 11  6  2  0  0  0  0
 11 10  1  0  0  0  0
 13 16  2  0  0  0  0
 14 15  1  0  0  0  0
 14 13  1  0  0  0  0
 17 14  1  0  0  0  0
 17 23  1  0  0  0  0
 18 17  2  0  0  0  0
 19 18  1  0  0  0  0
 19 20  2  0  0  0  0
 20 22  1  0  0  0  0
 21 20  1  0  0  0  0
 22 23  2  0  0  0  0
 24 26  1  0  0  0  0
 25 24  1  0  0  0  0
 27 28  1  0  0  0  0
 28 29  1  0  0  0  0
 30 29  1  0  0  0  0
 31 30  1  0  0  0  0
 32 27  1  0  0  0  0
 32 31  1  0  0  0  0
M  END
>  <Pose>
1

>  <Score>
-9.400

$$$$
