/Users/jonathanwahrer/Desktop/Msc/3_Semester/Drug_Design_Praktikum/waehrer_HTS_screening/HTS_experiment/out/docking_results/vina_output/3npc/0386_docked.pdbqt
 OpenBabel03192219323D

 36 39  0  0  1  0  0  0  0  0999 V2000
   53.6880   84.8030   20.5070 C   0  0  2  0  0  3  0  0  0  0  0  0
   53.7850   84.8970   22.0190 C   0  0  0  0  0  2  0  0  0  0  0  0
   54.7470   85.9940   22.3460 C   0  0  0  0  0  0  0  0  0  0  0  0
   55.6460   85.8160   23.1480 O   0  0  0  0  0  0  0  0  0  0  0  0
   54.5490   87.2160   21.6880 N   0  0  0  0  0  0  0  0  0  0  0  0
   53.8230   87.2760   20.4760 C   0  0  0  0  0  0  0  0  0  0  0  0
   53.5420   88.4550   19.8840 N   0  0  0  0  0  0  0  0  0  0  0  0
   52.7900   88.6110   18.7940 C   0  0  0  0  0  0  0  0  0  0  0  0
   52.2870   87.4620   18.2740 N   0  0  0  0  0  0  0  0  0  0  0  0
   52.5300   86.2400   18.8140 C   0  0  0  0  0  0  0  0  0  0  0  0
   53.3030   86.0820   19.9240 C   0  0  0  0  0  0  0  0  0  0  0  0
   54.9190   88.1320   22.0580 H   0  0  0  0  0  0  0  0  0  0  0  0
   53.0560   83.5480   20.0170 C   0  0  0  0  0  0  0  0  0  0  0  0
   53.5600   82.8400   18.9880 N   0  0  0  0  0  0  0  0  0  0  0  0
   52.6530   81.8670   19.2000 H   0  0  0  0  0  0  0  0  0  0  0  0
   51.9970   83.2830   20.7330 O   0  0  0  0  0  0  0  0  0  0  0  0
   54.0730   82.1190   17.9390 C   0  0  0  0  0  0  0  0  0  0  0  0
   53.1060   81.7630   16.9440 C   0  0  0  0  0  3  0  0  0  0  0  0
   53.5230   80.9910   15.9110 C   0  0  0  0  0  3  0  0  0  0  0  0
   54.8240   80.5390   15.7750 C   0  0  0  0  0  0  0  0  0  0  0  0
   55.2960   79.4650   14.2900 Br  0  0  0  0  0  0  0  0  0  0  0  0
   55.7570   80.8700   16.7150 C   0  0  0  0  0  3  0  0  0  0  0  0
   55.3560   81.6540   17.7740 C   0  0  0  0  0  3  0  0  0  0  0  0
   51.9720   85.1130   18.2180 O   0  0  0  0  0  0  0  0  0  0  0  0
   51.7330   84.2780   18.7490 H   0  0  0  0  0  0  0  0  0  0  0  0
   52.5510   89.8550   18.1640 N   0  0  0  0  0  0  0  0  0  0  0  0
   51.5740   90.8390   18.5480 C   0  0  0  0  0  2  0  0  0  0  0  0
   52.1890   92.2230   18.3600 C   0  0  0  0  0  2  0  0  0  0  0  0
   53.6790   92.2110   18.5390 C   0  0  2  0  0  3  0  0  0  0  0  0
   54.3400   91.3020   17.5630 C   0  0  0  0  0  2  0  0  0  0  0  0
   53.3730   90.2310   17.0080 C   0  0  0  0  0  2  0  0  0  0  0  0
   54.0670   91.9350   19.9420 C   0  0  0  0  0  0  0  0  0  0  0  0
   53.4340   92.5200   20.8450 O   0  0  0  0  0  0  0  0  0  0  0  0
   55.1110   91.0580   20.3120 N   0  0  0  0  0  0  0  0  0  0  0  0
   55.3200   90.1860   19.7920 H   0  0  0  0  0  0  0  0  0  0  0  0
   55.6940   91.2970   21.1410 H   0  0  0  0  0  0  0  0  0  0  0  0
  1 13  1  1  0  0  0
  1  2  1  0  0  0  0
  2  3  1  0  0  0  0
  3  4  2  0  0  0  0
  5 12  1  0  0  0  0
  5  3  1  0  0  0  0
  6  5  1  0  0  0  0
  7  6  1  0  0  0  0
  8  7  2  0  0  0  0
  9  8  1  0  0  0  0
  9 10  2  0  0  0  0
 10 11  1  0  0  0  0
 11  6  2  0  0  0  0
 11  1  1  0  0  0  0
 13 16  2  0  0  0  0
 14 15  1  0  0  0  0
 14 13  1  0  0  0  0
 17 14  1  0  0  0  0
 18 17  2  0  0  0  0
 19 18  1  0  0  0  0
 20 19  2  0  0  0  0
 20 22  1  0  0  0  0
 21 20  1  0  0  0  0
 22 23  2  0  0  0  0
 23 17  1  0  0  0  0
 24 25  1  0  0  0  0
 24 10  1  0  0  0  0
 26 27  1  0  0  0  0
 26  8  1  0  0  0  0
 28 29  1  0  0  0  0
 28 27  1  0  0  0  0
 29 32  1  1  0  0  0
 30 29  1  0  0  0  0
 31 30  1  0  0  0  0
 31 26  1  0  0  0  0
 32 34  1  0  0  0  0
 32 33  2  0  0  0  0
 34 36  1  0  0  0  0
 35 34  1  0  0  0  0
M  END
>  <Pose>
1

>  <Score>
-9.378

$$$$
