/Users/jonathanwahrer/Desktop/Msc/3_Semester/Drug_Design_Praktikum/waehrer_HTS_screening/HTS_experiment/out/docking_results/vina_output/3npc/0393_docked.pdbqt
 OpenBabel03192219333D

 27 30  0  0  0  0  0  0  0  0999 V2000
   53.8430   84.9600   21.8250 N   0  0  0  0  0  0  0  0  0  0  0  0
   54.6650   85.8280   22.3600 N   0  0  0  0  0  0  0  0  0  0  0  0
   54.5050   85.9360   23.6940 C   0  0  0  0  0  3  0  0  0  0  0  0
   53.5010   85.0660   24.0210 C   0  0  0  0  0  0  0  0  0  0  0  0
   53.1050   84.4700   22.8430 C   0  0  0  0  0  0  0  0  0  0  0  0
   52.9840   84.8460   25.3670 C   0  0  0  0  0  0  0  0  0  0  0  0
   51.9110   85.4270   25.6560 O   0  0  0  0  0  0  0  0  0  0  0  0
   53.6260   84.0310   26.3240 N   0  0  0  0  0  0  0  0  0  0  0  0
   53.0290   83.8800   27.6290 C   0  0  0  0  0  2  0  0  0  0  0  0
   54.8630   83.3130   26.1110 C   0  0  0  0  0  2  0  0  0  0  0  0
   52.5790   82.4560   27.7700 C   0  0  0  0  0  2  0  0  0  0  0  0
   53.2750   81.5640   26.8500 N   0  0  0  0  0  0  0  0  0  0  0  0
   54.5480   81.8770   26.2950 C   0  0  0  0  0  0  0  0  0  0  0  0
   52.7940   80.6490   26.5970 H   0  0  0  0  0  0  0  0  0  0  0  0
   55.3400   80.9530   25.9880 O   0  0  0  0  0  0  0  0  0  0  0  0
   52.0650   83.4760   22.6990 N   0  0  0  0  0  0  0  0  0  0  0  0
   52.1390   82.1710   22.9180 C   0  0  0  0  0  3  0  0  0  0  0  0
   50.9270   81.5710   22.6650 C   0  0  0  0  0  3  0  0  0  0  0  0
   50.0920   82.5890   22.2720 C   0  0  0  0  0  3  0  0  0  0  0  0
   50.8150   83.7600   22.3000 C   0  0  0  0  0  3  0  0  0  0  0  0
   53.7710   84.6240   20.4370 C   0  0  0  0  0  0  0  0  0  0  0  0
   54.2690   83.4330   19.9440 C   0  0  0  0  0  3  0  0  0  0  0  0
   54.2120   83.0870   18.6100 C   0  0  0  0  0  3  0  0  0  0  0  0
   53.6370   83.9530   17.7030 C   0  0  0  0  0  0  0  0  0  0  0  0
   53.5460   83.4960   15.8480 Br  0  0  0  0  0  0  0  0  0  0  0  0
   53.1350   85.1510   18.1780 C   0  0  0  0  0  3  0  0  0  0  0  0
   53.1990   85.4830   19.5160 C   0  0  0  0  0  3  0  0  0  0  0  0
  1  2  1  0  0  0  0
  1  5  1  0  0  0  0
  2  3  2  0  0  0  0
  3  4  1  0  0  0  0
  4  6  1  0  0  0  0
  5  4  2  0  0  0  0
  6  7  2  0  0  0  0
  6  8  1  0  0  0  0
  8  9  1  0  0  0  0
  9 11  1  0  0  0  0
 10 13  1  0  0  0  0
 10  8  1  0  0  0  0
 12 11  1  0  0  0  0
 13 12  1  0  0  0  0
 14 12  1  0  0  0  0
 15 13  2  0  0  0  0
 16  5  1  0  0  0  0
 16 17  1  0  0  0  0
 18 17  2  0  0  0  0
 19 20  2  0  0  0  0
 19 18  1  0  0  0  0
 20 16  1  0  0  0  0
 21  1  1  0  0  0  0
 22 21  1  0  0  0  0
 23 22  2  0  0  0  0
 24 26  2  0  0  0  0
 24 23  1  0  0  0  0
 25 24  1  0  0  0  0
 26 27  1  0  0  0  0
 27 21  2  0  0  0  0
M  END
>  <Pose>
1

>  <Score>
-6.663

$$$$
