/Users/jonathanwahrer/Desktop/Msc/3_Semester/Drug_Design_Praktikum/waehrer_HTS_screening/HTS_experiment/out/docking_results/vina_output/3npc/0395_docked.pdbqt
 OpenBabel03192219333D

 28 31  0  0  1  0  0  0  0  0999 V2000
   49.7710  101.5190   28.7380 N   0  0  0  0  0  0  0  0  0  0  0  0
   50.0280  102.0830   27.5710 N   0  0  0  0  0  0  0  0  0  0  0  0
   50.9950  101.4490   26.9300 N   0  0  0  0  0  0  0  0  0  0  0  0
   51.4150  100.4080   27.6970 C   0  0  0  0  0  0  0  0  0  0  0  0
   50.6230  100.4820   28.8290 C   0  0  0  0  0  0  0  0  0  0  0  0
   50.8260   99.5570   29.7740 N   0  0  0  0  0  0  0  0  0  0  0  0
   51.7620   98.6050   29.6170 C   0  0  0  0  0  3  0  0  0  0  0  0
   52.5410   98.5260   28.5140 N   0  0  0  0  0  0  0  0  0  0  0  0
   52.3700   99.4320   27.5440 C   0  0  0  0  0  0  0  0  0  0  0  0
   53.0890   99.3620   26.5230 O   0  0  0  0  0  0  0  0  0  0  0  0
   53.5250   97.4620   28.4370 C   0  0  0  0  0  2  0  0  0  0  0  0
   53.2300   96.5660   27.2610 C   0  0  0  0  0  0  0  0  0  0  0  0
   52.0870   96.0570   27.1130 O   0  0  0  0  0  0  0  0  0  0  0  0
   54.2280   96.2780   26.3010 N   0  0  0  0  0  0  0  0  0  0  0  0
   53.9570   95.4210   25.1710 C   0  0  0  0  0  2  0  0  0  0  0  0
   55.5510   96.8410   26.4350 C   0  0  0  0  0  2  0  0  0  0  0  0
   55.1360   94.4710   25.0460 C   0  0  2  0  0  3  0  0  0  0  0  0
   56.3460   95.1080   24.9490 O   0  0  0  0  0  0  0  0  0  0  0  0
   54.9260   93.7030   23.7370 C   0  0  0  0  0  1  0  0  0  0  0  0
   56.3090   96.4610   25.1790 C   0  0  2  0  0  3  0  0  0  0  0  0
   57.6640   97.1040   25.1940 C   0  0  0  0  0  1  0  0  0  0  0  0
   48.8020  101.9090   29.7150 C   0  0  0  0  0  0  0  0  0  0  0  0
   49.1850  102.6410   30.8190 C   0  0  0  0  0  3  0  0  0  0  0  0
   48.2500  103.0230   31.7700 C   0  0  0  0  0  3  0  0  0  0  0  0
   46.9160  102.6940   31.6570 C   0  0  0  0  0  0  0  0  0  0  0  0
   45.6450  103.2340   32.9840 Br  0  0  0  0  0  0  0  0  0  0  0  0
   46.5330  101.9620   30.5530 C   0  0  0  0  0  3  0  0  0  0  0  0
   47.4650  101.5830   29.6090 C   0  0  0  0  0  3  0  0  0  0  0  0
  1  5  1  0  0  0  0
  1 22  1  0  0  0  0
  2  1  1  0  0  0  0
  3  2  2  0  0  0  0
  3  4  1  0  0  0  0
  4  5  2  0  0  0  0
  5  6  1  0  0  0  0
  7  6  2  0  0  0  0
  8  7  1  0  0  0  0
  9  4  1  0  0  0  0
  9  8  1  0  0  0  0
 10  9  2  0  0  0  0
 11  8  1  0  0  0  0
 12 11  1  0  0  0  0
 13 12  2  0  0  0  0
 14 16  1  0  0  0  0
 14 12  1  0  0  0  0
 15 14  1  0  0  0  0
 17 19  1  6  0  0  0
 17 15  1  0  0  0  0
 18 17  1  0  0  0  0
 18 20  1  0  0  0  0
 20 21  1  1  0  0  0
 20 16  1  0  0  0  0
 22 23  1  0  0  0  0
 23 24  2  0  0  0  0
 25 24  1  0  0  0  0
 25 26  1  0  0  0  0
 27 25  2  0  0  0  0
 28 22  2  0  0  0  0
 28 27  1  0  0  0  0
M  END
>  <Pose>
1

>  <Score>
-9.714

$$$$
