/Users/jonathanwahrer/Desktop/Msc/3_Semester/Drug_Design_Praktikum/waehrer_HTS_screening/HTS_experiment/out/docking_results/vina_output/3npc/0399_docked.pdbqt
 OpenBabel03192219333D

 28 31  0  0  1  0  0  0  0  0999 V2000
   54.1590   81.9430   16.0150 N   0  0  0  0  0  0  0  0  0  0  0  0
   54.5800   83.2540   16.3790 C   0  0  0  0  0  0  0  0  0  0  0  0
   54.8030   84.1840   15.5750 O   0  0  0  0  0  0  0  0  0  0  0  0
   54.7230   83.3820   17.8370 C   0  0  2  0  0  3  0  0  0  0  0  0
   54.9420   81.9350   18.2640 C   0  0  0  0  0  2  0  0  0  0  0  0
   54.1670   81.1750   17.2340 C   0  0  0  0  0  0  0  0  0  0  0  0
   53.6570   80.0700   17.4990 O   0  0  0  0  0  0  0  0  0  0  0  0
   53.5790   83.9400   18.5220 N   0  0  1  0  0  4  0  0  0  0  0  0
   53.6780   83.8100   19.9560 C   0  0  0  0  0  2  0  0  0  0  0  0
   54.1830   85.0500   20.6610 C   0  0  0  0  0  2  0  0  0  0  0  0
   53.6120   86.2450   20.0950 N   0  0  0  0  0  0  0  0  0  0  0  0
   52.5270   86.0100   19.1720 C   0  0  0  0  0  2  0  0  0  0  0  0
   53.1770   85.2070   18.0290 C   0  0  0  0  0  2  0  0  0  0  0  0
   52.7820   83.2640   18.2660 H   0  0  0  0  0  0  0  0  0  0  0  0
   54.0630   87.5380   20.3820 C   0  0  0  0  0  0  0  0  0  0  0  0
   53.7430   88.6750   19.6680 C   0  0  0  0  0  3  0  0  0  0  0  0
   54.2390   89.9300   19.9820 C   0  0  0  0  0  3  0  0  0  0  0  0
   55.0890   90.0860   21.0430 C   0  0  0  0  0  0  0  0  0  0  0  0
   55.4440   88.9820   21.7920 C   0  0  0  0  0  3  0  0  0  0  0  0
   55.6230   91.3210   21.4130 O   0  0  0  0  0  1  0  0  0  0  0  0
   54.9350   87.7390   21.4590 C   0  0  0  0  0  3  0  0  0  0  0  0
   53.7890   81.4410   14.7290 C   0  0  0  0  0  0  0  0  0  0  0  0
   54.7190   80.9540   13.8570 C   0  0  0  0  0  3  0  0  0  0  0  0
   54.3520   80.4640   12.5990 C   0  0  0  0  0  3  0  0  0  0  0  0
   53.0460   80.4530   12.1910 C   0  0  0  0  0  0  0  0  0  0  0  0
   52.5350   79.7840   10.4710 Br  0  0  0  0  0  0  0  0  0  0  0  0
   52.1060   80.9410   13.0680 C   0  0  0  0  0  3  0  0  0  0  0  0
   52.4850   81.4310   14.3280 C   0  0  0  0  0  3  0  0  0  0  0  0
  1  2  1  0  0  0  0
  1  6  1  0  0  0  0
  2  4  1  0  0  0  0
  3  2  2  0  0  0  0
  4  5  1  1  0  0  0
  4  8  1  0  0  0  0
  6  7  2  0  0  0  0
  6  5  1  0  0  0  0
  8 14  1  6  0  0  0
  8  9  1  0  0  0  0
  9 10  1  0  0  0  0
 11 15  1  0  0  0  0
 11 10  1  0  0  0  0
 12 11  1  0  0  0  0
 13  8  1  0  0  0  0
 13 12  1  0  0  0  0
 15 21  1  0  0  0  0
 16 17  1  0  0  0  0
 16 15  2  0  0  0  0
 17 18  2  0  0  0  0
 18 20  1  0  0  0  0
 18 19  1  0  0  0  0
 21 19  2  0  0  0  0
 22  1  1  0  0  0  0
 23 22  2  0  0  0  0
 24 23  1  0  0  0  0
 25 24  2  0  0  0  0
 25 27  1  0  0  0  0
 26 25  1  0  0  0  0
 27 28  2  0  0  0  0
 28 22  1  0  0  0  0
M  END
>  <Pose>
1

>  <Score>
-8.176

$$$$
