/Users/jonathanwahrer/Desktop/Msc/3_Semester/Drug_Design_Praktikum/waehrer_HTS_screening/HTS_experiment/out/docking_results/vina_output/3npc/0400_docked.pdbqt
 OpenBabel03192219333D

 31 34  0  0  1  0  0  0  0  0999 V2000
   48.2960  101.2860   30.1260 N   0  0  2  0  0  0  0  0  0  0  0  0
   47.2470  101.9870   30.7500 C   0  0  0  0  0  2  0  0  0  0  0  0
   47.7070  102.4080   32.1530 C   0  0  0  0  0  2  0  0  0  0  0  0
   48.8100  103.4410   32.0790 C   0  0  1  0  0  0  0  0  0  0  0  0
   49.7520  103.0830   31.0020 C   0  0  0  0  0  2  0  0  0  0  0  0
   49.5910  101.6500   30.5600 C   0  0  0  0  0  2  0  0  0  0  0  0
   48.1620  100.8950   28.7820 C   0  0  2  0  0  3  0  0  0  0  0  0
   48.7630   99.5500   28.5890 C   0  0  0  0  0  0  0  0  0  0  0  0
   49.9360   99.7100   27.7840 N   0  0  0  0  0  0  0  0  0  0  0  0
   48.2970   98.4850   29.0630 O   0  0  0  0  0  0  0  0  0  0  0  0
   49.7060  100.8890   27.0230 C   0  0  0  0  0  0  0  0  0  0  0  0
   48.8420  101.8190   27.7970 C   0  0  0  0  0  2  0  0  0  0  0  0
   50.1820  101.0960   25.8510 O   0  0  0  0  0  0  0  0  0  0  0  0
   51.0820   98.8560   27.7630 C   0  0  0  0  0  0  0  0  0  0  0  0
   52.3310   99.3810   27.9660 C   0  0  0  0  0  3  0  0  0  0  0  0
   53.4650   98.5600   27.9500 C   0  0  0  0  0  3  0  0  0  0  0  0
   53.3750   97.2040   27.7320 C   0  0  0  0  0  0  0  0  0  0  0  0
   54.9170   96.0740   27.7080 Br  0  0  0  0  0  0  0  0  0  0  0  0
   52.1190   96.6760   27.5290 C   0  0  0  0  0  3  0  0  0  0  0  0
   51.0040   97.4980   27.5470 C   0  0  0  0  0  3  0  0  0  0  0  0
   48.2220  104.7140   32.0110 N   0  0  0  0  0  0  0  0  0  0  0  0
   48.6130  105.5860   30.9850 C   0  0  0  0  0  2  0  0  0  0  0  0
   49.0780  106.8880   31.6610 C   0  0  0  0  0  2  0  0  0  0  0  0
   47.8430  107.4720   32.3180 C   0  0  0  0  0  2  0  0  0  0  0  0
   46.7280  106.4920   32.4660 C   0  0  0  0  0  2  0  0  0  0  0  0
   47.2140  105.0940   32.8770 C   0  0  0  0  0  2  0  0  0  0  0  0
   49.5370  103.3410   33.3950 C   0  0  0  0  0  0  0  0  0  0  0  0
   50.5130  104.1140   33.6360 O   0  0  0  0  0  0  0  0  0  0  0  0
   49.1810  102.4120   34.4000 N   0  0  0  0  0  0  0  0  0  0  0  0
   49.8540  101.6900   34.6860 H   0  0  0  0  0  0  0  0  0  0  0  0
   48.2500  102.4490   34.8570 H   0  0  0  0  0  0  0  0  0  0  0  0
  1  6  1  6  0  0  0
  1  2  1  0  0  0  0
  2  3  1  0  0  0  0
  4  3  1  0  0  0  0
  4 27  1  1  0  0  0
  5  4  1  0  0  0  0
  6  5  1  0  0  0  0
  7 12  1  6  0  0  0
  7  1  1  0  0  0  0
  8  7  1  0  0  0  0
  8 10  2  0  0  0  0
  9  8  1  0  0  0  0
 11  9  1  0  0  0  0
 11 12  1  0  0  0  0
 13 11  2  0  0  0  0
 14  9  1  0  0  0  0
 14 15  1  0  0  0  0
 16 15  2  0  0  0  0
 17 16  1  0  0  0  0
 18 17  1  0  0  0  0
 19 20  1  0  0  0  0
 19 17  2  0  0  0  0
 20 14  2  0  0  0  0
 21  4  1  0  0  0  0
 21 26  1  0  0  0  0
 22 23  1  0  0  0  0
 22 21  1  0  0  0  0
 23 24  1  0  0  0  0
 24 25  1  0  0  0  0
 25 26  1  0  0  0  0
 27 28  2  0  0  0  0
 27 29  1  0  0  0  0
 29 30  1  0  0  0  0
 29 31  1  0  0  0  0
M  END
>  <Pose>
1

>  <Score>
-8.042

$$$$
