/Users/jonathanwahrer/Desktop/Msc/3_Semester/Drug_Design_Praktikum/waehrer_HTS_screening/HTS_experiment/out/docking_results/vina_output/3npc/0411_docked.pdbqt
 OpenBabel03192219343D

 34 37  0  0  0  0  0  0  0  0999 V2000
   52.6290   84.4560   27.0230 N   0  0  0  0  0  0  0  0  0  0  0  0
   53.6490   85.1010   26.4340 C   0  0  0  0  0  0  0  0  0  0  0  0
   54.5730   85.6450   27.0920 O   0  0  0  0  0  0  0  0  0  0  0  0
   53.5290   85.0750   25.0550 C   0  0  0  0  0  0  0  0  0  0  0  0
   52.4140   84.4000   24.8020 C   0  0  0  0  0  0  0  0  0  0  0  0
   52.2980   84.3760   23.4650 N   0  0  0  0  0  0  0  0  0  0  0  0
   53.3140   85.0180   22.9170 N   0  0  0  0  0  0  0  0  0  0  0  0
   54.0830   85.4550   23.8780 N   0  0  0  0  0  0  0  0  0  0  0  0
   51.8560   84.0180   26.0040 C   0  0  0  0  0  0  0  0  0  0  0  0
   50.7770   83.3520   26.1370 O   0  0  0  0  0  0  0  0  0  0  0  0
   51.5400   83.9310   22.9110 H   0  0  0  0  0  0  0  0  0  0  0  0
   53.4990   85.1660   21.8810 H   0  0  0  0  0  0  0  0  0  0  0  0
   55.3070   86.2100   23.7540 C   0  0  0  0  0  2  0  0  0  0  0  0
   55.3810   86.8080   22.3690 C   0  0  0  0  0  0  0  0  0  0  0  0
   55.9690   86.1770   21.4630 O   0  0  0  0  0  0  0  0  0  0  0  0
   54.7960   88.0560   22.1090 N   0  0  0  0  0  0  0  0  0  0  0  0
   54.3090   88.5390   22.9320 H   0  0  0  0  0  0  0  0  0  0  0  0
   54.7870   88.7210   20.8660 C   0  0  0  0  0  0  0  0  0  0  0  0
   53.9270   88.4750   19.8270 C   0  0  0  0  0  3  0  0  0  0  0  0
   53.9820   89.1520   18.6260 C   0  0  0  0  0  0  0  0  0  0  0  0
   54.9510   90.1210   18.4720 C   0  0  0  0  0  0  0  0  0  0  0  0
   55.8390   90.4000   19.4980 C   0  0  0  0  0  3  0  0  0  0  0  0
   55.7670   89.7160   20.6800 C   0  0  0  0  0  3  0  0  0  0  0  0
   53.0940   88.8800   17.5870 O   0  0  0  0  0  0  0  0  0  0  0  0
   51.7290   89.2830   17.7600 C   0  0  0  0  0  1  0  0  0  0  0  0
   55.0230   90.8160   17.2670 O   0  0  0  0  0  0  0  0  0  0  0  0
   54.2220   91.9660   17.0860 C   0  0  0  0  0  1  0  0  0  0  0  0
   52.3550   84.2410   28.4020 C   0  0  0  0  0  0  0  0  0  0  0  0
   51.5060   85.0450   29.1330 C   0  0  0  0  0  3  0  0  0  0  0  0
   51.2620   84.8050   30.4820 C   0  0  0  0  0  3  0  0  0  0  0  0
   51.8640   83.7510   31.1390 C   0  0  0  0  0  0  0  0  0  0  0  0
   51.5330   83.4150   32.9950 Br  0  0  0  0  0  0  0  0  0  0  0  0
   52.7130   82.9510   30.4000 C   0  0  0  0  0  3  0  0  0  0  0  0
   52.9530   83.1900   29.0630 C   0  0  0  0  0  3  0  0  0  0  0  0
  1 28  1  0  0  0  0
  2  1  1  0  0  0  0
  2  3  2  0  0  0  0
  4  2  1  0  0  0  0
  5  4  2  0  0  0  0
  5  9  1  0  0  0  0
  6  5  1  0  0  0  0
  7  6  1  0  0  0  0
  7  8  1  0  0  0  0
  8  4  1  0  0  0  0
  9 10  2  0  0  0  0
  9  1  1  0  0  0  0
 11  6  1  0  0  0  0
 12  7  1  0  0  0  0
 13  8  1  0  0  0  0
 14 13  1  0  0  0  0
 15 14  2  0  0  0  0
 16 14  1  0  0  0  0
 16 17  1  0  0  0  0
 18 16  1  0  0  0  0
 19 18  2  0  0  0  0
 20 19  1  0  0  0  0
 21 20  2  0  0  0  0
 21 22  1  0  0  0  0
 22 23  2  0  0  0  0
 23 18  1  0  0  0  0
 24 25  1  0  0  0  0
 24 20  1  0  0  0  0
 26 21  1  0  0  0  0
 27 26  1  0  0  0  0
 28 34  2  0  0  0  0
 28 29  1  0  0  0  0
 29 30  2  0  0  0  0
 30 31  1  0  0  0  0
 31 32  1  0  0  0  0
 33 31  2  0  0  0  0
 34 33  1  0  0  0  0
M  END
>  <Pose>
1

>  <Score>
-8.223

$$$$
