/Users/jonathanwahrer/Desktop/Msc/3_Semester/Drug_Design_Praktikum/waehrer_HTS_screening/HTS_experiment/out/docking_results/vina_output/3npc/0416_docked.pdbqt
 OpenBabel03192219353D

 33 36  0  0  0  0  0  0  0  0999 V2000
   48.7100  104.0350   32.2970 N   0  0  0  0  0  0  0  0  0  0  0  0
   48.7540  103.4190   31.0830 C   0  0  0  0  0  0  0  0  0  0  0  0
   49.6780  103.5850   30.2510 O   0  0  0  0  0  0  0  0  0  0  0  0
   47.6580  102.6030   30.9050 C   0  0  0  0  0  0  0  0  0  0  0  0
   46.9380  102.7170   32.0120 C   0  0  0  0  0  0  0  0  0  0  0  0
   45.8570  101.9300   31.8670 N   0  0  0  0  0  0  0  0  0  0  0  0
   45.9300  101.3480   30.6780 N   0  0  0  0  0  0  0  0  0  0  0  0
   47.0270  101.7410   30.0590 N   0  0  0  0  0  0  0  0  0  0  0  0
   47.5790  103.5900   32.8620 C   0  0  0  0  0  0  0  0  0  0  0  0
   47.1900  103.9470   34.0190 O   0  0  0  0  0  0  0  0  0  0  0  0
   45.0870  101.7780   32.5410 H   0  0  0  0  0  0  0  0  0  0  0  0
   45.2100  100.6700   30.2940 H   0  0  0  0  0  0  0  0  0  0  0  0
   47.4900  101.3680   28.7540 C   0  0  0  0  0  2  0  0  0  0  0  0
   48.4130  100.1730   28.7630 C   0  0  0  0  0  0  0  0  0  0  0  0
   47.9360   99.1250   29.2500 O   0  0  0  0  0  0  0  0  0  0  0  0
   49.7100  100.2390   28.2570 N   0  0  0  0  0  0  0  0  0  0  0  0
   50.0030  101.2040   27.8720 H   0  0  0  0  0  0  0  0  0  0  0  0
   50.7000   99.2460   28.1700 C   0  0  0  0  0  0  0  0  0  0  0  0
   52.0140   99.5350   28.5390 C   0  0  0  0  0  3  0  0  0  0  0  0
   53.0140   98.6040   28.4530 C   0  0  0  0  0  3  0  0  0  0  0  0
   52.7390   97.3180   27.9860 C   0  0  0  0  0  0  0  0  0  0  0  0
   51.4370   97.0640   27.6320 C   0  0  0  0  0  3  0  0  0  0  0  0
   50.4280   97.9950   27.7180 C   0  0  0  0  0  3  0  0  0  0  0  0
   53.7740   96.4140   27.9120 O   0  0  0  0  0  0  0  0  0  0  0  0
   54.4320   95.9910   26.7620 C   0  0  0  0  0  2  0  0  0  0  0  0
   53.7520   94.8810   26.0370 C   0  0  0  0  0  1  0  0  0  0  0  0
   49.6520  104.9530   32.8450 C   0  0  0  0  0  0  0  0  0  0  0  0
   49.6250  106.3110   32.6050 C   0  0  0  0  0  3  0  0  0  0  0  0
   50.5640  107.1720   33.1530 C   0  0  0  0  0  3  0  0  0  0  0  0
   51.5750  106.7090   33.9690 C   0  0  0  0  0  0  0  0  0  0  0  0
   52.8800  107.8740   34.7310 Br  0  0  0  0  0  0  0  0  0  0  0  0
   51.5980  105.3410   34.2100 C   0  0  0  0  0  3  0  0  0  0  0  0
   50.6640  104.4850   33.6640 C   0  0  0  0  0  3  0  0  0  0  0  0
  1 27  1  0  0  0  0
  1  9  1  0  0  0  0
  2  1  1  0  0  0  0
  3  2  2  0  0  0  0
  4  2  1  0  0  0  0
  4  5  2  0  0  0  0
  5  9  1  0  0  0  0
  6  5  1  0  0  0  0
  6 11  1  0  0  0  0
  7  6  1  0  0  0  0
  8  7  1  0  0  0  0
  8  4  1  0  0  0  0
  9 10  2  0  0  0  0
 12  7  1  0  0  0  0
 13 14  1  0  0  0  0
 13  8  1  0  0  0  0
 14 15  2  0  0  0  0
 16 14  1  0  0  0  0
 17 16  1  0  0  0  0
 18 16  1  0  0  0  0
 18 19  1  0  0  0  0
 20 19  2  0  0  0  0
 21 20  1  0  0  0  0
 22 23  1  0  0  0  0
 22 21  2  0  0  0  0
 23 18  2  0  0  0  0
 24 21  1  0  0  0  0
 25 24  1  0  0  0  0
 26 25  1  0  0  0  0
 27 33  1  0  0  0  0
 28 27  2  0  0  0  0
 28 29  1  0  0  0  0
 29 30  2  0  0  0  0
 30 32  1  0  0  0  0
 30 31  1  0  0  0  0
 33 32  2  0  0  0  0
M  END
>  <Pose>
1

>  <Score>
-8.592

$$$$
