/Users/jonathanwahrer/Desktop/Msc/3_Semester/Drug_Design_Praktikum/waehrer_HTS_screening/HTS_experiment/out/docking_results/vina_output/3npc/0421_docked.pdbqt
 OpenBabel03192219353D

 28 31  0  0  0  0  0  0  0  0999 V2000
   53.6940   82.9690   18.2360 N   0  0  0  0  0  0  0  0  0  0  0  0
   53.5310   84.3100   18.2700 C   0  0  0  0  0  0  0  0  0  0  0  0
   53.4520   85.1070   17.2810 O   0  0  0  0  0  0  0  0  0  0  0  0
   53.4560   84.7630   19.5740 C   0  0  0  0  0  0  0  0  0  0  0  0
   53.5750   83.6690   20.3290 C   0  0  0  0  0  0  0  0  0  0  0  0
   53.5010   84.1100   21.6080 N   0  0  0  0  0  0  0  0  0  0  0  0
   53.3430   85.4230   21.5920 N   0  0  0  0  0  0  0  0  0  0  0  0
   53.3110   85.8570   20.3430 N   0  0  0  0  0  0  0  0  0  0  0  0
   53.7220   82.5640   19.5170 C   0  0  0  0  0  0  0  0  0  0  0  0
   53.8610   81.3630   19.8590 O   0  0  0  0  0  0  0  0  0  0  0  0
   53.5630   83.4870   22.4550 H   0  0  0  0  0  0  0  0  0  0  0  0
   53.2530   86.0660   22.4200 H   0  0  0  0  0  0  0  0  0  0  0  0
   53.1550   87.2140   19.9100 C   0  0  0  0  0  0  0  0  0  0  0  0
   54.1200   88.1630   20.1770 C   0  0  0  0  0  3  0  0  0  0  0  0
   53.9970   89.4850   19.7700 C   0  0  0  0  0  3  0  0  0  0  0  0
   52.8790   89.8910   19.0710 C   0  0  0  0  0  0  0  0  0  0  0  0
   51.9130   88.9450   18.8030 C   0  0  0  0  0  3  0  0  0  0  0  0
   52.0390   87.6260   19.2100 C   0  0  0  0  0  3  0  0  0  0  0  0
   52.7240   91.2400   18.6400 N   0  0  0  0  0  0  0  0  0  0  0  0
   53.6320   91.8580   18.0530 O   0  0  0  0  0  0  0  0  0  0  0  0
   51.5490   91.8810   18.8740 O   0  0  0  0  0  0  0  0  0  0  0  0
   53.8100   82.1640   17.0560 C   0  0  0  0  0  0  0  0  0  0  0  0
   52.7100   81.7040   16.3610 C   0  0  0  0  0  3  0  0  0  0  0  0
   52.8560   80.9230   15.2180 C   0  0  0  0  0  3  0  0  0  0  0  0
   54.1070   80.5840   14.7440 C   0  0  0  0  0  0  0  0  0  0  0  0
   54.3290   79.5110   13.1730 Br  0  0  0  0  0  0  0  0  0  0  0  0
   55.2090   81.0430   15.4350 C   0  0  0  0  0  3  0  0  0  0  0  0
   55.0540   81.8170   16.5690 C   0  0  0  0  0  3  0  0  0  0  0  0
  1  2  1  0  0  0  0
  1  9  1  0  0  0  0
  2  4  1  0  0  0  0
  3  2  2  0  0  0  0
  4  5  2  0  0  0  0
  4  8  1  0  0  0  0
  5  6  1  0  0  0  0
  6 11  1  0  0  0  0
  7  6  1  0  0  0  0
  7 12  1  0  0  0  0
  8  7  1  0  0  0  0
  9 10  2  0  0  0  0
  9  5  1  0  0  0  0
 13 14  1  0  0  0  0
 13  8  1  0  0  0  0
 15 14  2  0  0  0  0
 16 15  1  0  0  0  0
 17 16  2  0  0  0  0
 17 18  1  0  0  0  0
 18 13  2  0  0  0  0
 19 21  2  0  0  0  0
 19 16  1  0  0  0  0
 20 19  2  0  0  0  0
 22  1  1  0  0  0  0
 23 22  2  0  0  0  0
 24 23  1  0  0  0  0
 25 24  2  0  0  0  0
 25 27  1  0  0  0  0
 26 25  1  0  0  0  0
 27 28  2  0  0  0  0
 28 22  1  0  0  0  0
M  END
>  <Pose>
1

>  <Score>
-7.869

$$$$
