/Users/jonathanwahrer/Desktop/Msc/3_Semester/Drug_Design_Praktikum/waehrer_HTS_screening/HTS_experiment/out/docking_results/vina_output/3npc/0425_docked.pdbqt
 OpenBabel03192219353D

 24 28  0  0  1  0  0  0  0  0999 V2000
   49.4870  100.7420   29.3020 N   0  0  0  0  0  0  0  0  0  0  0  0
   50.2010   99.5300   29.4880 C   0  0  0  0  0  0  0  0  0  0  0  0
   50.4810   99.0420   30.6090 O   0  0  0  0  0  0  0  0  0  0  0  0
   50.5460   98.9600   28.1580 C   0  0  2  0  0  3  0  0  0  0  0  0
   51.9170   99.3620   27.7080 C   0  0  1  0  0  0  0  0  0  0  0  0
   51.7270   99.3970   26.3090 O   0  0  0  0  0  0  0  0  0  0  0  0
   50.7080  100.3820   26.3000 C   0  0  1  0  0  3  0  0  0  0  0  0
   49.6810   99.7400   27.1670 C   0  0  2  0  0  3  0  0  0  0  0  0
   48.9680  100.7670   27.9730 C   0  0  0  0  0  0  0  0  0  0  0  0
   48.0800  101.5070   27.5430 O   0  0  0  0  0  0  0  0  0  0  0  0
   51.3910  101.4430   27.0860 C   0  0  0  0  0  2  0  0  0  0  0  0
   52.0960  100.7920   28.0060 C   0  0  0  0  0  2  0  0  0  0  0  0
   49.3540  101.7300   30.3310 C   0  0  0  0  0  0  0  0  0  0  0  0
   50.4510  102.2470   30.9830 C   0  0  0  0  0  3  0  0  0  0  0  0
   50.3370  103.1960   31.9750 C   0  0  0  0  0  3  0  0  0  0  0  0
   49.0790  103.6310   32.3170 C   0  0  0  0  0  0  0  0  0  0  0  0
   48.8800  104.9360   33.6800 Br  0  0  0  0  0  0  0  0  0  0  0  0
   47.9700  103.1290   31.6830 C   0  0  0  0  0  3  0  0  0  0  0  0
   48.0820  102.1680   30.6770 C   0  0  0  0  0  3  0  0  0  0  0  0
   53.0070   98.4670   28.1160 C   0  0  0  0  0  3  0  0  0  0  0  0
   54.0490   98.4170   27.2300 O   0  0  0  0  0  0  0  0  0  0  0  0
   54.0610   97.1820   26.6320 C   0  0  0  0  0  2  0  0  0  0  0  0
   52.9240   96.4150   27.2230 C   0  0  0  0  0  2  0  0  0  0  0  0
   52.5610   97.1750   28.3290 O   0  0  0  0  0  0  0  0  0  0  0  0
  1  2  1  0  0  0  0
  1 13  1  0  0  0  0
  2  3  2  0  0  0  0
  4  2  1  1  0  0  0
  5 12  1  0  0  0  0
  5 20  1  1  0  0  0
  5  4  1  0  0  0  0
  6  5  1  0  0  0  0
  7  6  1  0  0  0  0
  7 11  1  1  0  0  0
  7  8  1  0  0  0  0
  8  9  1  1  0  0  0
  8  4  1  0  0  0  0
  9  1  1  0  0  0  0
 10  9  2  0  0  0  0
 11 12  1  0  0  0  0
 13 19  2  0  0  0  0
 13 14  1  0  0  0  0
 14 15  2  0  0  0  0
 15 16  1  0  0  0  0
 16 17  1  0  0  0  0
 18 16  2  0  0  0  0
 19 18  1  0  0  0  0
 20 24  1  0  0  0  0
 21 20  1  0  0  0  0
 22 23  1  0  0  0  0
 22 21  1  0  0  0  0
 23 24  1  0  0  0  0
M  END
>  <Pose>
1

>  <Score>
-7.795

$$$$
