/Users/jonathanwahrer/Desktop/Msc/3_Semester/Drug_Design_Praktikum/waehrer_HTS_screening/HTS_experiment/out/docking_results/vina_output/3npc/0426_docked.pdbqt
 OpenBabel03192219363D

 29 32  0  0  1  0  0  0  0  0999 V2000
   54.2890   97.4660   26.7960 N   0  0  0  0  0  0  0  0  0  0  0  0
   55.6800   97.7820   26.5930 C   0  0  0  0  0  0  0  0  0  0  0  0
   56.4040   98.4860   27.3530 O   0  0  0  0  0  0  0  0  0  0  0  0
   56.0890   97.1240   25.3310 C   0  0  1  0  0  3  0  0  0  0  0  0
   57.4600   96.6520   25.3180 N   0  0  0  0  0  0  0  0  0  0  0  0
   57.2690   95.4580   24.5560 N   0  0  0  0  0  0  0  0  0  0  0  0
   56.0600   94.8330   24.9850 C   0  0  0  0  0  0  0  0  0  0  0  0
   55.3210   95.8280   25.4640 C   0  0  0  0  0  0  0  0  0  0  0  0
   54.0690   96.2410   26.0860 C   0  0  0  0  0  0  0  0  0  0  0  0
   53.0140   95.5610   25.9620 O   0  0  0  0  0  0  0  0  0  0  0  0
   57.6420   96.3110   26.3030 H   0  0  0  0  0  0  0  0  0  0  0  0
   57.8990   95.0950   23.8140 H   0  0  0  0  0  0  0  0  0  0  0  0
   55.6970   93.4220   24.9150 C   0  0  0  0  0  0  0  0  0  0  0  0
   55.4340   92.7560   25.9440 O   0  0  0  0  0  0  0  0  0  0  0  0
   55.6210   92.7380   23.7110 O   0  0  0  0  0  0  0  0  0  0  0  0
   54.6990   93.1110   22.6970 C   0  0  0  0  0  2  0  0  0  0  0  0
   54.8440   92.1790   21.5290 C   0  0  0  0  0  0  0  0  0  0  0  0
   53.9150   92.2030   20.4900 C   0  0  0  0  0  3  0  0  0  0  0  0
   54.0130   91.3740   19.4050 C   0  0  0  0  0  3  0  0  0  0  0  0
   55.0740   90.4750   19.3370 C   0  0  0  0  0  3  0  0  0  0  0  0
   55.9890   90.4550   20.3660 C   0  0  0  0  0  3  0  0  0  0  0  0
   55.8810   91.3070   21.4680 C   0  0  0  0  0  3  0  0  0  0  0  0
   53.3220   98.1860   27.5330 C   0  0  0  0  0  0  0  0  0  0  0  0
   52.7390   99.3390   26.9950 C   0  0  0  0  0  3  0  0  0  0  0  0
   51.8050  100.0880   27.6360 C   0  0  0  0  0  3  0  0  0  0  0  0
   51.3980   99.7050   28.8880 C   0  0  0  0  0  0  0  0  0  0  0  0
   50.0730  100.7490   29.8200 Br  0  0  0  0  0  0  0  0  0  0  0  0
   51.9500   98.5720   29.4550 C   0  0  0  0  0  3  0  0  0  0  0  0
   52.9000   97.8240   28.7840 C   0  0  0  0  0  3  0  0  0  0  0  0
  1 23  1  0  0  0  0
  2  1  1  0  0  0  0
  2  3  2  0  0  0  0
  4  8  1  1  0  0  0
  4  2  1  0  0  0  0
  5  4  1  0  0  0  0
  5 11  1  0  0  0  0
  6  7  1  0  0  0  0
  6  5  1  0  0  0  0
  7  8  2  0  0  0  0
  8  9  1  0  0  0  0
  9  1  1  0  0  0  0
 10  9  2  0  0  0  0
 12  6  1  0  0  0  0
 13  7  1  0  0  0  0
 13 14  2  0  0  0  0
 15 13  1  0  0  0  0
 16 15  1  0  0  0  0
 17 16  1  0  0  0  0
 18 17  2  0  0  0  0
 19 18  1  0  0  0  0
 20 19  2  0  0  0  0
 20 21  1  0  0  0  0
 21 22  2  0  0  0  0
 22 17  1  0  0  0  0
 23 29  1  0  0  0  0
 24 23  2  0  0  0  0
 24 25  1  0  0  0  0
 25 26  2  0  0  0  0
 26 28  1  0  0  0  0
 26 27  1  0  0  0  0
 29 28  2  0  0  0  0
M  END
>  <Pose>
1

>  <Score>
-9.208

$$$$
