/Users/jonathanwahrer/Desktop/Msc/3_Semester/Drug_Design_Praktikum/waehrer_HTS_screening/HTS_experiment/out/docking_results/vina_output/3npc/0428_docked.pdbqt
 OpenBabel03192219363D

 28 31  0  0  1  0  0  0  0  0999 V2000
   53.5280   83.7800   21.2640 N   0  0  0  0  0  0  0  0  0  0  0  0
   54.0180   82.7660   20.3660 C   0  0  0  0  0  0  0  0  0  0  0  0
   54.5980   83.1090   19.3000 O   0  0  0  0  0  0  0  0  0  0  0  0
   53.8150   81.4230   20.7420 N   0  0  0  0  0  2  0  0  0  0  0  0
   53.2350   81.0560   21.8080 C   0  0  0  0  0  0  0  0  0  0  0  0
   52.6690   81.9520   22.8470 C   0  0  1  0  0  0  0  0  0  0  0  0
   51.2400   81.5840   23.0490 C   0  0  0  0  0  2  0  0  0  0  0  0
   50.6840   81.8320   24.3300 N   0  0  0  0  0  4  0  0  0  0  0  0
   51.4630   82.6230   25.1980 C   0  0  0  0  0  0  0  0  0  0  0  0
   52.8610   82.5600   25.1520 C   0  0  0  0  0  0  0  0  0  0  0  0
   53.5990   83.3340   26.0030 C   0  0  0  0  0  3  0  0  0  0  0  0
   53.0490   84.1940   26.9250 C   0  0  0  0  0  0  0  0  0  0  0  0
   51.6710   84.2530   26.9660 C   0  0  0  0  0  3  0  0  0  0  0  0
   50.8930   83.4790   26.1160 C   0  0  0  0  0  3  0  0  0  0  0  0
   53.8830   85.0190   27.8290 C   0  0  0  0  0  1  0  0  0  0  0  0
   53.4140   81.6200   24.1430 C   0  0  0  0  0  2  0  0  0  0  0  0
   50.2600   80.5940   25.0040 C   0  0  0  0  0  1  0  0  0  0  0  0
   52.8770   83.3630   22.4590 C   0  0  0  0  0  0  0  0  0  0  0  0
   52.4650   84.3100   23.2090 O   0  0  0  0  0  0  0  0  0  0  0  0
   53.1010   79.6730   22.0600 O   0  0  0  0  0  0  0  0  0  0  0  0
   49.7740   82.3640   24.1840 H   0  0  0  0  0  0  0  0  0  0  0  0
   53.6960   85.1560   20.9550 C   0  0  0  0  0  0  0  0  0  0  0  0
   54.6940   85.8450   21.6050 C   0  0  0  0  0  3  0  0  0  0  0  0
   54.9290   87.1940   21.3660 C   0  0  0  0  0  3  0  0  0  0  0  0
   54.1500   87.8620   20.4610 C   0  0  0  0  0  0  0  0  0  0  0  0
   54.4790   89.7130   20.1400 Br  0  0  0  0  0  0  0  0  0  0  0  0
   53.1370   87.1920   19.7930 C   0  0  0  0  0  3  0  0  0  0  0  0
   52.9240   85.8470   20.0480 C   0  0  0  0  0  3  0  0  0  0  0  0
  1 18  1  0  0  0  0
  2  4  1  0  0  0  0
  2  1  1  0  0  0  0
  3  2  2  0  0  0  0
  4  5  1  0  0  0  0
  5 20  2  0  0  0  0
  5  6  1  0  0  0  0
  6  7  1  1  0  0  0
  6 16  1  0  0  0  0
  7  8  1  0  0  0  0
  8 17  1  0  0  0  0
  8  9  1  0  0  0  0
  9 14  1  0  0  0  0
 10  9  2  0  0  0  0
 10 11  1  0  0  0  0
 11 12  2  0  0  0  0
 12 13  1  0  0  0  0
 12 15  1  0  0  0  0
 14 13  2  0  0  0  0
 16 10  1  0  0  0  0
 18  6  1  0  0  0  0
 18 19  2  0  0  0  0
 21  8  1  0  0  0  0
 22  1  1  0  0  0  0
 22 23  1  0  0  0  0
 24 23  2  0  0  0  0
 25 24  1  0  0  0  0
 26 25  1  0  0  0  0
 27 28  1  0  0  0  0
 27 25  2  0  0  0  0
 28 22  2  0  0  0  0
M  END
>  <Pose>
1

>  <Score>
-7.284

$$$$
