/Users/jonathanwahrer/Desktop/Msc/3_Semester/Drug_Design_Praktikum/waehrer_HTS_screening/HTS_experiment/out/docking_results/vina_output/3npc/0429_docked.pdbqt
 OpenBabel03192219363D

 36 39  0  0  0  0  0  0  0  0999 V2000
   48.7540  102.5810   30.8610 N   0  0  0  0  0  0  0  0  0  0  0  0
   47.3490  102.3460   30.9710 C   0  0  0  0  0  0  0  0  0  0  0  0
   46.6960  103.0680   31.7900 O   0  0  0  0  0  0  0  0  0  0  0  0
   46.7420  101.3380   30.1820 N   0  0  0  0  0  0  0  0  0  0  0  0
   47.4530  100.5180   29.2600 C   0  0  0  0  0  0  0  0  0  0  0  0
   46.8830   99.6280   28.5700 O   0  0  0  0  0  0  0  0  0  0  0  0
   48.9040  100.7340   29.1200 C   0  0  0  0  0  0  0  0  0  0  0  0
   49.6210  100.0030   28.2810 C   0  0  0  0  0  3  0  0  0  0  0  0
   49.4990  101.7790   29.9460 C   0  0  0  0  0  0  0  0  0  0  0  0
   50.7350  102.0000   29.8610 O   0  0  0  0  0  0  0  0  0  0  0  0
   45.7110  101.1990   30.2930 H   0  0  0  0  0  0  0  0  0  0  0  0
   51.0180  100.2350   28.1690 N   0  0  0  0  0  0  0  0  0  0  0  0
   51.2910  101.0820   27.6020 H   0  0  0  0  0  0  0  0  0  0  0  0
   52.0080   99.4480   28.7350 N   0  0  0  0  0  0  0  0  0  0  0  0
   52.1140   99.5530   29.7860 H   0  0  0  0  0  0  0  0  0  0  0  0
   52.8450   98.5560   28.0080 C   0  0  0  0  0  0  0  0  0  0  0  0
   52.4620   97.3770   27.5080 N   0  0  0  0  0  0  0  0  0  0  0  0
   53.4990   96.7980   26.8800 C   0  0  0  0  0  0  0  0  0  0  0  0
   51.1490   96.7240   27.5730 C   0  0  0  0  0  1  0  0  0  0  0  0
   54.5820   97.6590   26.9960 C   0  0  0  0  0  0  0  0  0  0  0  0
   53.7080   95.6270   26.2020 C   0  0  0  0  0  0  0  0  0  0  0  0
   54.1300   98.7050   27.6860 N   0  0  0  0  0  0  0  0  0  0  0  0
   55.7820   97.3600   26.4660 N   0  0  0  0  0  0  0  0  0  0  0  0
   55.9290   96.2060   25.8150 C   0  0  0  0  0  0  0  0  0  0  0  0
   56.8530   98.2990   26.6270 C   0  0  0  0  0  1  0  0  0  0  0  0
   57.0440   95.8860   25.2990 O   0  0  0  0  0  0  0  0  0  0  0  0
   54.9110   95.3170   25.6640 N   0  0  0  0  0  0  0  0  0  0  0  0
   55.1200   94.0840   24.9500 C   0  0  0  0  0  1  0  0  0  0  0  0
   52.7710   94.8140   26.0670 O   0  0  0  0  0  0  0  0  0  0  0  0
   49.3530  103.5760   31.6420 C   0  0  0  0  0  0  0  0  0  0  0  0
   49.2120  104.9040   31.2930 C   0  0  0  0  0  3  0  0  0  0  0  0
   49.7840  105.9200   32.0350 C   0  0  0  0  0  3  0  0  0  0  0  0
   50.5280  105.6280   33.1660 C   0  0  0  0  0  0  0  0  0  0  0  0
   51.3260  107.0260   34.2010 Br  0  0  0  0  0  0  0  0  0  0  0  0
   50.6550  104.2960   33.4950 C   0  0  0  0  0  3  0  0  0  0  0  0
   50.0910  103.2690   32.7660 C   0  0  0  0  0  3  0  0  0  0  0  0
  1  2  1  0  0  0  0
  1 30  1  0  0  0  0
  2  3  2  0  0  0  0
  4 11  1  0  0  0  0
  4  2  1  0  0  0  0
  5  4  1  0  0  0  0
  6  5  2  0  0  0  0
  7  5  1  0  0  0  0
  7  9  1  0  0  0  0
  8  7  2  0  0  0  0
  9  1  1  0  0  0  0
 10  9  2  0  0  0  0
 12  8  1  0  0  0  0
 12 14  1  0  0  0  0
 13 12  1  0  0  0  0
 14 15  1  0  0  0  0
 16 14  1  0  0  0  0
 17 19  1  0  0  0  0
 17 16  1  0  0  0  0
 18 20  2  0  0  0  0
 18 17  1  0  0  0  0
 20 22  1  0  0  0  0
 21 18  1  0  0  0  0
 22 16  2  0  0  0  0
 23 25  1  0  0  0  0
 23 20  1  0  0  0  0
 24 23  1  0  0  0  0
 26 24  2  0  0  0  0
 27 24  1  0  0  0  0
 27 21  1  0  0  0  0
 28 27  1  0  0  0  0
 29 21  2  0  0  0  0
 30 36  1  0  0  0  0
 31 30  2  0  0  0  0
 31 32  1  0  0  0  0
 32 33  2  0  0  0  0
 33 35  1  0  0  0  0
 33 34  1  0  0  0  0
 36 35  2  0  0  0  0
M  END
>  <Pose>
1

>  <Score>
-9.257

$$$$
