/Users/jonathanwahrer/Desktop/Msc/3_Semester/Drug_Design_Praktikum/waehrer_HTS_screening/HTS_experiment/out/docking_results/vina_output/3npc/0436_docked.pdbqt
 OpenBabel03192219363D

 29 32  0  0  0  0  0  0  0  0999 V2000
   55.9340   85.9600   24.6510 N   0  0  0  0  0  0  0  0  0  0  0  0
   57.2030   86.5750   24.9870 C   0  0  0  0  0  2  0  0  0  0  0  0
   57.6410   87.6110   23.9790 C   0  0  0  0  0  2  0  0  0  0  0  0
   56.4070   88.4670   23.6560 C   0  0  0  0  0  2  0  0  0  0  0  0
   55.5400   87.6000   22.9010 N   0  0  0  0  0  0  0  0  0  0  0  0
   55.3270   86.3560   23.4270 C   0  0  0  0  0  0  0  0  0  0  0  0
   54.5050   85.6830   22.6050 N   0  0  0  0  0  0  0  0  0  0  0  0
   54.2170   86.5200   21.5770 C   0  0  0  0  0  0  0  0  0  0  0  0
   54.8650   87.7320   21.7560 C   0  0  0  0  0  0  0  0  0  0  0  0
   54.7250   88.7490   20.8330 C   0  0  0  0  0  0  0  0  0  0  0  0
   55.3390   89.8500   21.0350 O   0  0  0  0  0  0  0  0  0  0  0  0
   53.9490   88.5560   19.7510 N   0  0  0  0  0  0  0  0  0  0  0  0
   53.3310   87.3710   19.6020 C   0  0  0  0  0  0  0  0  0  0  0  0
   52.6140   87.2330   18.5750 O   0  0  0  0  0  0  0  0  0  0  0  0
   53.4520   86.3750   20.4800 N   0  0  0  0  0  0  0  0  0  0  0  0
   52.7690   85.1050   20.2860 C   0  0  0  0  0  1  0  0  0  0  0  0
   55.3710   85.0130   25.5360 C   0  0  0  0  0  0  0  0  0  0  0  0
   55.8260   83.7220   25.6760 C   0  0  0  0  0  3  0  0  0  0  0  0
   55.2040   82.8600   26.5800 C   0  0  0  0  0  3  0  0  0  0  0  0
   54.1340   83.2760   27.3440 C   0  0  0  0  0  0  0  0  0  0  0  0
   53.2700   82.1370   28.5740 Br  0  0  0  0  0  0  0  0  0  0  0  0
   53.6720   84.5700   27.2080 C   0  0  0  0  0  3  0  0  0  0  0  0
   54.3010   85.3940   26.3140 C   0  0  0  0  0  3  0  0  0  0  0  0
   53.7940   89.6210   18.7750 C   0  0  0  0  0  2  0  0  0  0  0  0
   52.8240   90.6280   19.3180 C   0  0  0  0  0  0  0  0  0  0  0  0
   51.5970   90.3760   19.3540 O   0  0  0  0  0  0  0  0  0  0  0  0
   53.2600   91.8820   19.8020 N   0  0  0  0  0  0  0  0  0  0  0  0
   52.8200   92.3540   20.6240 H   0  0  0  0  0  0  0  0  0  0  0  0
   54.0540   92.3970   19.3470 H   0  0  0  0  0  0  0  0  0  0  0  0
  1  2  1  0  0  0  0
  1 17  1  0  0  0  0
  3  2  1  0  0  0  0
  4  3  1  0  0  0  0
  5  6  1  0  0  0  0
  5  4  1  0  0  0  0
  6  1  1  0  0  0  0
  7  6  2  0  0  0  0
  8  9  2  0  0  0  0
  8  7  1  0  0  0  0
  9  5  1  0  0  0  0
 10 11  2  0  0  0  0
 10  9  1  0  0  0  0
 12 10  1  0  0  0  0
 13 12  1  0  0  0  0
 13 15  1  0  0  0  0
 14 13  2  0  0  0  0
 15  8  1  0  0  0  0
 16 15  1  0  0  0  0
 17 18  2  0  0  0  0
 17 23  1  0  0  0  0
 18 19  1  0  0  0  0
 19 20  2  0  0  0  0
 20 21  1  0  0  0  0
 22 20  1  0  0  0  0
 23 22  2  0  0  0  0
 24 25  1  0  0  0  0
 24 12  1  0  0  0  0
 25 26  2  0  0  0  0
 25 27  1  0  0  0  0
 27 28  1  0  0  0  0
 29 27  1  0  0  0  0
M  END
>  <Pose>
1

>  <Score>
-7.746

$$$$
