/Users/jonathanwahrer/Desktop/Msc/3_Semester/Drug_Design_Praktikum/waehrer_HTS_screening/HTS_experiment/out/docking_results/vina_output/3npc/0439_docked.pdbqt
 OpenBabel03192219363D

 28 32  0  0  1  0  0  0  0  0999 V2000
   50.1110   98.9630   28.4810 N   0  0  0  0  0  0  0  0  0  0  0  0
   48.9070   98.5100   28.8160 N   0  0  0  0  0  0  0  0  0  0  0  0
   48.0530   99.5340   29.0000 C   0  0  0  0  0  0  0  0  0  0  0  0
   46.7740   99.4380   29.3400 C   0  0  0  0  0  1  0  0  0  0  0  0
   48.7300  100.7150   28.7750 C   0  0  0  0  0  0  0  0  0  0  0  0
   50.0160  100.3090   28.4520 C   0  0  0  0  0  0  0  0  0  0  0  0
   50.9480  101.0980   28.1760 O   0  0  0  0  0  0  0  0  0  0  0  0
   48.6610   97.5060   28.9210 H   0  0  0  0  0  0  0  0  0  0  0  0
   48.2690  101.9670   28.8470 C   0  0  0  0  0  2  0  0  0  0  0  0
   49.0840  102.9400   29.4900 N   0  0  0  0  0  0  0  0  0  0  0  0
   49.7570  103.4630   28.9120 H   0  0  0  0  0  0  0  0  0  0  0  0
   48.9920  103.2040   30.8970 C   0  0  1  0  0  0  0  0  0  0  0  0
   50.0680  102.4830   31.6450 C   0  0  0  0  0  2  0  0  0  0  0  0
   50.0000  102.8550   33.0520 N   0  0  1  0  0  0  0  0  0  0  0  0
   50.1980  104.2960   33.1390 C   0  0  0  0  0  2  0  0  0  0  0  0
   48.7130  102.4780   33.5780 C   0  0  0  0  0  2  0  0  0  0  0  0
   49.1370  105.0220   32.4850 N   0  0  2  0  0  0  0  0  0  0  0  0
   47.8500  104.5950   33.0240 C   0  0  0  0  0  2  0  0  0  0  0  0
   49.1450  104.7170   31.0780 C   0  0  0  0  0  2  0  0  0  0  0  0
   47.6550  103.1700   32.8790 N   0  0  1  0  0  0  0  0  0  0  0  0
   47.6590  102.8010   31.4840 C   0  0  0  0  0  2  0  0  0  0  0  0
   51.2820   98.2050   28.2030 C   0  0  0  0  0  0  0  0  0  0  0  0
   51.2010   97.0580   27.4400 C   0  0  0  0  0  3  0  0  0  0  0  0
   52.3270   96.2930   27.1490 C   0  0  0  0  0  3  0  0  0  0  0  0
   53.5490   96.6670   27.6220 C   0  0  0  0  0  0  0  0  0  0  0  0
   55.1360   95.6460   27.2500 Br  0  0  0  0  0  0  0  0  0  0  0  0
   53.6620   97.8140   28.3910 C   0  0  0  0  0  3  0  0  0  0  0  0
   52.5340   98.5530   28.6630 C   0  0  0  0  0  3  0  0  0  0  0  0
  1  2  1  0  0  0  0
  2  8  1  0  0  0  0
  2  3  1  0  0  0  0
  3  4  1  0  0  0  0
  5  9  1  0  0  0  0
  5  3  2  0  0  0  0
  6  1  1  0  0  0  0
  6  5  1  0  0  0  0
  7  6  2  0  0  0  0
  9 10  1  0  0  0  0
 11 10  1  0  0  0  0
 12 10  1  6  0  0  0
 12 19  1  0  0  0  0
 12 21  1  0  0  0  0
 12 13  1  0  0  0  0
 14 13  1  6  0  0  0
 14 15  1  0  0  0  0
 14 16  1  0  0  0  0
 17 19  1  6  0  0  0
 17 18  1  0  0  0  0
 17 15  1  0  0  0  0
 20 21  1  6  0  0  0
 20 18  1  0  0  0  0
 20 16  1  0  0  0  0
 22  1  1  0  0  0  0
 22 28  1  0  0  0  0
 23 22  2  0  0  0  0
 24 23  1  0  0  0  0
 24 25  2  0  0  0  0
 25 27  1  0  0  0  0
 26 25  1  0  0  0  0
 27 28  2  0  0  0  0
M  END
>  <Pose>
1

>  <Score>
-8.379

$$$$
