/Users/jonathanwahrer/Desktop/Msc/3_Semester/Drug_Design_Praktikum/waehrer_HTS_screening/HTS_experiment/out/docking_results/vina_output/3npc/0441_docked.pdbqt
 OpenBabel03192219373D

 36 39  0  0  1  0  0  0  0  0999 V2000
   55.1300   91.2630   21.4760 C   0  0  0  0  0  0  0  0  0  0  0  0
   55.3150   89.9500   21.7030 N   0  0  0  0  0  0  0  0  0  0  0  0
   54.6730   89.0610   20.9640 C   0  0  0  0  0  0  0  0  0  0  0  0
   54.6910   87.7220   20.9980 N   0  0  0  0  0  0  0  0  0  0  0  0
   53.8470   87.3200   20.0210 C   0  0  0  0  0  3  0  0  0  0  0  0
   53.3230   88.3810   19.4000 N   0  0  0  0  0  0  0  0  0  0  0  0
   53.8080   89.4950   19.9520 C   0  0  0  0  0  0  0  0  0  0  0  0
   53.6120   90.8420   19.7120 C   0  0  0  0  0  0  0  0  0  0  0  0
   54.2880   91.6930   20.4900 N   0  0  0  0  0  0  0  0  0  0  0  0
   55.8010   92.2510   22.2540 N   0  0  0  0  0  0  0  0  0  0  0  0
   55.1160   93.2730   22.9430 C   0  0  0  0  0  0  0  0  0  0  0  0
   53.8760   93.3440   22.8880 O   0  0  0  0  0  0  0  0  0  0  0  0
   56.8590   92.1900   22.3010 H   0  0  0  0  0  0  0  0  0  0  0  0
   55.8770   94.2600   23.7300 C   0  0  0  0  0  2  0  0  0  0  0  0
   55.7630   94.0710   25.1110 O   0  0  0  0  0  0  0  0  0  0  0  0
   55.1030   95.0100   25.8740 C   0  0  0  0  0  0  0  0  0  0  0  0
   53.7440   94.9250   26.0660 C   0  0  0  0  0  3  0  0  0  0  0  0
   53.0660   95.8720   26.8380 C   0  0  0  0  0  3  0  0  0  0  0  0
   53.7660   96.9070   27.4180 C   0  0  0  0  0  0  0  0  0  0  0  0
   52.8350   98.2090   28.4780 Br  0  0  0  0  0  0  0  0  0  0  0  0
   55.1300   96.9890   27.2230 C   0  0  0  0  0  3  0  0  0  0  0  0
   55.7830   96.0490   26.4600 C   0  0  0  0  0  3  0  0  0  0  0  0
   52.7440   91.2160   18.6970 O   0  0  0  0  0  0  0  0  0  0  0  0
   53.1620   91.7540   17.9310 H   0  0  0  0  0  0  0  0  0  0  0  0
   55.3960   86.8200   21.8260 C   0  0  2  0  0  3  0  0  0  0  0  0
   54.6580   86.4700   22.9650 O   0  0  0  0  0  0  0  0  0  0  0  0
   55.1880   87.3110   23.9410 C   0  0  2  0  0  3  0  0  0  0  0  0
   56.6730   87.0370   23.7580 C   0  0  1  0  0  3  0  0  0  0  0  0
   56.7560   87.1900   22.2420 C   0  0  1  0  0  3  0  0  0  0  0  0
   54.7120   86.9620   25.3210 C   0  0  0  0  0  2  0  0  0  0  0  0
   55.5320   86.0920   25.9870 O   0  0  0  0  0  0  0  0  0  0  0  0
   56.4710   86.2820   25.7260 H   0  0  0  0  0  0  0  0  0  0  0  0
   57.4790   87.9060   24.4390 O   0  0  0  0  0  0  0  0  0  0  0  0
   57.8690   88.6300   23.8520 H   0  0  0  0  0  0  0  0  0  0  0  0
   57.7300   86.3080   21.7230 O   0  0  0  0  0  0  0  0  0  0  0  0
   58.1250   85.8590   22.5120 H   0  0  0  0  0  0  0  0  0  0  0  0
  1  2  2  0  0  0  0
  1 10  1  0  0  0  0
  3  4  1  0  0  0  0
  3  2  1  0  0  0  0
  5  4  1  0  0  0  0
  6  7  1  0  0  0  0
  6  5  2  0  0  0  0
  7  3  2  0  0  0  0
  8  7  1  0  0  0  0
  8  9  2  0  0  0  0
  9  1  1  0  0  0  0
 10 13  1  0  0  0  0
 10 11  1  0  0  0  0
 11 14  1  0  0  0  0
 12 11  2  0  0  0  0
 14 15  1  0  0  0  0
 15 16  1  0  0  0  0
 16 17  2  0  0  0  0
 16 22  1  0  0  0  0
 17 18  1  0  0  0  0
 18 19  2  0  0  0  0
 19 20  1  0  0  0  0
 21 19  1  0  0  0  0
 22 21  2  0  0  0  0
 23  8  1  0  0  0  0
 24 23  1  0  0  0  0
 25  4  1  1  0  0  0
 25 29  1  0  0  0  0
 25 26  1  0  0  0  0
 26 27  1  0  0  0  0
 27 30  1  1  0  0  0
 28 27  1  0  0  0  0
 28 33  1  1  0  0  0
 29 35  1  6  0  0  0
 29 28  1  0  0  0  0
 30 31  1  0  0  0  0
 32 31  1  0  0  0  0
 34 33  1  0  0  0  0
 35 36  1  0  0  0  0
M  END
>  <Pose>
1

>  <Score>
-9.691

$$$$
