/Users/jonathanwahrer/Desktop/Msc/3_Semester/Drug_Design_Praktikum/waehrer_HTS_screening/HTS_experiment/out/docking_results/vina_output/3npc/0459_docked.pdbqt
 OpenBabel03192219383D

 29 32  0  0  0  0  0  0  0  0999 V2000
   51.9800   97.8520   27.7110 C   0  0  0  0  0  0  0  0  0  0  0  0
   50.6650   97.5700   28.1040 C   0  0  0  0  0  3  0  0  0  0  0  0
   49.7890   98.5410   28.5340 C   0  0  0  0  0  3  0  0  0  0  0  0
   50.1830   99.8590   28.5980 C   0  0  0  0  0  0  0  0  0  0  0  0
   51.4750  100.1550   28.2170 C   0  0  0  0  0  3  0  0  0  0  0  0
   52.3640   99.1730   27.7800 C   0  0  0  0  0  3  0  0  0  0  0  0
   52.8200   96.8360   27.2900 O   0  0  0  0  0  0  0  0  0  0  0  0
   54.0710   96.5740   27.8530 C   0  0  0  0  0  2  0  0  0  0  0  0
   55.1750   96.5330   26.8790 C   0  0  0  0  0  0  0  0  0  0  0  0
   55.5180   95.3300   26.2480 C   0  0  0  0  0  0  0  0  0  0  0  0
   54.5310   93.7680   26.7510 Br  0  0  0  0  0  0  0  0  0  0  0  0
   56.5200   95.2780   25.3110 C   0  0  0  0  0  3  0  0  0  0  0  0
   57.2210   96.4140   24.9610 C   0  0  0  0  0  0  0  0  0  0  0  0
   56.9030   97.6110   25.5660 C   0  0  0  0  0  0  0  0  0  0  0  0
   58.2620   96.6720   24.0670 O   0  0  0  0  0  0  0  0  0  0  0  0
   55.8840   97.6550   26.5170 C   0  0  0  0  0  3  0  0  0  0  0  0
   57.7480   98.5660   25.0370 O   0  0  0  0  0  0  0  0  0  0  0  0
   58.4000   98.0650   23.8830 C   0  0  0  0  0  2  0  0  0  0  0  0
   49.2620  100.9040   29.0550 C   0  0  0  0  0  0  0  0  0  0  0  0
   49.2800  101.5970   30.2050 N   0  0  0  0  0  0  0  0  0  0  0  0
   48.2520  102.4510   30.2060 N   0  0  0  0  0  0  0  0  0  0  0  0
   47.5850  102.3040   29.0710 N   0  0  0  0  0  0  0  0  0  0  0  0
   48.2000  101.3630   28.3740 N   0  0  0  0  0  0  0  0  0  0  0  0
   47.8740  103.3980   31.2350 C   0  0  0  0  0  2  0  0  0  0  0  0
   46.8560  102.8030   32.1280 C   0  0  0  0  0  0  0  0  0  0  0  0
   47.0040  102.8700   33.3590 O   0  0  0  0  0  0  0  0  0  0  0  0
   45.7290  102.1670   31.5630 N   0  0  0  0  0  0  0  0  0  0  0  0
   45.7580  101.6810   30.6240 H   0  0  0  0  0  0  0  0  0  0  0  0
   44.8220  102.1630   32.0760 H   0  0  0  0  0  0  0  0  0  0  0  0
  1  6  2  0  0  0  0
  1  2  1  0  0  0  0
  2  3  2  0  0  0  0
  3  4  1  0  0  0  0
  4 19  1  0  0  0  0
  5  4  2  0  0  0  0
  6  5  1  0  0  0  0
  7  1  1  0  0  0  0
  7  8  1  0  0  0  0
  9  8  1  0  0  0  0
 10 11  1  0  0  0  0
 10  9  2  0  0  0  0
 12 10  1  0  0  0  0
 13 12  2  0  0  0  0
 13 14  1  0  0  0  0
 14 16  2  0  0  0  0
 15 13  1  0  0  0  0
 16  9  1  0  0  0  0
 17 14  1  0  0  0  0
 18 15  1  0  0  0  0
 18 17  1  0  0  0  0
 19 20  2  0  0  0  0
 20 21  1  0  0  0  0
 21 24  1  0  0  0  0
 22 21  1  0  0  0  0
 23 19  1  0  0  0  0
 23 22  2  0  0  0  0
 24 25  1  0  0  0  0
 25 26  2  0  0  0  0
 27 29  1  0  0  0  0
 27 25  1  0  0  0  0
 28 27  1  0  0  0  0
M  END
>  <Pose>
1

>  <Score>
-8.974

$$$$
