/Users/jonathanwahrer/Desktop/Msc/3_Semester/Drug_Design_Praktikum/waehrer_HTS_screening/HTS_experiment/out/docking_results/vina_output/3npc/0467_docked.pdbqt
 OpenBabel03192219383D

 28 31  0  0  1  0  0  0  0  0999 V2000
   54.4160   86.1710   21.2190 C   0  0  1  0  0  3  0  0  0  0  0  0
   54.2790   87.4510   20.8360 N   0  0  0  0  0  0  0  0  0  0  0  0
   55.2200   88.3990   21.0920 C   0  0  0  0  0  0  0  0  0  0  0  0
   56.3000   87.9830   21.7510 N   0  0  0  0  0  0  0  0  0  0  0  0
   56.4960   86.7310   22.1580 C   0  0  0  0  0  0  0  0  0  0  0  0
   55.5200   85.8180   21.8750 N   0  0  0  0  0  0  0  0  0  0  0  0
   53.3420   85.3050   20.9130 N   0  0  0  0  0  0  0  0  0  0  0  0
   52.5140   85.2930   21.5470 H   0  0  0  0  0  0  0  0  0  0  0  0
   53.3450   84.4740   19.8110 N   0  0  0  0  0  0  0  0  0  0  0  0
   54.0710   83.4620   19.5920 C   0  0  0  0  0  3  0  0  0  0  0  0
   53.9540   82.6870   18.3740 C   0  0  0  0  0  0  0  0  0  0  0  0
   54.4180   81.3930   18.2850 C   0  0  0  0  0  0  0  0  0  0  0  0
   55.2290   80.5940   19.8000 Br  0  0  0  0  0  0  0  0  0  0  0  0
   54.2950   80.6810   17.1070 C   0  0  0  0  0  3  0  0  0  0  0  0
   53.7060   81.2280   15.9660 C   0  0  0  0  0  0  0  0  0  0  0  0
   53.2330   82.5360   16.0450 C   0  0  0  0  0  0  0  0  0  0  0  0
   53.4550   80.7670   14.6830 O   0  0  0  0  0  0  0  0  0  0  0  0
   53.3670   83.2270   17.2320 C   0  0  0  0  0  3  0  0  0  0  0  0
   52.7080   82.8370   14.8090 O   0  0  0  0  0  0  0  0  0  0  0  0
   52.9920   81.8160   13.8730 C   0  0  0  0  0  2  0  0  0  0  0  0
   55.0040   89.7060   20.6490 N   0  0  0  0  0  0  0  0  0  0  0  0
   53.8890   90.0350   19.7940 C   0  0  0  0  0  2  0  0  0  0  0  0
   53.6310   91.5270   19.7820 C   0  0  0  0  0  2  0  0  0  0  0  0
   53.8830   92.1790   20.9450 O   0  0  0  0  0  0  0  0  0  0  0  0
   54.9530   91.8080   21.6980 C   0  0  0  0  0  2  0  0  0  0  0  0
   55.8760   90.7830   21.0440 C   0  0  0  0  0  2  0  0  0  0  0  0
   57.6310   86.3300   22.8420 O   0  0  0  0  0  0  0  0  0  0  0  0
   57.5960   86.1290   24.2300 C   0  0  0  0  0  1  0  0  0  0  0  0
  1  7  1  1  0  0  0
  1  6  1  0  0  0  0
  2  3  2  0  0  0  0
  2  1  1  0  0  0  0
  3  4  1  0  0  0  0
  4  5  2  0  0  0  0
  5 27  1  0  0  0  0
  6  5  2  0  0  0  0
  7  8  1  0  0  0  0
  9  7  1  0  0  0  0
 10  9  2  0  0  0  0
 11 10  1  0  0  0  0
 12 11  1  0  0  0  0
 12 13  1  0  0  0  0
 14 12  2  0  0  0  0
 15 16  2  0  0  0  0
 15 14  1  0  0  0  0
 16 18  1  0  0  0  0
 17 15  1  0  0  0  0
 18 11  2  0  0  0  0
 19 16  1  0  0  0  0
 20 17  1  0  0  0  0
 20 19  1  0  0  0  0
 21 26  1  0  0  0  0
 21  3  1  0  0  0  0
 22 21  1  0  0  0  0
 23 22  1  0  0  0  0
 23 24  1  0  0  0  0
 24 25  1  0  0  0  0
 26 25  1  0  0  0  0
 27 28  1  0  0  0  0
M  END
>  <Pose>
1

>  <Score>
-8.002

$$$$
