/Users/jonathanwahrer/Desktop/Msc/3_Semester/Drug_Design_Praktikum/waehrer_HTS_screening/HTS_experiment/out/docking_results/vina_output/3npc/0473_docked.pdbqt
 OpenBabel03192219393D

 29 32  0  0  0  0  0  0  0  0999 V2000
   51.4310   98.8980   29.4900 C   0  0  0  0  0  2  0  0  0  0  0  0
   52.2990   98.6920   28.2810 C   0  0  0  0  0  2  0  0  0  0  0  0
   53.4790   97.8680   28.6430 C   0  0  0  0  0  2  0  0  0  0  0  0
   53.9630   97.0410   27.5590 N   0  0  0  0  0  0  0  0  0  0  0  0
   55.3060   97.0730   27.1000 C   0  0  0  0  0  0  0  0  0  0  0  0
   55.4360   96.1220   26.0100 C   0  0  0  0  0  0  0  0  0  0  0  0
   56.2650   97.7890   27.5320 O   0  0  0  0  0  0  0  0  0  0  0  0
   54.1960   95.5400   25.8280 C   0  0  0  0  0  0  0  0  0  0  0  0
   56.5050   95.7570   25.2180 C   0  0  0  0  0  3  0  0  0  0  0  0
   54.0730   94.5900   24.8310 C   0  0  0  0  0  3  0  0  0  0  0  0
   53.2440   96.1050   26.7960 C   0  0  0  0  0  0  0  0  0  0  0  0
   55.1500   94.2330   24.0450 C   0  0  0  0  0  0  0  0  0  0  0  0
   54.9070   92.9130   22.6890 Br  0  0  0  0  0  0  0  0  0  0  0  0
   56.3900   94.8090   24.2210 C   0  0  0  0  0  3  0  0  0  0  0  0
   52.0270   95.7880   26.8970 O   0  0  0  0  0  0  0  0  0  0  0  0
   49.9770   98.8920   29.2060 C   0  0  0  0  0  0  0  0  0  0  0  0
   49.2860   97.8440   29.1310 O   0  0  0  0  0  0  0  0  0  0  0  0
   49.2690  100.1300   28.9950 N   0  0  0  0  0  0  0  0  0  0  0  0
   47.8510  100.1350   28.7190 C   0  0  0  0  0  2  0  0  0  0  0  0
   49.9360  101.4180   29.0490 C   0  0  0  0  0  2  0  0  0  0  0  0
   47.1000  101.1760   29.4800 C   0  0  0  0  0  2  0  0  0  0  0  0
   47.9210  101.9930   30.3410 N   0  0  0  0  0  0  0  0  0  0  0  0
   49.3060  102.2980   30.1010 C   0  0  0  0  0  2  0  0  0  0  0  0
   47.3150  102.5370   31.5180 C   0  0  0  0  0  0  0  0  0  0  0  0
   48.0500  103.1740   32.4690 N   0  0  0  0  0  0  0  0  0  0  0  0
   47.5240  103.6950   33.5770 C   0  0  0  0  0  3  0  0  0  0  0  0
   46.1570  103.5870   33.7830 C   0  0  0  0  0  3  0  0  0  0  0  0
   45.3960  102.9580   32.8560 N   0  0  0  0  0  0  0  0  0  0  0  0
   45.9620  102.4460   31.7510 C   0  0  0  0  0  3  0  0  0  0  0  0
  2  3  1  0  0  0  0
  2  1  1  0  0  0  0
  4  3  1  0  0  0  0
  5  7  2  0  0  0  0
  5  4  1  0  0  0  0
  6  5  1  0  0  0  0
  8  6  1  0  0  0  0
  8 11  1  0  0  0  0
  9  6  2  0  0  0  0
 10  8  2  0  0  0  0
 11 15  2  0  0  0  0
 11  4  1  0  0  0  0
 12 14  2  0  0  0  0
 12 10  1  0  0  0  0
 13 12  1  0  0  0  0
 14  9  1  0  0  0  0
 16  1  1  0  0  0  0
 17 16  2  0  0  0  0
 18 20  1  0  0  0  0
 18 16  1  0  0  0  0
 19 18  1  0  0  0  0
 19 21  1  0  0  0  0
 20 23  1  0  0  0  0
 21 22  1  0  0  0  0
 22 24  1  0  0  0  0
 23 22  1  0  0  0  0
 24 29  2  0  0  0  0
 24 25  1  0  0  0  0
 25 26  2  0  0  0  0
 26 27  1  0  0  0  0
 28 27  2  0  0  0  0
 29 28  1  0  0  0  0
M  END
>  <Pose>
1

>  <Score>
-8.942

$$$$
