/Users/jonathanwahrer/Desktop/Msc/3_Semester/Drug_Design_Praktikum/waehrer_HTS_screening/HTS_experiment/out/docking_results/vina_output/3npc/0483_docked.pdbqt
 OpenBabel03192219393D

 31 34  0  0  0  0  0  0  0  0999 V2000
   53.7380   89.1480   18.3550 C   0  0  0  0  0  2  0  0  0  0  0  0
   52.5780   88.3130   18.6240 C   0  0  0  0  0  0  0  0  0  0  0  0
   51.6120   87.6260   18.8310 C   0  0  0  0  0  3  0  0  0  0  0  0
   54.1920   89.7920   19.5710 N   0  0  0  0  0  0  0  0  0  0  0  0
   54.8510   89.2340   20.7030 C   0  0  0  0  0  0  0  0  0  0  0  0
   55.1080   90.2250   21.6570 C   0  0  0  0  0  0  0  0  0  0  0  0
   55.2510   87.9340   20.9780 C   0  0  0  0  0  3  0  0  0  0  0  0
   55.7440   89.8780   22.8300 C   0  0  0  0  0  3  0  0  0  0  0  0
   54.6060   91.4960   21.1550 C   0  0  0  0  0  0  0  0  0  0  0  0
   56.1430   88.5630   23.0970 C   0  0  0  0  0  0  0  0  0  0  0  0
   57.0190   88.0920   24.7160 Br  0  0  0  0  0  0  0  0  0  0  0  0
   55.8840   87.6080   22.1540 C   0  0  0  0  0  3  0  0  0  0  0  0
   54.0320   91.1780   19.8290 C   0  0  0  0  0  0  0  0  0  0  0  0
   54.6460   92.6500   21.7270 N   0  0  0  0  0  0  0  0  0  0  0  0
   53.5060   92.0770   19.1180 O   0  0  0  0  0  0  0  0  0  0  0  0
   55.2150   92.8370   22.9890 N   0  0  0  0  0  0  0  0  0  0  0  0
   54.6420   93.6890   23.9650 C   0  0  0  0  0  0  0  0  0  0  0  0
   53.5850   94.3020   23.6940 O   0  0  0  0  0  0  0  0  0  0  0  0
   56.0980   92.3340   23.2090 H   0  0  0  0  0  0  0  0  0  0  0  0
   55.2780   93.8480   25.2650 C   0  0  0  0  0  2  0  0  0  0  0  0
   54.8660   95.0540   25.9560 N   0  0  0  0  0  0  0  0  0  0  0  0
   55.5760   96.1540   26.1370 N   0  0  0  0  0  2  0  0  0  0  0  0
   54.8750   97.0500   26.8130 N   0  0  0  0  0  0  0  0  0  0  0  0
   53.6700   96.5160   27.0810 C   0  0  0  0  0  0  0  0  0  0  0  0
   53.6990   95.2910   26.5400 N   0  0  0  0  0  2  0  0  0  0  0  0
   52.5940   97.1780   27.8110 C   0  0  0  0  0  0  0  0  0  0  0  0
   52.8880   98.0070   28.8730 C   0  0  0  0  0  3  0  0  0  0  0  0
   51.8600   98.6430   29.5740 C   0  0  0  0  0  3  0  0  0  0  0  0
   50.5380   98.4660   29.2350 C   0  0  0  0  0  3  0  0  0  0  0  0
   50.2410   97.6340   28.1690 C   0  0  0  0  0  3  0  0  0  0  0  0
   51.2680   97.0070   27.4780 C   0  0  0  0  0  3  0  0  0  0  0  0
  1  2  1  0  0  0  0
  1  4  1  0  0  0  0
  2  3  3  0  0  0  0
  4 13  1  0  0  0  0
  4  5  1  0  0  0  0
  5  7  2  0  0  0  0
  5  6  1  0  0  0  0
  6  8  2  0  0  0  0
  7 12  1  0  0  0  0
  8 10  1  0  0  0  0
  9  6  1  0  0  0  0
  9 14  2  0  0  0  0
 10 11  1  0  0  0  0
 12 10  2  0  0  0  0
 13  9  1  0  0  0  0
 14 16  1  0  0  0  0
 15 13  2  0  0  0  0
 16 19  1  0  0  0  0
 16 17  1  0  0  0  0
 17 20  1  0  0  0  0
 18 17  2  0  0  0  0
 20 21  1  0  0  0  0
 21 22  1  0  0  0  0
 21 25  1  0  0  0  0
 22 23  1  0  0  0  0
 23 24  2  0  0  0  0
 24 26  1  0  0  0  0
 25 24  1  0  0  0  0
 26 27  1  0  0  0  0
 27 28  2  0  0  0  0
 29 28  1  0  0  0  0
 30 29  2  0  0  0  0
 31 26  2  0  0  0  0
 31 30  1  0  0  0  0
M  END
>  <Pose>
1

>  <Score>
-11.216

$$$$
