/Users/jonathanwahrer/Desktop/Msc/3_Semester/Drug_Design_Praktikum/waehrer_HTS_screening/HTS_experiment/out/docking_results/vina_output/3npc/0485_docked.pdbqt
 OpenBabel03192219403D

 34 37  0  0  0  0  0  0  0  0999 V2000
   50.8910   92.2300   17.4190 Br  0  0  0  0  0  0  0  0  0  0  0  0
   52.1430   91.2130   18.4650 C   0  0  0  0  0  0  0  0  0  0  0  0
   52.7870   91.7620   19.5500 C   0  0  0  0  0  3  0  0  0  0  0  0
   53.7000   91.0660   20.3350 C   0  0  0  0  0  0  0  0  0  0  0  0
   53.9780   89.7370   20.0020 C   0  0  0  0  0  0  0  0  0  0  0  0
   53.3320   89.1860   18.9150 C   0  0  0  0  0  3  0  0  0  0  0  0
   52.4210   89.9010   18.1420 C   0  0  0  0  0  3  0  0  0  0  0  0
   54.9340   89.1920   20.9220 N   0  0  0  0  0  0  0  0  0  0  0  0
   55.2490   90.2270   21.8440 C   0  0  0  0  0  0  0  0  0  0  0  0
   56.0520   90.1270   22.7980 O   0  0  0  0  0  0  0  0  0  0  0  0
   54.4900   91.4140   21.5020 C   0  0  0  0  0  0  0  0  0  0  0  0
   54.5060   92.5500   22.1030 N   0  0  0  0  0  0  0  0  0  0  0  0
   55.2930   92.8090   23.2190 N   0  0  0  0  0  0  0  0  0  0  0  0
   54.7910   93.6220   24.2570 C   0  0  0  0  0  0  0  0  0  0  0  0
   53.6200   94.1340   24.2000 O   0  0  0  0  0  0  0  0  0  0  0  0
   56.2380   92.4050   23.2800 H   0  0  0  0  0  0  0  0  0  0  0  0
   55.5620   93.9490   25.4830 C   0  0  0  0  0  2  0  0  0  0  0  0
   55.1780   95.2320   25.9760 O   0  0  0  0  0  0  0  0  0  0  0  0
   56.0540   96.2990   25.8770 C   0  0  0  0  0  0  0  0  0  0  0  0
   55.8670   97.4230   26.6530 C   0  0  0  0  0  0  0  0  0  0  0  0
   56.7520   98.4920   26.5480 C   0  0  0  0  0  3  0  0  0  0  0  0
   57.8170   98.4370   25.6690 C   0  0  0  0  0  3  0  0  0  0  0  0
   57.9880   97.3190   24.9080 C   0  0  0  0  0  3  0  0  0  0  0  0
   57.1070   96.2560   25.0140 C   0  0  0  0  0  3  0  0  0  0  0  0
   54.8200   97.5090   27.5350 O   0  0  0  0  0  0  0  0  0  0  0  0
   53.6780   98.2650   27.2180 C   0  0  0  0  0  1  0  0  0  0  0  0
   55.4490   87.8340   20.8770 C   0  0  0  0  0  2  0  0  0  0  0  0
   55.3170   87.1040   22.0860 N   0  0  0  0  0  0  0  0  0  0  0  0
   54.3530   86.0570   22.0800 C   0  0  0  0  0  2  0  0  0  0  0  0
   54.2290   85.3830   23.4490 C   0  0  0  0  0  2  0  0  0  0  0  0
   54.9060   86.2280   24.3910 N   0  0  0  0  0  0  0  0  0  0  0  0
   56.3170   86.2930   24.1720 C   0  0  0  0  0  2  0  0  0  0  0  0
   54.5230   86.0030   25.7550 C   0  0  0  0  0  1  0  0  0  0  0  0
   56.5460   86.7830   22.7540 C   0  0  0  0  0  2  0  0  0  0  0  0
  1  2  1  0  0  0  0
  2  3  1  0  0  0  0
  3  4  2  0  0  0  0
  4 11  1  0  0  0  0
  5  4  1  0  0  0  0
  5  8  1  0  0  0  0
  6  5  2  0  0  0  0
  7  2  2  0  0  0  0
  7  6  1  0  0  0  0
  8  9  1  0  0  0  0
  9 10  2  0  0  0  0
 11  9  1  0  0  0  0
 11 12  2  0  0  0  0
 12 13  1  0  0  0  0
 13 16  1  0  0  0  0
 13 14  1  0  0  0  0
 14 17  1  0  0  0  0
 15 14  2  0  0  0  0
 17 18  1  0  0  0  0
 19 18  1  0  0  0  0
 19 20  1  0  0  0  0
 20 25  1  0  0  0  0
 21 20  2  0  0  0  0
 22 21  1  0  0  0  0
 23 24  1  0  0  0  0
 23 22  2  0  0  0  0
 24 19  2  0  0  0  0
 26 25  1  0  0  0  0
 27  8  1  0  0  0  0
 27 28  1  0  0  0  0
 28 34  1  0  0  0  0
 29 28  1  0  0  0  0
 29 30  1  0  0  0  0
 30 31  1  0  0  0  0
 31 33  1  0  0  0  0
 32 31  1  0  0  0  0
 34 32  1  0  0  0  0
M  END
>  <Pose>
1

>  <Score>
-9.709

$$$$
