/Users/jonathanwahrer/Desktop/Msc/3_Semester/Drug_Design_Praktikum/waehrer_HTS_screening/HTS_experiment/out/docking_results/vina_output/3npc/0504_docked.pdbqt
 OpenBabel03192219403D

 29 32  0  0  1  0  0  0  0  0999 V2000
   53.5700   80.2850   29.7180 Br  0  0  0  0  0  0  0  0  0  0  0  0
   52.6060   81.8430   29.2190 C   0  0  0  0  0  0  0  0  0  0  0  0
   51.5550   82.3420   29.9520 C   0  0  0  0  0  3  0  0  0  0  0  0
   50.8980   83.4920   29.5170 C   0  0  0  0  0  0  0  0  0  0  0  0
   51.2410   84.1620   28.3920 C   0  0  0  0  0  0  0  0  0  0  0  0
   52.3090   83.6560   27.6470 C   0  0  0  0  0  3  0  0  0  0  0  0
   52.9700   82.5210   28.0610 C   0  0  0  0  0  3  0  0  0  0  0  0
   50.4210   85.2940   28.1730 N   0  0  0  0  0  0  0  0  0  0  0  0
   49.4900   85.3540   29.2280 C   0  0  0  0  0  0  0  0  0  0  0  0
   48.5920   86.2270   29.3790 O   0  0  0  0  0  0  0  0  0  0  0  0
   49.7410   84.2080   30.1470 C   0  0  1  0  0  0  0  0  0  0  0  0
   48.5600   83.3090   30.1880 C   0  0  0  0  0  0  0  0  0  0  0  0
   47.9980   82.9550   31.2860 C   0  0  0  0  0  0  0  0  0  0  0  0
   48.4660   83.4030   32.5890 N   0  0  0  0  0  0  0  0  0  0  0  0
   49.5900   84.2580   32.5640 C   0  0  0  0  0  0  0  0  0  0  0  0
   50.1760   84.6300   31.4590 C   0  0  0  0  0  0  0  0  0  0  0  0
   51.3260   85.5170   31.5900 C   0  0  0  0  0  0  0  0  0  0  0  0
   52.2410   86.2230   31.6720 N   0  0  0  0  0  0  0  0  0  0  0  0
   46.8470   82.0550   30.9690 C   0  0  0  0  0  0  0  0  0  0  0  0
   46.8330   81.9500   29.5930 O   0  0  0  0  0  0  0  0  0  0  0  0
   47.8390   82.6790   29.0350 C   0  0  0  0  0  0  0  0  0  0  0  0
   48.1540   82.8370   27.8170 O   0  0  0  0  0  0  0  0  0  0  0  0
   45.5660   82.6280   31.5450 C   0  0  0  0  0  1  0  0  0  0  0  0
   47.0750   80.6700   31.5440 C   0  0  0  0  0  1  0  0  0  0  0  0
   50.4930   86.2560   27.0620 C   0  0  0  0  0  1  0  0  0  0  0  0
   47.9760   83.0870   33.4430 H   0  0  0  0  0  0  0  0  0  0  0  0
   50.1020   84.7370   33.8380 N   0  0  0  0  0  0  0  0  0  0  0  0
   49.8710   84.1710   34.6800 H   0  0  0  0  0  0  0  0  0  0  0  0
   50.6650   85.5960   33.9030 H   0  0  0  0  0  0  0  0  0  0  0  0
  2  1  1  0  0  0  0
  2  3  1  0  0  0  0
  4  3  2  0  0  0  0
  4 11  1  0  0  0  0
  5  4  1  0  0  0  0
  6  7  1  0  0  0  0
  6  5  2  0  0  0  0
  7  2  2  0  0  0  0
  8  5  1  0  0  0  0
  8  9  1  0  0  0  0
  9 10  2  0  0  0  0
 11  9  1  6  0  0  0
 11 12  1  0  0  0  0
 11 16  1  0  0  0  0
 12 13  2  0  0  0  0
 13 14  1  0  0  0  0
 14 26  1  0  0  0  0
 15 14  1  0  0  0  0
 15 27  1  0  0  0  0
 16 17  1  0  0  0  0
 16 15  2  0  0  0  0
 17 18  3  0  0  0  0
 19 13  1  0  0  0  0
 19 24  1  0  0  0  0
 19 23  1  0  0  0  0
 20 19  1  0  0  0  0
 21 20  1  0  0  0  0
 21 12  1  0  0  0  0
 22 21  2  0  0  0  0
 25  8  1  0  0  0  0
 27 29  1  0  0  0  0
 27 28  1  0  0  0  0
M  END
>  <Pose>
1

>  <Score>
-7.001

$$$$
