/Users/jonathanwahrer/Desktop/Msc/3_Semester/Drug_Design_Praktikum/waehrer_HTS_screening/HTS_experiment/out/docking_results/vina_output/3npc/0505_docked.pdbqt
 OpenBabel03192219413D

 30 33  0  0  1  0  0  0  0  0999 V2000
   49.5880   82.0420   23.0100 Br  0  0  0  0  0  0  0  0  0  0  0  0
   50.9390   83.0060   23.9420 C   0  0  0  0  0  0  0  0  0  0  0  0
   50.9700   82.9840   25.3190 C   0  0  0  0  0  3  0  0  0  0  0  0
   51.9520   83.6840   26.0270 C   0  0  0  0  0  0  0  0  0  0  0  0
   52.8700   84.3820   25.3100 C   0  0  0  0  0  0  0  0  0  0  0  0
   52.8360   84.4040   23.9000 C   0  0  0  0  0  3  0  0  0  0  0  0
   51.8670   83.7120   23.2110 C   0  0  0  0  0  3  0  0  0  0  0  0
   53.7710   85.0160   26.2080 N   0  0  0  0  0  0  0  0  0  0  0  0
   53.4140   84.7110   27.5340 C   0  0  0  0  0  0  0  0  0  0  0  0
   53.9800   85.0930   28.5880 O   0  0  0  0  0  0  0  0  0  0  0  0
   52.2110   83.8280   27.4900 C   0  0  1  0  0  0  0  0  0  0  0  0
   51.0740   84.4560   28.1710 C   0  0  0  0  0  0  0  0  0  0  0  0
   50.4090   83.8310   29.1750 C   0  0  0  0  0  0  0  0  0  0  0  0
   50.8020   82.5550   29.5910 O   0  0  0  0  0  0  0  0  0  0  0  0
   51.8670   81.9200   28.9840 C   0  0  0  0  0  0  0  0  0  0  0  0
   52.5190   82.4960   28.0200 C   0  0  0  0  0  0  0  0  0  0  0  0
   53.6390   81.7470   27.4330 C   0  0  0  0  0  0  0  0  0  0  0  0
   54.5010   81.1640   26.9700 N   0  0  0  0  0  0  0  0  0  0  0  0
   49.3300   84.4690   29.7930 C   0  0  0  0  0  0  0  0  0  0  0  0
   48.7280   83.8830   30.7170 O   0  0  0  0  0  0  0  0  0  0  0  0
   48.9570   85.7240   29.3740 C   0  0  0  0  0  3  0  0  0  0  0  0
   49.6680   86.3100   28.3480 C   0  0  0  0  0  0  0  0  0  0  0  0
   50.6550   85.6740   27.8150 O   0  0  0  0  0  0  0  0  0  0  0  0
   54.8960   85.8580   25.7580 C   0  0  0  0  0  1  0  0  0  0  0  0
   52.2120   80.6100   29.4640 N   0  0  0  0  0  0  0  0  0  0  0  0
   53.1660   80.4400   29.7760 H   0  0  0  0  0  0  0  0  0  0  0  0
   51.4880   79.8920   29.4760 H   0  0  0  0  0  0  0  0  0  0  0  0
   49.2760   87.6920   27.8690 C   0  0  0  0  0  2  0  0  0  0  0  0
   49.3040   87.7150   26.4740 O   0  0  0  0  0  0  0  0  0  0  0  0
   48.4640   87.2920   26.1230 H   0  0  0  0  0  0  0  0  0  0  0  0
  1  2  1  0  0  0  0
  2  3  1  0  0  0  0
  3  4  2  0  0  0  0
  5  4  1  0  0  0  0
  5  8  1  0  0  0  0
  6  5  2  0  0  0  0
  7  6  1  0  0  0  0
  7  2  2  0  0  0  0
  8  9  1  0  0  0  0
  9 10  2  0  0  0  0
 11  4  1  6  0  0  0
 11  9  1  0  0  0  0
 11 16  1  0  0  0  0
 11 12  1  0  0  0  0
 12 13  2  0  0  0  0
 13 14  1  0  0  0  0
 13 19  1  0  0  0  0
 15 25  1  0  0  0  0
 15 14  1  0  0  0  0
 16 15  2  0  0  0  0
 17 16  1  0  0  0  0
 18 17  3  0  0  0  0
 19 20  2  0  0  0  0
 21 19  1  0  0  0  0
 22 21  2  0  0  0  0
 23 12  1  0  0  0  0
 23 22  1  0  0  0  0
 24  8  1  0  0  0  0
 25 27  1  0  0  0  0
 25 26  1  0  0  0  0
 28 22  1  0  0  0  0
 29 28  1  0  0  0  0
 30 29  1  0  0  0  0
M  END
>  <Pose>
1

>  <Score>
-7.405

$$$$
