/Users/jonathanwahrer/Desktop/Msc/3_Semester/Drug_Design_Praktikum/waehrer_HTS_screening/HTS_experiment/out/docking_results/vina_output/3npc/0513_docked.pdbqt
 OpenBabel03192219413D

 33 36  0  0  0  0  0  0  0  0999 V2000
   51.9290   86.1950   20.1040 N   0  0  0  0  0  0  0  0  0  0  0  0
   52.3960   84.8630   20.2660 C   0  0  0  0  0  0  0  0  0  0  0  0
   53.0320   84.3670   19.3220 O   0  0  0  0  0  0  0  0  0  0  0  0
   51.3840   86.6050   20.8930 H   0  0  0  0  0  0  0  0  0  0  0  0
   52.1540   86.9550   18.9710 N   0  0  0  0  0  0  0  0  0  0  0  0
   52.6420   86.5220   18.1400 H   0  0  0  0  0  0  0  0  0  0  0  0
   51.7730   88.2960   18.8310 C   0  0  0  0  0  3  0  0  0  0  0  0
   52.4760   89.3320   19.2330 C   0  0  0  0  0  0  0  0  0  0  0  0
   53.7810   89.3630   19.9030 C   0  0  0  0  0  0  0  0  0  0  0  0
   52.0900   90.7460   19.0950 C   0  0  0  0  0  0  0  0  0  0  0  0
   54.6480   88.3690   20.3020 C   0  0  0  0  0  3  0  0  0  0  0  0
   54.1640   90.6590   20.1530 C   0  0  0  0  0  0  0  0  0  0  0  0
   55.8660   88.6270   20.9310 C   0  0  0  0  0  0  0  0  0  0  0  0
   57.0160   87.1880   21.4500 Br  0  0  0  0  0  0  0  0  0  0  0  0
   56.2120   89.9330   21.1630 C   0  0  0  0  0  3  0  0  0  0  0  0
   55.3810   90.9560   20.7830 C   0  0  0  0  0  3  0  0  0  0  0  0
   53.1380   91.5110   19.6630 N   0  0  0  0  0  0  0  0  0  0  0  0
   53.1400   92.5570   19.7090 H   0  0  0  0  0  0  0  0  0  0  0  0
   51.0240   91.1450   18.5680 O   0  0  0  0  0  0  0  0  0  0  0  0
   52.1640   84.0660   21.4910 C   0  0  0  0  0  2  0  0  0  0  0  0
   52.8990   84.5280   22.5730 N   0  0  0  0  0  0  0  0  0  0  0  0
   52.6890   84.4670   23.8870 C   0  0  0  0  0  0  0  0  0  0  0  0
   53.7110   85.1460   24.5380 C   0  0  0  0  0  0  0  0  0  0  0  0
   51.6950   83.8640   24.5720 N   0  0  0  0  0  0  0  0  0  0  0  0
   54.5350   85.6110   23.5800 N   0  0  0  0  0  0  0  0  0  0  0  0
   53.7240   85.2180   25.9160 C   0  0  0  0  0  0  0  0  0  0  0  0
   54.0560   85.2450   22.4130 C   0  0  0  0  0  3  0  0  0  0  0  0
   54.6620   85.8420   26.4770 O   0  0  0  0  0  0  0  0  0  0  0  0
   52.7390   84.6220   26.5700 N   0  0  0  0  0  0  0  0  0  0  0  0
   51.7550   83.9650   25.9300 C   0  0  0  0  0  0  0  0  0  0  0  0
   52.7040   84.6700   28.0410 C   0  0  0  0  0  1  0  0  0  0  0  0
   50.8410   83.4130   26.5870 O   0  0  0  0  0  0  0  0  0  0  0  0
   50.6520   83.1250   23.9200 C   0  0  0  0  0  1  0  0  0  0  0  0
  1  2  1  0  0  0  0
  1  4  1  0  0  0  0
  2 20  1  0  0  0  0
  3  2  2  0  0  0  0
  5  1  1  0  0  0  0
  6  5  1  0  0  0  0
  7  5  1  0  0  0  0
  7  8  2  0  0  0  0
  8  9  1  0  0  0  0
  9 12  2  0  0  0  0
  9 11  1  0  0  0  0
 10  8  1  0  0  0  0
 10 17  1  0  0  0  0
 11 13  2  0  0  0  0
 12 16  1  0  0  0  0
 13 15  1  0  0  0  0
 13 14  1  0  0  0  0
 16 15  2  0  0  0  0
 17 18  1  0  0  0  0
 17 12  1  0  0  0  0
 19 10  2  0  0  0  0
 20 21  1  0  0  0  0
 21 22  1  0  0  0  0
 22 23  2  0  0  0  0
 22 24  1  0  0  0  0
 23 26  1  0  0  0  0
 24 30  1  0  0  0  0
 25 23  1  0  0  0  0
 26 28  2  0  0  0  0
 26 29  1  0  0  0  0
 27 21  1  0  0  0  0
 27 25  2  0  0  0  0
 29 31  1  0  0  0  0
 30 29  1  0  0  0  0
 30 32  2  0  0  0  0
 33 24  1  0  0  0  0
M  END
>  <Pose>
1

>  <Score>
-9.130

$$$$
