/Users/jonathanwahrer/Desktop/Msc/3_Semester/Drug_Design_Praktikum/waehrer_HTS_screening/HTS_experiment/out/docking_results/vina_output/3npc/0526_docked.pdbqt
 OpenBabel03192219413D

 31 34  0  0  0  0  0  0  0  0999 V2000
   54.3910   93.7000   24.7650 N   0  0  0  0  0  0  0  0  0  0  0  0
   54.2370   93.7460   23.3670 C   0  0  0  0  0  0  0  0  0  0  0  0
   53.5470   94.7040   22.8660 O   0  0  0  0  0  0  0  0  0  0  0  0
   54.9460   92.9100   25.1940 H   0  0  0  0  0  0  0  0  0  0  0  0
   54.7880   92.8150   22.3780 C   0  0  0  0  0  2  0  0  0  0  0  0
   55.3820   91.6150   22.8950 N   0  0  0  0  0  0  0  0  0  0  0  0
   55.5110   90.4420   22.1000 C   0  0  0  0  0  0  0  0  0  0  0  0
   55.0550   90.5310   20.8940 O   0  0  0  0  0  0  0  0  0  0  0  0
   55.7240   91.5460   23.8660 H   0  0  0  0  0  0  0  0  0  0  0  0
   56.0840   89.1960   22.5090 C   0  0  0  0  0  0  0  0  0  0  0  0
   56.3600   88.8290   23.8170 C   0  0  0  0  0  3  0  0  0  0  0  0
   56.8970   87.6290   24.1370 C   0  0  0  0  0  0  0  0  0  0  0  0
   57.2010   86.7000   23.1620 C   0  0  0  0  0  0  0  0  0  0  0  0
   57.2740   86.9810   25.3720 O   0  0  0  0  0  0  0  0  0  0  0  0
   56.9520   87.0190   21.8640 C   0  0  0  0  0  3  0  0  0  0  0  0
   57.7320   85.5580   23.7840 O   0  0  0  0  0  0  0  0  0  0  0  0
   56.3920   88.2570   21.5130 C   0  0  0  0  0  3  0  0  0  0  0  0
   57.0430   85.5610   25.0580 C   0  0  0  0  0  2  0  0  0  0  0  0
   53.8360   94.6510   25.5450 N   0  0  0  0  0  0  0  0  0  0  0  0
   54.1100   95.6000   26.2110 C   0  0  0  0  0  0  0  0  0  0  0  0
   53.2810   96.5150   27.0050 C   0  0  0  0  0  0  0  0  0  0  0  0
   55.5240   96.0650   26.3300 C   0  0  0  0  0  0  0  0  0  0  0  0
   51.9220   96.5290   27.2290 C   0  0  0  0  0  3  0  0  0  0  0  0
   54.1170   97.4380   27.5500 C   0  0  0  0  0  0  0  0  0  0  0  0
   51.3390   97.4780   28.0190 C   0  0  0  0  0  0  0  0  0  0  0  0
   49.4690   97.5090   28.3430 Br  0  0  0  0  0  0  0  0  0  0  0  0
   52.1760   98.4320   28.5870 C   0  0  0  0  0  3  0  0  0  0  0  0
   53.5290   98.4140   28.3610 C   0  0  0  0  0  3  0  0  0  0  0  0
   55.4600   97.2150   27.1770 N   0  0  0  0  0  0  0  0  0  0  0  0
   56.3020   97.7720   27.4570 H   0  0  0  0  0  0  0  0  0  0  0  0
   56.4830   95.5170   25.7820 O   0  0  0  0  0  0  0  0  0  0  0  0
  1  4  1  0  0  0  0
  1 19  1  0  0  0  0
  2  1  1  0  0  0  0
  3  2  2  0  0  0  0
  5  6  1  0  0  0  0
  5  2  1  0  0  0  0
  6  9  1  0  0  0  0
  7 10  1  0  0  0  0
  7  6  1  0  0  0  0
  8  7  2  0  0  0  0
 10 11  1  0  0  0  0
 11 12  2  0  0  0  0
 12 14  1  0  0  0  0
 13 16  1  0  0  0  0
 13 12  1  0  0  0  0
 15 13  2  0  0  0  0
 16 18  1  0  0  0  0
 17 15  1  0  0  0  0
 17 10  2  0  0  0  0
 18 14  1  0  0  0  0
 19 20  2  0  0  0  0
 20 22  1  0  0  0  0
 20 21  1  0  0  0  0
 21 23  2  0  0  0  0
 21 24  1  0  0  0  0
 22 29  1  0  0  0  0
 23 25  1  0  0  0  0
 24 28  2  0  0  0  0
 25 26  1  0  0  0  0
 25 27  2  0  0  0  0
 28 27  1  0  0  0  0
 29 30  1  0  0  0  0
 29 24  1  0  0  0  0
 31 22  2  0  0  0  0
M  END
>  <Pose>
1

>  <Score>
-10.103

$$$$
