/Users/jonathanwahrer/Desktop/Msc/3_Semester/Drug_Design_Praktikum/waehrer_HTS_screening/HTS_experiment/out/docking_results/vina_output/3npc/0558_docked.pdbqt
 OpenBabel03192219413D

 29 32  0  0  1  0  0  0  0  0999 V2000
   53.6240   80.4810   28.9010 Br  0  0  0  0  0  0  0  0  0  0  0  0
   52.6220   82.0540   28.5440 C   0  0  0  0  0  0  0  0  0  0  0  0
   51.5740   82.4710   29.3710 C   0  0  0  0  0  3  0  0  0  0  0  0
   50.8560   83.6070   29.1070 C   0  0  0  0  0  0  0  0  0  0  0  0
   51.1680   84.3540   28.0090 C   0  0  0  0  0  0  0  0  0  0  0  0
   52.2100   83.9780   27.1490 C   0  0  0  0  0  3  0  0  0  0  0  0
   52.9130   82.8340   27.4400 C   0  0  0  0  0  3  0  0  0  0  0  0
   50.3170   85.4830   27.9080 N   0  0  0  0  0  0  0  0  0  0  0  0
   49.4290   85.4390   28.9970 C   0  0  0  0  0  0  0  0  0  0  0  0
   48.5110   86.2530   29.2810 O   0  0  0  0  0  0  0  0  0  0  0  0
   49.7290   84.2430   29.8130 C   0  0  1  0  0  0  0  0  0  0  0  0
   48.5340   83.3380   29.8310 C   0  0  0  0  0  0  0  0  0  0  0  0
   47.9250   82.9080   30.9040 C   0  0  0  0  0  0  0  0  0  0  0  0
   48.4190   83.3200   32.1640 N   0  0  0  0  0  0  0  0  0  0  0  0
   49.5460   84.1770   32.2470 C   0  0  0  0  0  0  0  0  0  0  0  0
   50.1600   84.6090   31.1730 C   0  0  0  0  0  0  0  0  0  0  0  0
   51.3180   85.4920   31.3460 C   0  0  0  0  0  0  0  0  0  0  0  0
   52.2290   86.1940   31.4640 N   0  0  0  0  0  0  0  0  0  0  0  0
   46.7960   82.0400   30.4890 C   0  0  0  0  0  0  0  0  0  0  0  0
   46.8000   82.0010   29.0850 O   0  0  0  0  0  0  0  0  0  0  0  0
   47.8500   82.7850   28.6480 C   0  0  0  0  0  0  0  0  0  0  0  0
   48.1610   82.9830   27.4230 O   0  0  0  0  0  0  0  0  0  0  0  0
   45.4570   82.6590   30.8960 C   0  0  0  0  0  1  0  0  0  0  0  0
   46.9270   80.6470   31.0870 C   0  0  0  0  0  1  0  0  0  0  0  0
   50.3600   86.2210   27.1370 H   0  0  0  0  0  0  0  0  0  0  0  0
   47.9690   83.0050   33.0620 H   0  0  0  0  0  0  0  0  0  0  0  0
   50.0360   84.5860   33.5530 N   0  0  0  0  0  0  0  0  0  0  0  0
   50.6830   85.3790   33.6940 H   0  0  0  0  0  0  0  0  0  0  0  0
   49.7130   84.0510   34.3760 H   0  0  0  0  0  0  0  0  0  0  0  0
  2  1  1  0  0  0  0
  2  3  1  0  0  0  0
  4  3  2  0  0  0  0
  4 11  1  0  0  0  0
  5  4  1  0  0  0  0
  6  7  1  0  0  0  0
  6  5  2  0  0  0  0
  7  2  2  0  0  0  0
  8  5  1  0  0  0  0
  8  9  1  0  0  0  0
  9 10  2  0  0  0  0
 11  9  1  6  0  0  0
 11 12  1  0  0  0  0
 11 16  1  0  0  0  0
 12 13  2  0  0  0  0
 13 14  1  0  0  0  0
 14 15  1  0  0  0  0
 14 26  1  0  0  0  0
 15 27  1  0  0  0  0
 16 17  1  0  0  0  0
 16 15  2  0  0  0  0
 17 18  3  0  0  0  0
 19 23  1  0  0  0  0
 19 13  1  0  0  0  0
 19 24  1  0  0  0  0
 20 19  1  0  0  0  0
 21 20  1  0  0  0  0
 21 12  1  0  0  0  0
 22 21  2  0  0  0  0
 25  8  1  0  0  0  0
 27 28  1  0  0  0  0
 27 29  1  0  0  0  0
M  END
>  <Pose>
1

>  <Score>
-7.472

$$$$
