/Users/jonathanwahrer/Desktop/Msc/3_Semester/Drug_Design_Praktikum/waehrer_HTS_screening/HTS_experiment/out/docking_results/vina_output/3npc/0559_docked.pdbqt
 OpenBabel03192219423D

 32 35  0  0  1  0  0  0  0  0999 V2000
   44.2050   81.3230   31.4340 Br  0  0  0  0  0  0  0  0  0  0  0  0
   45.5290   81.4200   30.0480 C   0  0  0  0  0  0  0  0  0  0  0  0
   46.5450   82.3570   30.0760 C   0  0  0  0  0  3  0  0  0  0  0  0
   47.5010   82.4350   29.0840 C   0  0  0  0  0  0  0  0  0  0  0  0
   47.3900   81.5240   28.0540 C   0  0  0  0  0  0  0  0  0  0  0  0
   46.3690   80.5800   28.0210 C   0  0  0  0  0  3  0  0  0  0  0  0
   45.4390   80.5240   29.0130 C   0  0  0  0  0  3  0  0  0  0  0  0
   48.4550   81.7550   27.1180 N   0  0  0  0  0  0  0  0  0  0  0  0
   49.2470   82.8370   27.5750 C   0  0  0  0  0  0  0  0  0  0  0  0
   50.2480   83.2820   26.9660 O   0  0  0  0  0  0  0  0  0  0  0  0
   48.6760   83.3060   28.8550 C   0  0  1  0  0  0  0  0  0  0  0  0
   48.3260   84.6990   28.7860 N   0  0  0  0  0  0  0  0  0  0  0  0
   49.5840   85.3840   28.9970 C   0  0  2  0  0  3  0  0  0  0  0  0
   50.2300   84.6050   30.1120 C   0  0  2  0  0  3  0  0  0  0  0  0
   49.7110   83.2010   29.9180 C   0  0  1  0  0  3  0  0  0  0  0  0
   49.2240   82.7800   31.2400 C   0  0  0  0  0  0  0  0  0  0  0  0
   48.8200   81.6350   31.5640 O   0  0  0  0  0  0  0  0  0  0  0  0
   49.2720   83.8980   32.1560 N   0  0  0  0  0  0  0  0  0  0  0  0
   49.7710   85.0250   31.4540 C   0  0  0  0  0  0  0  0  0  0  0  0
   49.8050   86.1870   31.9240 O   0  0  0  0  0  0  0  0  0  0  0  0
   48.5830   81.1890   26.2510 H   0  0  0  0  0  0  0  0  0  0  0  0
   47.6940   84.9250   29.5710 H   0  0  0  0  0  0  0  0  0  0  0  0
   49.3440   86.8320   29.3310 C   0  0  0  0  0  2  0  0  0  0  0  0
   49.2080   87.6410   28.1090 C   0  0  0  0  0  0  0  0  0  0  0  0
   48.6250   88.7570   28.1830 O   0  0  0  0  0  0  0  0  0  0  0  0
   49.6910   87.2600   26.8310 N   0  0  0  0  0  0  0  0  0  0  0  0
   49.5530   86.3380   26.3930 H   0  0  0  0  0  0  0  0  0  0  0  0
   50.2350   87.9840   26.2930 H   0  0  0  0  0  0  0  0  0  0  0  0
   48.8870   83.8920   33.5450 C   0  0  0  0  0  0  0  0  0  0  0  0
   47.4640   83.4240   33.7330 C   0  0  0  0  0  1  0  0  0  0  0  0
   49.8370   82.9720   34.3170 C   0  0  0  0  0  1  0  0  0  0  0  0
   48.9830   85.2810   34.1370 C   0  0  0  0  0  1  0  0  0  0  0  0
  2  3  1  0  0  0  0
  2  1  1  0  0  0  0
  4  3  2  0  0  0  0
  5  4  1  0  0  0  0
  6  5  2  0  0  0  0
  6  7  1  0  0  0  0
  7  2  2  0  0  0  0
  8  9  1  0  0  0  0
  8  5  1  0  0  0  0
 10  9  2  0  0  0  0
 11  9  1  6  0  0  0
 11  4  1  0  0  0  0
 11 15  1  0  0  0  0
 12 11  1  0  0  0  0
 12 13  1  0  0  0  0
 12 22  1  0  0  0  0
 13 23  1  1  0  0  0
 13 14  1  0  0  0  0
 14 19  1  1  0  0  0
 15 14  1  0  0  0  0
 15 16  1  1  0  0  0
 16 17  2  0  0  0  0
 16 18  1  0  0  0  0
 18 29  1  0  0  0  0
 19 20  2  0  0  0  0
 19 18  1  0  0  0  0
 21  8  1  0  0  0  0
 24 25  2  0  0  0  0
 24 23  1  0  0  0  0
 26 24  1  0  0  0  0
 27 26  1  0  0  0  0
 28 26  1  0  0  0  0
 29 30  1  0  0  0  0
 29 32  1  0  0  0  0
 29 31  1  0  0  0  0
M  END
>  <Pose>
1

>  <Score>
-7.723

$$$$
