/Users/jonathanwahrer/Desktop/Msc/3_Semester/Drug_Design_Praktikum/waehrer_HTS_screening/HTS_experiment/out/docking_results/vina_output/3npc/0566_docked.pdbqt
 OpenBabel03192219423D

 30 33  0  0  1  0  0  0  0  0999 V2000
   57.5310   86.7980   23.6180 Br  0  0  0  0  0  0  0  0  0  0  0  0
   56.1240   87.2110   22.3970 C   0  0  0  0  0  0  0  0  0  0  0  0
   55.3540   86.2150   21.8510 C   0  0  0  0  0  3  0  0  0  0  0  0
   54.3140   86.5080   20.9500 C   0  0  0  0  0  0  0  0  0  0  0  0
   54.0340   87.7960   20.5870 C   0  0  0  0  0  0  0  0  0  0  0  0
   54.8210   88.8130   21.1460 C   0  0  0  0  0  3  0  0  0  0  0  0
   55.8330   88.5050   22.0250 C   0  0  0  0  0  3  0  0  0  0  0  0
   52.9480   87.8410   19.6730 N   0  0  0  0  0  0  0  0  0  0  0  0
   52.5270   86.5100   19.4530 C   0  0  0  0  0  0  0  0  0  0  0  0
   51.5600   86.2260   18.6710 O   0  0  0  0  0  0  0  0  0  0  0  0
   53.3650   85.6230   20.2410 C   0  0  2  0  0  0  0  0  0  0  0  0
   52.6180   84.7820   21.1570 N   0  0  0  0  0  0  0  0  0  0  0  0
   52.2950   83.5790   20.4130 C   0  0  1  0  0  3  0  0  0  0  0  0
   53.5730   83.3200   19.6690 C   0  0  2  0  0  3  0  0  0  0  0  0
   54.0970   84.6710   19.3190 C   0  0  1  0  0  3  0  0  0  0  0  0
   53.7640   84.8750   17.9010 C   0  0  0  0  0  0  0  0  0  0  0  0
   53.7510   85.9600   17.2310 O   0  0  0  0  0  0  0  0  0  0  0  0
   53.4280   83.6270   17.3080 N   0  0  0  0  0  0  0  0  0  0  0  0
   53.3470   82.6810   18.3540 C   0  0  0  0  0  0  0  0  0  0  0  0
   53.1140   81.4400   18.2290 O   0  0  0  0  0  0  0  0  0  0  0  0
   52.5680   88.7340   19.2660 H   0  0  0  0  0  0  0  0  0  0  0  0
   51.7820   85.2550   21.5460 H   0  0  0  0  0  0  0  0  0  0  0  0
   51.9330   82.4880   21.3710 C   0  0  1  0  0  3  0  0  0  0  0  0
   52.4630   82.8080   22.7470 C   0  0  0  0  0  1  0  0  0  0  0  0
   50.5370   82.4480   21.4650 O   0  0  0  0  0  0  0  0  0  0  0  0
   50.1480   81.8980   20.7370 H   0  0  0  0  0  0  0  0  0  0  0  0
   53.2080   83.3650   15.8990 C   0  0  0  0  0  2  0  0  0  0  0  0
   54.4850   83.3020   15.1240 C   0  0  0  0  0  2  0  0  0  0  0  0
   54.4850   81.9610   14.3800 C   0  0  0  0  0  2  0  0  0  0  0  0
   54.9970   80.8640   15.2730 C   0  0  0  0  0  1  0  0  0  0  0  0
  2  1  1  0  0  0  0
  3  2  2  0  0  0  0
  4  3  1  0  0  0  0
  5  4  2  0  0  0  0
  5  6  1  0  0  0  0
  6  7  2  0  0  0  0
  7  2  1  0  0  0  0
  8  5  1  0  0  0  0
  9  8  1  0  0  0  0
 10  9  2  0  0  0  0
 11  9  1  6  0  0  0
 11  4  1  0  0  0  0
 11 12  1  0  0  0  0
 12 22  1  0  0  0  0
 13 12  1  0  0  0  0
 13 23  1  1  0  0  0
 14 19  1  6  0  0  0
 14 13  1  0  0  0  0
 15 16  1  6  0  0  0
 15 14  1  0  0  0  0
 15 11  1  0  0  0  0
 17 16  2  0  0  0  0
 18 16  1  0  0  0  0
 18 19  1  0  0  0  0
 20 19  2  0  0  0  0
 21  8  1  0  0  0  0
 23 25  1  0  0  0  0
 23 24  1  1  0  0  0
 26 25  1  0  0  0  0
 27 18  1  0  0  0  0
 28 27  1  0  0  0  0
 29 28  1  0  0  0  0
 29 30  1  0  0  0  0
M  END
>  <Pose>
1

>  <Score>
-6.889

$$$$
