/Users/jonathanwahrer/Desktop/Msc/3_Semester/Drug_Design_Praktikum/waehrer_HTS_screening/HTS_experiment/out/docking_results/vina_output/3npc/0579_docked.pdbqt
 OpenBabel03192219423D

 32 35  0  0  1  0  0  0  0  0999 V2000
   55.7150   89.2210   23.1150 Br  0  0  0  0  0  0  0  0  0  0  0  0
   55.9450   87.5540   24.0130 C   0  0  0  0  0  0  0  0  0  0  0  0
   54.8870   86.7580   24.3930 C   0  0  0  0  0  3  0  0  0  0  0  0
   55.0620   85.5400   25.0490 C   0  0  0  0  0  0  0  0  0  0  0  0
   56.3330   85.1080   25.3320 C   0  0  0  0  0  0  0  0  0  0  0  0
   57.4180   85.8870   24.9610 C   0  0  0  0  0  3  0  0  0  0  0  0
   57.2140   87.1060   24.3040 C   0  0  0  0  0  3  0  0  0  0  0  0
   56.2860   83.8420   25.9970 N   0  0  0  0  0  0  0  0  0  0  0  0
   54.9270   83.4650   26.1360 C   0  0  0  0  0  0  0  0  0  0  0  0
   54.5640   82.3990   26.6700 O   0  0  0  0  0  0  0  0  0  0  0  0
   54.1040   84.5180   25.5610 C   0  0  2  0  0  0  0  0  0  0  0  0
   53.3490   83.9230   24.4590 N   0  0  0  0  0  0  0  0  0  0  0  0
   52.0520   84.5280   24.5080 C   0  0  2  0  0  3  0  0  0  0  0  0
   51.7820   84.6780   25.9600 C   0  0  2  0  0  3  0  0  0  0  0  0
   53.1150   85.1470   26.4960 C   0  0  1  0  0  3  0  0  0  0  0  0
   53.1480   84.6700   27.8720 C   0  0  0  0  0  0  0  0  0  0  0  0
   53.9100   85.0820   28.7730 O   0  0  0  0  0  0  0  0  0  0  0  0
   52.1610   83.6550   28.0040 N   0  0  0  0  0  0  0  0  0  0  0  0
   51.5820   83.4080   26.7000 C   0  0  0  0  0  0  0  0  0  0  0  0
   51.0610   82.3240   26.3930 O   0  0  0  0  0  0  0  0  0  0  0  0
   57.1390   83.3040   26.3180 H   0  0  0  0  0  0  0  0  0  0  0  0
   53.2290   82.8940   24.6140 H   0  0  0  0  0  0  0  0  0  0  0  0
   51.0130   83.7890   23.7360 C   0  0  0  0  0  2  0  0  0  0  0  0
   51.4460   83.6270   22.3440 C   0  0  0  0  0  0  0  0  0  0  0  0
   51.9910   82.5460   21.9810 O   0  0  0  0  0  0  0  0  0  0  0  0
   51.2620   84.6740   21.3940 N   0  0  0  0  0  0  0  0  0  0  0  0
   51.1210   84.4500   20.3870 H   0  0  0  0  0  0  0  0  0  0  0  0
   51.2680   85.6640   21.7140 H   0  0  0  0  0  0  0  0  0  0  0  0
   51.8230   83.0100   29.2400 C   0  0  0  0  0  2  0  0  0  0  0  0
   50.9610   83.8060   30.1620 C   0  0  0  0  0  2  0  0  0  0  0  0
   49.9060   84.4340   29.5220 O   0  0  0  0  0  0  0  0  0  0  0  0
   49.8780   85.8000   29.7940 C   0  0  0  0  0  1  0  0  0  0  0  0
  1  2  1  0  0  0  0
  2  7  2  0  0  0  0
  2  3  1  0  0  0  0
  3  4  2  0  0  0  0
  4  5  1  0  0  0  0
  5  8  1  0  0  0  0
  6  5  2  0  0  0  0
  7  6  1  0  0  0  0
  8  9  1  0  0  0  0
  8 21  1  0  0  0  0
  9 10  2  0  0  0  0
 11  4  1  6  0  0  0
 11  9  1  0  0  0  0
 11 15  1  0  0  0  0
 12 13  1  0  0  0  0
 12 22  1  0  0  0  0
 12 11  1  0  0  0  0
 13 23  1  1  0  0  0
 13 14  1  0  0  0  0
 14 15  1  0  0  0  0
 14 19  1  1  0  0  0
 15 16  1  1  0  0  0
 16 18  1  0  0  0  0
 16 17  2  0  0  0  0
 18 29  1  0  0  0  0
 19 18  1  0  0  0  0
 20 19  2  0  0  0  0
 24 23  1  0  0  0  0
 25 24  2  0  0  0  0
 26 28  1  0  0  0  0
 26 24  1  0  0  0  0
 27 26  1  0  0  0  0
 29 30  1  0  0  0  0
 31 32  1  0  0  0  0
 31 30  1  0  0  0  0
M  END
>  <Pose>
1

>  <Score>
-6.897

$$$$
