/Users/jonathanwahrer/Desktop/Msc/3_Semester/Drug_Design_Praktikum/waehrer_HTS_screening/HTS_experiment/out/docking_results/vina_output/3npc/0591_docked.pdbqt
 OpenBabel03192219433D

 23 26  0  0  0  0  0  0  0  0999 V2000
   53.8470   91.8640   17.0920 Br  0  0  0  0  0  0  0  0  0  0  0  0
   54.0110   90.4020   18.3250 C   0  0  0  0  0  0  0  0  0  0  0  0
   53.0750   89.3890   18.3350 C   0  0  0  0  0  3  0  0  0  0  0  0
   53.1980   88.3410   19.2230 C   0  0  0  0  0  0  0  0  0  0  0  0
   54.2360   88.2460   20.1300 C   0  0  0  0  0  0  0  0  0  0  0  0
   55.1710   89.2780   20.1070 C   0  0  0  0  0  3  0  0  0  0  0  0
   55.0560   90.3290   19.2210 C   0  0  0  0  0  3  0  0  0  0  0  0
   54.5060   87.2550   21.0940 N   0  0  0  0  0  0  0  0  0  0  0  0
   55.3830   87.4080   22.0730 N   0  0  0  0  0  0  0  0  0  0  0  0
   55.3880   86.2940   22.7880 N   0  0  0  0  0  0  0  0  0  0  0  0
   54.5270   85.4550   22.2630 N   0  0  0  0  0  0  0  0  0  0  0  0
   53.9450   86.0310   21.1820 C   0  0  0  0  0  0  0  0  0  0  0  0
   52.9390   85.3070   20.4030 C   0  0  0  0  0  0  0  0  0  0  0  0
   51.9650   86.0940   19.7290 N   0  0  0  0  0  0  0  0  0  0  0  0
   52.1220   87.3550   19.0990 C   0  0  0  0  0  0  0  0  0  0  0  0
   51.2300   87.7430   18.2970 O   0  0  0  0  0  0  0  0  0  0  0  0
   53.5890   84.4150   19.3340 C   0  0  0  0  0  2  0  0  0  0  0  0
   52.7450   83.1790   19.1570 C   0  0  0  0  0  2  0  0  0  0  0  0
   53.0260   82.2990   20.2690 N   0  0  0  0  0  0  0  0  0  0  0  0
   52.9550   83.0510   21.4930 C   0  0  0  0  0  2  0  0  0  0  0  0
   52.2120   84.3560   21.3460 C   0  0  0  0  0  2  0  0  0  0  0  0
   54.3580   81.7330   20.0580 C   0  0  0  0  0  1  0  0  0  0  0  0
   51.0080   85.6860   19.6950 H   0  0  0  0  0  0  0  0  0  0  0  0
  1  2  1  0  0  0  0
  2  3  2  0  0  0  0
  2  7  1  0  0  0  0
  3  4  1  0  0  0  0
  4  5  2  0  0  0  0
  5  8  1  0  0  0  0
  6  5  1  0  0  0  0
  7  6  2  0  0  0  0
  8 12  1  0  0  0  0
  8  9  1  0  0  0  0
  9 10  2  0  0  0  0
 11 10  1  0  0  0  0
 12 11  2  0  0  0  0
 13 12  1  0  0  0  0
 13 21  1  0  0  0  0
 14 13  1  0  0  0  0
 15  4  1  0  0  0  0
 15 14  1  0  0  0  0
 16 15  2  0  0  0  0
 17 13  1  0  0  0  0
 18 17  1  0  0  0  0
 18 19  1  0  0  0  0
 19 20  1  0  0  0  0
 21 20  1  0  0  0  0
 22 19  1  0  0  0  0
 23 14  1  0  0  0  0
M  END
>  <Pose>
1

>  <Score>
-8.998

$$$$
