/Users/jonathanwahrer/Desktop/Msc/3_Semester/Drug_Design_Praktikum/waehrer_HTS_screening/HTS_experiment/out/docking_results/vina_output/3npc/0592_docked.pdbqt
 OpenBabel03192219433D

 27 30  0  0  1  0  0  0  0  0999 V2000
   53.7540   81.0670   34.0490 Br  0  0  0  0  0  0  0  0  0  0  0  0
   53.3490   81.8850   32.3840 C   0  0  0  0  0  0  0  0  0  0  0  0
   52.3330   82.7980   32.3240 C   0  0  0  0  0  3  0  0  0  0  0  0
   52.0350   83.4000   31.0970 C   0  0  0  0  0  0  0  0  0  0  0  0
   52.7650   83.0590   30.0070 C   0  0  0  0  0  0  0  0  0  0  0  0
   53.8120   82.1170   30.0720 C   0  0  0  0  0  3  0  0  0  0  0  0
   54.1010   81.5280   31.2790 C   0  0  0  0  0  3  0  0  0  0  0  0
   52.5100   83.6260   28.7710 O   0  0  0  0  0  0  0  0  0  0  0  0
   51.4940   84.5510   28.6670 C   0  0  0  0  0  0  0  0  0  0  0  0
   50.7470   84.9300   29.6760 C   0  0  0  0  0  0  0  0  0  0  0  0
   50.9400   84.3890   31.0150 C   0  0  1  0  0  0  0  0  0  0  0  0
   49.6880   83.8610   31.6080 C   0  0  0  0  0  0  0  0  0  0  0  0
   49.3850   84.6040   32.7150 C   0  0  0  0  0  0  0  0  0  0  0  0
   48.2310   84.1150   33.2590 N   0  0  0  0  0  0  0  0  0  0  0  0
   47.8550   83.1050   32.4940 N   0  0  0  0  0  0  0  0  0  0  0  0
   48.7100   82.9150   31.4810 C   0  0  0  0  0  0  0  0  0  0  0  0
   48.5610   81.8500   30.4430 C   0  0  0  0  0  1  0  0  0  0  0  0
   50.3460   85.6150   32.9290 N   0  0  0  0  0  0  0  0  0  0  0  0
   51.3050   85.5080   31.9100 C   0  0  0  0  0  0  0  0  0  0  0  0
   52.3260   86.2290   31.7480 O   0  0  0  0  0  0  0  0  0  0  0  0
   49.7000   85.9050   29.4880 C   0  0  0  0  0  0  0  0  0  0  0  0
   48.8710   86.7010   29.3460 N   0  0  0  0  0  0  0  0  0  0  0  0
   46.9820   82.5520   32.7030 H   0  0  0  0  0  0  0  0  0  0  0  0
   50.3250   86.3250   33.7350 H   0  0  0  0  0  0  0  0  0  0  0  0
   51.2410   85.1310   27.3760 N   0  0  0  0  0  0  0  0  0  0  0  0
   50.6490   84.6170   26.6890 H   0  0  0  0  0  0  0  0  0  0  0  0
   51.6310   86.0580   27.0940 H   0  0  0  0  0  0  0  0  0  0  0  0
  2  1  1  0  0  0  0
  3  2  1  0  0  0  0
  4  3  2  0  0  0  0
  5  6  2  0  0  0  0
  5  4  1  0  0  0  0
  6  7  1  0  0  0  0
  7  2  2  0  0  0  0
  8  5  1  0  0  0  0
  9  8  1  0  0  0  0
  9 10  2  0  0  0  0
 11 10  1  6  0  0  0
 11  4  1  0  0  0  0
 11 12  1  0  0  0  0
 11 19  1  0  0  0  0
 12 13  1  0  0  0  0
 13 18  1  0  0  0  0
 13 14  2  0  0  0  0
 15 23  1  0  0  0  0
 15 14  1  0  0  0  0
 16 12  2  0  0  0  0
 16 15  1  0  0  0  0
 17 16  1  0  0  0  0
 18 24  1  0  0  0  0
 19 18  1  0  0  0  0
 20 19  2  0  0  0  0
 21 10  1  0  0  0  0
 22 21  3  0  0  0  0
 25  9  1  0  0  0  0
 26 25  1  0  0  0  0
 27 25  1  0  0  0  0
M  END
>  <Pose>
1

>  <Score>
-7.253

$$$$
