/Users/jonathanwahrer/Desktop/Msc/3_Semester/Drug_Design_Praktikum/waehrer_HTS_screening/HTS_experiment/out/docking_results/vina_output/3npc/0610_docked.pdbqt
 OpenBabel03192219433D

 32 35  0  0  0  0  0  0  0  0999 V2000
   54.8460   91.0750   20.1090 Br  0  0  0  0  0  0  0  0  0  0  0  0
   54.2130   89.2780   20.0030 C   0  0  0  0  0  0  0  0  0  0  0  0
   54.7210   88.2950   20.8470 C   0  0  0  0  0  3  0  0  0  0  0  0
   54.2610   86.9880   20.7720 C   0  0  0  0  0  0  0  0  0  0  0  0
   53.2900   86.6510   19.8540 C   0  0  0  0  0  0  0  0  0  0  0  0
   52.8350   85.3750   19.7810 N   0  0  0  0  0  0  0  0  0  0  0  0
   53.3080   84.4080   20.5880 C   0  0  0  0  0  0  0  0  0  0  0  0
   54.2510   84.7530   21.4730 N   0  0  0  0  0  0  0  0  0  0  0  0
   54.7470   85.9970   21.6000 C   0  0  0  0  0  0  0  0  0  0  0  0
   52.7990   87.6490   19.0220 C   0  0  0  0  0  3  0  0  0  0  0  0
   53.2410   88.9530   19.0800 C   0  0  0  0  0  3  0  0  0  0  0  0
   52.8020   83.0710   20.4840 N   0  0  0  0  0  4  0  0  0  0  0  0
   53.8860   82.1280   20.5360 C   0  0  0  0  0  2  0  0  0  0  0  0
   54.6900   82.0440   19.2820 C   0  0  0  0  0  2  0  0  0  0  0  0
   54.0410   82.6890   18.1630 N   0  0  0  0  0  0  0  0  0  0  0  0
   52.6030   82.5560   18.0790 C   0  0  0  0  0  2  0  0  0  0  0  0
   54.8370   83.3990   17.2320 C   0  0  0  0  0  0  0  0  0  0  0  0
   51.9220   82.8840   19.3720 C   0  0  0  0  0  2  0  0  0  0  0  0
   56.0780   83.4720   17.3710 O   0  0  0  0  0  0  0  0  0  0  0  0
   52.2550   82.9270   21.3850 H   0  0  0  0  0  0  0  0  0  0  0  0
   54.1180   84.0440   16.0960 C   0  0  0  0  0  2  0  0  0  0  0  0
   54.5430   83.4700   14.7780 C   0  0  0  0  0  2  0  0  0  0  0  0
   53.6970   82.3540   14.3290 C   0  0  0  0  0  0  0  0  0  0  0  0
   54.1910   81.3140   13.8460 O   0  0  0  0  0  0  0  0  0  0  0  0
   52.3260   82.4560   14.4430 O   0  0  0  0  0  1  0  0  0  0  0  0
   55.7710   86.2680   22.5960 C   0  0  0  0  0  0  0  0  0  0  0  0
   55.4710   86.1970   23.9490 C   0  0  0  0  0  0  0  0  0  0  0  0
   56.4180   86.4330   24.9220 C   0  0  0  0  0  3  0  0  0  0  0  0
   53.8150   85.7920   24.4090 Cl  0  0  0  0  0  0  0  0  0  0  0  0
   57.7180   86.7520   24.5870 C   0  0  0  0  0  3  0  0  0  0  0  0
   58.0170   86.8220   23.2320 C   0  0  0  0  0  3  0  0  0  0  0  0
   57.0640   86.5850   22.2660 C   0  0  0  0  0  3  0  0  0  0  0  0
  2  1  1  0  0  0  0
  2  3  1  0  0  0  0
  4  3  2  0  0  0  0
  4  9  1  0  0  0  0
  5  4  1  0  0  0  0
  6  5  1  0  0  0  0
  6  7  2  0  0  0  0
  7  8  1  0  0  0  0
  8  9  2  0  0  0  0
  9 26  1  0  0  0  0
 10 11  1  0  0  0  0
 10  5  2  0  0  0  0
 11  2  2  0  0  0  0
 12 13  1  0  0  0  0
 12  7  1  0  0  0  0
 12 20  1  0  0  0  0
 14 13  1  0  0  0  0
 15 14  1  0  0  0  0
 16 15  1  0  0  0  0
 16 18  1  0  0  0  0
 17 19  2  0  0  0  0
 17 15  1  0  0  0  0
 18 12  1  0  0  0  0
 21 17  1  0  0  0  0
 22 21  1  0  0  0  0
 23 25  1  0  0  0  0
 23 22  1  0  0  0  0
 24 23  2  0  0  0  0
 26 27  1  0  0  0  0
 27 29  1  0  0  0  0
 27 28  2  0  0  0  0
 30 28  1  0  0  0  0
 31 30  2  0  0  0  0
 32 26  2  0  0  0  0
 32 31  1  0  0  0  0
M  END
>  <Pose>
1

>  <Score>
-8.932

$$$$
