/Users/jonathanwahrer/Desktop/Msc/3_Semester/Drug_Design_Praktikum/waehrer_HTS_screening/HTS_experiment/out/docking_results/vina_output/3npc/0611_docked.pdbqt
 OpenBabel03192219443D

 33 36  0  0  0  0  0  0  0  0999 V2000
   50.3900   80.0710   24.4160 Br  0  0  0  0  0  0  0  0  0  0  0  0
   51.4850   81.5910   24.0320 C   0  0  0  0  0  0  0  0  0  0  0  0
   51.8590   82.4920   25.0120 C   0  0  0  0  0  3  0  0  0  0  0  0
   52.6470   83.5960   24.7670 C   0  0  0  0  0  0  0  0  0  0  0  0
   53.1030   83.8410   23.4850 C   0  0  0  0  0  0  0  0  0  0  0  0
   53.8730   84.9260   23.2210 N   0  0  0  0  0  0  0  0  0  0  0  0
   54.2300   85.8050   24.1720 C   0  0  0  0  0  0  0  0  0  0  0  0
   53.7880   85.5670   25.4210 N   0  0  0  0  0  0  0  0  0  0  0  0
   53.0170   84.5000   25.7360 C   0  0  0  0  0  0  0  0  0  0  0  0
   52.7370   82.9480   22.5020 C   0  0  0  0  0  3  0  0  0  0  0  0
   51.9410   81.8370   22.7550 C   0  0  0  0  0  3  0  0  0  0  0  0
   55.0400   86.9320   23.8580 N   0  0  0  0  0  4  0  0  0  0  0  0
   56.3130   86.5190   23.3100 C   0  0  0  0  0  2  0  0  0  0  0  0
   56.9210   87.6830   22.5930 C   0  0  0  0  0  2  0  0  0  0  0  0
   56.2270   88.8890   22.9970 N   0  0  0  0  0  0  0  0  0  0  0  0
   55.9520   89.0560   24.4120 C   0  0  0  0  0  2  0  0  0  0  0  0
   55.8600   89.8250   22.0150 C   0  0  0  0  0  0  0  0  0  0  0  0
   55.3050   87.7890   24.9850 C   0  0  0  0  0  2  0  0  0  0  0  0
   55.2560   90.8610   22.3890 O   0  0  0  0  0  0  0  0  0  0  0  0
   54.5230   87.4920   23.1490 H   0  0  0  0  0  0  0  0  0  0  0  0
   56.1540   89.6320   20.5940 C   0  0  0  0  0  2  0  0  0  0  0  0
   55.4170   90.6530   19.7770 C   0  0  0  0  0  2  0  0  0  0  0  0
   54.1230   90.1180   19.2050 C   0  0  0  0  0  2  0  0  0  0  0  0
   52.9380   90.8860   19.6340 C   0  0  0  0  0  0  0  0  0  0  0  0
   53.1380   91.9910   20.1920 O   0  0  0  0  0  1  0  0  0  0  0  0
   51.6650   90.3820   19.4140 O   0  0  0  0  0  0  0  0  0  0  0  0
   52.5650   84.2920   27.1030 C   0  0  0  0  0  0  0  0  0  0  0  0
   53.2840   83.5210   28.0030 C   0  0  0  0  0  0  0  0  0  0  0  0
   52.8550   83.3000   29.3000 C   0  0  0  0  0  3  0  0  0  0  0  0
   54.7970   82.7920   27.4890 Cl  0  0  0  0  0  0  0  0  0  0  0  0
   51.6470   83.8910   29.6890 C   0  0  0  0  0  3  0  0  0  0  0  0
   50.9070   84.6630   28.8190 C   0  0  0  0  0  3  0  0  0  0  0  0
   51.3670   84.8520   27.5540 C   0  0  0  0  0  3  0  0  0  0  0  0
  2  1  1  0  0  0  0
  2  3  1  0  0  0  0
  4  3  2  0  0  0  0
  4  9  1  0  0  0  0
  5  4  1  0  0  0  0
  6  5  1  0  0  0  0
  6  7  2  0  0  0  0
  7  8  1  0  0  0  0
  8  9  2  0  0  0  0
  9 27  1  0  0  0  0
 10 11  1  0  0  0  0
 10  5  2  0  0  0  0
 11  2  2  0  0  0  0
 12  7  1  0  0  0  0
 12 18  1  0  0  0  0
 13 12  1  0  0  0  0
 14 15  1  0  0  0  0
 14 13  1  0  0  0  0
 15 16  1  0  0  0  0
 16 18  1  0  0  0  0
 17 19  2  0  0  0  0
 17 15  1  0  0  0  0
 20 12  1  0  0  0  0
 21 17  1  0  0  0  0
 22 21  1  0  0  0  0
 23 24  1  0  0  0  0
 23 22  1  0  0  0  0
 24 25  1  0  0  0  0
 26 24  2  0  0  0  0
 27 33  2  0  0  0  0
 27 28  1  0  0  0  0
 28 29  2  0  0  0  0
 29 31  1  0  0  0  0
 30 28  1  0  0  0  0
 32 31  2  0  0  0  0
 33 32  1  0  0  0  0
M  END
>  <Pose>
1

>  <Score>
-8.222

$$$$
