/Users/jonathanwahrer/Desktop/Msc/3_Semester/Drug_Design_Praktikum/waehrer_HTS_screening/HTS_experiment/out/docking_results/vina_output/3npc/0626_docked.pdbqt
 OpenBabel03192219453D

 32 35  0  0  0  0  0  0  0  0999 V2000
   52.9920   85.5640   24.6330 N   0  0  0  0  0  0  0  0  0  0  0  0
   54.3820   85.4450   24.7610 C   0  0  0  0  0  0  0  0  0  0  0  0
   54.9190   84.3090   24.7930 O   0  0  0  0  0  0  0  0  0  0  0  0
   52.6310   86.5660   24.5970 H   0  0  0  0  0  0  0  0  0  0  0  0
   55.2950   86.5880   24.8650 C   0  0  0  0  0  2  0  0  0  0  0  0
   55.5010   87.3810   23.7190 N   0  0  0  0  0  0  0  0  0  0  0  0
   55.9630   88.7100   23.8950 C   0  0  0  0  0  2  0  0  0  0  0  0
   55.7010   89.5800   22.6660 C   0  0  0  0  0  2  0  0  0  0  0  0
   56.2570   88.9370   21.5530 N   0  0  0  0  0  0  0  0  0  0  0  0
   56.7820   87.6380   21.7110 C   0  0  0  0  0  2  0  0  0  0  0  0
   55.9960   86.6960   22.5730 C   0  0  0  0  0  2  0  0  0  0  0  0
   55.8470   89.3840   20.3000 C   0  0  0  0  0  2  0  0  0  0  0  0
   54.4140   89.5030   20.0290 C   0  0  0  0  0  0  0  0  0  0  0  0
   53.7530   88.3950   20.0830 O   0  0  0  0  0  0  0  0  0  0  0  0
   53.6890   90.6510   19.7280 N   0  0  0  0  0  0  0  0  0  0  0  0
   54.1630   91.5760   19.6800 H   0  0  0  0  0  0  0  0  0  0  0  0
   52.2510   90.6470   19.4770 C   0  0  0  0  0  3  0  0  0  0  0  0
   51.6050   91.7630   18.7680 C   0  0  0  0  0  2  0  0  0  0  0  0
   51.7890   90.4400   18.0500 C   0  0  0  0  0  2  0  0  0  0  0  0
   52.0450   84.5210   24.5300 C   0  0  0  0  0  0  0  0  0  0  0  0
   51.5780   83.9190   25.6880 C   0  0  0  0  0  0  0  0  0  0  0  0
   52.2870   84.5410   27.3580 Br  0  0  0  0  0  0  0  0  0  0  0  0
   50.6480   82.9050   25.6980 C   0  0  0  0  0  3  0  0  0  0  0  0
   50.1240   82.4270   24.5210 C   0  0  0  0  0  0  0  0  0  0  0  0
   49.2300   81.4830   24.1740 N   0  0  0  0  0  0  0  0  0  0  0  0
   50.5710   83.0060   23.3680 C   0  0  0  0  0  0  0  0  0  0  0  0
   49.0910   81.4380   22.8350 C   0  0  0  0  0  0  0  0  0  0  0  0
   49.9240   82.3820   22.3630 N   0  0  0  0  0  0  0  0  0  0  0  0
   50.0610   82.6140   21.3400 H   0  0  0  0  0  0  0  0  0  0  0  0
   51.5190   84.0400   23.3520 C   0  0  0  0  0  3  0  0  0  0  0  0
   48.2470   80.5790   22.1040 O   0  0  0  0  0  0  0  0  0  0  0  0
   47.2410   80.6990   22.2840 H   0  0  0  0  0  0  0  0  0  0  0  0
  1  2  1  0  0  0  0
  2  3  2  0  0  0  0
  2  5  1  0  0  0  0
  4  1  1  0  0  0  0
  6  7  1  0  0  0  0
  6  5  1  0  0  0  0
  8  7  1  0  0  0  0
  9 10  1  0  0  0  0
  9  8  1  0  0  0  0
 10 11  1  0  0  0  0
 11  6  1  0  0  0  0
 12  9  1  0  0  0  0
 13 14  2  0  0  0  0
 13 12  1  0  0  0  0
 15 13  1  0  0  0  0
 16 15  1  0  0  0  0
 17 15  1  0  0  0  0
 18 17  1  0  0  0  0
 19 18  1  0  0  0  0
 19 17  1  0  0  0  0
 20  1  1  0  0  0  0
 20 21  1  0  0  0  0
 21 23  2  0  0  0  0
 21 22  1  0  0  0  0
 24 23  1  0  0  0  0
 25 24  1  0  0  0  0
 26 24  2  0  0  0  0
 27 25  2  0  0  0  0
 28 27  1  0  0  0  0
 28 26  1  0  0  0  0
 29 28  1  0  0  0  0
 30 26  1  0  0  0  0
 30 20  2  0  0  0  0
 31 32  1  0  0  0  0
 31 27  1  0  0  0  0
M  END
>  <Pose>
1

>  <Score>
-8.141

$$$$
