/Users/jonathanwahrer/Desktop/Msc/3_Semester/Drug_Design_Praktikum/waehrer_HTS_screening/HTS_experiment/out/docking_results/vina_output/3npc/0631_docked.pdbqt
 OpenBabel03192219453D

 29 32  0  0  1  0  0  0  0  0999 V2000
   49.6940   99.3680   28.7890 N   0  0  0  0  0  0  0  0  0  0  0  0
   51.1470   99.4190   28.5170 C   0  0  0  0  0  2  0  0  0  0  0  0
   51.3430   98.3010   27.5050 C   0  0  2  0  0  3  0  0  0  0  0  0
   50.3040   97.2840   27.9250 C   0  0  0  0  0  2  0  0  0  0  0  0
   49.3280   97.9910   28.7940 C   0  0  0  0  0  0  0  0  0  0  0  0
   48.3760   97.4970   29.4140 O   0  0  0  0  0  0  0  0  0  0  0  0
   52.7360   97.8580   27.6750 C   0  0  0  0  0  0  0  0  0  0  0  0
   53.5630   98.5470   28.3160 O   0  0  0  0  0  0  0  0  0  0  0  0
   53.1210   96.6210   27.0910 N   0  0  0  0  0  0  0  0  0  0  0  0
   52.4050   96.0860   26.5610 H   0  0  0  0  0  0  0  0  0  0  0  0
   54.4670   96.1070   27.2170 C   0  0  0  0  0  2  0  0  0  0  0  0
   55.1710   95.9830   25.8820 C   0  0  0  0  0  2  0  0  0  0  0  0
   56.2660   96.9670   25.7740 C   0  0  0  0  0  0  0  0  0  0  0  0
   57.1900   96.9520   24.8000 N   0  0  0  0  0  0  0  0  0  0  0  0
   58.0430   97.9640   24.9620 C   0  0  0  0  0  3  0  0  0  0  0  0
   57.6600   98.6510   26.0720 N   0  0  0  0  0  0  0  0  0  0  0  0
   56.5770   98.0350   26.5570 C   0  0  0  0  0  3  0  0  0  0  0  0
   58.1750   99.4940   26.4150 H   0  0  0  0  0  0  0  0  0  0  0  0
   48.9360  100.5410   28.9640 C   0  0  0  0  0  0  0  0  0  0  0  0
   47.8710  100.9980   28.2890 N   0  0  0  0  0  0  0  0  0  0  0  0
   47.4490  102.1560   28.7880 N   0  0  0  0  0  0  0  0  0  0  0  0
   47.4110  100.5370   27.4800 H   0  0  0  0  0  0  0  0  0  0  0  0
   48.2280  102.5120   29.8250 C   0  0  0  0  0  0  0  0  0  0  0  0
   48.2200  103.5970   30.6700 C   0  0  0  0  0  3  0  0  0  0  0  0
   49.1610  101.5190   29.9520 C   0  0  0  0  0  0  0  0  0  0  0  0
   49.1970  103.6470   31.6620 C   0  0  0  0  0  0  0  0  0  0  0  0
   49.2750  105.1110   32.8940 Br  0  0  0  0  0  0  0  0  0  0  0  0
   50.1350  102.6310   31.7770 C   0  0  0  0  0  3  0  0  0  0  0  0
   50.1240  101.5580   30.9210 C   0  0  0  0  0  3  0  0  0  0  0  0
  1  5  1  0  0  0  0
  1 19  1  0  0  0  0
  2  1  1  0  0  0  0
  3  7  1  1  0  0  0
  3  4  1  0  0  0  0
  3  2  1  0  0  0  0
  4  5  1  0  0  0  0
  5  6  2  0  0  0  0
  7  8  2  0  0  0  0
  9 11  1  0  0  0  0
  9  7  1  0  0  0  0
 10  9  1  0  0  0  0
 12 11  1  0  0  0  0
 13 12  1  0  0  0  0
 13 17  2  0  0  0  0
 14 15  2  0  0  0  0
 14 13  1  0  0  0  0
 15 16  1  0  0  0  0
 16 18  1  0  0  0  0
 16 17  1  0  0  0  0
 19 25  2  0  0  0  0
 20 21  1  0  0  0  0
 20 19  1  0  0  0  0
 21 23  2  0  0  0  0
 22 20  1  0  0  0  0
 23 25  1  0  0  0  0
 23 24  1  0  0  0  0
 24 26  2  0  0  0  0
 25 29  1  0  0  0  0
 26 28  1  0  0  0  0
 26 27  1  0  0  0  0
 29 28  2  0  0  0  0
M  END
>  <Pose>
1

>  <Score>
-9.559

$$$$
