/Users/jonathanwahrer/Desktop/Msc/3_Semester/Drug_Design_Praktikum/waehrer_HTS_screening/HTS_experiment/out/docking_results/vina_output/3npc/0662_docked.pdbqt
 OpenBabel03192219463D

 25 29  0  0  0  0  0  0  0  0999 V2000
   53.0800   97.6210   27.2380 C   0  0  0  0  0  0  0  0  0  0  0  0
   52.8250   96.3120   27.0880 N   0  0  0  0  0  0  0  0  0  0  0  0
   53.8390   95.7150   26.4620 N   0  0  0  0  0  0  0  0  0  0  0  0
   54.7770   96.6710   26.2020 C   0  0  0  0  0  0  0  0  0  0  0  0
   54.2870   97.8280   26.6870 N   0  0  0  0  0  0  0  0  0  0  0  0
   55.9340   96.2940   25.5540 C   0  0  0  0  0  0  0  0  0  0  0  0
   56.1770   94.9900   25.1590 C   0  0  0  0  0  0  0  0  0  0  0  0
   57.3760   94.9290   24.5560 N   0  0  0  0  0  0  0  0  0  0  0  0
   57.8810   96.1520   24.5660 N   0  0  0  0  0  0  0  0  0  0  0  0
   57.0320   97.0130   25.1650 C   0  0  0  0  0  3  0  0  0  0  0  0
   55.2260   94.0840   25.4360 N   0  0  0  0  0  0  0  0  0  0  0  0
   54.1010   94.4550   26.0690 C   0  0  0  0  0  3  0  0  0  0  0  0
   57.8460   94.0920   24.1490 H   0  0  0  0  0  0  0  0  0  0  0  0
   52.2070   98.6060   27.8760 C   0  0  0  0  0  0  0  0  0  0  0  0
   51.6630   99.7090   27.3340 N   0  0  0  0  0  0  0  0  0  0  0  0
   50.9270  100.3600   28.2170 N   0  0  0  0  0  0  0  0  0  0  0  0
   50.9600   99.6990   29.3870 C   0  0  0  0  0  3  0  0  0  0  0  0
   51.7690   98.5850   29.1830 C   0  0  0  0  0  3  0  0  0  0  0  0
   50.1940  101.6020   27.9580 C   0  0  0  0  0  2  0  0  0  0  0  0
   49.1130  101.7860   28.9050 N   0  0  0  0  0  0  0  0  0  0  0  0
   49.1680  102.4980   30.0430 C   0  0  0  0  0  3  0  0  0  0  0  0
   47.9340  102.4240   30.6570 C   0  0  0  0  0  0  0  0  0  0  0  0
   47.4350  103.2360   32.2910 Br  0  0  0  0  0  0  0  0  0  0  0  0
   47.1410  101.6430   29.8460 C   0  0  0  0  0  3  0  0  0  0  0  0
   47.9000  101.2770   28.7880 N   0  0  0  0  0  0  0  0  0  0  0  0
  1 14  1  0  0  0  0
  2  1  2  0  0  0  0
  3  2  1  0  0  0  0
  4  3  1  0  0  0  0
  4  5  2  0  0  0  0
  5  1  1  0  0  0  0
  6  4  1  0  0  0  0
  7 11  1  0  0  0  0
  7  6  2  0  0  0  0
  8  9  1  0  0  0  0
  8  7  1  0  0  0  0
  9 10  2  0  0  0  0
 10  6  1  0  0  0  0
 11 12  2  0  0  0  0
 12  3  1  0  0  0  0
 13  8  1  0  0  0  0
 14 18  1  0  0  0  0
 15 14  2  0  0  0  0
 15 16  1  0  0  0  0
 16 17  1  0  0  0  0
 18 17  2  0  0  0  0
 19 16  1  0  0  0  0
 19 20  1  0  0  0  0
 20 21  1  0  0  0  0
 21 22  2  0  0  0  0
 22 23  1  0  0  0  0
 24 22  1  0  0  0  0
 25 20  1  0  0  0  0
 25 24  2  0  0  0  0
M  END
>  <Pose>
1

>  <Score>
-8.728

$$$$
