/Users/jonathanwahrer/Desktop/Msc/3_Semester/Drug_Design_Praktikum/waehrer_HTS_screening/HTS_experiment/out/docking_results/vina_output/3npc/0663_docked.pdbqt
 OpenBabel03192219463D

 28 31  0  0  1  0  0  0  0  0999 V2000
   56.5260   87.0170   22.5080 C   0  0  0  0  0  0  0  0  0  0  0  0
   57.1650   86.0380   21.9500 O   0  0  0  0  0  0  0  0  0  0  0  0
   56.5060   87.0090   23.8920 N   0  0  0  0  0  0  0  0  0  0  0  0
   55.9550   87.9380   24.8420 C   0  0  0  0  0  2  0  0  0  0  0  0
   54.6320   87.3640   25.3110 C   0  0  0  0  0  2  0  0  0  0  0  0
   54.7290   85.8580   25.4480 C   0  0  1  0  0  0  0  0  0  0  0  0
   53.9780   85.4870   26.6270 N   0  0  0  0  0  0  0  0  0  0  0  0
   52.6160   85.3470   26.2500 C   0  0  0  0  0  0  0  0  0  0  0  0
   51.5860   85.3790   27.0000 O   0  0  0  0  0  0  0  0  0  0  0  0
   52.6020   85.1570   24.8260 N   0  0  0  0  0  0  0  0  0  0  0  0
   53.9730   85.1870   24.3750 C   0  0  0  0  0  0  0  0  0  0  0  0
   54.3650   84.7190   23.2840 O   0  0  0  0  0  0  0  0  0  0  0  0
   56.1310   85.3630   25.6050 C   0  0  0  0  0  2  0  0  0  0  0  0
   57.1070   85.8210   24.5750 C   0  0  0  0  0  2  0  0  0  0  0  0
   54.3270   85.3390   27.5940 H   0  0  0  0  0  0  0  0  0  0  0  0
   51.7870   85.0180   24.1900 H   0  0  0  0  0  0  0  0  0  0  0  0
   55.9420   87.9540   21.5750 C   0  0  0  0  0  0  0  0  0  0  0  0
   54.6640   87.6900   21.0420 C   0  0  0  0  0  3  0  0  0  0  0  0
   54.0280   88.5470   20.1830 C   0  0  0  0  0  3  0  0  0  0  0  0
   54.5990   89.7300   19.7830 C   0  0  0  0  0  0  0  0  0  0  0  0
   55.8400   90.0120   20.2860 C   0  0  0  0  0  3  0  0  0  0  0  0
   56.5020   89.1420   21.1680 C   0  0  0  0  0  3  0  0  0  0  0  0
   53.9160   90.6000   18.8920 N   0  0  0  0  0  0  0  0  0  0  0  0
   52.6260   90.9800   18.9140 C   0  0  0  0  0  3  0  0  0  0  0  0
   52.3840   91.8340   17.8600 C   0  0  0  0  0  0  0  0  0  0  0  0
   50.7170   92.6840   17.4050 Br  0  0  0  0  0  0  0  0  0  0  0  0
   53.5870   91.9520   17.2000 C   0  0  0  0  0  3  0  0  0  0  0  0
   54.4660   91.1960   17.8550 N   0  0  0  0  0  0  0  0  0  0  0  0
  1  3  1  0  0  0  0
  2  1  2  0  0  0  0
  3 14  1  0  0  0  0
  3  4  1  0  0  0  0
  4  5  1  0  0  0  0
  6  5  1  6  0  0  0
  6 13  1  0  0  0  0
  6  7  1  0  0  0  0
  7 15  1  0  0  0  0
  8  7  1  0  0  0  0
  8  9  2  0  0  0  0
 10  8  1  0  0  0  0
 11 10  1  0  0  0  0
 11  6  1  0  0  0  0
 12 11  2  0  0  0  0
 14 13  1  0  0  0  0
 16 10  1  0  0  0  0
 17  1  1  0  0  0  0
 18 17  2  0  0  0  0
 19 18  1  0  0  0  0
 20 19  2  0  0  0  0
 20 21  1  0  0  0  0
 21 22  2  0  0  0  0
 22 17  1  0  0  0  0
 23 24  1  0  0  0  0
 23 20  1  0  0  0  0
 25 24  2  0  0  0  0
 26 25  1  0  0  0  0
 27 28  2  0  0  0  0
 27 25  1  0  0  0  0
 28 23  1  0  0  0  0
M  END
>  <Pose>
1

>  <Score>
-8.790

$$$$
