/Users/jonathanwahrer/Desktop/Msc/3_Semester/Drug_Design_Praktikum/waehrer_HTS_screening/HTS_experiment/out/docking_results/vina_output/3npc/0666_docked.pdbqt
 OpenBabel03192219463D

 28 31  0  0  0  0  0  0  0  0999 V2000
   54.0640   87.0040   20.8470 C   0  0  0  0  0  0  0  0  0  0  0  0
   55.1030   87.6110   21.3400 C   0  0  0  0  0  0  0  0  0  0  0  0
   55.2620   88.8510   20.5780 C   0  0  0  0  0  0  0  0  0  0  0  0
   56.1850   89.6980   20.7890 O   0  0  0  0  0  0  0  0  0  0  0  0
   54.2440   88.9740   19.5750 N   0  0  0  0  0  0  0  0  0  0  0  0
   53.4660   87.7890   19.7410 C   0  0  0  0  0  0  0  0  0  0  0  0
   52.4520   87.4690   19.0660 O   0  0  0  0  0  0  0  0  0  0  0  0
   53.4910   85.7680   21.2310 N   0  0  0  0  0  0  0  0  0  0  0  0
   53.1080   85.6390   22.1680 H   0  0  0  0  0  0  0  0  0  0  0  0
   53.4660   84.7210   20.2820 C   0  0  0  0  0  0  0  0  0  0  0  0
   54.5990   84.3090   19.6510 N   0  0  0  0  0  0  0  0  0  0  0  0
   54.6260   83.3350   18.7350 C   0  0  0  0  0  3  0  0  0  0  0  0
   53.4810   82.6780   18.3700 C   0  0  0  0  0  0  0  0  0  0  0  0
   53.4820   81.2880   17.0570 Br  0  0  0  0  0  0  0  0  0  0  0  0
   52.2970   83.0420   18.9700 C   0  0  0  0  0  3  0  0  0  0  0  0
   52.3020   84.0410   19.9040 C   0  0  0  0  0  3  0  0  0  0  0  0
   55.9500   87.2000   22.4150 N   0  0  0  0  0  0  0  0  0  0  0  0
   55.5650   87.4040   23.6880 C   0  0  0  0  0  2  0  0  0  0  0  0
   56.3780   87.0200   24.7690 C   0  0  0  0  0  3  0  0  0  0  0  0
   57.6010   86.4210   24.5310 C   0  0  0  0  0  3  0  0  0  0  0  0
   57.9730   86.2230   23.2190 C   0  0  0  0  0  3  0  0  0  0  0  0
   57.1510   86.6120   22.1940 C   0  0  0  0  0  3  0  0  0  0  0  0
   54.0720   90.0260   18.6390 C   0  0  0  0  0  0  0  0  0  0  0  0
   53.5700   91.2580   18.9720 C   0  0  0  0  0  3  0  0  0  0  0  0
   53.4290   92.2880   18.0180 C   0  0  0  0  0  3  0  0  0  0  0  0
   53.7970   92.0790   16.7090 C   0  0  0  0  0  3  0  0  0  0  0  0
   54.2990   90.8490   16.3700 C   0  0  0  0  0  3  0  0  0  0  0  0
   54.4320   89.8420   17.3280 C   0  0  0  0  0  3  0  0  0  0  0  0
  1  8  1  0  0  0  0
  1  2  2  0  0  0  0
  2 17  1  0  0  0  0
  3  4  2  0  0  0  0
  3  2  1  0  0  0  0
  5  6  1  0  0  0  0
  5  3  1  0  0  0  0
  6  1  1  0  0  0  0
  7  6  2  0  0  0  0
  8  9  1  0  0  0  0
 10  8  1  0  0  0  0
 11 10  2  0  0  0  0
 12 11  1  0  0  0  0
 13 12  2  0  0  0  0
 13 15  1  0  0  0  0
 14 13  1  0  0  0  0
 15 16  2  0  0  0  0
 16 10  1  0  0  0  0
 17 18  1  0  0  0  0
 18 19  1  0  0  0  0
 20 19  2  0  0  0  0
 21 20  1  0  0  0  0
 22 17  1  0  0  0  0
 22 21  2  0  0  0  0
 23 24  1  0  0  0  0
 23  5  1  0  0  0  0
 25 24  2  0  0  0  0
 26 25  1  0  0  0  0
 27 26  2  0  0  0  0
 27 28  1  0  0  0  0
 28 23  2  0  0  0  0
M  END
>  <Pose>
1

>  <Score>
-9.213

$$$$
