/Users/jonathanwahrer/Desktop/Msc/3_Semester/Drug_Design_Praktikum/waehrer_HTS_screening/HTS_experiment/out/docking_results/vina_output/3npc/0670_docked.pdbqt
 OpenBabel03192219463D

 23 27  0  0  1  0  0  0  0  0999 V2000
   53.8310   84.7650   20.8990 C   0  0  0  0  0  2  0  0  0  0  0  0
   53.7460   84.2650   19.4920 C   0  0  1  0  0  3  0  0  0  0  0  0
   54.2100   82.8400   19.2680 C   0  0  2  0  0  3  0  0  0  0  0  0
   53.1990   82.7880   18.2530 N   0  0  0  0  0  0  0  0  0  0  0  0
   52.4140   83.6270   19.1130 C   0  0  2  0  0  3  0  0  0  0  0  0
   53.0580   82.1850   16.9980 C   0  0  0  0  0  0  0  0  0  0  0  0
   52.7190   80.8910   16.8150 N   0  0  0  0  0  0  0  0  0  0  0  0
   52.5800   80.3000   15.6360 C   0  0  0  0  0  3  0  0  0  0  0  0
   52.7870   81.0260   14.4850 C   0  0  0  0  0  0  0  0  0  0  0  0
   52.5940   80.2020   12.7700 Br  0  0  0  0  0  0  0  0  0  0  0  0
   53.1340   82.3520   14.6300 C   0  0  0  0  0  3  0  0  0  0  0  0
   53.2610   82.9000   15.8510 N   0  0  0  0  0  0  0  0  0  0  0  0
   54.2170   86.1510   20.8550 N   0  0  0  0  0  0  0  0  0  0  0  0
   53.4900   87.0610   20.0880 N   0  0  0  0  0  0  0  0  0  0  0  0
   53.8320   88.4380   20.0130 C   0  0  0  0  0  0  0  0  0  0  0  0
   52.6560   86.6790   19.5530 H   0  0  0  0  0  0  0  0  0  0  0  0
   53.1100   89.2570   19.2720 C   0  0  0  0  0  0  0  0  0  0  0  0
   54.9730   88.9490   20.7480 C   0  0  0  0  0  3  0  0  0  0  0  0
   52.0160   89.6370   18.3570 C   0  0  0  0  0  2  0  0  0  0  0  0
   52.9290   90.6830   18.7920 C   0  0  0  0  0  2  0  0  0  0  0  0
   55.6780   88.1040   21.4820 C   0  0  0  0  0  3  0  0  0  0  0  0
   55.3300   86.6700   21.5670 C   0  0  0  0  0  0  0  0  0  0  0  0
   56.0180   85.8860   22.2730 O   0  0  0  0  0  0  0  0  0  0  0  0
  2  1  1  1  0  0  0
  3  4  1  6  0  0  0
  3  2  1  0  0  0  0
  5  4  1  6  0  0  0
  5  3  1  0  0  0  0
  5  2  1  0  0  0  0
  6  4  1  0  0  0  0
  7  6  2  0  0  0  0
  8  7  1  0  0  0  0
  9 11  1  0  0  0  0
  9  8  2  0  0  0  0
 10  9  1  0  0  0  0
 11 12  2  0  0  0  0
 12  6  1  0  0  0  0
 13  1  1  0  0  0  0
 13 22  1  0  0  0  0
 14 13  1  0  0  0  0
 15 14  1  0  0  0  0
 15 18  1  0  0  0  0
 16 14  1  0  0  0  0
 17 15  2  0  0  0  0
 18 21  2  0  0  0  0
 19 20  1  0  0  0  0
 19 17  1  0  0  0  0
 20 17  1  0  0  0  0
 21 22  1  0  0  0  0
 22 23  2  0  0  0  0
M  END
>  <Pose>
1

>  <Score>
-7.278

$$$$
