/Users/jonathanwahrer/Desktop/Msc/3_Semester/Drug_Design_Praktikum/waehrer_HTS_screening/HTS_experiment/out/docking_results/vina_output/3npc/0677_docked.pdbqt
 OpenBabel03192219463D

 29 32  0  0  0  0  0  0  0  0999 V2000
   53.4740   87.0510   19.9710 C   0  0  0  0  0  0  0  0  0  0  0  0
   54.6350   86.9950   20.8230 C   0  0  0  0  0  0  0  0  0  0  0  0
   55.2840   88.1290   21.1480 C   0  0  0  0  0  0  0  0  0  0  0  0
   54.8480   89.3780   20.6710 C   0  0  0  0  0  0  0  0  0  0  0  0
   53.7450   89.4500   19.8560 C   0  0  0  0  0  0  0  0  0  0  0  0
   53.0610   88.2740   19.5080 C   0  0  0  0  0  0  0  0  0  0  0  0
   51.9250   88.3220   18.5520 C   0  0  0  0  0  2  0  0  0  0  0  0
   51.8750   89.6030   17.7260 C   0  0  0  0  0  2  0  0  0  0  0  0
   52.0680   90.7760   18.5460 N   0  0  0  0  0  0  0  0  0  0  0  0
   53.2420   90.7310   19.3690 C   0  0  0  0  0  0  0  0  0  0  0  0
   53.7820   91.8260   19.6280 O   0  0  0  0  0  0  0  0  0  0  0  0
   51.1540   91.8980   18.5370 C   0  0  0  0  0  1  0  0  0  0  0  0
   56.3580   87.7670   21.9760 O   0  0  0  0  0  0  0  0  0  0  0  0
   56.2260   86.4180   22.3720 C   0  0  0  0  0  2  0  0  0  0  0  0
   55.2880   85.9220   21.4370 O   0  0  0  0  0  0  0  0  0  0  0  0
   52.9170   85.7330   19.7530 C   0  0  0  0  0  2  0  0  0  0  0  0
   52.7110   85.1310   18.5090 N   0  0  0  0  0  0  0  0  0  0  0  0
   53.6780   84.0750   18.1440 C   0  0  0  0  0  0  0  0  0  0  0  0
   54.5840   83.7990   18.9480 O   0  0  0  0  0  0  0  0  0  0  0  0
   51.9870   85.2410   17.7840 H   0  0  0  0  0  0  0  0  0  0  0  0
   53.5710   83.3810   16.8830 C   0  0  0  0  0  0  0  0  0  0  0  0
   54.3200   83.8580   15.8130 C   0  0  0  0  0  3  0  0  0  0  0  0
   54.2730   83.2740   14.6070 N   0  0  0  0  0  0  0  0  0  0  0  0
   53.4930   82.2100   14.4200 C   0  0  0  0  0  3  0  0  0  0  0  0
   52.7400   81.7010   15.4300 C   0  0  0  0  0  0  0  0  0  0  0  0
   51.6290   80.1750   15.1400 Br  0  0  0  0  0  0  0  0  0  0  0  0
   52.7630   82.2820   16.6970 C   0  0  0  0  0  3  0  0  0  0  0  0
   55.5500   90.4640   21.0430 O   0  0  0  0  0  0  0  0  0  0  0  0
   56.3500   90.8620   20.6870 H   0  0  0  0  0  0  0  0  0  0  0  0
  1  2  1  0  0  0  0
  2  3  2  0  0  0  0
  2 15  1  0  0  0  0
  3 13  1  0  0  0  0
  4 28  1  0  0  0  0
  4  3  1  0  0  0  0
  5  4  2  0  0  0  0
  6  5  1  0  0  0  0
  6  1  2  0  0  0  0
  7  6  1  0  0  0  0
  8  9  1  0  0  0  0
  8  7  1  0  0  0  0
  9 10  1  0  0  0  0
 10 11  2  0  0  0  0
 10  5  1  0  0  0  0
 12  9  1  0  0  0  0
 13 14  1  0  0  0  0
 15 14  1  0  0  0  0
 16  1  1  0  0  0  0
 17 16  1  0  0  0  0
 18 17  1  0  0  0  0
 18 19  2  0  0  0  0
 20 17  1  0  0  0  0
 21 18  1  0  0  0  0
 22 21  2  0  0  0  0
 23 22  1  0  0  0  0
 24 23  2  0  0  0  0
 24 25  1  0  0  0  0
 25 27  2  0  0  0  0
 26 25  1  0  0  0  0
 27 21  1  0  0  0  0
 29 28  1  0  0  0  0
M  END
>  <Pose>
1

>  <Score>
-8.987

$$$$
