/Users/jonathanwahrer/Desktop/Msc/3_Semester/Drug_Design_Praktikum/waehrer_HTS_screening/HTS_experiment/out/docking_results/vina_output/3npc/0681_docked.pdbqt
 OpenBabel03192219473D

 25 28  0  0  1  0  0  0  0  0999 V2000
   49.9760  100.7190   27.6390 C   0  0  0  0  0  0  0  0  0  0  0  0
   49.9640  101.3410   26.5320 O   0  0  0  0  0  0  0  0  0  0  0  0
   51.0770   99.9080   27.9390 N   0  0  0  0  0  0  0  0  0  0  0  0
   51.5800   99.0520   28.9800 C   0  0  0  0  0  2  0  0  0  0  0  0
   52.9330   98.9120   28.2990 C   0  0  2  0  0  3  0  0  0  0  0  0
   52.2790   99.5990   27.1400 C   0  0  0  0  0  2  0  0  0  0  0  0
   53.3930   97.6160   28.0690 O   0  0  0  0  0  0  0  0  0  0  0  0
   54.3620   97.2470   27.1600 C   0  0  2  0  0  3  0  0  0  0  0  0
   55.4650   97.9810   27.0350 C   0  0  0  0  0  3  0  0  0  0  0  0
   56.5250   97.6430   26.0930 C   0  0  0  0  0  0  0  0  0  0  0  0
   57.6080   98.3940   25.9970 C   0  0  0  0  0  1  0  0  0  0  0  0
   56.3450   96.4840   25.2910 N   0  0  0  0  0  0  0  0  0  0  0  0
   55.1440   95.7120   25.4470 C   0  0  0  0  0  0  0  0  0  0  0  0
   57.0910   96.2340   24.6200 H   0  0  0  0  0  0  0  0  0  0  0  0
   54.2060   96.0760   26.3320 N   0  0  0  0  0  0  0  0  0  0  0  0
   54.7140   94.6030   24.8380 N   0  0  0  0  0  0  0  0  0  0  0  0
   53.1980   95.2000   26.2760 N   0  0  0  0  0  0  0  0  0  0  0  0
   53.5190   94.2910   25.3490 C   0  0  0  0  0  3  0  0  0  0  0  0
   48.8480  100.8860   28.5220 C   0  0  0  0  0  0  0  0  0  0  0  0
   47.7610  100.0560   28.6250 C   0  0  0  0  0  3  0  0  0  0  0  0
   46.7350  100.2820   29.4970 N   0  0  0  0  0  0  0  0  0  0  0  0
   46.7140  101.3350   30.3210 C   0  0  0  0  0  3  0  0  0  0  0  0
   47.7790  102.2040   30.2640 C   0  0  0  0  0  0  0  0  0  0  0  0
   47.7820  103.7290   31.4350 Br  0  0  0  0  0  0  0  0  0  0  0  0
   48.8170  101.9910   29.3930 C   0  0  0  0  0  3  0  0  0  0  0  0
  1  3  1  0  0  0  0
  1 19  1  0  0  0  0
  2  1  2  0  0  0  0
  3  4  1  0  0  0  0
  5  7  1  6  0  0  0
  5  4  1  0  0  0  0
  6  3  1  0  0  0  0
  6  5  1  0  0  0  0
  8  7  1  6  0  0  0
  9  8  1  0  0  0  0
 10  9  2  0  0  0  0
 11 10  1  0  0  0  0
 12 13  1  0  0  0  0
 12 10  1  0  0  0  0
 13 15  1  0  0  0  0
 14 12  1  0  0  0  0
 15  8  1  0  0  0  0
 16 18  1  0  0  0  0
 16 13  2  0  0  0  0
 17 15  1  0  0  0  0
 18 17  2  0  0  0  0
 19 20  2  0  0  0  0
 19 25  1  0  0  0  0
 20 21  1  0  0  0  0
 21 22  2  0  0  0  0
 23 22  1  0  0  0  0
 23 24  1  0  0  0  0
 25 23  2  0  0  0  0
M  END
>  <Pose>
1

>  <Score>
-8.811

$$$$
