/Users/jonathanwahrer/Desktop/Msc/3_Semester/Drug_Design_Praktikum/waehrer_HTS_screening/HTS_experiment/out/docking_results/vina_output/3npc/0684_docked.pdbqt
 OpenBabel03192219473D

 10 10  0  0  0  0  0  0  0  0999 V2000
   52.7670   97.0340   27.5730 Br  0  0  0  0  0  0  0  0  0  0  0  0
   51.4210   98.2320   28.1940 C   0  0  0  0  0  0  0  0  0  0  0  0
   51.6820   99.5630   28.4370 C   0  0  0  0  0  3  0  0  0  0  0  0
   50.7380  100.4140   28.8750 N   0  0  0  0  0  0  0  0  0  0  0  0
   49.4970   99.9490   29.0830 C   0  0  0  0  0  3  0  0  0  0  0  0
   49.1560   98.6340   28.8630 C   0  0  0  0  0  0  0  0  0  0  0  0
   50.1370   97.7880   28.4170 C   0  0  0  0  0  3  0  0  0  0  0  0
   47.8020   98.1430   29.0930 C   0  0  0  0  0  0  0  0  0  0  0  0
   47.6120   96.9190   29.2950 O   0  0  0  0  0  1  0  0  0  0  0  0
   46.7600   99.0590   29.0810 O   0  0  0  0  0  0  0  0  0  0  0  0
  1  2  1  0  0  0  0
  2  7  2  0  0  0  0
  2  3  1  0  0  0  0
  3  4  2  0  0  0  0
  4  5  1  0  0  0  0
  6  5  2  0  0  0  0
  6  8  1  0  0  0  0
  7  6  1  0  0  0  0
  8  9  1  0  0  0  0
 10  8  2  0  0  0  0
M  END
>  <Pose>
1

>  <Score>
-5.375

$$$$
