/Users/jonathanwahrer/Desktop/Msc/3_Semester/Drug_Design_Praktikum/waehrer_HTS_screening/HTS_experiment/out/docking_results/vina_output/3npc/0692_docked.pdbqt
 OpenBabel03192219473D

 29 32  0  0  0  0  0  0  0  0999 V2000
   55.7070   90.2440   21.3730 Br  0  0  0  0  0  0  0  0  0  0  0  0
   54.2180   89.8220   20.2710 C   0  0  0  0  0  0  0  0  0  0  0  0
   53.9200   88.4980   20.0090 C   0  0  0  0  0  0  0  0  0  0  0  0
   52.8360   88.1190   19.2020 C   0  0  0  0  0  0  0  0  0  0  0  0
   52.0410   89.0920   18.6510 C   0  0  0  0  0  3  0  0  0  0  0  0
   52.3340   90.4180   18.9090 C   0  0  0  0  0  0  0  0  0  0  0  0
   53.3980   90.7910   19.7010 C   0  0  0  0  0  3  0  0  0  0  0  0
   51.2520   91.7930   18.1620 Br  0  0  0  0  0  0  0  0  0  0  0  0
   52.5700   86.7090   18.9430 C   0  0  0  0  0  0  0  0  0  0  0  0
   51.9040   86.4580   17.9020 O   0  0  0  0  0  0  0  0  0  0  0  0
   53.0400   85.6480   19.8260 C   0  0  0  0  0  0  0  0  0  0  0  0
   53.9620   86.2750   20.9060 C   0  0  0  0  0  2  0  0  0  0  0  0
   54.6270   87.4120   20.4920 O   0  0  0  0  0  0  0  0  0  0  0  0
   52.0440   84.9120   20.5980 C   0  0  0  0  0  2  0  0  0  0  0  0
   52.1120   84.5820   21.9450 N   0  0  0  0  0  4  0  0  0  0  0  0
   53.0970   83.6660   22.4280 C   0  0  0  0  0  2  0  0  0  0  0  0
   53.2980   84.0040   23.9280 C   0  0  0  0  0  2  0  0  0  0  0  0
   52.0530   83.4870   24.6180 C   0  0  0  0  0  2  0  0  0  0  0  0
   50.9250   83.2510   23.6380 C   0  0  0  0  0  2  0  0  0  0  0  0
   50.8350   84.3540   22.6060 C   0  0  0  0  0  2  0  0  0  0  0  0
   52.4330   85.5080   22.4130 H   0  0  0  0  0  0  0  0  0  0  0  0
   53.8650   84.6790   18.9930 C   0  0  0  0  0  2  0  0  0  0  0  0
   53.0580   83.8460   18.1360 N   0  0  0  0  0  4  0  0  0  0  0  0
   53.1650   82.4760   18.6180 C   0  0  0  0  0  2  0  0  0  0  0  0
   54.6070   82.1010   18.7050 C   0  0  0  0  0  2  0  0  0  0  0  0
   55.3910   82.3080   17.4610 C   0  0  0  0  0  2  0  0  0  0  0  0
   54.9990   83.4920   16.6460 C   0  0  0  0  0  2  0  0  0  0  0  0
   53.5190   83.7800   16.7620 C   0  0  0  0  0  2  0  0  0  0  0  0
   52.0750   84.1710   18.1010 H   0  0  0  0  0  0  0  0  0  0  0  0
  2  1  1  0  0  0  0
  3  2  1  0  0  0  0
  3 13  1  0  0  0  0
  4  3  2  0  0  0  0
  5  6  2  0  0  0  0
  5  4  1  0  0  0  0
  6  7  1  0  0  0  0
  7  2  2  0  0  0  0
  8  6  1  0  0  0  0
  9  4  1  0  0  0  0
  9 11  1  0  0  0  0
 10  9  2  0  0  0  0
 11 14  1  0  0  0  0
 11 12  1  0  0  0  0
 13 12  1  0  0  0  0
 14 15  1  0  0  0  0
 15 21  1  0  0  0  0
 15 16  1  0  0  0  0
 15 20  1  0  0  0  0
 16 17  1  0  0  0  0
 17 18  1  0  0  0  0
 19 18  1  0  0  0  0
 20 19  1  0  0  0  0
 22 11  1  0  0  0  0
 23 24  1  0  0  0  0
 23 22  1  0  0  0  0
 24 25  1  0  0  0  0
 26 25  1  0  0  0  0
 27 28  1  0  0  0  0
 27 26  1  0  0  0  0
 28 23  1  0  0  0  0
 29 23  1  0  0  0  0
M  END
>  <Pose>
1

>  <Score>
-7.996

$$$$
