/Users/jonathanwahrer/Desktop/Msc/3_Semester/Drug_Design_Praktikum/waehrer_HTS_screening/HTS_experiment/out/docking_results/vina_output/3npc/0695_docked.pdbqt
 OpenBabel03192219473D

 22 25  0  0  0  0  0  0  0  0999 V2000
   53.0650   98.5640   28.6440 C   0  0  0  0  0  2  0  0  0  0  0  0
   53.6770   97.6470   27.6490 C   0  0  0  0  0  0  0  0  0  0  0  0
   53.0870   96.4800   27.2220 C   0  0  0  0  0  3  0  0  0  0  0  0
   53.6860   95.6340   26.2870 C   0  0  0  0  0  0  0  0  0  0  0  0
   54.9110   95.9470   25.7500 C   0  0  0  0  0  0  0  0  0  0  0  0
   53.3000   94.4250   25.7060 O   0  0  0  0  0  0  0  0  0  0  0  0
   55.5110   97.1140   26.1720 C   0  0  0  0  0  0  0  0  0  0  0  0
   55.2550   94.9270   24.8550 O   0  0  0  0  0  0  0  0  0  0  0  0
   57.2250   97.5500   25.4210 Br  0  0  0  0  0  0  0  0  0  0  0  0
   54.9240   97.9550   27.0960 C   0  0  0  0  0  3  0  0  0  0  0  0
   54.0240   94.2980   24.4720 C   0  0  0  0  0  2  0  0  0  0  0  0
   51.6830   98.2000   28.8440 N   0  0  0  0  0  0  0  0  0  0  0  0
   51.3970   97.2280   29.0510 H   0  0  0  0  0  0  0  0  0  0  0  0
   50.6830   99.2320   28.7480 C   0  0  0  0  0  0  0  0  0  0  0  0
   51.0250  100.5070   28.5200 N   0  0  0  0  0  0  0  0  0  0  0  0
   50.0850  101.4650   28.4310 C   0  0  0  0  0  3  0  0  0  0  0  0
   48.7330  101.1660   28.5730 C   0  0  0  0  0  3  0  0  0  0  0  0
   48.4010   99.8950   28.7990 N   0  0  0  0  0  0  0  0  0  0  0  0
   49.3480   98.9260   28.8890 C   0  0  0  0  0  0  0  0  0  0  0  0
   47.2250   99.2690   28.9810 C   0  0  0  0  0  3  0  0  0  0  0  0
   48.7200   97.7610   29.1190 N   0  0  0  0  0  0  0  0  0  0  0  0
   47.4140   97.9610   29.1760 N   0  0  0  0  0  0  0  0  0  0  0  0
  1 12  1  0  0  0  0
  2  1  1  0  0  0  0
  3  2  1  0  0  0  0
  4  3  2  0  0  0  0
  5  7  2  0  0  0  0
  5  4  1  0  0  0  0
  6  4  1  0  0  0  0
  7 10  1  0  0  0  0
  8  5  1  0  0  0  0
  9  7  1  0  0  0  0
 10  2  2  0  0  0  0
 11  8  1  0  0  0  0
 11  6  1  0  0  0  0
 12 13  1  0  0  0  0
 14 12  1  0  0  0  0
 14 19  1  0  0  0  0
 15 14  2  0  0  0  0
 16 15  1  0  0  0  0
 16 17  2  0  0  0  0
 17 18  1  0  0  0  0
 18 19  1  0  0  0  0
 18 20  1  0  0  0  0
 19 21  2  0  0  0  0
 20 22  2  0  0  0  0
 21 22  1  0  0  0  0
M  END
>  <Pose>
1

>  <Score>
-8.759

$$$$
