/Users/jonathanwahrer/Desktop/Msc/3_Semester/Drug_Design_Praktikum/waehrer_HTS_screening/HTS_experiment/out/docking_results/vina_output/3npc/0699_docked.pdbqt
 OpenBabel03192219483D

 32 35  0  0  1  0  0  0  0  0999 V2000
   55.0840   91.4320   22.2000 C   0  0  2  0  0  3  0  0  0  0  0  0
   54.9320   92.9310   22.2300 C   0  0  0  0  0  2  0  0  0  0  0  0
   55.7730   93.5320   23.1950 O   0  0  0  0  0  0  0  0  0  0  0  0
   55.1680   94.2770   24.2060 C   0  0  0  0  0  0  0  0  0  0  0  0
   55.8370   95.2900   24.8650 C   0  0  0  0  0  0  0  0  0  0  0  0
   57.6320   95.6530   24.3510 Br  0  0  0  0  0  0  0  0  0  0  0  0
   55.2560   96.0390   25.8690 C   0  0  0  0  0  0  0  0  0  0  0  0
   53.9560   95.7980   26.2610 C   0  0  0  0  0  0  0  0  0  0  0  0
   55.9320   97.0530   26.5250 C   0  0  0  0  0  3  0  0  0  0  0  0
   53.2790   94.7870   25.6090 C   0  0  0  0  0  3  0  0  0  0  0  0
   53.3730   96.5500   27.2680 C   0  0  0  0  0  3  0  0  0  0  0  0
   53.8670   94.0430   24.6060 C   0  0  0  0  0  3  0  0  0  0  0  0
   54.0490   97.5610   27.9210 C   0  0  0  0  0  3  0  0  0  0  0  0
   55.3510   97.8020   27.5290 C   0  0  0  0  0  3  0  0  0  0  0  0
   55.3740   90.8940   23.4270 O   0  0  0  0  0  0  0  0  0  0  0  0
   56.1210   91.3110   23.8940 H   0  0  0  0  0  0  0  0  0  0  0  0
   56.0600   91.0180   21.1530 C   0  0  0  0  0  2  0  0  0  0  0  0
   55.8390   89.6840   20.6400 N   0  0  0  0  0  4  0  0  0  0  0  0
   54.4020   89.5140   20.5120 C   0  0  0  0  0  2  0  0  0  0  0  0
   54.0200   88.0560   20.2190 C   0  0  0  0  0  2  0  0  0  0  0  0
   54.5310   87.2320   21.2550 N   0  0  0  0  0  0  0  0  0  0  0  0
   55.3240   87.9440   22.2790 C   0  0  0  0  0  2  0  0  0  0  0  0
   54.3340   85.8510   21.3610 C   0  0  0  0  0  0  0  0  0  0  0  0
   56.3910   88.7260   21.5870 C   0  0  0  0  0  2  0  0  0  0  0  0
   54.9190   85.3210   22.4240 O   0  0  0  0  0  0  0  0  0  0  0  0
   56.2610   89.5190   19.7020 H   0  0  0  0  0  0  0  0  0  0  0  0
   53.6310   84.9150   20.5460 C   0  0  0  0  0  0  0  0  0  0  0  0
   53.9150   84.5790   19.2530 C   0  0  0  0  0  3  0  0  0  0  0  0
   53.1870   83.6570   18.5130 C   0  0  0  0  0  3  0  0  0  0  0  0
   52.1200   83.0270   19.0700 C   0  0  0  0  0  3  0  0  0  0  0  0
   51.8070   83.3450   20.3750 C   0  0  0  0  0  3  0  0  0  0  0  0
   52.5260   84.2560   21.1060 C   0  0  0  0  0  3  0  0  0  0  0  0
  1 17  1  6  0  0  0
  1  2  1  0  0  0  0
  1 15  1  0  0  0  0
  2  3  1  0  0  0  0
  3  4  1  0  0  0  0
  4 12  2  0  0  0  0
  4  5  1  0  0  0  0
  5  7  2  0  0  0  0
  6  5  1  0  0  0  0
  7  8  1  0  0  0  0
  7  9  1  0  0  0  0
  8 11  1  0  0  0  0
  9 14  2  0  0  0  0
 10  8  2  0  0  0  0
 11 13  2  0  0  0  0
 12 10  1  0  0  0  0
 14 13  1  0  0  0  0
 15 16  1  0  0  0  0
 18 17  1  0  0  0  0
 18 24  1  0  0  0  0
 19 18  1  0  0  0  0
 20 19  1  0  0  0  0
 20 21  1  0  0  0  0
 21 23  1  0  0  0  0
 21 22  1  0  0  0  0
 23 25  2  0  0  0  0
 24 22  1  0  0  0  0
 26 18  1  0  0  0  0
 27 32  1  0  0  0  0
 27 23  1  0  0  0  0
 28 27  2  0  0  0  0
 29 30  2  0  0  0  0
 29 28  1  0  0  0  0
 30 31  1  0  0  0  0
 31 32  2  0  0  0  0
M  END
>  <Pose>
1

>  <Score>
-9.540

$$$$
