/Users/jonathanwahrer/Desktop/Msc/3_Semester/Drug_Design_Praktikum/waehrer_HTS_screening/HTS_experiment/out/docking_results/vina_output/3npc/0706_docked.pdbqt
 OpenBabel03192219483D

 30 33  0  0  0  0  0  0  0  0999 V2000
   54.4740   85.8470   20.9050 C   0  0  0  0  0  2  0  0  0  0  0  0
   54.7120   87.2300   21.1460 N   0  0  0  0  0  0  0  0  0  0  0  0
   55.4700   87.6780   22.1640 C   0  0  0  0  0  0  0  0  0  0  0  0
   56.3910   86.6160   23.4840 Br  0  0  0  0  0  0  0  0  0  0  0  0
   55.4640   89.0210   22.0870 N   0  0  0  0  0  0  0  0  0  0  0  0
   54.7200   89.4210   21.0470 C   0  0  0  0  0  0  0  0  0  0  0  0
   54.2400   88.2740   20.4460 C   0  0  0  0  0  0  0  0  0  0  0  0
   54.3800   90.6170   20.5250 N   0  0  0  0  0  0  0  0  0  0  0  0
   53.4330   88.4480   19.3410 C   0  0  0  0  0  0  0  0  0  0  0  0
   53.1010   89.6450   18.8290 N   0  0  0  0  0  0  0  0  0  0  0  0
   52.9860   87.4240   18.7840 O   0  0  0  0  0  0  0  0  0  0  0  0
   53.5870   90.7420   19.4390 C   0  0  0  0  0  0  0  0  0  0  0  0
   52.2500   89.8050   17.6650 C   0  0  0  0  0  1  0  0  0  0  0  0
   53.2910   91.8850   18.9800 O   0  0  0  0  0  0  0  0  0  0  0  0
   54.8890   91.8150   21.1620 C   0  0  0  0  0  1  0  0  0  0  0  0
   53.1370   85.3120   21.2700 C   0  0  0  0  0  2  0  0  0  0  0  0
   53.0370   83.9160   21.5350 N   0  0  0  0  0  0  0  0  0  0  0  0
   53.0340   83.3470   22.7660 C   0  0  0  0  0  0  0  0  0  0  0  0
   52.9310   81.9840   22.6370 C   0  0  0  0  0  0  0  0  0  0  0  0
   53.1100   83.8430   24.0620 C   0  0  0  0  0  0  0  0  0  0  0  0
   52.8730   81.7600   21.3130 N   0  0  0  0  0  0  0  0  0  0  0  0
   52.9020   81.1350   23.6990 N   0  0  0  0  0  0  0  0  0  0  0  0
   52.9370   82.9220   20.6480 C   0  0  0  0  0  0  0  0  0  0  0  0
   52.9010   83.1810   18.7380 Br  0  0  0  0  0  0  0  0  0  0  0  0
   52.9800   81.6910   24.9210 C   0  0  0  0  0  0  0  0  0  0  0  0
   52.7910   79.6930   23.5230 C   0  0  0  0  0  1  0  0  0  0  0  0
   52.9540   80.9150   25.9140 O   0  0  0  0  0  0  0  0  0  0  0  0
   53.0820   83.0190   25.1080 N   0  0  0  0  0  0  0  0  0  0  0  0
   53.1630   83.5680   26.4450 C   0  0  0  0  0  1  0  0  0  0  0  0
   53.2040   85.0950   24.1680 O   0  0  0  0  0  0  0  0  0  0  0  0
  1  2  1  0  0  0  0
  1 16  1  0  0  0  0
  2  3  1  0  0  0  0
  3  4  1  0  0  0  0
  5  3  2  0  0  0  0
  6  5  1  0  0  0  0
  7  6  2  0  0  0  0
  7  2  1  0  0  0  0
  8  6  1  0  0  0  0
  8 15  1  0  0  0  0
  9  7  1  0  0  0  0
 10  9  1  0  0  0  0
 10 12  1  0  0  0  0
 11  9  2  0  0  0  0
 12  8  1  0  0  0  0
 13 10  1  0  0  0  0
 14 12  2  0  0  0  0
 16 17  1  0  0  0  0
 17 18  1  0  0  0  0
 18 20  1  0  0  0  0
 19 18  2  0  0  0  0
 19 22  1  0  0  0  0
 20 30  2  0  0  0  0
 20 28  1  0  0  0  0
 21 19  1  0  0  0  0
 22 25  1  0  0  0  0
 23 21  2  0  0  0  0
 23 17  1  0  0  0  0
 24 23  1  0  0  0  0
 25 28  1  0  0  0  0
 25 27  2  0  0  0  0
 26 22  1  0  0  0  0
 28 29  1  0  0  0  0
M  END
>  <Pose>
1

>  <Score>
-7.349

$$$$
