/Users/jonathanwahrer/Desktop/Msc/3_Semester/Drug_Design_Praktikum/waehrer_HTS_screening/HTS_experiment/out/docking_results/vina_output/3npc/0708_docked.pdbqt
 OpenBabel03142213503D

 31 34  0  0  0  0  0  0  0  0999 V2000
   53.1850   85.1010   22.1370 C   0  0  0  0  0  2  0  0  0  0  0  0
   53.4130   83.8040   22.8580 C   0  0  0  0  0  2  0  0  0  0  0  0
   52.7700   83.7330   24.1530 N   0  0  0  0  0  0  0  0  0  0  0  0
   51.5000   83.2730   24.3710 C   0  0  0  0  0  0  0  0  0  0  0  0
   50.3810   82.6290   22.9710 Br  0  0  0  0  0  0  0  0  0  0  0  0
   51.1940   83.3510   25.6740 N   0  0  0  0  0  0  0  0  0  0  0  0
   52.2520   83.8610   26.3410 C   0  0  0  0  0  0  0  0  0  0  0  0
   53.2170   84.0900   25.3730 C   0  0  0  0  0  0  0  0  0  0  0  0
   52.4140   84.1280   27.6480 N   0  0  0  0  0  0  0  0  0  0  0  0
   54.4020   84.6230   25.7800 C   0  0  0  0  0  0  0  0  0  0  0  0
   54.5630   84.8920   27.1060 N   0  0  0  0  0  0  0  0  0  0  0  0
   55.3060   84.8530   24.9510 O   0  0  0  0  0  0  0  0  0  0  0  0
   53.5980   84.6520   28.0130 C   0  0  0  0  0  0  0  0  0  0  0  0
   55.4860   85.2970   27.3720 H   0  0  0  0  0  0  0  0  0  0  0  0
   53.8020   84.9220   29.2440 O   0  0  0  0  0  0  0  0  0  0  0  0
   51.4010   83.8840   28.6530 C   0  0  0  0  0  1  0  0  0  0  0  0
   54.1320   85.3610   21.0010 C   0  0  0  0  0  2  0  0  0  0  0  0
   54.2110   86.7910   20.7360 N   0  0  0  0  0  0  0  0  0  0  0  0
   53.4200   87.5420   19.9350 C   0  0  0  0  0  0  0  0  0  0  0  0
   53.8280   88.8550   19.9590 C   0  0  0  0  0  0  0  0  0  0  0  0
   52.3430   87.2200   19.1520 C   0  0  0  0  0  0  0  0  0  0  0  0
   54.8860   88.8910   20.7900 N   0  0  0  0  0  0  0  0  0  0  0  0
   53.2280   89.8350   19.2570 N   0  0  0  0  0  0  0  0  0  0  0  0
   55.1110   87.6430   21.2540 C   0  0  0  0  0  0  0  0  0  0  0  0
   56.4830   87.1040   22.4680 Br  0  0  0  0  0  0  0  0  0  0  0  0
   52.1670   89.4720   18.4960 C   0  0  0  0  0  0  0  0  0  0  0  0
   53.6970   91.2180   19.3130 C   0  0  0  0  0  1  0  0  0  0  0  0
   51.5980   90.3930   17.8350 O   0  0  0  0  0  0  0  0  0  0  0  0
   51.7340   88.1940   18.4450 N   0  0  0  0  0  0  0  0  0  0  0  0
   50.9150   87.9750   17.8450 H   0  0  0  0  0  0  0  0  0  0  0  0
   51.9660   86.0240   19.1270 O   0  0  0  0  0  0  0  0  0  0  0  0
  1  2  1  0  0  0  0
  2  3  1  0  0  0  0
  3  4  1  0  0  0  0
  3  8  1  0  0  0  0
  4  6  2  0  0  0  0
  5  4  1  0  0  0  0
  6  7  1  0  0  0  0
  7  9  1  0  0  0  0
  8 10  1  0  0  0  0
  8  7  2  0  0  0  0
  9 13  1  0  0  0  0
  9 16  1  0  0  0  0
 10 11  1  0  0  0  0
 11 14  1  0  0  0  0
 11 13  1  0  0  0  0
 12 10  2  0  0  0  0
 13 15  2  0  0  0  0
 17  1  1  0  0  0  0
 18 17  1  0  0  0  0
 18 24  1  0  0  0  0
 19 20  2  0  0  0  0
 19 18  1  0  0  0  0
 20 22  1  0  0  0  0
 21 19  1  0  0  0  0
 22 24  2  0  0  0  0
 23 27  1  0  0  0  0
 23 20  1  0  0  0  0
 24 25  1  0  0  0  0
 26 23  1  0  0  0  0
 28 26  2  0  0  0  0
 29 26  1  0  0  0  0
 29 21  1  0  0  0  0
 30 29  1  0  0  0  0
 31 21  2  0  0  0  0
M  END
>  <Pose>
1

>  <Score>
-7.873

$$$$
