/Users/jonathanwahrer/Desktop/Msc/3_Semester/Drug_Design_Praktikum/waehrer_HTS_screening/HTS_experiment/out/docking_results/vina_output/3npc/0709_docked.pdbqt
 OpenBabel03192219493D

 30 33  0  0  0  0  0  0  0  0999 V2000
   53.7950   84.3730   27.6510 C   0  0  0  0  0  2  0  0  0  0  0  0
   52.7530   83.8820   28.4880 N   0  0  0  0  0  0  0  0  0  0  0  0
   52.9030   82.9400   29.4480 C   0  0  0  0  0  0  0  0  0  0  0  0
   54.5800   82.1190   29.8490 Br  0  0  0  0  0  0  0  0  0  0  0  0
   51.7150   82.7080   30.0300 N   0  0  0  0  0  0  0  0  0  0  0  0
   50.7660   83.4890   29.4660 C   0  0  0  0  0  0  0  0  0  0  0  0
   51.4430   84.2220   28.4960 C   0  0  0  0  0  0  0  0  0  0  0  0
   49.4450   83.6480   29.6610 N   0  0  0  0  0  0  0  0  0  0  0  0
   50.6800   85.0990   27.7630 C   0  0  0  0  0  0  0  0  0  0  0  0
   49.3460   85.2550   27.9630 N   0  0  0  0  0  0  0  0  0  0  0  0
   51.2820   85.7690   26.8730 O   0  0  0  0  0  0  0  0  0  0  0  0
   48.7440   84.5220   28.9170 C   0  0  0  0  0  0  0  0  0  0  0  0
   48.8220   85.9380   27.3740 H   0  0  0  0  0  0  0  0  0  0  0  0
   47.4940   84.6780   29.0940 O   0  0  0  0  0  0  0  0  0  0  0  0
   48.7350   82.8910   30.6670 C   0  0  0  0  0  1  0  0  0  0  0  0
   54.1710   83.5400   26.4790 C   0  0  0  0  0  2  0  0  0  0  0  0
   53.3370   83.5770   25.3300 N   0  0  0  0  0  0  0  0  0  0  0  0
   52.3950   82.6900   24.9680 C   0  0  0  0  0  0  0  0  0  0  0  0
   51.8260   83.0980   23.7800 C   0  0  0  0  0  0  0  0  0  0  0  0
   51.8980   81.5190   25.5180 C   0  0  0  0  0  0  0  0  0  0  0  0
   52.4640   84.2440   23.4670 N   0  0  0  0  0  0  0  0  0  0  0  0
   50.8540   82.3790   23.2190 N   0  0  0  0  0  0  0  0  0  0  0  0
   53.3770   84.5580   24.3800 C   0  0  0  0  0  0  0  0  0  0  0  0
   54.5470   86.0890   24.3930 Br  0  0  0  0  0  0  0  0  0  0  0  0
   50.4200   81.2570   23.7980 C   0  0  0  0  0  0  0  0  0  0  0  0
   50.2500   82.7930   21.9740 C   0  0  0  0  0  1  0  0  0  0  0  0
   49.4930   80.5460   23.2840 O   0  0  0  0  0  0  0  0  0  0  0  0
   50.9230   80.7930   24.9560 N   0  0  0  0  0  0  0  0  0  0  0  0
   50.5570   79.9050   25.3860 H   0  0  0  0  0  0  0  0  0  0  0  0
   52.3700   81.0970   26.5970 O   0  0  0  0  0  0  0  0  0  0  0  0
  1  2  1  0  0  0  0
  2  7  1  0  0  0  0
  2  3  1  0  0  0  0
  3  4  1  0  0  0  0
  3  5  2  0  0  0  0
  6  8  1  0  0  0  0
  6  5  1  0  0  0  0
  7  6  2  0  0  0  0
  8 15  1  0  0  0  0
  9 10  1  0  0  0  0
  9  7  1  0  0  0  0
 10 12  1  0  0  0  0
 11  9  2  0  0  0  0
 12 14  2  0  0  0  0
 12  8  1  0  0  0  0
 13 10  1  0  0  0  0
 16  1  1  0  0  0  0
 17 16  1  0  0  0  0
 18 17  1  0  0  0  0
 18 20  1  0  0  0  0
 19 18  2  0  0  0  0
 20 30  2  0  0  0  0
 21 19  1  0  0  0  0
 21 23  2  0  0  0  0
 22 19  1  0  0  0  0
 22 25  1  0  0  0  0
 23 24  1  0  0  0  0
 23 17  1  0  0  0  0
 25 28  1  0  0  0  0
 26 22  1  0  0  0  0
 27 25  2  0  0  0  0
 28 29  1  0  0  0  0
 28 20  1  0  0  0  0
M  END
>  <Pose>
1

>  <Score>
-6.723

$$$$
