/Users/jonathanwahrer/Desktop/Msc/3_Semester/Drug_Design_Praktikum/waehrer_HTS_screening/HTS_experiment/out/docking_results/vina_output/3npc/0729_docked.pdbqt
 OpenBabel03192219493D

 27 30  0  0  1  0  0  0  0  0999 V2000
   53.0690   88.1400   19.2720 N   0  0  0  0  0  0  0  0  0  0  0  0
   51.7740   87.6840   19.6940 C   0  0  0  0  0  2  0  0  0  0  0  0
   51.8830   86.1570   19.7280 C   0  0  0  0  0  2  0  0  0  0  0  0
   53.0070   85.6950   18.9060 N   0  0  0  0  0  0  0  0  0  0  0  0
   53.0270   86.4380   17.6430 C   0  0  0  0  0  2  0  0  0  0  0  0
   53.4160   87.8830   17.8960 C   0  0  0  0  0  2  0  0  0  0  0  0
   53.9510   88.7700   20.1570 C   0  0  0  0  0  0  0  0  0  0  0  0
   54.8380   88.0580   20.8920 N   0  0  0  0  0  0  0  0  0  0  0  0
   55.6650   88.6220   21.7630 C   0  0  0  0  0  3  0  0  0  0  0  0
   55.6300   89.9470   21.9310 N   0  0  0  0  0  0  0  0  0  0  0  0
   54.7850   90.7380   21.2480 C   0  0  0  0  0  0  0  0  0  0  0  0
   54.5750   92.0690   21.2370 N   0  0  0  0  0  0  0  0  0  0  0  0
   53.9180   90.1480   20.3330 C   0  0  0  0  0  0  0  0  0  0  0  0
   53.6310   92.3080   20.3660 N   0  0  0  0  0  0  0  0  0  0  0  0
   55.3180   92.9930   22.0810 C   0  0  0  0  0  1  0  0  0  0  0  0
   53.1920   91.1790   19.7830 C   0  0  0  0  0  0  0  0  0  0  0  0
   51.8610   90.9830   18.4460 Br  0  0  0  0  0  0  0  0  0  0  0  0
   52.7480   84.2950   18.6070 C   0  0  2  0  0  3  0  0  0  0  0  0
   52.2930   83.6310   19.9350 C   0  0  0  0  0  1  0  0  0  0  0  0
   53.9680   83.6150   18.1390 C   0  0  0  0  0  0  0  0  0  0  0  0
   54.8300   83.3890   19.0880 O   0  0  0  0  0  0  0  0  0  0  0  0
   54.3020   83.2010   16.8400 N   0  0  0  0  0  0  0  0  0  0  0  0
   53.5520   83.3630   15.6310 C   0  0  0  0  0  2  0  0  0  0  0  0
   55.6030   82.5150   16.6700 C   0  0  0  0  0  2  0  0  0  0  0  0
   53.4860   82.1210   14.7660 C   0  0  0  0  0  2  0  0  0  0  0  0
   54.7220   81.2890   14.7850 C   0  0  0  0  0  2  0  0  0  0  0  0
   55.2860   81.1260   16.1800 C   0  0  0  0  0  2  0  0  0  0  0  0
  1  2  1  0  0  0  0
  1  7  1  0  0  0  0
  2  3  1  0  0  0  0
  4  3  1  0  0  0  0
  5  6  1  0  0  0  0
  5  4  1  0  0  0  0
  6  1  1  0  0  0  0
  7 13  2  0  0  0  0
  7  8  1  0  0  0  0
  8  9  2  0  0  0  0
  9 10  1  0  0  0  0
 11 10  2  0  0  0  0
 12 11  1  0  0  0  0
 12 15  1  0  0  0  0
 13 11  1  0  0  0  0
 14 12  1  0  0  0  0
 16 13  1  0  0  0  0
 16 14  2  0  0  0  0
 17 16  1  0  0  0  0
 18  4  1  0  0  0  0
 18 19  1  1  0  0  0
 20 18  1  0  0  0  0
 20 21  2  0  0  0  0
 22 20  1  0  0  0  0
 23 22  1  0  0  0  0
 24 22  1  0  0  0  0
 25 26  1  0  0  0  0
 25 23  1  0  0  0  0
 26 27  1  0  0  0  0
 27 24  1  0  0  0  0
M  END
>  <Pose>
1

>  <Score>
-7.288

$$$$
