/Users/jonathanwahrer/Desktop/Msc/3_Semester/Drug_Design_Praktikum/waehrer_HTS_screening/HTS_experiment/out/docking_results/vina_output/3npc/0746_docked.pdbqt
 OpenBabel03192219503D

 30 33  0  0  1  0  0  0  0  0999 V2000
   55.6930   90.2940   21.8130 C   0  0  0  0  0  0  0  0  0  0  0  0
   56.0540   90.0840   20.6020 O   0  0  0  0  0  0  0  0  0  0  0  0
   56.0720   89.3390   22.7630 N   0  0  0  0  0  0  0  0  0  0  0  0
   55.7360   89.4520   24.1680 C   0  0  0  0  0  2  0  0  0  0  0  0
   54.8760   88.2810   24.5310 C   0  0  0  0  0  2  0  0  0  0  0  0
   55.4920   86.9800   24.1280 C   0  0  1  0  0  0  0  0  0  0  0  0
   55.6050   86.1400   25.3070 N   0  0  0  0  0  0  0  0  0  0  0  0
   54.2630   85.8270   25.7620 C   0  0  0  0  0  2  0  0  0  0  0  0
   53.7760   84.6680   24.8860 C   0  0  0  0  0  2  0  0  0  0  0  0
   53.8690   85.1540   23.4890 C   0  0  0  0  0  0  0  0  0  0  0  0
   53.2560   84.6970   22.3800 N   0  0  0  0  0  0  0  0  0  0  0  0
   53.6590   85.4660   21.3560 C   0  0  0  0  0  3  0  0  0  0  0  0
   54.5130   86.3880   21.8360 N   0  0  0  0  0  0  0  0  0  0  0  0
   54.6660   86.2230   23.1610 C   0  0  0  0  0  0  0  0  0  0  0  0
   56.8940   87.2250   23.5680 C   0  0  0  0  0  2  0  0  0  0  0  0
   56.8410   88.1610   22.4050 C   0  0  0  0  0  2  0  0  0  0  0  0
   56.0680   86.6600   26.1040 H   0  0  0  0  0  0  0  0  0  0  0  0
   52.5820   83.8970   22.2740 H   0  0  0  0  0  0  0  0  0  0  0  0
   54.9200   91.5260   22.0480 C   0  0  2  0  0  3  0  0  0  0  0  0
   54.2750   92.1130   20.8450 C   0  0  0  0  0  1  0  0  0  0  0  0
   55.7080   92.5500   22.7030 N   0  0  0  0  0  0  0  0  0  0  0  0
   55.1440   93.6040   23.4450 C   0  0  0  0  0  0  0  0  0  0  0  0
   53.9040   93.6830   23.5580 O   0  0  0  0  0  0  0  0  0  0  0  0
   56.7430   92.4940   22.6150 H   0  0  0  0  0  0  0  0  0  0  0  0
   55.9910   94.6020   24.0800 C   0  0  0  0  0  0  0  0  0  0  0  0
   55.5850   95.4670   25.0090 O   0  0  0  0  0  0  0  0  0  0  0  0
   56.5750   96.2350   25.3840 C   0  0  0  0  0  0  0  0  0  0  0  0
   56.4720   97.6340   26.7030 Br  0  0  0  0  0  0  0  0  0  0  0  0
   57.7160   95.8830   24.6820 C   0  0  0  0  0  3  0  0  0  0  0  0
   57.3280   94.8520   23.8640 C   0  0  0  0  0  3  0  0  0  0  0  0
  1 19  1  0  0  0  0
  1  3  1  0  0  0  0
  2  1  2  0  0  0  0
  3  4  1  0  0  0  0
  4  5  1  0  0  0  0
  6 15  1  6  0  0  0
  6  5  1  0  0  0  0
  6  7  1  0  0  0  0
  7  8  1  0  0  0  0
  7 17  1  0  0  0  0
  9  8  1  0  0  0  0
 10  9  1  0  0  0  0
 11 10  1  0  0  0  0
 12 13  2  0  0  0  0
 12 11  1  0  0  0  0
 13 14  1  0  0  0  0
 14 10  2  0  0  0  0
 14  6  1  0  0  0  0
 16  3  1  0  0  0  0
 16 15  1  0  0  0  0
 18 11  1  0  0  0  0
 19 20  1  6  0  0  0
 19 21  1  0  0  0  0
 21 22  1  0  0  0  0
 22 23  2  0  0  0  0
 22 25  1  0  0  0  0
 24 21  1  0  0  0  0
 25 26  1  0  0  0  0
 26 27  1  0  0  0  0
 27 28  1  0  0  0  0
 29 27  2  0  0  0  0
 30 25  2  0  0  0  0
 30 29  1  0  0  0  0
M  END
>  <Pose>
1

>  <Score>
-8.808

$$$$
