/Users/jonathanwahrer/Desktop/Msc/3_Semester/Drug_Design_Praktikum/waehrer_HTS_screening/HTS_experiment/out/docking_results/vina_output/3npc/0754_docked.pdbqt
 OpenBabel03192219503D

 27 30  0  0  0  0  0  0  0  0999 V2000
   53.9590   85.1570   21.7860 C   0  0  0  0  0  0  0  0  0  0  0  0
   53.0100   84.8870   22.5370 O   0  0  0  0  0  0  0  0  0  0  0  0
   55.0360   85.9420   22.2660 N   0  0  0  0  0  0  0  0  0  0  0  0
   55.0230   86.4240   23.6320 C   0  0  0  0  0  2  0  0  0  0  0  0
   55.0510   87.9310   23.7050 C   0  0  0  0  0  2  0  0  0  0  0  0
   55.7720   88.3920   22.5070 N   0  0  0  0  0  0  0  0  0  0  0  0
   56.8490   87.5720   22.0690 C   0  0  0  0  0  2  0  0  0  0  0  0
   56.1900   86.3150   21.4700 C   0  0  0  0  0  2  0  0  0  0  0  0
   55.3220   89.5980   21.9160 C   0  0  0  0  0  0  0  0  0  0  0  0
   54.8210   89.6270   20.6500 N   0  0  0  0  0  0  0  0  0  0  0  0
   54.3930   90.7630   20.0760 C   0  0  0  0  0  0  0  0  0  0  0  0
   54.4520   91.9280   20.7560 N   0  0  0  0  0  0  0  0  0  0  0  0
   54.9310   91.9960   22.0110 C   0  0  0  0  0  0  0  0  0  0  0  0
   55.3690   90.7900   22.5780 C   0  0  0  0  0  3  0  0  0  0  0  0
   55.0040   93.2690   22.7780 C   0  0  0  0  0  1  0  0  0  0  0  0
   53.8790   90.7400   18.7560 N   0  0  0  0  0  0  0  0  0  0  0  0
   53.2590   91.8820   18.1280 C   0  0  0  0  0  2  0  0  0  0  0  0
   53.9040   92.1530   16.8020 C   0  0  0  0  0  2  0  0  0  0  0  0
   54.7580   91.1310   16.3910 O   0  0  0  0  0  0  0  0  0  0  0  0
   54.1430   89.8900   16.5290 C   0  0  0  0  0  2  0  0  0  0  0  0
   53.9720   89.5210   17.9820 C   0  0  0  0  0  2  0  0  0  0  0  0
   53.9350   84.6450   20.4050 C   0  0  0  0  0  0  0  0  0  0  0  0
   54.6030   83.6500   19.9020 O   0  0  0  0  0  0  0  0  0  0  0  0
   54.3430   83.4750   18.6570 C   0  0  0  0  0  0  0  0  0  0  0  0
   55.0690   82.1400   17.4610 Br  0  0  0  0  0  0  0  0  0  0  0  0
   53.4260   84.4210   18.2710 C   0  0  0  0  0  3  0  0  0  0  0  0
   53.1670   85.1700   19.3910 C   0  0  0  0  0  3  0  0  0  0  0  0
  1  3  1  0  0  0  0
  1  2  2  0  0  0  0
  3  4  1  0  0  0  0
  4  5  1  0  0  0  0
  6  5  1  0  0  0  0
  7  6  1  0  0  0  0
  8  7  1  0  0  0  0
  8  3  1  0  0  0  0
  9  6  1  0  0  0  0
  9 14  2  0  0  0  0
 10  9  1  0  0  0  0
 11 10  2  0  0  0  0
 11 12  1  0  0  0  0
 12 13  2  0  0  0  0
 13 14  1  0  0  0  0
 13 15  1  0  0  0  0
 16 11  1  0  0  0  0
 17 16  1  0  0  0  0
 18 17  1  0  0  0  0
 19 20  1  0  0  0  0
 19 18  1  0  0  0  0
 20 21  1  0  0  0  0
 21 16  1  0  0  0  0
 22  1  1  0  0  0  0
 23 22  1  0  0  0  0
 24 23  1  0  0  0  0
 25 24  1  0  0  0  0
 26 24  2  0  0  0  0
 26 27  1  0  0  0  0
 27 22  2  0  0  0  0
M  END
>  <Pose>
1

>  <Score>
-8.838

$$$$
