/Users/jonathanwahrer/Desktop/Msc/3_Semester/Drug_Design_Praktikum/waehrer_HTS_screening/HTS_experiment/out/docking_results/vina_output/3npc/0755_docked.pdbqt
 OpenBabel03192219503D

 28 31  0  0  0  0  0  0  0  0999 V2000
   55.0720   90.7320   21.6400 C   0  0  0  0  0  0  0  0  0  0  0  0
   55.2780   91.6940   22.3940 O   0  0  0  0  0  0  0  0  0  0  0  0
   55.4680   89.4180   22.0050 N   0  0  0  0  0  0  0  0  0  0  0  0
   55.2220   88.2910   21.1100 C   0  0  0  0  0  2  0  0  0  0  0  0
   55.6830   86.9920   21.7690 C   0  0  0  0  0  2  0  0  0  0  0  0
   55.1060   86.9570   23.0980 N   0  0  0  0  0  0  0  0  0  0  0  0
   55.3900   88.0380   24.0020 C   0  0  0  0  0  2  0  0  0  0  0  0
   56.1260   89.1260   23.2630 C   0  0  0  0  0  2  0  0  0  0  0  0
   54.2670   85.8740   23.5200 C   0  0  0  0  0  0  0  0  0  0  0  0
   53.8340   84.9430   22.6590 N   0  0  0  0  0  0  0  0  0  0  0  0
   53.0510   83.9440   23.0810 C   0  0  0  0  0  0  0  0  0  0  0  0
   52.6710   83.8360   24.3690 N   0  0  0  0  0  0  0  0  0  0  0  0
   52.5770   82.9170   22.1200 C   0  0  0  0  0  1  0  0  0  0  0  0
   53.0700   84.7370   25.2850 C   0  0  0  0  0  0  0  0  0  0  0  0
   53.8770   85.7580   24.8300 C   0  0  0  0  0  3  0  0  0  0  0  0
   52.6980   84.6670   26.6500 N   0  0  0  0  0  0  0  0  0  0  0  0
   53.6550   84.2350   27.6480 C   0  0  0  0  0  2  0  0  0  0  0  0
   53.0680   84.5630   29.0050 C   0  0  0  0  0  2  0  0  0  0  0  0
   51.8410   83.8320   29.1670 N   0  0  0  0  0  0  0  0  0  0  0  0
   50.9430   83.9030   28.0580 C   0  0  0  0  0  2  0  0  0  0  0  0
   52.1200   82.4950   29.6260 C   0  0  0  0  0  1  0  0  0  0  0  0
   51.3710   85.0140   27.1220 C   0  0  0  0  0  2  0  0  0  0  0  0
   54.4030   90.9520   20.3370 C   0  0  0  0  0  0  0  0  0  0  0  0
   53.1710   91.3540   20.1460 O   0  0  0  0  0  0  0  0  0  0  0  0
   52.8710   91.4540   18.8760 C   0  0  0  0  0  0  0  0  0  0  0  0
   51.1860   92.0040   18.1630 Br  0  0  0  0  0  0  0  0  0  0  0  0
   53.9900   91.0890   18.1580 C   0  0  0  0  0  3  0  0  0  0  0  0
   54.9480   90.7750   19.0880 C   0  0  0  0  0  3  0  0  0  0  0  0
  1  3  1  0  0  0  0
  1  2  2  0  0  0  0
  3  8  1  0  0  0  0
  4  5  1  0  0  0  0
  4  3  1  0  0  0  0
  5  6  1  0  0  0  0
  6  9  1  0  0  0  0
  6  7  1  0  0  0  0
  8  7  1  0  0  0  0
  9 15  2  0  0  0  0
 10 11  2  0  0  0  0
 10  9  1  0  0  0  0
 11 12  1  0  0  0  0
 12 14  2  0  0  0  0
 13 11  1  0  0  0  0
 14 16  1  0  0  0  0
 15 14  1  0  0  0  0
 16 22  1  0  0  0  0
 16 17  1  0  0  0  0
 17 18  1  0  0  0  0
 18 19  1  0  0  0  0
 19 21  1  0  0  0  0
 20 19  1  0  0  0  0
 22 20  1  0  0  0  0
 23  1  1  0  0  0  0
 24 23  1  0  0  0  0
 25 24  1  0  0  0  0
 26 25  1  0  0  0  0
 27 25  2  0  0  0  0
 27 28  1  0  0  0  0
 28 23  2  0  0  0  0
M  END
>  <Pose>
1

>  <Score>
-8.630

$$$$
