/Users/jonathanwahrer/Desktop/Msc/3_Semester/Drug_Design_Praktikum/waehrer_HTS_screening/HTS_experiment/out/docking_results/vina_output/3npc/0769_docked.pdbqt
 OpenBabel03192219513D

 26 29  0  0  0  0  0  0  0  0999 V2000
   49.7620  101.1070   28.2370 C   0  0  0  0  0  0  0  0  0  0  0  0
   50.1310  102.0130   27.3520 O   0  0  0  0  0  0  0  0  0  0  0  0
   50.1210   99.8000   27.9400 N   0  0  0  0  0  0  0  0  0  0  0  0
   50.8720   99.5300   26.6880 C   0  0  0  0  0  2  0  0  0  0  0  0
   52.1520   98.8090   27.0360 C   0  0  0  0  0  2  0  0  0  0  0  0
   51.8530   97.6210   27.7320 N   0  0  0  0  0  0  0  0  0  0  0  0
   50.4550   97.4490   27.9320 C   0  0  0  0  0  2  0  0  0  0  0  0
   49.8550   98.6450   28.7090 C   0  0  0  0  0  2  0  0  0  0  0  0
   49.0460  101.6940   29.3530 C   0  0  0  0  0  0  0  0  0  0  0  0
   49.6500  102.1050   30.5100 C   0  0  0  0  0  3  0  0  0  0  0  0
   48.8740  102.6610   31.5310 C   0  0  0  0  0  0  0  0  0  0  0  0
   49.6420  103.2470   33.1490 Br  0  0  0  0  0  0  0  0  0  0  0  0
   47.5190  102.7800   31.3420 C   0  0  0  0  0  0  0  0  0  0  0  0
   46.9840  102.3840   30.2420 O   0  0  0  0  0  0  0  0  0  0  0  0
   46.7760  103.2750   32.2300 O   0  0  0  0  0  0  0  0  0  0  0  0
   47.6600  101.8630   29.2680 C   0  0  0  0  0  3  0  0  0  0  0  0
   52.4880   96.4330   27.2580 C   0  0  0  0  0  2  0  0  0  0  0  0
   53.8540   96.6070   26.7300 C   0  0  0  0  0  0  0  0  0  0  0  0
   54.7460   97.5260   27.1780 C   0  0  0  0  0  3  0  0  0  0  0  0
   55.9970   97.6140   26.6200 C   0  0  0  0  0  0  0  0  0  0  0  0
   56.3450   96.7690   25.6020 C   0  0  0  0  0  0  0  0  0  0  0  0
   57.1110   98.4350   26.8560 O   0  0  0  0  0  0  0  0  0  0  0  0
   55.4560   95.8280   25.1310 C   0  0  0  0  0  3  0  0  0  0  0  0
   57.6420   97.0380   25.1980 O   0  0  0  0  0  0  0  0  0  0  0  0
   54.2270   95.7620   25.7010 C   0  0  0  0  0  3  0  0  0  0  0  0
   57.9640   98.3140   25.7340 C   0  0  0  0  0  2  0  0  0  0  0  0
  1  9  1  0  0  0  0
  2  1  2  0  0  0  0
  3  1  1  0  0  0  0
  3  8  1  0  0  0  0
  4  5  1  0  0  0  0
  4  3  1  0  0  0  0
  5  6  1  0  0  0  0
  6  7  1  0  0  0  0
  7  8  1  0  0  0  0
  9 10  1  0  0  0  0
 10 11  2  0  0  0  0
 11 12  1  0  0  0  0
 13 11  1  0  0  0  0
 13 15  2  0  0  0  0
 14 13  1  0  0  0  0
 16  9  2  0  0  0  0
 16 14  1  0  0  0  0
 17  6  1  0  0  0  0
 18 19  1  0  0  0  0
 18 17  1  0  0  0  0
 20 22  1  0  0  0  0
 20 19  2  0  0  0  0
 21 20  1  0  0  0  0
 23 21  2  0  0  0  0
 23 25  1  0  0  0  0
 24 21  1  0  0  0  0
 24 26  1  0  0  0  0
 25 18  2  0  0  0  0
 26 22  1  0  0  0  0
M  END
>  <Pose>
1

>  <Score>
-10.127

$$$$
