/Users/jonathanwahrer/Desktop/Msc/3_Semester/Drug_Design_Praktikum/waehrer_HTS_screening/HTS_experiment/out/docking_results/vina_output/3npc/0783_docked.pdbqt
 OpenBabel03192219523D

 39 42  0  0  1  0  0  0  0  0999 V2000
   50.4010   84.2230   27.5300 C   0  0  1  0  0  3  0  0  0  0  0  0
   51.2880   84.9340   26.5880 C   0  0  2  0  0  0  0  0  0  0  0  0
   51.2610   84.3740   25.1600 C   0  0  0  0  0  2  0  0  0  0  0  0
   51.5540   82.8940   25.1660 C   0  0  2  0  0  0  0  0  0  0  0  0
   51.2940   82.3230   26.3970 O   0  0  0  0  0  0  0  0  0  0  0  0
   50.2060   82.8100   27.0530 C   0  0  0  0  0  2  0  0  0  0  0  0
   53.0070   82.7160   24.7620 C   0  0  0  0  0  2  0  0  0  0  0  0
   53.1130   82.4320   23.2870 C   0  0  0  0  0  2  0  0  0  0  0  0
   52.1620   83.2580   22.5880 N   0  0  0  0  0  0  0  0  0  0  0  0
   50.7600   82.9300   22.8030 C   0  0  0  0  0  2  0  0  0  0  0  0
   50.6580   82.2370   24.1430 C   0  0  0  0  0  2  0  0  0  0  0  0
   52.5820   84.2890   21.7450 C   0  0  0  0  0  0  0  0  0  0  0  0
   51.6400   84.9570   21.1810 O   0  0  0  0  0  0  0  0  0  0  0  0
   52.7030   85.1070   27.0350 C   0  0  0  0  0  1  0  0  0  0  0  0
   50.7690   86.2460   26.4400 O   0  0  0  0  0  0  0  0  0  0  0  0
   50.9970   86.8160   27.2110 H   0  0  0  0  0  0  0  0  0  0  0  0
   50.8370   84.2570   28.9120 N   0  0  0  0  0  0  0  0  0  0  0  0
   51.6190   83.2890   29.3780 C   0  0  0  0  0  3  0  0  0  0  0  0
   52.0420   83.2890   30.6870 C   0  0  0  0  0  0  0  0  0  0  0  0
   53.1730   81.8800   31.3400 Br  0  0  0  0  0  0  0  0  0  0  0  0
   51.6400   84.3180   31.5130 C   0  0  0  0  0  0  0  0  0  0  0  0
   50.8490   85.2690   30.9840 N   0  0  0  0  0  0  0  0  0  0  0  0
   52.0040   84.3630   32.7250 O   0  0  0  0  0  0  0  0  0  0  0  0
   50.4450   85.2510   29.7040 C   0  0  0  0  0  0  0  0  0  0  0  0
   50.5350   86.0650   31.6170 H   0  0  0  0  0  0  0  0  0  0  0  0
   49.6950   86.1970   29.2940 O   0  0  0  0  0  0  0  0  0  0  0  0
   53.9360   84.7170   21.4070 C   0  0  1  0  0  3  0  0  0  0  0  0
   54.2930   84.3680   20.0310 N   0  0  0  0  0  0  0  0  0  0  0  0
   55.3190   84.4660   19.8740 H   0  0  0  0  0  0  0  0  0  0  0  0
   53.8300   85.0550   19.3850 H   0  0  0  0  0  0  0  0  0  0  0  0
   54.1960   86.2010   21.5390 C   0  0  0  0  0  2  0  0  0  0  0  0
   55.3060   86.3370   22.5540 C   0  0  0  0  0  0  0  0  0  0  0  0
   56.5880   86.5970   22.1440 C   0  0  0  0  0  3  0  0  0  0  0  0
   57.5810   86.7140   23.1130 C   0  0  0  0  0  3  0  0  0  0  0  0
   57.3050   86.5780   24.4540 C   0  0  0  0  0  0  0  0  0  0  0  0
   56.0020   86.3180   24.8270 C   0  0  0  0  0  3  0  0  0  0  0  0
   54.9960   86.1940   23.8900 C   0  0  0  0  0  3  0  0  0  0  0  0
   58.3310   86.7060   25.3710 O   0  0  0  0  0  0  0  0  0  0  0  0
   58.6920   87.6000   25.7020 H   0  0  0  0  0  0  0  0  0  0  0  0
  1  6  1  6  0  0  0
  1 17  1  0  0  0  0
  2 14  1  1  0  0  0
  2  1  1  0  0  0  0
  3  4  1  0  0  0  0
  3  2  1  0  0  0  0
  4 11  1  6  0  0  0
  4  5  1  0  0  0  0
  5  6  1  0  0  0  0
  7  4  1  0  0  0  0
  8  7  1  0  0  0  0
  9 10  1  0  0  0  0
  9  8  1  0  0  0  0
 10 11  1  0  0  0  0
 12  9  1  0  0  0  0
 13 12  2  0  0  0  0
 15  2  1  0  0  0  0
 15 16  1  0  0  0  0
 17 18  1  0  0  0  0
 17 24  1  0  0  0  0
 18 19  2  0  0  0  0
 19 20  1  0  0  0  0
 19 21  1  0  0  0  0
 21 23  2  0  0  0  0
 22 21  1  0  0  0  0
 22 25  1  0  0  0  0
 24 22  1  0  0  0  0
 26 24  2  0  0  0  0
 27 31  1  6  0  0  0
 27 12  1  0  0  0  0
 28 27  1  0  0  0  0
 29 28  1  0  0  0  0
 30 28  1  0  0  0  0
 31 32  1  0  0  0  0
 32 37  1  0  0  0  0
 33 32  2  0  0  0  0
 33 34  1  0  0  0  0
 34 35  2  0  0  0  0
 35 36  1  0  0  0  0
 35 38  1  0  0  0  0
 37 36  2  0  0  0  0
 38 39  1  0  0  0  0
M  END
>  <Pose>
1

>  <Score>
-7.792

$$$$
