/Users/jonathanwahrer/Desktop/Msc/3_Semester/Drug_Design_Praktikum/waehrer_HTS_screening/HTS_experiment/out/docking_results/vina_output/3npc/0786_docked.pdbqt
 OpenBabel03192219523D

 25 28  0  0  1  0  0  0  0  0999 V2000
   52.0960   88.6940   18.4840 N   0  0  0  0  0  0  0  0  0  0  0  0
   52.0440   90.0220   18.9380 C   0  0  0  0  0  0  0  0  0  0  0  0
   51.5700   90.2780   20.0650 O   0  0  0  0  0  0  0  0  0  0  0  0
   52.4920   88.4930   17.5460 H   0  0  0  0  0  0  0  0  0  0  0  0
   51.5990   87.6300   19.3270 C   0  0  0  0  0  2  0  0  0  0  0  0
   52.3220   86.3590   19.0700 C   0  0  0  0  0  0  0  0  0  0  0  0
   52.8140   85.9150   17.8990 N   0  0  0  0  0  0  0  0  0  0  0  0
   53.3980   84.7180   18.0830 C   0  0  0  0  0  0  0  0  0  0  0  0
   53.2850   84.3850   19.3810 N   0  0  0  0  0  0  0  0  0  0  0  0
   54.0420   83.8680   17.1880 C   0  0  0  0  0  3  0  0  0  0  0  0
   53.8130   83.2000   19.7990 C   0  0  0  0  0  3  0  0  0  0  0  0
   52.6270   85.3840   19.9970 C   0  0  0  0  0  3  0  0  0  0  0  0
   54.4550   82.3360   18.9390 C   0  0  0  0  0  0  0  0  0  0  0  0
   55.1950   80.6730   19.5320 Br  0  0  0  0  0  0  0  0  0  0  0  0
   54.5730   82.6740   17.6080 C   0  0  0  0  0  3  0  0  0  0  0  0
   52.5470   91.1220   18.0960 C   0  0  1  0  0  3  0  0  0  0  0  0
   53.2560   92.1520   18.9380 C   0  0  0  0  0  2  0  0  0  0  0  0
   54.3660   91.4780   19.5840 N   0  0  0  0  0  0  0  0  0  0  0  0
   55.0460   90.5220   18.9300 C   0  0  0  0  0  0  0  0  0  0  0  0
   54.9190   91.6010   20.7910 C   0  0  0  0  0  0  0  0  0  0  0  0
   56.0060   90.0820   19.7670 N   0  0  0  0  0  0  0  0  0  0  0  0
   54.7550   90.0760   17.5580 C   0  0  0  0  0  2  0  0  0  0  0  0
   55.9330   90.7320   20.8910 N   0  0  0  0  0  0  0  0  0  0  0  0
   53.4540   90.5670   17.0290 C   0  0  0  0  0  2  0  0  0  0  0  0
   54.5360   92.5250   21.9030 C   0  0  0  0  0  1  0  0  0  0  0  0
  1  2  1  0  0  0  0
  1  5  1  0  0  0  0
  2  3  2  0  0  0  0
  4  1  1  0  0  0  0
  6  5  1  0  0  0  0
  6 12  2  0  0  0  0
  7  8  2  0  0  0  0
  7  6  1  0  0  0  0
  8  9  1  0  0  0  0
  9 11  1  0  0  0  0
  9 12  1  0  0  0  0
 10 15  2  0  0  0  0
 10  8  1  0  0  0  0
 13 14  1  0  0  0  0
 13 11  2  0  0  0  0
 15 13  1  0  0  0  0
 16 17  1  0  0  0  0
 16  2  1  1  0  0  0
 17 18  1  0  0  0  0
 18 20  1  0  0  0  0
 19 18  1  0  0  0  0
 19 21  2  0  0  0  0
 20 23  2  0  0  0  0
 20 25  1  0  0  0  0
 21 23  1  0  0  0  0
 22 19  1  0  0  0  0
 24 22  1  0  0  0  0
 24 16  1  0  0  0  0
M  END
>  <Pose>
1

>  <Score>
-8.226

$$$$
