/Users/jonathanwahrer/Desktop/Msc/3_Semester/Drug_Design_Praktikum/waehrer_HTS_screening/HTS_experiment/out/docking_results/vina_output/3npc/0789_docked.pdbqt
 OpenBabel03192219523D

 21 24  0  0  1  0  0  0  0  0999 V2000
   52.4140   98.4190   29.1930 C   0  0  0  0  0  0  0  0  0  0  0  0
   52.6010   98.1910   30.4190 O   0  0  0  0  0  0  0  0  0  0  0  0
   51.4420   99.3880   28.8340 N   0  0  0  0  0  0  0  0  0  0  0  0
   50.7170  100.0740   29.8400 C   0  0  0  0  0  2  0  0  0  0  0  0
   49.3780  100.5380   29.4050 C   0  0  2  0  0  3  0  0  0  0  0  0
   49.0260  100.2550   28.0430 N   0  0  2  0  0  0  0  0  0  0  0  0
   50.1050  100.5940   27.1340 C   0  0  0  0  0  2  0  0  0  0  0  0
   51.2380   99.6300   27.4320 C   0  0  0  0  0  2  0  0  0  0  0  0
   47.8240  101.0060   27.8410 C   0  0  0  0  0  2  0  0  0  0  0  0
   48.0190  102.2900   28.6070 C   0  0  0  0  0  2  0  0  0  0  0  0
   49.2360  102.0500   29.4720 C   0  0  0  0  0  2  0  0  0  0  0  0
   53.2040   97.6800   28.1980 C   0  0  0  0  0  0  0  0  0  0  0  0
   54.4610   97.8780   27.7770 N   0  0  0  0  0  0  0  0  0  0  0  0
   54.8170   96.9920   26.8600 N   0  0  0  0  0  0  0  0  0  0  0  0
   55.9540   96.7800   26.1470 C   0  0  0  0  0  3  0  0  0  0  0  0
   53.7890   96.1550   26.6310 C   0  0  0  0  0  0  0  0  0  0  0  0
   56.0660   95.7590   25.2300 C   0  0  0  0  0  0  0  0  0  0  0  0
   57.6850   95.4760   24.2330 Br  0  0  0  0  0  0  0  0  0  0  0  0
   55.0000   94.9150   25.0130 C   0  0  0  0  0  3  0  0  0  0  0  0
   53.8880   95.1440   25.7270 N   0  0  0  0  0  0  0  0  0  0  0  0
   52.7720   96.5760   27.4640 C   0  0  0  0  0  3  0  0  0  0  0  0
  1  2  2  0  0  0  0
  3  1  1  0  0  0  0
  3  4  1  0  0  0  0
  5 11  1  6  0  0  0
  5  4  1  0  0  0  0
  6  7  1  6  0  0  0
  6  5  1  0  0  0  0
  7  8  1  0  0  0  0
  8  3  1  0  0  0  0
  9  6  1  0  0  0  0
  9 10  1  0  0  0  0
 10 11  1  0  0  0  0
 12  1  1  0  0  0  0
 13 12  2  0  0  0  0
 14 13  1  0  0  0  0
 15 14  1  0  0  0  0
 16 14  1  0  0  0  0
 16 21  2  0  0  0  0
 17 15  2  0  0  0  0
 18 17  1  0  0  0  0
 19 17  1  0  0  0  0
 19 20  2  0  0  0  0
 20 16  1  0  0  0  0
 21 12  1  0  0  0  0
M  END
>  <Pose>
1

>  <Score>
-7.800

$$$$
