/Users/jonathanwahrer/Desktop/Msc/3_Semester/Drug_Design_Praktikum/waehrer_HTS_screening/HTS_experiment/out/docking_results/vina_output/3npc/0797_docked.pdbqt
 OpenBabel03192219533D

 28 31  0  0  0  0  0  0  0  0999 V2000
   54.8540   85.0790   21.5600 O   0  0  0  0  0  0  0  0  0  0  0  0
   53.6790   84.7550   20.8640 C   0  0  0  0  0  2  0  0  0  0  0  0
   53.9030   83.8540   19.7040 C   0  0  0  0  0  0  0  0  0  0  0  0
   53.8940   84.3170   18.4310 N   0  0  0  0  0  0  0  0  0  0  0  0
   54.0970   83.5240   17.3650 C   0  0  0  0  0  0  0  0  0  0  0  0
   54.3260   82.2040   17.4850 N   0  0  0  0  0  0  0  0  0  0  0  0
   54.0820   84.0370   16.0660 C   0  0  0  0  0  3  0  0  0  0  0  0
   54.5280   81.4220   16.4030 C   0  0  0  0  0  3  0  0  0  0  0  0
   54.3430   81.6960   18.7350 C   0  0  0  0  0  0  0  0  0  0  0  0
   54.5180   81.8990   15.1110 C   0  0  0  0  0  0  0  0  0  0  0  0
   54.8100   80.7420   13.6080 Br  0  0  0  0  0  0  0  0  0  0  0  0
   54.2870   83.2490   14.9540 C   0  0  0  0  0  3  0  0  0  0  0  0
   54.1340   82.5020   19.8510 C   0  0  0  0  0  3  0  0  0  0  0  0
   54.5520   80.4790   18.8560 O   0  0  0  0  0  0  0  0  0  0  0  0
   55.4670   86.3150   21.5650 C   0  0  0  0  0  0  0  0  0  0  0  0
   56.6980   86.3930   21.3810 O   0  0  0  0  0  0  0  0  0  0  0  0
   54.6350   87.5200   21.7900 C   0  0  0  0  0  2  0  0  0  0  0  0
   54.5650   88.3270   20.6060 N   0  0  0  0  0  0  0  0  0  0  0  0
   55.4770   89.3350   20.2300 C   0  0  0  0  0  0  0  0  0  0  0  0
   56.5110   89.7370   20.8230 O   0  0  0  0  0  0  0  0  0  0  0  0
   55.0260   89.9090   18.9440 C   0  0  0  0  0  0  0  0  0  0  0  0
   53.8820   89.2540   18.5770 C   0  0  0  0  0  0  0  0  0  0  0  0
   55.5560   90.9140   18.1520 C   0  0  0  0  0  3  0  0  0  0  0  0
   53.2190   89.5610   17.4230 C   0  0  0  0  0  3  0  0  0  0  0  0
   53.5750   88.2570   19.6060 C   0  0  0  0  0  0  0  0  0  0  0  0
   53.7250   90.5540   16.6210 C   0  0  0  0  0  3  0  0  0  0  0  0
   54.8800   91.2160   16.9900 C   0  0  0  0  0  3  0  0  0  0  0  0
   52.5750   87.4770   19.5700 O   0  0  0  0  0  0  0  0  0  0  0  0
  1 15  1  0  0  0  0
  2  1  1  0  0  0  0
  3 13  2  0  0  0  0
  3  2  1  0  0  0  0
  4  3  1  0  0  0  0
  5  6  1  0  0  0  0
  5  4  2  0  0  0  0
  6  9  1  0  0  0  0
  7  5  1  0  0  0  0
  8  6  1  0  0  0  0
  9 14  2  0  0  0  0
  9 13  1  0  0  0  0
 10  8  2  0  0  0  0
 11 10  1  0  0  0  0
 12 10  1  0  0  0  0
 12  7  2  0  0  0  0
 15 17  1  0  0  0  0
 16 15  2  0  0  0  0
 18 17  1  0  0  0  0
 19 18  1  0  0  0  0
 19 20  2  0  0  0  0
 21 19  1  0  0  0  0
 22 21  1  0  0  0  0
 22 25  1  0  0  0  0
 23 21  2  0  0  0  0
 24 22  2  0  0  0  0
 25 18  1  0  0  0  0
 26 27  2  0  0  0  0
 26 24  1  0  0  0  0
 27 23  1  0  0  0  0
 28 25  2  0  0  0  0
M  END
>  <Pose>
1

>  <Score>
-9.422

$$$$
