/Users/jonathanwahrer/Desktop/Msc/3_Semester/Drug_Design_Praktikum/waehrer_HTS_screening/HTS_experiment/out/docking_results/vina_output/3npc/0800_docked.pdbqt
 OpenBabel03192219533D

 29 32  0  0  1  0  0  0  0  0999 V2000
   55.4500   86.2590   21.5070 C   0  0  0  0  0  0  0  0  0  0  0  0
   56.7050   86.3400   21.5580 O   0  0  0  0  0  0  0  0  0  0  0  0
   54.8900   85.0470   21.1820 O   0  0  0  0  0  0  0  0  0  0  0  0
   53.6860   84.9270   20.4490 C   0  0  0  0  0  2  0  0  0  0  0  0
   53.9010   83.9690   19.3350 C   0  0  0  0  0  0  0  0  0  0  0  0
   53.9180   84.3710   18.0530 N   0  0  0  0  0  0  0  0  0  0  0  0
   54.1140   83.5060   17.0280 C   0  0  1  0  0  3  0  0  0  0  0  0
   54.3000   82.1900   17.2620 N   0  0  0  0  0  0  0  0  0  0  0  0
   54.1220   83.9700   15.7280 C   0  0  0  0  0  3  0  0  0  0  0  0
   54.4960   81.3150   16.2610 C   0  0  0  0  0  3  0  0  0  0  0  0
   54.2910   81.7380   18.5360 C   0  0  0  0  0  0  0  0  0  0  0  0
   54.5050   81.7730   14.9610 C   0  0  0  0  0  0  0  0  0  0  0  0
   54.7840   80.5250   13.5420 Br  0  0  0  0  0  0  0  0  0  0  0  0
   54.3180   83.1150   14.6670 C   0  0  0  0  0  3  0  0  0  0  0  0
   54.0890   82.6310   19.5930 C   0  0  0  0  0  2  0  0  0  0  0  0
   54.4620   80.5280   18.7570 O   0  0  0  0  0  0  0  0  0  0  0  0
   54.6760   87.4920   21.8040 C   0  0  0  0  0  2  0  0  0  0  0  0
   54.6930   88.4280   20.7190 N   0  0  0  0  0  0  0  0  0  0  0  0
   55.7370   89.3490   20.4090 C   0  0  0  0  0  0  0  0  0  0  0  0
   56.8140   89.4710   21.0600 O   0  0  0  0  0  0  0  0  0  0  0  0
   55.3460   90.0860   19.2560 N   0  0  0  0  0  0  0  0  0  0  0  0
   53.9850   89.7480   18.9260 C   0  0  0  0  0  0  0  0  0  0  0  0
   55.9660   90.7500   18.7600 H   0  0  0  0  0  0  0  0  0  0  0  0
   53.0170   90.8640   19.2170 C   0  0  0  0  0  2  0  0  0  0  0  0
   53.7640   89.4800   17.4760 C   0  0  0  0  0  2  0  0  0  0  0  0
   53.6490   88.5930   19.7570 C   0  0  0  0  0  0  0  0  0  0  0  0
   51.8260   90.5110   18.3810 C   0  0  0  0  0  2  0  0  0  0  0  0
   52.2540   89.4810   17.3780 C   0  0  0  0  0  2  0  0  0  0  0  0
   52.6450   87.8460   19.6850 O   0  0  0  0  0  0  0  0  0  0  0  0
  1  2  2  0  0  0  0
  1 17  1  0  0  0  0
  3  1  1  0  0  0  0
  4  3  1  0  0  0  0
  5 15  1  0  0  0  0
  5  4  1  0  0  0  0
  6  5  2  0  0  0  0
  7  9  1  6  0  0  0
  7  8  1  0  0  0  0
  7  6  1  0  0  0  0
  8 11  1  0  0  0  0
 10  8  1  0  0  0  0
 11 16  2  0  0  0  0
 11 15  1  0  0  0  0
 12 10  2  0  0  0  0
 13 12  1  0  0  0  0
 14 12  1  0  0  0  0
 14  9  2  0  0  0  0
 18 17  1  0  0  0  0
 19 18  1  0  0  0  0
 19 20  2  0  0  0  0
 21 19  1  0  0  0  0
 22 24  1  0  0  0  0
 22 21  1  0  0  0  0
 22 26  1  0  0  0  0
 23 21  1  0  0  0  0
 25 22  1  0  0  0  0
 26 18  1  0  0  0  0
 27 24  1  0  0  0  0
 28 25  1  0  0  0  0
 28 27  1  0  0  0  0
 29 26  2  0  0  0  0
M  END
>  <Pose>
1

>  <Score>
-8.918

$$$$
