/Users/jonathanwahrer/Desktop/Msc/3_Semester/Drug_Design_Praktikum/waehrer_HTS_screening/HTS_experiment/out/docking_results/vina_output/3npc/0803_docked.pdbqt
 OpenBabel03192219533D

 31 34  0  0  0  0  0  0  0  0999 V2000
   57.0900   87.5270   24.5610 Br  0  0  0  0  0  0  0  0  0  0  0  0
   55.9990   87.8390   23.0370 C   0  0  0  0  0  0  0  0  0  0  0  0
   56.2970   88.7460   22.0810 C   0  0  0  0  0  2  0  0  0  0  0  0
   55.5800   88.9090   20.9650 N   0  0  0  0  0  0  0  0  0  0  0  0
   54.5110   88.1360   20.7810 C   0  0  0  0  0  0  0  0  0  0  0  0
   53.7600   88.2900   19.6540 N   0  0  0  0  0  0  0  0  0  0  0  0
   54.0390   89.1830   18.7150 C   0  0  0  0  0  0  0  0  0  0  0  0
   55.1380   89.9940   18.8820 C   0  0  0  0  0  0  0  0  0  0  0  0
   55.4750   90.9480   17.9420 C   0  0  0  0  0  3  0  0  0  0  0  0
   54.7290   91.1430   16.7800 C   0  0  0  0  0  3  0  0  0  0  0  0
   53.6300   90.3260   16.6230 C   0  0  0  0  0  3  0  0  0  0  0  0
   53.2890   89.3680   17.5620 C   0  0  0  0  0  3  0  0  0  0  0  0
   55.8910   89.8200   20.0370 C   0  0  0  0  0  0  0  0  0  0  0  0
   56.8930   90.5520   20.2010 O   0  0  0  0  0  0  0  0  0  0  0  0
   54.1900   87.2200   21.7240 N   0  0  0  0  0  0  0  0  0  0  0  0
   54.8490   87.0010   22.8540 C   0  0  0  0  0  0  0  0  0  0  0  0
   53.3140   86.6650   21.4560 H   0  0  0  0  0  0  0  0  0  0  0  0
   54.5290   86.1790   23.8880 N   0  0  0  0  0  0  0  0  0  0  0  0
   55.8100   85.7110   23.9750 H   0  0  0  0  0  0  0  0  0  0  0  0
   54.2140   85.3690   24.9080 C   0  0  0  0  0  0  0  0  0  0  0  0
   53.3470   84.2910   24.6900 C   0  0  0  0  0  0  0  0  0  0  0  0
   52.8240   83.6000   25.7330 C   0  0  0  0  0  3  0  0  0  0  0  0
   53.1410   83.9420   27.0250 C   0  0  0  0  0  3  0  0  0  0  0  0
   53.9920   84.9870   27.3060 C   0  0  0  0  0  3  0  0  0  0  0  0
   54.5070   85.6740   26.2320 C   0  0  0  0  0  3  0  0  0  0  0  0
   53.0850   83.7690   23.3420 C   0  0  0  0  0  0  0  0  0  0  0  0
   53.7930   82.8120   22.9400 O   0  0  0  0  0  0  0  0  0  0  0  0
   52.1370   84.2390   22.4800 O   0  0  0  0  0  0  0  0  0  0  0  0
   50.7590   83.9570   22.6260 C   0  0  0  0  0  2  0  0  0  0  0  0
   50.3850   82.7100   21.8190 C   0  0  0  0  0  2  0  0  0  0  0  0
   49.5760   81.7890   22.7010 C   0  0  0  0  0  1  0  0  0  0  0  0
  2  1  1  0  0  0  0
  3  2  1  0  0  0  0
  4  3  1  0  0  0  0
  5  4  1  0  0  0  0
  5 15  1  0  0  0  0
  6  5  2  0  0  0  0
  7  8  1  0  0  0  0
  7  6  1  0  0  0  0
  8 13  1  0  0  0  0
  9  8  2  0  0  0  0
 10  9  1  0  0  0  0
 11 10  2  0  0  0  0
 11 12  1  0  0  0  0
 12  7  2  0  0  0  0
 13 14  2  0  0  0  0
 13  4  1  0  0  0  0
 15 16  1  0  0  0  0
 16  2  2  0  0  0  0
 16 18  1  0  0  0  0
 17 15  1  0  0  0  0
 18 19  1  0  0  0  0
 18 20  1  0  0  0  0
 20 25  1  0  0  0  0
 21 20  2  0  0  0  0
 21 22  1  0  0  0  0
 22 23  2  0  0  0  0
 23 24  1  0  0  0  0
 25 24  2  0  0  0  0
 26 21  1  0  0  0  0
 27 26  2  0  0  0  0
 28 29  1  0  0  0  0
 28 26  1  0  0  0  0
 30 29  1  0  0  0  0
 30 31  1  0  0  0  0
M  END
>  <Pose>
1

>  <Score>
-8.621

$$$$
