/Users/jonathanwahrer/Desktop/Msc/3_Semester/Drug_Design_Praktikum/waehrer_HTS_screening/HTS_experiment/out/docking_results/vina_output/3npc/0814_docked.pdbqt
 OpenBabel03192219543D

 31 34  0  0  1  0  0  0  0  0999 V2000
   55.6160   89.7560   20.9510 N   0  0  0  0  0  0  0  0  0  0  0  0
   55.7150   90.7720   21.7770 N   0  0  0  0  0  0  0  0  0  0  0  0
   54.8130   91.7180   21.4710 C   0  0  0  0  0  0  0  0  0  0  0  0
   54.1250   91.2710   20.4110 N   0  0  0  0  0  0  0  0  0  0  0  0
   54.6340   90.0450   20.0910 C   0  0  2  0  0  3  0  0  0  0  0  0
   54.1840   89.1850   18.9980 C   0  0  0  0  0  2  0  0  0  0  0  0
   54.2860   89.8480   17.6450 C   0  0  0  0  0  2  0  0  0  0  0  0
   53.2360   90.9210   17.4600 C   0  0  0  0  0  2  0  0  0  0  0  0
   53.4890   92.1430   18.2880 C   0  0  0  0  0  2  0  0  0  0  0  0
   53.0460   91.9630   19.7330 C   0  0  0  0  0  2  0  0  0  0  0  0
   54.5930   93.0050   22.1450 C   0  0  0  0  0  2  0  0  0  0  0  0
   54.9690   92.9760   23.5250 N   0  0  0  0  0  0  0  0  0  0  0  0
   55.1250   92.0740   23.9990 H   0  0  0  0  0  0  0  0  0  0  0  0
   55.1440   94.1540   24.3060 C   0  0  0  0  0  0  0  0  0  0  0  0
   56.3870   94.6890   24.5610 C   0  0  0  0  0  3  0  0  0  0  0  0
   56.5430   95.8260   25.3100 C   0  0  0  0  0  3  0  0  0  0  0  0
   55.4480   96.4500   25.8200 C   0  0  0  0  0  0  0  0  0  0  0  0
   54.2030   95.9170   25.5680 C   0  0  0  0  0  3  0  0  0  0  0  0
   54.0330   94.7740   24.8140 C   0  0  0  0  0  3  0  0  0  0  0  0
   55.5740   97.5910   26.5760 O   0  0  0  0  0  0  0  0  0  0  0  0
   56.8000   98.2520   26.7650 C   0  0  0  0  0  1  0  0  0  0  0  0
   56.4070   88.5610   20.9610 C   0  0  0  0  0  2  0  0  0  0  0  0
   56.2130   87.7790   22.2110 C   0  0  0  0  0  0  0  0  0  0  0  0
   56.9410   88.0680   23.1970 O   0  0  0  0  0  0  0  0  0  0  0  0
   55.2370   86.7190   22.3350 C   0  0  0  0  0  0  0  0  0  0  0  0
   54.7900   86.2800   23.5600 C   0  0  0  0  0  3  0  0  0  0  0  0
   53.8510   85.2580   23.6650 C   0  0  0  0  0  3  0  0  0  0  0  0
   53.3440   84.6610   22.5230 C   0  0  0  0  0  0  0  0  0  0  0  0
   52.0450   83.2490   22.6780 Br  0  0  0  0  0  0  0  0  0  0  0  0
   53.7840   85.0930   21.2950 C   0  0  0  0  0  3  0  0  0  0  0  0
   54.7120   86.1030   21.2210 C   0  0  0  0  0  3  0  0  0  0  0  0
  1 22  1  0  0  0  0
  1  2  1  0  0  0  0
  3  2  2  0  0  0  0
  3 11  1  0  0  0  0
  4  3  1  0  0  0  0
  5  6  1  1  0  0  0
  5  4  1  0  0  0  0
  5  1  1  0  0  0  0
  7  6  1  0  0  0  0
  8  7  1  0  0  0  0
  8  9  1  0  0  0  0
  9 10  1  0  0  0  0
 10  4  1  0  0  0  0
 11 12  1  0  0  0  0
 12 13  1  0  0  0  0
 12 14  1  0  0  0  0
 14 15  2  0  0  0  0
 14 19  1  0  0  0  0
 15 16  1  0  0  0  0
 16 17  2  0  0  0  0
 17 20  1  0  0  0  0
 18 17  1  0  0  0  0
 19 18  2  0  0  0  0
 20 21  1  0  0  0  0
 22 23  1  0  0  0  0
 23 25  1  0  0  0  0
 23 24  2  0  0  0  0
 25 26  1  0  0  0  0
 26 27  2  0  0  0  0
 28 29  1  0  0  0  0
 28 27  1  0  0  0  0
 30 28  2  0  0  0  0
 31 30  1  0  0  0  0
 31 25  2  0  0  0  0
M  END
>  <Pose>
1

>  <Score>
-9.649

$$$$
