/Users/jonathanwahrer/Desktop/Msc/3_Semester/Drug_Design_Praktikum/waehrer_HTS_screening/HTS_experiment/out/docking_results/vina_output/3npc/0833_docked.pdbqt
 OpenBabel03192219543D

 28 31  0  0  1  0  0  0  0  0999 V2000
   53.3610   86.0640   20.3040 C   0  0  1  0  0  0  0  0  0  0  0  0
   54.6050   86.7430   20.6380 N   0  0  0  0  0  0  0  0  0  0  0  0
   55.8840   86.0460   20.7190 C   0  0  0  0  0  2  0  0  0  0  0  0
   56.9510   86.8510   21.3640 C   0  0  0  0  0  2  0  0  0  0  0  0
   56.5610   87.4330   22.6990 C   0  0  0  0  0  2  0  0  0  0  0  0
   56.1100   88.8540   22.4200 C   0  0  0  0  0  2  0  0  0  0  0  0
   54.9350   88.9880   21.6100 C   0  0  0  0  0  3  0  0  0  0  0  0
   54.2850   88.0830   20.8430 C   0  0  0  0  0  0  0  0  0  0  0  0
   53.1400   88.4490   20.1090 N   0  0  0  0  0  4  0  0  0  0  0  0
   52.6130   87.1880   19.6770 C   0  0  0  0  0  2  0  0  0  0  0  0
   52.4080   88.9440   20.6690 H   0  0  0  0  0  0  0  0  0  0  0  0
   53.6170   84.9330   19.3880 C   0  0  0  0  0  0  0  0  0  0  0  0
   53.4780   85.1500   18.0150 C   0  0  0  0  0  3  0  0  0  0  0  0
   53.6890   84.0540   17.1760 C   0  0  0  0  0  3  0  0  0  0  0  0
   54.0160   82.8240   17.6970 C   0  0  0  0  0  0  0  0  0  0  0  0
   54.2980   81.3470   16.5110 Br  0  0  0  0  0  0  0  0  0  0  0  0
   54.1470   82.6480   19.0650 C   0  0  0  0  0  3  0  0  0  0  0  0
   53.9410   83.7220   19.9130 C   0  0  0  0  0  3  0  0  0  0  0  0
   52.8160   85.6070   21.4750 O   0  0  0  0  0  0  0  0  0  0  0  0
   53.4390   85.1050   22.0410 H   0  0  0  0  0  0  0  0  0  0  0  0
   53.6050   89.2480   19.0210 C   0  0  0  0  0  0  0  0  0  0  0  0
   53.5850   90.6300   19.0960 C   0  0  0  0  0  0  0  0  0  0  0  0
   53.9860   91.3140   17.9560 C   0  0  0  0  0  3  0  0  0  0  0  0
   54.3910   90.7020   16.7840 C   0  0  0  0  0  3  0  0  0  0  0  0
   54.3950   89.2910   16.7560 C   0  0  0  0  0  3  0  0  0  0  0  0
   54.0060   88.6390   17.8700 C   0  0  0  0  0  3  0  0  0  0  0  0
   53.1900   91.2450   20.2440 O   0  0  0  0  0  0  0  0  0  0  0  0
   53.9790   92.2280   20.8630 C   0  0  0  0  0  1  0  0  0  0  0  0
  1  2  1  0  0  0  0
  1 19  1  1  0  0  0
  2  3  1  0  0  0  0
  2  8  1  0  0  0  0
  3  4  1  0  0  0  0
  4  5  1  0  0  0  0
  6  5  1  0  0  0  0
  7  6  1  0  0  0  0
  8  7  2  0  0  0  0
  9 11  1  0  0  0  0
  9  8  1  0  0  0  0
 10  9  1  0  0  0  0
 10  1  1  0  0  0  0
 12 18  1  0  0  0  0
 12  1  1  0  0  0  0
 13 12  2  0  0  0  0
 14 15  2  0  0  0  0
 14 13  1  0  0  0  0
 15 17  1  0  0  0  0
 16 15  1  0  0  0  0
 17 18  2  0  0  0  0
 19 20  1  0  0  0  0
 21 22  1  0  0  0  0
 21  9  1  0  0  0  0
 22 27  1  0  0  0  0
 23 22  2  0  0  0  0
 24 23  1  0  0  0  0
 25 24  2  0  0  0  0
 25 26  1  0  0  0  0
 26 21  2  0  0  0  0
 27 28  1  0  0  0  0
M  END
>  <Pose>
1

>  <Score>
-7.528

$$$$
