/Users/jonathanwahrer/Desktop/Msc/3_Semester/Drug_Design_Praktikum/waehrer_HTS_screening/HTS_experiment/out/docking_results/vina_output/3npc/0835_docked.pdbqt
 OpenBabel03192219543D

 27 30  0  0  1  0  0  0  0  0999 V2000
   54.5580   85.9440   20.8290 C   0  0  2  0  0  0  0  0  0  0  0  0
   53.7910   87.0270   20.2520 N   0  0  0  0  0  0  0  0  0  0  0  0
   53.9150   88.4600   20.0900 C   0  0  0  0  0  2  0  0  0  0  0  0
   53.3180   88.9420   18.7840 C   0  0  0  0  0  2  0  0  0  0  0  0
   51.8820   88.5390   18.7490 C   0  0  0  0  0  2  0  0  0  0  0  0
   51.7110   87.1020   19.0460 C   0  0  0  0  0  3  0  0  0  0  0  0
   52.6090   86.4050   19.7490 C   0  0  0  0  0  0  0  0  0  0  0  0
   52.5520   85.0460   20.1200 N   0  0  0  0  0  4  0  0  0  0  0  0
   53.4820   84.9920   21.2670 C   0  0  0  0  0  2  0  0  0  0  0  0
   51.6130   84.8150   20.5840 H   0  0  0  0  0  0  0  0  0  0  0  0
   55.4190   86.3740   21.9570 C   0  0  0  0  0  0  0  0  0  0  0  0
   56.7740   86.5350   21.7650 C   0  0  0  0  0  3  0  0  0  0  0  0
   57.6340   86.9470   22.7820 C   0  0  0  0  0  3  0  0  0  0  0  0
   57.1100   87.2030   24.0290 C   0  0  0  0  0  0  0  0  0  0  0  0
   58.2840   87.7620   25.4430 Br  0  0  0  0  0  0  0  0  0  0  0  0
   55.7570   87.0450   24.2370 C   0  0  0  0  0  3  0  0  0  0  0  0
   54.9180   86.6370   23.2180 C   0  0  0  0  0  3  0  0  0  0  0  0
   55.3550   85.2920   19.8940 O   0  0  0  0  0  0  0  0  0  0  0  0
   54.7440   84.7980   19.2960 H   0  0  0  0  0  0  0  0  0  0  0  0
   52.8930   84.1080   19.1510 C   0  0  0  0  0  0  0  0  0  0  0  0
   52.9120   82.7540   19.3770 C   0  0  0  0  0  0  0  0  0  0  0  0
   53.2840   81.8690   18.3620 C   0  0  0  0  0  3  0  0  0  0  0  0
   53.6370   82.3310   17.1200 C   0  0  0  0  0  3  0  0  0  0  0  0
   53.6180   83.6880   16.8840 C   0  0  0  0  0  3  0  0  0  0  0  0
   53.2520   84.5520   17.8850 C   0  0  0  0  0  3  0  0  0  0  0  0
   52.5700   82.2030   20.5950 O   0  0  0  0  0  0  0  0  0  0  0  0
   53.5080   81.5420   21.3770 C   0  0  0  0  0  1  0  0  0  0  0  0
  1 18  1  6  0  0  0
  1  9  1  0  0  0  0
  1 11  1  0  0  0  0
  2  1  1  0  0  0  0
  3  2  1  0  0  0  0
  4  3  1  0  0  0  0
  5  4  1  0  0  0  0
  5  6  1  0  0  0  0
  6  7  2  0  0  0  0
  7  8  1  0  0  0  0
  7  2  1  0  0  0  0
  8 10  1  0  0  0  0
  8  9  1  0  0  0  0
 11 17  1  0  0  0  0
 12 11  2  0  0  0  0
 12 13  1  0  0  0  0
 13 14  2  0  0  0  0
 14 16  1  0  0  0  0
 14 15  1  0  0  0  0
 17 16  2  0  0  0  0
 19 18  1  0  0  0  0
 20 21  1  0  0  0  0
 20  8  1  0  0  0  0
 21 26  1  0  0  0  0
 22 21  2  0  0  0  0
 23 22  1  0  0  0  0
 24 23  2  0  0  0  0
 24 25  1  0  0  0  0
 25 20  2  0  0  0  0
 26 27  1  0  0  0  0
M  END
>  <Pose>
1

>  <Score>
-7.184

$$$$
