/Users/jonathanwahrer/Desktop/Msc/3_Semester/Drug_Design_Praktikum/waehrer_HTS_screening/HTS_experiment/out/docking_results/vina_output/3npc/0836_docked.pdbqt
 OpenBabel03192219553D

 27 30  0  0  1  0  0  0  0  0999 V2000
   54.0330   83.1630   19.3050 C   0  0  2  0  0  0  0  0  0  0  0  0
   52.8990   83.3980   20.1630 N   0  0  0  0  0  0  0  0  0  0  0  0
   51.5350   82.8940   20.2500 C   0  0  0  0  0  2  0  0  0  0  0  0
   50.9630   82.8740   21.6140 C   0  0  0  0  0  2  0  0  0  0  0  0
   51.9060   83.2610   22.7260 C   0  0  0  0  0  2  0  0  0  0  0  0
   52.8520   84.3050   22.3430 C   0  0  0  0  0  3  0  0  0  0  0  0
   53.3240   84.3650   21.1110 C   0  0  0  0  0  0  0  0  0  0  0  0
   54.2330   85.2470   20.4610 N   0  0  0  0  0  4  0  0  0  0  0  0
   54.7930   84.4660   19.4020 C   0  0  0  0  0  2  0  0  0  0  0  0
   54.9740   85.4930   21.1710 H   0  0  0  0  0  0  0  0  0  0  0  0
   53.6990   82.7950   17.9310 C   0  0  0  0  0  0  0  0  0  0  0  0
   53.4050   81.4850   17.6120 C   0  0  0  0  0  3  0  0  0  0  0  0
   53.0830   81.0800   16.3330 C   0  0  0  0  0  3  0  0  0  0  0  0
   53.0390   81.9870   15.2910 C   0  0  0  0  0  0  0  0  0  0  0  0
   52.6000   81.4510   13.5130 Br  0  0  0  0  0  0  0  0  0  0  0  0
   53.3300   83.3000   15.5920 C   0  0  0  0  0  3  0  0  0  0  0  0
   53.6510   83.6980   16.8760 C   0  0  0  0  0  3  0  0  0  0  0  0
   54.7720   82.1070   19.8770 O   0  0  0  0  0  0  0  0  0  0  0  0
   54.4400   81.2820   19.4450 H   0  0  0  0  0  0  0  0  0  0  0  0
   53.5520   86.3910   20.0680 C   0  0  0  0  0  0  0  0  0  0  0  0
   52.3570   86.3020   19.3940 C   0  0  0  0  0  3  0  0  0  0  0  0
   51.6700   87.4610   18.9970 C   0  0  0  0  0  3  0  0  0  0  0  0
   52.1590   88.7100   19.2620 C   0  0  0  0  0  0  0  0  0  0  0  0
   53.3830   88.7980   19.9510 C   0  0  0  0  0  3  0  0  0  0  0  0
   54.0320   87.6410   20.3280 C   0  0  0  0  0  3  0  0  0  0  0  0
   51.5320   89.9000   18.8980 O   0  0  0  0  0  0  0  0  0  0  0  0
   51.9400   91.1860   19.2360 C   0  0  0  0  0  1  0  0  0  0  0  0
  1  9  1  0  0  0  0
  1 18  1  1  0  0  0
  1  2  1  0  0  0  0
  2  3  1  0  0  0  0
  2  7  1  0  0  0  0
  3  4  1  0  0  0  0
  4  5  1  0  0  0  0
  6  5  1  0  0  0  0
  7  6  2  0  0  0  0
  8  7  1  0  0  0  0
  8 10  1  0  0  0  0
  9  8  1  0  0  0  0
 11  1  1  0  0  0  0
 12 11  1  0  0  0  0
 13 12  2  0  0  0  0
 14 16  2  0  0  0  0
 14 13  1  0  0  0  0
 15 14  1  0  0  0  0
 16 17  1  0  0  0  0
 17 11  2  0  0  0  0
 19 18  1  0  0  0  0
 20 25  1  0  0  0  0
 20  8  1  0  0  0  0
 21 20  2  0  0  0  0
 22 23  2  0  0  0  0
 22 21  1  0  0  0  0
 23 24  1  0  0  0  0
 24 25  2  0  0  0  0
 26 27  1  0  0  0  0
 26 23  1  0  0  0  0
M  END
>  <Pose>
1

>  <Score>
-7.060

$$$$
