/Users/jonathanwahrer/Desktop/Msc/3_Semester/Drug_Design_Praktikum/waehrer_HTS_screening/HTS_experiment/out/docking_results/vina_output/3npc/0850_docked.pdbqt
 OpenBabel03192219553D

 29 32  0  0  1  0  0  0  0  0999 V2000
   52.0790   84.5030   28.3770 N   0  0  0  0  0  4  0  0  0  0  0  0
   51.3000   84.7360   27.1980 C   0  0  1  0  0  0  0  0  0  0  0  0
   50.6180   83.3750   27.0620 C   0  0  0  0  0  2  0  0  0  0  0  0
   51.6870   82.4340   27.4310 N   0  0  0  0  0  0  0  0  0  0  0  0
   51.6140   81.0650   27.0620 C   0  0  0  0  0  2  0  0  0  0  0  0
   52.8020   80.2390   27.4530 C   0  0  0  0  0  2  0  0  0  0  0  0
   54.0600   80.9360   27.0120 C   0  0  0  0  0  2  0  0  0  0  0  0
   54.5980   81.6240   28.2750 C   0  0  0  0  0  2  0  0  0  0  0  0
   53.8730   82.8970   28.4600 C   0  0  0  0  0  3  0  0  0  0  0  0
   52.6460   83.2280   28.1280 C   0  0  0  0  0  0  0  0  0  0  0  0
   52.8120   85.2790   28.4190 H   0  0  0  0  0  0  0  0  0  0  0  0
   50.4670   85.8090   27.1940 O   0  0  0  0  0  0  0  0  0  0  0  0
   50.9290   86.6620   27.0970 H   0  0  0  0  0  0  0  0  0  0  0  0
   52.1540   84.8630   25.9820 C   0  0  0  0  0  0  0  0  0  0  0  0
   51.8980   84.2760   24.7790 C   0  0  0  0  0  3  0  0  0  0  0  0
   52.7450   84.4420   23.6630 C   0  0  0  0  0  3  0  0  0  0  0  0
   53.8780   85.2150   23.7490 C   0  0  0  0  0  0  0  0  0  0  0  0
   54.1470   85.8110   24.9570 C   0  0  0  0  0  3  0  0  0  0  0  0
   53.3180   85.6450   26.0430 C   0  0  0  0  0  3  0  0  0  0  0  0
   54.7260   85.3910   22.6430 O   0  0  0  0  0  0  0  0  0  0  0  0
   55.1800   86.6670   22.2580 C   0  0  0  0  0  2  0  0  0  0  0  0
   56.6530   86.6990   21.9980 C   0  0  0  0  0  1  0  0  0  0  0  0
   51.4370   84.5450   29.5960 C   0  0  0  0  0  0  0  0  0  0  0  0
   51.9490   85.3510   30.6110 C   0  0  0  0  0  3  0  0  0  0  0  0
   51.3380   85.4580   31.8510 C   0  0  0  0  0  3  0  0  0  0  0  0
   50.1830   84.7610   32.1290 C   0  0  0  0  0  0  0  0  0  0  0  0
   49.3120   84.9110   33.8300 Br  0  0  0  0  0  0  0  0  0  0  0  0
   49.6590   83.9650   31.1590 C   0  0  0  0  0  3  0  0  0  0  0  0
   50.2950   83.8760   29.9230 C   0  0  0  0  0  3  0  0  0  0  0  0
  1 11  1  0  0  0  0
  1 23  1  0  0  0  0
  2 12  1  1  0  0  0
  2  1  1  0  0  0  0
  3  2  1  0  0  0  0
  3  4  1  0  0  0  0
  4 10  1  0  0  0  0
  5  4  1  0  0  0  0
  5  6  1  0  0  0  0
  7  6  1  0  0  0  0
  7  8  1  0  0  0  0
  8  9  1  0  0  0  0
 10  1  1  0  0  0  0
 10  9  2  0  0  0  0
 13 12  1  0  0  0  0
 14 19  1  0  0  0  0
 14  2  1  0  0  0  0
 15 14  2  0  0  0  0
 16 17  2  0  0  0  0
 16 15  1  0  0  0  0
 17 18  1  0  0  0  0
 18 19  2  0  0  0  0
 20 17  1  0  0  0  0
 21 20  1  0  0  0  0
 22 21  1  0  0  0  0
 23 29  2  0  0  0  0
 23 24  1  0  0  0  0
 24 25  2  0  0  0  0
 25 26  1  0  0  0  0
 26 27  1  0  0  0  0
 28 26  2  0  0  0  0
 29 28  1  0  0  0  0
M  END
>  <Pose>
1

>  <Score>
-6.197

$$$$
