/Users/jonathanwahrer/Desktop/Msc/3_Semester/Drug_Design_Praktikum/waehrer_HTS_screening/HTS_experiment/out/docking_results/vina_output/3npc/0860_docked.pdbqt
 OpenBabel03192219553D

 29 32  0  0  1  0  0  0  0  0999 V2000
   52.4820   91.1180   18.4260 Br  0  0  0  0  0  0  0  0  0  0  0  0
   53.1630   89.5170   19.2270 C   0  0  0  0  0  0  0  0  0  0  0  0
   52.3910   88.3770   19.3370 C   0  0  0  0  0  3  0  0  0  0  0  0
   52.8850   87.2290   19.9130 C   0  0  0  0  0  0  0  0  0  0  0  0
   54.1840   87.2730   20.3750 C   0  0  0  0  0  0  0  0  0  0  0  0
   54.9610   88.4090   20.2670 C   0  0  0  0  0  3  0  0  0  0  0  0
   54.4620   89.5570   19.6890 C   0  0  0  0  0  0  0  0  0  0  0  0
   55.3100   90.7780   19.5780 C   0  0  0  0  0  1  0  0  0  0  0  0
   54.6620   86.0990   20.9540 O   0  0  0  0  0  0  0  0  0  0  0  0
   53.8540   85.0470   21.3620 C   0  0  0  0  0  2  0  0  0  0  0  0
   52.6190   84.8320   20.5540 C   0  0  2  0  0  0  0  0  0  0  0  0
   51.9990   86.0630   19.9920 C   0  0  2  0  0  3  0  0  0  0  0  0
   51.6410   84.2550   21.4820 N   0  0  0  0  0  4  0  0  0  0  0  0
   52.1100   84.1820   22.8230 C   0  0  0  0  0  2  0  0  0  0  0  0
   50.8730   83.9240   23.6970 C   0  0  0  0  0  2  0  0  0  0  0  0
   50.3900   82.6800   23.3270 O   0  0  0  0  0  0  0  0  0  0  0  0
   50.0050   82.6140   21.9930 C   0  0  0  0  0  2  0  0  0  0  0  0
   51.1800   82.9650   21.0680 C   0  0  0  0  0  2  0  0  0  0  0  0
   50.8230   84.9050   21.4570 H   0  0  0  0  0  0  0  0  0  0  0  0
   52.8120   83.8120   19.4500 C   0  0  0  0  0  2  0  0  0  0  0  0
   54.1380   83.7850   18.9130 N   0  0  0  0  0  4  0  0  0  0  0  0
   54.6800   82.4410   18.8230 C   0  0  0  0  0  2  0  0  0  0  0  0
   55.3750   82.2000   17.4910 C   0  0  0  0  0  2  0  0  0  0  0  0
   54.5020   82.2840   16.4190 O   0  0  0  0  0  0  0  0  0  0  0  0
   53.5190   83.2440   16.6400 C   0  0  0  0  0  2  0  0  0  0  0  0
   54.1330   84.3020   17.5340 C   0  0  0  0  0  2  0  0  0  0  0  0
   54.8330   84.3560   19.4170 H   0  0  0  0  0  0  0  0  0  0  0  0
   51.5150   85.8310   18.6820 O   0  0  0  0  0  0  0  0  0  0  0  0
   50.6050   85.4680   18.6820 H   0  0  0  0  0  0  0  0  0  0  0  0
  1  2  1  0  0  0  0
  2  3  2  0  0  0  0
  2  7  1  0  0  0  0
  3  4  1  0  0  0  0
  4 12  1  0  0  0  0
  4  5  2  0  0  0  0
  5  9  1  0  0  0  0
  6  5  1  0  0  0  0
  7  6  2  0  0  0  0
  8  7  1  0  0  0  0
  9 10  1  0  0  0  0
 11 20  1  6  0  0  0
 11 10  1  0  0  0  0
 11 13  1  0  0  0  0
 12 28  1  6  0  0  0
 12 11  1  0  0  0  0
 13 14  1  0  0  0  0
 14 15  1  0  0  0  0
 16 15  1  0  0  0  0
 17 16  1  0  0  0  0
 18 13  1  0  0  0  0
 18 17  1  0  0  0  0
 19 13  1  0  0  0  0
 21 27  1  0  0  0  0
 21 20  1  0  0  0  0
 22 21  1  0  0  0  0
 23 22  1  0  0  0  0
 24 25  1  0  0  0  0
 24 23  1  0  0  0  0
 25 26  1  0  0  0  0
 26 21  1  0  0  0  0
 29 28  1  0  0  0  0
M  END
>  <Pose>
1

>  <Score>
-7.180

$$$$
