/Users/jonathanwahrer/Desktop/Msc/3_Semester/Drug_Design_Praktikum/waehrer_HTS_screening/HTS_experiment/out/docking_results/vina_output/3npc/0862_docked.pdbqt
 OpenBabel03192219563D

 30 33  0  0  0  0  0  0  0  0999 V2000
   51.7500   88.6780   17.8430 Br  0  0  0  0  0  0  0  0  0  0  0  0
   53.0350   88.2960   19.1710 C   0  0  0  0  0  0  0  0  0  0  0  0
   53.0500   87.0320   19.7070 C   0  0  0  0  0  0  0  0  0  0  0  0
   53.9600   86.6300   20.7000 C   0  0  0  0  0  0  0  0  0  0  0  0
   54.8950   87.5620   21.1660 C   0  0  0  0  0  3  0  0  0  0  0  0
   54.8680   88.8260   20.6200 C   0  0  0  0  0  0  0  0  0  0  0  0
   53.9640   89.2010   19.6430 C   0  0  0  0  0  0  0  0  0  0  0  0
   53.9600   90.5890   19.0680 C   0  0  0  0  0  1  0  0  0  0  0  0
   56.1430   90.0930   21.2550 Br  0  0  0  0  0  0  0  0  0  0  0  0
   53.9230   85.2820   21.2340 C   0  0  0  0  0  0  0  0  0  0  0  0
   54.2640   85.1490   22.4360 O   0  0  0  0  0  0  0  0  0  0  0  0
   53.4920   84.2050   20.3230 C   0  0  0  0  0  0  0  0  0  0  0  0
   52.0670   84.7760   19.8900 C   0  0  0  0  0  2  0  0  0  0  0  0
   52.1740   86.0330   19.3240 O   0  0  0  0  0  0  0  0  0  0  0  0
   53.2260   82.9070   20.9110 C   0  0  0  0  0  2  0  0  0  0  0  0
   53.1040   82.5670   22.2480 N   0  0  0  0  0  4  0  0  0  0  0  0
   53.4750   81.3050   22.7580 C   0  0  0  0  0  2  0  0  0  0  0  0
   52.6910   80.8890   23.9960 C   0  0  0  0  0  2  0  0  0  0  0  0
   51.2440   80.6710   23.6920 C   0  0  0  0  0  2  0  0  0  0  0  0
   50.8350   81.6460   22.6310 C   0  0  0  0  0  2  0  0  0  0  0  0
   51.7210   82.8470   22.6930 C   0  0  0  0  0  2  0  0  0  0  0  0
   53.6330   83.2930   22.8910 H   0  0  0  0  0  0  0  0  0  0  0  0
   54.3430   84.1970   19.1110 C   0  0  0  0  0  2  0  0  0  0  0  0
   54.0820   83.3160   18.0510 N   0  0  0  0  0  4  0  0  0  0  0  0
   54.0610   84.0930   16.8030 C   0  0  0  0  0  2  0  0  0  0  0  0
   53.5000   83.2950   15.6450 C   0  0  0  0  0  2  0  0  0  0  0  0
   54.5020   82.1530   15.4070 C   0  0  0  0  0  2  0  0  0  0  0  0
   54.4890   81.3720   16.7010 C   0  0  0  0  0  2  0  0  0  0  0  0
   55.0710   82.2820   17.7970 C   0  0  0  0  0  2  0  0  0  0  0  0
   53.1720   82.8130   18.0370 H   0  0  0  0  0  0  0  0  0  0  0  0
  1  2  1  0  0  0  0
  2  7  2  0  0  0  0
  2  3  1  0  0  0  0
  3  4  2  0  0  0  0
  4  5  1  0  0  0  0
  4 10  1  0  0  0  0
  6  5  2  0  0  0  0
  6  9  1  0  0  0  0
  7  6  1  0  0  0  0
  8  7  1  0  0  0  0
 10 11  2  0  0  0  0
 12 15  1  0  0  0  0
 12 10  1  0  0  0  0
 13 12  1  0  0  0  0
 14  3  1  0  0  0  0
 14 13  1  0  0  0  0
 15 16  1  0  0  0  0
 16 21  1  0  0  0  0
 16 17  1  0  0  0  0
 16 22  1  0  0  0  0
 17 18  1  0  0  0  0
 19 18  1  0  0  0  0
 20 21  1  0  0  0  0
 20 19  1  0  0  0  0
 23 12  1  0  0  0  0
 24 23  1  0  0  0  0
 25 24  1  0  0  0  0
 26 25  1  0  0  0  0
 27 26  1  0  0  0  0
 27 28  1  0  0  0  0
 28 29  1  0  0  0  0
 29 24  1  0  0  0  0
 30 24  1  0  0  0  0
M  END
>  <Pose>
1

>  <Score>
-7.815

$$$$
