/Users/jonathanwahrer/Desktop/Msc/3_Semester/Drug_Design_Praktikum/waehrer_HTS_screening/HTS_experiment/out/docking_results/vina_output/3npc/0865_docked.pdbqt
 OpenBabel03192219563D

 30 33  0  0  0  0  0  0  0  0999 V2000
   55.2830   90.9650   21.6980 C   0  0  0  0  0  0  0  0  0  0  0  0
   54.6130   90.3580   20.6940 N   0  0  0  0  0  4  0  0  0  0  0  0
   54.3990   89.0190   20.6580 C   0  0  0  0  0  0  0  0  0  0  0  0
   54.8900   88.3110   21.6770 N   0  0  0  0  0  0  0  0  0  0  0  0
   55.5650   88.8470   22.7090 C   0  0  0  0  0  0  0  0  0  0  0  0
   55.7430   90.1790   22.6870 N   0  0  0  0  0  2  0  0  0  0  0  0
   55.4690   92.3660   21.6720 N   0  0  0  0  0  0  0  0  0  0  0  0
   55.9660   92.7950   20.8740 H   0  0  0  0  0  0  0  0  0  0  0  0
   54.9940   93.1650   22.7030 N   0  0  0  0  0  0  0  0  0  0  0  0
   55.7460   93.7030   23.5950 C   0  0  0  0  0  3  0  0  0  0  0  0
   55.1750   94.5310   24.6490 C   0  0  0  0  0  0  0  0  0  0  0  0
   55.8640   95.5970   25.2050 C   0  0  0  0  0  3  0  0  0  0  0  0
   55.3190   96.3780   26.2030 C   0  0  0  0  0  0  0  0  0  0  0  0
   54.0540   96.1220   26.6890 C   0  0  0  0  0  0  0  0  0  0  0  0
   56.2920   97.8410   26.9510 Br  0  0  0  0  0  0  0  0  0  0  0  0
   53.4970   96.8810   27.6730 F   0  0  0  0  0  0  0  0  0  0  0  0
   53.3590   95.0670   26.1460 C   0  0  0  0  0  3  0  0  0  0  0  0
   53.9120   94.2830   25.1420 C   0  0  0  0  0  3  0  0  0  0  0  0
   53.6870   88.4320   19.5750 N   0  0  0  0  0  0  0  0  0  0  0  0
   53.4860   89.0700   18.2960 C   0  0  0  0  0  2  0  0  0  0  0  0
   51.9710   89.0290   18.0990 C   0  0  0  0  0  2  0  0  0  0  0  0
   51.5850   87.7510   17.9310 O   0  0  0  0  0  0  0  0  0  0  0  0
   52.0430   86.7940   18.7480 C   0  0  0  0  0  2  0  0  0  0  0  0
   53.1100   87.1150   19.7170 C   0  0  0  0  0  2  0  0  0  0  0  0
   56.0580   88.0280   23.7600 N   0  0  0  0  0  0  0  0  0  0  0  0
   55.7240   86.6170   23.7670 C   0  0  0  0  0  2  0  0  0  0  0  0
   56.3190   85.9630   24.9940 C   0  0  0  0  0  2  0  0  0  0  0  0
   57.6390   86.2470   25.2000 O   0  0  0  0  0  0  0  0  0  0  0  0
   58.0340   87.5390   24.9840 C   0  0  0  0  0  2  0  0  0  0  0  0
   56.8760   88.5120   24.8320 C   0  0  0  0  0  2  0  0  0  0  0  0
  1  6  1  0  0  0  0
  2  1  2  0  0  0  0
  3  2  2  0  0  0  0
  3  4  1  0  0  0  0
  4  5  2  0  0  0  0
  5 25  1  0  0  0  0
  6  5  1  0  0  0  0
  7  1  1  0  0  0  0
  7  9  1  0  0  0  0
  8  7  1  0  0  0  0
  9 10  2  0  0  0  0
 10 11  1  0  0  0  0
 11 18  2  0  0  0  0
 11 12  1  0  0  0  0
 12 13  2  0  0  0  0
 13 14  1  0  0  0  0
 13 15  1  0  0  0  0
 14 16  1  0  0  0  0
 17 14  2  0  0  0  0
 18 17  1  0  0  0  0
 19 24  1  0  0  0  0
 19  3  1  0  0  0  0
 20 19  1  0  0  0  0
 21 20  1  0  0  0  0
 22 21  1  0  0  0  0
 22 23  1  0  0  0  0
 23 24  1  0  0  0  0
 25 26  1  0  0  0  0
 25 30  1  0  0  0  0
 26 27  1  0  0  0  0
 27 28  1  0  0  0  0
 29 28  1  0  0  0  0
 30 29  1  0  0  0  0
M  END
>  <Pose>
1

>  <Score>
-9.625

$$$$
