/Users/jonathanwahrer/Desktop/Msc/3_Semester/Drug_Design_Praktikum/waehrer_HTS_screening/HTS_experiment/out/docking_results/vina_output/3npc/0873_docked.pdbqt
 OpenBabel03192219573D

 32 35  0  0  1  0  0  0  0  0999 V2000
   52.3420   84.3130   19.4570 C   0  0  2  0  0  3  0  0  0  0  0  0
   52.5010   85.7590   19.4410 N   0  0  0  0  0  0  0  0  0  0  0  0
   53.6180   85.9350   20.3380 C   0  0  0  0  0  0  0  0  0  0  0  0
   54.5090   86.8240   20.3180 O   0  0  0  0  0  0  0  0  0  0  0  0
   53.5800   84.8540   21.3630 C   0  0  0  0  0  0  0  0  0  0  0  0
   54.3080   84.5930   22.3190 O   0  0  0  0  0  0  0  0  0  0  0  0
   52.3670   84.0870   20.9540 C   0  0  0  0  0  0  0  0  0  0  0  0
   51.5670   83.4020   21.7340 C   0  0  0  0  0  0  0  0  0  0  0  0
   50.4670   82.7260   21.1670 O   0  0  0  0  0  1  0  0  0  0  0  0
   51.8430   86.8130   18.7960 C   0  0  0  0  0  2  0  0  0  0  0  0
   51.6110   88.1020   19.5010 C   0  0  0  0  0  2  0  0  0  0  0  0
   52.6260   89.0910   19.2720 N   0  0  0  0  0  4  0  0  0  0  0  0
   52.0240   90.4060   19.3470 C   0  0  0  0  0  2  0  0  0  0  0  0
   53.0820   91.4880   19.2290 C   0  0  0  0  0  2  0  0  0  0  0  0
   53.7390   91.3470   18.0220 O   0  0  0  0  0  0  0  0  0  0  0  0
   54.2910   90.0750   17.9110 C   0  0  0  0  0  2  0  0  0  0  0  0
   53.1780   89.0180   17.9040 C   0  0  0  0  0  2  0  0  0  0  0  0
   53.4690   88.9830   19.8720 H   0  0  0  0  0  0  0  0  0  0  0  0
   53.4620   83.5650   18.8650 C   0  0  0  0  0  0  0  0  0  0  0  0
   54.0830   83.9420   17.6920 C   0  0  0  0  0  0  0  0  0  0  0  0
   53.7250   85.0310   17.0290 F   0  0  0  0  0  0  0  0  0  0  0  0
   55.1250   83.1880   17.1450 C   0  0  0  0  0  3  0  0  0  0  0  0
   55.5660   82.0560   17.7490 C   0  0  0  0  0  3  0  0  0  0  0  0
   54.9770   81.6500   18.9120 C   0  0  0  0  0  3  0  0  0  0  0  0
   53.9450   82.4130   19.4350 C   0  0  0  0  0  3  0  0  0  0  0  0
   51.7770   83.3190   23.1710 C   0  0  0  0  0  0  0  0  0  0  0  0
   52.3940   82.2040   23.6940 C   0  0  0  0  0  3  0  0  0  0  0  0
   52.6020   82.0480   25.0540 C   0  0  0  0  0  3  0  0  0  0  0  0
   52.1850   83.0300   25.9270 C   0  0  0  0  0  0  0  0  0  0  0  0
   51.5720   84.1400   25.4330 C   0  0  0  0  0  3  0  0  0  0  0  0
   52.4600   82.8400   27.8270 Br  0  0  0  0  0  0  0  0  0  0  0  0
   51.3670   84.2870   24.0500 C   0  0  0  0  0  3  0  0  0  0  0  0
  1 19  1  6  0  0  0
  1  7  1  0  0  0  0
  2  1  1  0  0  0  0
  2  3  1  0  0  0  0
  3  5  1  0  0  0  0
  4  3  2  0  0  0  0
  5  6  2  0  0  0  0
  7  5  1  0  0  0  0
  7  8  2  0  0  0  0
  8 26  1  0  0  0  0
  9  8  1  0  0  0  0
 10  2  1  0  0  0  0
 10 11  1  0  0  0  0
 12 13  1  0  0  0  0
 12 11  1  0  0  0  0
 12 18  1  0  0  0  0
 14 13  1  0  0  0  0
 15 14  1  0  0  0  0
 16 15  1  0  0  0  0
 17 16  1  0  0  0  0
 17 12  1  0  0  0  0
 19 25  1  0  0  0  0
 20 19  2  0  0  0  0
 21 20  1  0  0  0  0
 22 20  1  0  0  0  0
 22 23  2  0  0  0  0
 23 24  1  0  0  0  0
 24 25  2  0  0  0  0
 26 27  2  0  0  0  0
 26 32  1  0  0  0  0
 27 28  1  0  0  0  0
 28 29  2  0  0  0  0
 29 31  1  0  0  0  0
 30 29  1  0  0  0  0
 32 30  2  0  0  0  0
M  END
>  <Pose>
1

>  <Score>
-7.738

$$$$
