/Users/jonathanwahrer/Desktop/Msc/3_Semester/Drug_Design_Praktikum/waehrer_HTS_screening/HTS_experiment/out/docking_results/vina_output/3npc/0886_docked.pdbqt
 OpenBabel03192219573D

 31 34  0  0  0  0  0  0  0  0999 V2000
   54.4210   97.1170   26.6270 N   0  0  0  0  0  0  0  0  0  0  0  0
   54.2250   95.9310   26.0280 C   0  0  0  0  0  0  0  0  0  0  0  0
   53.1100   95.3440   26.0790 O   0  0  0  0  0  0  0  0  0  0  0  0
   55.3610   95.4760   25.3850 C   0  0  0  0  0  0  0  0  0  0  0  0
   56.2750   96.4180   25.6020 C   0  0  0  0  0  0  0  0  0  0  0  0
   57.3970   96.0160   24.9980 N   0  0  0  0  0  0  0  0  0  0  0  0
   57.1670   94.8500   24.4240 N   0  0  0  0  0  0  0  0  0  0  0  0
   55.9090   94.4810   24.6440 N   0  0  0  0  0  0  0  0  0  0  0  0
   55.7150   97.4260   26.3590 C   0  0  0  0  0  0  0  0  0  0  0  0
   56.2460   98.4940   26.7770 O   0  0  0  0  0  0  0  0  0  0  0  0
   58.2970   96.5710   25.0030 H   0  0  0  0  0  0  0  0  0  0  0  0
   57.8440   94.2930   23.8840 H   0  0  0  0  0  0  0  0  0  0  0  0
   55.2210   93.2990   24.2120 C   0  0  0  0  0  2  0  0  0  0  0  0
   55.2200   93.0590   22.7650 C   0  0  0  0  0  0  0  0  0  0  0  0
   55.7410   93.9210   22.0420 O   0  0  0  0  0  0  0  0  0  0  0  0
   54.6520   91.8960   22.2360 N   0  0  0  0  0  0  0  0  0  0  0  0
   54.2170   91.1860   22.9290 H   0  0  0  0  0  0  0  0  0  0  0  0
   54.5520   91.4850   20.8860 C   0  0  0  0  0  0  0  0  0  0  0  0
   53.4810   91.8290   20.0960 C   0  0  0  0  0  3  0  0  0  0  0  0
   53.3470   91.4410   18.7600 C   0  0  0  0  0  3  0  0  0  0  0  0
   54.3600   90.6750   18.2400 C   0  0  0  0  0  0  0  0  0  0  0  0
   55.4410   90.3180   19.0080 C   0  0  0  0  0  3  0  0  0  0  0  0
   54.2420   90.1050   16.4030 Br  0  0  0  0  0  0  0  0  0  0  0  0
   55.5480   90.7120   20.3160 C   0  0  0  0  0  3  0  0  0  0  0  0
   53.4970   97.8940   27.3870 C   0  0  0  0  0  0  0  0  0  0  0  0
   53.1830   97.6520   28.7050 C   0  0  0  0  0  3  0  0  0  0  0  0
   52.2640   98.4420   29.4000 C   0  0  0  0  0  3  0  0  0  0  0  0
   51.6460   99.4890   28.7770 C   0  0  0  0  0  0  0  0  0  0  0  0
   50.7480  100.2550   29.4650 F   0  0  0  0  0  0  0  0  0  0  0  0
   51.9450   99.7490   27.4590 C   0  0  0  0  0  3  0  0  0  0  0  0
   52.8530   98.9640   26.7850 C   0  0  0  0  0  3  0  0  0  0  0  0
  1 25  1  0  0  0  0
  2  3  2  0  0  0  0
  2  1  1  0  0  0  0
  4  5  2  0  0  0  0
  4  2  1  0  0  0  0
  5  9  1  0  0  0  0
  6 11  1  0  0  0  0
  6  5  1  0  0  0  0
  7  8  1  0  0  0  0
  7  6  1  0  0  0  0
  8  4  1  0  0  0  0
  9  1  1  0  0  0  0
  9 10  2  0  0  0  0
 12  7  1  0  0  0  0
 13  8  1  0  0  0  0
 14 13  1  0  0  0  0
 15 14  2  0  0  0  0
 16 14  1  0  0  0  0
 16 17  1  0  0  0  0
 18 16  1  0  0  0  0
 19 18  2  0  0  0  0
 20 19  1  0  0  0  0
 21 20  2  0  0  0  0
 21 22  1  0  0  0  0
 22 24  2  0  0  0  0
 23 21  1  0  0  0  0
 24 18  1  0  0  0  0
 25 26  1  0  0  0  0
 26 27  2  0  0  0  0
 28 27  1  0  0  0  0
 28 29  1  0  0  0  0
 30 28  2  0  0  0  0
 31 25  2  0  0  0  0
 31 30  1  0  0  0  0
M  END
>  <Pose>
1

>  <Score>
-10.327

$$$$
