/Users/jonathanwahrer/Desktop/Msc/3_Semester/Drug_Design_Praktikum/waehrer_HTS_screening/HTS_experiment/out/docking_results/vina_output/3npc/0892_docked.pdbqt
 OpenBabel03192219573D

 27 30  0  0  1  0  0  0  0  0999 V2000
   52.0670   83.2690   19.9960 C   0  0  2  0  0  3  0  0  0  0  0  0
   51.6550   84.5590   19.4910 N   0  0  0  0  0  0  0  0  0  0  0  0
   52.4990   85.6980   19.6900 C   0  0  0  0  0  0  0  0  0  0  0  0
   52.6880   87.2030   18.8400 S   0  0  0  0  0  0  0  0  0  0  0  0
   53.9010   87.9120   19.7960 C   0  0  0  0  0  0  0  0  0  0  0  0
   54.1280   86.9710   20.7400 C   0  0  0  0  0  0  0  0  0  0  0  0
   53.4140   85.8340   20.6930 C   0  0  0  0  0  0  0  0  0  0  0  0
   53.4320   84.6340   21.5760 C   0  0  0  0  0  0  0  0  0  0  0  0
   54.2050   84.5650   22.5620 O   0  0  0  0  0  0  0  0  0  0  0  0
   52.5770   83.5370   21.3300 N   0  0  0  0  0  0  0  0  0  0  0  0
   55.1960   87.3480   21.7610 C   0  0  0  0  0  2  0  0  0  0  0  0
   55.3190   88.8360   21.7810 C   0  0  0  0  0  2  0  0  0  0  0  0
   55.7760   89.2140   20.4340 N   0  0  0  0  0  4  0  0  0  0  0  0
   54.5600   89.2300   19.6490 C   0  0  0  0  0  2  0  0  0  0  0  0
   56.4440   90.4930   20.4460 C   0  0  0  0  0  1  0  0  0  0  0  0
   50.7570   84.7130   18.9800 H   0  0  0  0  0  0  0  0  0  0  0  0
   52.2930   82.8890   22.1080 H   0  0  0  0  0  0  0  0  0  0  0  0
   56.3790   88.4510   20.0600 H   0  0  0  0  0  0  0  0  0  0  0  0
   53.1590   82.7950   19.1060 C   0  0  0  0  0  0  0  0  0  0  0  0
   54.0460   81.8000   19.4390 C   0  0  0  0  0  0  0  0  0  0  0  0
   55.0630   81.3990   18.5700 C   0  0  0  0  0  0  0  0  0  0  0  0
   53.9340   81.1760   20.6610 O   0  0  0  0  0  1  0  0  0  0  0  0
   56.3890   79.8700   19.1410 I   0  0  0  0  0  0  0  0  0  0  0  0
   55.2160   81.9820   17.3500 C   0  0  0  0  0  3  0  0  0  0  0  0
   54.3380   82.9790   16.9970 C   0  0  0  0  0  0  0  0  0  0  0  0
   53.3370   83.3800   17.8440 C   0  0  0  0  0  3  0  0  0  0  0  0
   54.5480   83.7970   15.2910 Br  0  0  0  0  0  0  0  0  0  0  0  0
  1 19  1  6  0  0  0
  1 10  1  0  0  0  0
  2  3  1  0  0  0  0
  2  1  1  0  0  0  0
  3  7  2  0  0  0  0
  4  3  1  0  0  0  0
  4  5  1  0  0  0  0
  5  6  2  0  0  0  0
  6 11  1  0  0  0  0
  7  6  1  0  0  0  0
  7  8  1  0  0  0  0
  8  9  2  0  0  0  0
 10  8  1  0  0  0  0
 10 17  1  0  0  0  0
 11 12  1  0  0  0  0
 13 15  1  0  0  0  0
 13 12  1  0  0  0  0
 14  5  1  0  0  0  0
 14 13  1  0  0  0  0
 16  2  1  0  0  0  0
 18 13  1  0  0  0  0
 19 20  1  0  0  0  0
 20 22  1  0  0  0  0
 21 23  1  0  0  0  0
 21 20  2  0  0  0  0
 24 21  1  0  0  0  0
 25 24  2  0  0  0  0
 25 26  1  0  0  0  0
 26 19  2  0  0  0  0
 27 25  1  0  0  0  0
M  END
>  <Pose>
1

>  <Score>
-7.921

$$$$
