/Users/jonathanwahrer/Desktop/Msc/3_Semester/Drug_Design_Praktikum/waehrer_HTS_screening/HTS_experiment/out/docking_results/vina_output/3npc/0895_docked.pdbqt
 OpenBabel03192219583D

 28 31  0  0  1  0  0  0  0  0999 V2000
   47.4680  102.1880   29.4550 C   0  0  2  0  0  3  0  0  0  0  0  0
   48.2940  103.3170   29.8830 N   0  0  0  0  0  0  0  0  0  0  0  0
   47.9660  104.0710   31.0770 C   0  0  0  0  0  0  0  0  0  0  0  0
   48.5020  105.5860   31.6860 S   0  0  0  0  0  0  0  0  0  0  0  0
   47.5860  105.6410   33.1110 C   0  0  0  0  0  0  0  0  0  0  0  0
   46.8780  104.4700   33.0820 C   0  0  0  0  0  0  0  0  0  0  0  0
   47.0810  103.6580   32.0220 C   0  0  0  0  0  0  0  0  0  0  0  0
   46.4390  102.3390   31.7560 C   0  0  0  0  0  0  0  0  0  0  0  0
   45.5930  101.8390   32.5580 O   0  0  0  0  0  0  0  0  0  0  0  0
   46.7790  101.6310   30.5870 N   0  0  0  0  0  0  0  0  0  0  0  0
   45.9740  104.3230   34.3010 C   0  0  0  0  0  2  0  0  0  0  0  0
   46.7770  104.5800   35.5490 C   0  0  0  0  0  2  0  0  0  0  0  0
   47.6340  105.7150   35.4660 N   0  0  0  0  0  4  0  0  0  0  0  0
   47.3560  106.5450   34.2980 C   0  0  0  0  0  2  0  0  0  0  0  0
   49.0020  105.2120   35.2670 C   0  0  0  0  0  1  0  0  0  0  0  0
   49.1330  103.6130   29.3520 H   0  0  0  0  0  0  0  0  0  0  0  0
   46.5160  100.6130   30.5170 H   0  0  0  0  0  0  0  0  0  0  0  0
   47.6310  106.3150   36.3320 H   0  0  0  0  0  0  0  0  0  0  0  0
   48.4180  101.1540   28.9610 C   0  0  0  0  0  0  0  0  0  0  0  0
   48.2180   99.8380   29.3580 C   0  0  0  0  0  3  0  0  0  0  0  0
   49.0210   98.8090   28.9690 C   0  0  0  0  0  0  0  0  0  0  0  0
   50.0950   99.1090   28.1320 C   0  0  0  0  0  0  0  0  0  0  0  0
   50.3170  100.4080   27.7220 C   0  0  0  0  0  0  0  0  0  0  0  0
   50.9330   98.0920   27.7160 O   0  0  0  0  0  1  0  0  0  0  0  0
   51.9470  100.8400   26.4550 I   0  0  0  0  0  0  0  0  0  0  0  0
   49.4770  101.4280   28.1400 C   0  0  0  0  0  3  0  0  0  0  0  0
   48.8460   97.4850   29.3480 O   0  0  0  0  0  0  0  0  0  0  0  0
   47.8430   96.7240   28.7030 C   0  0  0  0  0  1  0  0  0  0  0  0
  1 19  1  1  0  0  0
  1  2  1  0  0  0  0
  1 10  1  0  0  0  0
  2  3  1  0  0  0  0
  3  4  1  0  0  0  0
  3  7  2  0  0  0  0
  4  5  1  0  0  0  0
  5 14  1  0  0  0  0
  6  5  2  0  0  0  0
  6 11  1  0  0  0  0
  7  6  1  0  0  0  0
  8  7  1  0  0  0  0
  8  9  2  0  0  0  0
 10  8  1  0  0  0  0
 11 12  1  0  0  0  0
 13 12  1  0  0  0  0
 13 18  1  0  0  0  0
 14 13  1  0  0  0  0
 15 13  1  0  0  0  0
 16  2  1  0  0  0  0
 17 10  1  0  0  0  0
 19 20  1  0  0  0  0
 21 27  1  0  0  0  0
 21 20  2  0  0  0  0
 22 21  1  0  0  0  0
 23 22  2  0  0  0  0
 23 26  1  0  0  0  0
 24 22  1  0  0  0  0
 25 23  1  0  0  0  0
 26 19  2  0  0  0  0
 28 27  1  0  0  0  0
M  END
>  <Pose>
1

>  <Score>
-7.184

$$$$
