/Users/jonathanwahrer/Desktop/Msc/3_Semester/Drug_Design_Praktikum/waehrer_HTS_screening/HTS_experiment/out/docking_results/vina_output/3npc/0906_docked.pdbqt
 OpenBabel03192219583D

 27 30  0  0  1  0  0  0  0  0999 V2000
   51.8960   98.1260   27.5470 C   0  0  1  0  0  3  0  0  0  0  0  0
   51.0010   97.2550   28.0000 N   0  0  0  0  0  0  0  0  0  0  0  0
   49.7450   97.5440   28.3770 C   0  0  0  0  0  0  0  0  0  0  0  0
   48.6720   96.9010   28.8530 N   0  0  0  0  0  2  0  0  0  0  0  0
   47.6900   97.7340   29.0450 O   0  0  0  0  0  0  0  0  0  0  0  0
   48.0670   98.9350   28.7100 N   0  0  0  0  0  0  0  0  0  0  0  0
   49.3390   98.8800   28.2860 C   0  0  0  0  0  0  0  0  0  0  0  0
   50.1880   99.7900   27.8430 N   0  0  0  0  0  0  0  0  0  0  0  0
   51.4280   99.4530   27.4800 C   0  0  0  0  0  0  0  0  0  0  0  0
   52.0210  100.5690   27.0870 N   0  0  0  0  0  0  0  0  0  0  0  0
   51.1610  101.5960   27.2020 N   0  0  0  0  0  0  0  0  0  0  0  0
   49.9970  101.1300   27.6780 C   0  0  0  0  0  0  0  0  0  0  0  0
   53.2160   97.8350   27.1500 N   0  0  0  0  0  0  0  0  0  0  0  0
   53.9530   98.6170   27.2640 H   0  0  0  0  0  0  0  0  0  0  0  0
   53.7180   96.6330   26.6110 C   0  0  0  0  0  0  0  0  0  0  0  0
   55.1000   96.5390   26.3290 C   0  0  0  0  0  0  0  0  0  0  0  0
   56.3570   98.1860   26.7370 I   0  0  0  0  0  0  0  0  0  0  0  0
   55.6230   95.3870   25.7970 C   0  0  0  0  0  3  0  0  0  0  0  0
   54.7890   94.3030   25.5320 C   0  0  0  0  0  3  0  0  0  0  0  0
   53.4570   94.4220   25.8130 C   0  0  0  0  0  3  0  0  0  0  0  0
   52.8900   95.5770   26.3570 C   0  0  0  0  0  3  0  0  0  0  0  0
   48.7370  101.8630   27.9740 C   0  0  0  0  0  2  0  0  0  0  0  0
   48.6030  102.2420   29.4010 C   0  0  0  0  0  0  0  0  0  0  0  0
   47.5220  102.6010   29.9130 O   0  0  0  0  0  0  0  0  0  0  0  0
   49.7130  102.2000   30.1970 O   0  0  0  0  0  0  0  0  0  0  0  0
   49.7090  102.2490   31.5790 C   0  0  0  0  0  2  0  0  0  0  0  0
   50.5030  103.3330   32.2020 C   0  0  0  0  0  1  0  0  0  0  0  0
  1 13  1  1  0  0  0
  1  2  1  0  0  0  0
  2  3  2  0  0  0  0
  3  4  1  0  0  0  0
  4  5  1  0  0  0  0
  6  5  1  0  0  0  0
  7  3  1  0  0  0  0
  7  6  2  0  0  0  0
  8  7  1  0  0  0  0
  9  1  1  0  0  0  0
  9  8  1  0  0  0  0
 10 11  1  0  0  0  0
 10  9  2  0  0  0  0
 11 12  2  0  0  0  0
 12  8  1  0  0  0  0
 12 22  1  0  0  0  0
 13 14  1  0  0  0  0
 15 13  1  0  0  0  0
 16 15  2  0  0  0  0
 16 17  1  0  0  0  0
 18 16  1  0  0  0  0
 19 18  2  0  0  0  0
 19 20  1  0  0  0  0
 20 21  2  0  0  0  0
 21 15  1  0  0  0  0
 22 23  1  0  0  0  0
 23 24  2  0  0  0  0
 23 25  1  0  0  0  0
 25 26  1  0  0  0  0
 26 27  1  0  0  0  0
M  END
>  <Pose>
1

>  <Score>
-8.318

$$$$
