/Users/jonathanwahrer/Desktop/Msc/3_Semester/Drug_Design_Praktikum/waehrer_HTS_screening/HTS_experiment/out/docking_results/vina_output/3npc/0908_docked.pdbqt
 OpenBabel03192219583D

 25 28  0  0  0  0  0  0  0  0999 V2000
   53.6500   84.4030   20.7930 N   0  0  0  0  0  0  0  0  0  0  0  0
   54.4560   85.1530   21.5650 C   0  0  0  0  0  0  0  0  0  0  0  0
   55.5530   85.6690   21.1930 O   0  0  0  0  0  0  0  0  0  0  0  0
   53.9400   85.3020   22.8360 C   0  0  0  0  0  0  0  0  0  0  0  0
   52.8000   84.6290   22.8370 C   0  0  0  0  0  0  0  0  0  0  0  0
   52.3060   84.7850   24.0880 N   0  0  0  0  0  0  0  0  0  0  0  0
   53.1190   85.5250   24.8190 N   0  0  0  0  0  0  0  0  0  0  0  0
   54.1360   85.8560   24.0650 N   0  0  0  0  0  0  0  0  0  0  0  0
   52.6120   84.0720   21.5820 C   0  0  0  0  0  0  0  0  0  0  0  0
   51.6070   83.3610   21.2530 O   0  0  0  0  0  0  0  0  0  0  0  0
   51.4130   84.3850   24.4460 H   0  0  0  0  0  0  0  0  0  0  0  0
   52.9790   85.7970   25.8130 H   0  0  0  0  0  0  0  0  0  0  0  0
   53.8240   84.0190   19.4280 C   0  0  0  0  0  0  0  0  0  0  0  0
   53.3630   84.8050   18.3920 C   0  0  0  0  0  0  0  0  0  0  0  0
   52.3840   86.6110   18.9050 I   0  0  0  0  0  0  0  0  0  0  0  0
   53.5190   84.4540   17.0660 C   0  0  0  0  0  3  0  0  0  0  0  0
   54.1550   83.2800   16.7200 C   0  0  0  0  0  3  0  0  0  0  0  0
   54.6200   82.4860   17.7460 C   0  0  0  0  0  3  0  0  0  0  0  0
   54.4600   82.8460   19.0730 C   0  0  0  0  0  3  0  0  0  0  0  0
   55.2670   86.6460   24.4070 C   0  0  0  0  0  0  0  0  0  0  0  0
   55.1880   88.0130   24.5510 C   0  0  0  0  0  3  0  0  0  0  0  0
   56.3090   88.7550   24.8850 C   0  0  0  0  0  3  0  0  0  0  0  0
   57.5400   88.1650   25.0870 C   0  0  0  0  0  3  0  0  0  0  0  0
   57.6200   86.7960   24.9430 C   0  0  0  0  0  3  0  0  0  0  0  0
   56.5140   86.0530   24.6120 C   0  0  0  0  0  3  0  0  0  0  0  0
  1  2  1  0  0  0  0
  1  9  1  0  0  0  0
  2  4  1  0  0  0  0
  3  2  2  0  0  0  0
  4  5  2  0  0  0  0
  4  8  1  0  0  0  0
  5  6  1  0  0  0  0
  6 11  1  0  0  0  0
  6  7  1  0  0  0  0
  7 12  1  0  0  0  0
  8 20  1  0  0  0  0
  8  7  1  0  0  0  0
  9  5  1  0  0  0  0
 10  9  2  0  0  0  0
 13  1  1  0  0  0  0
 14 15  1  0  0  0  0
 14 13  2  0  0  0  0
 16 14  1  0  0  0  0
 17 16  2  0  0  0  0
 17 18  1  0  0  0  0
 18 19  2  0  0  0  0
 19 13  1  0  0  0  0
 20 21  2  0  0  0  0
 20 25  1  0  0  0  0
 21 22  1  0  0  0  0
 22 23  2  0  0  0  0
 24 23  1  0  0  0  0
 25 24  2  0  0  0  0
M  END
>  <Pose>
1

>  <Score>
-7.979

$$$$
