/Users/jonathanwahrer/Desktop/Msc/3_Semester/Drug_Design_Praktikum/waehrer_HTS_screening/HTS_experiment/out/docking_results/vina_output/3npc/0920_docked.pdbqt
 OpenBabel03192219583D

 24 27  0  0  1  0  0  0  0  0999 V2000
   49.0470  100.8300   28.3380 N   0  0  0  0  0  0  0  0  0  0  0  0
   49.3960   99.5810   28.3330 C   0  0  1  0  0  3  0  0  0  0  0  0
   48.7360   97.9460   28.6970 S   0  0  0  0  0  0  0  0  0  0  0  0
   50.2460   97.1100   28.2720 C   0  0  0  0  0  3  0  0  0  0  0  0
   51.1340   98.0030   27.8960 C   0  0  0  0  0  0  0  0  0  0  0  0
   50.7090   99.3540   27.9150 N   0  0  0  0  0  0  0  0  0  0  0  0
   51.2770  100.6890   27.5990 C   0  0  0  0  0  3  0  0  0  0  0  0
   50.1760  101.6290   27.9470 C   0  0  0  0  0  3  0  0  0  0  0  0
   47.7770  101.3280   28.7110 C   0  0  0  0  0  2  0  0  0  0  0  0
   47.5930  102.1320   29.8910 C   0  0  2  0  0  3  0  0  0  0  0  0
   46.3410  102.2140   30.2550 O   0  0  0  0  0  1  0  0  0  0  0  0
   48.4960  102.8560   30.7420 C   0  0  0  0  0  0  0  0  0  0  0  0
   49.5080  102.2530   31.4260 C   0  0  0  0  0  3  0  0  0  0  0  0
   50.3400  102.9700   32.2420 C   0  0  0  0  0  3  0  0  0  0  0  0
   50.2150  104.3340   32.4280 C   0  0  0  0  0  0  0  0  0  0  0  0
   51.4530  105.4680   33.6580 I   0  0  0  0  0  0  0  0  0  0  0  0
   49.1760  104.9450   31.7240 C   0  0  0  0  0  3  0  0  0  0  0  0
   48.3540  104.2320   30.9170 C   0  0  0  0  0  3  0  0  0  0  0  0
   52.4880   97.5160   27.4980 C   0  0  0  0  0  0  0  0  0  0  0  0
   53.6080   98.2970   27.6060 C   0  0  0  0  0  3  0  0  0  0  0  0
   54.8850   97.8300   27.2380 C   0  0  0  0  0  3  0  0  0  0  0  0
   55.0400   96.5520   26.7510 C   0  0  0  0  0  3  0  0  0  0  0  0
   53.9220   95.7650   26.6400 C   0  0  0  0  0  3  0  0  0  0  0  0
   52.6670   96.2350   27.0060 C   0  0  0  0  0  3  0  0  0  0  0  0
  1  9  1  0  0  0  0
  2  1  1  0  0  0  0
  2  3  1  6  0  0  0
  4  3  1  0  0  0  0
  5  6  1  0  0  0  0
  5  4  2  0  0  0  0
  6  2  1  0  0  0  0
  7  6  1  0  0  0  0
  7  8  2  0  0  0  0
  8  1  1  0  0  0  0
  9 10  1  0  0  0  0
 10 11  1  6  0  0  0
 10 12  1  0  0  0  0
 12 18  2  0  0  0  0
 12 13  1  0  0  0  0
 13 14  2  0  0  0  0
 14 15  1  0  0  0  0
 15 16  1  0  0  0  0
 17 15  2  0  0  0  0
 18 17  1  0  0  0  0
 19 20  1  0  0  0  0
 19  5  1  0  0  0  0
 21 20  2  0  0  0  0
 22 21  1  0  0  0  0
 23 22  2  0  0  0  0
 23 24  1  0  0  0  0
 24 19  2  0  0  0  0
M  END
>  <Pose>
1

>  <Score>
-8.739

$$$$
