/Users/jonathanwahrer/Desktop/Msc/3_Semester/Drug_Design_Praktikum/waehrer_HTS_screening/HTS_experiment/out/docking_results/vina_output/3npc/0924_docked.pdbqt
 OpenBabel03192219583D

 29 32  0  0  0  0  0  0  0  0999 V2000
   54.8260   92.4870   22.6330 C   0  0  0  0  0  0  0  0  0  0  0  0
   54.2030   92.5540   21.4440 N   0  0  0  0  0  4  0  0  0  0  0  0
   54.1410   91.4910   20.6320 C   0  0  0  0  0  0  0  0  0  0  0  0
   54.7310   90.3650   21.0640 N   0  0  0  0  0  0  0  0  0  0  0  0
   55.3660   90.2590   22.2480 C   0  0  0  0  0  0  0  0  0  0  0  0
   55.4050   91.3490   23.0360 N   0  0  0  0  0  2  0  0  0  0  0  0
   54.8800   93.6490   23.4940 N   0  0  0  0  0  0  0  0  0  0  0  0
   54.0080   94.1860   23.6960 H   0  0  0  0  0  0  0  0  0  0  0  0
   56.0710   94.0410   24.0070 N   0  0  0  0  0  0  0  0  0  0  0  0
   56.2010   94.8450   24.9680 C   0  0  0  0  0  3  0  0  0  0  0  0
   55.1710   95.5100   25.7170 C   0  0  0  0  0  0  0  0  0  0  0  0
   53.9260   95.0400   26.0150 C   0  0  0  0  0  3  0  0  0  0  0  0
   52.9880   95.7710   26.7590 C   0  0  0  0  0  3  0  0  0  0  0  0
   53.3050   97.0120   27.2210 C   0  0  0  0  0  0  0  0  0  0  0  0
   51.9770   98.1790   28.3390 I   0  0  0  0  0  0  0  0  0  0  0  0
   54.5570   97.5110   26.9350 C   0  0  0  0  0  3  0  0  0  0  0  0
   55.4710   96.7900   26.2050 C   0  0  0  0  0  3  0  0  0  0  0  0
   53.4850   91.5390   19.3650 N   0  0  0  0  0  0  0  0  0  0  0  0
   52.1170   91.9300   19.2030 C   0  0  0  0  0  2  0  0  0  0  0  0
   51.7350   91.6790   17.7420 C   0  0  0  0  0  2  0  0  0  0  0  0
   52.1000   90.4080   17.3310 O   0  0  0  0  0  0  0  0  0  0  0  0
   53.4580   90.2070   17.3150 C   0  0  0  0  0  2  0  0  0  0  0  0
   54.2320   91.1760   18.1710 C   0  0  0  0  0  2  0  0  0  0  0  0
   55.9660   89.0280   22.6280 N   0  0  0  0  0  0  0  0  0  0  0  0
   56.0090   88.6550   24.0230 C   0  0  0  0  0  2  0  0  0  0  0  0
   57.3400   87.9110   24.2040 C   0  0  0  0  0  2  0  0  0  0  0  0
   57.2630   86.7500   23.4800 O   0  0  0  0  0  0  0  0  0  0  0  0
   57.1010   86.8850   22.1290 C   0  0  0  0  0  3  0  0  0  0  0  0
   56.5220   88.1640   21.6450 C   0  0  0  0  0  3  0  0  0  0  0  0
  1  6  1  0  0  0  0
  1  7  1  0  0  0  0
  2  1  2  0  0  0  0
  3  4  1  0  0  0  0
  3  2  2  0  0  0  0
  4  5  2  0  0  0  0
  5 24  1  0  0  0  0
  5  6  1  0  0  0  0
  7  8  1  0  0  0  0
  7  9  1  0  0  0  0
  9 10  2  0  0  0  0
 10 11  1  0  0  0  0
 11 12  2  0  0  0  0
 11 17  1  0  0  0  0
 12 13  1  0  0  0  0
 13 14  2  0  0  0  0
 14 15  1  0  0  0  0
 16 14  1  0  0  0  0
 17 16  2  0  0  0  0
 18  3  1  0  0  0  0
 19 18  1  0  0  0  0
 20 19  1  0  0  0  0
 21 20  1  0  0  0  0
 22 21  1  0  0  0  0
 22 23  1  0  0  0  0
 23 18  1  0  0  0  0
 24 25  1  0  0  0  0
 25 26  1  0  0  0  0
 27 26  1  0  0  0  0
 28 27  1  0  0  0  0
 29 28  2  0  0  0  0
 29 24  1  0  0  0  0
M  END
>  <Pose>
1

>  <Score>
-9.316

$$$$
