/Users/jonathanwahrer/Desktop/Msc/3_Semester/Drug_Design_Praktikum/waehrer_HTS_screening/HTS_experiment/out/docking_results/vina_output/3npc/0935_docked.pdbqt
 OpenBabel03192219593D

 34 38  0  0  1  0  0  0  0  0999 V2000
   47.5270  102.3250   30.7450 N   0  0  0  0  0  0  0  0  0  0  0  0
   47.6910  103.4420   31.4760 C   0  0  0  0  0  0  0  0  0  0  0  0
   46.7340  103.8950   32.3580 C   0  0  2  0  0  3  0  0  0  0  0  0
   45.5880  103.1300   32.4520 C   0  0  0  0  0  0  0  0  0  0  0  0
   44.6160  103.4110   33.2160 O   0  0  0  0  0  0  0  0  0  0  0  0
   45.4100  101.9910   31.7140 N   0  0  0  0  0  0  0  0  0  0  0  0
   46.3920  101.6190   30.8750 C   0  0  0  0  0  0  0  0  0  0  0  0
   46.2740  100.5800   30.1770 O   0  0  0  0  0  0  0  0  0  0  0  0
   48.8450  104.1730   31.3550 O   0  0  0  0  0  0  0  0  0  0  0  0
   44.5480  101.4200   31.7870 H   0  0  0  0  0  0  0  0  0  0  0  0
   46.8300  105.0970   33.1660 C   0  0  1  0  0  3  0  0  0  0  0  0
   46.1940  105.0830   34.4450 N   0  0  0  0  0  4  0  0  0  0  0  0
   46.7450  104.1390   35.3780 C   0  0  0  0  0  2  0  0  0  0  0  0
   46.4850  106.4160   35.0340 C   0  0  0  0  0  1  0  0  0  0  0  0
   45.1600  105.0850   34.4480 H   0  0  0  0  0  0  0  0  0  0  0  0
   48.0430  103.5180   34.9080 C   0  0  0  0  0  2  0  0  0  0  0  0
   48.9160  104.6130   34.3420 C   0  0  0  0  0  0  0  0  0  0  0  0
   48.2690  105.4370   33.4570 C   0  0  0  0  0  0  0  0  0  0  0  0
   50.2140  104.8070   34.6870 C   0  0  0  0  0  3  0  0  0  0  0  0
   48.9270  106.5000   32.8850 C   0  0  0  0  0  0  0  0  0  0  0  0
   50.2540  106.6930   33.2420 C   0  0  0  0  0  0  0  0  0  0  0  0
   50.9190  105.8730   34.1300 C   0  0  0  0  0  0  0  0  0  0  0  0
   51.1980  107.6570   32.8570 O   0  0  0  0  0  0  0  0  0  0  0  0
   52.2180  106.3360   34.2670 O   0  0  0  0  0  0  0  0  0  0  0  0
   52.5080  107.2360   33.1860 C   0  0  0  0  0  2  0  0  0  0  0  0
   48.2740  107.3160   32.0060 O   0  0  0  0  0  0  0  0  0  0  0  0
   48.4940  107.4240   30.6360 C   0  0  0  0  0  1  0  0  0  0  0  0
   48.5260  101.8780   29.8420 C   0  0  0  0  0  0  0  0  0  0  0  0
   49.7170  101.3130   30.2690 C   0  0  0  0  0  3  0  0  0  0  0  0
   50.6790  100.8820   29.4020 C   0  0  0  0  0  3  0  0  0  0  0  0
   50.4910  100.9980   28.0290 C   0  0  0  0  0  0  0  0  0  0  0  0
   51.9780  100.3320   26.7060 I   0  0  0  0  0  0  0  0  0  0  0  0
   49.3100  101.5570   27.6020 C   0  0  0  0  0  3  0  0  0  0  0  0
   48.3320  101.9960   28.4700 C   0  0  0  0  0  3  0  0  0  0  0  0
  1  7  1  0  0  0  0
  1  2  1  0  0  0  0
  3  2  1  6  0  0  0
  3  4  1  0  0  0  0
  3 11  1  0  0  0  0
  4  5  2  0  0  0  0
  6 10  1  0  0  0  0
  6  4  1  0  0  0  0
  7  6  1  0  0  0  0
  8  7  2  0  0  0  0
  9  2  2  0  0  0  0
 11 18  1  1  0  0  0
 11 12  1  0  0  0  0
 12 15  1  0  0  0  0
 12 14  1  0  0  0  0
 12 13  1  0  0  0  0
 16 13  1  0  0  0  0
 17 19  1  0  0  0  0
 17 16  1  0  0  0  0
 18 17  2  0  0  0  0
 20 21  2  0  0  0  0
 20 18  1  0  0  0  0
 21 22  1  0  0  0  0
 22 24  1  0  0  0  0
 22 19  2  0  0  0  0
 23 25  1  0  0  0  0
 23 21  1  0  0  0  0
 25 24  1  0  0  0  0
 26 20  1  0  0  0  0
 27 26  1  0  0  0  0
 28 29  1  0  0  0  0
 28  1  1  0  0  0  0
 30 29  2  0  0  0  0
 31 30  1  0  0  0  0
 32 31  1  0  0  0  0
 33 31  2  0  0  0  0
 33 34  1  0  0  0  0
 34 28  2  0  0  0  0
M  END
>  <Pose>
1

>  <Score>
-7.510

$$$$
