/Users/jonathanwahrer/Desktop/Msc/3_Semester/Drug_Design_Praktikum/waehrer_HTS_screening/HTS_experiment/out/docking_results/vina_output/3npc/0956_docked.pdbqt
 OpenBabel03192219593D

 30 33  0  0  1  0  0  0  0  0999 V2000
   55.7130   89.7230   22.4820 I   0  0  0  0  0  0  0  0  0  0  0  0
   55.0910   87.7830   23.0230 C   0  0  0  0  0  0  0  0  0  0  0  0
   54.6050   86.8260   22.1830 C   0  0  0  0  0  0  0  0  0  0  0  0
   54.3400   85.7350   23.0120 C   0  0  0  0  0  0  0  0  0  0  0  0
   54.6420   85.9970   24.2850 N   0  0  0  0  0  0  0  0  0  0  0  0
   55.1020   87.2470   24.3000 C   0  0  0  0  0  3  0  0  0  0  0  0
   53.8430   84.6250   22.4410 N   0  0  0  0  0  0  0  0  0  0  0  0
   53.6090   84.5700   21.1200 C   0  0  0  0  0  3  0  0  0  0  0  0
   53.8640   85.6170   20.3290 N   0  0  0  0  0  0  0  0  0  0  0  0
   54.3720   86.7870   20.8280 C   0  0  0  0  0  0  0  0  0  0  0  0
   54.5170   85.1460   25.4300 C   0  0  2  0  0  3  0  0  0  0  0  0
   55.2260   83.9560   25.3230 O   0  0  0  0  0  0  0  0  0  0  0  0
   54.8360   83.2720   26.4710 C   0  0  1  0  0  3  0  0  0  0  0  0
   53.3590   83.5280   26.6560 C   0  0  2  0  0  3  0  0  0  0  0  0
   53.0920   84.6140   25.6070 C   0  0  0  0  0  2  0  0  0  0  0  0
   54.9860   81.7600   26.2520 C   0  0  0  0  0  2  0  0  0  0  0  0
   56.0300   81.5370   25.3440 O   0  0  0  0  0  0  0  0  0  0  0  0
   56.4400   80.6260   25.4870 H   0  0  0  0  0  0  0  0  0  0  0  0
   53.0860   84.1090   27.8950 O   0  0  0  0  0  0  0  0  0  0  0  0
   53.0670   83.3430   28.5490 H   0  0  0  0  0  0  0  0  0  0  0  0
   54.6240   87.8690   19.9380 N   0  0  0  0  0  0  0  0  0  0  0  0
   53.5140   88.5770   19.3930 C   0  0  0  0  0  0  0  0  0  0  0  0
   52.3650   88.1980   19.7360 O   0  0  0  0  0  0  0  0  0  0  0  0
   55.5470   88.1970   19.6430 H   0  0  0  0  0  0  0  0  0  0  0  0
   53.6250   89.6850   18.4850 C   0  0  0  0  0  0  0  0  0  0  0  0
   53.2020   90.9370   18.8380 C   0  0  0  0  0  3  0  0  0  0  0  0
   53.3060   92.0250   17.9690 C   0  0  0  0  0  3  0  0  0  0  0  0
   53.8440   91.8430   16.7290 C   0  0  0  0  0  3  0  0  0  0  0  0
   54.2760   90.5990   16.3480 C   0  0  0  0  0  3  0  0  0  0  0  0
   54.1620   89.5220   17.2350 C   0  0  0  0  0  3  0  0  0  0  0  0
  1  2  1  0  0  0  0
  2  6  2  0  0  0  0
  3  4  1  0  0  0  0
  3  2  1  0  0  0  0
  4  5  1  0  0  0  0
  5  6  1  0  0  0  0
  7  4  2  0  0  0  0
  8  7  1  0  0  0  0
  9 10  1  0  0  0  0
  9  8  2  0  0  0  0
 10  3  2  0  0  0  0
 11  5  1  6  0  0  0
 11 15  1  0  0  0  0
 12 11  1  0  0  0  0
 12 13  1  0  0  0  0
 13 16  1  6  0  0  0
 13 14  1  0  0  0  0
 14 19  1  1  0  0  0
 15 14  1  0  0  0  0
 17 18  1  0  0  0  0
 17 16  1  0  0  0  0
 19 20  1  0  0  0  0
 21 10  1  0  0  0  0
 22 23  2  0  0  0  0
 22 21  1  0  0  0  0
 24 21  1  0  0  0  0
 25 26  1  0  0  0  0
 25 22  1  0  0  0  0
 27 26  2  0  0  0  0
 28 27  1  0  0  0  0
 29 28  2  0  0  0  0
 29 30  1  0  0  0  0
 30 25  2  0  0  0  0
M  END
>  <Pose>
1

>  <Score>
-8.180

$$$$
