/Users/jonathanwahrer/Desktop/Msc/3_Semester/Drug_Design_Praktikum/waehrer_HTS_screening/HTS_experiment/out/docking_results/vina_output/3npc/0961_docked.pdbqt
 OpenBabel03192220003D

 29 33  0  0  1  0  0  0  0  0999 V2000
   55.1310   87.1830   22.6060 C   0  0  1  0  0  3  0  0  0  0  0  0
   55.5570   87.2030   23.8470 N   0  0  0  0  0  0  0  0  0  0  0  0
   55.8810   88.3930   24.4380 C   0  0  0  0  0  3  0  0  0  0  0  0
   55.7880   89.5990   23.8140 C   0  0  0  0  0  3  0  0  0  0  0  0
   55.3420   89.6180   22.5100 C   0  0  0  0  0  0  0  0  0  0  0  0
   55.1240   90.6120   21.5810 N   0  0  0  0  0  0  0  0  0  0  0  0
   54.6850   90.0740   20.4560 C   0  0  0  0  0  0  0  0  0  0  0  0
   54.6260   88.7330   20.6820 N   0  0  0  0  0  0  0  0  0  0  0  0
   55.0210   88.4280   21.9240 C   0  0  0  0  0  0  0  0  0  0  0  0
   55.3570   91.9860   21.9270 C   0  0  0  0  0  1  0  0  0  0  0  0
   55.6300   86.0200   24.6520 C   0  0  0  0  0  1  0  0  0  0  0  0
   54.8450   86.0090   21.8020 C   0  0  0  0  0  3  0  0  0  0  0  0
   53.8000   85.6430   21.1480 C   0  0  0  0  0  3  0  0  0  0  0  0
   53.5170   84.4790   20.3390 C   0  0  0  0  0  0  0  0  0  0  0  0
   52.5570   83.5490   20.5620 C   0  0  0  0  0  0  0  0  0  0  0  0
   51.5060   83.6030   22.1510 Br  0  0  0  0  0  0  0  0  0  0  0  0
   52.3230   82.4770   19.6640 C   0  0  0  0  0  3  0  0  0  0  0  0
   53.0720   82.3450   18.5260 C   0  0  0  0  0  0  0  0  0  0  0  0
   54.0560   83.2750   18.2740 C   0  0  0  0  0  0  0  0  0  0  0  0
   53.0990   81.4350   17.4640 O   0  0  0  0  0  0  0  0  0  0  0  0
   54.2740   84.3120   19.1530 C   0  0  0  0  0  3  0  0  0  0  0  0
   54.6660   82.9120   17.0610 O   0  0  0  0  0  0  0  0  0  0  0  0
   53.7250   82.1120   16.3750 C   0  0  0  0  0  2  0  0  0  0  0  0
   54.2990   90.7280   19.2000 C   0  0  0  0  0  0  0  0  0  0  0  0
   53.1690   91.4500   19.0090 C   0  0  0  0  0  3  0  0  0  0  0  0
   52.8900   92.0080   17.7470 C   0  0  0  0  0  3  0  0  0  0  0  0
   53.7620   91.8250   16.6990 C   0  0  0  0  0  3  0  0  0  0  0  0
   54.9280   91.0890   16.8690 C   0  0  0  0  0  3  0  0  0  0  0  0
   55.1580   90.5700   18.1000 C   0  0  0  0  0  3  0  0  0  0  0  0
  1 12  1  6  0  0  0
  1  2  1  0  0  0  0
  2  3  1  0  0  0  0
  2 11  1  0  0  0  0
  4  3  2  0  0  0  0
  5  4  1  0  0  0  0
  6 10  1  0  0  0  0
  6  5  1  0  0  0  0
  7  8  2  0  0  0  0
  7  6  1  0  0  0  0
  8  9  1  0  0  0  0
  9  5  2  0  0  0  0
  9  1  1  0  0  0  0
 13 12  2  0  0  0  0
 14 15  1  0  0  0  0
 14 13  1  0  0  0  0
 15 16  1  0  0  0  0
 17 15  2  0  0  0  0
 18 17  1  0  0  0  0
 19 18  2  0  0  0  0
 19 21  1  0  0  0  0
 20 18  1  0  0  0  0
 21 14  2  0  0  0  0
 22 19  1  0  0  0  0
 23 22  1  0  0  0  0
 23 20  1  0  0  0  0
 24  7  1  0  0  0  0
 25 24  1  0  0  0  0
 26 25  2  0  0  0  0
 27 28  2  0  0  0  0
 27 26  1  0  0  0  0
 28 29  1  0  0  0  0
 29 24  2  0  0  0  0
M  END
>  <Pose>
1

>  <Score>
-9.353

$$$$
