/Users/jonathanwahrer/Desktop/Msc/3_Semester/Drug_Design_Praktikum/waehrer_HTS_screening/HTS_experiment/out/docking_results/vina_output/3npc/0969_docked.pdbqt
 OpenBabel03192220003D

 31 34  0  0  1  0  0  0  0  0999 V2000
   54.1780   81.0920   31.0000 Br  0  0  0  0  0  0  0  0  0  0  0  0
   53.9040   81.3670   29.1400 C   0  0  0  0  0  0  0  0  0  0  0  0
   53.1120   82.3920   28.6270 C   0  0  0  0  0  0  0  0  0  0  0  0
   52.9430   82.5500   27.2620 C   0  0  0  0  0  0  0  0  0  0  0  0
   53.5630   81.6840   26.3830 C   0  0  0  0  0  2  0  0  0  0  0  0
   54.3410   80.6750   26.8780 C   0  0  0  0  0  0  0  0  0  0  0  0
   54.5050   80.5250   28.2320 C   0  0  0  0  0  0  0  0  0  0  0  0
   55.3220   79.4650   28.6660 O   0  0  0  0  0  1  0  0  0  0  0  0
   55.1760   79.5090   25.6020 Br  0  0  0  0  0  0  0  0  0  0  0  0
   52.1650   83.5550   26.7280 C   0  0  0  0  0  0  0  0  0  0  0  0
   51.5500   84.4160   27.6130 C   0  0  0  0  0  0  0  0  0  0  0  0
   51.7850   84.1740   29.0410 C   0  0  0  0  0  0  0  0  0  0  0  0
   51.1540   85.0530   29.9230 C   0  0  1  0  0  3  0  0  0  0  0  0
   50.3660   86.0760   29.4500 C   0  0  0  0  0  0  0  0  0  0  0  0
   49.8190   86.8440   30.2830 O   0  0  0  0  0  0  0  0  0  0  0  0
   50.1630   86.2790   28.0900 C   0  0  0  0  0  0  0  0  0  0  0  0
   50.7500   85.4580   27.1710 C   0  0  0  0  0  3  0  0  0  0  0  0
   49.0530   87.7270   27.5200 Br  0  0  0  0  0  0  0  0  0  0  0  0
   51.4150   84.7940   31.8100 Br  0  0  0  0  0  0  0  0  0  0  0  0
   52.5380   83.1960   29.4850 O   0  0  0  0  0  0  0  0  0  0  0  0
   51.9810   83.7150   25.2850 C   0  0  0  0  0  0  0  0  0  0  0  0
   50.9080   83.1260   24.6420 C   0  0  0  0  0  0  0  0  0  0  0  0
   50.7150   83.2570   23.2830 C   0  0  0  0  0  3  0  0  0  0  0  0
   49.7550   82.1840   25.5950 Cl  0  0  0  0  0  0  0  0  0  0  0  0
   51.6250   83.9980   22.5570 C   0  0  0  0  0  3  0  0  0  0  0  0
   52.6960   84.5940   23.1500 C   0  0  0  0  0  0  0  0  0  0  0  0
   52.8730   84.4520   24.5080 C   0  0  0  0  0  0  0  0  0  0  0  0
   53.8040   85.5190   22.1490 Cl  0  0  0  0  0  0  0  0  0  0  0  0
   54.0080   85.0760   25.1440 C   0  0  0  0  0  0  0  0  0  0  0  0
   53.9480   86.2290   25.6520 O   0  0  0  0  0  1  0  0  0  0  0  0
   55.2290   84.4100   25.2160 O   0  0  0  0  0  0  0  0  0  0  0  0
  2  1  1  0  0  0  0
  3  2  2  0  0  0  0
  3 20  1  0  0  0  0
  4  3  1  0  0  0  0
  5  6  1  0  0  0  0
  5  4  1  0  0  0  0
  6  7  2  0  0  0  0
  7  8  1  0  0  0  0
  7  2  1  0  0  0  0
  9  6  1  0  0  0  0
 10  4  2  0  0  0  0
 10 11  1  0  0  0  0
 11 12  2  0  0  0  0
 12 20  1  0  0  0  0
 12 13  1  0  0  0  0
 13 19  1  1  0  0  0
 14 13  1  0  0  0  0
 14 15  2  0  0  0  0
 16 14  1  0  0  0  0
 17 11  1  0  0  0  0
 17 16  2  0  0  0  0
 18 16  1  0  0  0  0
 21 10  1  0  0  0  0
 22 21  1  0  0  0  0
 22 24  1  0  0  0  0
 23 22  2  0  0  0  0
 25 26  2  0  0  0  0
 25 23  1  0  0  0  0
 26 27  1  0  0  0  0
 27 29  1  0  0  0  0
 27 21  2  0  0  0  0
 28 26  1  0  0  0  0
 29 31  2  0  0  0  0
 29 30  1  0  0  0  0
M  END
>  <Pose>
1

>  <Score>
-6.821

$$$$
