/Users/jonathanwahrer/Desktop/Msc/3_Semester/Drug_Design_Praktikum/waehrer_HTS_screening/HTS_experiment/out/docking_results/vina_output/3npc/0978_docked.pdbqt
 OpenBabel03192220003D

 33 37  0  0  1  0  0  0  0  0999 V2000
   55.1900   80.4110   30.2360 I   0  0  0  0  0  0  0  0  0  0  0  0
   53.8050   81.0480   31.6970 C   0  0  0  0  0  0  0  0  0  0  0  0
   52.9200   82.0600   31.3360 C   0  0  0  0  0  0  0  0  0  0  0  0
   52.0190   82.4900   32.2540 C   0  0  0  0  0  0  0  0  0  0  0  0
   52.0100   81.9060   33.5230 C   0  0  0  0  0  3  0  0  0  0  0  0
   52.8810   80.9040   33.8900 C   0  0  0  0  0  0  0  0  0  0  0  0
   53.7950   80.4720   32.9510 C   0  0  0  0  0  0  0  0  0  0  0  0
   54.6830   79.4650   33.2990 O   0  0  0  0  0  1  0  0  0  0  0  0
   52.8260   80.0520   35.8300 I   0  0  0  0  0  0  0  0  0  0  0  0
   51.0520   83.5380   31.9820 C   0  0  2  0  0  0  0  0  0  0  0  0
   51.2130   84.6440   32.8820 O   0  0  0  0  0  0  0  0  0  0  0  0
   50.0710   84.9010   33.5940 C   0  0  0  0  0  0  0  0  0  0  0  0
   49.8460   85.7880   34.4660 O   0  0  0  0  0  0  0  0  0  0  0  0
   49.0870   83.9210   33.1540 C   0  0  0  0  0  0  0  0  0  0  0  0
   49.6590   83.1220   32.2110 C   0  0  0  0  0  0  0  0  0  0  0  0
   48.9250   82.0920   31.6210 C   0  0  0  0  0  0  0  0  0  0  0  0
   47.6140   81.8600   31.9750 C   0  0  0  0  0  0  0  0  0  0  0  0
   47.0320   82.6790   32.9400 C   0  0  0  0  0  0  0  0  0  0  0  0
   47.7500   83.6920   33.5220 C   0  0  0  0  0  0  0  0  0  0  0  0
   47.0160   84.6960   34.7140 Cl  0  0  0  0  0  0  0  0  0  0  0  0
   45.3790   82.4380   33.4310 Cl  0  0  0  0  0  0  0  0  0  0  0  0
   46.7240   80.5610   31.2150 Cl  0  0  0  0  0  0  0  0  0  0  0  0
   49.7140   81.1140   30.4290 Cl  0  0  0  0  0  0  0  0  0  0  0  0
   51.1770   84.0660   30.5960 C   0  0  0  0  0  0  0  0  0  0  0  0
   52.0890   83.6130   29.7060 C   0  0  0  0  0  0  0  0  0  0  0  0
   52.0970   84.1970   28.4400 C   0  0  0  0  0  0  0  0  0  0  0  0
   51.2260   85.1970   28.0730 C   0  0  0  0  0  0  0  0  0  0  0  0
   50.3090   85.6340   29.0070 C   0  0  0  0  0  0  0  0  0  0  0  0
   50.2730   85.0830   30.2620 C   0  0  0  0  0  3  0  0  0  0  0  0
   48.9630   87.1640   28.4750 I   0  0  0  0  0  0  0  0  0  0  0  0
   51.2330   85.7710   26.8280 O   0  0  0  0  0  1  0  0  0  0  0  0
   53.5070   83.5030   27.0490 I   0  0  0  0  0  0  0  0  0  0  0  0
   52.9790   82.6090   30.0400 O   0  0  0  0  0  0  0  0  0  0  0  0
  1  2  1  0  0  0  0
  2  7  1  0  0  0  0
  3  2  2  0  0  0  0
  3  4  1  0  0  0  0
  4  5  2  0  0  0  0
  5  6  1  0  0  0  0
  6  9  1  0  0  0  0
  7  8  1  0  0  0  0
  7  6  2  0  0  0  0
 10 24  1  6  0  0  0
 10 15  1  0  0  0  0
 10  4  1  0  0  0  0
 10 11  1  0  0  0  0
 11 12  1  0  0  0  0
 12 13  2  0  0  0  0
 14 19  1  0  0  0  0
 14 12  1  0  0  0  0
 15 14  2  0  0  0  0
 16 17  2  0  0  0  0
 16 15  1  0  0  0  0
 17 18  1  0  0  0  0
 18 21  1  0  0  0  0
 18 19  2  0  0  0  0
 19 20  1  0  0  0  0
 22 17  1  0  0  0  0
 23 16  1  0  0  0  0
 25 33  1  0  0  0  0
 25 24  2  0  0  0  0
 26 25  1  0  0  0  0
 27 26  2  0  0  0  0
 27 28  1  0  0  0  0
 28 29  2  0  0  0  0
 29 24  1  0  0  0  0
 30 28  1  0  0  0  0
 31 27  1  0  0  0  0
 32 26  1  0  0  0  0
 33  3  1  0  0  0  0
M  END
>  <Pose>
1

>  <Score>
0.540

$$$$
