/Users/jonathanwahrer/Desktop/Msc/3_Semester/Drug_Design_Praktikum/waehrer_HTS_screening/HTS_experiment/out/docking_results/vina_output/3npc/0980_docked.pdbqt
 OpenBabel03192220003D

 27 30  0  0  1  0  0  0  0  0999 V2000
   53.2320   79.7310   23.0870 I   0  0  0  0  0  0  0  0  0  0  0  0
   52.7720   81.7400   22.6470 C   0  0  0  0  0  0  0  0  0  0  0  0
   53.2110   82.3680   21.4990 C   0  0  2  0  0  3  0  0  0  0  0  0
   52.9130   83.6820   21.2070 C   0  0  0  0  0  0  0  0  0  0  0  0
   52.1410   84.3780   22.1190 C   0  0  0  0  0  3  0  0  0  0  0  0
   51.6960   83.7560   23.2750 C   0  0  0  0  0  3  0  0  0  0  0  0
   52.0020   82.4310   23.5610 C   0  0  0  0  0  0  0  0  0  0  0  0
   51.5290   81.8550   24.7370 O   0  0  0  0  0  1  0  0  0  0  0  0
   53.3410   84.3270   20.0650 C   0  0  0  0  0  0  0  0  0  0  0  0
   54.1140   83.5640   19.1940 C   0  0  0  0  0  0  0  0  0  0  0  0
   54.4080   82.1760   19.5380 C   0  0  0  0  0  0  0  0  0  0  0  0
   55.1770   81.4720   18.6350 C   0  0  2  0  0  3  0  0  0  0  0  0
   55.6540   82.0230   17.4660 C   0  0  0  0  0  0  0  0  0  0  0  0
   56.3590   81.3600   16.6490 O   0  0  0  0  0  0  0  0  0  0  0  0
   55.3770   83.3360   17.1390 C   0  0  0  0  0  3  0  0  0  0  0  0
   54.6080   84.0680   18.0230 C   0  0  0  0  0  3  0  0  0  0  0  0
   55.6530   79.4650   19.0440 I   0  0  0  0  0  0  0  0  0  0  0  0
   53.9400   81.6800   20.6570 O   0  0  0  0  0  0  0  0  0  0  0  0
   53.0280   85.7170   19.7530 C   0  0  0  0  0  0  0  0  0  0  0  0
   53.7770   86.7170   20.3650 C   0  0  0  0  0  0  0  0  0  0  0  0
   53.5200   88.0370   20.1030 C   0  0  0  0  0  3  0  0  0  0  0  0
   52.5110   88.3730   19.2280 C   0  0  0  0  0  3  0  0  0  0  0  0
   51.7560   87.4020   18.6090 C   0  0  0  0  0  3  0  0  0  0  0  0
   52.0320   86.0820   18.8860 C   0  0  0  0  0  3  0  0  0  0  0  0
   54.8490   86.3730   21.2950 C   0  0  0  0  0  0  0  0  0  0  0  0
   55.9400   85.8870   20.9230 O   0  0  0  0  0  0  0  0  0  0  0  0
   54.6910   86.5740   22.6580 O   0  0  0  0  0  1  0  0  0  0  0  0
  2  1  1  0  0  0  0
  2  7  2  0  0  0  0
  3 18  1  6  0  0  0
  3  2  1  0  0  0  0
  4  3  1  0  0  0  0
  4  5  1  0  0  0  0
  5  6  2  0  0  0  0
  6  7  1  0  0  0  0
  7  8  1  0  0  0  0
  9  4  2  0  0  0  0
 10 11  2  0  0  0  0
 10  9  1  0  0  0  0
 11 18  1  0  0  0  0
 12 17  1  6  0  0  0
 12 11  1  0  0  0  0
 13 12  1  0  0  0  0
 14 13  2  0  0  0  0
 15 13  1  0  0  0  0
 15 16  2  0  0  0  0
 16 10  1  0  0  0  0
 19  9  1  0  0  0  0
 19 20  1  0  0  0  0
 20 25  1  0  0  0  0
 21 20  2  0  0  0  0
 22 21  1  0  0  0  0
 23 24  1  0  0  0  0
 23 22  2  0  0  0  0
 24 19  2  0  0  0  0
 25 27  1  0  0  0  0
 26 25  2  0  0  0  0
M  END
>  <Pose>
1

>  <Score>
-7.658

$$$$
