/Users/jonathanwahrer/Desktop/Msc/3_Semester/Drug_Design_Praktikum/waehrer_HTS_screening/HTS_experiment/out/docking_results/vina_output/3npc/0983_docked.pdbqt
 OpenBabel03192220013D

 34 37  0  0  0  0  0  0  0  0999 V2000
   54.3270   85.8190   23.7870 C   0  0  0  0  0  0  0  0  0  0  0  0
   54.0000   84.6410   24.4720 C   0  0  0  0  0  0  0  0  0  0  0  0
   53.2730   83.8990   23.5670 C   0  0  0  0  0  0  0  0  0  0  0  0
   53.1780   84.5930   22.4240 N   0  0  0  0  0  0  0  0  0  0  0  0
   53.8220   85.7970   22.5140 C   0  0  0  0  0  0  0  0  0  0  0  0
   52.7970   82.6510   23.9600 C   0  0  0  0  0  0  0  0  0  0  0  0
   53.0610   82.1970   25.2230 C   0  0  0  0  0  3  0  0  0  0  0  0
   53.7980   82.9470   26.1460 C   0  0  0  0  0  0  0  0  0  0  0  0
   54.2740   84.1990   25.7470 C   0  0  0  0  0  3  0  0  0  0  0  0
   54.1300   82.2600   27.8850 Br  0  0  0  0  0  0  0  0  0  0  0  0
   51.7950   81.6080   22.7370 Br  0  0  0  0  0  0  0  0  0  0  0  0
   52.6740   84.2680   21.5510 H   0  0  0  0  0  0  0  0  0  0  0  0
   53.9420   86.7700   21.4340 C   0  0  0  0  0  0  0  0  0  0  0  0
   54.6280   87.9370   21.5680 N   0  0  0  0  0  0  0  0  0  0  0  0
   54.5690   88.6560   20.4360 C   0  0  0  0  0  0  0  0  0  0  0  0
   55.1400   88.2610   22.4180 H   0  0  0  0  0  0  0  0  0  0  0  0
   53.8250   87.9640   19.5060 C   0  0  0  0  0  0  0  0  0  0  0  0
   55.0810   89.8840   20.0410 C   0  0  0  0  0  0  0  0  0  0  0  0
   53.4480   86.7890   20.1680 C   0  0  0  0  0  0  0  0  0  0  0  0
   53.5900   88.4540   18.2380 C   0  0  0  0  0  3  0  0  0  0  0  0
   54.1050   89.6820   17.8540 C   0  0  0  0  0  0  0  0  0  0  0  0
   54.8560   90.3910   18.7780 C   0  0  0  0  0  3  0  0  0  0  0  0
   53.7910   90.3840   16.0980 Br  0  0  0  0  0  0  0  0  0  0  0  0
   56.1230   90.9110   21.2630 Br  0  0  0  0  0  0  0  0  0  0  0  0
   52.6720   85.8170   19.5630 O   0  0  0  0  0  0  0  0  0  0  0  0
   53.3410   84.3980   18.8960 S   0  0  0  0  0  0  0  0  0  0  0  0
   52.3800   83.2500   19.0010 O   0  0  0  0  0  1  0  0  0  0  0  0
   54.6030   83.9920   19.6040 O   0  0  0  0  0  1  0  0  0  0  0  0
   53.7760   84.6850   17.2810 O   0  0  0  0  0  1  0  0  0  0  0  0
   55.0660   86.8440   24.3670 O   0  0  0  0  0  0  0  0  0  0  0  0
   56.7730   86.8840   24.2470 S   0  0  0  0  0  0  0  0  0  0  0  0
   57.2620   85.5080   24.6080 O   0  0  0  0  0  1  0  0  0  0  0  0
   57.2070   87.2060   22.8390 O   0  0  0  0  0  1  0  0  0  0  0  0
   57.4340   87.9710   25.3470 O   0  0  0  0  0  1  0  0  0  0  0  0
  1 30  1  0  0  0  0
  1  2  1  0  0  0  0
  2  9  1  0  0  0  0
  3  6  1  0  0  0  0
  3  2  2  0  0  0  0
  4  5  1  0  0  0  0
  4  3  1  0  0  0  0
  5  1  2  0  0  0  0
  6  7  2  0  0  0  0
  7  8  1  0  0  0  0
  8 10  1  0  0  0  0
  9  8  2  0  0  0  0
 11  6  1  0  0  0  0
 12  4  1  0  0  0  0
 13 14  1  0  0  0  0
 13  5  1  0  0  0  0
 14 16  1  0  0  0  0
 15 14  1  0  0  0  0
 17 19  1  0  0  0  0
 17 15  2  0  0  0  0
 18 15  1  0  0  0  0
 18 24  1  0  0  0  0
 19 13  2  0  0  0  0
 20 17  1  0  0  0  0
 21 20  2  0  0  0  0
 21 22  1  0  0  0  0
 22 18  2  0  0  0  0
 23 21  1  0  0  0  0
 25 19  1  0  0  0  0
 26 27  1  0  0  0  0
 26 25  1  0  0  0  0
 26 28  1  0  0  0  0
 29 26  1  0  0  0  0
 31 30  1  0  0  0  0
 31 32  1  0  0  0  0
 31 34  1  0  0  0  0
 33 31  1  0  0  0  0
M  END
>  <Pose>
1

>  <Score>
-8.207

$$$$
