/Users/jonathanwahrer/Desktop/Msc/3_Semester/Drug_Design_Praktikum/waehrer_HTS_screening/HTS_experiment/out/docking_results/vina_output/3npc/0985_docked.pdbqt
 OpenBabel03192220013D

 28 31  0  0  1  0  0  0  0  0999 V2000
   53.3910   85.0130   25.6630 N   0  0  0  0  0  0  0  0  0  0  0  0
   54.1180   85.9590   25.0580 C   0  0  0  0  0  0  0  0  0  0  0  0
   54.5370   87.1860   25.4720 N   0  0  0  0  0  0  0  0  0  0  0  0
   55.2670   88.0020   24.7170 C   0  0  0  0  0  0  0  0  0  0  0  0
   55.6090   87.5960   23.4810 N   0  0  0  0  0  0  0  0  0  0  0  0
   55.2290   86.3910   23.0070 C   0  0  0  0  0  0  0  0  0  0  0  0
   54.4710   85.5440   23.7890 C   0  0  0  0  0  0  0  0  0  0  0  0
   53.9390   84.3220   23.6400 N   0  0  0  0  0  0  0  0  0  0  0  0
   53.2840   84.0030   24.7810 C   0  0  0  0  0  0  0  0  0  0  0  0
   52.3380   82.3720   25.1190 Br  0  0  0  0  0  0  0  0  0  0  0  0
   52.8690   85.1470   27.0010 C   0  0  2  0  0  3  0  0  0  0  0  0
   53.2230   84.0700   27.8130 O   0  0  0  0  0  0  0  0  0  0  0  0
   52.5430   84.3670   28.9680 C   0  0  1  0  0  3  0  0  0  0  0  0
   51.1140   84.5610   28.4470 C   0  0  1  0  0  3  0  0  0  0  0  0
   52.5210   83.2930   29.9890 C   0  0  0  0  0  2  0  0  0  0  0  0
   50.5470   85.5480   29.2500 O   0  0  0  0  0  0  0  0  0  0  0  0
   51.3460   85.0380   27.0290 C   0  0  1  0  0  3  0  0  0  0  0  0
   51.0830   85.2370   30.8400 P   0  0  2  0  0  0  0  0  0  0  0  0
   52.0600   86.2960   31.2990 O   0  0  0  0  0  0  0  0  0  0  0  0
   51.6610   83.6840   31.0210 O   0  0  0  0  0  0  0  0  0  0  0  0
   49.7000   85.4100   31.8340 O   0  0  0  0  0  1  0  0  0  0  0  0
   50.7250   86.2290   26.7460 O   0  0  0  0  0  0  0  0  0  0  0  0
   50.0910   86.4710   27.4930 H   0  0  0  0  0  0  0  0  0  0  0  0
   55.6800   89.2790   25.1960 N   0  0  0  0  0  0  0  0  0  0  0  0
   56.3970   89.7800   24.6280 H   0  0  0  0  0  0  0  0  0  0  0  0
   55.2910   89.7040   26.0740 H   0  0  0  0  0  0  0  0  0  0  0  0
   55.5810   85.9670   21.7290 O   0  0  0  0  0  0  0  0  0  0  0  0
   55.9240   84.9970   21.6570 H   0  0  0  0  0  0  0  0  0  0  0  0
  2  3  1  0  0  0  0
  2  1  1  0  0  0  0
  4 24  1  0  0  0  0
  4  3  2  0  0  0  0
  5  4  1  0  0  0  0
  6  5  2  0  0  0  0
  6  7  1  0  0  0  0
  7  2  2  0  0  0  0
  8  7  1  0  0  0  0
  8  9  2  0  0  0  0
  9 10  1  0  0  0  0
  9  1  1  0  0  0  0
 11  1  1  6  0  0  0
 11 17  1  0  0  0  0
 11 12  1  0  0  0  0
 12 13  1  0  0  0  0
 13 15  1  1  0  0  0
 14 13  1  0  0  0  0
 14 16  1  1  0  0  0
 15 20  1  0  0  0  0
 16 18  1  0  0  0  0
 17 22  1  1  0  0  0
 17 14  1  0  0  0  0
 18 20  1  0  0  0  0
 18 19  2  1  0  0  0
 18 21  1  0  0  0  0
 22 23  1  0  0  0  0
 24 26  1  0  0  0  0
 25 24  1  0  0  0  0
 27  6  1  0  0  0  0
 28 27  1  0  0  0  0
M  END
>  <Pose>
1

>  <Score>
-7.958

$$$$
