/Users/jonathanwahrer/Desktop/Msc/3_Semester/Drug_Design_Praktikum/waehrer_HTS_screening/HTS_experiment/out/docking_results/vina_output/3npc/0991_docked.pdbqt
 OpenBabel03192220013D

 34 39  0  0  1  0  0  0  0  0999 V2000
   53.3160   85.0610   20.6810 N   0  0  0  0  0  0  0  0  0  0  0  0
   53.4200   84.1780   19.6560 C   0  0  0  0  0  0  0  0  0  0  0  0
   53.7690   82.9290   20.1240 C   0  0  0  0  0  0  0  0  0  0  0  0
   53.8750   83.0710   21.4610 N   0  0  0  0  0  0  0  0  0  0  0  0
   53.6030   84.3510   21.7860 C   0  0  0  0  0  0  0  0  0  0  0  0
   53.6020   85.1240   23.5360 Br  0  0  0  0  0  0  0  0  0  0  0  0
   53.9250   81.8880   19.2310 C   0  0  0  0  0  0  0  0  0  0  0  0
   54.2410   80.7500   19.6450 O   0  0  0  0  0  0  0  0  0  0  0  0
   53.7470   82.0460   17.9000 N   0  0  0  0  0  0  0  0  0  0  0  0
   53.4070   83.2730   17.4650 C   0  0  0  0  0  0  0  0  0  0  0  0
   53.2920   83.1680   16.1290 N   0  0  0  0  0  0  0  0  0  0  0  0
   53.5460   81.9170   15.7030 C   0  0  0  0  0  0  0  0  0  0  0  0
   53.8390   81.1950   16.8410 C   0  0  0  0  0  3  0  0  0  0  0  0
   53.2480   84.3140   18.3300 N   0  0  0  0  0  0  0  0  0  0  0  0
   52.9840   85.2650   17.9880 H   0  0  0  0  0  0  0  0  0  0  0  0
   52.9690   86.4780   20.6100 C   0  0  2  0  0  3  0  0  0  0  0  0
   51.9670   86.7010   19.6680 O   0  0  0  0  0  0  0  0  0  0  0  0
   52.0710   87.9940   19.2350 C   0  0  1  0  0  3  0  0  0  0  0  0
   53.5790   88.2560   19.2040 C   0  0  1  0  0  3  0  0  0  0  0  0
   51.5750   88.2110   17.8260 C   0  0  0  0  0  2  0  0  0  0  0  0
   53.7400   89.6050   19.5060 O   0  0  0  0  0  0  0  0  0  0  0  0
   54.1290   87.3440   20.2590 C   0  0  1  0  0  3  0  0  0  0  0  0
   52.5570   90.4430   18.6210 P   0  0  1  0  0  0  0  0  0  0  0  0
   53.3280   91.7910   17.8420 S   0  0  0  0  0  1  0  0  0  0  0  0
   51.9000   89.4790   17.3990 O   0  0  0  0  0  0  0  0  0  0  0  0
   51.2850   90.9510   19.6110 O   0  0  0  0  0  0  0  0  0  0  0  0
   54.5660   88.0820   21.3670 O   0  0  0  0  0  0  0  0  0  0  0  0
   55.5340   88.0140   21.4950 H   0  0  0  0  0  0  0  0  0  0  0  0
   53.5200   81.4200   14.3210 C   0  0  0  0  0  0  0  0  0  0  0  0
   54.6860   81.0310   13.7020 C   0  0  0  0  0  3  0  0  0  0  0  0
   54.6940   80.5560   12.3960 C   0  0  0  0  0  3  0  0  0  0  0  0
   53.5020   80.4760   11.7140 C   0  0  0  0  0  3  0  0  0  0  0  0
   52.3060   80.8590   12.3010 C   0  0  0  0  0  3  0  0  0  0  0  0
   52.3580   81.3220   13.5980 C   0  0  0  0  0  3  0  0  0  0  0  0
  1  5  1  0  0  0  0
  2  3  2  0  0  0  0
  2  1  1  0  0  0  0
  3  4  1  0  0  0  0
  4  5  2  0  0  0  0
  5  6  1  0  0  0  0
  7  8  2  0  0  0  0
  7  3  1  0  0  0  0
  9  7  1  0  0  0  0
 10  9  1  0  0  0  0
 10 14  1  0  0  0  0
 11 10  2  0  0  0  0
 12 11  1  0  0  0  0
 12 13  2  0  0  0  0
 13  9  1  0  0  0  0
 14  2  1  0  0  0  0
 15 14  1  0  0  0  0
 16  1  1  6  0  0  0
 17 16  1  0  0  0  0
 18 20  1  6  0  0  0
 18 17  1  0  0  0  0
 19 18  1  0  0  0  0
 19 21  1  1  0  0  0
 19 22  1  0  0  0  0
 22 16  1  0  0  0  0
 22 27  1  1  0  0  0
 23 24  1  6  0  0  0
 23 21  1  0  0  0  0
 23 26  2  0  0  0  0
 25 20  1  0  0  0  0
 25 23  1  0  0  0  0
 27 28  1  0  0  0  0
 29 12  1  0  0  0  0
 30 29  1  0  0  0  0
 31 30  2  0  0  0  0
 32 33  2  0  0  0  0
 32 31  1  0  0  0  0
 33 34  1  0  0  0  0
 34 29  2  0  0  0  0
M  END
>  <Pose>
1

>  <Score>
-9.044

$$$$
