/Users/jonathanwahrer/Desktop/Msc/3_Semester/Drug_Design_Praktikum/waehrer_HTS_screening/HTS_experiment/out/docking_results/vina_output/3npc/0993_docked.pdbqt
 OpenBabel03192220013D

 26 29  0  0  1  0  0  0  0  0999 V2000
   55.7250   86.0560   24.2350 P   0  0  2  0  0  0  0  0  0  0  0  0
   54.2470   85.2070   23.8590 S   0  0  0  0  0  1  0  0  0  0  0  0
   55.4020   87.7250   24.4010 O   0  0  0  0  0  0  0  0  0  0  0  0
   55.1600   88.2100   23.1390 C   0  0  2  0  0  3  0  0  0  0  0  0
   56.4280   88.0280   22.2930 C   0  0  2  0  0  3  0  0  0  0  0  0
   56.1260   88.8640   21.2190 O   0  0  0  0  0  0  0  0  0  0  0  0
   55.6890   90.0420   21.7750 C   0  0  2  0  0  3  0  0  0  0  0  0
   55.0380   89.7210   23.0960 C   0  0  2  0  0  3  0  0  0  0  0  0
   56.6120   86.5980   21.8900 C   0  0  0  0  0  2  0  0  0  0  0  0
   56.8610   85.8520   23.0280 O   0  0  0  0  0  0  0  0  0  0  0  0
   56.2900   85.4890   25.7000 O   0  0  0  0  0  0  0  0  0  0  0  0
   54.7020   90.7200   20.9560 N   0  0  0  0  0  0  0  0  0  0  0  0
   53.9770   90.1160   19.9810 C   0  0  0  0  0  0  0  0  0  0  0  0
   53.9560   88.8380   19.5240 N   0  0  0  0  0  0  0  0  0  0  0  0
   53.1390   91.0520   19.4110 C   0  0  0  0  0  0  0  0  0  0  0  0
   53.1320   88.4690   18.5230 C   0  0  0  0  0  3  0  0  0  0  0  0
   52.3080   89.3860   17.9600 N   0  0  0  0  0  0  0  0  0  0  0  0
   52.2990   90.6620   18.3850 C   0  0  0  0  0  0  0  0  0  0  0  0
   53.3560   92.2210   20.0410 N   0  0  0  0  0  0  0  0  0  0  0  0
   54.3070   92.0050   20.9760 C   0  0  0  0  0  0  0  0  0  0  0  0
   55.0450   93.2900   22.1970 Br  0  0  0  0  0  0  0  0  0  0  0  0
   51.4220   91.6170   17.7800 N   0  0  0  0  0  0  0  0  0  0  0  0
   50.3950   91.3790   17.7050 H   0  0  0  0  0  0  0  0  0  0  0  0
   51.7570   92.5300   17.4140 H   0  0  0  0  0  0  0  0  0  0  0  0
   55.8800   90.2180   24.1000 O   0  0  0  0  0  0  0  0  0  0  0  0
   56.8040   89.9210   24.0070 H   0  0  0  0  0  0  0  0  0  0  0  0
  1  2  1  6  0  0  0
  1  3  1  0  0  0  0
  1 11  2  0  0  0  0
  4  3  1  1  0  0  0
  5  9  1  6  0  0  0
  5  4  1  0  0  0  0
  6  7  1  0  0  0  0
  6  5  1  0  0  0  0
  7 12  1  6  0  0  0
  7  8  1  0  0  0  0
  8  4  1  0  0  0  0
  8 25  1  1  0  0  0
  9 10  1  0  0  0  0
 10  1  1  0  0  0  0
 12 20  1  0  0  0  0
 13 12  1  0  0  0  0
 14 13  1  0  0  0  0
 15 13  2  0  0  0  0
 15 19  1  0  0  0  0
 16 14  2  0  0  0  0
 17 18  2  0  0  0  0
 17 16  1  0  0  0  0
 18 15  1  0  0  0  0
 19 20  2  0  0  0  0
 20 21  1  0  0  0  0
 22 18  1  0  0  0  0
 23 22  1  0  0  0  0
 24 22  1  0  0  0  0
 26 25  1  0  0  0  0
M  END
>  <Pose>
1

>  <Score>
-7.511

$$$$
