/Users/jonathanwahrer/Desktop/Msc/3_Semester/Drug_Design_Praktikum/waehrer_HTS_screening/HTS_experiment/out/docking_results/vina_output/3npc/0999_docked.pdbqt
 OpenBabel03192220023D

 35 39  0  0  1  0  0  0  0  0999 V2000
   51.9730   83.5700   26.1170 N   0  0  0  0  0  0  0  0  0  0  0  0
   53.1640   83.4540   25.3580 C   0  0  0  0  0  0  0  0  0  0  0  0
   53.7600   82.3440   25.3510 O   0  0  0  0  0  0  0  0  0  0  0  0
   51.4930   84.5060   26.1080 H   0  0  0  0  0  0  0  0  0  0  0  0
   51.4920   82.4390   26.8410 C   0  0  1  0  0  3  0  0  0  0  0  0
   51.6630   82.4110   28.3020 C   0  0  1  0  0  0  0  0  0  0  0  0
   53.1740   82.9800   29.0770 S   0  0  0  0  0  0  0  0  0  0  0  0
   50.7120   83.4770   28.3360 N   0  0  0  0  0  0  0  0  0  0  0  0
   52.4270   83.6070   30.6260 C   0  0  0  0  0  2  0  0  0  0  0  0
   51.4610   84.7200   30.1960 C   0  0  0  0  0  0  0  0  0  0  0  0
   50.6900   84.6480   29.1570 C   0  0  0  0  0  0  0  0  0  0  0  0
   50.0760   82.7550   27.2950 C   0  0  1  0  0  0  0  0  0  0  0  0
   48.9820   82.4280   26.8210 O   0  0  0  0  0  1  0  0  0  0  0  0
   51.5520   85.8320   31.1070 C   0  0  0  0  0  2  0  0  0  0  0  0
   51.5140   85.6980   32.4550 O   0  0  0  0  0  0  0  0  0  0  0  0
   50.3400   85.4360   33.1710 C   0  0  0  0  0  0  0  0  0  0  0  0
   49.3960   86.2350   33.0230 O   0  0  0  0  0  0  0  0  0  0  0  0
   50.3130   84.2390   34.0440 C   0  0  0  0  0  1  0  0  0  0  0  0
   49.7430   85.7200   28.7320 C   0  0  0  0  0  0  0  0  0  0  0  0
   48.6370   85.9300   29.1820 O   0  0  0  0  0  1  0  0  0  0  0  0
   50.1380   86.5970   27.7040 O   0  0  0  0  0  0  0  0  0  0  0  0
   53.7130   84.5760   24.5920 C   0  0  0  0  0  0  0  0  0  0  0  0
   53.8410   84.7140   23.3090 O   0  0  0  0  0  0  0  0  0  0  0  0
   54.3720   85.8480   22.9840 C   0  0  0  0  0  0  0  0  0  0  0  0
   54.6280   86.5430   24.1720 C   0  0  0  0  0  3  0  0  0  0  0  0
   54.2030   85.7200   25.1800 C   0  0  0  0  0  3  0  0  0  0  0  0
   54.6810   86.3750   21.6050 C   0  0  0  0  0  2  0  0  0  0  0  0
   54.5950   87.7760   21.5750 O   0  0  0  0  0  0  0  0  0  0  0  0
   54.5310   88.5550   20.4550 C   0  0  0  0  0  0  0  0  0  0  0  0
   53.5420   88.4560   19.4800 C   0  0  0  0  0  3  0  0  0  0  0  0
   53.5720   89.2950   18.3890 C   0  0  0  0  0  3  0  0  0  0  0  0
   54.5430   90.2500   18.1960 C   0  0  0  0  0  0  0  0  0  0  0  0
   55.5300   90.3560   19.1600 C   0  0  0  0  0  3  0  0  0  0  0  0
   54.5330   91.3860   16.6630 Br  0  0  0  0  0  0  0  0  0  0  0  0
   55.5050   89.5130   20.2630 C   0  0  0  0  0  3  0  0  0  0  0  0
  2  1  1  0  0  0  0
  3  2  2  0  0  0  0
  4  1  1  0  0  0  0
  5  1  1  6  0  0  0
  5 12  1  0  0  0  0
  5  6  1  0  0  0  0
  6  8  1  0  0  0  0
  6  7  1  1  0  0  0
  7  9  1  0  0  0  0
  8 11  1  0  0  0  0
 10  9  1  0  0  0  0
 10 14  1  0  0  0  0
 11 10  2  0  0  0  0
 12 13  1  6  0  0  0
 12  6  1  0  0  0  0
 12  8  1  0  0  0  0
 14 15  1  0  0  0  0
 15 16  1  0  0  0  0
 16 18  1  0  0  0  0
 17 16  2  0  0  0  0
 19 11  1  0  0  0  0
 19 20  1  0  0  0  0
 21 19  2  0  0  0  0
 22 26  2  0  0  0  0
 22  2  1  0  0  0  0
 23 22  1  0  0  0  0
 24 23  1  0  0  0  0
 24 25  2  0  0  0  0
 25 26  1  0  0  0  0
 27 24  1  0  0  0  0
 28 27  1  0  0  0  0
 29 28  1  0  0  0  0
 30 29  2  0  0  0  0
 31 30  1  0  0  0  0
 32 31  2  0  0  0  0
 32 33  1  0  0  0  0
 33 35  2  0  0  0  0
 34 32  1  0  0  0  0
 35 29  1  0  0  0  0
M  END
>  <Pose>
1

>  <Score>
-8.332

$$$$
