/Users/jonathanwahrer/Desktop/Msc/3_Semester/Drug_Design_Praktikum/waehrer_HTS_screening/HTS_experiment/out/docking_results/vina_output/3npc/1001_docked.pdbqt
 OpenBabel03192220023D

 26 29  0  0  1  0  0  0  0  0999 V2000
   56.8480   86.3140   24.5290 P   0  0  2  0  0  0  0  0  0  0  0  0
   56.3400   85.1040   25.3160 O   0  0  0  0  0  1  0  0  0  0  0  0
   55.7360   87.5540   24.7370 O   0  0  0  0  0  0  0  0  0  0  0  0
   55.4170   88.1600   23.5490 C   0  0  2  0  0  3  0  0  0  0  0  0
   56.6870   88.1290   22.6870 C   0  0  2  0  0  3  0  0  0  0  0  0
   56.6080   89.2040   21.8520 O   0  0  0  0  0  0  0  0  0  0  0  0
   55.8180   90.1720   22.4090 C   0  0  2  0  0  3  0  0  0  0  0  0
   55.1930   89.6450   23.6540 C   0  0  2  0  0  3  0  0  0  0  0  0
   56.6980   86.7950   22.0140 C   0  0  0  0  0  2  0  0  0  0  0  0
   57.0300   85.8360   22.9410 O   0  0  0  0  0  0  0  0  0  0  0  0
   58.3420   86.7370   25.2460 O   0  0  0  0  0  0  0  0  0  0  0  0
   54.8360   90.5720   21.4100 N   0  0  0  0  0  0  0  0  0  0  0  0
   54.1890   89.7430   20.5580 C   0  0  0  0  0  0  0  0  0  0  0  0
   54.2620   88.4110   20.3990 N   0  0  0  0  0  0  0  0  0  0  0  0
   53.3450   90.4990   19.7720 C   0  0  0  0  0  0  0  0  0  0  0  0
   53.5030   87.8150   19.4650 C   0  0  0  0  0  3  0  0  0  0  0  0
   52.6800   88.5550   18.7000 N   0  0  0  0  0  0  0  0  0  0  0  0
   52.5550   89.8870   18.8020 C   0  0  0  0  0  0  0  0  0  0  0  0
   53.4740   91.7710   20.1410 N   0  0  0  0  0  0  0  0  0  0  0  0
   54.3800   91.8050   21.1340 C   0  0  0  0  0  0  0  0  0  0  0  0
   54.9940   93.3680   22.0830 Br  0  0  0  0  0  0  0  0  0  0  0  0
   51.6900   90.6790   18.0010 N   0  0  0  0  0  0  0  0  0  0  0  0
   50.8590   91.1420   18.4770 H   0  0  0  0  0  0  0  0  0  0  0  0
   51.8100   90.8360   16.9960 H   0  0  0  0  0  0  0  0  0  0  0  0
   55.7580   90.1370   24.8140 O   0  0  0  0  0  0  0  0  0  0  0  0
   56.7160   90.2800   24.7550 H   0  0  0  0  0  0  0  0  0  0  0  0
  1  3  1  0  0  0  0
  1 11  2  1  0  0  0
  1  2  1  0  0  0  0
  4  8  1  0  0  0  0
  4  3  1  1  0  0  0
  5  9  1  6  0  0  0
  5  4  1  0  0  0  0
  6  7  1  0  0  0  0
  6  5  1  0  0  0  0
  7 12  1  6  0  0  0
  7  8  1  0  0  0  0
  8 25  1  1  0  0  0
  9 10  1  0  0  0  0
 10  1  1  0  0  0  0
 13 12  1  0  0  0  0
 14 13  1  0  0  0  0
 15 19  1  0  0  0  0
 15 13  2  0  0  0  0
 16 14  2  0  0  0  0
 17 18  2  0  0  0  0
 17 16  1  0  0  0  0
 18 15  1  0  0  0  0
 19 20  2  0  0  0  0
 20 12  1  0  0  0  0
 20 21  1  0  0  0  0
 22 23  1  0  0  0  0
 22 18  1  0  0  0  0
 24 22  1  0  0  0  0
 26 25  1  0  0  0  0
M  END
>  <Pose>
1

>  <Score>
-8.056

$$$$
