/Users/jonathanwahrer/Desktop/Msc/3_Semester/Drug_Design_Praktikum/waehrer_HTS_screening/HTS_experiment/out/docking_results/vina_output/3npc/1011_docked.pdbqt
 OpenBabel03192220033D

 29 32  0  0  0  0  0  0  0  0999 V2000
   55.4420   87.9820   22.1430 C   0  0  0  0  0  0  0  0  0  0  0  0
   54.8570   88.4780   20.9730 C   0  0  0  0  0  3  0  0  0  0  0  0
   54.6950   89.8340   20.7920 C   0  0  0  0  0  0  0  0  0  0  0  0
   55.0930   90.7610   21.7380 C   0  0  0  0  0  0  0  0  0  0  0  0
   55.6660   90.2870   22.8840 C   0  0  0  0  0  3  0  0  0  0  0  0
   55.8340   88.9120   23.0760 C   0  0  0  0  0  0  0  0  0  0  0  0
   56.6300   88.2550   24.6920 Br  0  0  0  0  0  0  0  0  0  0  0  0
   54.7700   92.1310   21.2500 C   0  0  0  0  0  2  0  0  0  0  0  0
   53.7010   91.8350   20.1760 C   0  0  0  0  0  2  0  0  0  0  0  0
   54.1300   90.5400   19.6720 N   0  0  0  0  0  0  0  0  0  0  0  0
   54.0540   90.0090   18.3640 C   0  0  0  0  0  0  0  0  0  0  0  0
   54.4870   88.8720   18.0650 O   0  0  0  0  0  0  0  0  0  0  0  0
   55.6400   86.2620   22.3440 S   0  0  0  0  0  0  0  0  0  0  0  0
   57.1220   85.9170   22.4160 O   0  0  0  0  0  0  0  0  0  0  0  0
   55.0410   85.7750   23.6200 O   0  0  0  0  0  0  0  0  0  0  0  0
   55.0300   85.4170   20.9730 N   0  0  0  0  0  0  0  0  0  0  0  0
   55.0870   86.0510   20.1520 H   0  0  0  0  0  0  0  0  0  0  0  0
   53.6760   84.9390   21.1660 C   0  0  0  0  0  2  0  0  0  0  0  0
   53.6510   83.5070   20.6510 C   0  0  0  0  0  2  0  0  0  0  0  0
   52.7180   83.3730   19.4780 C   0  0  0  0  0  2  0  0  0  0  0  0
   53.4840   83.2080   18.2990 N   0  0  0  0  0  0  0  0  0  0  0  0
   53.5600   84.3270   17.4290 C   0  0  0  0  0  2  0  0  0  0  0  0
   53.9530   83.8340   16.0470 C   0  0  0  0  0  2  0  0  0  0  0  0
   54.9470   82.8780   16.1130 O   0  0  0  0  0  0  0  0  0  0  0  0
   55.6340   82.8740   17.3220 C   0  0  0  0  0  2  0  0  0  0  0  0
   54.6460   82.4040   18.3930 C   0  0  0  0  0  2  0  0  0  0  0  0
   53.4350   90.8310   17.2980 C   0  0  0  0  0  3  0  0  0  0  0  0
   54.1240   90.7820   15.9960 C   0  0  0  0  0  2  0  0  0  0  0  0
   54.1160   92.0560   16.8060 C   0  0  0  0  0  2  0  0  0  0  0  0
  1 13  1  0  0  0  0
  1  6  1  0  0  0  0
  2  1  2  0  0  0  0
  3  2  1  0  0  0  0
  3  4  2  0  0  0  0
  4  5  1  0  0  0  0
  5  6  2  0  0  0  0
  6  7  1  0  0  0  0
  8  4  1  0  0  0  0
  9  8  1  0  0  0  0
 10  9  1  0  0  0  0
 10  3  1  0  0  0  0
 11 10  1  0  0  0  0
 12 11  2  0  0  0  0
 13 14  2  0  0  0  0
 13 15  2  0  0  0  0
 16 18  1  0  0  0  0
 16 13  1  0  0  0  0
 17 16  1  0  0  0  0
 19 18  1  0  0  0  0
 20 19  1  0  0  0  0
 21 26  1  0  0  0  0
 21 20  1  0  0  0  0
 22 21  1  0  0  0  0
 23 24  1  0  0  0  0
 23 22  1  0  0  0  0
 24 25  1  0  0  0  0
 25 26  1  0  0  0  0
 27 11  1  0  0  0  0
 28 29  1  0  0  0  0
 28 27  1  0  0  0  0
 29 27  1  0  0  0  0
M  END
>  <Pose>
1

>  <Score>
-8.220

$$$$
