/Users/jonathanwahrer/Desktop/Msc/3_Semester/Drug_Design_Praktikum/waehrer_HTS_screening/HTS_experiment/out/docking_results/vina_output/3npc/1027_docked.pdbqt
 OpenBabel03192220033D

 32 35  0  0  0  0  0  0  0  0999 V2000
   52.9970   85.2070   20.0930 N   0  0  0  0  0  0  0  0  0  0  0  0
   52.4390   83.9640   20.3830 C   0  0  0  0  0  2  0  0  0  0  0  0
   53.1490   82.7970   19.8140 C   0  0  0  0  0  0  0  0  0  0  0  0
   53.0870   81.6720   20.3650 O   0  0  0  0  0  0  0  0  0  0  0  0
   53.8920   83.0300   18.6230 N   0  0  0  0  0  0  0  0  0  0  0  0
   53.6530   84.2580   17.9550 C   0  0  0  0  0  0  0  0  0  0  0  0
   53.8600   84.3090   16.7100 O   0  0  0  0  0  0  0  0  0  0  0  0
   53.1740   85.4590   18.6700 C   0  0  0  0  0  2  0  0  0  0  0  0
   54.2150   85.8630   21.0380 S   0  0  0  0  0  0  0  0  0  0  0  0
   55.5360   85.2380   20.5880 O   0  0  0  0  0  0  0  0  0  0  0  0
   54.0680   85.4210   22.4760 O   0  0  0  0  0  0  0  0  0  0  0  0
   54.4390   87.5890   20.9530 C   0  0  0  0  0  0  0  0  0  0  0  0
   53.5360   88.3390   20.1890 C   0  0  0  0  0  3  0  0  0  0  0  0
   53.6420   89.6960   19.9890 C   0  0  0  0  0  0  0  0  0  0  0  0
   54.6850   90.3950   20.5580 C   0  0  0  0  0  0  0  0  0  0  0  0
   52.8390   90.6230   19.2550 N   0  0  0  0  0  0  0  0  0  0  0  0
   55.5800   89.6770   21.3120 C   0  0  0  0  0  3  0  0  0  0  0  0
   54.5970   91.8350   20.2160 C   0  0  0  0  0  2  0  0  0  0  0  0
   55.4660   88.2910   21.5140 C   0  0  0  0  0  0  0  0  0  0  0  0
   56.7200   87.4160   22.6710 Br  0  0  0  0  0  0  0  0  0  0  0  0
   53.1400   91.9560   19.7670 C   0  0  0  0  0  2  0  0  0  0  0  0
   51.9290   90.3500   18.2200 C   0  0  0  0  0  0  0  0  0  0  0  0
   51.2820   91.3260   17.7020 O   0  0  0  0  0  0  0  0  0  0  0  0
   51.6370   89.0120   17.6510 C   0  0  0  0  0  1  0  0  0  0  0  0
   54.8330   82.0420   18.1400 C   0  0  0  0  0  2  0  0  0  0  0  0
   54.2100   80.8520   17.4960 C   0  0  0  0  0  2  0  0  0  0  0  0
   53.8040   81.0180   16.1020 C   0  0  0  0  0  0  0  0  0  0  0  0
   54.7070   81.0300   15.0750 C   0  0  0  0  0  3  0  0  0  0  0  0
   54.2610   81.1940   13.7940 C   0  0  0  0  0  3  0  0  0  0  0  0
   52.9110   81.3490   13.4980 C   0  0  0  0  0  3  0  0  0  0  0  0
   52.0280   81.3330   14.5420 C   0  0  0  0  0  3  0  0  0  0  0  0
   52.4420   81.1710   15.8420 C   0  0  0  0  0  3  0  0  0  0  0  0
  1  2  1  0  0  0  0
  1  9  1  0  0  0  0
  3  4  2  0  0  0  0
  3  2  1  0  0  0  0
  5  3  1  0  0  0  0
  6  5  1  0  0  0  0
  6  8  1  0  0  0  0
  7  6  2  0  0  0  0
  8  1  1  0  0  0  0
  9 11  2  0  0  0  0
 10  9  2  0  0  0  0
 12  9  1  0  0  0  0
 12 19  1  0  0  0  0
 13 12  2  0  0  0  0
 14 13  1  0  0  0  0
 14 15  2  0  0  0  0
 15 17  1  0  0  0  0
 16 21  1  0  0  0  0
 16 14  1  0  0  0  0
 17 19  2  0  0  0  0
 18 15  1  0  0  0  0
 19 20  1  0  0  0  0
 21 18  1  0  0  0  0
 22 16  1  0  0  0  0
 23 22  2  0  0  0  0
 24 22  1  0  0  0  0
 25  5  1  0  0  0  0
 26 25  1  0  0  0  0
 27 26  1  0  0  0  0
 28 27  2  0  0  0  0
 29 28  1  0  0  0  0
 30 29  2  0  0  0  0
 30 31  1  0  0  0  0
 31 32  2  0  0  0  0
 32 27  1  0  0  0  0
M  END
>  <Pose>
1

>  <Score>
-9.173

$$$$
