/Users/jonathanwahrer/Desktop/Msc/3_Semester/Drug_Design_Praktikum/waehrer_HTS_screening/HTS_experiment/out/docking_results/vina_output/3npc/1028_docked.pdbqt
 OpenBabel03192220033D

 25 28  0  0  1  0  0  0  0  0999 V2000
   50.1960   99.7930   28.3700 N   0  0  0  0  0  0  0  0  0  0  0  0
   50.4530   99.1790   27.1170 C   0  0  0  0  0  2  0  0  0  0  0  0
   51.9080   99.3890   27.2750 C   0  0  1  0  0  3  0  0  0  0  0  0
   51.5860   99.8350   28.6580 C   0  0  0  0  0  2  0  0  0  0  0  0
   52.7400   98.2010   27.2480 N   0  0  0  0  0  0  0  0  0  0  0  0
   52.3750   96.9560   27.0900 N   0  0  0  0  0  0  0  0  0  0  0  0
   53.4440   96.1490   27.1260 N   0  0  0  0  0  0  0  0  0  0  0  0
   54.5430   96.8990   27.3150 C   0  0  0  0  0  0  0  0  0  0  0  0
   54.0760   98.2040   27.3910 C   0  0  0  0  0  3  0  0  0  0  0  0
   55.9680   96.4380   27.4210 C   0  0  0  0  0  2  0  0  0  0  0  0
   56.6310   96.7560   26.1700 N   0  0  0  0  0  0  0  0  0  0  0  0
   57.2130   98.0200   25.8310 C   0  0  0  0  0  2  0  0  0  0  0  0
   57.8430   97.8380   24.4790 C   0  0  0  0  0  2  0  0  0  0  0  0
   57.8420   96.3800   24.1500 C   0  0  0  0  0  2  0  0  0  0  0  0
   56.7980   95.8420   25.0910 C   0  0  0  0  0  0  0  0  0  0  0  0
   56.2040   94.7640   24.9090 O   0  0  0  0  0  0  0  0  0  0  0  0
   49.3990  101.2800   28.4230 S   0  0  0  0  0  0  0  0  0  0  0  0
   48.0300  101.1200   27.8260 O   0  0  0  0  0  0  0  0  0  0  0  0
   50.1030  102.3320   27.5990 O   0  0  0  0  0  0  0  0  0  0  0  0
   49.1720  101.9040   30.0550 C   0  0  0  0  0  0  0  0  0  0  0  0
   47.7680  102.6290   30.7200 S   0  0  0  0  0  0  0  0  0  0  0  0
   48.3430  102.9470   32.2960 C   0  0  0  0  0  0  0  0  0  0  0  0
   49.6280  102.4720   32.2510 C   0  0  0  0  0  3  0  0  0  0  0  0
   47.4400  103.7670   33.7870 Br  0  0  0  0  0  0  0  0  0  0  0  0
   50.0460  101.9390   31.1010 C   0  0  0  0  0  3  0  0  0  0  0  0
  1 17  1  0  0  0  0
  1  4  1  0  0  0  0
  2  1  1  0  0  0  0
  3  2  1  6  0  0  0
  3  4  1  0  0  0  0
  5  3  1  0  0  0  0
  5  9  1  0  0  0  0
  6  7  2  0  0  0  0
  6  5  1  0  0  0  0
  7  8  1  0  0  0  0
  8  9  2  0  0  0  0
  8 10  1  0  0  0  0
 11 10  1  0  0  0  0
 12 11  1  0  0  0  0
 13 12  1  0  0  0  0
 14 13  1  0  0  0  0
 14 15  1  0  0  0  0
 15 11  1  0  0  0  0
 16 15  2  0  0  0  0
 17 20  1  0  0  0  0
 18 17  2  0  0  0  0
 19 17  2  0  0  0  0
 20 21  1  0  0  0  0
 20 25  2  0  0  0  0
 21 22  1  0  0  0  0
 22 24  1  0  0  0  0
 23 22  2  0  0  0  0
 25 23  1  0  0  0  0
M  END
>  <Pose>
1

>  <Score>
-8.249

$$$$
