/Users/jonathanwahrer/Desktop/Msc/3_Semester/Drug_Design_Praktikum/waehrer_HTS_screening/HTS_experiment/out/docking_results/vina_output/3npc/1037_docked.pdbqt
 OpenBabel03192220043D

 31 34  0  0  0  0  0  0  0  0999 V2000
   50.8690   98.6190   28.7990 N   0  0  0  0  0  0  0  0  0  0  0  0
   50.4390   97.5930   27.9100 C   0  0  0  0  0  3  0  0  0  0  0  0
   51.4450   96.8220   27.1920 C   0  0  0  0  0  3  0  0  0  0  0  0
   52.8230   96.9030   27.6370 N   0  0  0  0  0  0  0  0  0  0  0  0
   53.2330   97.9120   28.5640 C   0  0  0  0  0  2  0  0  0  0  0  0
   52.0900   98.3540   29.4690 C   0  0  0  0  0  2  0  0  0  0  0  0
   53.7230   95.9540   27.1510 C   0  0  0  0  0  0  0  0  0  0  0  0
   53.0810   95.0280   26.4070 O   0  0  0  0  0  0  0  0  0  0  0  0
   50.6640  100.2120   28.2600 S   0  0  0  0  0  0  0  0  0  0  0  0
   50.0100  100.1980   26.9060 O   0  0  0  0  0  0  0  0  0  0  0  0
   52.0120  100.8860   28.0710 O   0  0  0  0  0  0  0  0  0  0  0  0
   49.6380  101.1940   29.2850 C   0  0  0  0  0  0  0  0  0  0  0  0
   50.0860  101.5910   30.5440 C   0  0  0  0  0  3  0  0  0  0  0  0
   49.3210  102.3520   31.4010 C   0  0  0  0  0  0  0  0  0  0  0  0
   48.0560  102.7600   31.0430 C   0  0  0  0  0  0  0  0  0  0  0  0
   49.7980  102.7410   32.7000 N   0  0  0  0  0  0  0  0  0  0  0  0
   47.6060  102.3710   29.8000 C   0  0  0  0  0  3  0  0  0  0  0  0
   47.2650  103.5360   31.9130 O   0  0  0  0  0  0  0  0  0  0  0  0
   48.3720  101.6030   28.9300 C   0  0  0  0  0  3  0  0  0  0  0  0
   47.9040  104.3620   32.9030 C   0  0  0  0  0  2  0  0  0  0  0  0
   48.9460  103.5090   33.5310 C   0  0  0  0  0  0  0  0  0  0  0  0
   49.1010  103.4410   34.7710 O   0  0  0  0  0  0  0  0  0  0  0  0
   50.7460  102.4320   32.9590 H   0  0  0  0  0  0  0  0  0  0  0  0
   55.1400   95.7630   27.2710 C   0  0  0  0  0  2  0  0  0  0  0  0
   56.0860   96.5400   26.4740 C   0  0  0  0  0  0  0  0  0  0  0  0
   56.5940   96.0570   25.2940 C   0  0  0  0  0  0  0  0  0  0  0  0
   57.4920   96.8110   24.5390 C   0  0  0  0  0  3  0  0  0  0  0  0
   56.0870   94.3210   24.6580 Br  0  0  0  0  0  0  0  0  0  0  0  0
   57.8670   98.0460   24.9790 C   0  0  0  0  0  3  0  0  0  0  0  0
   57.3510   98.5450   26.1770 C   0  0  0  0  0  3  0  0  0  0  0  0
   56.4780   97.8070   26.9100 C   0  0  0  0  0  3  0  0  0  0  0  0
  1  6  1  0  0  0  0
  2  1  1  0  0  0  0
  3  4  1  0  0  0  0
  3  2  2  0  0  0  0
  4  5  1  0  0  0  0
  5  6  1  0  0  0  0
  7 24  1  0  0  0  0
  7  4  1  0  0  0  0
  8  7  2  0  0  0  0
  9  1  1  0  0  0  0
  9 12  1  0  0  0  0
 10  9  2  0  0  0  0
 11  9  2  0  0  0  0
 12 13  1  0  0  0  0
 13 14  2  0  0  0  0
 14 16  1  0  0  0  0
 15 14  1  0  0  0  0
 15 18  1  0  0  0  0
 16 23  1  0  0  0  0
 16 21  1  0  0  0  0
 17 15  2  0  0  0  0
 18 20  1  0  0  0  0
 19 12  2  0  0  0  0
 19 17  1  0  0  0  0
 20 21  1  0  0  0  0
 21 22  2  0  0  0  0
 25 31  1  0  0  0  0
 25 24  1  0  0  0  0
 26 25  2  0  0  0  0
 27 29  2  0  0  0  0
 27 26  1  0  0  0  0
 28 26  1  0  0  0  0
 29 30  1  0  0  0  0
 30 31  2  0  0  0  0
M  END
>  <Pose>
1

>  <Score>
-10.257

$$$$
