/Users/jonathanwahrer/Desktop/Msc/3_Semester/Drug_Design_Praktikum/waehrer_HTS_screening/HTS_experiment/out/docking_results/vina_output/3npc/1042_docked.pdbqt
 OpenBabel03192220043D

 31 34  0  0  0  0  0  0  0  0999 V2000
   55.6860   88.8930   21.7860 N   0  0  0  0  0  0  0  0  0  0  0  0
   55.6750   89.3850   23.0810 C   0  0  0  0  0  2  0  0  0  0  0  0
   56.2570   88.2920   24.0180 C   0  0  0  0  0  2  0  0  0  0  0  0
   55.5720   87.0490   23.7930 N   0  0  0  0  0  0  0  0  0  0  0  0
   55.6210   86.5120   22.4520 C   0  0  0  0  0  2  0  0  0  0  0  0
   56.2320   87.5810   21.5720 C   0  0  0  0  0  2  0  0  0  0  0  0
   54.8740   86.3490   24.7950 C   0  0  0  0  0  0  0  0  0  0  0  0
   54.8350   86.8200   25.9550 O   0  0  0  0  0  0  0  0  0  0  0  0
   54.1950   85.0860   24.5020 C   0  0  0  0  0  2  0  0  0  0  0  0
   54.2520   84.1920   25.6550 N   0  0  0  0  0  0  0  0  0  0  0  0
   55.3380   83.4490   26.1700 C   0  0  0  0  0  0  0  0  0  0  0  0
   56.5150   83.4400   25.6810 O   0  0  0  0  0  0  0  0  0  0  0  0
   54.8680   82.7370   27.3080 N   0  0  0  0  0  0  0  0  0  0  0  0
   53.6720   83.4020   27.7560 C   0  0  0  0  0  0  0  0  0  0  0  0
   55.3640   81.8920   27.6840 H   0  0  0  0  0  0  0  0  0  0  0  0
   53.9200   84.4690   28.7720 C   0  0  0  0  0  2  0  0  0  0  0  0
   52.7180   82.4560   28.4460 C   0  0  0  0  0  2  0  0  0  0  0  0
   53.1060   83.9270   26.4910 C   0  0  0  0  0  0  0  0  0  0  0  0
   52.5100   84.6950   29.3330 C   0  0  0  0  0  2  0  0  0  0  0  0
   51.9060   83.3180   29.3560 C   0  0  0  0  0  2  0  0  0  0  0  0
   51.8970   84.0990   26.2190 O   0  0  0  0  0  0  0  0  0  0  0  0
   55.4260   89.8220   20.4400 S   0  0  0  0  0  0  0  0  0  0  0  0
   55.1470   91.2610   20.8970 O   0  0  0  0  0  0  0  0  0  0  0  0
   56.6940   89.9740   19.5930 O   0  0  0  0  0  0  0  0  0  0  0  0
   54.1020   89.4060   19.3970 C   0  0  0  0  0  0  0  0  0  0  0  0
   53.7890   90.0010   18.2040 C   0  0  0  0  0  0  0  0  0  0  0  0
   52.6650   89.6240   17.4620 C   0  0  0  0  0  3  0  0  0  0  0  0
   54.9460   91.3300   17.5010 Br  0  0  0  0  0  0  0  0  0  0  0  0
   51.8240   88.6440   17.8860 C   0  0  0  0  0  3  0  0  0  0  0  0
   52.1110   88.0260   19.0740 C   0  0  0  0  0  3  0  0  0  0  0  0
   53.2140   88.3950   19.8070 C   0  0  0  0  0  3  0  0  0  0  0  0
  1  2  1  0  0  0  0
  2  3  1  0  0  0  0
  4  3  1  0  0  0  0
  4  7  1  0  0  0  0
  5  4  1  0  0  0  0
  6  1  1  0  0  0  0
  6  5  1  0  0  0  0
  7  8  2  0  0  0  0
  9  7  1  0  0  0  0
  9 10  1  0  0  0  0
 10 11  1  0  0  0  0
 10 18  1  0  0  0  0
 11 13  1  0  0  0  0
 12 11  2  0  0  0  0
 13 15  1  0  0  0  0
 13 14  1  0  0  0  0
 14 17  1  0  0  0  0
 14 16  1  0  0  0  0
 16 19  1  0  0  0  0
 17 20  1  0  0  0  0
 18 14  1  0  0  0  0
 19 20  1  0  0  0  0
 21 18  2  0  0  0  0
 22 23  2  0  0  0  0
 22  1  1  0  0  0  0
 24 22  2  0  0  0  0
 25 31  1  0  0  0  0
 25 22  1  0  0  0  0
 26 25  2  0  0  0  0
 27 29  2  0  0  0  0
 27 26  1  0  0  0  0
 28 26  1  0  0  0  0
 29 30  1  0  0  0  0
 30 31  2  0  0  0  0
M  END
>  <Pose>
1

>  <Score>
-9.000

$$$$
