/Users/jonathanwahrer/Desktop/Msc/3_Semester/Drug_Design_Praktikum/waehrer_HTS_screening/HTS_experiment/out/docking_results/vina_output/3npc/1051_docked.pdbqt
 OpenBabel03192220053D

 27 30  0  0  0  0  0  0  0  0999 V2000
   55.2400   85.5990   26.1020 N   0  0  0  0  0  0  0  0  0  0  0  0
   54.6910   86.8320   25.6720 C   0  0  0  0  0  2  0  0  0  0  0  0
   54.9620   87.2280   24.2610 C   0  0  0  0  0  2  0  0  0  0  0  0
   56.2520   86.8180   23.7740 N   0  0  0  0  0  0  0  0  0  0  0  0
   57.1000   86.1140   24.7090 C   0  0  0  0  0  2  0  0  0  0  0  0
   56.2280   85.0070   25.2660 C   0  0  0  0  0  2  0  0  0  0  0  0
   56.7240   87.0590   22.4710 C   0  0  0  0  0  0  0  0  0  0  0  0
   57.8630   86.6630   22.1370 O   0  0  0  0  0  0  0  0  0  0  0  0
   55.8960   87.7690   21.5010 C   0  0  0  0  0  0  0  0  0  0  0  0
   56.2390   88.8740   20.8460 N   0  0  0  0  0  0  0  0  0  0  0  0
   55.2490   89.2600   20.0370 N   0  0  0  0  0  0  0  0  0  0  0  0
   54.2150   88.3950   20.1490 C   0  0  0  0  0  0  0  0  0  0  0  0
   55.1300   90.3020   19.1870 C   0  0  0  0  0  3  0  0  0  0  0  0
   54.6300   87.4430   21.0870 C   0  0  0  0  0  3  0  0  0  0  0  0
   53.0710   88.5480   19.4370 N   0  0  0  0  0  0  0  0  0  0  0  0
   52.9530   89.6030   18.5790 C   0  0  0  0  0  3  0  0  0  0  0  0
   53.9900   90.5000   18.4410 C   0  0  0  0  0  0  0  0  0  0  0  0
   53.8220   91.9860   17.2310 Br  0  0  0  0  0  0  0  0  0  0  0  0
   54.0620   84.4040   26.4870 S   0  0  0  0  0  0  0  0  0  0  0  0
   53.2870   84.8140   27.6980 O   0  0  0  0  0  0  0  0  0  0  0  0
   54.8310   83.1320   26.8200 O   0  0  0  0  0  0  0  0  0  0  0  0
   52.9530   84.1280   25.1670 C   0  0  0  0  0  0  0  0  0  0  0  0
   53.1260   83.2840   24.0940 C   0  0  0  0  0  3  0  0  0  0  0  0
   52.0590   83.3460   23.2960 N   0  0  0  0  0  0  0  0  0  0  0  0
   51.1990   84.2020   23.8140 N   0  0  0  0  0  0  0  0  0  0  0  0
   51.8410   82.6230   22.0720 C   0  0  0  0  0  1  0  0  0  0  0  0
   51.7020   84.7120   24.9670 C   0  0  0  0  0  3  0  0  0  0  0  0
  1 19  1  0  0  0  0
  2  1  1  0  0  0  0
  3  2  1  0  0  0  0
  4  3  1  0  0  0  0
  4  5  1  0  0  0  0
  5  6  1  0  0  0  0
  6  1  1  0  0  0  0
  7  4  1  0  0  0  0
  8  7  2  0  0  0  0
  9  7  1  0  0  0  0
 10  9  2  0  0  0  0
 11 12  1  0  0  0  0
 11 10  1  0  0  0  0
 12 14  2  0  0  0  0
 13 11  1  0  0  0  0
 14  9  1  0  0  0  0
 15 12  1  0  0  0  0
 16 15  2  0  0  0  0
 17 16  1  0  0  0  0
 17 13  2  0  0  0  0
 18 17  1  0  0  0  0
 19 21  2  0  0  0  0
 19 20  2  0  0  0  0
 22 19  1  0  0  0  0
 23 22  2  0  0  0  0
 24 25  1  0  0  0  0
 24 23  1  0  0  0  0
 25 27  2  0  0  0  0
 26 24  1  0  0  0  0
 27 22  1  0  0  0  0
M  END
>  <Pose>
1

>  <Score>
-8.149

$$$$
