/Users/jonathanwahrer/Desktop/Msc/3_Semester/Drug_Design_Praktikum/waehrer_HTS_screening/HTS_experiment/out/docking_results/vina_output/3npc/1056_docked.pdbqt
 OpenBabel03192220053D

 30 33  0  0  1  0  0  0  0  0999 V2000
   56.1290   87.0420   23.6050 N   0  0  0  0  0  0  0  0  0  0  0  0
   57.1140   86.4290   24.4110 C   0  0  0  0  0  2  0  0  0  0  0  0
   56.7190   85.2280   25.1670 C   0  0  0  0  0  2  0  0  0  0  0  0
   55.3940   85.3370   25.6980 N   0  0  0  0  0  0  0  0  0  0  0  0
   54.6590   86.5560   25.5130 C   0  0  0  0  0  2  0  0  0  0  0  0
   54.8250   87.1540   24.1510 C   0  0  0  0  0  2  0  0  0  0  0  0
   54.8070   84.2640   26.3990 C   0  0  0  0  0  0  0  0  0  0  0  0
   55.4620   83.2080   26.5500 O   0  0  0  0  0  0  0  0  0  0  0  0
   53.4650   84.3050   26.9660 C   0  0  1  0  0  3  0  0  0  0  0  0
   52.3740   83.9880   26.1780 C   0  0  0  0  0  3  0  0  0  0  0  0
   51.1380   84.0250   26.6990 N   0  0  0  0  0  0  0  0  0  0  0  0
   50.9040   84.3630   27.9850 C   0  0  1  0  0  3  0  0  0  0  0  0
   51.9420   84.6770   28.7790 N   0  0  0  0  0  0  0  0  0  0  0  0
   49.6120   84.3930   28.4990 C   0  0  0  0  0  3  0  0  0  0  0  0
   51.7100   85.0180   30.0780 C   0  0  0  0  0  3  0  0  0  0  0  0
   53.2050   84.6480   28.2780 C   0  0  0  0  0  0  0  0  0  0  0  0
   50.4360   85.0540   30.6060 C   0  0  0  0  0  0  0  0  0  0  0  0
   49.3510   84.7350   29.8070 C   0  0  0  0  0  3  0  0  0  0  0  0
   50.1440   85.4210   32.0140 C   0  0  0  0  0  1  0  0  0  0  0  0
   54.1620   84.9370   29.0120 O   0  0  0  0  0  0  0  0  0  0  0  0
   56.2240   86.7500   21.9420 S   0  0  0  0  0  0  0  0  0  0  0  0
   57.6210   86.4190   21.5490 O   0  0  0  0  0  0  0  0  0  0  0  0
   55.3430   85.5700   21.6130 O   0  0  0  0  0  0  0  0  0  0  0  0
   55.6370   88.1310   21.0560 C   0  0  0  0  0  0  0  0  0  0  0  0
   54.3840   88.1040   20.4790 C   0  0  0  0  0  3  0  0  0  0  0  0
   53.9780   89.2410   19.7870 C   0  0  0  0  0  0  0  0  0  0  0  0
   54.7750   90.3500   19.6720 C   0  0  0  0  0  3  0  0  0  0  0  0
   52.2620   89.2660   18.9700 Br  0  0  0  0  0  0  0  0  0  0  0  0
   56.0340   90.3660   20.2560 C   0  0  0  0  0  3  0  0  0  0  0  0
   56.4610   89.2330   20.9570 C   0  0  0  0  0  3  0  0  0  0  0  0
  1  6  1  0  0  0  0
  1  2  1  0  0  0  0
  2  3  1  0  0  0  0
  3  4  1  0  0  0  0
  4  7  1  0  0  0  0
  5  4  1  0  0  0  0
  6  5  1  0  0  0  0
  7  8  2  0  0  0  0
  9  7  1  1  0  0  0
  9 16  1  0  0  0  0
 10 11  2  0  0  0  0
 10  9  1  0  0  0  0
 11 12  1  0  0  0  0
 12 14  1  6  0  0  0
 12 13  1  0  0  0  0
 13 15  1  0  0  0  0
 14 18  2  0  0  0  0
 15 17  2  0  0  0  0
 16 13  1  0  0  0  0
 16 20  2  0  0  0  0
 17 19  1  0  0  0  0
 18 17  1  0  0  0  0
 21  1  1  0  0  0  0
 22 21  2  0  0  0  0
 23 21  2  0  0  0  0
 24 21  1  0  0  0  0
 25 24  2  0  0  0  0
 26 25  1  0  0  0  0
 27 26  2  0  0  0  0
 27 29  1  0  0  0  0
 28 26  1  0  0  0  0
 29 30  2  0  0  0  0
 30 24  1  0  0  0  0
M  END
>  <Pose>
1

>  <Score>
-9.758

$$$$
