/Users/jonathanwahrer/Desktop/Msc/3_Semester/Drug_Design_Praktikum/waehrer_HTS_screening/HTS_experiment/out/docking_results/vina_output/3npc/1073_docked.pdbqt
 OpenBabel03192220063D

 28 31  0  0  0  0  0  0  0  0999 V2000
   55.6540   86.1580   24.9140 N   0  0  0  0  0  0  0  0  0  0  0  0
   57.0580   86.2290   24.8750 C   0  0  0  0  0  2  0  0  0  0  0  0
   57.5750   87.4050   24.0930 C   0  0  0  0  0  2  0  0  0  0  0  0
   56.6430   87.9550   23.1760 N   0  0  0  0  0  0  0  0  0  0  0  0
   55.4440   88.3440   23.8280 C   0  0  0  0  0  2  0  0  0  0  0  0
   54.9210   87.3610   24.8090 C   0  0  0  0  0  2  0  0  0  0  0  0
   56.5370   87.1850   21.9930 C   0  0  0  0  0  2  0  0  0  0  0  0
   55.3560   87.3480   21.2160 N   0  0  0  0  0  0  0  0  0  0  0  0
   54.9840   88.5410   20.7990 N   0  0  0  0  0  0  0  0  0  0  0  0
   53.8840   88.7820   20.0690 C   0  0  0  0  0  0  0  0  0  0  0  0
   53.1060   87.6950   19.7450 C   0  0  0  0  0  3  0  0  0  0  0  0
   53.4400   86.4220   20.1530 C   0  0  0  0  0  3  0  0  0  0  0  0
   54.6000   86.2830   20.9040 C   0  0  0  0  0  0  0  0  0  0  0  0
   54.9080   85.0990   21.2800 O   0  0  0  0  0  0  0  0  0  0  0  0
   53.5060   90.0910   19.6300 N   0  0  0  0  0  0  0  0  0  0  0  0
   54.2370   91.2110   19.6170 C   0  0  0  0  0  3  0  0  0  0  0  0
   53.4830   92.2100   19.1220 N   0  0  0  0  0  0  0  0  0  0  0  0
   52.2630   91.7340   18.8150 C   0  0  0  0  0  3  0  0  0  0  0  0
   52.2930   90.3950   19.1410 C   0  0  0  0  0  3  0  0  0  0  0  0
   54.9350   84.8810   25.6960 S   0  0  0  0  0  0  0  0  0  0  0  0
   55.7960   83.6650   25.7310 O   0  0  0  0  0  0  0  0  0  0  0  0
   54.5760   85.2570   27.0980 O   0  0  0  0  0  0  0  0  0  0  0  0
   53.4410   84.4420   24.8410 C   0  0  0  0  0  0  0  0  0  0  0  0
   53.2310   83.3980   23.5110 S   0  0  0  0  0  0  0  0  0  0  0  0
   51.5440   83.5320   23.3230 C   0  0  0  0  0  0  0  0  0  0  0  0
   51.1840   84.4050   24.3200 C   0  0  0  0  0  3  0  0  0  0  0  0
   50.4000   82.6850   22.0400 Br  0  0  0  0  0  0  0  0  0  0  0  0
   52.1700   84.8710   25.1010 C   0  0  0  0  0  3  0  0  0  0  0  0
  1 20  1  0  0  0  0
  2  1  1  0  0  0  0
  3  2  1  0  0  0  0
  4  5  1  0  0  0  0
  4  3  1  0  0  0  0
  5  6  1  0  0  0  0
  6  1  1  0  0  0  0
  7  4  1  0  0  0  0
  8  7  1  0  0  0  0
  9  8  1  0  0  0  0
 10  9  2  0  0  0  0
 11 10  1  0  0  0  0
 11 12  2  0  0  0  0
 12 13  1  0  0  0  0
 13  8  1  0  0  0  0
 13 14  2  0  0  0  0
 15 10  1  0  0  0  0
 16 15  1  0  0  0  0
 17 16  2  0  0  0  0
 18 17  1  0  0  0  0
 18 19  2  0  0  0  0
 19 15  1  0  0  0  0
 20 21  2  0  0  0  0
 20 22  2  0  0  0  0
 23 28  2  0  0  0  0
 23 20  1  0  0  0  0
 24 23  1  0  0  0  0
 25 24  1  0  0  0  0
 25 26  2  0  0  0  0
 26 28  1  0  0  0  0
 27 25  1  0  0  0  0
M  END
>  <Pose>
1

>  <Score>
-8.128

$$$$
