/Users/jonathanwahrer/Desktop/Msc/3_Semester/Drug_Design_Praktikum/waehrer_HTS_screening/HTS_experiment/out/docking_results/vina_output/3npc/1081_docked.pdbqt
 OpenBabel03192220063D

 27 30  0  0  0  0  0  0  0  0999 V2000
   51.9250   99.6740   27.6350 N   0  0  0  0  0  0  0  0  0  0  0  0
   51.9980  100.5350   28.7530 C   0  0  0  0  0  2  0  0  0  0  0  0
   50.7320  101.1970   29.1830 C   0  0  0  0  0  2  0  0  0  0  0  0
   49.5780  100.8570   28.3880 N   0  0  0  0  0  0  0  0  0  0  0  0
   49.7360  100.6260   26.9890 C   0  0  0  0  0  3  0  0  0  0  0  0
   51.0280  100.0000   26.5930 C   0  0  0  0  0  3  0  0  0  0  0  0
   48.3140  100.7800   29.0610 C   0  0  0  0  0  0  0  0  0  0  0  0
   47.9420  101.5140   30.1240 N   0  0  0  0  0  0  0  0  0  0  0  0
   46.7050  101.1010   30.4230 N   0  0  0  0  0  0  0  0  0  0  0  0
   46.3360  100.1580   29.5840 N   0  0  0  0  0  0  0  0  0  0  0  0
   47.3060   99.9310   28.7240 N   0  0  0  0  0  0  0  0  0  0  0  0
   48.7030  102.5210   30.7760 C   0  0  0  0  0  0  0  0  0  0  0  0
   49.6430  102.2020   31.7290 C   0  0  0  0  0  3  0  0  0  0  0  0
   50.3750  103.2130   32.3500 C   0  0  0  0  0  3  0  0  0  0  0  0
   50.1790  104.5390   32.0300 C   0  0  0  0  0  3  0  0  0  0  0  0
   49.2220  104.8630   31.0600 C   0  0  0  0  0  3  0  0  0  0  0  0
   48.4990  103.8380   30.4490 C   0  0  0  0  0  3  0  0  0  0  0  0
   52.1250   98.0100   27.9270 S   0  0  0  0  0  0  0  0  0  0  0  0
   50.9500   97.1740   27.6080 O   0  0  0  0  0  0  0  0  0  0  0  0
   52.3890   97.8300   29.4170 O   0  0  0  0  0  0  0  0  0  0  0  0
   53.5370   97.4280   27.0890 C   0  0  0  0  0  0  0  0  0  0  0  0
   53.5670   96.2320   26.4170 C   0  0  0  0  0  3  0  0  0  0  0  0
   54.7030   95.7790   25.7480 C   0  0  0  0  0  3  0  0  0  0  0  0
   55.8460   96.5850   25.7710 C   0  0  0  0  0  0  0  0  0  0  0  0
   55.8280   97.7870   26.4420 C   0  0  0  0  0  3  0  0  0  0  0  0
   57.4400   96.0270   24.8710 Br  0  0  0  0  0  0  0  0  0  0  0  0
   54.6930   98.1950   27.0860 C   0  0  0  0  0  3  0  0  0  0  0  0
  1 18  1  0  0  0  0
  1  2  1  0  0  0  0
  2  3  1  0  0  0  0
  4  7  1  0  0  0  0
  4  3  1  0  0  0  0
  5  4  1  0  0  0  0
  6  5  2  0  0  0  0
  6  1  1  0  0  0  0
  7  8  1  0  0  0  0
  8  9  1  0  0  0  0
  8 12  1  0  0  0  0
 10  9  2  0  0  0  0
 11  7  2  0  0  0  0
 11 10  1  0  0  0  0
 12 13  1  0  0  0  0
 13 14  2  0  0  0  0
 15 14  1  0  0  0  0
 16 15  2  0  0  0  0
 17 12  2  0  0  0  0
 17 16  1  0  0  0  0
 18 20  2  0  0  0  0
 19 18  2  0  0  0  0
 21 18  1  0  0  0  0
 22 21  2  0  0  0  0
 23 24  2  0  0  0  0
 23 22  1  0  0  0  0
 24 25  1  0  0  0  0
 25 27  2  0  0  0  0
 26 24  1  0  0  0  0
 27 21  1  0  0  0  0
M  END
>  <Pose>
1

>  <Score>
-8.958

$$$$
