/Users/jonathanwahrer/Desktop/Msc/3_Semester/Drug_Design_Praktikum/waehrer_HTS_screening/HTS_experiment/out/docking_results/vina_output/3npc/1084_docked.pdbqt
 OpenBabel03192220063D

 29 32  0  0  0  0  0  0  0  0999 V2000
   54.9870   86.6910   24.4010 N   0  0  0  0  0  0  0  0  0  0  0  0
   54.9940   86.2860   23.0350 C   0  0  0  0  0  2  0  0  0  0  0  0
   55.8580   87.1600   22.1510 C   0  0  0  0  0  2  0  0  0  0  0  0
   55.9220   88.4580   22.7580 N   0  0  0  0  0  0  0  0  0  0  0  0
   56.5230   88.5810   24.0540 C   0  0  0  0  0  2  0  0  0  0  0  0
   56.2060   87.3310   24.8360 C   0  0  0  0  0  2  0  0  0  0  0  0
   55.4060   89.5780   22.0850 C   0  0  0  0  0  0  0  0  0  0  0  0
   54.8170   89.4930   20.8810 N   0  0  0  0  0  0  0  0  0  0  0  0
   54.3140   90.5070   20.1990 C   0  0  0  0  0  0  0  0  0  0  0  0
   54.3940   91.7660   20.7700 C   0  0  0  0  0  3  0  0  0  0  0  0
   54.9880   91.9040   22.0040 C   0  0  0  0  0  0  0  0  0  0  0  0
   55.4760   90.8170   22.6290 N   0  0  0  0  0  0  0  0  0  0  0  0
   55.0950   93.2400   22.6510 C   0  0  0  0  0  1  0  0  0  0  0  0
   53.7180   90.2850   18.9340 N   0  0  0  0  0  0  0  0  0  0  0  0
   53.1150   89.0270   18.5430 C   0  0  0  0  0  2  0  0  0  0  0  0
   52.1210   89.3600   17.4310 C   0  0  0  0  0  2  0  0  0  0  0  0
   51.4550   90.5260   17.8150 O   0  0  0  0  0  0  0  0  0  0  0  0
   52.2250   91.6590   17.6900 C   0  0  0  0  0  2  0  0  0  0  0  0
   53.7020   91.3600   17.9700 C   0  0  0  0  0  2  0  0  0  0  0  0
   54.7780   85.2800   25.3790 S   0  0  0  0  0  0  0  0  0  0  0  0
   56.0630   84.4710   25.3070 O   0  0  0  0  0  0  0  0  0  0  0  0
   54.5740   85.6990   26.8060 O   0  0  0  0  0  0  0  0  0  0  0  0
   53.4660   84.2920   24.8030 C   0  0  0  0  0  0  0  0  0  0  0  0
   53.6770   82.9280   24.6540 C   0  0  0  0  0  3  0  0  0  0  0  0
   52.6850   82.0840   24.2030 C   0  0  0  0  0  3  0  0  0  0  0  0
   51.4500   82.5940   23.8880 C   0  0  0  0  0  0  0  0  0  0  0  0
   51.2010   83.9470   24.0220 C   0  0  0  0  0  3  0  0  0  0  0  0
   50.0890   81.4130   23.2660 Br  0  0  0  0  0  0  0  0  0  0  0  0
   52.2240   84.7730   24.4810 C   0  0  0  0  0  3  0  0  0  0  0  0
  1  6  1  0  0  0  0
  1 20  1  0  0  0  0
  2  1  1  0  0  0  0
  3  4  1  0  0  0  0
  3  2  1  0  0  0  0
  4  5  1  0  0  0  0
  5  6  1  0  0  0  0
  7 12  1  0  0  0  0
  7  4  1  0  0  0  0
  8  7  2  0  0  0  0
  9 10  2  0  0  0  0
  9  8  1  0  0  0  0
 10 11  1  0  0  0  0
 11 12  2  0  0  0  0
 11 13  1  0  0  0  0
 14  9  1  0  0  0  0
 15 14  1  0  0  0  0
 16 17  1  0  0  0  0
 16 15  1  0  0  0  0
 18 17  1  0  0  0  0
 18 19  1  0  0  0  0
 19 14  1  0  0  0  0
 20 22  2  0  0  0  0
 21 20  2  0  0  0  0
 23 20  1  0  0  0  0
 24 23  1  0  0  0  0
 25 24  2  0  0  0  0
 26 27  2  0  0  0  0
 26 25  1  0  0  0  0
 27 29  1  0  0  0  0
 28 26  1  0  0  0  0
 29 23  2  0  0  0  0
M  END
>  <Pose>
1

>  <Score>
-8.464

$$$$
