/Users/jonathanwahrer/Desktop/Msc/3_Semester/Drug_Design_Praktikum/waehrer_HTS_screening/HTS_experiment/out/docking_results/vina_output/3npc/1089_docked.pdbqt
 OpenBabel03192220073D

 25 28  0  0  0  0  0  0  0  0999 V2000
   56.9940   87.2480   23.5850 N   0  0  0  0  0  0  0  0  0  0  0  0
   57.4280   86.1830   24.4040 C   0  0  0  0  0  2  0  0  0  0  0  0
   56.3780   85.5580   25.2890 C   0  0  0  0  0  2  0  0  0  0  0  0
   55.1140   86.2190   25.2070 N   0  0  0  0  0  0  0  0  0  0  0  0
   54.9690   87.6280   24.8870 C   0  0  0  0  0  2  0  0  0  0  0  0
   56.2210   88.1970   24.2850 C   0  0  0  0  0  2  0  0  0  0  0  0
   53.9160   85.4910   25.4420 C   0  0  0  0  0  0  0  0  0  0  0  0
   53.4600   85.3400   26.7210 N   0  0  0  0  0  0  0  0  0  0  0  0
   52.3340   84.6680   26.9630 C   0  0  0  0  0  3  0  0  0  0  0  0
   51.6120   84.1210   25.9870 N   0  0  0  0  0  0  0  0  0  0  0  0
   52.0390   84.2570   24.7330 C   0  0  0  0  0  0  0  0  0  0  0  0
   51.5340   83.8220   23.5750 N   0  0  0  0  0  0  0  0  0  0  0  0
   53.2070   84.9460   24.4050 C   0  0  0  0  0  0  0  0  0  0  0  0
   52.3580   84.2250   22.5670 C   0  0  0  0  0  3  0  0  0  0  0  0
   53.3810   84.9130   23.0760 N   0  0  0  0  0  0  0  0  0  0  0  0
   54.1540   85.3290   22.5240 H   0  0  0  0  0  0  0  0  0  0  0  0
   56.6580   86.9570   21.9740 S   0  0  0  0  0  0  0  0  0  0  0  0
   55.6460   85.8210   21.8860 O   0  0  0  0  0  0  0  0  0  0  0  0
   57.8420   86.5250   21.1880 O   0  0  0  0  0  0  0  0  0  0  0  0
   55.9080   88.3080   21.1170 C   0  0  0  0  0  0  0  0  0  0  0  0
   54.3060   88.4810   20.5650 S   0  0  0  0  0  0  0  0  0  0  0  0
   54.4150   90.0300   19.8670 C   0  0  0  0  0  0  0  0  0  0  0  0
   55.7260   90.3760   20.0900 C   0  0  0  0  0  3  0  0  0  0  0  0
   53.0660   91.0560   18.9880 Br  0  0  0  0  0  0  0  0  0  0  0  0
   56.4880   89.4850   20.7340 C   0  0  0  0  0  3  0  0  0  0  0  0
  1  6  1  0  0  0  0
  1  2  1  0  0  0  0
  2  3  1  0  0  0  0
  4  3  1  0  0  0  0
  4  7  1  0  0  0  0
  5  4  1  0  0  0  0
  6  5  1  0  0  0  0
  7  8  1  0  0  0  0
  8  9  2  0  0  0  0
 10  9  1  0  0  0  0
 11 10  2  0  0  0  0
 12 11  1  0  0  0  0
 13 11  1  0  0  0  0
 13  7  2  0  0  0  0
 14 15  1  0  0  0  0
 14 12  2  0  0  0  0
 15 13  1  0  0  0  0
 16 15  1  0  0  0  0
 17  1  1  0  0  0  0
 18 17  2  0  0  0  0
 19 17  2  0  0  0  0
 20 17  1  0  0  0  0
 21 20  1  0  0  0  0
 22 23  2  0  0  0  0
 22 21  1  0  0  0  0
 23 25  1  0  0  0  0
 24 22  1  0  0  0  0
 25 20  2  0  0  0  0
M  END
>  <Pose>
1

>  <Score>
-8.120

$$$$
