/Users/jonathanwahrer/Desktop/Msc/3_Semester/Drug_Design_Praktikum/waehrer_HTS_screening/HTS_experiment/out/docking_results/vina_output/3npc/1100_docked.pdbqt
 OpenBabel03192220073D

 26 29  0  0  1  0  0  0  0  0999 V2000
   53.7650   84.7610   19.1020 N   0  0  0  0  0  0  0  0  0  0  0  0
   52.6260   85.4590   18.6060 C   0  0  0  0  0  2  0  0  0  0  0  0
   52.2600   86.6640   19.4470 C   0  0  0  0  0  2  0  0  0  0  0  0
   53.4890   87.2300   19.9420 N   0  0  1  0  0  0  0  0  0  0  0  0
   54.2230   86.4170   20.8780 C   0  0  0  0  0  2  0  0  0  0  0  0
   54.1190   84.9940   20.4620 C   0  0  0  0  0  2  0  0  0  0  0  0
   53.9730   88.5000   19.5540 C   0  0  1  0  0  3  0  0  0  0  0  0
   53.7910   88.9850   18.3250 C   0  0  0  0  0  3  0  0  0  0  0  0
   54.2710   90.2830   17.8880 C   0  0  0  0  0  0  0  0  0  0  0  0
   54.0610   90.7130   16.6550 C   0  0  0  0  0  1  0  0  0  0  0  0
   54.9730   91.0900   18.8100 N   0  0  0  0  0  0  0  0  0  0  0  0
   55.1490   90.5370   20.1230 C   0  0  0  0  0  0  0  0  0  0  0  0
   55.3530   92.0230   18.6000 H   0  0  0  0  0  0  0  0  0  0  0  0
   54.6850   89.3290   20.4770 N   0  0  0  0  0  0  0  0  0  0  0  0
   55.7630   91.0320   21.2260 N   0  0  0  0  0  0  0  0  0  0  0  0
   55.0040   89.0960   21.7530 N   0  0  0  0  0  0  0  0  0  0  0  0
   55.6790   90.1530   22.2390 C   0  0  0  0  0  3  0  0  0  0  0  0
   53.6570   83.1100   18.7220 S   0  0  0  0  0  0  0  0  0  0  0  0
   52.5470   82.4100   19.4630 O   0  0  0  0  0  0  0  0  0  0  0  0
   54.9480   82.4440   19.1750 O   0  0  0  0  0  0  0  0  0  0  0  0
   53.5390   82.8200   16.9870 C   0  0  0  0  0  0  0  0  0  0  0  0
   52.6420   81.5970   16.2220 S   0  0  0  0  0  0  0  0  0  0  0  0
   53.0150   81.9520   14.6000 C   0  0  0  0  0  0  0  0  0  0  0  0
   53.8460   83.0360   14.6990 C   0  0  0  0  0  3  0  0  0  0  0  0
   52.4330   81.0700   12.9850 Br  0  0  0  0  0  0  0  0  0  0  0  0
   54.1170   83.4870   15.9470 C   0  0  0  0  0  3  0  0  0  0  0  0
  1  6  1  0  0  0  0
  2  1  1  0  0  0  0
  2  3  1  0  0  0  0
  4  3  1  6  0  0  0
  4  5  1  0  0  0  0
  6  5  1  0  0  0  0
  7  8  1  1  0  0  0
  7  4  1  0  0  0  0
  7 14  1  0  0  0  0
  9  8  2  0  0  0  0
  9 11  1  0  0  0  0
 10  9  1  0  0  0  0
 11 12  1  0  0  0  0
 12 14  1  0  0  0  0
 12 15  2  0  0  0  0
 13 11  1  0  0  0  0
 14 16  1  0  0  0  0
 15 17  1  0  0  0  0
 16 17  2  0  0  0  0
 18  1  1  0  0  0  0
 18 20  2  0  0  0  0
 18 19  2  0  0  0  0
 21 18  1  0  0  0  0
 22 21  1  0  0  0  0
 23 24  2  0  0  0  0
 23 22  1  0  0  0  0
 24 26  1  0  0  0  0
 25 23  1  0  0  0  0
 26 21  2  0  0  0  0
M  END
>  <Pose>
1

>  <Score>
-8.684

$$$$
