/Users/jonathanwahrer/Desktop/Msc/3_Semester/Drug_Design_Praktikum/waehrer_HTS_screening/HTS_experiment/out/docking_results/vina_output/3npc/1101_docked.pdbqt
 OpenBabel03192220073D

 26 29  0  0  0  0  0  0  0  0999 V2000
   55.8350   86.6020   25.3050 N   0  0  0  0  0  0  0  0  0  0  0  0
   57.0620   86.6330   24.6030 C   0  0  0  0  0  2  0  0  0  0  0  0
   57.0030   87.1300   23.2020 C   0  0  0  0  0  2  0  0  0  0  0  0
   56.1200   88.3010   23.0820 N   0  0  0  0  0  0  0  0  0  0  0  0
   55.6740   88.8510   24.3440 C   0  0  0  0  0  2  0  0  0  0  0  0
   54.9700   87.7270   25.0790 C   0  0  0  0  0  2  0  0  0  0  0  0
   55.0170   85.1100   25.2960 S   0  0  0  0  0  0  0  0  0  0  0  0
   56.0430   84.0280   25.6120 O   0  0  0  0  0  0  0  0  0  0  0  0
   54.4920   84.7970   23.9260 O   0  0  0  0  0  0  0  0  0  0  0  0
   53.7820   84.9890   26.5200 C   0  0  0  0  0  0  0  0  0  0  0  0
   54.0930   84.7400   27.8500 C   0  0  0  0  0  3  0  0  0  0  0  0
   53.1160   84.6450   28.8160 C   0  0  0  0  0  3  0  0  0  0  0  0
   51.7910   84.8020   28.4410 C   0  0  0  0  0  0  0  0  0  0  0  0
   51.4310   85.0520   27.1310 C   0  0  0  0  0  3  0  0  0  0  0  0
   50.4450   84.6670   29.7970 Br  0  0  0  0  0  0  0  0  0  0  0  0
   52.4380   85.1400   26.1970 C   0  0  0  0  0  3  0  0  0  0  0  0
   55.7620   88.8140   21.8140 C   0  0  0  0  0  0  0  0  0  0  0  0
   54.6660   88.2670   21.1580 C   0  0  0  0  0  3  0  0  0  0  0  0
   54.3230   88.7800   19.9080 C   0  0  0  0  0  0  0  0  0  0  0  0
   55.0130   89.7640   19.3470 N   0  0  0  0  0  0  0  0  0  0  0  0
   53.3200   88.4230   19.0880 N   0  0  0  0  0  0  0  0  0  0  0  0
   54.4420   90.0320   18.1610 C   0  0  0  0  0  0  0  0  0  0  0  0
   56.0430   90.2860   19.9510 N   0  0  0  0  0  0  0  0  0  0  0  0
   53.3970   89.1940   18.0170 N   0  0  0  0  0  0  0  0  0  0  0  0
   54.8800   91.0710   17.1740 C   0  0  0  0  0  1  0  0  0  0  0  0
   56.4200   89.8230   21.1710 C   0  0  0  0  0  3  0  0  0  0  0  0
  2  1  1  0  0  0  0
  3  2  1  0  0  0  0
  4  3  1  0  0  0  0
  4  5  1  0  0  0  0
  5  6  1  0  0  0  0
  6  1  1  0  0  0  0
  7  1  1  0  0  0  0
  7  8  2  0  0  0  0
  7 10  1  0  0  0  0
  9  7  2  0  0  0  0
 10 11  1  0  0  0  0
 11 12  2  0  0  0  0
 13 12  1  0  0  0  0
 13 15  1  0  0  0  0
 14 13  2  0  0  0  0
 16 10  2  0  0  0  0
 16 14  1  0  0  0  0
 17  4  1  0  0  0  0
 18 17  2  0  0  0  0
 19 18  1  0  0  0  0
 20 19  1  0  0  0  0
 20 23  1  0  0  0  0
 21 19  2  0  0  0  0
 22 20  1  0  0  0  0
 23 26  2  0  0  0  0
 24 22  2  0  0  0  0
 24 21  1  0  0  0  0
 25 22  1  0  0  0  0
 26 17  1  0  0  0  0
M  END
>  <Pose>
1

>  <Score>
-8.655

$$$$
