/Users/jonathanwahrer/Desktop/Msc/3_Semester/Drug_Design_Praktikum/waehrer_HTS_screening/HTS_experiment/out/docking_results/vina_output/3npc/1105_docked.pdbqt
 OpenBabel03192220073D

 33 36  0  0  1  0  0  0  0  0999 V2000
   55.0870   87.7950   23.4760 N   0  0  0  0  0  0  0  0  0  0  0  0
   55.8790   88.9510   23.7330 C   0  0  0  0  0  2  0  0  0  0  0  0
   56.7980   88.8350   24.9270 C   0  0  0  0  0  2  0  0  0  0  0  0
   57.4970   87.5480   24.9220 N   0  0  0  0  0  0  0  0  0  0  0  0
   56.6190   86.4280   24.6680 C   0  0  0  0  0  0  0  0  0  0  0  0
   57.0300   85.2680   24.5820 O   0  0  0  0  0  0  0  0  0  0  0  0
   55.1850   86.8500   24.5260 C   0  0  2  0  0  3  0  0  0  0  0  0
   58.4960   87.4160   25.0770 H   0  0  0  0  0  0  0  0  0  0  0  0
   54.2480   85.7080   24.5150 C   0  0  0  0  0  2  0  0  0  0  0  0
   53.8400   85.3870   25.9040 C   0  0  0  0  0  0  0  0  0  0  0  0
   54.5760   85.8310   26.8250 O   0  0  0  0  0  0  0  0  0  0  0  0
   52.6720   84.6150   26.1890 N   0  0  0  0  0  0  0  0  0  0  0  0
   51.8410   84.1140   25.1290 C   0  0  0  0  0  2  0  0  0  0  0  0
   52.3360   84.3420   27.5620 C   0  0  0  0  0  2  0  0  0  0  0  0
   51.1380   82.8330   25.4540 C   0  0  0  0  0  2  0  0  0  0  0  0
   50.8070   82.6820   26.8610 N   0  0  0  0  0  0  0  0  0  0  0  0
   51.9240   82.9000   27.7680 C   0  0  0  0  0  2  0  0  0  0  0  0
   49.5460   82.3410   27.3680 C   0  0  0  0  0  0  0  0  0  0  0  0
   49.2290   82.6670   28.6680 C   0  0  0  0  0  3  0  0  0  0  0  0
   47.9860   82.3150   29.1720 C   0  0  0  0  0  3  0  0  0  0  0  0
   47.0450   81.6480   28.4270 C   0  0  0  0  0  3  0  0  0  0  0  0
   47.3670   81.3250   27.1290 C   0  0  0  0  0  3  0  0  0  0  0  0
   48.6090   81.6730   26.6190 C   0  0  0  0  0  3  0  0  0  0  0  0
   55.4000   87.2100   21.9120 S   0  0  0  0  0  0  0  0  0  0  0  0
   54.6770   85.9460   21.5730 O   0  0  0  0  0  0  0  0  0  0  0  0
   56.8840   86.9070   21.7380 O   0  0  0  0  0  0  0  0  0  0  0  0
   55.0180   88.4050   20.6840 C   0  0  0  0  0  0  0  0  0  0  0  0
   55.8960   89.4240   20.3370 C   0  0  0  0  0  3  0  0  0  0  0  0
   55.6180   90.3670   19.3880 C   0  0  0  0  0  3  0  0  0  0  0  0
   54.4220   90.3380   18.7200 C   0  0  0  0  0  0  0  0  0  0  0  0
   53.5120   89.3240   19.0420 C   0  0  0  0  0  3  0  0  0  0  0  0
   53.9780   91.6220   17.3880 Br  0  0  0  0  0  0  0  0  0  0  0  0
   53.8240   88.3930   20.0030 C   0  0  0  0  0  3  0  0  0  0  0  0
  1  2  1  0  0  0  0
  1  7  1  0  0  0  0
  2  3  1  0  0  0  0
  4  3  1  0  0  0  0
  4  8  1  0  0  0  0
  5  4  1  0  0  0  0
  6  5  2  0  0  0  0
  7  9  1  6  0  0  0
  7  5  1  0  0  0  0
  9 10  1  0  0  0  0
 10 12  1  0  0  0  0
 10 11  2  0  0  0  0
 12 14  1  0  0  0  0
 13 15  1  0  0  0  0
 13 12  1  0  0  0  0
 14 17  1  0  0  0  0
 15 16  1  0  0  0  0
 16 18  1  0  0  0  0
 16 17  1  0  0  0  0
 18 19  1  0  0  0  0
 19 20  2  0  0  0  0
 21 20  1  0  0  0  0
 22 21  2  0  0  0  0
 23 22  1  0  0  0  0
 23 18  2  0  0  0  0
 24  1  1  0  0  0  0
 25 24  2  0  0  0  0
 26 24  2  0  0  0  0
 27 24  1  0  0  0  0
 28 27  1  0  0  0  0
 29 28  2  0  0  0  0
 30 31  2  0  0  0  0
 30 29  1  0  0  0  0
 31 33  1  0  0  0  0
 32 30  1  0  0  0  0
 33 27  2  0  0  0  0
M  END
>  <Pose>
1

>  <Score>
-8.927

$$$$
