/Users/jonathanwahrer/Desktop/Msc/3_Semester/Drug_Design_Praktikum/waehrer_HTS_screening/HTS_experiment/out/docking_results/vina_output/3npc/1130_docked.pdbqt
 OpenBabel03192220093D

 29 32  0  0  0  0  0  0  0  0999 V2000
   53.2260   84.7900   20.1290 C   0  0  0  0  0  0  0  0  0  0  0  0
   52.1870   85.2230   19.3940 N   0  0  0  0  0  0  0  0  0  0  0  0
   51.9720   86.4950   19.1020 N   0  0  0  0  0  2  0  0  0  0  0  0
   52.8110   87.4590   19.5400 C   0  0  0  0  0  0  0  0  0  0  0  0
   53.8850   87.0380   20.2970 C   0  0  0  0  0  0  0  0  0  0  0  0
   54.5680   88.1570   20.6130 N   0  0  0  0  0  0  0  0  0  0  0  0
   53.9780   89.2470   20.0950 C   0  0  0  0  0  0  0  0  0  0  0  0
   52.8570   88.8360   19.4070 C   0  0  0  0  0  0  0  0  0  0  0  0
   52.0160   89.7210   18.7480 C   0  0  0  0  0  3  0  0  0  0  0  0
   52.3500   91.0620   18.8080 C   0  0  0  0  0  0  0  0  0  0  0  0
   53.4660   91.5000   19.4910 C   0  0  0  0  0  3  0  0  0  0  0  0
   54.2850   90.6060   20.1370 C   0  0  0  0  0  3  0  0  0  0  0  0
   51.1900   92.2820   17.8990 Br  0  0  0  0  0  0  0  0  0  0  0  0
   55.7780   88.1450   21.4110 C   0  0  0  0  0  1  0  0  0  0  0  0
   54.0840   85.7170   20.5850 N   0  0  0  0  0  2  0  0  0  0  0  0
   53.4530   83.0350   20.4860 S   0  0  0  0  0  0  0  0  0  0  0  0
   52.5620   82.6530   22.0180 C   0  0  0  0  0  2  0  0  0  0  0  0
   53.2980   83.2710   23.1580 C   0  0  0  0  0  0  0  0  0  0  0  0
   53.8880   82.5490   24.0230 O   0  0  0  0  0  0  0  0  0  0  0  0
   53.3680   84.6700   23.3210 N   0  0  0  0  0  0  0  0  0  0  0  0
   52.8890   85.2760   22.6200 H   0  0  0  0  0  0  0  0  0  0  0  0
   54.0690   85.2560   24.4030 C   0  0  0  0  0  0  0  0  0  0  0  0
   55.3750   85.5570   24.4790 N   0  0  0  0  0  0  0  0  0  0  0  0
   55.6540   86.0860   25.6390 O   0  0  0  0  0  0  0  0  0  0  0  0
   54.5590   86.1350   26.3180 N   0  0  0  0  0  0  0  0  0  0  0  0
   53.5260   85.6390   25.6250 C   0  0  0  0  0  0  0  0  0  0  0  0
   52.1890   85.5400   26.0660 N   0  0  0  0  0  0  0  0  0  0  0  0
   51.4780   85.1130   25.4430 H   0  0  0  0  0  0  0  0  0  0  0  0
   51.8780   85.8800   26.9990 H   0  0  0  0  0  0  0  0  0  0  0  0
  1 16  1  0  0  0  0
  1 15  1  0  0  0  0
  2  1  2  0  0  0  0
  3  2  1  0  0  0  0
  3  4  1  0  0  0  0
  4  5  2  0  0  0  0
  5 15  1  0  0  0  0
  5  6  1  0  0  0  0
  6 14  1  0  0  0  0
  7 12  1  0  0  0  0
  7  6  1  0  0  0  0
  8  4  1  0  0  0  0
  8  7  2  0  0  0  0
  9 10  2  0  0  0  0
  9  8  1  0  0  0  0
 10 11  1  0  0  0  0
 11 12  2  0  0  0  0
 13 10  1  0  0  0  0
 16 17  1  0  0  0  0
 17 18  1  0  0  0  0
 18 20  1  0  0  0  0
 18 19  2  0  0  0  0
 20 22  1  0  0  0  0
 21 20  1  0  0  0  0
 22 23  2  0  0  0  0
 22 26  1  0  0  0  0
 23 24  1  0  0  0  0
 24 25  1  0  0  0  0
 26 27  1  0  0  0  0
 26 25  2  0  0  0  0
 27 29  1  0  0  0  0
 28 27  1  0  0  0  0
M  END
>  <Pose>
1

>  <Score>
-8.212

$$$$
