/Users/jonathanwahrer/Desktop/Msc/3_Semester/Drug_Design_Praktikum/waehrer_HTS_screening/HTS_experiment/out/docking_results/vina_output/3npc/1133_docked.pdbqt
 OpenBabel03192220093D

 35 38  0  0  1  0  0  0  0  0999 V2000
   53.7980   87.2570   20.2770 C   0  0  0  0  0  0  0  0  0  0  0  0
   54.3800   86.2070   20.8560 N   0  0  0  0  0  0  0  0  0  0  0  0
   55.2380   86.7010   21.7880 C   0  0  0  0  0  0  0  0  0  0  0  0
   56.1540   86.2190   22.6430 N   0  0  0  0  0  0  0  0  0  0  0  0
   56.9460   86.9480   23.4360 C   0  0  0  0  0  0  0  0  0  0  0  0
   56.8120   88.3290   23.3880 N   0  0  0  0  0  0  0  0  0  0  0  0
   55.9440   88.8890   22.5820 C   0  0  0  0  0  0  0  0  0  0  0  0
   55.1420   88.1190   21.7660 C   0  0  0  0  0  0  0  0  0  0  0  0
   54.2520   88.3950   20.8210 N   0  0  0  0  0  0  0  0  0  0  0  0
   54.1880   84.8070   20.6560 C   0  0  2  0  0  3  0  0  0  0  0  0
   54.1610   84.4190   19.2980 O   0  0  0  0  0  0  0  0  0  0  0  0
   53.7840   83.0660   19.4620 C   0  0  1  0  0  3  0  0  0  0  0  0
   52.4410   83.3150   20.1980 C   0  0  2  0  0  3  0  0  0  0  0  0
   53.0030   84.1900   21.3260 C   0  0  1  0  0  3  0  0  0  0  0  0
   53.5960   82.3710   18.1670 C   0  0  0  0  0  2  0  0  0  0  0  0
   52.3670   82.7190   17.5920 O   0  0  0  0  0  0  0  0  0  0  0  0
   51.9730   81.8760   17.2090 H   0  0  0  0  0  0  0  0  0  0  0  0
   51.8690   82.1570   20.6510 O   0  0  0  0  0  0  0  0  0  0  0  0
   51.0130   81.9950   20.1860 H   0  0  0  0  0  0  0  0  0  0  0  0
   53.3980   83.3070   22.3630 O   0  0  0  0  0  0  0  0  0  0  0  0
   52.5600   83.1000   22.8330 H   0  0  0  0  0  0  0  0  0  0  0  0
   52.6460   87.2010   18.8980 S   0  0  0  0  0  0  0  0  0  0  0  0
   51.8880   88.8620   18.6250 C   0  0  0  0  0  2  0  0  0  0  0  0
   52.8550   89.7390   17.9270 C   0  0  0  0  0  0  0  0  0  0  0  0
   52.7190   91.1000   17.8050 C   0  0  0  0  0  0  0  0  0  0  0  0
   53.5520   91.8450   17.0450 C   0  0  0  0  0  3  0  0  0  0  0  0
   51.3590   91.8990   18.8870 Br  0  0  0  0  0  0  0  0  0  0  0  0
   54.6070   91.2700   16.3450 C   0  0  0  0  0  3  0  0  0  0  0  0
   54.7740   89.8820   16.4450 C   0  0  0  0  0  3  0  0  0  0  0  0
   53.9130   89.1320   17.2220 C   0  0  0  0  0  3  0  0  0  0  0  0
   57.9540   86.4160   24.3080 N   0  0  0  0  0  0  0  0  0  0  0  0
   58.8250   85.9650   24.0360 H   0  0  0  0  0  0  0  0  0  0  0  0
   57.7510   86.4640   25.3670 H   0  0  0  0  0  0  0  0  0  0  0  0
   55.7650   90.2480   22.5030 O   0  0  0  0  0  0  0  0  0  0  0  0
   55.7730   90.8650   23.3060 H   0  0  0  0  0  0  0  0  0  0  0  0
  1  9  2  0  0  0  0
  1  2  1  0  0  0  0
  2  3  1  0  0  0  0
  3  4  1  0  0  0  0
  4  5  2  0  0  0  0
  5 31  1  0  0  0  0
  6  5  1  0  0  0  0
  7  6  2  0  0  0  0
  8  3  2  0  0  0  0
  8  7  1  0  0  0  0
  9  8  1  0  0  0  0
 10  2  1  6  0  0  0
 10 14  1  0  0  0  0
 11 12  1  0  0  0  0
 11 10  1  0  0  0  0
 12 15  1  6  0  0  0
 12 13  1  0  0  0  0
 13 18  1  1  0  0  0
 13 14  1  0  0  0  0
 14 20  1  1  0  0  0
 16 15  1  0  0  0  0
 17 16  1  0  0  0  0
 19 18  1  0  0  0  0
 20 21  1  0  0  0  0
 22  1  1  0  0  0  0
 23 22  1  0  0  0  0
 24 23  1  0  0  0  0
 25 24  1  0  0  0  0
 25 27  1  0  0  0  0
 26 25  2  0  0  0  0
 28 29  2  0  0  0  0
 28 26  1  0  0  0  0
 29 30  1  0  0  0  0
 30 24  2  0  0  0  0
 31 33  1  0  0  0  0
 32 31  1  0  0  0  0
 34  7  1  0  0  0  0
 34 35  1  0  0  0  0
M  END
>  <Pose>
1

>  <Score>
-8.947

$$$$
