/Users/jonathanwahrer/Desktop/Msc/3_Semester/Drug_Design_Praktikum/waehrer_HTS_screening/HTS_experiment/out/docking_results/vina_output/3npc/1157_docked.pdbqt
 OpenBabel03192220103D

 24 27  0  0  1  0  0  0  0  0999 V2000
   56.2340   88.8560   21.9180 C   0  0  2  0  0  3  0  0  0  0  0  0
   56.4370   87.4010   21.5790 C   0  0  0  0  0  2  0  0  0  0  0  0
   55.1520   86.8300   21.9530 N   0  0  0  0  0  0  0  0  0  0  0  0
   54.8560   87.3820   23.2540 C   0  0  0  0  0  2  0  0  0  0  0  0
   55.5080   88.7520   23.2410 C   0  0  0  0  0  2  0  0  0  0  0  0
   55.3310   89.5080   20.9810 N   0  0  0  0  0  0  0  0  0  0  0  0
   55.7970   90.1150   19.7930 C   0  0  0  0  0  0  0  0  0  0  0  0
   57.0080   90.1340   19.4620 O   0  0  0  0  0  0  0  0  0  0  0  0
   54.3060   89.5400   21.1770 H   0  0  0  0  0  0  0  0  0  0  0  0
   54.8630   90.7740   18.8520 C   0  0  0  0  0  0  0  0  0  0  0  0
   55.1350   91.3330   17.2640 S   0  0  0  0  0  0  0  0  0  0  0  0
   53.5820   91.9400   16.9140 C   0  0  0  0  0  3  0  0  0  0  0  0
   52.8830   91.6830   18.0660 C   0  0  0  0  0  0  0  0  0  0  0  0
   53.5440   91.0840   19.0600 C   0  0  0  0  0  3  0  0  0  0  0  0
   51.0170   92.1990   18.1700 Br  0  0  0  0  0  0  0  0  0  0  0  0
   54.3860   85.9150   21.1550 C   0  0  0  0  0  0  0  0  0  0  0  0
   54.4870   84.5840   21.3320 N   0  0  0  0  0  0  0  0  0  0  0  0
   53.7580   83.7520   20.5680 C   0  0  0  0  0  3  0  0  0  0  0  0
   52.9020   84.2130   19.6010 C   0  0  0  0  0  3  0  0  0  0  0  0
   52.7880   85.5380   19.4120 N   0  0  0  0  0  0  0  0  0  0  0  0
   53.5240   86.3630   20.1820 C   0  0  0  0  0  0  0  0  0  0  0  0
   52.0390   86.2670   18.5510 C   0  0  0  0  0  3  0  0  0  0  0  0
   53.2020   87.6030   19.7670 N   0  0  0  0  0  0  0  0  0  0  0  0
   52.3130   87.5610   18.7890 N   0  0  0  0  0  0  0  0  0  0  0  0
  1  6  1  6  0  0  0
  1  5  1  0  0  0  0
  2  1  1  0  0  0  0
  2  3  1  0  0  0  0
  3  4  1  0  0  0  0
  5  4  1  0  0  0  0
  6  9  1  0  0  0  0
  7  6  1  0  0  0  0
  8  7  2  0  0  0  0
 10 14  2  0  0  0  0
 10  7  1  0  0  0  0
 11 10  1  0  0  0  0
 12 11  1  0  0  0  0
 12 13  2  0  0  0  0
 13 15  1  0  0  0  0
 13 14  1  0  0  0  0
 16 17  2  0  0  0  0
 16  3  1  0  0  0  0
 18 17  1  0  0  0  0
 19 18  2  0  0  0  0
 20 19  1  0  0  0  0
 20 21  1  0  0  0  0
 21 16  1  0  0  0  0
 22 24  2  0  0  0  0
 22 20  1  0  0  0  0
 23 21  2  0  0  0  0
 24 23  1  0  0  0  0
M  END
>  <Pose>
1

>  <Score>
-8.035

$$$$
