/Users/jonathanwahrer/Desktop/Msc/3_Semester/Drug_Design_Praktikum/waehrer_HTS_screening/HTS_experiment/out/docking_results/vina_output/3npc/1161_docked.pdbqt
 OpenBabel03192220103D

 29 32  0  0  1  0  0  0  0  0999 V2000
   50.5120   99.8130   27.4700 N   0  0  0  0  0  0  0  0  0  0  0  0
   49.6780   98.8420   27.9100 C   0  0  0  0  0  0  0  0  0  0  0  0
   48.5910   99.4040   28.5070 C   0  0  0  0  0  0  0  0  0  0  0  0
   47.5910   98.6090   29.0370 C   0  0  0  0  0  3  0  0  0  0  0  0
   47.7100   97.2400   28.9520 C   0  0  0  0  0  3  0  0  0  0  0  0
   48.7940   96.6490   28.3540 C   0  0  0  0  0  3  0  0  0  0  0  0
   49.7710   97.4700   27.8370 C   0  0  0  0  0  3  0  0  0  0  0  0
   48.7590  100.7280   28.4380 N   0  0  0  0  0  0  0  0  0  0  0  0
   49.9400  100.9740   27.8000 C   0  0  1  0  0  3  0  0  0  0  0  0
   51.7580   99.5690   26.7880 C   0  0  0  0  0  2  0  0  0  0  0  0
   52.7750   98.9720   27.6880 C   0  0  0  0  0  0  0  0  0  0  0  0
   52.9450   99.4080   28.8530 O   0  0  0  0  0  0  0  0  0  0  0  0
   53.6250   97.8540   27.2630 C   0  0  0  0  0  0  0  0  0  0  0  0
   53.2080   96.2370   26.8850 S   0  0  0  0  0  0  0  0  0  0  0  0
   54.7490   95.6240   26.5130 C   0  0  0  0  0  0  0  0  0  0  0  0
   55.5580   96.7110   26.6960 C   0  0  0  0  0  3  0  0  0  0  0  0
   55.2030   93.8520   25.9740 Br  0  0  0  0  0  0  0  0  0  0  0  0
   54.9850   97.8540   27.0800 C   0  0  0  0  0  3  0  0  0  0  0  0
   50.3360  102.1780   27.6170 N   0  0  0  0  0  2  0  0  0  0  0  0
   50.2860  102.9730   28.2520 H   0  0  0  0  0  0  0  0  0  0  0  0
   47.8150  101.7120   28.9500 C   0  0  0  0  0  2  0  0  0  0  0  0
   48.1020  101.9180   30.4450 C   0  0  0  0  0  2  0  0  0  0  0  0
   48.0470  103.3020   30.8160 N   0  0  0  0  0  4  0  0  0  0  0  0
   47.4820  103.5390   32.1290 C   0  0  0  0  0  2  0  0  0  0  0  0
   48.1470  102.7030   33.1870 C   0  0  0  0  0  2  0  0  0  0  0  0
   49.6360  102.7490   33.1280 C   0  0  0  0  0  2  0  0  0  0  0  0
   50.2270  103.0240   31.7920 C   0  0  0  0  0  2  0  0  0  0  0  0
   49.3940  103.8200   30.8520 C   0  0  0  0  0  2  0  0  0  0  0  0
   47.4490  103.8360   30.1490 H   0  0  0  0  0  0  0  0  0  0  0  0
  1  9  1  0  0  0  0
  1  2  1  0  0  0  0
  2  3  1  0  0  0  0
  3  4  2  0  0  0  0
  5  4  1  0  0  0  0
  6  5  2  0  0  0  0
  7  2  2  0  0  0  0
  7  6  1  0  0  0  0
  8  3  1  0  0  0  0
  8 21  1  0  0  0  0
  9 19  1  1  0  0  0
  9  8  1  0  0  0  0
 10  1  1  0  0  0  0
 10 11  1  0  0  0  0
 11 12  2  0  0  0  0
 13 11  1  0  0  0  0
 14 13  1  0  0  0  0
 15 16  2  0  0  0  0
 15 14  1  0  0  0  0
 16 18  1  0  0  0  0
 17 15  1  0  0  0  0
 18 13  2  0  0  0  0
 19 20  1  0  0  0  0
 21 22  1  0  0  0  0
 22 23  1  0  0  0  0
 23 28  1  0  0  0  0
 23 24  1  0  0  0  0
 24 25  1  0  0  0  0
 26 25  1  0  0  0  0
 27 26  1  0  0  0  0
 28 27  1  0  0  0  0
 29 23  1  0  0  0  0
M  END
>  <Pose>
1

>  <Score>
-8.577

$$$$
