/Users/jonathanwahrer/Desktop/Msc/3_Semester/Drug_Design_Praktikum/waehrer_HTS_screening/HTS_experiment/out/docking_results/vina_output/3npc/1177_docked.pdbqt
 OpenBabel03192220113D

 33 36  0  0  1  0  0  0  0  0999 V2000
   54.7390   87.5790   20.8240 C   0  0  2  0  0  3  0  0  0  0  0  0
   53.4270   87.5700   20.0970 C   0  0  2  0  0  3  0  0  0  0  0  0
   53.2460   86.1980   19.7380 N   0  0  0  0  0  0  0  0  0  0  0  0
   53.8320   85.4570   20.8450 C   0  0  0  0  0  0  0  0  0  0  0  0
   53.5280   84.2620   21.1050 O   0  0  0  0  0  0  0  0  0  0  0  0
   54.7750   86.3120   21.5430 C   0  0  0  0  0  0  0  0  0  0  0  0
   55.4800   86.0210   22.5660 O   0  0  0  0  0  0  0  0  0  0  0  0
   52.5930   85.5830   18.6200 C   0  0  0  0  0  2  0  0  0  0  0  0
   53.4540   84.7510   17.7250 C   0  0  0  0  0  2  0  0  0  0  0  0
   52.9640   83.2950   17.6980 C   0  0  0  0  0  2  0  0  0  0  0  0
   53.9680   82.4970   17.0800 N   0  0  0  0  0  4  0  0  0  0  0  0
   53.5320   81.2660   16.5030 C   0  0  0  0  0  2  0  0  0  0  0  0
   52.8010   81.4400   15.1930 C   0  0  0  0  0  2  0  0  0  0  0  0
   52.7150   82.8310   14.9570 O   0  0  0  0  0  0  0  0  0  0  0  0
   54.0440   83.2400   14.7320 C   0  0  0  0  0  2  0  0  0  0  0  0
   54.7250   83.2350   16.0850 C   0  0  0  0  0  2  0  0  0  0  0  0
   54.6720   82.2440   17.8370 H   0  0  0  0  0  0  0  0  0  0  0  0
   53.3920   88.5540   19.0230 C   0  0  0  0  0  0  0  0  0  0  0  0
   52.4820   89.6170   19.1400 C   0  0  0  0  0  3  0  0  0  0  0  0
   52.3730   90.6190   18.2080 C   0  0  0  0  0  0  0  0  0  0  0  0
   53.1820   90.6030   17.0990 C   0  0  0  0  0  3  0  0  0  0  0  0
   51.1250   92.0540   18.3920 Br  0  0  0  0  0  0  0  0  0  0  0  0
   54.0940   89.5700   16.9500 C   0  0  0  0  0  3  0  0  0  0  0  0
   54.1760   88.5800   17.9070 C   0  0  0  0  0  3  0  0  0  0  0  0
   55.6460   88.5360   20.8660 C   0  0  1  0  0  3  0  0  0  0  0  0
   56.8720   88.3460   20.1870 O   0  0  0  0  0  1  0  0  0  0  0  0
   55.4000   89.7770   21.5980 C   0  0  0  0  0  0  0  0  0  0  0  0
   54.9900   91.2960   20.9250 S   0  0  0  0  0  0  0  0  0  0  0  0
   54.9360   92.2130   22.3620 C   0  0  0  0  0  0  0  0  0  0  0  0
   55.2350   91.3130   23.2790 N   0  0  0  0  0  0  0  0  0  0  0  0
   54.6260   93.6810   22.5440 C   0  0  0  0  0  1  0  0  0  0  0  0
   55.4750   90.0830   22.9310 C   0  0  0  0  0  0  0  0  0  0  0  0
   55.8620   89.0570   23.9890 C   0  0  0  0  0  1  0  0  0  0  0  0
  1 25  1  1  0  0  0
  1  6  1  0  0  0  0
  2 18  1  6  0  0  0
  2  1  1  0  0  0  0
  3  2  1  0  0  0  0
  3  4  1  0  0  0  0
  4  5  2  0  0  0  0
  4  6  1  0  0  0  0
  6  7  2  0  0  0  0
  8  3  1  0  0  0  0
  9  8  1  0  0  0  0
 10  9  1  0  0  0  0
 11 10  1  0  0  0  0
 11 17  1  0  0  0  0
 12 11  1  0  0  0  0
 13 12  1  0  0  0  0
 14 13  1  0  0  0  0
 15 14  1  0  0  0  0
 15 16  1  0  0  0  0
 16 11  1  0  0  0  0
 18 19  1  0  0  0  0
 20 22  1  0  0  0  0
 20 19  2  0  0  0  0
 21 20  1  0  0  0  0
 23 21  2  0  0  0  0
 23 24  1  0  0  0  0
 24 18  2  0  0  0  0
 25 26  1  6  0  0  0
 25 27  1  0  0  0  0
 27 32  2  0  0  0  0
 28 27  1  0  0  0  0
 28 29  1  0  0  0  0
 29 31  1  0  0  0  0
 29 30  2  0  0  0  0
 32 30  1  0  0  0  0
 32 33  1  0  0  0  0
M  END
>  <Pose>
1

>  <Score>
-8.280

$$$$
