/Users/jonathanwahrer/Desktop/Msc/3_Semester/Drug_Design_Praktikum/waehrer_HTS_screening/HTS_experiment/out/docking_results/vina_output/3npc/1178_docked.pdbqt
 OpenBabel03192220123D

 33 36  0  0  1  0  0  0  0  0999 V2000
   54.3830   85.5510   22.2100 C   0  0  1  0  0  3  0  0  0  0  0  0
   53.7940   84.2580   21.7410 C   0  0  1  0  0  3  0  0  0  0  0  0
   52.4970   84.2600   22.3650 N   0  0  0  0  0  0  0  0  0  0  0  0
   52.6890   84.8960   23.6360 C   0  0  0  0  0  0  0  0  0  0  0  0
   51.9610   84.7660   24.6370 O   0  0  0  0  0  0  0  0  0  0  0  0
   53.8850   85.7240   23.5680 C   0  0  0  0  0  0  0  0  0  0  0  0
   54.4370   86.4520   24.4370 O   0  0  0  0  0  0  0  0  0  0  0  0
   51.3030   83.7070   21.7990 C   0  0  0  0  0  2  0  0  0  0  0  0
   51.2010   82.2390   21.8410 C   0  0  0  0  0  2  0  0  0  0  0  0
   51.1600   81.5890   23.1250 C   0  0  0  0  0  2  0  0  0  0  0  0
   51.9090   80.5270   23.6040 N   0  0  0  0  0  4  0  0  0  0  0  0
   52.5910   80.8980   24.8990 C   0  0  0  0  0  2  0  0  0  0  0  0
   53.8100   81.7050   24.5960 C   0  0  0  0  0  2  0  0  0  0  0  0
   54.7230   80.8580   23.9780 O   0  0  0  0  0  0  0  0  0  0  0  0
   54.1860   80.6020   22.6960 C   0  0  0  0  0  2  0  0  0  0  0  0
   52.8800   79.8660   22.8030 C   0  0  0  0  0  2  0  0  0  0  0  0
   51.2720   79.7690   23.9490 H   0  0  0  0  0  0  0  0  0  0  0  0
   53.7970   84.1780   20.2730 C   0  0  0  0  0  0  0  0  0  0  0  0
   53.1150   84.9930   19.4110 C   0  0  0  0  0  3  0  0  0  0  0  0
   53.1420   84.8820   18.0390 C   0  0  0  0  0  3  0  0  0  0  0  0
   53.9020   83.8880   17.4770 C   0  0  0  0  0  0  0  0  0  0  0  0
   54.6080   83.0390   18.2880 C   0  0  0  0  0  3  0  0  0  0  0  0
   53.9390   83.7370   15.5660 Br  0  0  0  0  0  0  0  0  0  0  0  0
   54.5600   83.1780   19.6560 C   0  0  0  0  0  3  0  0  0  0  0  0
   55.1980   86.2960   21.5240 C   0  0  2  0  0  3  0  0  0  0  0  0
   56.4560   85.7860   21.1600 O   0  0  0  0  0  1  0  0  0  0  0  0
   54.8150   87.6690   21.1260 C   0  0  0  0  0  0  0  0  0  0  0  0
   53.6630   88.1800   19.9660 S   0  0  0  0  0  0  0  0  0  0  0  0
   53.8010   89.8640   20.1870 C   0  0  0  0  0  0  0  0  0  0  0  0
   54.7140   89.9520   21.1330 N   0  0  0  0  0  0  0  0  0  0  0  0
   53.0830   90.9950   19.5010 C   0  0  0  0  0  1  0  0  0  0  0  0
   55.2430   88.8750   21.6260 C   0  0  0  0  0  0  0  0  0  0  0  0
   56.2710   88.9370   22.7530 C   0  0  0  0  0  1  0  0  0  0  0  0
  1 25  1  1  0  0  0
  1  6  1  0  0  0  0
  2 18  1  6  0  0  0
  2  1  1  0  0  0  0
  2  3  1  0  0  0  0
  3  4  1  0  0  0  0
  4  5  2  0  0  0  0
  6  4  1  0  0  0  0
  6  7  2  0  0  0  0
  8  9  1  0  0  0  0
  8  3  1  0  0  0  0
  9 10  1  0  0  0  0
 10 11  1  0  0  0  0
 11 17  1  0  0  0  0
 11 12  1  0  0  0  0
 13 12  1  0  0  0  0
 14 13  1  0  0  0  0
 15 16  1  0  0  0  0
 15 14  1  0  0  0  0
 16 11  1  0  0  0  0
 19 18  2  0  0  0  0
 20 19  1  0  0  0  0
 21 20  2  0  0  0  0
 21 22  1  0  0  0  0
 22 24  2  0  0  0  0
 23 21  1  0  0  0  0
 24 18  1  0  0  0  0
 25 26  1  1  0  0  0
 27 25  1  0  0  0  0
 27 32  2  0  0  0  0
 28 29  1  0  0  0  0
 28 27  1  0  0  0  0
 29 30  2  0  0  0  0
 30 32  1  0  0  0  0
 31 29  1  0  0  0  0
 32 33  1  0  0  0  0
M  END
>  <Pose>
1

>  <Score>
-6.502

$$$$
