/Users/jonathanwahrer/Desktop/Msc/3_Semester/Drug_Design_Praktikum/waehrer_HTS_screening/HTS_experiment/out/docking_results/vina_output/3npc/1180_docked.pdbqt
 OpenBabel03192220123D

 32 35  0  0  1  0  0  0  0  0999 V2000
   52.9880   83.4180   21.2010 C   0  0  1  0  0  3  0  0  0  0  0  0
   53.6290   84.1190   20.0460 C   0  0  1  0  0  3  0  0  0  0  0  0
   53.5660   83.1150   19.0560 N   0  0  0  0  0  0  0  0  0  0  0  0
   54.0710   81.9290   19.7870 C   0  0  0  0  0  0  0  0  0  0  0  0
   54.6980   80.9490   19.3020 O   0  0  0  0  0  0  0  0  0  0  0  0
   53.6900   82.1350   21.1800 C   0  0  0  0  0  0  0  0  0  0  0  0
   53.8900   81.4080   22.2010 O   0  0  0  0  0  0  0  0  0  0  0  0
   52.0730   83.8580   22.0380 C   0  0  1  0  0  3  0  0  0  0  0  0
   50.7790   84.0740   21.5980 O   0  0  0  0  0  1  0  0  0  0  0  0
   52.4980   84.0970   23.4250 C   0  0  0  0  0  0  0  0  0  0  0  0
   53.7410   85.1370   24.0100 S   0  0  0  0  0  0  0  0  0  0  0  0
   53.5400   84.8740   25.6790 C   0  0  0  0  0  0  0  0  0  0  0  0
   52.5420   84.0140   25.7110 N   0  0  0  0  0  0  0  0  0  0  0  0
   54.3050   85.4670   26.8310 C   0  0  0  0  0  1  0  0  0  0  0  0
   51.9970   83.6050   24.6070 C   0  0  0  0  0  0  0  0  0  0  0  0
   50.8150   82.6470   24.6240 C   0  0  0  0  0  1  0  0  0  0  0  0
   53.3220   85.4930   19.8550 C   0  0  0  0  0  0  0  0  0  0  0  0
   52.2690   85.8410   19.0030 C   0  0  0  0  0  3  0  0  0  0  0  0
   51.9180   87.1410   18.7500 C   0  0  0  0  0  3  0  0  0  0  0  0
   52.6410   88.1390   19.3690 C   0  0  0  0  0  0  0  0  0  0  0  0
   53.6830   87.8170   20.2140 C   0  0  0  0  0  3  0  0  0  0  0  0
   52.2170   89.9800   19.0720 Br  0  0  0  0  0  0  0  0  0  0  0  0
   54.0170   86.5040   20.4520 C   0  0  0  0  0  3  0  0  0  0  0  0
   53.2650   82.9380   17.6760 C   0  0  0  0  0  2  0  0  0  0  0  0
   54.2690   83.2570   16.6530 C   0  0  0  0  0  2  0  0  0  0  0  0
   54.4350   82.4770   15.4940 N   0  0  0  0  0  4  0  0  0  0  0  0
   54.8500   81.1120   15.7370 C   0  0  0  0  0  2  0  0  0  0  0  0
   55.1060   80.4940   14.3660 C   0  0  0  0  0  2  0  0  0  0  0  0
   54.5240   81.2610   13.3570 O   0  0  0  0  0  0  0  0  0  0  0  0
   53.1770   81.4250   13.7370 C   0  0  0  0  0  2  0  0  0  0  0  0
   53.0500   82.3080   14.9450 C   0  0  0  0  0  2  0  0  0  0  0  0
   54.9620   82.9720   14.7670 H   0  0  0  0  0  0  0  0  0  0  0  0
  1  8  1  1  0  0  0
  2 17  1  6  0  0  0
  2  1  1  0  0  0  0
  3  4  1  0  0  0  0
  3  2  1  0  0  0  0
  4  6  1  0  0  0  0
  5  4  2  0  0  0  0
  6  1  1  0  0  0  0
  6  7  2  0  0  0  0
  8  9  1  1  0  0  0
  8 10  1  0  0  0  0
 10 11  1  0  0  0  0
 10 15  2  0  0  0  0
 11 12  1  0  0  0  0
 12 13  2  0  0  0  0
 12 14  1  0  0  0  0
 15 16  1  0  0  0  0
 15 13  1  0  0  0  0
 17 23  1  0  0  0  0
 18 17  2  0  0  0  0
 19 18  1  0  0  0  0
 19 20  2  0  0  0  0
 20 21  1  0  0  0  0
 21 23  2  0  0  0  0
 22 20  1  0  0  0  0
 24  3  1  0  0  0  0
 25 24  1  0  0  0  0
 26 27  1  0  0  0  0
 26 25  1  0  0  0  0
 28 27  1  0  0  0  0
 29 30  1  0  0  0  0
 29 28  1  0  0  0  0
 30 31  1  0  0  0  0
 31 26  1  0  0  0  0
 32 26  1  0  0  0  0
M  END
>  <Pose>
1

>  <Score>
-7.218

$$$$
