/Users/jonathanwahrer/Desktop/Msc/3_Semester/Drug_Design_Praktikum/waehrer_HTS_screening/HTS_experiment/out/docking_results/vina_output/3npc/1192_docked.pdbqt
 OpenBabel03192220123D

 27 30  0  0  1  0  0  0  0  0999 V2000
   54.1010   85.0440   22.7760 S   0  0  0  0  0  0  0  0  0  0  0  0
   53.1920   84.9920   21.3200 C   0  0  0  0  0  0  0  0  0  0  0  0
   53.5030   86.1890   20.7330 C   0  0  0  0  0  0  0  0  0  0  0  0
   54.3490   86.9990   21.3890 C   0  0  0  0  0  0  0  0  0  0  0  0
   54.8360   86.5640   22.5920 C   0  0  0  0  0  0  0  0  0  0  0  0
   55.7810   87.4840   23.3080 C   0  0  0  0  0  2  0  0  0  0  0  0
   56.8700   87.8110   22.3900 N   0  0  0  0  0  4  0  0  0  0  0  0
   56.4180   88.3300   21.1370 C   0  0  0  0  0  2  0  0  0  0  0  0
   54.8970   88.3720   21.0310 C   0  0  0  0  0  2  0  0  0  0  0  0
   57.5520   86.5450   22.1220 C   0  0  0  0  0  1  0  0  0  0  0  0
   52.8340   86.4210   19.4230 C   0  0  0  0  0  0  0  0  0  0  0  0
   53.0360   87.4890   18.7740 O   0  0  0  0  0  0  0  0  0  0  0  0
   51.9670   85.4210   18.9130 N   0  0  0  0  0  0  0  0  0  0  0  0
   52.0000   84.0400   19.2980 C   0  0  2  0  0  3  0  0  0  0  0  0
   52.2930   84.0260   20.7230 N   0  0  0  0  0  0  0  0  0  0  0  0
   57.5710   88.4120   22.8670 H   0  0  0  0  0  0  0  0  0  0  0  0
   51.2500   85.7340   18.1980 H   0  0  0  0  0  0  0  0  0  0  0  0
   51.8750   83.3270   21.3690 H   0  0  0  0  0  0  0  0  0  0  0  0
   53.0360   83.2660   18.5730 C   0  0  0  0  0  0  0  0  0  0  0  0
   53.2840   83.4600   17.2290 C   0  0  0  0  0  3  0  0  0  0  0  0
   54.2420   82.7520   16.5400 C   0  0  0  0  0  0  0  0  0  0  0  0
   54.9980   81.8030   17.1970 C   0  0  0  0  0  0  0  0  0  0  0  0
   54.5740   83.0290   14.6940 Br  0  0  0  0  0  0  0  0  0  0  0  0
   54.7690   81.5920   18.5350 C   0  0  0  0  0  0  0  0  0  0  0  0
   55.9650   81.0850   16.5080 O   0  0  0  0  0  1  0  0  0  0  0  0
   53.8050   82.3070   19.2200 C   0  0  0  0  0  3  0  0  0  0  0  0
   55.8440   80.2610   19.4100 Br  0  0  0  0  0  0  0  0  0  0  0  0
  2  1  1  0  0  0  0
  3  2  2  0  0  0  0
  3  4  1  0  0  0  0
  4  5  2  0  0  0  0
  5  1  1  0  0  0  0
  5  6  1  0  0  0  0
  7 16  1  0  0  0  0
  7  6  1  0  0  0  0
  8  7  1  0  0  0  0
  9  8  1  0  0  0  0
  9  4  1  0  0  0  0
 10  7  1  0  0  0  0
 11  3  1  0  0  0  0
 12 11  2  0  0  0  0
 13 14  1  0  0  0  0
 13 11  1  0  0  0  0
 14 19  1  6  0  0  0
 14 15  1  0  0  0  0
 15  2  1  0  0  0  0
 15 18  1  0  0  0  0
 17 13  1  0  0  0  0
 19 26  1  0  0  0  0
 20 19  2  0  0  0  0
 21 22  2  0  0  0  0
 21 20  1  0  0  0  0
 22 24  1  0  0  0  0
 23 21  1  0  0  0  0
 24 26  2  0  0  0  0
 24 27  1  0  0  0  0
 25 22  1  0  0  0  0
M  END
>  <Pose>
1

>  <Score>
-7.253

$$$$
