/Users/jonathanwahrer/Desktop/Msc/3_Semester/Drug_Design_Praktikum/waehrer_HTS_screening/HTS_experiment/out/docking_results/vina_output/3npc/1193_docked.pdbqt
 OpenBabel03192220123D

 29 32  0  0  1  0  0  0  0  0999 V2000
   53.0160   83.0280   21.1790 S   0  0  0  0  0  0  0  0  0  0  0  0
   52.5500   84.2800   20.1170 C   0  0  0  0  0  0  0  0  0  0  0  0
   53.2880   84.0230   18.9960 C   0  0  0  0  0  0  0  0  0  0  0  0
   54.1110   82.9440   19.0330 C   0  0  0  0  0  0  0  0  0  0  0  0
   54.1260   82.2110   20.1930 C   0  0  0  0  0  0  0  0  0  0  0  0
   54.9890   81.0050   20.3600 C   0  0  0  0  0  2  0  0  0  0  0  0
   55.2110   80.2770   19.1580 N   0  0  0  0  0  4  0  0  0  0  0  0
   54.8690   80.9360   17.9440 C   0  0  0  0  0  2  0  0  0  0  0  0
   55.0430   82.4220   17.9340 C   0  0  0  0  0  2  0  0  0  0  0  0
   56.5630   79.7340   19.1170 C   0  0  0  0  0  1  0  0  0  0  0  0
   53.0510   84.9970   17.8860 C   0  0  0  0  0  0  0  0  0  0  0  0
   53.6820   84.8640   16.7880 O   0  0  0  0  0  0  0  0  0  0  0  0
   52.1300   86.0550   18.0640 N   0  0  0  0  0  0  0  0  0  0  0  0
   51.8590   86.5850   19.3820 C   0  0  1  0  0  3  0  0  0  0  0  0
   51.6320   85.4030   20.2130 N   0  0  0  0  0  0  0  0  0  0  0  0
   54.5870   79.4120   19.2130 H   0  0  0  0  0  0  0  0  0  0  0  0
   51.6380   86.4620   17.2380 H   0  0  0  0  0  0  0  0  0  0  0  0
   50.8520   85.2970   20.8820 H   0  0  0  0  0  0  0  0  0  0  0  0
   53.0850   87.2940   19.8350 C   0  0  0  0  0  0  0  0  0  0  0  0
   53.8300   86.8100   20.8880 C   0  0  0  0  0  3  0  0  0  0  0  0
   54.9700   87.4520   21.3220 C   0  0  0  0  0  0  0  0  0  0  0  0
   55.3810   88.6170   20.6880 C   0  0  0  0  0  0  0  0  0  0  0  0
   56.0110   86.7930   22.7770 Br  0  0  0  0  0  0  0  0  0  0  0  0
   54.6550   89.1240   19.6320 C   0  0  0  0  0  0  0  0  0  0  0  0
   56.5290   89.2840   21.1100 O   0  0  0  0  0  1  0  0  0  0  0  0
   53.5350   88.4680   19.2270 C   0  0  0  0  0  3  0  0  0  0  0  0
   55.1060   90.2860   19.0340 O   0  0  0  0  0  0  0  0  0  0  0  0
   54.3620   91.1240   18.2070 C   0  0  0  0  0  2  0  0  0  0  0  0
   54.8140   91.0280   16.7670 C   0  0  0  0  0  1  0  0  0  0  0  0
  2 15  1  0  0  0  0
  2  1  1  0  0  0  0
  3  4  1  0  0  0  0
  3  2  2  0  0  0  0
  4  5  2  0  0  0  0
  5  6  1  0  0  0  0
  5  1  1  0  0  0  0
  7 16  1  0  0  0  0
  7  6  1  0  0  0  0
  8  7  1  0  0  0  0
  9  8  1  0  0  0  0
  9  4  1  0  0  0  0
 10  7  1  0  0  0  0
 11 13  1  0  0  0  0
 11  3  1  0  0  0  0
 12 11  2  0  0  0  0
 13 14  1  0  0  0  0
 14 19  1  1  0  0  0
 14 15  1  0  0  0  0
 15 18  1  0  0  0  0
 17 13  1  0  0  0  0
 19 20  1  0  0  0  0
 20 21  2  0  0  0  0
 21 23  1  0  0  0  0
 22 25  1  0  0  0  0
 22 21  1  0  0  0  0
 24 22  2  0  0  0  0
 26 24  1  0  0  0  0
 26 19  2  0  0  0  0
 27 24  1  0  0  0  0
 28 27  1  0  0  0  0
 29 28  1  0  0  0  0
M  END
>  <Pose>
1

>  <Score>
-7.772

$$$$
