/Users/jonathanwahrer/Desktop/Msc/3_Semester/Drug_Design_Praktikum/waehrer_HTS_screening/HTS_experiment/out/docking_results/vina_output/3npc/1211_docked.pdbqt
 OpenBabel03192220133D

 26 29  0  0  1  0  0  0  0  0999 V2000
   54.9860   82.3190   25.9240 S   0  0  0  0  0  0  0  0  0  0  0  0
   54.7770   80.4980   26.0290 C   0  0  0  0  0  2  0  0  0  0  0  0
   53.5980   80.1980   25.1000 C   0  0  0  0  0  2  0  0  0  0  0  0
   52.3500   80.8160   25.7230 C   0  0  0  0  0  2  0  0  0  0  0  0
   52.3170   82.2020   25.3300 N   0  0  1  0  0  0  0  0  0  0  0  0
   53.3980   82.9360   25.3780 C   0  0  2  0  0  3  0  0  0  0  0  0
   53.0400   84.2620   24.9050 N   0  0  0  0  0  0  0  0  0  0  0  0
   51.7020   84.4020   25.4370 C   0  0  2  0  0  0  0  0  0  0  0  0
   51.2230   83.0360   24.8210 C   0  0  0  0  0  2  0  0  0  0  0  0
   50.9770   85.4480   24.9610 O   0  0  0  0  0  0  0  0  0  0  0  0
   51.4640   86.3000   25.1840 H   0  0  0  0  0  0  0  0  0  0  0  0
   51.7330   84.2560   26.8970 C   0  0  0  0  0  0  0  0  0  0  0  0
   50.7190   83.6490   27.6170 C   0  0  0  0  0  3  0  0  0  0  0  0
   50.8060   83.5770   29.0160 C   0  0  0  0  0  3  0  0  0  0  0  0
   51.8460   84.0810   29.7010 C   0  0  0  0  0  0  0  0  0  0  0  0
   52.8980   84.7040   28.9980 C   0  0  0  0  0  3  0  0  0  0  0  0
   52.7750   84.7540   27.6210 C   0  0  0  0  0  3  0  0  0  0  0  0
   51.9700   84.0300   31.1140 O   0  0  0  0  0  0  0  0  0  0  0  0
   51.4720   85.0830   31.9120 C   0  0  0  0  0  1  0  0  0  0  0  0
   53.8090   85.1050   24.0770 C   0  0  0  0  0  0  0  0  0  0  0  0
   54.5770   86.1170   24.7010 C   0  0  0  0  0  3  0  0  0  0  0  0
   55.3210   87.0260   23.9670 C   0  0  0  0  0  3  0  0  0  0  0  0
   55.3410   86.9810   22.6010 C   0  0  0  0  0  0  0  0  0  0  0  0
   54.6030   86.0060   21.9630 C   0  0  0  0  0  3  0  0  0  0  0  0
   56.3350   88.2240   21.5450 Br  0  0  0  0  0  0  0  0  0  0  0  0
   53.8500   85.0840   22.7160 C   0  0  0  0  0  3  0  0  0  0  0  0
  1  2  1  0  0  0  0
  3  4  1  0  0  0  0
  3  2  1  0  0  0  0
  5  9  1  6  0  0  0
  5  6  1  0  0  0  0
  5  4  1  0  0  0  0
  6  1  1  6  0  0  0
  7  6  1  0  0  0  0
  7  8  1  0  0  0  0
  8 10  1  6  0  0  0
  8 12  1  0  0  0  0
  9  8  1  0  0  0  0
 10 11  1  0  0  0  0
 12 13  2  0  0  0  0
 12 17  1  0  0  0  0
 13 14  1  0  0  0  0
 14 15  2  0  0  0  0
 15 18  1  0  0  0  0
 16 15  1  0  0  0  0
 17 16  2  0  0  0  0
 18 19  1  0  0  0  0
 20 21  1  0  0  0  0
 20  7  1  0  0  0  0
 22 21  2  0  0  0  0
 23 22  1  0  0  0  0
 24 23  2  0  0  0  0
 24 26  1  0  0  0  0
 25 23  1  0  0  0  0
 26 20  2  0  0  0  0
M  END
>  <Pose>
1

>  <Score>
-6.119

$$$$
