/Users/jonathanwahrer/Desktop/Msc/3_Semester/Drug_Design_Praktikum/waehrer_HTS_screening/HTS_experiment/out/docking_results/vina_output/3npc/1217_docked.pdbqt
 OpenBabel03192220133D

 28 31  0  0  1  0  0  0  0  0999 V2000
   53.4070   85.3620   23.7720 S   0  0  0  0  0  0  0  0  0  0  0  0
   53.9050   85.2250   25.4710 C   0  0  0  0  0  2  0  0  0  0  0  0
   55.0700   86.1580   25.7360 C   0  0  0  0  0  2  0  0  0  0  0  0
   56.2360   85.7700   24.8440 C   0  0  0  0  0  2  0  0  0  0  0  0
   55.9820   86.1970   23.4870 N   0  0  2  0  0  0  0  0  0  0  0  0
   56.7260   87.0220   22.5920 C   0  0  2  0  0  0  0  0  0  0  0  0
   56.3740   86.3500   21.2740 C   0  0  0  0  0  2  0  0  0  0  0  0
   54.9970   85.9540   21.4680 N   0  0  0  0  0  0  0  0  0  0  0  0
   54.8120   85.8250   22.7360 C   0  0  2  0  0  3  0  0  0  0  0  0
   54.0010   85.7750   20.4720 C   0  0  0  0  0  0  0  0  0  0  0  0
   53.7410   84.4730   20.0660 C   0  0  0  0  0  0  0  0  0  0  0  0
   52.7920   84.2170   19.0710 C   0  0  0  0  0  3  0  0  0  0  0  0
   52.1120   85.2710   18.4860 C   0  0  0  0  0  3  0  0  0  0  0  0
   52.3440   86.5720   18.8640 C   0  0  0  0  0  0  0  0  0  0  0  0
   53.3110   86.7620   19.8710 C   0  0  0  0  0  3  0  0  0  0  0  0
   54.4220   83.4260   20.6490 O   0  0  0  0  0  0  0  0  0  0  0  0
   54.0040   82.0810   20.6440 C   0  0  0  0  0  1  0  0  0  0  0  0
   51.6980   87.6680   18.3190 O   0  0  0  0  0  0  0  0  0  0  0  0
   52.0190   89.0100   18.5500 C   0  0  0  0  0  1  0  0  0  0  0  0
   58.0870   86.9180   22.8570 O   0  0  0  0  0  0  0  0  0  0  0  0
   58.4960   86.2370   22.2760 H   0  0  0  0  0  0  0  0  0  0  0  0
   56.2870   88.4280   22.5040 C   0  0  0  0  0  0  0  0  0  0  0  0
   55.7720   89.1760   23.5150 C   0  0  0  0  0  3  0  0  0  0  0  0
   55.3530   90.4930   23.3090 C   0  0  0  0  0  3  0  0  0  0  0  0
   55.4440   91.0860   22.0680 C   0  0  0  0  0  0  0  0  0  0  0  0
   55.9580   90.3460   21.0480 C   0  0  0  0  0  3  0  0  0  0  0  0
   54.8580   92.8920   21.8000 Br  0  0  0  0  0  0  0  0  0  0  0  0
   56.3680   89.0570   21.2490 C   0  0  0  0  0  3  0  0  0  0  0  0
  1  2  1  0  0  0  0
  2  3  1  0  0  0  0
  4  3  1  0  0  0  0
  5  4  1  1  0  0  0
  6 20  1  1  0  0  0
  6  5  1  0  0  0  0
  7  8  1  0  0  0  0
  7  6  1  0  0  0  0
  8  9  1  0  0  0  0
  9  5  1  0  0  0  0
  9  1  1  1  0  0  0
 10  8  1  0  0  0  0
 11 10  1  0  0  0  0
 11 16  1  0  0  0  0
 12 11  2  0  0  0  0
 13 14  2  0  0  0  0
 13 12  1  0  0  0  0
 14 15  1  0  0  0  0
 15 10  2  0  0  0  0
 17 16  1  0  0  0  0
 18 19  1  0  0  0  0
 18 14  1  0  0  0  0
 21 20  1  0  0  0  0
 22  6  1  0  0  0  0
 22 23  1  0  0  0  0
 24 23  2  0  0  0  0
 25 24  1  0  0  0  0
 26 28  1  0  0  0  0
 26 25  2  0  0  0  0
 27 25  1  0  0  0  0
 28 22  2  0  0  0  0
M  END
>  <Pose>
1

>  <Score>
-7.290

$$$$
