/Users/jonathanwahrer/Desktop/Msc/3_Semester/Drug_Design_Praktikum/waehrer_HTS_screening/HTS_experiment/out/docking_results/vina_output/3npc/1219_docked.pdbqt
 OpenBabel03192220133D

 27 30  0  0  1  0  0  0  0  0999 V2000
   53.2770   82.2910   21.2620 S   0  0  0  0  0  0  0  0  0  0  0  0
   51.7260   81.9200   22.1800 C   0  0  0  0  0  2  0  0  0  0  0  0
   50.7110   83.0140   21.9000 C   0  0  0  0  0  2  0  0  0  0  0  0
   51.3410   84.3790   22.0050 C   0  0  0  0  0  2  0  0  0  0  0  0
   52.0350   84.6880   20.7960 N   0  0  2  0  0  0  0  0  0  0  0  0
   52.1860   85.8410   19.9280 C   0  0  1  0  0  0  0  0  0  0  0  0
   52.4460   85.2150   18.5690 C   0  0  0  0  0  2  0  0  0  0  0  0
   53.0740   83.9350   18.9540 N   0  0  0  0  0  0  0  0  0  0  0  0
   52.8300   83.6650   20.1740 C   0  0  1  0  0  3  0  0  0  0  0  0
   51.0670   86.6500   19.9260 O   0  0  0  0  0  0  0  0  0  0  0  0
   50.9050   87.1500   19.1140 H   0  0  0  0  0  0  0  0  0  0  0  0
   53.3760   86.6480   20.2900 C   0  0  0  0  0  0  0  0  0  0  0  0
   54.3370   86.1150   21.1270 C   0  0  0  0  0  3  0  0  0  0  0  0
   55.4400   86.9090   21.4410 C   0  0  0  0  0  0  0  0  0  0  0  0
   55.5680   88.1690   20.9410 C   0  0  0  0  0  3  0  0  0  0  0  0
   54.6140   88.7150   20.1010 C   0  0  0  0  0  3  0  0  0  0  0  0
   53.5100   87.9120   19.7900 C   0  0  0  0  0  3  0  0  0  0  0  0
   56.4320   86.3700   22.2990 N   0  0  0  0  0  0  0  0  0  0  0  0
   56.1650   85.9940   23.4570 O   0  0  0  0  0  0  0  0  0  0  0  0
   57.7280   86.2400   21.8900 O   0  0  0  0  0  0  0  0  0  0  0  0
   53.8310   83.1170   18.0660 C   0  0  0  0  0  0  0  0  0  0  0  0
   55.1520   83.2640   17.7620 C   0  0  0  0  0  3  0  0  0  0  0  0
   55.8330   82.4160   16.8990 C   0  0  0  0  0  3  0  0  0  0  0  0
   55.1630   81.3660   16.3050 C   0  0  0  0  0  0  0  0  0  0  0  0
   53.8140   81.1850   16.5910 C   0  0  0  0  0  3  0  0  0  0  0  0
   56.0110   80.1480   15.0980 Br  0  0  0  0  0  0  0  0  0  0  0  0
   53.1540   82.0470   17.4580 C   0  0  0  0  0  3  0  0  0  0  0  0
  1  2  1  0  0  0  0
  3  4  1  0  0  0  0
  3  2  1  0  0  0  0
  5  4  1  6  0  0  0
  6 10  1  6  0  0  0
  6 12  1  0  0  0  0
  6  5  1  0  0  0  0
  7  8  1  0  0  0  0
  7  6  1  0  0  0  0
  8  9  1  0  0  0  0
  9  5  1  0  0  0  0
  9  1  1  1  0  0  0
 11 10  1  0  0  0  0
 12 13  1  0  0  0  0
 13 14  2  0  0  0  0
 14 18  1  0  0  0  0
 15 14  1  0  0  0  0
 16 15  2  0  0  0  0
 17 16  1  0  0  0  0
 17 12  2  0  0  0  0
 18 19  2  0  0  0  0
 20 18  2  0  0  0  0
 21  8  1  0  0  0  0
 22 21  1  0  0  0  0
 23 22  2  0  0  0  0
 24 25  2  0  0  0  0
 24 23  1  0  0  0  0
 25 27  1  0  0  0  0
 26 24  1  0  0  0  0
 27 21  2  0  0  0  0
M  END
>  <Pose>
1

>  <Score>
-8.175

$$$$
