/Users/jonathanwahrer/Desktop/Msc/3_Semester/Drug_Design_Praktikum/waehrer_HTS_screening/HTS_experiment/out/docking_results/vina_output/3npc/1222_docked.pdbqt
 OpenBabel03192220143D

 24 27  0  0  1  0  0  0  0  0999 V2000
   51.2610   85.4260   26.8530 S   0  0  0  0  0  0  0  0  0  0  0  0
   51.1280   84.9390   28.6320 C   0  0  0  0  0  2  0  0  0  0  0  0
   51.4630   83.4790   28.7990 C   0  0  0  0  0  2  0  0  0  0  0  0
   51.1590   82.6380   27.5790 C   0  0  0  0  0  2  0  0  0  0  0  0
   52.0360   82.8510   26.4940 N   0  0  1  0  0  0  0  0  0  0  0  0
   52.7180   82.1130   25.4170 C   0  0  1  0  0  0  0  0  0  0  0  0
   54.0090   82.8950   25.4180 C   0  0  0  0  0  2  0  0  0  0  0  0
   53.5190   84.2590   25.5520 N   0  0  0  0  0  0  0  0  0  0  0  0
   52.4680   84.2130   26.2240 C   0  0  1  0  0  3  0  0  0  0  0  0
   52.9470   80.8060   25.7240 O   0  0  0  0  0  0  0  0  0  0  0  0
   53.7880   80.6130   26.2080 H   0  0  0  0  0  0  0  0  0  0  0  0
   52.0110   82.3140   24.1090 C   0  0  0  0  0  0  0  0  0  0  0  0
   50.6620   82.6000   24.0210 C   0  0  0  0  0  3  0  0  0  0  0  0
   50.0870   82.7790   22.7700 C   0  0  0  0  0  3  0  0  0  0  0  0
   50.8130   82.6850   21.5890 C   0  0  0  0  0  3  0  0  0  0  0  0
   52.1500   82.4030   21.6680 C   0  0  0  0  0  3  0  0  0  0  0  0
   52.7300   82.2200   22.9230 C   0  0  0  0  0  3  0  0  0  0  0  0
   54.1180   85.4270   24.9500 C   0  0  0  0  0  0  0  0  0  0  0  0
   54.5600   86.5190   25.6270 C   0  0  0  0  0  3  0  0  0  0  0  0
   55.0880   87.6430   25.0040 C   0  0  0  0  0  3  0  0  0  0  0  0
   55.1790   87.6770   23.6380 C   0  0  0  0  0  0  0  0  0  0  0  0
   54.7320   86.5690   22.9450 C   0  0  0  0  0  3  0  0  0  0  0  0
   55.8910   89.1880   22.6900 Br  0  0  0  0  0  0  0  0  0  0  0  0
   54.2120   85.4640   23.5610 C   0  0  0  0  0  3  0  0  0  0  0  0
  1  2  1  0  0  0  0
  2  3  1  0  0  0  0
  4  3  1  0  0  0  0
  5  4  1  6  0  0  0
  6  7  1  0  0  0  0
  6 10  1  1  0  0  0
  6  5  1  0  0  0  0
  7  8  1  0  0  0  0
  8  9  1  0  0  0  0
  9  5  1  0  0  0  0
  9  1  1  6  0  0  0
 10 11  1  0  0  0  0
 12  6  1  0  0  0  0
 13 12  1  0  0  0  0
 14 13  2  0  0  0  0
 15 16  2  0  0  0  0
 15 14  1  0  0  0  0
 16 17  1  0  0  0  0
 17 12  2  0  0  0  0
 18  8  1  0  0  0  0
 18 19  1  0  0  0  0
 20 19  2  0  0  0  0
 21 20  1  0  0  0  0
 22 24  1  0  0  0  0
 22 21  2  0  0  0  0
 23 21  1  0  0  0  0
 24 18  2  0  0  0  0
M  END
>  <Pose>
1

>  <Score>
-5.768

$$$$
