/Users/jonathanwahrer/Desktop/Msc/3_Semester/Drug_Design_Praktikum/waehrer_HTS_screening/HTS_experiment/out/docking_results/vina_output/3npc/1224_docked.pdbqt
 OpenBabel03192220143D

 26 29  0  0  1  0  0  0  0  0999 V2000
   54.5830   81.2560   20.6030 S   0  0  0  0  0  0  0  0  0  0  0  0
   54.0050   80.2280   22.0150 C   0  0  0  0  0  2  0  0  0  0  0  0
   53.5030   81.2210   23.0520 C   0  0  0  0  0  2  0  0  0  0  0  0
   52.2440   81.9010   22.6150 C   0  0  0  0  0  2  0  0  0  0  0  0
   52.3790   82.7250   21.4530 N   0  0  2  0  0  0  0  0  0  0  0  0
   51.8710   84.0340   21.0310 C   0  0  1  0  0  0  0  0  0  0  0  0
   51.5570   83.6490   19.5730 C   0  0  0  0  0  2  0  0  0  0  0  0
   52.7280   82.8640   19.2260 N   0  0  0  0  0  0  0  0  0  0  0  0
   53.1710   82.3420   20.2960 C   0  0  1  0  0  3  0  0  0  0  0  0
   50.7240   84.3370   21.7250 O   0  0  0  0  0  0  0  0  0  0  0  0
   50.6760   83.8920   22.6050 H   0  0  0  0  0  0  0  0  0  0  0  0
   52.9040   85.0850   21.0590 C   0  0  0  0  0  0  0  0  0  0  0  0
   53.0780   86.0650   20.1070 C   0  0  0  0  0  3  0  0  0  0  0  0
   54.0780   87.0150   20.2320 C   0  0  0  0  0  3  0  0  0  0  0  0
   54.9140   86.9960   21.3100 C   0  0  0  0  0  0  0  0  0  0  0  0
   54.7540   86.0230   22.2720 C   0  0  0  0  0  3  0  0  0  0  0  0
   56.3210   88.2850   21.5420 Br  0  0  0  0  0  0  0  0  0  0  0  0
   53.7600   85.0870   22.1360 C   0  0  0  0  0  3  0  0  0  0  0  0
   53.2210   82.7590   17.8710 C   0  0  0  0  0  0  0  0  0  0  0  0
   53.0950   81.5570   17.1800 C   0  0  0  0  0  3  0  0  0  0  0  0
   53.5580   81.4250   15.8890 C   0  0  0  0  0  3  0  0  0  0  0  0
   54.1670   82.4580   15.2110 C   0  0  0  0  0  0  0  0  0  0  0  0
   54.2970   83.6480   15.8860 C   0  0  0  0  0  3  0  0  0  0  0  0
   53.8240   83.7790   17.2020 C   0  0  0  0  0  3  0  0  0  0  0  0
   54.6200   82.2880   13.9070 O   0  0  0  0  0  0  0  0  0  0  0  0
   54.7330   81.0640   13.2390 C   0  0  0  0  0  1  0  0  0  0  0  0
  1  2  1  0  0  0  0
  2  3  1  0  0  0  0
  4  3  1  0  0  0  0
  5  4  1  6  0  0  0
  6 12  1  0  0  0  0
  6  5  1  0  0  0  0
  6 10  1  1  0  0  0
  7  6  1  0  0  0  0
  8  7  1  0  0  0  0
  8  9  1  0  0  0  0
  9  1  1  1  0  0  0
  9  5  1  0  0  0  0
 10 11  1  0  0  0  0
 12 18  1  0  0  0  0
 13 14  1  0  0  0  0
 13 12  2  0  0  0  0
 14 15  2  0  0  0  0
 15 17  1  0  0  0  0
 15 16  1  0  0  0  0
 18 16  2  0  0  0  0
 19  8  1  0  0  0  0
 20 19  2  0  0  0  0
 21 20  1  0  0  0  0
 22 23  1  0  0  0  0
 22 21  2  0  0  0  0
 23 24  2  0  0  0  0
 24 19  1  0  0  0  0
 25 22  1  0  0  0  0
 26 25  1  0  0  0  0
M  END
>  <Pose>
1

>  <Score>
-6.038

$$$$
