/Users/jonathanwahrer/Desktop/Msc/3_Semester/Drug_Design_Praktikum/waehrer_HTS_screening/HTS_experiment/out/docking_results/vina_output/3npc/1231_docked.pdbqt
 OpenBabel03192220153D

 37 40  0  0  0  0  0  0  0  0999 V2000
   54.3770   88.6180   20.0240 C   0  0  0  0  0  0  0  0  0  0  0  0
   54.9630   89.6950   19.4860 N   0  0  0  0  0  0  0  0  0  0  0  0
   56.1770   89.7690   20.0590 N   0  0  0  0  0  0  0  0  0  0  0  0
   56.3560   88.8120   20.8970 N   0  0  0  0  0  0  0  0  0  0  0  0
   55.2340   88.0060   20.9450 C   0  0  0  0  0  0  0  0  0  0  0  0
   55.1200   86.8360   21.7770 C   0  0  0  0  0  0  0  0  0  0  0  0
   55.8720   85.8300   21.4670 O   0  0  0  0  0  0  0  0  0  0  0  0
   54.3020   86.6360   22.8840 N   0  0  0  0  0  0  0  0  0  0  0  0
   53.6190   87.2860   23.3100 H   0  0  0  0  0  0  0  0  0  0  0  0
   54.3440   85.3810   23.5860 N   0  0  0  0  0  0  0  0  0  0  0  0
   53.4560   85.0580   24.4410 C   0  0  0  0  0  3  0  0  0  0  0  0
   53.4620   83.7990   25.1730 C   0  0  0  0  0  0  0  0  0  0  0  0
   52.7050   82.7230   24.7670 C   0  0  0  0  0  3  0  0  0  0  0  0
   52.7050   81.5210   25.4450 C   0  0  0  0  0  0  0  0  0  0  0  0
   53.4710   81.3480   26.5690 C   0  0  0  0  0  0  0  0  0  0  0  0
   51.6370   80.0550   24.8420 Br  0  0  0  0  0  0  0  0  0  0  0  0
   54.2550   82.4250   27.0120 C   0  0  0  0  0  0  0  0  0  0  0  0
   53.4550   80.1320   27.2350 O   0  0  0  0  0  1  0  0  0  0  0  0
   54.2340   83.6120   26.3120 C   0  0  0  0  0  3  0  0  0  0  0  0
   54.9980   82.1840   28.1440 O   0  0  0  0  0  0  0  0  0  0  0  0
   54.6370   82.5420   29.4550 C   0  0  0  0  0  1  0  0  0  0  0  0
   53.0420   88.0840   19.7110 C   0  0  0  0  0  2  0  0  0  0  0  0
   52.9630   86.6640   18.6410 S   0  0  0  0  0  0  0  0  0  0  0  0
   52.9620   85.1190   19.5420 C   0  0  0  0  0  0  0  0  0  0  0  0
   53.8240   83.6620   18.9500 S   0  0  0  0  0  0  0  0  0  0  0  0
   53.1730   82.5360   20.2220 C   0  0  0  0  0  2  0  0  0  0  0  0
   52.5550   83.5330   21.1500 C   0  0  0  0  0  2  0  0  0  0  0  0
   52.4360   84.7920   20.6140 N   0  0  0  0  0  0  0  0  0  0  0  0
   54.5330   90.6250   18.4940 C   0  0  0  0  0  0  0  0  0  0  0  0
   54.9720   90.7590   17.2260 N   0  0  0  0  0  0  0  0  0  0  0  0
   54.3500   91.6830   16.5950 O   0  0  0  0  0  0  0  0  0  0  0  0
   53.4780   92.2010   17.4010 N   0  0  0  0  0  0  0  0  0  0  0  0
   53.5430   91.5770   18.6150 C   0  0  0  0  0  0  0  0  0  0  0  0
   52.7390   91.8480   19.7440 N   0  0  0  0  0  4  0  0  0  0  0  0
   52.7950   91.0170   20.3900 H   0  0  0  0  0  0  0  0  0  0  0  0
   51.7500   92.0670   19.5280 H   0  0  0  0  0  0  0  0  0  0  0  0
   53.1610   92.6570   20.2760 H   0  0  0  0  0  0  0  0  0  0  0  0
  1  5  2  0  0  0  0
  2  1  1  0  0  0  0
  2  3  1  0  0  0  0
  3  4  2  0  0  0  0
  4  5  1  0  0  0  0
  5  6  1  0  0  0  0
  6  8  1  0  0  0  0
  7  6  2  0  0  0  0
  8  9  1  0  0  0  0
  8 10  1  0  0  0  0
 10 11  2  0  0  0  0
 11 12  1  0  0  0  0
 12 19  1  0  0  0  0
 13 12  2  0  0  0  0
 13 14  1  0  0  0  0
 14 15  2  0  0  0  0
 15 17  1  0  0  0  0
 15 18  1  0  0  0  0
 16 14  1  0  0  0  0
 17 20  1  0  0  0  0
 19 17  2  0  0  0  0
 20 21  1  0  0  0  0
 22  1  1  0  0  0  0
 23 24  1  0  0  0  0
 23 22  1  0  0  0  0
 24 28  2  0  0  0  0
 25 24  1  0  0  0  0
 25 26  1  0  0  0  0
 26 27  1  0  0  0  0
 28 27  1  0  0  0  0
 29 33  1  0  0  0  0
 29  2  1  0  0  0  0
 30 29  2  0  0  0  0
 31 30  1  0  0  0  0
 31 32  1  0  0  0  0
 32 33  2  0  0  0  0
 33 34  1  0  0  0  0
 34 37  1  0  0  0  0
 34 35  1  0  0  0  0
 36 34  1  0  0  0  0
M  END
>  <Pose>
1

>  <Score>
-7.265

$$$$
