/Users/jonathanwahrer/Desktop/Msc/3_Semester/Drug_Design_Praktikum/waehrer_HTS_screening/HTS_experiment/out/docking_results/vina_output/3npc/1236_docked.pdbqt
 OpenBabel03192220153D

 30 34  0  0  1  0  0  0  0  0999 V2000
   51.1390   83.6980   28.7590 C   0  0  2  0  0  3  0  0  0  0  0  0
   50.7570   85.0220   29.3220 C   0  0  1  0  0  3  0  0  0  0  0  0
   49.2730   85.0470   29.4330 C   0  0  0  0  0  0  0  0  0  0  0  0
   48.6860   84.3630   30.5580 N   0  0  0  0  0  0  0  0  0  0  0  0
   48.5920   85.6480   28.5670 O   0  0  0  0  0  0  0  0  0  0  0  0
   49.3280   84.1180   31.6200 C   0  0  0  0  0  0  0  0  0  0  0  0
   48.8950   83.3110   33.1470 S   0  0  0  0  0  0  0  0  0  0  0  0
   50.6670   84.5310   31.7760 N   0  0  0  0  0  0  0  0  0  0  0  0
   50.2450   84.1320   34.1210 C   0  0  0  0  0  2  0  0  0  0  0  0
   51.2760   84.1620   33.0220 C   0  0  0  0  0  2  0  0  0  0  0  0
   51.2940   85.2520   30.6830 C   0  0  0  0  0  0  0  0  0  0  0  0
   52.2450   86.0210   30.9600 O   0  0  0  0  0  0  0  0  0  0  0  0
   52.3860   83.1110   29.3720 C   0  0  2  0  0  3  0  0  0  0  0  0
   53.6120   83.3350   28.5880 C   0  0  0  0  0  0  0  0  0  0  0  0
   54.1770   84.4840   28.6030 O   0  0  0  0  0  0  0  0  0  0  0  0
   54.1800   82.2620   27.7970 N   0  0  0  0  0  0  0  0  0  0  0  0
   55.2160   82.3820   26.8090 C   0  0  0  0  0  2  0  0  0  0  0  0
   53.7090   80.9470   28.0100 C   0  0  0  0  0  0  0  0  0  0  0  0
   55.0470   81.3420   25.7290 C   0  0  0  0  0  2  0  0  0  0  0  0
   54.6110   79.9280   26.8450 S   0  0  0  0  0  0  0  0  0  0  0  0
   52.8090   80.6640   28.8700 N   0  0  0  0  0  0  0  0  0  0  0  0
   52.2000   81.6730   29.6910 C   0  0  0  0  0  0  0  0  0  0  0  0
   51.5150   81.2950   30.6750 O   0  0  0  0  0  0  0  0  0  0  0  0
   51.2390   83.8100   27.2870 C   0  0  0  0  0  0  0  0  0  0  0  0
   50.8630   82.7540   26.4650 C   0  0  0  0  0  3  0  0  0  0  0  0
   50.9480   82.8490   25.0920 C   0  0  0  0  0  0  0  0  0  0  0  0
   51.4110   84.0030   24.5010 C   0  0  0  0  0  3  0  0  0  0  0  0
   50.4330   81.4040   23.9560 Br  0  0  0  0  0  0  0  0  0  0  0  0
   51.7800   85.0360   25.3080 C   0  0  0  0  0  3  0  0  0  0  0  0
   51.7010   84.9570   26.6830 C   0  0  0  0  0  3  0  0  0  0  0  0
  1 24  1  6  0  0  0
  2  1  1  1  0  0  0
  2  3  1  0  0  0  0
  2 11  1  0  0  0  0
  3  4  1  0  0  0  0
  4  6  2  0  0  0  0
  5  3  2  0  0  0  0
  6  8  1  0  0  0  0
  6  7  1  0  0  0  0
  7  9  1  0  0  0  0
  8 10  1  0  0  0  0
 10  9  1  0  0  0  0
 11 12  2  0  0  0  0
 11  8  1  0  0  0  0
 13  1  1  6  0  0  0
 13 22  1  0  0  0  0
 14 15  2  0  0  0  0
 14 13  1  0  0  0  0
 16 18  1  0  0  0  0
 16 14  1  0  0  0  0
 17 16  1  0  0  0  0
 18 21  2  0  0  0  0
 19 17  1  0  0  0  0
 19 20  1  0  0  0  0
 20 18  1  0  0  0  0
 21 22  1  0  0  0  0
 22 23  2  0  0  0  0
 25 24  2  0  0  0  0
 26 25  1  0  0  0  0
 27 26  2  0  0  0  0
 27 29  1  0  0  0  0
 28 26  1  0  0  0  0
 29 30  2  0  0  0  0
 30 24  1  0  0  0  0
M  END
>  <Pose>
1

>  <Score>
-6.589

$$$$
