/Users/jonathanwahrer/Desktop/Msc/3_Semester/Drug_Design_Praktikum/waehrer_HTS_screening/HTS_experiment/out/docking_results/vina_output/3npc/1237_docked.pdbqt
 OpenBabel03192220153D

 30 34  0  0  1  0  0  0  0  0999 V2000
   50.3420   83.5710   27.4810 C   0  0  2  0  0  3  0  0  0  0  0  0
   49.9170   84.0810   28.7930 C   0  0  1  0  0  3  0  0  0  0  0  0
   48.7700   84.9250   28.9730 C   0  0  0  0  0  0  0  0  0  0  0  0
   47.5020   84.2690   29.2500 N   0  0  0  0  0  0  0  0  0  0  0  0
   48.6770   86.1760   28.9340 O   0  0  0  0  0  0  0  0  0  0  0  0
   47.4730   83.1000   29.8050 C   0  0  0  0  0  0  0  0  0  0  0  0
   46.0850   82.0340   30.2760 S   0  0  0  0  0  0  0  0  0  0  0  0
   48.6210   82.3530   30.1430 N   0  0  0  0  0  0  0  0  0  0  0  0
   47.1010   80.4940   30.3520 C   0  0  0  0  0  2  0  0  0  0  0  0
   48.4070   81.1000   30.7620 C   0  0  0  0  0  2  0  0  0  0  0  0
   49.8860   82.9780   29.8250 C   0  0  0  0  0  0  0  0  0  0  0  0
   50.9250   82.6060   30.4010 O   0  0  0  0  0  0  0  0  0  0  0  0
   50.2510   82.1470   27.1330 C   0  0  1  0  0  3  0  0  0  0  0  0
   49.2880   82.0270   25.9530 C   0  0  0  0  0  0  0  0  0  0  0  0
   48.0520   82.0820   26.1480 O   0  0  0  0  0  0  0  0  0  0  0  0
   49.8020   81.8520   24.6120 N   0  0  0  0  0  0  0  0  0  0  0  0
   49.1090   82.0500   23.3870 C   0  0  0  0  0  2  0  0  0  0  0  0
   51.1440   81.4150   24.4910 C   0  0  0  0  0  0  0  0  0  0  0  0
   50.0490   82.4710   22.2840 C   0  0  0  0  0  2  0  0  0  0  0  0
   51.4510   81.3430   22.7350 S   0  0  0  0  0  0  0  0  0  0  0  0
   51.9070   81.1680   25.4810 N   0  0  0  0  0  0  0  0  0  0  0  0
   51.4000   81.3340   26.8390 C   0  0  0  0  0  0  0  0  0  0  0  0
   52.0330   80.7160   27.7140 O   0  0  0  0  0  0  0  0  0  0  0  0
   51.6120   84.2310   26.9890 C   0  0  0  0  0  0  0  0  0  0  0  0
   52.7030   84.3680   27.8130 C   0  0  0  0  0  3  0  0  0  0  0  0
   53.8340   84.9770   27.3330 C   0  0  0  0  0  3  0  0  0  0  0  0
   53.9350   85.4580   26.0650 C   0  0  0  0  0  0  0  0  0  0  0  0
   52.8610   85.3370   25.2180 C   0  0  0  0  0  3  0  0  0  0  0  0
   55.5220   86.3080   25.4030 Br  0  0  0  0  0  0  0  0  0  0  0  0
   51.7100   84.7180   25.7070 C   0  0  0  0  0  3  0  0  0  0  0  0
  1 24  1  1  0  0  0
  2  1  1  6  0  0  0
  2  3  1  0  0  0  0
  2 11  1  0  0  0  0
  3  4  1  0  0  0  0
  4  6  2  0  0  0  0
  5  3  2  0  0  0  0
  6  8  1  0  0  0  0
  6  7  1  0  0  0  0
  7  9  1  0  0  0  0
  8 10  1  0  0  0  0
  9 10  1  0  0  0  0
 11  8  1  0  0  0  0
 11 12  2  0  0  0  0
 13  1  1  6  0  0  0
 14 15  2  0  0  0  0
 14 13  1  0  0  0  0
 16 14  1  0  0  0  0
 17 16  1  0  0  0  0
 18 16  1  0  0  0  0
 18 21  2  0  0  0  0
 19 20  1  0  0  0  0
 19 17  1  0  0  0  0
 20 18  1  0  0  0  0
 21 22  1  0  0  0  0
 22 13  1  0  0  0  0
 22 23  2  0  0  0  0
 24 25  1  0  0  0  0
 26 25  2  0  0  0  0
 27 26  1  0  0  0  0
 28 30  1  0  0  0  0
 28 27  2  0  0  0  0
 29 27  1  0  0  0  0
 30 24  2  0  0  0  0
M  END
>  <Pose>
1

>  <Score>
-6.806

$$$$
