/Users/jonathanwahrer/Desktop/Msc/3_Semester/Drug_Design_Praktikum/waehrer_HTS_screening/HTS_experiment/out/docking_results/vina_output/3npc/1248_docked.pdbqt
 OpenBabel03192220153D

 21 24  0  0  0  0  0  0  0  0999 V2000
   52.1410   87.0050   18.5840 S   0  0  0  0  0  0  0  0  0  0  0  0
   53.0700   85.9220   19.5410 C   0  0  0  0  0  0  0  0  0  0  0  0
   53.7710   86.7730   20.2890 N   0  0  0  0  0  0  0  0  0  0  0  0
   54.5420   85.9590   21.0860 C   0  0  0  0  0  0  0  0  0  0  0  0
   54.2860   84.6840   20.7990 N   0  0  0  0  0  0  0  0  0  0  0  0
   53.3790   84.6210   19.8460 N   0  0  0  0  0  0  0  0  0  0  0  0
   53.6000   88.0230   20.1290 N   0  0  0  0  0  0  0  0  0  0  0  0
   52.7440   88.4830   19.2380 C   0  0  0  0  0  0  0  0  0  0  0  0
   52.3910   89.8630   18.8880 C   0  0  0  0  0  0  0  0  0  0  0  0
   51.5040   90.6450   19.5150 N   0  0  0  0  0  0  0  0  0  0  0  0
   51.4580   91.8390   18.9020 N   0  0  0  0  0  0  0  0  0  0  0  0
   52.3240   91.8290   17.8690 C   0  0  0  0  0  3  0  0  0  0  0  0
   50.8430   92.6330   19.1930 H   0  0  0  0  0  0  0  0  0  0  0  0
   52.9190   90.5650   17.8620 C   0  0  0  0  0  0  0  0  0  0  0  0
   54.2180   90.0230   16.6070 Br  0  0  0  0  0  0  0  0  0  0  0  0
   55.5100   86.4080   22.1070 C   0  0  0  0  0  0  0  0  0  0  0  0
   56.8360   86.3070   21.9020 N   0  0  0  0  0  0  0  0  0  0  0  0
   57.7120   86.7210   22.8440 C   0  0  0  0  0  3  0  0  0  0  0  0
   57.2610   87.2510   24.0220 C   0  0  0  0  0  3  0  0  0  0  0  0
   55.9440   87.3470   24.2110 N   0  0  0  0  0  0  0  0  0  0  0  0
   55.0470   86.9400   23.2860 C   0  0  0  0  0  3  0  0  0  0  0  0
  1  8  1  0  0  0  0
  1  2  1  0  0  0  0
  2  6  2  0  0  0  0
  2  3  1  0  0  0  0
  3  4  1  0  0  0  0
  4 16  1  0  0  0  0
  5  4  2  0  0  0  0
  6  5  1  0  0  0  0
  7  3  1  0  0  0  0
  8  7  2  0  0  0  0
  9  8  1  0  0  0  0
  9 10  2  0  0  0  0
 11 13  1  0  0  0  0
 11 10  1  0  0  0  0
 12 11  1  0  0  0  0
 14 12  2  0  0  0  0
 14  9  1  0  0  0  0
 15 14  1  0  0  0  0
 16 21  1  0  0  0  0
 17 16  2  0  0  0  0
 17 18  1  0  0  0  0
 18 19  2  0  0  0  0
 19 20  1  0  0  0  0
 21 20  2  0  0  0  0
M  END
>  <Pose>
1

>  <Score>
-8.120

$$$$
