/Users/jonathanwahrer/Desktop/Msc/3_Semester/Drug_Design_Praktikum/waehrer_HTS_screening/HTS_experiment/out/docking_results/vina_output/3npc/1256_docked.pdbqt
 OpenBabel03192220163D

 30 33  0  0  0  0  0  0  0  0999 V2000
   54.0160   84.5670   24.6000 S   0  0  0  0  0  0  0  0  0  0  0  0
   52.9770   83.9660   23.3780 C   0  0  0  0  0  0  0  0  0  0  0  0
   52.0480   82.9620   23.3220 N   0  0  0  0  0  0  0  0  0  0  0  0
   51.3390   82.7340   22.2040 C   0  0  0  0  0  0  0  0  0  0  0  0
   50.4760   81.8480   22.0620 O   0  0  0  0  0  0  0  0  0  0  0  0
   51.6230   83.5720   21.1520 C   0  0  0  0  0  3  0  0  0  0  0  0
   52.5470   84.5730   21.1990 C   0  0  0  0  0  0  0  0  0  0  0  0
   53.2540   84.7830   22.3570 N   0  0  0  0  0  0  0  0  0  0  0  0
   54.1250   85.6970   22.5460 N   0  0  0  0  0  0  0  0  0  0  0  0
   54.7350   85.8450   23.6870 C   0  0  0  0  0  0  0  0  0  0  0  0
   52.7290   85.3900   20.0010 C   0  0  0  0  0  0  0  0  0  0  0  0
   52.6770   84.8300   18.8450 O   0  0  0  0  0  0  0  0  0  0  0  0
   52.9680   86.7800   20.0040 N   0  0  0  0  0  0  0  0  0  0  0  0
   53.0480   87.3130   20.8910 H   0  0  0  0  0  0  0  0  0  0  0  0
   53.1200   87.4910   18.7400 C   0  0  0  0  0  2  0  0  0  0  0  0
   53.1240   88.9580   18.9620 C   0  0  0  0  0  0  0  0  0  0  0  0
   54.0960   89.5150   19.7790 C   0  0  0  0  0  0  0  0  0  0  0  0
   54.0840   90.8650   20.0230 C   0  0  0  0  0  3  0  0  0  0  0  0
   53.1370   91.6960   19.4850 C   0  0  0  0  0  3  0  0  0  0  0  0
   52.1650   91.1500   18.6670 C   0  0  0  0  0  0  0  0  0  0  0  0
   52.1800   89.7860   18.4220 C   0  0  0  0  0  3  0  0  0  0  0  0
   50.8130   92.2380   17.8720 Br  0  0  0  0  0  0  0  0  0  0  0  0
   55.0410   88.6700   20.3160 O   0  0  0  0  0  0  0  0  0  0  0  0
   56.2780   89.2320   20.7550 C   0  0  0  0  0  1  0  0  0  0  0  0
   55.7240   86.8180   24.1000 N   0  0  0  0  0  0  0  0  0  0  0  0
   57.0230   86.4090   24.4740 C   0  0  0  0  0  2  0  0  0  0  0  0
   57.8300   87.5940   24.9500 C   0  0  0  0  0  2  0  0  0  0  0  0
   57.0180   88.4350   25.7160 O   0  0  0  0  0  0  0  0  0  0  0  0
   56.1150   89.1170   24.8910 C   0  0  0  0  0  2  0  0  0  0  0  0
   55.2730   88.1690   24.0940 C   0  0  0  0  0  2  0  0  0  0  0  0
  2  1  1  0  0  0  0
  3  2  2  0  0  0  0
  4  3  1  0  0  0  0
  5  4  2  0  0  0  0
  6  7  2  0  0  0  0
  6  4  1  0  0  0  0
  7  8  1  0  0  0  0
  8  9  1  0  0  0  0
  8  2  1  0  0  0  0
  9 10  2  0  0  0  0
 10 25  1  0  0  0  0
 10  1  1  0  0  0  0
 11 13  1  0  0  0  0
 11  7  1  0  0  0  0
 12 11  2  0  0  0  0
 13 14  1  0  0  0  0
 15 16  1  0  0  0  0
 15 13  1  0  0  0  0
 16 17  1  0  0  0  0
 17 18  2  0  0  0  0
 17 23  1  0  0  0  0
 19 18  1  0  0  0  0
 20 19  2  0  0  0  0
 21 20  1  0  0  0  0
 21 16  2  0  0  0  0
 22 20  1  0  0  0  0
 23 24  1  0  0  0  0
 25 26  1  0  0  0  0
 26 27  1  0  0  0  0
 27 28  1  0  0  0  0
 29 28  1  0  0  0  0
 30 25  1  0  0  0  0
 30 29  1  0  0  0  0
M  END
>  <Pose>
1

>  <Score>
-8.791

$$$$
