/Users/jonathanwahrer/Desktop/Msc/3_Semester/Drug_Design_Praktikum/waehrer_HTS_screening/HTS_experiment/out/docking_results/vina_output/3npc/1265_docked.pdbqt
 OpenBabel03192220163D

 24 27  0  0  1  0  0  0  0  0999 V2000
   50.9920  101.4310   26.7960 S   0  0  0  0  0  0  0  0  0  0  0  0
   49.9540  100.2970   27.7100 C   0  0  1  0  0  3  0  0  0  0  0  0
   48.7980  100.1990   28.2790 N   0  0  0  0  0  0  0  0  0  0  0  0
   48.6060   98.9230   28.8590 C   0  0  0  0  0  3  0  0  0  0  0  0
   49.8660   98.1800   28.5600 C   0  0  0  0  0  3  0  0  0  0  0  0
   50.7210   99.1210   27.7980 N   0  0  0  0  0  0  0  0  0  0  0  0
   51.9840   99.1550   27.1940 C   0  0  0  0  0  0  0  0  0  0  0  0
   52.3400  100.2740   26.6050 C   0  0  0  0  0  3  0  0  0  0  0  0
   47.8420  101.3220   28.2740 C   0  0  0  0  0  2  0  0  0  0  0  0
   47.4780  101.5830   29.6810 C   0  0  0  0  0  0  0  0  0  0  0  0
   46.4570  101.0800   30.1910 O   0  0  0  0  0  0  0  0  0  0  0  0
   48.3140  102.4450   30.5030 C   0  0  0  0  0  0  0  0  0  0  0  0
   49.5310  101.9890   31.0150 C   0  0  0  0  0  3  0  0  0  0  0  0
   50.3410  102.7830   31.8050 C   0  0  0  0  0  3  0  0  0  0  0  0
   49.9120  104.0550   32.0790 C   0  0  0  0  0  0  0  0  0  0  0  0
   48.7150  104.5530   31.5960 C   0  0  0  0  0  3  0  0  0  0  0  0
   51.0430  105.1490   33.1750 Br  0  0  0  0  0  0  0  0  0  0  0  0
   47.9150  103.7310   30.7990 C   0  0  0  0  0  3  0  0  0  0  0  0
   52.9420   98.0020   27.1660 C   0  0  0  0  0  0  0  0  0  0  0  0
   54.3040   98.1970   27.2160 C   0  0  0  0  0  3  0  0  0  0  0  0
   55.2280   97.1750   27.1890 C   0  0  0  0  0  3  0  0  0  0  0  0
   54.8060   95.8680   27.1080 C   0  0  0  0  0  3  0  0  0  0  0  0
   53.4580   95.6480   27.0560 C   0  0  0  0  0  3  0  0  0  0  0  0
   52.5230   96.6990   27.0840 C   0  0  0  0  0  3  0  0  0  0  0  0
  2  1  1  6  0  0  0
  2  6  1  0  0  0  0
  2  3  1  0  0  0  0
  3  4  1  0  0  0  0
  5  4  2  0  0  0  0
  6  5  1  0  0  0  0
  7  6  1  0  0  0  0
  8  1  1  0  0  0  0
  8  7  2  0  0  0  0
  9  3  1  0  0  0  0
  9 10  1  0  0  0  0
 10 11  2  0  0  0  0
 10 12  1  0  0  0  0
 12 18  2  0  0  0  0
 12 13  1  0  0  0  0
 13 14  2  0  0  0  0
 14 15  1  0  0  0  0
 15 17  1  0  0  0  0
 16 15  2  0  0  0  0
 18 16  1  0  0  0  0
 19  7  1  0  0  0  0
 19 20  1  0  0  0  0
 21 20  2  0  0  0  0
 22 21  1  0  0  0  0
 23 24  1  0  0  0  0
 23 22  2  0  0  0  0
 24 19  2  0  0  0  0
M  END
>  <Pose>
1

>  <Score>
-8.642

$$$$
