/Users/jonathanwahrer/Desktop/Msc/3_Semester/Drug_Design_Praktikum/waehrer_HTS_screening/HTS_experiment/out/docking_results/vina_output/3npc/1285_docked.pdbqt
 OpenBabel03192220193D

 34 37  0  0  1  0  0  0  0  0999 V2000
   50.9230   83.6420   29.3110 C   0  0  1  0  0  3  0  0  0  0  0  0
   50.8850   84.9030   30.0260 N   0  0  0  0  0  0  0  0  0  0  0  0
   49.6130   85.5310   29.7510 C   0  0  0  0  0  0  0  0  0  0  0  0
   49.3330   86.7340   29.8080 O   0  0  0  0  0  0  0  0  0  0  0  0
   48.7290   84.4280   29.3880 C   0  0  0  0  0  0  0  0  0  0  0  0
   47.5070   84.4740   29.0560 O   0  0  0  0  0  0  0  0  0  0  0  0
   49.4920   83.1930   29.4620 C   0  0  0  0  0  0  0  0  0  0  0  0
   49.0460   81.9530   29.5830 C   0  0  0  0  0  0  0  0  0  0  0  0
   50.0080   80.9030   29.5680 O   0  0  0  0  0  1  0  0  0  0  0  0
   51.2810   83.7530   27.8910 C   0  0  0  0  0  0  0  0  0  0  0  0
   52.3310   84.6110   27.5490 C   0  0  0  0  0  3  0  0  0  0  0  0
   52.7130   84.7570   26.2520 C   0  0  0  0  0  0  0  0  0  0  0  0
   54.1500   85.9350   25.8070 Br  0  0  0  0  0  0  0  0  0  0  0  0
   52.0800   84.0670   25.2470 C   0  0  0  0  0  3  0  0  0  0  0  0
   51.0440   83.2150   25.5500 C   0  0  0  0  0  3  0  0  0  0  0  0
   50.6540   83.0660   26.8750 C   0  0  0  0  0  3  0  0  0  0  0  0
   47.6430   81.6620   29.7350 C   0  0  0  0  0  0  0  0  0  0  0  0
   46.8870   81.7360   30.8510 N   0  0  0  0  0  0  0  0  0  0  0  0
   45.6120   81.4060   30.5300 C   0  0  0  0  0  0  0  0  0  0  0  0
   47.1420   82.0380   32.1360 C   0  0  0  0  0  3  0  0  0  0  0  0
   45.5440   81.1170   29.2010 N   0  0  0  0  0  0  0  0  0  0  0  0
   44.5710   81.3620   31.4210 C   0  0  0  0  0  0  0  0  0  0  0  0
   46.8010   81.2780   28.7230 C   0  0  0  0  0  0  0  0  0  0  0  0
   47.1850   81.0610   27.3010 C   0  0  0  0  0  1  0  0  0  0  0  0
   44.8420   81.6730   32.7350 C   0  0  0  0  0  3  0  0  0  0  0  0
   43.1860   80.9940   31.0100 C   0  0  0  0  0  1  0  0  0  0  0  0
   46.1390   82.0080   33.0680 C   0  0  0  0  0  3  0  0  0  0  0  0
   51.9310   85.4570   30.8690 C   0  0  0  0  0  2  0  0  0  0  0  0
   51.5920   85.5000   32.3190 C   0  0  0  0  0  2  0  0  0  0  0  0
   51.2030   84.1720   32.9180 C   0  0  0  0  0  2  0  0  0  0  0  0
   49.8260   84.2160   33.3500 N   0  0  0  0  0  4  0  0  0  0  0  0
   49.6650   83.5130   34.6100 C   0  0  0  0  0  1  0  0  0  0  0  0
   49.4680   85.5980   33.5990 C   0  0  0  0  0  1  0  0  0  0  0  0
   49.1650   83.8700   32.6200 H   0  0  0  0  0  0  0  0  0  0  0  0
  1 10  1  6  0  0  0
  1  7  1  0  0  0  0
  1  2  1  0  0  0  0
  2 28  1  0  0  0  0
  3  4  2  0  0  0  0
  3  2  1  0  0  0  0
  5  7  1  0  0  0  0
  5  3  1  0  0  0  0
  6  5  2  0  0  0  0
  7  8  2  0  0  0  0
  8 17  1  0  0  0  0
  9  8  1  0  0  0  0
 11 10  1  0  0  0  0
 12 11  2  0  0  0  0
 13 12  1  0  0  0  0
 14 15  2  0  0  0  0
 14 12  1  0  0  0  0
 15 16  1  0  0  0  0
 16 10  2  0  0  0  0
 17 18  1  0  0  0  0
 18 20  1  0  0  0  0
 19 18  1  0  0  0  0
 19 22  1  0  0  0  0
 20 27  2  0  0  0  0
 21 19  2  0  0  0  0
 22 25  2  0  0  0  0
 23 21  1  0  0  0  0
 23 17  2  0  0  0  0
 24 23  1  0  0  0  0
 25 27  1  0  0  0  0
 26 22  1  0  0  0  0
 28 29  1  0  0  0  0
 29 30  1  0  0  0  0
 30 31  1  0  0  0  0
 31 33  1  0  0  0  0
 31 32  1  0  0  0  0
 34 31  1  0  0  0  0
M  END
>  <Pose>
1

>  <Score>
-6.845

$$$$
