/Users/jonathanwahrer/Desktop/Msc/3_Semester/Drug_Design_Praktikum/waehrer_HTS_screening/HTS_experiment/out/docking_results/vina_output/3npc/1295_docked.pdbqt
 OpenBabel03192220193D

 26 29  0  0  1  0  0  0  0  0999 V2000
   54.0500   86.4120   20.4230 C   0  0  0  0  0  0  0  0  0  0  0  0
   54.3570   86.5360   21.8310 C   0  0  0  0  0  0  0  0  0  0  0  0
   53.9310   85.6030   22.7340 C   0  0  1  0  0  3  0  0  0  0  0  0
   53.1830   84.4460   22.3400 N   0  0  0  0  0  0  0  0  0  0  0  0
   52.9120   84.3270   20.9490 C   0  0  0  0  0  0  0  0  0  0  0  0
   53.3100   85.2010   20.0670 C   0  0  0  0  0  0  0  0  0  0  0  0
   52.8830   84.7420   18.7100 C   0  0  0  0  0  0  0  0  0  0  0  0
   53.1320   85.3950   17.6520 O   0  0  0  0  0  0  0  0  0  0  0  0
   52.2310   83.5690   18.9000 O   0  0  0  0  0  0  0  0  0  0  0  0
   52.1470   83.2230   20.2410 C   0  0  0  0  0  2  0  0  0  0  0  0
   54.2330   85.7630   24.0630 N   0  0  0  0  0  0  0  0  0  0  0  0
   54.9390   86.8200   24.4790 C   0  0  0  0  0  0  0  0  0  0  0  0
   55.2050   86.9480   25.7070 O   0  0  0  0  0  0  0  0  0  0  0  0
   55.3540   87.7320   23.5830 N   0  0  0  0  0  0  0  0  0  0  0  0
   55.1030   87.6510   22.2790 C   0  0  0  0  0  0  0  0  0  0  0  0
   55.4870   88.4980   21.4340 O   0  0  0  0  0  0  0  0  0  0  0  0
   56.1220   88.8720   24.0850 C   0  0  0  0  0  1  0  0  0  0  0  0
   53.7500   84.7360   24.9740 C   0  0  0  0  0  1  0  0  0  0  0  0
   52.8770   83.7640   23.0560 H   0  0  0  0  0  0  0  0  0  0  0  0
   53.5260   87.6120   19.7790 C   0  0  0  0  0  0  0  0  0  0  0  0
   54.3110   88.4480   19.0430 C   0  0  0  0  0  3  0  0  0  0  0  0
   53.7790   89.6000   18.4390 C   0  0  0  0  0  3  0  0  0  0  0  0
   52.4470   89.8880   18.5910 C   0  0  0  0  0  0  0  0  0  0  0  0
   51.6730   91.4530   17.7830 Br  0  0  0  0  0  0  0  0  0  0  0  0
   51.6500   89.0590   19.3250 C   0  0  0  0  0  3  0  0  0  0  0  0
   52.1940   87.9100   19.9250 C   0  0  0  0  0  3  0  0  0  0  0  0
  1  2  2  0  0  0  0
  2 15  1  0  0  0  0
  3  2  1  6  0  0  0
  3 11  1  0  0  0  0
  4  3  1  0  0  0  0
  4 19  1  0  0  0  0
  5  4  1  0  0  0  0
  6  1  1  0  0  0  0
  6  5  2  0  0  0  0
  7  9  1  0  0  0  0
  7  6  1  0  0  0  0
  8  7  2  0  0  0  0
  9 10  1  0  0  0  0
 10  5  1  0  0  0  0
 11 12  1  0  0  0  0
 11 18  1  0  0  0  0
 12 13  2  0  0  0  0
 14 17  1  0  0  0  0
 14 12  1  0  0  0  0
 15 14  1  0  0  0  0
 16 15  2  0  0  0  0
 20 26  1  0  0  0  0
 20  1  1  0  0  0  0
 21 20  2  0  0  0  0
 22 23  2  0  0  0  0
 22 21  1  0  0  0  0
 23 25  1  0  0  0  0
 24 23  1  0  0  0  0
 25 26  2  0  0  0  0
M  END
>  <Pose>
1

>  <Score>
-7.729

$$$$
