/Users/jonathanwahrer/Desktop/Msc/3_Semester/Drug_Design_Praktikum/waehrer_HTS_screening/HTS_experiment/out/docking_results/vina_output/3npc/1299_docked.pdbqt
 OpenBabel03192220193D

 36 39  0  0  0  0  0  0  0  0999 V2000
   53.9030   82.6110   20.4190 C   0  0  0  0  0  0  0  0  0  0  0  0
   53.6220   81.8420   21.5190 N   0  0  0  0  0  0  0  0  0  0  0  0
   53.8420   80.5980   21.1470 N   0  0  0  0  0  0  0  0  0  0  0  0
   54.2360   80.5260   19.9180 N   0  0  0  0  0  0  0  0  0  0  0  0
   54.2940   81.7850   19.3990 C   0  0  0  0  0  0  0  0  0  0  0  0
   53.7640   84.0600   20.4750 C   0  0  0  0  0  0  0  0  0  0  0  0
   52.7130   84.8320   19.9320 N   0  0  0  0  0  0  0  0  0  0  0  0
   51.8850   84.4640   19.4130 H   0  0  0  0  0  0  0  0  0  0  0  0
   54.6690   84.7600   21.0710 O   0  0  0  0  0  0  0  0  0  0  0  0
   52.8010   86.2530   20.1170 N   0  0  0  0  0  0  0  0  0  0  0  0
   53.0800   87.0380   19.1510 C   0  0  0  0  0  3  0  0  0  0  0  0
   53.1690   88.4930   19.3420 C   0  0  0  0  0  0  0  0  0  0  0  0
   52.2430   89.3320   18.8060 C   0  0  0  0  0  3  0  0  0  0  0  0
   52.3290   90.7010   18.9860 C   0  0  0  0  0  0  0  0  0  0  0  0
   53.3510   91.2580   19.7120 C   0  0  0  0  0  0  0  0  0  0  0  0
   51.0130   91.8770   18.2230 Br  0  0  0  0  0  0  0  0  0  0  0  0
   54.2930   90.4100   20.2580 C   0  0  0  0  0  0  0  0  0  0  0  0
   55.7200   91.1740   21.2700 Br  0  0  0  0  0  0  0  0  0  0  0  0
   54.1990   89.0450   20.0720 C   0  0  0  0  0  3  0  0  0  0  0  0
   53.4030   92.6350   19.8730 O   0  0  0  0  0  0  0  0  0  0  0  0
   52.9190   93.2800   19.2730 H   0  0  0  0  0  0  0  0  0  0  0  0
   53.1850   82.2920   22.7840 C   0  0  0  0  0  0  0  0  0  0  0  0
   53.9090   82.6380   23.8770 N   0  0  0  0  0  0  0  0  0  0  0  0
   53.1070   82.9920   24.8160 O   0  0  0  0  0  0  0  0  0  0  0  0
   51.8650   82.9180   24.4570 N   0  0  0  0  0  0  0  0  0  0  0  0
   51.8700   82.4760   23.1700 C   0  0  0  0  0  0  0  0  0  0  0  0
   50.7020   82.2570   22.3960 N   0  0  0  0  0  0  0  0  0  0  0  0
   50.7180   82.5420   21.3990 H   0  0  0  0  0  0  0  0  0  0  0  0
   49.8340   81.8290   22.7670 H   0  0  0  0  0  0  0  0  0  0  0  0
   54.6750   82.1900   18.0470 C   0  0  0  0  0  2  0  0  0  0  0  0
   53.5760   82.7220   17.2540 N   0  0  0  0  0  0  0  0  0  0  0  0
   54.0420   83.8300   16.4300 C   0  0  0  0  0  2  0  0  0  0  0  0
   54.4960   83.3670   15.0750 C   0  0  0  0  0  2  0  0  0  0  0  0
   54.8580   82.0330   15.0260 O   0  0  0  0  0  0  0  0  0  0  0  0
   53.8560   81.1500   15.3980 C   0  0  0  0  0  2  0  0  0  0  0  0
   52.9300   81.7260   16.4360 C   0  0  0  0  0  2  0  0  0  0  0  0
  1  6  1  0  0  0  0
  1  2  1  0  0  0  0
  2 22  1  0  0  0  0
  3  2  1  0  0  0  0
  4  3  2  0  0  0  0
  5  4  1  0  0  0  0
  5  1  2  0  0  0  0
  6  9  2  0  0  0  0
  7 10  1  0  0  0  0
  7  6  1  0  0  0  0
  8  7  1  0  0  0  0
 11 12  1  0  0  0  0
 11 10  2  0  0  0  0
 12 19  1  0  0  0  0
 13 14  1  0  0  0  0
 13 12  2  0  0  0  0
 14 15  2  0  0  0  0
 15 20  1  0  0  0  0
 15 17  1  0  0  0  0
 16 14  1  0  0  0  0
 17 18  1  0  0  0  0
 19 17  2  0  0  0  0
 21 20  1  0  0  0  0
 22 26  1  0  0  0  0
 22 23  2  0  0  0  0
 23 24  1  0  0  0  0
 25 24  1  0  0  0  0
 26 25  2  0  0  0  0
 27 29  1  0  0  0  0
 27 26  1  0  0  0  0
 28 27  1  0  0  0  0
 30  5  1  0  0  0  0
 31 30  1  0  0  0  0
 32 31  1  0  0  0  0
 33 32  1  0  0  0  0
 34 33  1  0  0  0  0
 34 35  1  0  0  0  0
 35 36  1  0  0  0  0
 36 31  1  0  0  0  0
M  END
>  <Pose>
1

>  <Score>
-7.966

$$$$
