/Users/jonathanwahrer/Desktop/Msc/3_Semester/Drug_Design_Praktikum/waehrer_HTS_screening/HTS_experiment/out/docking_results/vina_output/3npc/1300_docked.pdbqt
 OpenBabel03192220203D

 22 25  0  0  1  0  0  0  0  0999 V2000
   54.7590   89.2050   20.0270 N   0  0  0  0  0  0  0  0  0  0  0  0
   55.1860   90.1320   19.0480 C   0  0  0  0  0  0  0  0  0  0  0  0
   56.3490   90.5550   18.8800 O   0  0  0  0  0  0  0  0  0  0  0  0
   54.0460   90.5620   18.2100 C   0  0  2  0  0  3  0  0  0  0  0  0
   53.5330   91.8550   18.8040 C   0  0  2  0  0  3  0  0  0  0  0  0
   52.8820   91.3500   19.9610 O   0  0  0  0  0  0  0  0  0  0  0  0
   51.9560   90.5250   19.2680 C   0  0  2  0  0  3  0  0  0  0  0  0
   52.9100   89.6030   18.5580 C   0  0  2  0  0  3  0  0  0  0  0  0
   53.5070   88.6940   19.5620 C   0  0  0  0  0  0  0  0  0  0  0  0
   52.9830   87.6050   19.9640 O   0  0  0  0  0  0  0  0  0  0  0  0
   51.3600   91.5270   18.3600 C   0  0  0  0  0  2  0  0  0  0  0  0
   52.3580   92.3480   18.0430 C   0  0  0  0  0  2  0  0  0  0  0  0
   55.3640   88.7940   21.2440 C   0  0  0  0  0  0  0  0  0  0  0  0
   55.5710   89.6740   22.2810 C   0  0  0  0  0  0  0  0  0  0  0  0
   54.9920   91.4790   22.0060 Br  0  0  0  0  0  0  0  0  0  0  0  0
   56.1680   89.2980   23.4820 C   0  0  0  0  0  3  0  0  0  0  0  0
   56.5840   87.9970   23.6820 C   0  0  0  0  0  0  0  0  0  0  0  0
   56.3760   87.1100   22.6390 C   0  0  0  0  0  3  0  0  0  0  0  0
   55.7860   87.4800   21.4530 C   0  0  0  0  0  3  0  0  0  0  0  0
   57.1990   87.5840   24.8960 N   0  0  0  0  0  0  0  0  0  0  0  0
   57.5920   88.4620   25.6840 O   0  0  0  0  0  0  0  0  0  0  0  0
   57.3880   86.2790   25.2600 O   0  0  0  0  0  0  0  0  0  0  0  0
  1 13  1  0  0  0  0
  2  1  1  0  0  0  0
  3  2  2  0  0  0  0
  4  8  1  0  0  0  0
  4  5  1  0  0  0  0
  4  2  1  1  0  0  0
  5 12  1  6  0  0  0
  5  6  1  0  0  0  0
  7 11  1  6  0  0  0
  7  6  1  0  0  0  0
  8  7  1  0  0  0  0
  8  9  1  1  0  0  0
  9 10  2  0  0  0  0
  9  1  1  0  0  0  0
 12 11  1  0  0  0  0
 13 19  2  0  0  0  0
 13 14  1  0  0  0  0
 14 16  2  0  0  0  0
 15 14  1  0  0  0  0
 16 17  1  0  0  0  0
 17 20  1  0  0  0  0
 18 17  2  0  0  0  0
 19 18  1  0  0  0  0
 20 22  2  0  0  0  0
 20 21  2  0  0  0  0
M  END
>  <Pose>
1

>  <Score>
-9.071

$$$$
