/Users/jonathanwahrer/Desktop/Msc/3_Semester/Drug_Design_Praktikum/waehrer_HTS_screening/HTS_experiment/out/docking_results/vina_output/3npc/1301_docked.pdbqt
 OpenBabel03192220203D

 24 27  0  0  1  0  0  0  0  0999 V2000
   52.8310   98.7580   27.8660 N   0  0  0  0  0  0  0  0  0  0  0  0
   52.6850  100.0830   27.3700 C   0  0  0  0  0  0  0  0  0  0  0  0
   53.4620  100.7010   26.6110 O   0  0  0  0  0  0  0  0  0  0  0  0
   51.4190  100.6750   27.9000 C   0  0  1  0  0  3  0  0  0  0  0  0
   50.2450  100.3530   27.0370 C   0  0  1  0  0  0  0  0  0  0  0  0
   49.9380   99.0180   27.3990 O   0  0  0  0  0  0  0  0  0  0  0  0
   49.7720   99.2690   28.7840 C   0  0  1  0  0  0  0  0  0  0  0  0
   51.1180   99.8190   29.1280 C   0  0  1  0  0  3  0  0  0  0  0  0
   52.1380   98.7450   29.1080 C   0  0  0  0  0  0  0  0  0  0  0  0
   52.3550   97.9480   30.0440 O   0  0  0  0  0  0  0  0  0  0  0  0
   48.7570  100.3620   28.7080 C   0  0  0  0  0  2  0  0  0  0  0  0
   49.0500  101.0460   27.5880 C   0  0  0  0  0  2  0  0  0  0  0  0
   49.3460   98.0840   29.5410 C   0  0  0  0  0  1  0  0  0  0  0  0
   53.5260   97.7080   27.2090 C   0  0  0  0  0  0  0  0  0  0  0  0
   52.9820   96.4530   27.0210 C   0  0  0  0  0  3  0  0  0  0  0  0
   53.6680   95.4210   26.3720 C   0  0  0  0  0  3  0  0  0  0  0  0
   54.9400   95.6200   25.8870 C   0  0  0  0  0  0  0  0  0  0  0  0
   55.4960   96.8650   26.0660 C   0  0  0  0  0  0  0  0  0  0  0  0
   55.6700   94.5160   25.1980 C   0  0  0  0  0  1  0  0  0  0  0  0
   57.2540   97.1790   25.4080 Br  0  0  0  0  0  0  0  0  0  0  0  0
   54.8060   97.8920   26.7140 C   0  0  0  0  0  3  0  0  0  0  0  0
   50.4430  100.5340   25.5880 C   0  0  0  0  0  2  0  0  0  0  0  0
   51.2020  101.6660   25.3010 O   0  0  0  0  0  0  0  0  0  0  0  0
   52.1390  101.6040   25.6390 H   0  0  0  0  0  0  0  0  0  0  0  0
  1  9  1  0  0  0  0
  2  1  1  0  0  0  0
  3  2  2  0  0  0  0
  4  2  1  6  0  0  0
  4  8  1  0  0  0  0
  5 22  1  6  0  0  0
  5  6  1  0  0  0  0
  5 12  1  0  0  0  0
  5  4  1  0  0  0  0
  6  7  1  0  0  0  0
  7  8  1  0  0  0  0
  7 13  1  1  0  0  0
  8  9  1  6  0  0  0
  9 10  2  0  0  0  0
 11  7  1  0  0  0  0
 12 11  1  0  0  0  0
 14  1  1  0  0  0  0
 15 14  1  0  0  0  0
 16 15  2  0  0  0  0
 17 18  2  0  0  0  0
 17 16  1  0  0  0  0
 18 21  1  0  0  0  0
 19 17  1  0  0  0  0
 20 18  1  0  0  0  0
 21 14  2  0  0  0  0
 23 22  1  0  0  0  0
 23 24  1  0  0  0  0
M  END
>  <Pose>
1

>  <Score>
-7.981

$$$$
