/Users/jonathanwahrer/Desktop/Msc/3_Semester/Drug_Design_Praktikum/waehrer_HTS_screening/HTS_experiment/out/docking_results/vina_output/3npc/1310_docked.pdbqt
 OpenBabel03192220203D

 32 35  0  0  1  0  0  0  0  0999 V2000
   53.9070   84.6920   20.9240 C   0  0  1  0  0  3  0  0  0  0  0  0
   53.7610   83.8770   19.7370 N   0  0  0  0  0  0  0  0  0  0  0  0
   52.6320   84.3700   19.0370 C   0  0  0  0  0  0  0  0  0  0  0  0
   51.8740   83.7450   18.2540 O   0  0  0  0  0  0  0  0  0  0  0  0
   52.5110   85.7800   19.4080 C   0  0  0  0  0  0  0  0  0  0  0  0
   51.6620   86.6230   19.0390 O   0  0  0  0  0  0  0  0  0  0  0  0
   53.6220   86.0400   20.3380 C   0  0  0  0  0  0  0  0  0  0  0  0
   54.1610   87.2150   20.5700 C   0  0  0  0  0  0  0  0  0  0  0  0
   55.1820   87.2670   21.5280 O   0  0  0  0  0  1  0  0  0  0  0  0
   53.0080   84.3260   22.0230 C   0  0  0  0  0  0  0  0  0  0  0  0
   51.8920   83.5390   21.9020 C   0  0  0  0  0  3  0  0  0  0  0  0
   51.0730   83.2160   22.9860 C   0  0  0  0  0  0  0  0  0  0  0  0
   49.5220   82.1050   22.7340 Br  0  0  0  0  0  0  0  0  0  0  0  0
   51.3760   83.6970   24.2410 C   0  0  0  0  0  3  0  0  0  0  0  0
   52.4920   84.4900   24.3910 C   0  0  0  0  0  3  0  0  0  0  0  0
   53.2900   84.8010   23.3150 C   0  0  0  0  0  3  0  0  0  0  0  0
   53.7350   88.4390   19.8620 C   0  0  0  0  0  0  0  0  0  0  0  0
   52.6570   89.1450   20.0290 O   0  0  0  0  0  0  0  0  0  0  0  0
   52.6220   90.1750   19.2140 C   0  0  0  0  0  0  0  0  0  0  0  0
   53.7670   90.1670   18.4320 C   0  0  0  0  0  0  0  0  0  0  0  0
   51.7150   91.1990   19.0060 C   0  0  0  0  0  3  0  0  0  0  0  0
   54.4630   89.0540   18.8610 C   0  0  0  0  0  3  0  0  0  0  0  0
   53.9750   91.1500   17.4890 C   0  0  0  0  0  3  0  0  0  0  0  0
   53.0720   92.1690   17.2820 C   0  0  0  0  0  3  0  0  0  0  0  0
   51.9290   92.1910   18.0510 C   0  0  0  0  0  3  0  0  0  0  0  0
   54.5760   82.7650   19.2550 C   0  0  0  0  0  2  0  0  0  0  0  0
   55.1360   83.0750   17.8790 C   0  0  0  0  0  2  0  0  0  0  0  0
   54.6700   82.1020   16.8280 C   0  0  0  0  0  2  0  0  0  0  0  0
   53.6870   82.7230   16.0000 N   0  0  0  0  0  4  0  0  0  0  0  0
   54.2560   83.5220   14.9350 C   0  0  0  0  0  1  0  0  0  0  0  0
   52.7290   81.8350   15.4150 C   0  0  0  0  0  1  0  0  0  0  0  0
   53.1440   83.4030   16.6130 H   0  0  0  0  0  0  0  0  0  0  0  0
  1 10  1  1  0  0  0
  2  1  1  0  0  0  0
  3  5  1  0  0  0  0
  3  2  1  0  0  0  0
  4  3  2  0  0  0  0
  5  7  1  0  0  0  0
  6  5  2  0  0  0  0
  7  8  2  0  0  0  0
  7  1  1  0  0  0  0
  8  9  1  0  0  0  0
 10 16  1  0  0  0  0
 11 10  2  0  0  0  0
 11 12  1  0  0  0  0
 12 14  2  0  0  0  0
 13 12  1  0  0  0  0
 14 15  1  0  0  0  0
 16 15  2  0  0  0  0
 17 18  1  0  0  0  0
 17  8  1  0  0  0  0
 19 18  1  0  0  0  0
 20 22  1  0  0  0  0
 20 19  2  0  0  0  0
 21 19  1  0  0  0  0
 22 17  2  0  0  0  0
 23 20  1  0  0  0  0
 24 23  2  0  0  0  0
 24 25  1  0  0  0  0
 25 21  2  0  0  0  0
 26  2  1  0  0  0  0
 27 26  1  0  0  0  0
 28 27  1  0  0  0  0
 29 32  1  0  0  0  0
 29 28  1  0  0  0  0
 30 29  1  0  0  0  0
 31 29  1  0  0  0  0
M  END
>  <Pose>
1

>  <Score>
-8.073

$$$$
