/Users/jonathanwahrer/Desktop/Msc/3_Semester/Drug_Design_Praktikum/waehrer_HTS_screening/HTS_experiment/out/docking_results/vina_output/3npc/1314_docked.pdbqt
 OpenBabel03192220203D

 32 35  0  0  0  0  0  0  0  0999 V2000
   55.5090   86.2900   22.8670 C   0  0  0  0  0  0  0  0  0  0  0  0
   55.7480   85.9200   24.0880 N   0  0  0  0  0  0  0  0  0  0  0  0
   54.8250   85.1120   24.4830 N   0  0  0  0  0  0  0  0  0  0  0  0
   53.8700   84.8860   23.5000 N   0  0  0  0  0  0  0  0  0  0  0  0
   54.2690   85.6040   22.4740 C   0  0  0  0  0  0  0  0  0  0  0  0
   56.0530   87.3230   22.0840 C   0  0  0  0  0  0  0  0  0  0  0  0
   55.5020   88.7660   22.1370 N   0  0  0  0  0  0  0  0  0  0  0  0
   54.7530   88.9030   22.8110 H   0  0  0  0  0  0  0  0  0  0  0  0
   56.9800   87.1960   21.2920 O   0  0  0  0  0  0  0  0  0  0  0  0
   56.1720   89.3870   21.2240 N   0  0  0  0  0  2  0  0  0  0  0  0
   56.4600   90.3080   20.4400 C   0  0  0  0  0  2  0  0  0  0  0  0
   55.1970   90.7020   19.6340 C   0  0  0  0  0  0  0  0  0  0  0  0
   54.3550   91.6110   20.2290 C   0  0  0  0  0  0  0  0  0  0  0  0
   54.9260   92.5610   21.7570 Br  0  0  0  0  0  0  0  0  0  0  0  0
   53.0660   91.7470   19.7050 C   0  0  0  0  0  3  0  0  0  0  0  0
   52.6650   90.9960   18.5950 C   0  0  0  0  0  3  0  0  0  0  0  0
   53.5270   90.1280   18.0150 C   0  0  0  0  0  3  0  0  0  0  0  0
   54.8340   89.9800   18.5740 C   0  0  0  0  0  3  0  0  0  0  0  0
   53.9040   85.7490   21.0670 C   0  0  0  0  0  2  0  0  0  0  0  0
   53.3930   84.8750   20.1930 N   0  0  0  0  0  0  0  0  0  0  0  0
   53.0390   85.5530   18.9540 C   0  0  0  0  0  2  0  0  0  0  0  0
   53.6420   83.5650   19.8960 C   0  0  0  0  0  2  0  0  0  0  0  0
   53.5680   84.7140   17.8300 C   0  0  0  0  0  2  0  0  0  0  0  0
   54.2950   83.5470   18.4920 C   0  0  0  0  0  2  0  0  0  0  0  0
   52.7900   84.0720   23.8380 C   0  0  0  0  0  0  0  0  0  0  0  0
   52.6590   82.7830   23.3210 N   0  0  0  0  0  0  0  0  0  0  0  0
   51.5380   82.3120   23.6980 O   0  0  0  0  0  0  0  0  0  0  0  0
   50.8940   83.1400   24.4190 N   0  0  0  0  0  0  0  0  0  0  0  0
   51.6620   84.2620   24.5220 C   0  0  0  0  0  0  0  0  0  0  0  0
   51.1940   85.3950   25.2640 N   0  0  0  0  0  0  0  0  0  0  0  0
   51.8920   86.1050   25.5260 H   0  0  0  0  0  0  0  0  0  0  0  0
   50.2250   85.4540   25.5700 H   0  0  0  0  0  0  0  0  0  0  0  0
  1  2  1  0  0  0  0
  2  3  2  0  0  0  0
  4 25  1  0  0  0  0
  4  3  1  0  0  0  0
  5  1  2  0  0  0  0
  5  4  1  0  0  0  0
  6  7  1  0  0  0  0
  6  1  1  0  0  0  0
  7  8  1  0  0  0  0
  9  6  2  0  0  0  0
 10  7  1  0  0  0  0
 11 10  1  0  0  0  0
 12 13  1  0  0  0  0
 12 11  1  0  0  0  0
 13 14  1  0  0  0  0
 15 13  2  0  0  0  0
 16 15  1  0  0  0  0
 17 18  1  0  0  0  0
 17 16  2  0  0  0  0
 18 12  2  0  0  0  0
 19  5  1  0  0  0  0
 20 19  1  0  0  0  0
 21 20  1  0  0  0  0
 22 20  1  0  0  0  0
 23 24  1  0  0  0  0
 23 21  1  0  0  0  0
 24 22  1  0  0  0  0
 25 29  1  0  0  0  0
 26 27  1  0  0  0  0
 26 25  2  0  0  0  0
 27 28  1  0  0  0  0
 28 29  2  0  0  0  0
 29 30  1  0  0  0  0
 30 31  1  0  0  0  0
 30 32  1  0  0  0  0
M  END
>  <Pose>
1

>  <Score>
-8.658

$$$$
