/Users/jonathanwahrer/Desktop/Msc/3_Semester/Drug_Design_Praktikum/waehrer_HTS_screening/HTS_experiment/out/docking_results/vina_output/3npc/1315_docked.pdbqt
 OpenBabel03192220213D

 30 33  0  0  1  0  0  0  0  0999 V2000
   53.3290   87.7430   19.6470 N   0  0  0  0  0  0  0  0  0  0  0  0
   53.7200   88.7920   18.8530 C   0  0  0  0  0  0  0  0  0  0  0  0
   54.7830   89.3750   19.4790 C   0  0  0  0  0  0  0  0  0  0  0  0
   55.3970   90.4880   18.8970 C   0  0  0  0  0  3  0  0  0  0  0  0
   54.9190   90.9780   17.7000 C   0  0  0  0  0  3  0  0  0  0  0  0
   53.8470   90.3910   17.0640 C   0  0  0  0  0  3  0  0  0  0  0  0
   53.2420   89.2790   17.6550 C   0  0  0  0  0  3  0  0  0  0  0  0
   55.0200   88.6870   20.6180 N   0  0  0  0  0  0  0  0  0  0  0  0
   54.1430   87.6880   20.7340 C   0  0  2  0  0  3  0  0  0  0  0  0
   52.2640   86.8220   19.3090 C   0  0  0  0  0  2  0  0  0  0  0  0
   52.5880   85.4150   19.5730 C   0  0  1  0  0  3  0  0  0  0  0  0
   52.1230   84.9250   20.7000 O   0  0  0  0  0  1  0  0  0  0  0  0
   53.3390   84.4630   18.7960 C   0  0  0  0  0  0  0  0  0  0  0  0
   53.4940   84.4820   17.4400 C   0  0  0  0  0  3  0  0  0  0  0  0
   54.2360   83.5500   16.7730 C   0  0  0  0  0  0  0  0  0  0  0  0
   54.4330   83.6260   14.8480 Br  0  0  0  0  0  0  0  0  0  0  0  0
   54.8580   82.5440   17.4760 C   0  0  0  0  0  3  0  0  0  0  0  0
   54.7400   82.4710   18.8440 C   0  0  0  0  0  3  0  0  0  0  0  0
   53.9900   83.4220   19.4780 C   0  0  0  0  0  3  0  0  0  0  0  0
   54.1430   86.7680   21.6730 N   0  0  0  0  0  0  0  0  0  0  0  0
   53.5120   86.7820   22.4700 H   0  0  0  0  0  0  0  0  0  0  0  0
   54.8380   86.0110   21.6150 H   0  0  0  0  0  0  0  0  0  0  0  0
   56.1200   89.0280   21.5030 C   0  0  0  0  0  2  0  0  0  0  0  0
   56.3590   88.1020   22.6240 C   0  0  0  0  0  2  0  0  0  0  0  0
   56.6090   88.6240   23.9190 N   0  0  0  0  0  0  0  0  0  0  0  0
   57.5800   87.7660   24.6450 C   0  0  0  0  0  2  0  0  0  0  0  0
   57.1240   86.3460   24.7260 C   0  0  0  0  0  2  0  0  0  0  0  0
   56.0010   86.3250   25.5540 O   0  0  0  0  0  0  0  0  0  0  0  0
   55.0020   87.1390   25.0820 C   0  0  0  0  0  2  0  0  0  0  0  0
   55.4210   88.5540   24.7860 C   0  0  0  0  0  2  0  0  0  0  0  0
  1  9  1  0  0  0  0
  2  3  1  0  0  0  0
  2  1  1  0  0  0  0
  3  8  1  0  0  0  0
  4  3  2  0  0  0  0
  5  4  1  0  0  0  0
  6  7  1  0  0  0  0
  6  5  2  0  0  0  0
  7  2  2  0  0  0  0
  8  9  1  0  0  0  0
  8 23  1  0  0  0  0
  9 20  1  6  0  0  0
 10 11  1  0  0  0  0
 10  1  1  0  0  0  0
 11 12  1  6  0  0  0
 13 19  1  0  0  0  0
 13 11  1  0  0  0  0
 14 13  2  0  0  0  0
 15 14  1  0  0  0  0
 15 17  2  0  0  0  0
 16 15  1  0  0  0  0
 17 18  1  0  0  0  0
 18 19  2  0  0  0  0
 20 21  1  0  0  0  0
 22 20  1  0  0  0  0
 23 24  1  0  0  0  0
 24 25  1  0  0  0  0
 25 26  1  0  0  0  0
 25 30  1  0  0  0  0
 26 27  1  0  0  0  0
 27 28  1  0  0  0  0
 29 28  1  0  0  0  0
 30 29  1  0  0  0  0
M  END
>  <Pose>
1

>  <Score>
-9.044

$$$$
