/Users/jonathanwahrer/Desktop/Msc/3_Semester/Drug_Design_Praktikum/waehrer_HTS_screening/HTS_experiment/out/docking_results/vina_output/3npc/1329_docked.pdbqt
 OpenBabel03192220213D

 28 31  0  0  0  0  0  0  0  0999 V2000
   52.3430   86.3100   18.2340 C   0  0  0  0  0  3  0  0  0  0  0  0
   52.7620   87.4910   18.6920 C   0  0  0  0  0  0  0  0  0  0  0  0
   53.8310   87.7280   19.5540 O   0  0  0  0  0  0  0  0  0  0  0  0
   53.9680   89.0670   19.7980 C   0  0  0  0  0  0  0  0  0  0  0  0
   52.9960   89.7840   19.1080 C   0  0  0  0  0  0  0  0  0  0  0  0
   52.9880   91.1640   19.2330 C   0  0  0  0  0  3  0  0  0  0  0  0
   53.9240   91.7940   20.0210 C   0  0  0  0  0  3  0  0  0  0  0  0
   54.8850   91.0410   20.6990 C   0  0  0  0  0  0  0  0  0  0  0  0
   54.9160   89.6750   20.5940 C   0  0  0  0  0  0  0  0  0  0  0  0
   55.7820   91.7680   21.4660 O   0  0  0  0  0  1  0  0  0  0  0  0
   52.1870   88.7960   18.3740 C   0  0  0  0  0  0  0  0  0  0  0  0
   51.2050   89.0760   17.6400 O   0  0  0  0  0  0  0  0  0  0  0  0
   55.8920   88.9270   21.3870 C   0  0  0  0  0  2  0  0  0  0  0  0
   55.3680   88.0330   22.3550 N   0  0  0  0  0  4  0  0  0  0  0  0
   55.4320   88.6790   23.6550 C   0  0  0  0  0  2  0  0  0  0  0  0
   55.7980   87.7870   24.7900 C   0  0  0  0  0  2  0  0  0  0  0  0
   56.9440   86.9740   24.5810 N   0  0  0  0  0  0  0  0  0  0  0  0
   57.3230   86.9280   23.2070 C   0  0  0  0  0  2  0  0  0  0  0  0
   56.7180   85.6540   25.1320 C   0  0  0  0  0  1  0  0  0  0  0  0
   56.1100   86.7940   22.3500 C   0  0  0  0  0  2  0  0  0  0  0  0
   54.3630   87.7470   22.1520 H   0  0  0  0  0  0  0  0  0  0  0  0
   53.0070   85.0800   18.6180 C   0  0  0  0  0  0  0  0  0  0  0  0
   53.8540   84.4290   17.7490 C   0  0  0  0  0  3  0  0  0  0  0  0
   54.4750   83.2410   18.1260 C   0  0  0  0  0  0  0  0  0  0  0  0
   55.6420   82.3330   16.9160 Br  0  0  0  0  0  0  0  0  0  0  0  0
   54.2390   82.7100   19.3840 C   0  0  0  0  0  3  0  0  0  0  0  0
   53.3850   83.3890   20.2230 C   0  0  0  0  0  3  0  0  0  0  0  0
   52.7650   84.5640   19.8680 C   0  0  0  0  0  3  0  0  0  0  0  0
  1 22  1  0  0  0  0
  1  2  2  0  0  0  0
  2  3  1  0  0  0  0
  3  4  1  0  0  0  0
  4  9  1  0  0  0  0
  5  6  1  0  0  0  0
  5  4  2  0  0  0  0
  6  7  2  0  0  0  0
  7  8  1  0  0  0  0
  8 10  1  0  0  0  0
  9  8  2  0  0  0  0
  9 13  1  0  0  0  0
 11  2  1  0  0  0  0
 11  5  1  0  0  0  0
 12 11  2  0  0  0  0
 13 14  1  0  0  0  0
 14 15  1  0  0  0  0
 15 16  1  0  0  0  0
 17 16  1  0  0  0  0
 17 19  1  0  0  0  0
 18 17  1  0  0  0  0
 20 14  1  0  0  0  0
 20 18  1  0  0  0  0
 21 14  1  0  0  0  0
 22 28  1  0  0  0  0
 23 24  1  0  0  0  0
 23 22  2  0  0  0  0
 24 26  2  0  0  0  0
 25 24  1  0  0  0  0
 26 27  1  0  0  0  0
 28 27  2  0  0  0  0
M  END
>  <Pose>
1

>  <Score>
-8.897

$$$$
