/Users/jonathanwahrer/Desktop/Msc/3_Semester/Drug_Design_Praktikum/waehrer_HTS_screening/HTS_experiment/out/docking_results/vina_output/3npc/1337_docked.pdbqt
 OpenBabel03192220223D

 32 35  0  0  1  0  0  0  0  0999 V2000
   52.9780   84.6580   24.9790 C   0  0  2  0  0  3  0  0  0  0  0  0
   53.5780   85.8600   24.9370 O   0  0  0  0  0  0  0  0  0  0  0  0
   54.6140   86.1000   25.7840 C   0  0  2  0  0  3  0  0  0  0  0  0
   55.2860   87.2420   25.3240 O   0  0  0  0  0  0  0  0  0  0  0  0
   56.2450   86.8250   24.4330 C   0  0  0  0  0  0  0  0  0  0  0  0
   56.3320   85.4480   24.4850 O   0  0  0  0  0  0  0  0  0  0  0  0
   55.7190   85.0730   25.7030 C   0  0  2  0  0  3  0  0  0  0  0  0
   55.2040   83.6860   25.6700 C   0  0  1  0  0  3  0  0  0  0  0  0
   55.4850   83.0020   26.8750 O   0  0  0  0  0  0  0  0  0  0  0  0
   54.3630   82.2920   27.2170 C   0  0  0  0  0  0  0  0  0  0  0  0
   53.3240   83.0350   26.7210 O   0  0  0  0  0  0  0  0  0  0  0  0
   53.7620   83.5000   25.4720 C   0  0  1  0  0  3  0  0  0  0  0  0
   54.3270   82.2300   28.7490 C   0  0  0  0  0  1  0  0  0  0  0  0
   54.3850   80.8640   26.7380 C   0  0  0  0  0  1  0  0  0  0  0  0
   57.6300   87.3640   24.7940 C   0  0  0  0  0  1  0  0  0  0  0  0
   55.9640   87.2920   23.0140 C   0  0  0  0  0  1  0  0  0  0  0  0
   52.3860   84.3710   23.6450 C   0  0  0  0  0  0  0  0  0  0  0  0
   53.0870   84.7320   22.4670 N   0  0  0  0  0  0  0  0  0  0  0  0
   54.0130   85.1980   22.5710 H   0  0  0  0  0  0  0  0  0  0  0  0
   51.2660   83.8090   23.5130 O   0  0  0  0  0  0  0  0  0  0  0  0
   52.5910   84.4940   21.1450 C   0  0  0  0  0  2  0  0  0  0  0  0
   53.0840   85.5260   20.1960 C   0  0  0  0  0  0  0  0  0  0  0  0
   53.0460   86.9020   20.4840 N   0  0  0  0  0  0  0  0  0  0  0  0
   52.6330   87.1520   21.4410 H   0  0  0  0  0  0  0  0  0  0  0  0
   53.5420   85.1100   19.1130 O   0  0  0  0  0  0  0  0  0  0  0  0
   53.4690   87.9700   19.7000 C   0  0  0  0  0  0  0  0  0  0  0  0
   52.8540   88.2010   18.4770 C   0  0  0  0  0  3  0  0  0  0  0  0
   53.2000   89.2290   17.6300 C   0  0  0  0  0  3  0  0  0  0  0  0
   54.2080   90.0950   17.9880 C   0  0  0  0  0  0  0  0  0  0  0  0
   54.6690   91.5180   16.7910 Br  0  0  0  0  0  0  0  0  0  0  0  0
   54.8380   89.9060   19.1770 C   0  0  0  0  0  3  0  0  0  0  0  0
   54.4720   88.8520   20.0290 C   0  0  0  0  0  3  0  0  0  0  0  0
  1 17  1  6  0  0  0
  1 12  1  0  0  0  0
  2  1  1  0  0  0  0
  3  2  1  6  0  0  0
  4  3  1  0  0  0  0
  5  6  1  0  0  0  0
  5 15  1  0  0  0  0
  5  4  1  0  0  0  0
  7  6  1  6  0  0  0
  7  3  1  0  0  0  0
  8  7  1  0  0  0  0
  8  9  1  1  0  0  0
  9 10  1  0  0  0  0
 10 13  1  0  0  0  0
 11 10  1  0  0  0  0
 12  8  1  0  0  0  0
 12 11  1  1  0  0  0
 14 10  1  0  0  0  0
 16  5  1  0  0  0  0
 18 19  1  0  0  0  0
 18 17  1  0  0  0  0
 20 17  2  0  0  0  0
 21 18  1  0  0  0  0
 22 23  1  0  0  0  0
 22 21  1  0  0  0  0
 23 24  1  0  0  0  0
 25 22  2  0  0  0  0
 26 32  1  0  0  0  0
 26 23  1  0  0  0  0
 27 26  2  0  0  0  0
 28 29  2  0  0  0  0
 28 27  1  0  0  0  0
 29 31  1  0  0  0  0
 30 29  1  0  0  0  0
 31 32  2  0  0  0  0
M  END
>  <Pose>
1

>  <Score>
-8.863

$$$$
