/Users/jonathanwahrer/Desktop/Msc/3_Semester/Drug_Design_Praktikum/waehrer_HTS_screening/HTS_experiment/out/docking_results/vina_output/3npc/1341_docked.pdbqt
 OpenBabel03192220223D

 28 31  0  0  0  0  0  0  0  0999 V2000
   48.7860  103.6960   31.4680 C   0  0  0  0  0  0  0  0  0  0  0  0
   47.6790  103.0540   31.9090 N   0  0  0  0  0  0  0  0  0  0  0  0
   47.1770  102.3170   30.8970 C   0  0  0  0  0  0  0  0  0  0  0  0
   47.9380  102.4630   29.7900 N   0  0  0  0  0  0  0  0  0  0  0  0
   48.9250  103.3130   30.1520 C   0  0  0  0  0  3  0  0  0  0  0  0
   45.9600  101.5990   31.3540 C   0  0  0  0  0  3  0  0  0  0  0  0
   45.7120  102.0510   32.7520 C   0  0  0  0  0  3  0  0  0  0  0  0
   46.8720  102.9080   33.1000 C   0  0  0  0  0  3  0  0  0  0  0  0
   47.7590  101.8540   28.4880 C   0  0  0  0  0  2  0  0  0  0  0  0
   48.9870  101.0990   28.1090 C   0  0  0  0  0  0  0  0  0  0  0  0
   49.7180  101.5820   27.2420 O   0  0  0  0  0  0  0  0  0  0  0  0
   49.2360   99.8880   28.7580 N   0  0  0  0  0  0  0  0  0  0  0  0
   48.5620   99.5130   29.5070 H   0  0  0  0  0  0  0  0  0  0  0  0
   50.3610   99.0570   28.5180 C   0  0  0  0  0  0  0  0  0  0  0  0
   51.6170   99.4720   28.9780 C   0  0  0  0  0  3  0  0  0  0  0  0
   52.7180   98.7100   28.7480 C   0  0  0  0  0  3  0  0  0  0  0  0
   52.6320   97.5110   28.0600 C   0  0  0  0  0  0  0  0  0  0  0  0
   51.4030   97.1150   27.6150 C   0  0  0  0  0  3  0  0  0  0  0  0
   50.2500   97.8790   27.8350 C   0  0  0  0  0  3  0  0  0  0  0  0
   53.8490   96.6950   27.8220 C   0  0  0  0  0  2  0  0  0  0  0  0
   53.5830   95.7830   26.6200 C   0  0  0  0  0  1  0  0  0  0  0  0
   49.6840  104.6080   32.1740 C   0  0  0  0  0  0  0  0  0  0  0  0
   50.7690  104.1300   32.8830 C   0  0  0  0  0  3  0  0  0  0  0  0
   51.6320  104.9720   33.5610 C   0  0  0  0  0  3  0  0  0  0  0  0
   51.4470  106.3370   33.5580 C   0  0  0  0  0  0  0  0  0  0  0  0
   52.5410  107.4140   34.4170 Cl  0  0  0  0  0  0  0  0  0  0  0  0
   50.3670  106.8300   32.8560 C   0  0  0  0  0  3  0  0  0  0  0  0
   49.4950  105.9740   32.1710 C   0  0  0  0  0  3  0  0  0  0  0  0
  1  2  1  0  0  0  0
  1 22  1  0  0  0  0
  2  8  1  0  0  0  0
  3  6  2  0  0  0  0
  3  2  1  0  0  0  0
  4  5  1  0  0  0  0
  4  3  1  0  0  0  0
  5  1  2  0  0  0  0
  6  7  1  0  0  0  0
  7  8  2  0  0  0  0
  9  4  1  0  0  0  0
 10  9  1  0  0  0  0
 10 12  1  0  0  0  0
 11 10  2  0  0  0  0
 12 13  1  0  0  0  0
 14 12  1  0  0  0  0
 14 15  1  0  0  0  0
 16 15  2  0  0  0  0
 17 16  1  0  0  0  0
 18 19  1  0  0  0  0
 18 17  2  0  0  0  0
 19 14  2  0  0  0  0
 20 17  1  0  0  0  0
 21 20  1  0  0  0  0
 22 23  1  0  0  0  0
 23 24  2  0  0  0  0
 25 24  1  0  0  0  0
 25 26  1  0  0  0  0
 27 25  2  0  0  0  0
 28 22  2  0  0  0  0
 28 27  1  0  0  0  0
M  END
>  <Pose>
1

>  <Score>
-9.112

$$$$
