/Users/jonathanwahrer/Desktop/Msc/3_Semester/Drug_Design_Praktikum/waehrer_HTS_screening/HTS_experiment/out/docking_results/vina_output/3npc/1355_docked.pdbqt
 OpenBabel03192220233D

 27 30  0  0  1  0  0  0  0  0999 V2000
   52.8110   83.9700   18.1430 N   0  0  0  0  0  0  0  0  0  0  0  0
   54.1040   83.4330   18.2700 C   0  0  0  0  0  0  0  0  0  0  0  0
   54.6960   83.5080   19.3690 O   0  0  0  0  0  0  0  0  0  0  0  0
   52.3240   83.9050   17.2270 H   0  0  0  0  0  0  0  0  0  0  0  0
   52.1460   84.6100   19.2630 C   0  0  0  0  0  2  0  0  0  0  0  0
   52.1790   86.1090   19.1020 C   0  0  0  0  0  0  0  0  0  0  0  0
   51.2660   86.9750   19.4610 O   0  0  0  0  0  0  0  0  0  0  0  0
   51.6590   88.1930   19.1520 N   0  0  0  0  0  0  0  0  0  0  0  0
   52.8680   88.1370   18.5700 C   0  0  0  0  0  0  0  0  0  0  0  0
   53.1780   86.8290   18.5470 N   0  0  0  0  0  0  0  0  0  0  0  0
   53.6670   89.2520   18.0720 C   0  0  0  0  0  0  0  0  0  0  0  0
   54.5780   89.9190   18.8640 C   0  0  0  0  0  0  0  0  0  0  0  0
   54.7590   89.3900   20.5180 Cl  0  0  0  0  0  0  0  0  0  0  0  0
   55.3420   90.9820   18.3940 C   0  0  0  0  0  3  0  0  0  0  0  0
   55.2080   91.4050   17.0960 C   0  0  0  0  0  3  0  0  0  0  0  0
   54.2890   90.7390   16.2750 C   0  0  0  0  0  3  0  0  0  0  0  0
   53.5490   89.6920   16.7750 C   0  0  0  0  0  3  0  0  0  0  0  0
   54.7590   82.7900   17.1210 C   0  0  1  0  0  3  0  0  0  0  0  0
   55.6850   81.6660   17.5470 C   0  0  0  0  0  2  0  0  0  0  0  0
   56.1930   80.9020   16.3700 C   0  0  0  0  0  2  0  0  0  0  0  0
   55.3710   79.7160   15.9840 C   0  0  0  0  0  2  0  0  0  0  0  0
   53.9000   79.8870   16.3500 C   0  0  0  0  0  2  0  0  0  0  0  0
   53.4460   81.1180   15.7450 N   0  0  0  0  0  0  0  0  0  0  0  0
   52.5870   81.1660   14.7620 N   0  0  0  0  0  0  0  0  0  0  0  0
   53.8170   82.3610   16.0770 C   0  0  0  0  0  0  0  0  0  0  0  0
   52.3850   82.4200   14.4420 N   0  0  0  0  0  0  0  0  0  0  0  0
   53.1320   83.1590   15.2390 N   0  0  0  0  0  0  0  0  0  0  0  0
  1  2  1  0  0  0  0
  1  5  1  0  0  0  0
  2  3  2  0  0  0  0
  4  1  1  0  0  0  0
  6  5  1  0  0  0  0
  6  7  1  0  0  0  0
  8  7  1  0  0  0  0
  9  8  2  0  0  0  0
 10  9  1  0  0  0  0
 10  6  2  0  0  0  0
 11  9  1  0  0  0  0
 11 12  1  0  0  0  0
 12 13  1  0  0  0  0
 14 12  2  0  0  0  0
 15 14  1  0  0  0  0
 16 17  1  0  0  0  0
 16 15  2  0  0  0  0
 17 11  2  0  0  0  0
 18 19  1  0  0  0  0
 18  2  1  1  0  0  0
 20 19  1  0  0  0  0
 21 22  1  0  0  0  0
 21 20  1  0  0  0  0
 23 25  1  0  0  0  0
 23 22  1  0  0  0  0
 24 23  1  0  0  0  0
 25 18  1  0  0  0  0
 26 24  2  0  0  0  0
 26 27  1  0  0  0  0
 27 25  2  0  0  0  0
M  END
>  <Pose>
1

>  <Score>
-9.186

$$$$
