/Users/jonathanwahrer/Desktop/Msc/3_Semester/Drug_Design_Praktikum/waehrer_HTS_screening/HTS_experiment/out/docking_results/vina_output/3npc/1357_docked.pdbqt
 OpenBabel03192220233D

 24 27  0  0  1  0  0  0  0  0999 V2000
   51.1070   83.5470   28.5690 C   0  0  1  0  0  3  0  0  0  0  0  0
   49.8860   83.4990   29.2430 C   0  0  1  0  0  0  0  0  0  0  0  0
   49.2770   84.1060   30.4580 C   0  0  0  0  0  0  0  0  0  0  0  0
   48.6190   85.2100   29.7140 N   0  0  0  0  0  2  0  0  0  0  0  0
   49.4430   85.6180   28.8000 C   0  0  1  0  0  3  0  0  0  0  0  0
   50.6300   84.8300   28.9160 C   0  0  2  0  0  0  0  0  0  0  0  0
   51.4630   85.4320   30.0000 C   0  0  0  0  0  0  0  0  0  0  0  0
   52.1430   85.9090   30.8420 N   0  0  0  0  0  0  0  0  0  0  0  0
   48.2960   83.2310   30.9370 O   0  0  0  0  0  0  0  0  0  0  0  0
   48.5360   83.0540   32.2850 C   0  0  0  0  0  2  0  0  0  0  0  0
   49.2800   84.3270   32.6520 C   0  0  0  0  0  2  0  0  0  0  0  0
   50.0580   84.4800   31.4770 O   0  0  0  0  0  0  0  0  0  0  0  0
   48.7380   83.1750   28.3220 C   0  0  0  0  0  0  0  0  0  0  0  0
   47.8510   82.9230   27.5830 N   0  0  0  0  0  0  0  0  0  0  0  0
   52.2760   82.9210   29.2390 C   0  0  0  0  0  0  0  0  0  0  0  0
   53.5640   83.1530   28.8280 C   0  0  0  0  0  0  0  0  0  0  0  0
   53.9590   84.3150   27.3660 Br  0  0  0  0  0  0  0  0  0  0  0  0
   54.6010   82.5240   29.5040 C   0  0  0  0  0  3  0  0  0  0  0  0
   54.3610   81.6690   30.5850 C   0  0  0  0  0  3  0  0  0  0  0  0
   53.0630   81.4510   30.9800 C   0  0  0  0  0  3  0  0  0  0  0  0
   52.0300   82.0830   30.3010 C   0  0  0  0  0  3  0  0  0  0  0  0
   49.1900   86.6760   27.8480 N   0  0  0  0  0  0  0  0  0  0  0  0
   49.6400   87.6060   27.9480 H   0  0  0  0  0  0  0  0  0  0  0  0
   48.5510   86.5240   27.0460 H   0  0  0  0  0  0  0  0  0  0  0  0
  1  6  1  0  0  0  0
  1 15  1  1  0  0  0
  1  2  1  0  0  0  0
  2 13  1  6  0  0  0
  2  3  1  0  0  0  0
  3  9  1  0  0  0  0
  3 12  1  0  0  0  0
  4  3  1  0  0  0  0
  5 22  1  6  0  0  0
  5  6  1  0  0  0  0
  5  4  1  0  0  0  0
  6  2  1  0  0  0  0
  6  7  1  1  0  0  0
  7  8  3  0  0  0  0
  9 10  1  0  0  0  0
 10 11  1  0  0  0  0
 12 11  1  0  0  0  0
 14 13  3  0  0  0  0
 15 21  1  0  0  0  0
 16 15  2  0  0  0  0
 16 18  1  0  0  0  0
 17 16  1  0  0  0  0
 18 19  2  0  0  0  0
 19 20  1  0  0  0  0
 21 20  2  0  0  0  0
 22 23  1  0  0  0  0
 24 22  1  0  0  0  0
M  END
>  <Pose>
1

>  <Score>
-6.152

$$$$
