/Users/jonathanwahrer/Desktop/Msc/3_Semester/Drug_Design_Praktikum/waehrer_HTS_screening/HTS_experiment/out/docking_results/vina_output/3npc/1381_docked.pdbqt
 OpenBabel03192220243D

 31 34  0  0  0  0  0  0  0  0999 V2000
   52.3950   87.2440   19.2820 C   0  0  0  0  0  0  0  0  0  0  0  0
   51.2050   87.4240   19.5040 O   0  0  0  0  0  0  0  0  0  0  0  0
   52.6180   85.9890   18.6510 O   0  0  0  0  0  0  0  0  0  0  0  0
   53.1180   84.9430   19.4390 C   0  0  0  0  0  2  0  0  0  0  0  0
   53.4790   83.8380   18.5300 C   0  0  0  0  0  0  0  0  0  0  0  0
   53.5130   84.0470   17.2030 N   0  0  0  0  0  0  0  0  0  0  0  0
   53.8340   83.0790   16.3290 C   0  0  0  0  0  0  0  0  0  0  0  0
   54.1370   81.8490   16.7590 N   0  0  0  0  0  0  0  0  0  0  0  0
   53.8570   83.3310   14.9840 C   0  0  0  0  0  3  0  0  0  0  0  0
   54.4630   80.8680   15.8810 C   0  0  0  0  0  3  0  0  0  0  0  0
   54.1290   81.5530   18.0750 C   0  0  0  0  0  0  0  0  0  0  0  0
   54.4910   81.1040   14.5190 C   0  0  0  0  0  0  0  0  0  0  0  0
   54.9550   79.6960   13.2910 Br  0  0  0  0  0  0  0  0  0  0  0  0
   54.1820   82.3600   14.0590 C   0  0  0  0  0  3  0  0  0  0  0  0
   53.7900   82.5760   18.9720 C   0  0  0  0  0  3  0  0  0  0  0  0
   54.4080   80.4100   18.5140 O   0  0  0  0  0  0  0  0  0  0  0  0
   53.5350   88.0950   19.5630 C   0  0  0  0  0  0  0  0  0  0  0  0
   54.2590   87.9270   20.7100 N   0  0  0  0  0  0  0  0  0  0  0  0
   55.3020   88.6880   20.9900 N   0  0  0  0  0  0  0  0  0  0  0  0
   55.6990   89.6660   20.1580 C   0  0  0  0  0  0  0  0  0  0  0  0
   56.7080   90.3960   20.4400 O   0  0  0  0  0  0  0  0  0  0  0  0
   55.0240   89.9010   18.9840 C   0  0  0  0  0  0  0  0  0  0  0  0
   53.9260   89.0810   18.7120 C   0  0  0  0  0  0  0  0  0  0  0  0
   55.4470   90.9030   18.1510 C   0  0  0  0  0  3  0  0  0  0  0  0
   53.2820   89.3500   17.5290 C   0  0  0  0  0  3  0  0  0  0  0  0
   53.7020   90.3640   16.6740 C   0  0  0  0  0  3  0  0  0  0  0  0
   54.7880   91.1530   16.9740 C   0  0  0  0  0  3  0  0  0  0  0  0
   56.0610   88.5010   22.2090 C   0  0  0  0  0  2  0  0  0  0  0  0
   56.9330   87.2740   22.1610 C   0  0  0  0  0  2  0  0  0  0  0  0
   56.2400   86.1400   21.7810 O   0  0  0  0  0  0  0  0  0  0  0  0
   56.7100   85.3620   22.1620 H   0  0  0  0  0  0  0  0  0  0  0  0
  1  2  2  0  0  0  0
  1 17  1  0  0  0  0
  3  1  1  0  0  0  0
  3  4  1  0  0  0  0
  5 15  2  0  0  0  0
  5  4  1  0  0  0  0
  6  5  1  0  0  0  0
  7  8  1  0  0  0  0
  7  6  2  0  0  0  0
  8 11  1  0  0  0  0
  9  7  1  0  0  0  0
 10  8  1  0  0  0  0
 11 16  2  0  0  0  0
 11 15  1  0  0  0  0
 12 10  2  0  0  0  0
 13 12  1  0  0  0  0
 14 12  1  0  0  0  0
 14  9  2  0  0  0  0
 17 18  2  0  0  0  0
 18 19  1  0  0  0  0
 19 28  1  0  0  0  0
 20 21  2  0  0  0  0
 20 19  1  0  0  0  0
 22 20  1  0  0  0  0
 23 22  1  0  0  0  0
 23 17  1  0  0  0  0
 24 22  2  0  0  0  0
 25 23  2  0  0  0  0
 26 27  2  0  0  0  0
 26 25  1  0  0  0  0
 27 24  1  0  0  0  0
 29 28  1  0  0  0  0
 30 29  1  0  0  0  0
 30 31  1  0  0  0  0
M  END
>  <Pose>
1

>  <Score>
-9.313

$$$$
