/Users/jonathanwahrer/Desktop/Msc/3_Semester/Drug_Design_Praktikum/waehrer_HTS_screening/HTS_experiment/out/docking_results/vina_output/3npc/1404_docked.pdbqt
 OpenBabel03192220253D

 26 29  0  0  1  0  0  0  0  0999 V2000
   55.7330   80.9700   16.5190 Br  0  0  0  0  0  0  0  0  0  0  0  0
   54.7200   82.3140   17.4160 C   0  0  0  0  0  0  0  0  0  0  0  0
   54.3530   82.1700   18.7410 C   0  0  0  0  0  3  0  0  0  0  0  0
   53.6220   83.1130   19.4330 C   0  0  0  0  0  0  0  0  0  0  0  0
   53.2600   84.2530   18.7100 C   0  0  0  0  0  0  0  0  0  0  0  0
   53.6240   84.3960   17.3940 C   0  0  0  0  0  3  0  0  0  0  0  0
   54.3560   83.4440   16.7140 C   0  0  0  0  0  0  0  0  0  0  0  0
   54.7240   83.6510   15.2850 C   0  0  0  0  0  1  0  0  0  0  0  0
   52.5270   85.1790   19.4390 O   0  0  0  0  0  0  0  0  0  0  0  0
   51.9780   84.9350   20.7200 C   0  0  0  0  0  2  0  0  0  0  0  0
   53.0120   84.1830   21.6230 C   0  0  2  0  0  0  0  0  0  0  0  0
   53.2210   82.9510   20.8230 C   0  0  0  0  0  0  0  0  0  0  0  0
   53.0880   81.7760   21.2070 O   0  0  0  0  0  0  0  0  0  0  0  0
   52.6020   84.0260   22.9100 N   0  0  0  0  0  0  0  0  0  0  0  0
   53.3270   83.3380   23.8900 C   0  0  0  0  0  2  0  0  0  0  0  0
   52.7500   81.9520   24.0870 C   0  0  0  0  0  2  0  0  0  0  0  0
   51.4630   82.1550   24.6380 O   0  0  0  0  0  0  0  0  0  0  0  0
   50.7020   82.6480   23.5630 C   0  0  0  0  0  2  0  0  0  0  0  0
   51.2380   84.0360   23.2070 C   0  0  0  0  0  2  0  0  0  0  0  0
   54.2180   85.0490   21.5380 C   0  0  0  0  0  2  0  0  0  0  0  0
   54.1880   86.3230   22.1870 N   0  0  0  0  0  0  0  0  0  0  0  0
   54.8200   86.4570   23.4440 C   0  0  0  0  0  2  0  0  0  0  0  0
   56.3450   86.5260   23.2770 C   0  0  0  0  0  2  0  0  0  0  0  0
   56.5930   87.7250   22.6000 O   0  0  0  0  0  0  0  0  0  0  0  0
   56.1210   87.5550   21.2930 C   0  0  0  0  0  2  0  0  0  0  0  0
   54.6400   87.3430   21.2390 C   0  0  0  0  0  2  0  0  0  0  0  0
  1  2  1  0  0  0  0
  2  3  1  0  0  0  0
  3  4  2  0  0  0  0
  4 12  1  0  0  0  0
  5  4  1  0  0  0  0
  5  9  1  0  0  0  0
  6  5  2  0  0  0  0
  7  6  1  0  0  0  0
  7  2  2  0  0  0  0
  8  7  1  0  0  0  0
  9 10  1  0  0  0  0
 10 11  1  0  0  0  0
 11 20  1  1  0  0  0
 11 14  1  0  0  0  0
 12 13  2  0  0  0  0
 12 11  1  0  0  0  0
 14 19  1  0  0  0  0
 14 15  1  0  0  0  0
 15 16  1  0  0  0  0
 16 17  1  0  0  0  0
 18 17  1  0  0  0  0
 19 18  1  0  0  0  0
 20 21  1  0  0  0  0
 21 22  1  0  0  0  0
 23 22  1  0  0  0  0
 24 23  1  0  0  0  0
 25 24  1  0  0  0  0
 26 25  1  0  0  0  0
 26 21  1  0  0  0  0
M  END
>  <Pose>
1

>  <Score>
-6.666

$$$$
