/Users/jonathanwahrer/Desktop/Msc/3_Semester/Drug_Design_Praktikum/waehrer_HTS_screening/HTS_experiment/out/docking_results/vina_output/3npc/1428_docked.pdbqt
 OpenBabel03192220263D

 37 40  0  0  1  0  0  0  0  0999 V2000
   54.6010   84.3620   16.0810 Cl  0  0  0  0  0  0  0  0  0  0  0  0
   54.5070   83.3350   17.5090 C   0  0  0  0  0  0  0  0  0  0  0  0
   53.7950   83.6990   18.6200 C   0  0  0  0  0  3  0  0  0  0  0  0
   53.7550   82.8590   19.7100 C   0  0  0  0  0  0  0  0  0  0  0  0
   54.4390   81.6730   19.6410 C   0  0  0  0  0  0  0  0  0  0  0  0
   55.1640   81.3040   18.5040 C   0  0  0  0  0  3  0  0  0  0  0  0
   55.1970   82.1450   17.4310 C   0  0  0  0  0  3  0  0  0  0  0  0
   54.3010   80.9000   20.8270 N   0  0  0  0  0  0  0  0  0  0  0  0
   53.4830   81.6460   21.6860 C   0  0  0  0  0  0  0  0  0  0  0  0
   53.1520   81.2170   22.8400 O   0  0  0  0  0  0  0  0  0  0  0  0
   53.1140   82.9160   21.0450 C   0  0  2  0  0  0  0  0  0  0  0  0
   51.6820   82.9650   20.9590 N   0  0  0  0  0  0  0  0  0  0  0  0
   51.1980   83.9840   21.8380 C   0  0  2  0  0  3  0  0  0  0  0  0
   52.3320   84.3790   22.7280 C   0  0  0  0  0  2  0  0  0  0  0  0
   53.5310   84.0440   21.8860 C   0  0  2  0  0  3  0  0  0  0  0  0
   54.7240   79.9550   21.0260 H   0  0  0  0  0  0  0  0  0  0  0  0
   51.3670   83.0690   19.9710 H   0  0  0  0  0  0  0  0  0  0  0  0
   54.0850   85.2260   21.1770 C   0  0  0  0  0  0  0  0  0  0  0  0
   55.2920   85.1500   20.8410 O   0  0  0  0  0  0  0  0  0  0  0  0
   53.3430   86.3760   20.8830 N   0  0  0  0  0  0  0  0  0  0  0  0
   52.3260   86.3340   21.2010 H   0  0  0  0  0  0  0  0  0  0  0  0
   53.7520   87.5410   20.2320 C   0  0  0  0  0  0  0  0  0  0  0  0
   54.5680   88.4410   20.9020 C   0  0  0  0  0  0  0  0  0  0  0  0
   55.0120   89.6110   20.3190 C   0  0  0  0  0  3  0  0  0  0  0  0
   54.6590   89.9420   19.0350 C   0  0  0  0  0  3  0  0  0  0  0  0
   53.8560   89.0760   18.3510 C   0  0  0  0  0  0  0  0  0  0  0  0
   53.4160   87.8980   18.9510 C   0  0  0  0  0  3  0  0  0  0  0  0
   54.9660   88.1770   22.2000 O   0  0  0  0  0  0  0  0  0  0  0  0
   56.2580   88.3890   22.6820 C   0  0  0  0  0  1  0  0  0  0  0  0
   53.4790   89.3730   17.0540 O   0  0  0  0  0  0  0  0  0  0  0  0
   54.1350   90.3550   16.2720 C   0  0  0  0  0  1  0  0  0  0  0  0
   49.9870   83.5180   22.6290 C   0  0  0  0  0  2  0  0  0  0  0  0
   50.0870   82.1020   23.0080 C   0  0  0  0  0  0  0  0  0  0  0  0
   49.6660   81.2170   22.2470 O   0  0  0  0  0  0  0  0  0  0  0  0
   50.6650   81.7480   24.2420 N   0  0  0  0  0  0  0  0  0  0  0  0
   51.3800   80.9900   24.2520 H   0  0  0  0  0  0  0  0  0  0  0  0
   50.4250   82.1970   25.1590 H   0  0  0  0  0  0  0  0  0  0  0  0
  1  2  1  0  0  0  0
  2  3  1  0  0  0  0
  3  4  2  0  0  0  0
  5  4  1  0  0  0  0
  5  8  1  0  0  0  0
  6  5  2  0  0  0  0
  7  2  2  0  0  0  0
  7  6  1  0  0  0  0
  8 16  1  0  0  0  0
  8  9  1  0  0  0  0
  9 10  2  0  0  0  0
 11  4  1  6  0  0  0
 11  9  1  0  0  0  0
 11 15  1  0  0  0  0
 12 11  1  0  0  0  0
 12 13  1  0  0  0  0
 13 32  1  1  0  0  0
 13 14  1  0  0  0  0
 15 18  1  6  0  0  0
 15 14  1  0  0  0  0
 17 12  1  0  0  0  0
 19 18  2  0  0  0  0
 20 18  1  0  0  0  0
 20 21  1  0  0  0  0
 22 20  1  0  0  0  0
 22 23  1  0  0  0  0
 23 28  1  0  0  0  0
 24 23  2  0  0  0  0
 25 24  1  0  0  0  0
 26 27  1  0  0  0  0
 26 25  2  0  0  0  0
 27 22  2  0  0  0  0
 28 29  1  0  0  0  0
 30 26  1  0  0  0  0
 31 30  1  0  0  0  0
 32 33  1  0  0  0  0
 33 35  1  0  0  0  0
 34 33  2  0  0  0  0
 35 36  1  0  0  0  0
 35 37  1  0  0  0  0
M  END
>  <Pose>
1

>  <Score>
-7.936

$$$$
