/Users/jonathanwahrer/Desktop/Msc/3_Semester/Drug_Design_Praktikum/waehrer_HTS_screening/HTS_experiment/out/docking_results/vina_output/3npc/1432_docked.pdbqt
 OpenBabel03192220263D

 21 24  0  0  0  0  0  0  0  0999 V2000
   55.6980   89.6540   21.9530 C   0  0  0  0  0  0  0  0  0  0  0  0
   55.6910   89.6180   23.2960 N   0  0  0  0  0  0  0  0  0  0  0  0
   55.2560   88.4250   23.7340 N   0  0  0  0  0  0  0  0  0  0  0  0
   54.9810   87.6830   22.6470 C   0  0  0  0  0  0  0  0  0  0  0  0
   55.2540   88.4390   21.5670 N   0  0  0  0  0  0  0  0  0  0  0  0
   54.5130   86.3980   22.8470 C   0  0  0  0  0  0  0  0  0  0  0  0
   54.3250   85.8720   24.1110 C   0  0  0  0  0  0  0  0  0  0  0  0
   53.8620   84.6060   24.0260 N   0  0  0  0  0  0  0  0  0  0  0  0
   53.7620   84.3440   22.7360 N   0  0  0  0  0  0  0  0  0  0  0  0
   54.1420   85.3930   21.9850 C   0  0  0  0  0  3  0  0  0  0  0  0
   53.5470   83.7300   25.1520 C   0  0  0  0  0  1  0  0  0  0  0  0
   54.6210   86.6700   25.1510 N   0  0  0  0  0  0  0  0  0  0  0  0
   55.0770   87.9200   24.9690 C   0  0  0  0  0  3  0  0  0  0  0  0
   56.1030   90.7700   21.0550 C   0  0  0  0  0  2  0  0  0  0  0  0
   55.1780   90.9290   19.9440 N   0  0  0  0  0  0  0  0  0  0  0  0
   53.9110   91.3850   20.0070 C   0  0  0  0  0  3  0  0  0  0  0  0
   53.3790   91.3790   18.7200 C   0  0  0  0  0  0  0  0  0  0  0  0
   51.6350   91.9100   18.1660 Br  0  0  0  0  0  0  0  0  0  0  0  0
   54.3780   90.9040   17.8970 C   0  0  0  0  0  0  0  0  0  0  0  0
   55.4500   90.6420   18.6700 N   0  0  0  0  0  0  0  0  0  0  0  0
   54.2250   90.7380   16.4320 C   0  0  0  0  0  1  0  0  0  0  0  0
  1  2  2  0  0  0  0
  2  3  1  0  0  0  0
  3 13  1  0  0  0  0
  4  6  1  0  0  0  0
  4  3  1  0  0  0  0
  5  1  1  0  0  0  0
  5  4  2  0  0  0  0
  6  7  2  0  0  0  0
  7 12  1  0  0  0  0
  8  7  1  0  0  0  0
  8 11  1  0  0  0  0
  9  8  1  0  0  0  0
 10  9  2  0  0  0  0
 10  6  1  0  0  0  0
 13 12  2  0  0  0  0
 14  1  1  0  0  0  0
 15 16  1  0  0  0  0
 15 14  1  0  0  0  0
 17 16  2  0  0  0  0
 18 17  1  0  0  0  0
 19 20  2  0  0  0  0
 19 17  1  0  0  0  0
 20 15  1  0  0  0  0
 21 19  1  0  0  0  0
M  END
>  <Pose>
1

>  <Score>
-8.020

$$$$
