/Users/jonathanwahrer/Desktop/Msc/3_Semester/Drug_Design_Praktikum/waehrer_HTS_screening/HTS_experiment/out/docking_results/vina_output/3npc/1433_docked.pdbqt
 OpenBabel03192220263D

 28 31  0  0  1  0  0  0  0  0999 V2000
   52.4720   89.5980   17.5100 Br  0  0  0  0  0  0  0  0  0  0  0  0
   53.4730   89.0940   19.0400 C   0  0  0  0  0  0  0  0  0  0  0  0
   53.5000   87.7540   19.4390 C   0  0  0  0  0  0  0  0  0  0  0  0
   54.2230   87.3500   20.5340 C   0  0  0  0  0  0  0  0  0  0  0  0
   54.9200   88.3120   21.2260 C   0  0  0  0  0  3  0  0  0  0  0  0
   54.9110   89.6550   20.8500 C   0  0  0  0  0  0  0  0  0  0  0  0
   54.1720   90.0500   19.7310 C   0  0  0  0  0  0  0  0  0  0  0  0
   54.1590   91.4800   19.3170 C   0  0  0  0  0  1  0  0  0  0  0  0
   55.6640   90.6610   21.6440 C   0  0  0  0  0  1  0  0  0  0  0  0
   54.3400   85.9410   21.0080 C   0  0  2  0  0  3  0  0  0  0  0  0
   53.4150   84.9780   20.3280 C   0  0  2  0  0  0  0  0  0  0  0  0
   52.2720   85.7570   19.7040 C   0  0  0  0  0  2  0  0  0  0  0  0
   52.8090   86.7430   18.7850 O   0  0  0  0  0  0  0  0  0  0  0  0
   52.8620   84.1410   21.3700 N   0  0  0  0  0  0  0  0  0  0  0  0
   53.4180   82.8290   21.4070 C   0  0  0  0  0  2  0  0  0  0  0  0
   52.6280   81.8120   22.1810 C   0  0  0  0  0  2  0  0  0  0  0  0
   51.2680   81.9300   22.0820 O   0  0  0  0  0  0  0  0  0  0  0  0
   50.9150   83.2170   22.5090 C   0  0  0  0  0  2  0  0  0  0  0  0
   51.4290   84.1320   21.3670 C   0  0  0  0  0  2  0  0  0  0  0  0
   53.9930   84.2020   19.2060 C   0  0  0  0  0  2  0  0  0  0  0  0
   53.2860   83.8370   18.0660 N   0  0  0  0  0  0  0  0  0  0  0  0
   54.1620   84.0140   16.8570 C   0  0  0  0  0  2  0  0  0  0  0  0
   55.4300   83.2550   16.9970 C   0  0  0  0  0  2  0  0  0  0  0  0
   55.3370   82.1010   17.7280 O   0  0  0  0  0  0  0  0  0  0  0  0
   54.1020   81.5250   17.7840 C   0  0  0  0  0  2  0  0  0  0  0  0
   52.9270   82.4440   17.8760 C   0  0  0  0  0  2  0  0  0  0  0  0
   54.0850   85.9540   22.4140 O   0  0  0  0  0  0  0  0  0  0  0  0
   53.1450   85.6720   22.5360 H   0  0  0  0  0  0  0  0  0  0  0  0
  1  2  1  0  0  0  0
  2  3  2  0  0  0  0
  2  7  1  0  0  0  0
  3  4  1  0  0  0  0
  4 10  1  0  0  0  0
  4  5  2  0  0  0  0
  6  5  1  0  0  0  0
  6  9  1  0  0  0  0
  7  6  2  0  0  0  0
  8  7  1  0  0  0  0
 10 27  1  1  0  0  0
 11 20  1  6  0  0  0
 11 10  1  0  0  0  0
 11 14  1  0  0  0  0
 12 11  1  0  0  0  0
 13  3  1  0  0  0  0
 13 12  1  0  0  0  0
 14 15  1  0  0  0  0
 15 16  1  0  0  0  0
 17 16  1  0  0  0  0
 17 18  1  0  0  0  0
 19 14  1  0  0  0  0
 19 18  1  0  0  0  0
 21 20  1  0  0  0  0
 22 23  1  0  0  0  0
 22 21  1  0  0  0  0
 23 24  1  0  0  0  0
 24 25  1  0  0  0  0
 25 26  1  0  0  0  0
 26 21  1  0  0  0  0
 27 28  1  0  0  0  0
M  END
>  <Pose>
1

>  <Score>
-7.978

$$$$
