/Users/jonathanwahrer/Desktop/Msc/3_Semester/Drug_Design_Praktikum/waehrer_HTS_screening/HTS_experiment/out/docking_results/vina_output/3npc/1434_docked.pdbqt
 OpenBabel03192220263D

 28 31  0  0  1  0  0  0  0  0999 V2000
   53.0500   85.8980   19.4260 C   0  0  0  0  0  0  0  0  0  0  0  0
   52.8810   85.5700   18.1500 O   0  0  0  0  0  0  0  0  0  0  0  0
   53.7470   84.9590   20.1700 N   0  0  0  0  0  0  0  0  0  0  0  0
   54.0870   85.0100   21.5480 C   0  0  0  0  0  2  0  0  0  0  0  0
   53.2430   84.0010   22.3280 C   0  0  0  0  0  2  0  0  0  0  0  0
   52.9510   82.7950   21.4500 C   0  0  1  0  0  0  0  0  0  0  0  0
   52.9390   81.6520   22.3470 N   0  0  0  0  0  0  0  0  0  0  0  0
   51.5820   81.5210   22.8190 C   0  0  0  0  0  0  0  0  0  0  0  0
   51.2120   80.8780   23.8330 O   0  0  0  0  0  0  0  0  0  0  0  0
   50.7430   82.2630   21.9130 N   0  0  0  0  0  0  0  0  0  0  0  0
   51.5760   82.8330   20.9110 C   0  0  0  0  0  0  0  0  0  0  0  0
   51.1810   83.2690   19.8050 O   0  0  0  0  0  0  0  0  0  0  0  0
   54.0020   82.5690   20.4100 C   0  0  0  0  0  2  0  0  0  0  0  0
   54.2090   83.7260   19.4880 C   0  0  0  0  0  2  0  0  0  0  0  0
   53.7410   81.0410   22.6070 H   0  0  0  0  0  0  0  0  0  0  0  0
   49.7210   82.3590   21.9840 H   0  0  0  0  0  0  0  0  0  0  0  0
   52.4510   87.1810   19.7350 C   0  0  0  0  0  2  0  0  0  0  0  0
   53.0940   88.3810   19.3280 N   0  0  0  0  0  0  0  0  0  0  0  0
   54.2310   88.8560   19.9190 C   0  0  0  0  0  0  0  0  0  0  0  0
   54.6130   90.0130   19.2900 C   0  0  0  0  0  0  0  0  0  0  0  0
   54.9930   88.3720   20.9830 C   0  0  0  0  0  3  0  0  0  0  0  0
   53.6930   90.2480   18.2990 C   0  0  0  0  0  0  0  0  0  0  0  0
   55.7480   90.6870   19.7150 C   0  0  0  0  0  3  0  0  0  0  0  0
   53.7850   91.7550   17.1260 Br  0  0  0  0  0  0  0  0  0  0  0  0
   52.7700   89.2400   18.3330 C   0  0  0  0  0  0  0  0  0  0  0  0
   51.6030   89.0980   17.4350 C   0  0  0  0  0  1  0  0  0  0  0  0
   56.4930   90.2030   20.7650 C   0  0  0  0  0  3  0  0  0  0  0  0
   56.1290   89.0510   21.4050 C   0  0  0  0  0  3  0  0  0  0  0  0
  1 17  1  0  0  0  0
  1  3  1  0  0  0  0
  2  1  2  0  0  0  0
  3  4  1  0  0  0  0
  4  5  1  0  0  0  0
  6 13  1  6  0  0  0
  6  5  1  0  0  0  0
  6  7  1  0  0  0  0
  7 15  1  0  0  0  0
  7  8  1  0  0  0  0
  8  9  2  0  0  0  0
 10 16  1  0  0  0  0
 10  8  1  0  0  0  0
 11  6  1  0  0  0  0
 11 10  1  0  0  0  0
 12 11  2  0  0  0  0
 14  3  1  0  0  0  0
 14 13  1  0  0  0  0
 18 17  1  0  0  0  0
 18 19  1  0  0  0  0
 19 21  1  0  0  0  0
 20 23  1  0  0  0  0
 20 19  2  0  0  0  0
 21 28  2  0  0  0  0
 22 25  2  0  0  0  0
 22 20  1  0  0  0  0
 23 27  2  0  0  0  0
 24 22  1  0  0  0  0
 25 18  1  0  0  0  0
 26 25  1  0  0  0  0
 27 28  1  0  0  0  0
M  END
>  <Pose>
1

>  <Score>
-8.485

$$$$
