/Users/jonathanwahrer/Desktop/Msc/3_Semester/Drug_Design_Praktikum/waehrer_HTS_screening/HTS_experiment/out/docking_results/vina_output/3npc/1436_docked.pdbqt
 OpenBabel03192220273D

 33 36  0  0  0  0  0  0  0  0999 V2000
   54.3010   83.4870   20.6650 O   0  0  0  0  0  0  0  0  0  0  0  0
   53.1740   82.7840   20.3960 C   0  0  0  0  0  3  0  0  0  0  0  0
   52.4000   82.1000   21.4460 C   0  0  0  0  0  3  0  0  0  0  0  0
   52.8440   82.2070   22.7940 N   0  0  0  0  0  0  0  0  0  0  0  0
   53.7500   81.5130   23.4810 C   0  0  0  0  0  0  0  0  0  0  0  0
   54.7520   80.0000   22.8790 Br  0  0  0  0  0  0  0  0  0  0  0  0
   53.8780   81.9810   24.7440 N   0  0  0  0  0  0  0  0  0  0  0  0
   53.0270   82.9920   24.8540 C   0  0  0  0  0  0  0  0  0  0  0  0
   52.3700   83.1520   23.6530 C   0  0  0  0  0  0  0  0  0  0  0  0
   52.7240   83.8240   25.8890 N   0  0  0  0  0  0  0  0  0  0  0  0
   51.4130   84.1300   23.4710 C   0  0  0  0  0  0  0  0  0  0  0  0
   51.1540   84.9300   24.5440 N   0  0  0  0  0  0  0  0  0  0  0  0
   50.8000   84.2900   22.3860 O   0  0  0  0  0  0  0  0  0  0  0  0
   51.8000   84.7660   25.7100 C   0  0  0  0  0  0  0  0  0  0  0  0
   50.4320   85.6720   24.4190 H   0  0  0  0  0  0  0  0  0  0  0  0
   51.5390   85.5230   26.6890 O   0  0  0  0  0  0  0  0  0  0  0  0
   53.3920   83.6890   27.1660 C   0  0  0  0  0  1  0  0  0  0  0  0
   54.2620   84.7470   20.0920 C   0  0  0  0  0  2  0  0  0  0  0  0
   53.8660   85.7500   21.1340 C   0  0  0  0  0  2  0  0  0  0  0  0
   54.1700   87.0880   20.7370 N   0  0  0  0  0  0  0  0  0  0  0  0
   53.4090   87.8660   19.9570 C   0  0  0  0  0  0  0  0  0  0  0  0
   54.0480   89.0580   19.8100 C   0  0  0  0  0  0  0  0  0  0  0  0
   52.1900   87.6600   19.3420 C   0  0  0  0  0  0  0  0  0  0  0  0
   55.1810   88.9760   20.5030 N   0  0  0  0  0  0  0  0  0  0  0  0
   53.4950   90.0320   19.0680 N   0  0  0  0  0  0  0  0  0  0  0  0
   55.2910   87.7730   21.0910 C   0  0  0  0  0  0  0  0  0  0  0  0
   56.6780   87.0910   22.1940 Br  0  0  0  0  0  0  0  0  0  0  0  0
   52.3190   89.8130   18.4840 C   0  0  0  0  0  0  0  0  0  0  0  0
   54.1600   91.3070   18.9000 C   0  0  0  0  0  1  0  0  0  0  0  0
   51.8120   90.7350   17.7910 O   0  0  0  0  0  0  0  0  0  0  0  0
   51.6790   88.6570   18.6150 N   0  0  0  0  0  0  0  0  0  0  0  0
   50.7580   88.5040   18.1490 H   0  0  0  0  0  0  0  0  0  0  0  0
   51.5450   86.5680   19.4430 O   0  0  0  0  0  0  0  0  0  0  0  0
  2  1  1  0  0  0  0
  2  3  2  0  0  0  0
  3  4  1  0  0  0  0
  4  5  1  0  0  0  0
  4  9  1  0  0  0  0
  5  7  2  0  0  0  0
  6  5  1  0  0  0  0
  7  8  1  0  0  0  0
  8 10  1  0  0  0  0
  9  8  2  0  0  0  0
 10 17  1  0  0  0  0
 11  9  1  0  0  0  0
 11 12  1  0  0  0  0
 12 14  1  0  0  0  0
 13 11  2  0  0  0  0
 14 10  1  0  0  0  0
 14 16  2  0  0  0  0
 15 12  1  0  0  0  0
 18  1  1  0  0  0  0
 18 19  1  0  0  0  0
 20 26  1  0  0  0  0
 20 19  1  0  0  0  0
 21 20  1  0  0  0  0
 22 21  2  0  0  0  0
 22 24  1  0  0  0  0
 23 33  2  0  0  0  0
 23 21  1  0  0  0  0
 24 26  2  0  0  0  0
 25 22  1  0  0  0  0
 26 27  1  0  0  0  0
 28 31  1  0  0  0  0
 28 25  1  0  0  0  0
 29 25  1  0  0  0  0
 30 28  2  0  0  0  0
 31 23  1  0  0  0  0
 32 31  1  0  0  0  0
M  END
>  <Pose>
1

>  <Score>
-7.664

$$$$
