/Users/jonathanwahrer/Desktop/Msc/3_Semester/Drug_Design_Praktikum/waehrer_HTS_screening/HTS_experiment/out/docking_results/vina_output/3npc/1444_docked.pdbqt
 OpenBabel03192220273D

 33 36  0  0  0  0  0  0  0  0999 V2000
   52.4080   86.0690   18.4930 N   0  0  0  0  0  0  0  0  0  0  0  0
   52.3160   87.4220   18.5680 C   0  0  0  0  0  0  0  0  0  0  0  0
   51.2420   87.8100   17.8020 O   0  0  0  0  0  0  0  0  0  0  0  0
   51.5950   85.6270   17.8540 H   0  0  0  0  0  0  0  0  0  0  0  0
   52.9420   88.5890   19.1680 C   0  0  0  0  0  2  0  0  0  0  0  0
   53.5080   89.6720   18.4860 N   0  0  0  0  0  0  0  0  0  0  0  0
   53.9680   89.5850   17.0740 C   0  0  0  0  0  2  0  0  0  0  0  0
   54.8120   90.8260   16.8730 C   0  0  0  0  0  2  0  0  0  0  0  0
   53.9280   92.0370   17.0090 C   0  0  0  0  0  2  0  0  0  0  0  0
   53.4800   92.1720   18.4490 C   0  0  0  0  0  2  0  0  0  0  0  0
   53.7470   90.9020   19.1850 C   0  0  0  0  0  0  0  0  0  0  0  0
   54.2810   90.9320   20.4080 C   0  0  0  0  0  0  0  0  0  0  0  0
   54.5010   92.1750   21.0960 N   0  0  0  0  0  0  0  0  0  0  0  0
   54.7860   89.9390   21.2410 N   0  0  0  0  0  0  0  0  0  0  0  0
   55.1310   91.9190   22.3280 N   0  0  0  0  0  0  0  0  0  0  0  0
   54.2760   93.1550   20.8370 H   0  0  0  0  0  0  0  0  0  0  0  0
   55.3180   90.5270   22.4420 C   0  0  0  0  0  0  0  0  0  0  0  0
   55.4230   92.6150   23.0590 H   0  0  0  0  0  0  0  0  0  0  0  0
   55.8360   89.8650   23.3700 O   0  0  0  0  0  0  0  0  0  0  0  0
   54.8080   88.9270   21.0350 H   0  0  0  0  0  0  0  0  0  0  0  0
   53.2740   85.0630   18.9040 C   0  0  0  0  0  0  0  0  0  0  0  0
   53.8270   84.9160   20.1450 N   0  0  0  0  0  0  0  0  0  0  0  0
   54.5470   83.8010   20.1570 N   0  0  0  0  0  0  0  0  0  0  0  0
   54.5050   83.1890   18.9860 C   0  0  0  0  0  3  0  0  0  0  0  0
   53.6910   83.9810   18.1620 C   0  0  0  0  0  3  0  0  0  0  0  0
   53.6520   85.8230   21.2260 C   0  0  0  0  0  2  0  0  0  0  0  0
   54.8900   86.1420   21.9610 C   0  0  0  0  0  0  0  0  0  0  0  0
   55.0200   86.0320   23.3140 C   0  0  0  0  0  0  0  0  0  0  0  0
   53.6660   85.4840   24.2760 Cl  0  0  0  0  0  0  0  0  0  0  0  0
   56.2010   86.3450   23.9470 C   0  0  0  0  0  3  0  0  0  0  0  0
   57.2940   86.7810   23.2320 C   0  0  0  0  0  3  0  0  0  0  0  0
   57.1740   86.8960   21.8640 C   0  0  0  0  0  3  0  0  0  0  0  0
   55.9880   86.5780   21.2530 C   0  0  0  0  0  3  0  0  0  0  0  0
  1  2  1  0  0  0  0
  1 21  1  0  0  0  0
  2  5  1  0  0  0  0
  3  2  2  0  0  0  0
  4  1  1  0  0  0  0
  6  5  1  0  0  0  0
  6 11  1  0  0  0  0
  7  6  1  0  0  0  0
  8  9  1  0  0  0  0
  8  7  1  0  0  0  0
  9 10  1  0  0  0  0
 10 11  1  0  0  0  0
 11 12  2  0  0  0  0
 12 13  1  0  0  0  0
 12 14  1  0  0  0  0
 13 15  1  0  0  0  0
 14 17  1  0  0  0  0
 15 17  1  0  0  0  0
 15 18  1  0  0  0  0
 16 13  1  0  0  0  0
 17 19  2  0  0  0  0
 20 14  1  0  0  0  0
 21 22  1  0  0  0  0
 22 23  1  0  0  0  0
 22 26  1  0  0  0  0
 24 23  2  0  0  0  0
 25 21  2  0  0  0  0
 25 24  1  0  0  0  0
 26 27  1  0  0  0  0
 27 28  1  0  0  0  0
 28 30  2  0  0  0  0
 28 29  1  0  0  0  0
 31 30  1  0  0  0  0
 32 31  2  0  0  0  0
 33 32  1  0  0  0  0
 33 27  2  0  0  0  0
M  END
>  <Pose>
1

>  <Score>
-9.290

$$$$
