/Users/jonathanwahrer/Desktop/Msc/3_Semester/Drug_Design_Praktikum/waehrer_HTS_screening/HTS_experiment/out/docking_results/vina_output/3npc/1466_docked.pdbqt
 OpenBabel03192220283D

 29 32  0  0  0  0  0  0  0  0999 V2000
   55.8350   95.9590   25.5860 N   0  0  0  0  0  0  0  0  0  0  0  0
   56.4700   97.1040   25.7710 N   0  0  0  0  0  0  0  0  0  0  0  0
   55.7330   97.9320   26.4980 N   0  0  0  0  0  0  0  0  0  0  0  0
   54.5730   97.3340   26.8110 C   0  0  0  0  0  0  0  0  0  0  0  0
   54.6460   96.0890   26.2320 C   0  0  0  0  0  3  0  0  0  0  0  0
   56.2910   94.7780   24.8440 C   0  0  0  0  0  2  0  0  0  0  0  0
   55.0490   93.9700   24.5400 C   0  0  0  0  0  2  0  0  0  0  0  0
   55.3660   92.8430   23.6770 N   0  0  0  0  0  0  0  0  0  0  0  0
   54.6900   92.7450   22.4310 C   0  0  0  0  0  0  0  0  0  0  0  0
   53.8360   93.6330   22.1040 O   0  0  0  0  0  0  0  0  0  0  0  0
   56.0650   92.1260   23.9570 H   0  0  0  0  0  0  0  0  0  0  0  0
   54.9300   91.6600   21.4910 C   0  0  0  0  0  0  0  0  0  0  0  0
   55.7140   90.6030   21.8550 C   0  0  0  0  0  3  0  0  0  0  0  0
   55.9950   89.5530   21.0600 N   0  0  0  0  0  0  0  0  0  0  0  0
   55.4720   89.5300   19.8120 C   0  0  0  0  0  3  0  0  0  0  0  0
   54.6730   90.5650   19.3820 C   0  0  0  0  0  0  0  0  0  0  0  0
   53.9560   90.4900   17.6130 Br  0  0  0  0  0  0  0  0  0  0  0  0
   54.3920   91.6450   20.2190 C   0  0  0  0  0  3  0  0  0  0  0  0
   53.4760   97.8780   27.5910 C   0  0  0  0  0  0  0  0  0  0  0  0
   52.5090   98.7090   27.1650 N   0  0  0  0  0  0  0  0  0  0  0  0
   51.6790   98.9860   28.1840 C   0  0  0  0  0  0  0  0  0  0  0  0
   52.1590   98.3070   29.2380 N   0  0  0  0  0  0  0  0  0  0  0  0
   53.2190   97.6640   28.8550 O   0  0  0  0  0  0  0  0  0  0  0  0
   50.4850   99.8570   28.1520 C   0  0  0  0  0  0  0  0  0  0  0  0
   50.5500  101.0850   27.5360 C   0  0  0  0  0  3  0  0  0  0  0  0
   49.4690  101.8870   27.5010 N   0  0  0  0  0  0  0  0  0  0  0  0
   48.2850  101.5490   28.0500 C   0  0  0  0  0  3  0  0  0  0  0  0
   48.2290  100.3130   28.6660 C   0  0  0  0  0  3  0  0  0  0  0  0
   49.3050   99.4660   28.7250 C   0  0  0  0  0  3  0  0  0  0  0  0
  1  2  1  0  0  0  0
  1  5  1  0  0  0  0
  2  3  2  0  0  0  0
  3  4  1  0  0  0  0
  4 19  1  0  0  0  0
  5  4  2  0  0  0  0
  6  1  1  0  0  0  0
  7  6  1  0  0  0  0
  8 11  1  0  0  0  0
  8  7  1  0  0  0  0
  9  8  1  0  0  0  0
 10  9  2  0  0  0  0
 12 13  1  0  0  0  0
 12  9  1  0  0  0  0
 14 13  2  0  0  0  0
 15 14  1  0  0  0  0
 16 15  2  0  0  0  0
 16 18  1  0  0  0  0
 17 16  1  0  0  0  0
 18 12  2  0  0  0  0
 19 23  1  0  0  0  0
 20 19  2  0  0  0  0
 20 21  1  0  0  0  0
 21 22  2  0  0  0  0
 23 22  1  0  0  0  0
 24 21  1  0  0  0  0
 24 29  1  0  0  0  0
 25 24  2  0  0  0  0
 26 25  1  0  0  0  0
 26 27  2  0  0  0  0
 27 28  1  0  0  0  0
 28 29  2  0  0  0  0
M  END
>  <Pose>
1

>  <Score>
-9.557

$$$$
