/Users/jonathanwahrer/Desktop/Msc/3_Semester/Drug_Design_Praktikum/waehrer_HTS_screening/HTS_experiment/out/docking_results/vina_output/3npc/1471_docked.pdbqt
 OpenBabel03192220283D

 31 34  0  0  0  0  0  0  0  0999 V2000
   53.4960   88.0670   19.7200 C   0  0  0  0  0  0  0  0  0  0  0  0
   54.2590   88.3120   20.8280 C   0  0  0  0  0  2  0  0  0  0  0  0
   55.1960   89.3050   20.9120 N   0  0  0  0  0  0  0  0  0  0  0  0
   55.3680   90.0740   19.8410 C   0  0  0  0  0  3  0  0  0  0  0  0
   54.6510   89.9060   18.6860 C   0  0  0  0  0  0  0  0  0  0  0  0
   53.6600   88.8480   18.6140 C   0  0  0  0  0  0  0  0  0  0  0  0
   53.1240   88.9230   17.3810 N   0  0  0  0  0  2  0  0  0  0  0  0
   53.6860   89.9110   16.7040 N   0  0  0  0  0  0  0  0  0  0  0  0
   54.6100   90.5290   17.4510 C   0  0  0  0  0  0  0  0  0  0  0  0
   55.3550   91.5130   17.1580 O   0  0  0  0  0  0  0  0  0  0  0  0
   53.4770   90.2180   15.7130 H   0  0  0  0  0  0  0  0  0  0  0  0
   52.5190   86.9890   19.7150 C   0  0  0  0  0  0  0  0  0  0  0  0
   52.8490   85.6730   20.1050 N   0  0  0  0  0  0  0  0  0  0  0  0
   51.9070   84.5860   20.1120 C   0  0  0  0  0  2  0  0  0  0  0  0
   54.1980   85.3890   20.5230 C   0  0  0  0  0  2  0  0  0  0  0  0
   52.5850   83.3720   19.5280 C   0  0  0  0  0  2  0  0  0  0  0  0
   53.7980   83.6840   18.8190 N   0  0  0  0  0  0  0  0  0  0  0  0
   54.8270   84.5650   19.3900 C   0  0  0  0  0  2  0  0  0  0  0  0
   51.3480   87.2890   19.3400 O   0  0  0  0  0  0  0  0  0  0  0  0
   54.0580   83.1570   17.5390 C   0  0  0  0  0  0  0  0  0  0  0  0
   54.5820   81.8950   17.3620 C   0  0  0  0  0  0  0  0  0  0  0  0
   54.9430   80.9000   18.7760 Cl  0  0  0  0  0  0  0  0  0  0  0  0
   54.8330   81.3920   16.1040 C   0  0  0  0  0  3  0  0  0  0  0  0
   54.5540   82.1610   15.0020 C   0  0  0  0  0  3  0  0  0  0  0  0
   54.0210   83.4480   15.1390 C   0  0  0  0  0  3  0  0  0  0  0  0
   53.7880   83.9060   16.4260 C   0  0  0  0  0  3  0  0  0  0  0  0
   55.9800   89.4540   22.1290 C   0  0  0  0  0  3  0  0  0  0  0  0
   55.5300   88.6760   23.2840 C   0  0  0  0  0  3  0  0  0  0  0  0
   55.9890   88.8940   24.6570 C   0  0  0  0  0  2  0  0  0  0  0  0
   56.7710   88.0100   25.2980 O   0  0  0  0  0  0  0  0  0  0  0  0
   57.9820   87.6440   24.8730 C   0  0  0  0  0  1  0  0  0  0  0  0
  1  2  1  0  0  0  0
  2  3  1  0  0  0  0
  3 27  1  0  0  0  0
  4  3  1  0  0  0  0
  5  4  2  0  0  0  0
  6  5  1  0  0  0  0
  6  1  2  0  0  0  0
  7  6  1  0  0  0  0
  8  7  1  0  0  0  0
  8  9  1  0  0  0  0
  9  5  1  0  0  0  0
 10  9  2  0  0  0  0
 11  8  1  0  0  0  0
 12  1  1  0  0  0  0
 12 13  1  0  0  0  0
 13 14  1  0  0  0  0
 13 15  1  0  0  0  0
 16 14  1  0  0  0  0
 17 18  1  0  0  0  0
 17 16  1  0  0  0  0
 18 15  1  0  0  0  0
 19 12  2  0  0  0  0
 20 17  1  0  0  0  0
 21 20  1  0  0  0  0
 21 22  1  0  0  0  0
 23 21  2  0  0  0  0
 24 25  2  0  0  0  0
 24 23  1  0  0  0  0
 25 26  1  0  0  0  0
 26 20  2  0  0  0  0
 27 28  2  0  0  0  0
 28 29  1  0  0  0  0
 29 30  1  0  0  0  0
 31 30  1  0  0  0  0
M  END
>  <Pose>
1

>  <Score>
-8.098

$$$$
