/Users/jonathanwahrer/Desktop/Msc/3_Semester/Drug_Design_Praktikum/waehrer_HTS_screening/HTS_experiment/out/docking_results/vina_output/3npc/1487_docked.pdbqt
 OpenBabel03192220303D

 29 32  0  0  1  0  0  0  0  0999 V2000
   52.3580   83.9860   18.3370 N   0  0  0  0  0  4  0  0  0  0  0  0
   52.5360   85.4160   18.3710 C   0  0  0  0  0  2  0  0  0  0  0  0
   52.3880   85.9470   19.7350 C   0  0  2  0  0  0  0  0  0  0  0  0
   52.0740   84.7840   20.5150 N   0  0  0  0  0  0  0  0  0  0  0  0
   51.4140   84.6160   21.7890 C   0  0  0  0  0  3  0  0  0  0  0  0
   52.2420   83.9660   22.8500 C   0  0  0  0  0  3  0  0  0  0  0  0
   53.5250   83.3740   22.3810 C   0  0  0  0  0  2  0  0  0  0  0  0
   53.2000   82.0610   21.6340 C   0  0  0  0  0  2  0  0  0  0  0  0
   52.9980   82.5000   20.1940 C   0  0  0  0  0  3  0  0  0  0  0  0
   52.5220   83.6380   19.7420 C   0  0  0  0  0  0  0  0  0  0  0  0
   51.4500   83.6320   18.0590 H   0  0  0  0  0  0  0  0  0  0  0  0
   51.2430   86.7890   19.7930 O   0  0  0  0  0  0  0  0  0  0  0  0
   51.4020   87.4020   20.5840 H   0  0  0  0  0  0  0  0  0  0  0  0
   53.4700   86.7450   20.2590 C   0  0  0  0  0  0  0  0  0  0  0  0
   54.5100   86.2190   21.0260 C   0  0  0  0  0  3  0  0  0  0  0  0
   55.5620   86.9860   21.5070 C   0  0  0  0  0  0  0  0  0  0  0  0
   55.5840   88.3490   21.2090 C   0  0  0  0  0  3  0  0  0  0  0  0
   54.5860   88.9040   20.4620 C   0  0  0  0  0  3  0  0  0  0  0  0
   53.5390   88.0940   19.9930 C   0  0  0  0  0  3  0  0  0  0  0  0
   56.5810   86.3860   22.2800 N   0  0  0  0  0  0  0  0  0  0  0  0
   56.3050   85.9180   23.4290 O   0  0  0  0  0  0  0  0  0  0  0  0
   57.8580   86.2790   21.8700 O   0  0  0  0  0  0  0  0  0  0  0  0
   53.3740   83.2610   17.6600 C   0  0  0  0  0  0  0  0  0  0  0  0
   53.1510   82.0410   17.0700 C   0  0  0  0  0  3  0  0  0  0  0  0
   54.1740   81.2850   16.5040 C   0  0  0  0  0  0  0  0  0  0  0  0
   53.8260   79.7450   15.7330 Cl  0  0  0  0  0  0  0  0  0  0  0  0
   55.4710   81.7560   16.5230 C   0  0  0  0  0  3  0  0  0  0  0  0
   55.7370   82.9660   17.1050 C   0  0  0  0  0  3  0  0  0  0  0  0
   54.7010   83.7060   17.6650 C   0  0  0  0  0  3  0  0  0  0  0  0
  1  2  1  0  0  0  0
  1 10  1  0  0  0  0
  2  3  1  0  0  0  0
  3 12  1  6  0  0  0
  3 14  1  0  0  0  0
  3  4  1  0  0  0  0
  4  5  1  0  0  0  0
  5  6  2  0  0  0  0
  7  6  1  0  0  0  0
  8  7  1  0  0  0  0
  9  8  1  0  0  0  0
 10  9  2  0  0  0  0
 10  4  1  0  0  0  0
 11  1  1  0  0  0  0
 12 13  1  0  0  0  0
 14 15  1  0  0  0  0
 15 16  2  0  0  0  0
 16 20  1  0  0  0  0
 17 16  1  0  0  0  0
 18 17  2  0  0  0  0
 19 14  2  0  0  0  0
 19 18  1  0  0  0  0
 20 21  2  0  0  0  0
 22 20  2  0  0  0  0
 23 29  1  0  0  0  0
 23  1  1  0  0  0  0
 24 23  2  0  0  0  0
 25 27  2  0  0  0  0
 25 24  1  0  0  0  0
 26 25  1  0  0  0  0
 27 28  1  0  0  0  0
 28 29  2  0  0  0  0
M  END
>  <Pose>
1

>  <Score>
-8.373

$$$$
