/Users/jonathanwahrer/Desktop/Msc/3_Semester/Drug_Design_Praktikum/waehrer_HTS_screening/HTS_experiment/out/docking_results/vina_output/3npc/1506_docked.pdbqt
 OpenBabel03192220303D

 32 35  0  0  1  0  0  0  0  0999 V2000
   49.6210   99.8710   27.6290 N   0  0  0  0  0  0  0  0  0  0  0  0
   50.5120   99.6150   28.7330 C   0  0  0  0  0  0  0  0  0  0  0  0
   50.9130  100.5670   29.4200 O   0  0  0  0  0  0  0  0  0  0  0  0
   49.3100   99.0420   27.1300 H   0  0  0  0  0  0  0  0  0  0  0  0
   50.9590   98.2410   29.0660 C   0  0  2  0  0  3  0  0  0  0  0  0
   52.4080   98.3120   29.4930 C   0  0  0  0  0  2  0  0  0  0  0  0
   53.2260   98.6020   28.2550 C   0  0  0  0  0  2  0  0  0  0  0  0
   53.1700   97.3830   27.4530 N   0  0  0  0  0  0  0  0  0  0  0  0
   51.9820   96.5980   27.4340 C   0  0  0  0  0  2  0  0  0  0  0  0
   50.7660   97.2660   27.9640 C   0  0  0  0  0  2  0  0  0  0  0  0
   54.3240   97.0330   26.7150 C   0  0  0  0  0  0  0  0  0  0  0  0
   55.3540   97.8790   26.5220 N   0  0  0  0  0  0  0  0  0  0  0  0
   56.4370   97.5690   25.8340 N   0  0  0  0  0  0  0  0  0  0  0  0
   57.5330   98.2610   25.5450 N   0  0  0  0  0  0  0  0  0  0  0  0
   56.6050   96.3700   25.2650 C   0  0  0  0  0  0  0  0  0  0  0  0
   58.3550   97.5420   24.8290 N   0  0  0  0  0  0  0  0  0  0  0  0
   57.8020   96.3620   24.6420 N   0  0  0  0  0  0  0  0  0  0  0  0
   55.5810   95.4550   25.4270 C   0  0  0  0  0  3  0  0  0  0  0  0
   54.4470   95.7770   26.1460 C   0  0  0  0  0  3  0  0  0  0  0  0
   49.2530  101.2120   27.3960 C   0  0  0  0  0  2  0  0  0  0  0  0
   48.3790  101.9540   28.3180 C   0  0  0  0  0  2  0  0  0  0  0  0
   48.9720  102.7210   29.3460 N   0  0  0  0  0  0  0  0  0  0  0  0
   48.4640  103.1980   30.5460 C   0  0  0  0  0  0  0  0  0  0  0  0
   47.2900  102.9680   30.9050 O   0  0  0  0  0  0  0  0  0  0  0  0
   50.0320  103.0200   29.1990 H   0  0  0  0  0  0  0  0  0  0  0  0
   49.2720  104.0110   31.4850 C   0  0  0  0  0  0  0  0  0  0  0  0
   50.3920  103.4640   32.0720 C   0  0  0  0  0  3  0  0  0  0  0  0
   51.1770  104.1830   32.9430 C   0  0  0  0  0  3  0  0  0  0  0  0
   50.8360  105.4910   33.2410 C   0  0  0  0  0  0  0  0  0  0  0  0
   51.8310  106.4180   34.3530 Cl  0  0  0  0  0  0  0  0  0  0  0  0
   49.7300  106.0660   32.6750 C   0  0  0  0  0  3  0  0  0  0  0  0
   48.9550  105.3070   31.7940 C   0  0  0  0  0  3  0  0  0  0  0  0
  1  2  1  0  0  0  0
  2  3  2  0  0  0  0
  4  1  1  0  0  0  0
  5  2  1  6  0  0  0
  5  6  1  0  0  0  0
  7  6  1  0  0  0  0
  8  7  1  0  0  0  0
  9  8  1  0  0  0  0
  9 10  1  0  0  0  0
 10  5  1  0  0  0  0
 11  8  1  0  0  0  0
 12 11  2  0  0  0  0
 13 12  1  0  0  0  0
 14 13  1  0  0  0  0
 15 18  1  0  0  0  0
 15 13  1  0  0  0  0
 16 14  2  0  0  0  0
 17 16  1  0  0  0  0
 17 15  2  0  0  0  0
 18 19  2  0  0  0  0
 19 11  1  0  0  0  0
 20  1  1  0  0  0  0
 20 21  1  0  0  0  0
 21 22  1  0  0  0  0
 22 23  1  0  0  0  0
 23 24  2  0  0  0  0
 23 26  1  0  0  0  0
 25 22  1  0  0  0  0
 26 32  2  0  0  0  0
 26 27  1  0  0  0  0
 27 28  2  0  0  0  0
 28 29  1  0  0  0  0
 29 30  1  0  0  0  0
 31 29  2  0  0  0  0
 32 31  1  0  0  0  0
M  END
>  <Pose>
1

>  <Score>
-9.654

$$$$
