/Users/jonathanwahrer/Desktop/Msc/3_Semester/Drug_Design_Praktikum/waehrer_HTS_screening/HTS_experiment/out/docking_results/vina_output/3npc/1521_docked.pdbqt
 OpenBabel03192220323D

 24 27  0  0  1  0  0  0  0  0999 V2000
   54.8730   93.9560   26.7680 Cl  0  0  0  0  0  0  0  0  0  0  0  0
   54.8610   95.7050   26.8690 C   0  0  0  0  0  0  0  0  0  0  0  0
   53.6710   96.3610   27.0690 C   0  0  0  0  0  0  0  0  0  0  0  0
   52.3940   95.9730   27.2200 N   0  0  0  0  0  0  0  0  0  0  0  0
   51.5740   97.0280   27.3920 C   0  0  0  0  0  0  0  0  0  0  0  0
   52.3890   98.1390   27.3450 C   0  0  0  0  0  0  0  0  0  0  0  0
   53.6930   97.7440   27.1440 C   0  0  0  0  0  0  0  0  0  0  0  0
   54.8960   98.4090   27.0190 C   0  0  0  0  0  3  0  0  0  0  0  0
   56.0980   97.7770   26.8190 C   0  0  0  0  0  3  0  0  0  0  0  0
   56.0710   96.3880   26.7430 C   0  0  0  0  0  3  0  0  0  0  0  0
   51.7050   99.4450   27.5160 C   0  0  0  0  0  2  0  0  0  0  0  0
   50.9120   99.2920   28.7140 N   0  0  0  0  0  0  0  0  0  0  0  0
   49.8450   98.3750   28.6070 C   0  0  0  0  0  2  0  0  0  0  0  0
   50.1330   97.2860   27.5990 C   0  0  0  0  0  2  0  0  0  0  0  0
   52.0300   94.9790   27.2120 H   0  0  0  0  0  0  0  0  0  0  0  0
   50.7260  100.4660   29.4550 C   0  0  0  0  0  2  0  0  0  0  0  0
   49.6170  101.3260   28.9310 C   0  0  1  0  0  0  0  0  0  0  0  0
   48.3320  100.5960   28.7490 C   0  0  0  0  0  2  0  0  0  0  0  0
   47.2920  101.2320   29.4810 N   0  0  0  0  0  0  0  0  0  0  0  0
   47.8330  102.3350   30.2060 C   0  0  0  0  0  3  0  0  0  0  0  0
   46.4640  101.5010   28.8980 H   0  0  0  0  0  0  0  0  0  0  0  0
   49.3030  102.3810   29.9570 C   0  0  0  0  0  3  0  0  0  0  0  0
   50.0110  102.0010   27.7680 O   0  0  0  0  0  0  0  0  0  0  0  0
   50.9970  102.1010   27.8330 H   0  0  0  0  0  0  0  0  0  0  0  0
  1  2  1  0  0  0  0
  2  3  1  0  0  0  0
  3  7  2  0  0  0  0
  3  4  1  0  0  0  0
  4  5  1  0  0  0  0
  5 14  1  0  0  0  0
  6  5  2  0  0  0  0
  6 11  1  0  0  0  0
  7  6  1  0  0  0  0
  8  7  1  0  0  0  0
  9  8  2  0  0  0  0
 10  9  1  0  0  0  0
 10  2  2  0  0  0  0
 11 12  1  0  0  0  0
 12 16  1  0  0  0  0
 13 12  1  0  0  0  0
 14 13  1  0  0  0  0
 15  4  1  0  0  0  0
 17 16  1  1  0  0  0
 17 22  1  0  0  0  0
 18 17  1  0  0  0  0
 18 19  1  0  0  0  0
 19 20  1  0  0  0  0
 21 19  1  0  0  0  0
 22 20  2  0  0  0  0
 23 24  1  0  0  0  0
 23 17  1  0  0  0  0
M  END
>  <Pose>
1

>  <Score>
-8.635

$$$$
