/Users/jonathanwahrer/Desktop/Msc/3_Semester/Drug_Design_Praktikum/waehrer_HTS_screening/HTS_experiment/out/docking_results/vina_output/3npc/1525_docked.pdbqt
 OpenBabel03192220323D

 26 29  0  0  1  0  0  0  0  0999 V2000
   50.6940   97.7810   28.4560 N   0  0  0  0  0  0  0  0  0  0  0  0
   50.5070   98.6880   29.5360 C   0  0  0  0  0  0  0  0  0  0  0  0
   51.4190   99.0040   30.3380 O   0  0  0  0  0  0  0  0  0  0  0  0
   49.1170   99.1240   29.4870 C   0  0  2  0  0  3  0  0  0  0  0  0
   48.4060   97.9320   28.8810 C   0  0  0  0  0  2  0  0  0  0  0  0
   49.4250   97.2360   28.0730 C   0  0  0  0  0  0  0  0  0  0  0  0
   49.2400   96.3360   27.2120 O   0  0  0  0  0  0  0  0  0  0  0  0
   48.8550  100.3270   28.8050 N   0  0  2  0  0  0  0  0  0  0  0  0
   49.9250  101.2160   28.5960 C   0  0  0  0  0  2  0  0  0  0  0  0
   49.8930  102.2870   29.6960 C   0  0  0  0  0  2  0  0  0  0  0  0
   48.5880  102.2940   30.3370 N   0  0  0  0  0  0  0  0  0  0  0  0
   47.3680  102.0360   29.5980 C   0  0  0  0  0  2  0  0  0  0  0  0
   47.5580  100.8300   28.7090 C   0  0  0  0  0  2  0  0  0  0  0  0
   48.4590  102.5390   31.7440 C   0  0  0  0  0  0  0  0  0  0  0  0
   49.4970  102.3350   32.5830 N   0  0  0  0  0  0  0  0  0  0  0  0
   49.3740  102.5830   33.9020 C   0  0  0  0  0  3  0  0  0  0  0  0
   48.1850  103.0570   34.4440 C   0  0  0  0  0  3  0  0  0  0  0  0
   47.1260  103.2650   33.5780 C   0  0  0  0  0  3  0  0  0  0  0  0
   47.3110  102.9990   32.2730 N   0  0  0  0  0  0  0  0  0  0  0  0
   51.9600   97.4890   27.8640 C   0  0  0  0  0  0  0  0  0  0  0  0
   52.2380   96.3000   27.2230 C   0  0  0  0  0  3  0  0  0  0  0  0
   53.4890   96.0630   26.6580 C   0  0  0  0  0  0  0  0  0  0  0  0
   53.8830   94.4260   25.7720 Br  0  0  0  0  0  0  0  0  0  0  0  0
   54.4820   97.0150   26.7270 C   0  0  0  0  0  3  0  0  0  0  0  0
   54.2260   98.2060   27.3620 C   0  0  0  0  0  3  0  0  0  0  0  0
   52.9900   98.4210   27.9100 C   0  0  0  0  0  3  0  0  0  0  0  0
  1  2  1  0  0  0  0
  2  3  2  0  0  0  0
  4  5  1  6  0  0  0
  4  2  1  0  0  0  0
  6  1  1  0  0  0  0
  6  5  1  0  0  0  0
  7  6  2  0  0  0  0
  8  9  1  1  0  0  0
  8  4  1  0  0  0  0
  9 10  1  0  0  0  0
 10 11  1  0  0  0  0
 11 14  1  0  0  0  0
 12 11  1  0  0  0  0
 13  8  1  0  0  0  0
 13 12  1  0  0  0  0
 14 19  1  0  0  0  0
 14 15  2  0  0  0  0
 15 16  1  0  0  0  0
 16 17  2  0  0  0  0
 18 17  1  0  0  0  0
 19 18  2  0  0  0  0
 20 26  1  0  0  0  0
 20  1  1  0  0  0  0
 21 20  2  0  0  0  0
 22 24  2  0  0  0  0
 22 21  1  0  0  0  0
 23 22  1  0  0  0  0
 24 25  1  0  0  0  0
 25 26  2  0  0  0  0
M  END
>  <Pose>
1

>  <Score>
-8.546

$$$$
