/Users/jonathanwahrer/Desktop/Msc/3_Semester/Drug_Design_Praktikum/waehrer_HTS_screening/HTS_experiment/out/docking_results/vina_output/3npc/1531_docked.pdbqt
 OpenBabel03192220323D

 27 30  0  0  0  0  0  0  0  0999 V2000
   54.1050   85.2030   21.3190 N   0  0  0  0  0  0  0  0  0  0  0  0
   52.9990   84.4090   21.4690 C   0  0  0  0  0  0  0  0  0  0  0  0
   52.8720   83.7230   20.3310 N   0  0  0  0  0  0  0  0  0  0  0  0
   53.8350   84.0260   19.4450 C   0  0  0  0  0  0  0  0  0  0  0  0
   54.6200   84.9720   20.0800 C   0  0  0  0  0  3  0  0  0  0  0  0
   51.7100   82.8430   20.3970 C   0  0  0  0  0  3  0  0  0  0  0  0
   51.0530   83.1540   21.7100 C   0  0  0  0  0  3  0  0  0  0  0  0
   51.9420   84.0820   22.4570 C   0  0  0  0  0  3  0  0  0  0  0  0
   54.6510   86.0780   22.3000 C   0  0  0  0  0  3  0  0  0  0  0  0
   54.8730   87.4780   22.0250 C   0  0  0  0  0  0  0  0  0  0  0  0
   55.3720   88.1580   23.0390 O   0  0  0  0  0  1  0  0  0  0  0  0
   54.6500   88.2710   20.8450 C   0  0  0  0  0  0  0  0  0  0  0  0
   55.4630   89.2460   20.3520 C   0  0  0  0  0  3  0  0  0  0  0  0
   55.1940   89.9860   19.1910 C   0  0  0  0  0  3  0  0  0  0  0  0
   54.0440   89.7400   18.4810 C   0  0  0  0  0  0  0  0  0  0  0  0
   53.1950   88.7620   18.9460 C   0  0  0  0  0  0  0  0  0  0  0  0
   53.7030   90.6600   17.0340 Cl  0  0  0  0  0  0  0  0  0  0  0  0
   51.7320   88.4340   18.0570 Cl  0  0  0  0  0  0  0  0  0  0  0  0
   53.4810   88.0610   20.0710 C   0  0  0  0  0  3  0  0  0  0  0  0
   54.0530   83.5050   18.0960 C   0  0  0  0  0  0  0  0  0  0  0  0
   53.8990   84.2310   16.9430 C   0  0  0  0  0  3  0  0  0  0  0  0
   54.1280   83.6600   15.6830 C   0  0  0  0  0  3  0  0  0  0  0  0
   54.5180   82.3480   15.5390 C   0  0  0  0  0  0  0  0  0  0  0  0
   54.6750   81.6090   16.6920 C   0  0  0  0  0  3  0  0  0  0  0  0
   54.4490   82.1730   17.9300 C   0  0  0  0  0  3  0  0  0  0  0  0
   54.7490   81.7700   14.2980 O   0  0  0  0  0  0  0  0  0  0  0  0
   55.0650   80.3930   14.1950 C   0  0  0  0  0  1  0  0  0  0  0  0
  1  2  1  0  0  0  0
  1  9  1  0  0  0  0
  2  8  2  0  0  0  0
  3  6  1  0  0  0  0
  3  2  1  0  0  0  0
  4  5  2  0  0  0  0
  4  3  1  0  0  0  0
  5  1  1  0  0  0  0
  6  7  2  0  0  0  0
  7  8  1  0  0  0  0
 10  9  2  0  0  0  0
 10 11  1  0  0  0  0
 12 10  1  0  0  0  0
 13 12  1  0  0  0  0
 14 13  2  0  0  0  0
 15 16  2  0  0  0  0
 15 14  1  0  0  0  0
 16 19  1  0  0  0  0
 17 15  1  0  0  0  0
 18 16  1  0  0  0  0
 19 12  2  0  0  0  0
 20  4  1  0  0  0  0
 21 20  2  0  0  0  0
 22 21  1  0  0  0  0
 23 22  2  0  0  0  0
 23 24  1  0  0  0  0
 24 25  2  0  0  0  0
 25 20  1  0  0  0  0
 26 23  1  0  0  0  0
 27 26  1  0  0  0  0
M  END
>  <Pose>
1

>  <Score>
-8.363

$$$$
