/Users/jonathanwahrer/Desktop/Msc/3_Semester/Drug_Design_Praktikum/waehrer_HTS_screening/HTS_experiment/out/docking_results/vina_output/3npc/1536_docked.pdbqt
 OpenBabel03192220333D

 31 34  0  0  1  0  0  0  0  0999 V2000
   52.2280   98.9310   28.3600 S   0  0  0  0  0  0  0  0  0  0  0  0
   52.1180   98.2790   29.7420 O   0  0  0  0  0  0  0  0  0  0  0  0
   52.8870  100.2790   28.6640 O   0  0  0  0  0  0  0  0  0  0  0  0
   50.7010   99.1760   27.7770 N   0  0  0  0  0  0  0  0  0  0  0  0
   50.3330  100.2330   26.9530 C   0  0  0  0  0  2  0  0  0  0  0  0
   49.8100  101.4610   27.6260 C   0  0  0  0  0  2  0  0  0  0  0  0
   49.2810  101.0830   29.0080 C   0  0  2  0  0  3  0  0  0  0  0  0
   48.5390   99.7600   28.7590 C   0  0  0  0  0  2  0  0  0  0  0  0
   49.6320   98.7090   28.6510 C   0  0  0  0  0  2  0  0  0  0  0  0
   48.4050  102.1020   29.5610 C   0  0  0  0  0  0  0  0  0  0  0  0
   47.3100  102.3540   28.9940 O   0  0  0  0  0  0  0  0  0  0  0  0
   48.7450  102.8140   30.7150 N   0  0  0  0  0  0  0  0  0  0  0  0
   47.8670  103.8200   31.3220 C   0  0  0  0  0  2  0  0  0  0  0  0
   50.0070  102.6110   31.3710 C   0  0  0  0  0  2  0  0  0  0  0  0
   48.6780  104.4930   32.4090 C   0  0  0  0  0  2  0  0  0  0  0  0
   49.0500  103.5320   33.4290 N   0  0  0  0  0  0  0  0  0  0  0  0
   49.8430  102.4510   32.8720 C   0  0  0  0  0  2  0  0  0  0  0  0
   49.7540  104.1750   34.5180 C   0  0  0  0  0  1  0  0  0  0  0  0
   53.3200   97.9230   27.4550 C   0  0  0  0  0  0  0  0  0  0  0  0
   54.6250   98.3800   27.2040 C   0  0  0  0  0  3  0  0  0  0  0  0
   55.5260   97.6660   26.4580 C   0  0  0  0  0  0  0  0  0  0  0  0
   55.1610   96.4650   25.9310 C   0  0  0  0  0  0  0  0  0  0  0  0
   56.8180   98.1540   26.2280 O   0  0  0  0  0  0  0  0  0  0  0  0
   53.9010   95.9670   26.1440 C   0  0  0  0  0  3  0  0  0  0  0  0
   56.1180   95.7320   25.1460 N   0  0  0  0  0  0  0  0  0  0  0  0
   53.0030   96.7140   26.9090 C   0  0  0  0  0  0  0  0  0  0  0  0
   51.4310   95.9940   27.2150 Cl  0  0  0  0  0  0  0  0  0  0  0  0
   57.4110   96.2720   24.9390 C   0  0  0  0  0  0  0  0  0  0  0  0
   55.8480   94.8140   24.7410 H   0  0  0  0  0  0  0  0  0  0  0  0
   58.3780   95.5530   24.6100 O   0  0  0  0  0  0  0  0  0  0  0  0
   57.5800   97.7370   25.1270 C   0  0  0  0  0  2  0  0  0  0  0  0
  1  3  2  0  0  0  0
  1  2  2  0  0  0  0
  4  1  1  0  0  0  0
  4  9  1  0  0  0  0
  5  6  1  0  0  0  0
  5  4  1  0  0  0  0
  6  7  1  0  0  0  0
  7 10  1  6  0  0  0
  8  7  1  0  0  0  0
  9  8  1  0  0  0  0
 10 12  1  0  0  0  0
 11 10  2  0  0  0  0
 12 13  1  0  0  0  0
 12 14  1  0  0  0  0
 13 15  1  0  0  0  0
 14 17  1  0  0  0  0
 15 16  1  0  0  0  0
 16 18  1  0  0  0  0
 17 16  1  0  0  0  0
 19  1  1  0  0  0  0
 20 19  1  0  0  0  0
 21 20  2  0  0  0  0
 22 24  2  0  0  0  0
 22 21  1  0  0  0  0
 23 21  1  0  0  0  0
 24 26  1  0  0  0  0
 25 22  1  0  0  0  0
 26 27  1  0  0  0  0
 26 19  2  0  0  0  0
 28 31  1  0  0  0  0
 28 25  1  0  0  0  0
 29 25  1  0  0  0  0
 30 28  2  0  0  0  0
 31 23  1  0  0  0  0
M  END
>  <Pose>
1

>  <Score>
-9.272

$$$$
