/Users/jonathanwahrer/Desktop/Msc/3_Semester/Drug_Design_Praktikum/waehrer_HTS_screening/HTS_experiment/out/docking_results/vina_output/3npc/1539_docked.pdbqt
 OpenBabel03192220333D

 34 37  0  0  1  0  0  0  0  0999 V2000
   52.1290   84.5450   19.7350 C   0  0  2  0  0  3  0  0  0  0  0  0
   52.4530   85.9710   19.5980 N   0  0  0  0  0  0  0  0  0  0  0  0
   53.6020   86.1650   20.4090 C   0  0  0  0  0  0  0  0  0  0  0  0
   54.4840   87.0260   20.2560 O   0  0  0  0  0  0  0  0  0  0  0  0
   53.5390   85.1520   21.4570 C   0  0  0  0  0  0  0  0  0  0  0  0
   54.3290   84.9120   22.4180 O   0  0  0  0  0  0  0  0  0  0  0  0
   52.3110   84.3820   21.2070 C   0  0  0  0  0  0  0  0  0  0  0  0
   51.6080   83.7090   22.0970 C   0  0  0  0  0  0  0  0  0  0  0  0
   50.4870   83.0000   21.6580 O   0  0  0  0  0  1  0  0  0  0  0  0
   53.1830   83.8170   18.9870 C   0  0  0  0  0  0  0  0  0  0  0  0
   53.7480   82.6590   19.4780 C   0  0  0  0  0  3  0  0  0  0  0  0
   54.7290   81.9630   18.8030 C   0  0  0  0  0  3  0  0  0  0  0  0
   55.1920   82.4110   17.5790 C   0  0  0  0  0  0  0  0  0  0  0  0
   56.4440   81.5350   16.7010 Cl  0  0  0  0  0  0  0  0  0  0  0  0
   54.6420   83.5620   17.0720 C   0  0  0  0  0  3  0  0  0  0  0  0
   53.6640   84.2540   17.7470 C   0  0  0  0  0  3  0  0  0  0  0  0
   51.9430   83.6780   23.5130 C   0  0  0  0  0  0  0  0  0  0  0  0
   52.6670   82.6410   24.0770 C   0  0  0  0  0  3  0  0  0  0  0  0
   52.9600   82.6020   25.4250 C   0  0  0  0  0  0  0  0  0  0  0  0
   52.5320   83.6140   26.2730 C   0  0  0  0  0  0  0  0  0  0  0  0
   53.7370   81.4730   25.9840 C   0  0  0  0  0  1  0  0  0  0  0  0
   51.8110   84.6490   25.7240 C   0  0  0  0  0  3  0  0  0  0  0  0
   51.5210   84.6780   24.3570 C   0  0  0  0  0  3  0  0  0  0  0  0
   52.8200   83.5890   27.6350 O   0  0  0  0  0  0  0  0  0  0  0  0
   53.5880   84.6220   28.1860 C   0  0  0  0  0  1  0  0  0  0  0  0
   51.7400   86.9640   18.7940 C   0  0  0  0  0  2  0  0  0  0  0  0
   52.0240   88.3090   19.4210 C   0  0  0  0  0  2  0  0  0  0  0  0
   52.2000   89.3490   18.4430 N   0  0  0  0  0  4  0  0  0  0  0  0
   53.4570   89.2190   17.7790 C   0  0  0  0  0  2  0  0  0  0  0  0
   54.5710   90.0550   18.3140 C   0  0  0  0  0  2  0  0  0  0  0  0
   54.1970   91.2630   18.8380 O   0  0  0  0  0  0  0  0  0  0  0  0
   53.1890   91.1610   19.7880 C   0  0  0  0  0  2  0  0  0  0  0  0
   51.9770   90.6170   19.0790 C   0  0  0  0  0  2  0  0  0  0  0  0
   51.4430   89.1870   17.7200 H   0  0  0  0  0  0  0  0  0  0  0  0
  1 10  1  6  0  0  0
  1  7  1  0  0  0  0
  2  1  1  0  0  0  0
  2  3  1  0  0  0  0
  3  5  1  0  0  0  0
  4  3  2  0  0  0  0
  5  6  2  0  0  0  0
  7  5  1  0  0  0  0
  7  8  2  0  0  0  0
  8 17  1  0  0  0  0
  9  8  1  0  0  0  0
 10 11  1  0  0  0  0
 12 11  2  0  0  0  0
 13 12  1  0  0  0  0
 14 13  1  0  0  0  0
 15 13  2  0  0  0  0
 15 16  1  0  0  0  0
 16 10  2  0  0  0  0
 17 18  2  0  0  0  0
 17 23  1  0  0  0  0
 18 19  1  0  0  0  0
 19 21  1  0  0  0  0
 19 20  2  0  0  0  0
 20 24  1  0  0  0  0
 22 20  1  0  0  0  0
 23 22  2  0  0  0  0
 24 25  1  0  0  0  0
 26 27  1  0  0  0  0
 26  2  1  0  0  0  0
 28 33  1  0  0  0  0
 28 27  1  0  0  0  0
 29 30  1  0  0  0  0
 29 28  1  0  0  0  0
 30 31  1  0  0  0  0
 31 32  1  0  0  0  0
 33 32  1  0  0  0  0
 34 28  1  0  0  0  0
M  END
>  <Pose>
1

>  <Score>
-7.902

$$$$
