/Users/jonathanwahrer/Desktop/Msc/3_Semester/Drug_Design_Praktikum/waehrer_HTS_screening/HTS_experiment/out/docking_results/vina_output/3npc/1553_docked.pdbqt
 OpenBabel03192220333D

 29 32  0  0  1  0  0  0  0  0999 V2000
   56.3480   87.6400   21.7230 C   0  0  1  0  0  3  0  0  0  0  0  0
   57.0700   88.0140   22.8790 N   0  0  0  0  0  4  0  0  0  0  0  0
   56.8980   87.1970   24.0450 C   0  0  2  0  0  3  0  0  0  0  0  0
   55.3980   87.0920   24.3640 C   0  0  0  0  0  2  0  0  0  0  0  0
   54.8410   86.3700   23.2040 C   0  0  0  0  0  0  0  0  0  0  0  0
   53.8690   85.3860   23.1140 C   0  0  0  0  0  0  0  0  0  0  0  0
   53.7580   85.0690   21.7790 C   0  0  0  0  0  0  0  0  0  0  0  0
   54.6160   85.8160   21.0670 N   0  0  0  0  0  0  0  0  0  0  0  0
   55.2920   86.6260   21.9470 C   0  0  0  0  0  0  0  0  0  0  0  0
   52.8420   84.0960   21.4210 C   0  0  0  0  0  3  0  0  0  0  0  0
   52.0910   83.4970   22.4020 C   0  0  0  0  0  3  0  0  0  0  0  0
   52.2050   83.8150   23.7360 C   0  0  0  0  0  3  0  0  0  0  0  0
   53.1240   84.7930   24.1110 C   0  0  0  0  0  3  0  0  0  0  0  0
   58.1110   87.9840   22.6320 H   0  0  0  0  0  0  0  0  0  0  0  0
   56.9100   89.0060   23.1870 H   0  0  0  0  0  0  0  0  0  0  0  0
   54.7840   85.8250   20.0280 H   0  0  0  0  0  0  0  0  0  0  0  0
   55.6620   88.8570   21.1530 C   0  0  0  0  0  0  0  0  0  0  0  0
   55.5400   90.0310   21.8740 C   0  0  0  0  0  0  0  0  0  0  0  0
   54.9070   91.1470   21.3200 C   0  0  0  0  0  0  0  0  0  0  0  0
   54.7430   92.7610   22.3330 Br  0  0  0  0  0  0  0  0  0  0  0  0
   54.3910   91.1090   20.0530 C   0  0  0  0  0  3  0  0  0  0  0  0
   54.5110   89.9430   19.3330 C   0  0  0  0  0  0  0  0  0  0  0  0
   55.1390   88.8300   19.8760 C   0  0  0  0  0  3  0  0  0  0  0  0
   53.7960   89.8480   17.5480 Br  0  0  0  0  0  0  0  0  0  0  0  0
   56.0190   90.1790   23.1500 O   0  0  0  0  0  0  0  0  0  0  0  0
   56.9620   90.2250   23.4240 H   0  0  0  0  0  0  0  0  0  0  0  0
   57.6370   87.7840   25.1810 C   0  0  0  0  0  0  0  0  0  0  0  0
   57.2130   88.8500   25.6990 O   0  0  0  0  0  1  0  0  0  0  0  0
   58.7770   87.1550   25.6530 O   0  0  0  0  0  0  0  0  0  0  0  0
  1 17  1  1  0  0  0
  1  9  1  0  0  0  0
  1  2  1  0  0  0  0
  2 15  1  0  0  0  0
  2  3  1  0  0  0  0
  3  4  1  0  0  0  0
  3 27  1  1  0  0  0
  5  4  1  0  0  0  0
  6  5  1  0  0  0  0
  6 13  1  0  0  0  0
  7  6  2  0  0  0  0
  8  7  1  0  0  0  0
  8  9  1  0  0  0  0
  9  5  2  0  0  0  0
 10  7  1  0  0  0  0
 10 11  2  0  0  0  0
 11 12  1  0  0  0  0
 12 13  2  0  0  0  0
 14  2  1  0  0  0  0
 16  8  1  0  0  0  0
 17 18  1  0  0  0  0
 18 25  1  0  0  0  0
 19 18  2  0  0  0  0
 19 20  1  0  0  0  0
 21 19  1  0  0  0  0
 22 23  1  0  0  0  0
 22 21  2  0  0  0  0
 23 17  2  0  0  0  0
 24 22  1  0  0  0  0
 25 26  1  0  0  0  0
 27 29  2  0  0  0  0
 27 28  1  0  0  0  0
M  END
>  <Pose>
1

>  <Score>
-8.947

$$$$
