/Users/jonathanwahrer/Desktop/Msc/3_Semester/Drug_Design_Praktikum/waehrer_HTS_screening/HTS_experiment/out/docking_results/vina_output/3npc/1576_docked.pdbqt
 OpenBabel03192220343D

 30 33  0  0  0  0  0  0  0  0999 V2000
   55.3930   90.3570   20.0150 N   0  0  0  0  0  0  0  0  0  0  0  0
   54.8020   90.8840   21.2260 C   0  0  0  0  0  2  0  0  0  0  0  0
   55.5840   90.3420   22.4200 C   0  0  0  0  0  2  0  0  0  0  0  0
   55.9080   88.9430   22.1900 N   0  0  0  0  0  0  0  0  0  0  0  0
   56.6580   88.5960   21.0060 C   0  0  0  0  0  2  0  0  0  0  0  0
   56.7600   89.8280   20.1390 C   0  0  0  0  0  2  0  0  0  0  0  0
   55.5060   87.9240   23.0980 C   0  0  0  0  0  0  0  0  0  0  0  0
   54.8520   88.2660   24.1320 O   0  0  0  0  0  0  0  0  0  0  0  0
   55.8010   86.4980   22.9170 C   0  0  0  0  0  2  0  0  0  0  0  0
   54.8310   85.8070   22.0700 N   0  0  0  0  0  0  0  0  0  0  0  0
   54.7670   85.7390   20.7550 N   0  0  0  0  0  0  0  0  0  0  0  0
   53.7360   85.0100   20.3220 C   0  0  0  0  0  0  0  0  0  0  0  0
   53.0740   84.5670   21.4530 C   0  0  0  0  0  3  0  0  0  0  0  0
   53.7750   85.0760   22.5240 C   0  0  0  0  0  0  0  0  0  0  0  0
   53.4250   84.8560   23.9420 C   0  0  0  0  0  1  0  0  0  0  0  0
   53.3760   84.7320   18.9200 C   0  0  0  0  0  0  0  0  0  0  0  0
   52.6540   85.5290   18.2880 O   0  0  0  0  0  0  0  0  0  0  0  0
   53.8630   83.5540   18.3110 N   0  0  0  0  0  0  0  0  0  0  0  0
   54.6980   82.5940   18.9760 C   0  0  0  0  0  2  0  0  0  0  0  0
   53.5140   83.2670   16.9170 C   0  0  0  0  0  2  0  0  0  0  0  0
   54.8610   81.4180   18.0040 C   0  0  0  0  0  2  0  0  0  0  0  0
   53.6370   80.9560   17.5730 O   0  0  0  0  0  0  0  0  0  0  0  0
   52.8990   81.8840   16.8770 C   0  0  0  0  0  2  0  0  0  0  0  0
   54.7810   90.3080   18.7600 C   0  0  0  0  0  0  0  0  0  0  0  0
   53.6950   89.5190   18.4480 C   0  0  0  0  0  0  0  0  0  0  0  0
   53.0240   88.5040   19.6740 Cl  0  0  0  0  0  0  0  0  0  0  0  0
   53.1180   89.5010   17.1940 C   0  0  0  0  0  3  0  0  0  0  0  0
   53.6240   90.2870   16.2060 C   0  0  0  0  0  3  0  0  0  0  0  0
   54.7030   91.0880   16.4700 C   0  0  0  0  0  3  0  0  0  0  0  0
   55.2750   91.1000   17.7270 C   0  0  0  0  0  3  0  0  0  0  0  0
  1  6  1  0  0  0  0
  1  2  1  0  0  0  0
  2  3  1  0  0  0  0
  4  3  1  0  0  0  0
  4  7  1  0  0  0  0
  5  4  1  0  0  0  0
  6  5  1  0  0  0  0
  7  8  2  0  0  0  0
  9  7  1  0  0  0  0
 10 14  1  0  0  0  0
 10  9  1  0  0  0  0
 11 10  1  0  0  0  0
 12 11  2  0  0  0  0
 12 13  1  0  0  0  0
 13 14  2  0  0  0  0
 14 15  1  0  0  0  0
 16 12  1  0  0  0  0
 17 16  2  0  0  0  0
 18 16  1  0  0  0  0
 18 19  1  0  0  0  0
 20 18  1  0  0  0  0
 21 19  1  0  0  0  0
 22 21  1  0  0  0  0
 23 20  1  0  0  0  0
 23 22  1  0  0  0  0
 24  1  1  0  0  0  0
 25 24  1  0  0  0  0
 25 26  1  0  0  0  0
 27 25  2  0  0  0  0
 28 29  2  0  0  0  0
 28 27  1  0  0  0  0
 29 30  1  0  0  0  0
 30 24  2  0  0  0  0
M  END
>  <Pose>
1

>  <Score>
-9.072

$$$$
