/Users/jonathanwahrer/Desktop/Msc/3_Semester/Drug_Design_Praktikum/waehrer_HTS_screening/HTS_experiment/out/docking_results/vina_output/3npc/1581_docked.pdbqt
 OpenBabel03192220343D

 27 30  0  0  1  0  0  0  0  0999 V2000
   51.0050   98.2220   27.7380 N   0  0  0  0  0  0  0  0  0  0  0  0
   49.7670   97.6450   28.0580 C   0  0  0  0  0  2  0  0  0  0  0  0
   48.9510   98.3720   29.0750 C   0  0  0  0  0  2  0  0  0  0  0  0
   49.2260   99.8020   29.0790 N   0  0  0  0  0  0  0  0  0  0  0  0
   48.6130  100.7170   29.8270 N   0  0  0  0  0  0  0  0  0  0  0  0
   49.1300  101.9210   29.5610 C   0  0  0  0  0  0  0  0  0  0  0  0
   50.1020  101.7390   28.6100 C   0  0  0  0  0  3  0  0  0  0  0  0
   50.1590  100.3750   28.3030 C   0  0  0  0  0  0  0  0  0  0  0  0
   51.0000   99.5920   27.3640 C   0  0  0  0  0  2  0  0  0  0  0  0
   52.1590   97.7300   28.3660 C   0  0  0  0  0  2  0  0  0  0  0  0
   53.1880   97.1560   27.4890 C   0  0  0  0  0  0  0  0  0  0  0  0
   54.3730   97.7380   27.2310 N   0  0  0  0  0  0  0  0  0  0  0  0
   55.2920   97.1830   26.4200 C   0  0  0  0  0  0  0  0  0  0  0  0
   55.0960   96.0050   25.8060 N   0  0  0  0  0  0  0  0  0  0  0  0
   56.4840   97.8910   26.2350 C   0  0  0  0  0  3  0  0  0  0  0  0
   56.0280   95.4510   24.9900 C   0  0  0  0  0  3  0  0  0  0  0  0
   53.9250   95.3750   26.0270 C   0  0  0  0  0  0  0  0  0  0  0  0
   57.2030   96.1440   24.8040 C   0  0  0  0  0  0  0  0  0  0  0  0
   58.4140   95.4310   23.7480 Cl  0  0  0  0  0  0  0  0  0  0  0  0
   57.4470   97.3570   25.4150 C   0  0  0  0  0  3  0  0  0  0  0  0
   52.9850   95.9420   26.8560 C   0  0  0  0  0  3  0  0  0  0  0  0
   53.6960   94.2580   25.4670 O   0  0  0  0  0  0  0  0  0  0  0  0
   48.7190  103.2150   30.1890 C   0  0  1  0  0  3  0  0  0  0  0  0
   47.3480  103.3920   29.9440 O   0  0  0  0  0  0  0  0  0  0  0  0
   47.0760  102.9170   29.1060 H   0  0  0  0  0  0  0  0  0  0  0  0
   48.8610  103.1280   31.7060 C   0  0  0  0  0  2  0  0  0  0  0  0
   50.3350  103.2670   32.0570 C   0  0  0  0  0  1  0  0  0  0  0  0
  1  2  1  0  0  0  0
  1 10  1  0  0  0  0
  2  3  1  0  0  0  0
  3  4  1  0  0  0  0
  4  5  1  0  0  0  0
  6  5  2  0  0  0  0
  6 23  1  0  0  0  0
  7  6  1  0  0  0  0
  8  7  2  0  0  0  0
  8  4  1  0  0  0  0
  9  1  1  0  0  0  0
  9  8  1  0  0  0  0
 11 10  1  0  0  0  0
 12 11  1  0  0  0  0
 13 12  2  0  0  0  0
 14 17  1  0  0  0  0
 14 13  1  0  0  0  0
 15 13  1  0  0  0  0
 16 14  1  0  0  0  0
 17 21  1  0  0  0  0
 18 16  2  0  0  0  0
 18 20  1  0  0  0  0
 19 18  1  0  0  0  0
 20 15  2  0  0  0  0
 21 11  2  0  0  0  0
 22 17  2  0  0  0  0
 23 26  1  1  0  0  0
 24 23  1  0  0  0  0
 25 24  1  0  0  0  0
 26 27  1  0  0  0  0
M  END
>  <Pose>
1

>  <Score>
-9.002

$$$$
