/Users/jonathanwahrer/Desktop/Msc/3_Semester/Drug_Design_Praktikum/waehrer_HTS_screening/HTS_experiment/out/docking_results/vina_output/3npc/1586_docked.pdbqt
 OpenBabel03192220343D

 29 32  0  0  1  0  0  0  0  0999 V2000
   55.6060   89.4170   20.2020 C   0  0  0  0  0  0  0  0  0  0  0  0
   56.7720   89.9520   19.8750 O   0  0  0  0  0  0  0  0  0  0  0  0
   55.6700   88.2650   21.0030 N   0  0  0  0  0  0  0  0  0  0  0  0
   54.5440   87.5210   21.4430 C   0  0  0  0  0  2  0  0  0  0  0  0
   55.0350   86.2190   22.0990 C   0  0  1  0  0  3  0  0  0  0  0  0
   55.8920   86.6310   23.1800 N   0  0  0  0  0  0  0  0  0  0  0  0
   57.0500   87.3920   22.8460 C   0  0  0  0  0  2  0  0  0  0  0  0
   57.0130   87.8430   21.4010 C   0  0  0  0  0  2  0  0  0  0  0  0
   55.5910   86.2940   24.5100 C   0  0  0  0  0  0  0  0  0  0  0  0
   56.5030   86.3140   25.3570 O   0  0  0  0  0  0  0  0  0  0  0  0
   54.2030   85.9270   24.8570 C   0  0  1  0  0  3  0  0  0  0  0  0
   53.7600   84.9930   23.8650 N   0  0  0  0  0  0  0  0  0  0  0  0
   53.9360   85.3430   22.5040 C   0  0  0  0  0  0  0  0  0  0  0  0
   53.1550   84.9120   21.5990 O   0  0  0  0  0  0  0  0  0  0  0  0
   53.3150   84.0740   24.1120 H   0  0  0  0  0  0  0  0  0  0  0  0
   54.4960   90.1450   19.6520 C   0  0  0  0  0  0  0  0  0  0  0  0
   53.9350   91.3020   20.1320 C   0  0  0  0  0  3  0  0  0  0  0  0
   52.8300   91.9340   19.5590 C   0  0  0  0  0  3  0  0  0  0  0  0
   52.2500   91.3980   18.4560 C   0  0  0  0  0  0  0  0  0  0  0  0
   50.8470   92.1680   17.6990 Cl  0  0  0  0  0  0  0  0  0  0  0  0
   52.7630   90.2430   17.9250 C   0  0  0  0  0  3  0  0  0  0  0  0
   53.8560   89.6370   18.5090 C   0  0  0  0  0  3  0  0  0  0  0  0
   54.0250   85.4890   26.2610 C   0  0  0  0  0  2  0  0  0  0  0  0
   52.8110   84.6670   26.3840 C   0  0  0  0  0  0  0  0  0  0  0  0
   52.6470   83.3720   26.1020 N   0  0  0  0  0  0  0  0  0  0  0  0
   51.3550   83.0150   26.3640 C   0  0  0  0  0  3  0  0  0  0  0  0
   50.6980   84.0870   26.8110 N   0  0  0  0  0  0  0  0  0  0  0  0
   51.5640   85.1050   26.8320 C   0  0  0  0  0  3  0  0  0  0  0  0
   49.7140   84.1270   27.0880 H   0  0  0  0  0  0  0  0  0  0  0  0
  1  3  1  0  0  0  0
  2  1  2  0  0  0  0
  3  8  1  0  0  0  0
  3  4  1  0  0  0  0
  5  4  1  1  0  0  0
  5 13  1  0  0  0  0
  5  6  1  0  0  0  0
  6  9  1  0  0  0  0
  7  6  1  0  0  0  0
  8  7  1  0  0  0  0
  9 11  1  0  0  0  0
  9 10  2  0  0  0  0
 11 23  1  1  0  0  0
 12 15  1  0  0  0  0
 12 11  1  0  0  0  0
 13 12  1  0  0  0  0
 14 13  2  0  0  0  0
 16 17  1  0  0  0  0
 16  1  1  0  0  0  0
 18 17  2  0  0  0  0
 19 18  1  0  0  0  0
 20 19  1  0  0  0  0
 21 19  2  0  0  0  0
 21 22  1  0  0  0  0
 22 16  2  0  0  0  0
 23 24  1  0  0  0  0
 24 28  2  0  0  0  0
 25 26  2  0  0  0  0
 25 24  1  0  0  0  0
 26 27  1  0  0  0  0
 27 28  1  0  0  0  0
 27 29  1  0  0  0  0
M  END
>  <Pose>
1

>  <Score>
-8.938

$$$$
