/Users/jonathanwahrer/Desktop/Msc/3_Semester/Drug_Design_Praktikum/waehrer_HTS_screening/HTS_experiment/out/docking_results/vina_output/3npc/1591_docked.pdbqt
 OpenBabel03192220353D

 26 29  0  0  0  0  0  0  0  0999 V2000
   54.6010   86.3120   22.0090 Cl  0  0  0  0  0  0  0  0  0  0  0  0
   53.6950   86.6640   20.5540 C   0  0  0  0  0  0  0  0  0  0  0  0
   52.8160   85.7470   20.0510 C   0  0  0  0  0  0  0  0  0  0  0  0
   52.1610   86.1310   18.8780 C   0  0  0  0  0  3  0  0  0  0  0  0
   52.4020   87.3250   18.3140 N   0  0  0  0  0  0  0  0  0  0  0  0
   53.2420   88.2210   18.7820 N   0  0  0  0  0  0  0  0  0  0  0  0
   53.8940   87.8950   19.9060 C   0  0  0  0  0  0  0  0  0  0  0  0
   54.7180   88.6860   20.4310 O   0  0  0  0  0  0  0  0  0  0  0  0
   52.5520   84.5000   20.6650 N   0  0  0  0  0  0  0  0  0  0  0  0
   51.3100   84.2130   21.3630 C   0  0  0  0  0  2  0  0  0  0  0  0
   51.5440   83.9420   22.8260 C   0  0  0  0  0  2  0  0  0  0  0  0
   52.7400   83.1400   22.9150 N   0  0  0  0  0  0  0  0  0  0  0  0
   53.1270   82.3760   21.7580 C   0  0  0  0  0  2  0  0  0  0  0  0
   53.5140   83.4040   20.6730 C   0  0  0  0  0  2  0  0  0  0  0  0
   53.5120   83.1030   24.1010 C   0  0  0  0  0  0  0  0  0  0  0  0
   54.4010   84.0390   24.5400 N   0  0  0  0  0  0  0  0  0  0  0  0
   54.9190   83.6450   25.6860 N   0  0  0  0  0  0  0  0  0  0  0  0
   54.3800   82.4720   25.9920 C   0  0  0  0  0  0  0  0  0  0  0  0
   53.5440   82.1690   25.0330 O   0  0  0  0  0  0  0  0  0  0  0  0
   54.6310   81.6030   27.1880 C   0  0  0  0  0  1  0  0  0  0  0  0
   53.4390   89.4660   18.1200 C   0  0  0  0  0  0  0  0  0  0  0  0
   52.8140   90.6300   18.5200 C   0  0  0  0  0  3  0  0  0  0  0  0
   53.0130   91.8310   17.8730 C   0  0  0  0  0  3  0  0  0  0  0  0
   53.8570   91.9110   16.7840 C   0  0  0  0  0  3  0  0  0  0  0  0
   54.4850   90.7510   16.3790 C   0  0  0  0  0  3  0  0  0  0  0  0
   54.2830   89.5500   17.0310 C   0  0  0  0  0  3  0  0  0  0  0  0
  2  1  1  0  0  0  0
  3  2  2  0  0  0  0
  3  9  1  0  0  0  0
  4  3  1  0  0  0  0
  5  6  1  0  0  0  0
  5  4  2  0  0  0  0
  6  7  1  0  0  0  0
  7  8  2  0  0  0  0
  7  2  1  0  0  0  0
  9 14  1  0  0  0  0
  9 10  1  0  0  0  0
 10 11  1  0  0  0  0
 11 12  1  0  0  0  0
 12 15  1  0  0  0  0
 13 12  1  0  0  0  0
 14 13  1  0  0  0  0
 15 16  2  0  0  0  0
 15 19  1  0  0  0  0
 16 17  1  0  0  0  0
 17 18  2  0  0  0  0
 18 20  1  0  0  0  0
 19 18  1  0  0  0  0
 21 22  1  0  0  0  0
 21  6  1  0  0  0  0
 23 22  2  0  0  0  0
 24 23  1  0  0  0  0
 25 24  2  0  0  0  0
 25 26  1  0  0  0  0
 26 21  2  0  0  0  0
M  END
>  <Pose>
1

>  <Score>
-7.985

$$$$
