/Users/jonathanwahrer/Desktop/Msc/3_Semester/Drug_Design_Praktikum/waehrer_HTS_screening/HTS_experiment/out/docking_results/vina_output/3npc/1594_docked.pdbqt
 OpenBabel03192220353D

 27 30  0  0  0  0  0  0  0  0999 V2000
   56.7730   87.2600   22.1270 C   0  0  0  0  0  0  0  0  0  0  0  0
   57.5660   86.4120   21.5740 O   0  0  0  0  0  0  0  0  0  0  0  0
   56.7140   87.2420   23.5070 N   0  0  0  0  0  0  0  0  0  0  0  0
   55.8860   88.1270   24.2900 C   0  0  0  0  0  2  0  0  0  0  0  0
   54.7610   87.3650   24.9580 C   0  0  0  0  0  2  0  0  0  0  0  0
   55.2610   86.0170   25.3920 C   0  0  0  0  0  0  0  0  0  0  0  0
   56.5020   85.5160   25.1090 C   0  0  0  0  0  0  0  0  0  0  0  0
   56.5360   84.2860   25.6830 N   0  0  0  0  0  0  0  0  0  0  0  0
   55.4010   84.0200   26.2890 N   0  0  0  0  0  0  0  0  0  0  0  0
   54.5660   85.0570   26.1440 C   0  0  0  0  0  0  0  0  0  0  0  0
   53.3780   85.1810   26.5850 O   0  0  0  0  0  0  0  0  0  0  0  0
   57.5060   86.2850   24.3190 C   0  0  0  0  0  2  0  0  0  0  0  0
   57.3820   83.6690   25.6220 H   0  0  0  0  0  0  0  0  0  0  0  0
   56.0280   88.1370   21.2410 C   0  0  0  0  0  0  0  0  0  0  0  0
   56.4700   89.1720   20.5260 N   0  0  0  0  0  0  0  0  0  0  0  0
   55.4460   89.7080   19.8420 C   0  0  0  0  0  0  0  0  0  0  0  0
   54.3350   89.0150   20.1190 N   0  0  0  0  0  0  0  0  0  0  0  0
   55.4520   90.8070   18.9660 C   0  0  0  0  0  3  0  0  0  0  0  0
   53.1580   89.3760   19.5370 C   0  0  0  0  0  3  0  0  0  0  0  0
   54.6520   88.0380   20.9780 C   0  0  0  0  0  3  0  0  0  0  0  0
   53.1350   90.4490   18.6750 C   0  0  0  0  0  0  0  0  0  0  0  0
   51.6420   90.9490   17.9030 Cl  0  0  0  0  0  0  0  0  0  0  0  0
   54.2780   91.1710   18.3820 C   0  0  0  0  0  3  0  0  0  0  0  0
   55.0370   82.8010   27.0250 C   0  0  0  0  0  2  0  0  0  0  0  0
   54.9490   81.6160   26.0910 C   0  0  0  0  0  2  0  0  0  0  0  0
   56.0780   81.4920   25.2900 O   0  0  0  0  0  0  0  0  0  0  0  0
   56.0530   82.1150   24.5040 H   0  0  0  0  0  0  0  0  0  0  0  0
  1  3  1  0  0  0  0
  2  1  2  0  0  0  0
  3  4  1  0  0  0  0
  3 12  1  0  0  0  0
  4  5  1  0  0  0  0
  5  6  1  0  0  0  0
  6 10  1  0  0  0  0
  7  6  2  0  0  0  0
  7  8  1  0  0  0  0
  8  9  1  0  0  0  0
  9 24  1  0  0  0  0
 10  9  1  0  0  0  0
 10 11  2  0  0  0  0
 12  7  1  0  0  0  0
 13  8  1  0  0  0  0
 14  1  1  0  0  0  0
 15 14  1  0  0  0  0
 16 17  1  0  0  0  0
 16 15  2  0  0  0  0
 17 20  1  0  0  0  0
 18 16  1  0  0  0  0
 19 17  1  0  0  0  0
 20 14  2  0  0  0  0
 21 19  2  0  0  0  0
 22 21  1  0  0  0  0
 23 21  1  0  0  0  0
 23 18  2  0  0  0  0
 25 24  1  0  0  0  0
 26 25  1  0  0  0  0
 27 26  1  0  0  0  0
M  END
>  <Pose>
1

>  <Score>
-8.316

$$$$
