/Users/jonathanwahrer/Desktop/Msc/3_Semester/Drug_Design_Praktikum/waehrer_HTS_screening/HTS_experiment/out/docking_results/vina_output/3npc/1609_docked.pdbqt
 OpenBabel03192220353D

 26 29  0  0  1  0  0  0  0  0999 V2000
   51.0460  100.1360   28.1460 N   0  0  0  0  0  0  0  0  0  0  0  0
   49.9710  100.0470   29.0980 C   0  0  2  0  0  3  0  0  0  0  0  0
   48.7950  100.5260   28.2700 C   0  0  2  0  0  3  0  0  0  0  0  0
   49.3780  101.6370   27.6030 O   0  0  0  0  0  0  0  0  0  0  0  0
   50.6630  101.1750   27.2520 C   0  0  0  0  0  0  0  0  0  0  0  0
   51.3300  101.6500   26.2790 O   0  0  0  0  0  0  0  0  0  0  0  0
   47.8560  100.8880   29.3620 C   0  0  0  0  0  2  0  0  0  0  0  0
   48.7200  101.7470   30.2030 N   0  0  0  0  0  0  0  0  0  0  0  0
   50.0390  101.2020   30.1120 C   0  0  0  0  0  2  0  0  0  0  0  0
   48.1870  102.8440   30.8870 C   0  0  0  0  0  0  0  0  0  0  0  0
   46.9220  103.1190   30.7790 O   0  0  0  0  0  0  0  0  0  0  0  0
   52.2810   99.3950   28.0290 C   0  0  0  0  0  2  0  0  0  0  0  0
   52.0830   97.9110   27.8860 C   0  0  0  0  0  2  0  0  0  0  0  0
   53.2710   97.2410   27.3070 C   0  0  0  0  0  0  0  0  0  0  0  0
   54.4770   97.9260   27.1600 C   0  0  0  0  0  3  0  0  0  0  0  0
   55.5860   97.3160   26.6270 C   0  0  0  0  0  0  0  0  0  0  0  0
   57.0910   98.2260   26.4610 Cl  0  0  0  0  0  0  0  0  0  0  0  0
   55.5670   96.0030   26.2090 C   0  0  0  0  0  3  0  0  0  0  0  0
   54.3780   95.3200   26.3510 C   0  0  0  0  0  3  0  0  0  0  0  0
   53.2560   95.9260   26.8880 C   0  0  0  0  0  3  0  0  0  0  0  0
   48.9170  103.7590   31.7450 C   0  0  0  0  0  0  0  0  0  0  0  0
   49.3710  103.5150   33.0040 N   0  0  0  0  0  0  0  0  0  0  0  0
   49.9950  104.6020   33.4490 C   0  0  0  0  0  3  0  0  0  0  0  0
   49.1930  102.2760   33.7160 C   0  0  0  0  0  1  0  0  0  0  0  0
   49.9530  105.5430   32.5040 N   0  0  0  0  0  0  0  0  0  0  0  0
   49.2890  105.0350   31.4420 C   0  0  0  0  0  3  0  0  0  0  0  0
  1  2  1  0  0  0  0
  2  9  1  1  0  0  0
  3  2  1  0  0  0  0
  3  7  1  1  0  0  0
  4  3  1  0  0  0  0
  5  4  1  0  0  0  0
  5  1  1  0  0  0  0
  6  5  2  0  0  0  0
  7  8  1  0  0  0  0
  8 10  1  0  0  0  0
  9  8  1  0  0  0  0
 10 21  1  0  0  0  0
 11 10  2  0  0  0  0
 12  1  1  0  0  0  0
 13 12  1  0  0  0  0
 14 13  1  0  0  0  0
 15 14  1  0  0  0  0
 16 15  2  0  0  0  0
 17 16  1  0  0  0  0
 18 19  2  0  0  0  0
 18 16  1  0  0  0  0
 19 20  1  0  0  0  0
 20 14  2  0  0  0  0
 21 22  1  0  0  0  0
 22 23  1  0  0  0  0
 22 24  1  0  0  0  0
 25 23  2  0  0  0  0
 26 21  2  0  0  0  0
 26 25  1  0  0  0  0
M  END
>  <Pose>
1

>  <Score>
-9.349

$$$$
