/Users/jonathanwahrer/Desktop/Msc/3_Semester/Drug_Design_Praktikum/waehrer_HTS_screening/HTS_experiment/out/docking_results/vina_output/3npc/1612_docked.pdbqt
 OpenBabel03192220353D

 31 34  0  0  0  0  0  0  0  0999 V2000
   53.8080   83.9890   19.5910 N   0  0  0  0  0  0  0  0  0  0  0  0
   54.1670   83.0650   18.6760 C   0  0  0  0  0  0  0  0  0  0  0  0
   53.9140   83.6070   17.4380 C   0  0  0  0  0  0  0  0  0  0  0  0
   53.4200   84.8140   17.6320 N   0  0  0  0  0  0  0  0  0  0  0  0
   53.3470   85.0740   18.9610 C   0  0  0  0  0  0  0  0  0  0  0  0
   54.2010   82.8510   16.3410 N   0  0  0  0  0  0  0  0  0  0  0  0
   54.7140   81.6200   16.4490 C   0  0  0  0  0  0  0  0  0  0  0  0
   54.9640   80.9600   15.4020 O   0  0  0  0  0  0  0  0  0  0  0  0
   54.9760   81.0550   17.6350 N   0  0  0  0  0  0  0  0  0  0  0  0
   54.7010   81.7830   18.7430 C   0  0  0  0  0  0  0  0  0  0  0  0
   54.9450   81.2610   19.8530 O   0  0  0  0  0  0  0  0  0  0  0  0
   53.9440   83.4110   15.0160 C   0  0  0  0  0  1  0  0  0  0  0  0
   55.3770   80.0920   17.6740 H   0  0  0  0  0  0  0  0  0  0  0  0
   52.9180   86.3250   19.5190 N   0  0  0  0  0  0  0  0  0  0  0  0
   53.7430   86.9190   20.5910 C   0  0  0  0  0  2  0  0  0  0  0  0
   54.1870   88.3040   20.2470 C   0  0  0  0  0  2  0  0  0  0  0  0
   53.3040   88.9120   19.2790 N   0  0  0  0  0  0  0  0  0  0  0  0
   51.9050   88.5430   19.3310 C   0  0  0  0  0  2  0  0  0  0  0  0
   53.7970   89.8410   18.3240 C   0  0  0  0  0  0  0  0  0  0  0  0
   51.7650   87.0460   19.1160 C   0  0  0  0  0  2  0  0  0  0  0  0
   55.0070   90.1580   18.3170 O   0  0  0  0  0  0  0  0  0  0  0  0
   52.9030   90.4570   17.3150 C   0  0  0  0  0  2  0  0  0  0  0  0
   52.6580   91.9000   17.7500 C   0  0  0  0  0  1  0  0  0  0  0  0
   53.9780   83.7940   20.9950 C   0  0  0  0  0  2  0  0  0  0  0  0
   52.7370   83.5660   21.7740 C   0  0  0  0  0  0  0  0  0  0  0  0
   52.6220   83.9380   23.0830 C   0  0  0  0  0  3  0  0  0  0  0  0
   51.4420   83.6490   23.7560 C   0  0  0  0  0  0  0  0  0  0  0  0
   51.3240   84.1450   25.4440 Cl  0  0  0  0  0  0  0  0  0  0  0  0
   50.3760   83.0040   23.1690 C   0  0  0  0  0  3  0  0  0  0  0  0
   50.5090   82.6330   21.8420 C   0  0  0  0  0  3  0  0  0  0  0  0
   51.6580   82.9050   21.1550 C   0  0  0  0  0  3  0  0  0  0  0  0
  1 24  1  0  0  0  0
  2 10  1  0  0  0  0
  2  1  1  0  0  0  0
  3  4  1  0  0  0  0
  3  2  2  0  0  0  0
  4  5  2  0  0  0  0
  5 14  1  0  0  0  0
  5  1  1  0  0  0  0
  6  7  1  0  0  0  0
  6  3  1  0  0  0  0
  7  9  1  0  0  0  0
  8  7  2  0  0  0  0
  9 13  1  0  0  0  0
  9 10  1  0  0  0  0
 10 11  2  0  0  0  0
 12  6  1  0  0  0  0
 14 15  1  0  0  0  0
 16 15  1  0  0  0  0
 17 18  1  0  0  0  0
 17 16  1  0  0  0  0
 19 17  1  0  0  0  0
 20 18  1  0  0  0  0
 20 14  1  0  0  0  0
 21 19  2  0  0  0  0
 22 23  1  0  0  0  0
 22 19  1  0  0  0  0
 24 25  1  0  0  0  0
 25 26  1  0  0  0  0
 26 27  2  0  0  0  0
 27 28  1  0  0  0  0
 29 27  1  0  0  0  0
 30 29  2  0  0  0  0
 31 25  2  0  0  0  0
 31 30  1  0  0  0  0
M  END
>  <Pose>
1

>  <Score>
-8.305

$$$$
