/Users/jonathanwahrer/Desktop/Msc/3_Semester/Drug_Design_Praktikum/waehrer_HTS_screening/HTS_experiment/out/docking_results/vina_output/3npc/1624_docked.pdbqt
 OpenBabel03192220363D

 32 35  0  0  1  0  0  0  0  0999 V2000
   52.8730   84.8400   20.4710 C   0  0  1  0  0  3  0  0  0  0  0  0
   53.3460   84.8450   21.8680 N   0  0  0  0  0  0  0  0  0  0  0  0
   54.4230   85.7680   21.9680 C   0  0  0  0  0  0  0  0  0  0  0  0
   55.2960   85.8070   22.8370 O   0  0  0  0  0  0  0  0  0  0  0  0
   54.3110   86.6960   20.8260 C   0  0  0  0  0  0  0  0  0  0  0  0
   55.0750   87.6720   20.5340 O   0  0  0  0  0  0  0  0  0  0  0  0
   53.1370   86.2650   20.0850 C   0  0  0  0  0  0  0  0  0  0  0  0
   52.4910   87.0170   19.2290 C   0  0  0  0  0  0  0  0  0  0  0  0
   51.4080   86.4570   18.5570 O   0  0  0  0  0  1  0  0  0  0  0  0
   52.7300   84.0180   22.8730 C   0  0  0  0  0  2  0  0  0  0  0  0
   51.3300   84.3550   23.2200 C   0  0  0  0  0  2  0  0  0  0  0  0
   50.4410   83.3100   23.5720 N   0  0  0  0  0  4  0  0  0  0  0  0
   51.0730   82.2080   24.2660 C   0  0  0  0  0  2  0  0  0  0  0  0
   50.8540   80.8690   23.6030 C   0  0  0  0  0  2  0  0  0  0  0  0
   49.5530   80.5980   23.2680 O   0  0  0  0  0  0  0  0  0  0  0  0
   48.9170   81.6430   22.6240 C   0  0  0  0  0  2  0  0  0  0  0  0
   49.9130   82.7210   22.3240 C   0  0  0  0  0  2  0  0  0  0  0  0
   49.5950   83.6360   24.0670 H   0  0  0  0  0  0  0  0  0  0  0  0
   53.6510   83.8860   19.6920 C   0  0  0  0  0  0  0  0  0  0  0  0
   54.2180   84.1920   18.4960 C   0  0  0  0  0  3  0  0  0  0  0  0
   54.9660   83.2890   17.7540 C   0  0  0  0  0  3  0  0  0  0  0  0
   55.1510   82.0250   18.2320 C   0  0  0  0  0  0  0  0  0  0  0  0
   56.0790   80.8430   17.3510 Cl  0  0  0  0  0  0  0  0  0  0  0  0
   54.5800   81.6780   19.4580 C   0  0  0  0  0  3  0  0  0  0  0  0
   53.8420   82.5920   20.1760 C   0  0  0  0  0  3  0  0  0  0  0  0
   52.7970   88.4070   18.9070 C   0  0  0  0  0  0  0  0  0  0  0  0
   53.6190   88.6140   17.8060 C   0  0  0  0  0  3  0  0  0  0  0  0
   53.9280   89.8920   17.4310 C   0  0  0  0  0  3  0  0  0  0  0  0
   53.4390   90.9810   18.1250 C   0  0  0  0  0  0  0  0  0  0  0  0
   52.6240   90.7690   19.2170 C   0  0  0  0  0  3  0  0  0  0  0  0
   53.8580   92.5820   17.6120 Cl  0  0  0  0  0  0  0  0  0  0  0  0
   52.3190   89.4750   19.5860 C   0  0  0  0  0  3  0  0  0  0  0  0
  1 19  1  6  0  0  0
  1  2  1  0  0  0  0
  2  3  1  0  0  0  0
  2 10  1  0  0  0  0
  3  4  2  0  0  0  0
  5  3  1  0  0  0  0
  6  5  2  0  0  0  0
  7  1  1  0  0  0  0
  7  5  1  0  0  0  0
  8  7  2  0  0  0  0
  9  8  1  0  0  0  0
 10 11  1  0  0  0  0
 11 12  1  0  0  0  0
 12 18  1  0  0  0  0
 12 13  1  0  0  0  0
 14 13  1  0  0  0  0
 15 14  1  0  0  0  0
 16 15  1  0  0  0  0
 17 16  1  0  0  0  0
 17 12  1  0  0  0  0
 19 25  1  0  0  0  0
 20 19  2  0  0  0  0
 21 22  2  0  0  0  0
 21 20  1  0  0  0  0
 22 24  1  0  0  0  0
 23 22  1  0  0  0  0
 24 25  2  0  0  0  0
 26  8  1  0  0  0  0
 26 32  1  0  0  0  0
 27 26  2  0  0  0  0
 28 27  1  0  0  0  0
 28 29  2  0  0  0  0
 29 30  1  0  0  0  0
 30 32  2  0  0  0  0
 31 29  1  0  0  0  0
M  END
>  <Pose>
1

>  <Score>
-8.348

$$$$
