/Users/jonathanwahrer/Desktop/Msc/3_Semester/Drug_Design_Praktikum/waehrer_HTS_screening/HTS_experiment/out/docking_results/vina_output/3npc/1630_docked.pdbqt
 OpenBabel03192220363D

 39 43  0  0  1  0  0  0  0  0999 V2000
   50.9280   85.4700   32.3940 Cl  0  0  0  0  0  0  0  0  0  0  0  0
   51.3950   84.6000   30.9250 C   0  0  0  0  0  0  0  0  0  0  0  0
   52.0370   83.3890   31.0170 C   0  0  0  0  0  0  0  0  0  0  0  0
   52.4030   82.7040   29.8660 C   0  0  0  0  0  0  0  0  0  0  0  0
   52.1570   83.1720   28.6040 C   0  0  0  0  0  0  0  0  0  0  0  0
   51.4990   84.4100   28.5400 C   0  0  0  0  0  3  0  0  0  0  0  0
   51.1320   85.0980   29.6750 C   0  0  0  0  0  3  0  0  0  0  0  0
   52.6660   82.2240   27.6270 C   0  0  1  0  0  0  0  0  0  0  0  0
   51.5320   81.7280   26.8520 N   0  0  0  0  0  0  0  0  0  0  0  0
   51.6550   82.4330   25.6060 C   0  0  1  0  0  3  0  0  0  0  0  0
   53.1380   82.3300   25.3330 C   0  0  2  0  0  3  0  0  0  0  0  0
   53.6910   82.7420   26.6800 C   0  0  1  0  0  3  0  0  0  0  0  0
   53.8460   84.1800   26.5860 C   0  0  0  0  0  0  0  0  0  0  0  0
   54.0090   84.9790   27.5340 O   0  0  0  0  0  0  0  0  0  0  0  0
   53.7860   84.5660   25.2200 N   0  0  0  0  0  0  0  0  0  0  0  0
   53.6000   83.4010   24.4140 C   0  0  0  0  0  0  0  0  0  0  0  0
   53.7730   83.2420   23.1820 O   0  0  0  0  0  0  0  0  0  0  0  0
   53.2430   81.1180   28.4280 C   0  0  0  0  0  0  0  0  0  0  0  0
   53.7970   80.0600   28.0060 O   0  0  0  0  0  0  0  0  0  0  0  0
   53.0670   81.4490   29.7870 N   0  0  0  0  0  0  0  0  0  0  0  0
   52.3280   82.8370   32.3690 C   0  0  0  0  0  1  0  0  0  0  0  0
   50.6460   81.9110   27.3700 H   0  0  0  0  0  0  0  0  0  0  0  0
   53.3820   80.8500   30.5980 H   0  0  0  0  0  0  0  0  0  0  0  0
   50.8290   81.7840   24.5180 C   0  0  0  0  0  2  0  0  0  0  0  0
   50.0490   82.8920   23.8420 C   0  0  0  0  0  2  0  0  0  0  0  0
   50.4860   83.0960   22.4390 C   0  0  0  0  0  0  0  0  0  0  0  0
   50.4720   82.1190   21.6370 O   0  0  0  0  0  0  0  0  0  0  0  0
   50.9030   84.4030   22.0690 N   0  0  0  0  0  0  0  0  0  0  0  0
   50.4010   85.2100   22.4760 H   0  0  0  0  0  0  0  0  0  0  0  0
   51.7060   84.4740   21.3940 H   0  0  0  0  0  0  0  0  0  0  0  0
   53.8890   85.8940   24.6450 C   0  0  0  0  0  2  0  0  0  0  0  0
   55.2290   86.1580   24.0890 C   0  0  0  0  0  0  0  0  0  0  0  0
   55.3300   86.3950   22.7350 C   0  0  0  0  0  0  0  0  0  0  0  0
   56.5940   86.6420   22.2180 C   0  0  0  0  0  3  0  0  0  0  0  0
   57.7040   86.6530   23.0150 C   0  0  0  0  0  3  0  0  0  0  0  0
   57.5610   86.4130   24.3610 C   0  0  0  0  0  3  0  0  0  0  0  0
   56.3340   86.1600   24.9350 C   0  0  0  0  0  3  0  0  0  0  0  0
   54.1960   86.3790   21.9500 O   0  0  0  0  0  0  0  0  0  0  0  0
   54.0840   85.7310   20.7220 C   0  0  0  0  0  1  0  0  0  0  0  0
  2  3  1  0  0  0  0
  2  1  1  0  0  0  0
  3 21  1  0  0  0  0
  4  3  2  0  0  0  0
  5  4  1  0  0  0  0
  6  5  2  0  0  0  0
  6  7  1  0  0  0  0
  7  2  2  0  0  0  0
  8 18  1  1  0  0  0
  8  5  1  0  0  0  0
  9 22  1  0  0  0  0
  9  8  1  0  0  0  0
 10 24  1  6  0  0  0
 10  9  1  0  0  0  0
 11 16  1  6  0  0  0
 11 10  1  0  0  0  0
 11 12  1  0  0  0  0
 12 13  1  6  0  0  0
 12  8  1  0  0  0  0
 13 14  2  0  0  0  0
 15 13  1  0  0  0  0
 16 15  1  0  0  0  0
 17 16  2  0  0  0  0
 18 20  1  0  0  0  0
 19 18  2  0  0  0  0
 20  4  1  0  0  0  0
 20 23  1  0  0  0  0
 25 24  1  0  0  0  0
 26 25  1  0  0  0  0
 27 26  2  0  0  0  0
 28 26  1  0  0  0  0
 28 29  1  0  0  0  0
 30 28  1  0  0  0  0
 31 15  1  0  0  0  0
 32 31  1  0  0  0  0
 32 37  1  0  0  0  0
 33 32  2  0  0  0  0
 34 33  1  0  0  0  0
 34 35  2  0  0  0  0
 35 36  1  0  0  0  0
 36 37  2  0  0  0  0
 38 33  1  0  0  0  0
 39 38  1  0  0  0  0
M  END
>  <Pose>
1

>  <Score>
-7.279

$$$$
