/Users/jonathanwahrer/Desktop/Msc/3_Semester/Drug_Design_Praktikum/waehrer_HTS_screening/HTS_experiment/out/docking_results/vina_output/3npc/1637_docked.pdbqt
 OpenBabel03192220373D

 29 32  0  0  0  0  0  0  0  0999 V2000
   55.0840   83.3820   25.5170 C   0  0  0  0  0  0  0  0  0  0  0  0
   56.1820   84.1410   25.4300 N   0  0  0  0  0  0  0  0  0  0  0  0
   56.1720   85.4590   25.2490 C   0  0  0  0  0  0  0  0  0  0  0  0
   54.9170   86.0780   25.1330 C   0  0  0  0  0  0  0  0  0  0  0  0
   53.8130   85.3070   25.2210 C   0  0  0  0  0  0  0  0  0  0  0  0
   53.9020   83.9620   25.4160 N   0  0  0  0  0  0  0  0  0  0  0  0
   54.9600   87.5020   24.7930 C   0  0  0  0  0  2  0  0  0  0  0  0
   55.8360   87.6030   23.6670 N   0  0  0  0  0  0  0  0  0  0  0  0
   57.2200   87.5490   24.3150 C   0  0  0  0  0  2  0  0  0  0  0  0
   57.3820   86.3150   25.1320 C   0  0  0  0  0  2  0  0  0  0  0  0
   55.9300   86.4000   22.7630 C   0  0  0  0  0  2  0  0  0  0  0  0
   54.9470   86.8410   21.6750 C   0  0  0  0  0  0  0  0  0  0  0  0
   54.9340   88.0350   21.0660 C   0  0  0  0  0  0  0  0  0  0  0  0
   54.0030   88.4010   20.0570 C   0  0  0  0  0  0  0  0  0  0  0  0
   56.1580   89.1830   21.4900 Cl  0  0  0  0  0  0  0  0  0  0  0  0
   53.0830   87.4010   19.7300 C   0  0  0  0  0  0  0  0  0  0  0  0
   53.9510   89.5930   19.4180 C   0  0  0  0  0  3  0  0  0  0  0  0
   52.1640   87.6940   18.7660 C   0  0  0  0  0  3  0  0  0  0  0  0
   53.0950   86.2460   20.3010 O   0  0  0  0  0  0  0  0  0  0  0  0
   52.0880   88.9320   18.0900 C   0  0  0  0  0  3  0  0  0  0  0  0
   53.0390   89.9040   18.4490 C   0  0  0  0  0  3  0  0  0  0  0  0
   53.9840   85.9270   21.2550 C   0  0  0  0  0  0  0  0  0  0  0  0
   53.9760   84.7690   21.8260 O   0  0  0  0  0  0  0  0  0  0  0  0
   52.5710   85.9180   25.1200 O   0  0  0  0  0  0  0  0  0  0  0  0
   51.7910   85.5400   24.5720 H   0  0  0  0  0  0  0  0  0  0  0  0
   55.2840   81.6260   25.6580 S   0  0  0  0  0  0  0  0  0  0  0  0
   55.3040   81.1820   27.0350 O   0  0  0  0  0  0  0  0  0  0  0  0
   56.5540   81.2840   24.9390 O   0  0  0  0  0  0  0  0  0  0  0  0
   53.9200   80.9120   24.7070 C   0  0  0  0  0  1  0  0  0  0  0  0
  1 26  1  0  0  0  0
  2  1  2  0  0  0  0
  3  2  1  0  0  0  0
  4  5  1  0  0  0  0
  4  3  2  0  0  0  0
  5  6  2  0  0  0  0
  6  1  1  0  0  0  0
  7  4  1  0  0  0  0
  8  9  1  0  0  0  0
  8  7  1  0  0  0  0
  9 10  1  0  0  0  0
 10  3  1  0  0  0  0
 11  8  1  0  0  0  0
 12 11  1  0  0  0  0
 13 15  1  0  0  0  0
 13 12  2  0  0  0  0
 14 13  1  0  0  0  0
 16 14  1  0  0  0  0
 16 19  1  0  0  0  0
 17 14  2  0  0  0  0
 18 16  2  0  0  0  0
 19 22  1  0  0  0  0
 20 21  2  0  0  0  0
 20 18  1  0  0  0  0
 21 17  1  0  0  0  0
 22 12  1  0  0  0  0
 22 23  2  0  0  0  0
 24  5  1  0  0  0  0
 25 24  1  0  0  0  0
 26 27  2  0  0  0  0
 28 26  2  0  0  0  0
 29 26  1  0  0  0  0
M  END
>  <Pose>
1

>  <Score>
-8.643

$$$$
