/Users/jonathanwahrer/Desktop/Msc/3_Semester/Drug_Design_Praktikum/waehrer_HTS_screening/HTS_experiment/out/docking_results/vina_output/3npc/1638_docked.pdbqt
 OpenBabel03192220373D

 38 41  0  0  1  0  0  0  0  0999 V2000
   54.8980   87.7500   21.1490 C   0  0  0  0  0  0  0  0  0  0  0  0
   55.2990   86.7480   22.0220 C   0  0  0  0  0  0  0  0  0  0  0  0
   54.6130   85.5740   22.0610 N   0  0  0  0  0  0  0  0  0  0  0  0
   53.5480   85.3300   21.2840 C   0  0  0  0  0  0  0  0  0  0  0  0
   53.1550   86.2970   20.4370 N   0  0  0  0  0  0  0  0  0  0  0  0
   53.8000   87.4730   20.3620 C   0  0  0  0  0  3  0  0  0  0  0  0
   52.8330   84.0970   21.3230 N   0  0  0  0  0  0  0  0  0  0  0  0
   53.4360   82.8460   20.9350 C   0  0  0  0  0  2  0  0  0  0  0  0
   53.3520   81.7670   21.9790 C   0  0  0  0  0  2  0  0  0  0  0  0
   52.1860   81.9790   22.9310 C   0  0  2  0  0  0  0  0  0  0  0  0
   51.1080   82.6220   22.0410 C   0  0  0  0  0  2  0  0  0  0  0  0
   51.4480   84.0470   21.7570 C   0  0  0  0  0  2  0  0  0  0  0  0
   52.4440   82.8150   24.0030 N   0  0  0  0  0  0  0  0  0  0  0  0
   53.6620   82.7670   24.7140 C   0  0  0  0  0  2  0  0  0  0  0  0
   53.9620   84.1940   25.2020 C   0  0  0  0  0  2  0  0  0  0  0  0
   52.6580   84.9420   25.2730 C   0  0  0  0  0  2  0  0  0  0  0  0
   51.5300   84.0880   25.7940 C   0  0  0  0  0  2  0  0  0  0  0  0
   51.3900   82.8130   24.9800 C   0  0  0  0  0  2  0  0  0  0  0  0
   51.6570   80.6460   23.3000 C   0  0  0  0  0  0  0  0  0  0  0  0
   50.4110   80.3880   23.1950 O   0  0  0  0  0  0  0  0  0  0  0  0
   52.4590   79.6040   23.7780 N   0  0  0  0  0  0  0  0  0  0  0  0
   52.4170   79.3750   24.8080 H   0  0  0  0  0  0  0  0  0  0  0  0
   53.1030   79.0080   23.2200 H   0  0  0  0  0  0  0  0  0  0  0  0
   56.4170   87.0080   22.8350 N   0  0  0  0  0  0  0  0  0  0  0  0
   56.6600   86.4480   23.6780 H   0  0  0  0  0  0  0  0  0  0  0  0
   57.0460   87.8010   22.5910 H   0  0  0  0  0  0  0  0  0  0  0  0
   55.7510   89.2770   21.0610 S   0  0  0  0  0  0  0  0  0  0  0  0
   55.8560   89.9300   22.4000 O   0  0  0  0  0  0  0  0  0  0  0  0
   57.1060   89.0030   20.4600 O   0  0  0  0  0  0  0  0  0  0  0  0
   54.8680   90.3220   19.9370 C   0  0  0  0  0  0  0  0  0  0  0  0
   54.1980   91.4320   20.4080 C   0  0  0  0  0  0  0  0  0  0  0  0
   53.5240   92.2170   19.4960 C   0  0  0  0  0  3  0  0  0  0  0  0
   53.5110   91.9130   18.1390 C   0  0  0  0  0  3  0  0  0  0  0  0
   54.1930   90.7950   17.7080 C   0  0  0  0  0  0  0  0  0  0  0  0
   54.8760   89.9890   18.5960 C   0  0  0  0  0  3  0  0  0  0  0  0
   54.1860   90.3920   15.9850 Cl  0  0  0  0  0  0  0  0  0  0  0  0
   54.2330   91.7000   21.7480 O   0  0  0  0  0  0  0  0  0  0  0  0
   54.6180   92.9170   22.3240 C   0  0  0  0  0  1  0  0  0  0  0  0
  1  2  2  0  0  0  0
  2  3  1  0  0  0  0
  2 24  1  0  0  0  0
  4  7  1  0  0  0  0
  4  3  2  0  0  0  0
  5  4  1  0  0  0  0
  6  5  2  0  0  0  0
  6  1  1  0  0  0  0
  7 12  1  0  0  0  0
  8  7  1  0  0  0  0
  8  9  1  0  0  0  0
  9 10  1  0  0  0  0
 10 19  1  1  0  0  0
 10 13  1  0  0  0  0
 11 10  1  0  0  0  0
 12 11  1  0  0  0  0
 13 14  1  0  0  0  0
 13 18  1  0  0  0  0
 14 15  1  0  0  0  0
 15 16  1  0  0  0  0
 16 17  1  0  0  0  0
 18 17  1  0  0  0  0
 19 21  1  0  0  0  0
 20 19  2  0  0  0  0
 21 22  1  0  0  0  0
 23 21  1  0  0  0  0
 24 25  1  0  0  0  0
 26 24  1  0  0  0  0
 27  1  1  0  0  0  0
 27 28  2  0  0  0  0
 29 27  2  0  0  0  0
 30 31  1  0  0  0  0
 30 27  1  0  0  0  0
 31 37  1  0  0  0  0
 32 31  2  0  0  0  0
 33 32  1  0  0  0  0
 34 33  2  0  0  0  0
 34 35  1  0  0  0  0
 35 30  2  0  0  0  0
 36 34  1  0  0  0  0
 37 38  1  0  0  0  0
M  END
>  <Pose>
1

>  <Score>
-8.364

$$$$
