/Users/jonathanwahrer/Desktop/Msc/3_Semester/Drug_Design_Praktikum/waehrer_HTS_screening/HTS_experiment/out/docking_results/vina_output/3npc/1657_docked.pdbqt
 OpenBabel03192220383D

 33 36  0  0  1  0  0  0  0  0999 V2000
   56.7940   86.6070   22.4920 Cl  0  0  0  0  0  0  0  0  0  0  0  0
   55.4960   86.2860   23.6480 C   0  0  0  0  0  0  0  0  0  0  0  0
   54.4490   85.4580   23.3040 C   0  0  0  0  0  3  0  0  0  0  0  0
   53.4550   85.2120   24.1950 C   0  0  0  0  0  0  0  0  0  0  0  0
   53.4830   85.7970   25.4680 C   0  0  0  0  0  0  0  0  0  0  0  0
   54.5360   86.6190   25.7900 C   0  0  0  0  0  3  0  0  0  0  0  0
   55.5620   86.8810   24.8900 C   0  0  0  0  0  3  0  0  0  0  0  0
   52.4450   85.5430   26.4080 N   0  0  0  0  0  0  0  0  0  0  0  0
   51.6960   84.2990   26.3110 C   0  0  2  0  0  0  0  0  0  0  0  0
   51.3170   84.1590   24.9240 N   0  0  0  0  0  0  0  0  0  0  0  0
   52.3050   84.3520   23.9250 C   0  0  0  0  0  0  0  0  0  0  0  0
   52.2500   83.8120   22.7900 O   0  0  0  0  0  0  0  0  0  0  0  0
   50.4810   84.4100   27.1700 C   0  0  0  0  0  2  0  0  0  0  0  0
   50.7240   84.0150   28.6080 C   0  0  0  0  0  2  0  0  0  0  0  0
   51.9160   84.6350   29.1480 N   0  0  0  0  0  0  0  0  0  0  0  0
   53.2400   84.4070   28.6030 C   0  0  0  0  0  0  0  0  0  0  0  0
   54.1450   85.1230   29.0880 O   0  0  0  0  0  0  0  0  0  0  0  0
   53.6880   83.4640   27.5660 C   0  0  0  0  0  2  0  0  0  0  0  0
   52.5710   83.1040   26.6330 C   0  0  0  0  0  2  0  0  0  0  0  0
   52.2710   86.2730   27.1300 H   0  0  0  0  0  0  0  0  0  0  0  0
   50.3530   83.9230   24.6180 H   0  0  0  0  0  0  0  0  0  0  0  0
   51.8440   85.5240   30.2340 C   0  0  0  0  0  2  0  0  0  0  0  0
   51.6380   85.0720   31.5910 C   0  0  0  0  0  0  0  0  0  0  0  0
   51.6400   86.0970   32.4440 O   0  0  0  0  0  0  0  0  0  0  0  0
   51.4460   83.8090   32.1050 N   0  0  0  0  0  0  0  0  0  0  0  0
   51.2610   83.6620   33.5720 C   0  0  0  0  0  2  0  0  0  0  0  0
   51.3790   82.5940   31.3930 C   0  0  0  0  0  2  0  0  0  0  0  0
   50.0740   82.6940   33.7020 C   0  0  0  0  0  2  0  0  0  0  0  0
   49.2830   82.6780   32.5170 N   0  0  0  0  0  0  0  0  0  0  0  0
   49.9030   82.1060   31.3590 C   0  0  0  0  0  2  0  0  0  0  0  0
   47.9090   82.3460   32.6840 C   0  0  0  0  0  3  0  0  0  0  0  0
   47.1750   83.2550   33.6480 C   0  0  0  0  0  1  0  0  0  0  0  0
   47.1450   82.2800   31.3900 C   0  0  0  0  0  1  0  0  0  0  0  0
  1  2  1  0  0  0  0
  2  7  1  0  0  0  0
  3  2  2  0  0  0  0
  3  4  1  0  0  0  0
  4  5  2  0  0  0  0
  5  6  1  0  0  0  0
  5  8  1  0  0  0  0
  7  6  2  0  0  0  0
  8 20  1  0  0  0  0
  9  8  1  0  0  0  0
  9 19  1  1  0  0  0
  9 13  1  0  0  0  0
 10  9  1  0  0  0  0
 11  4  1  0  0  0  0
 11 10  1  0  0  0  0
 12 11  2  0  0  0  0
 13 14  1  0  0  0  0
 14 15  1  0  0  0  0
 15 22  1  0  0  0  0
 16 17  2  0  0  0  0
 16 15  1  0  0  0  0
 18 16  1  0  0  0  0
 19 18  1  0  0  0  0
 21 10  1  0  0  0  0
 22 23  1  0  0  0  0
 23 25  1  0  0  0  0
 23 24  2  0  0  0  0
 25 26  1  0  0  0  0
 26 28  1  0  0  0  0
 27 25  1  0  0  0  0
 29 31  1  0  0  0  0
 29 28  1  0  0  0  0
 30 27  1  0  0  0  0
 30 29  1  0  0  0  0
 31 32  1  0  0  0  0
 33 31  1  0  0  0  0
M  END
>  <Pose>
1

>  <Score>
-7.706

$$$$
