/Users/jonathanwahrer/Desktop/Msc/3_Semester/Drug_Design_Praktikum/waehrer_HTS_screening/HTS_experiment/out/docking_results/vina_output/3npc/1666_docked.pdbqt
 OpenBabel03192220383D

 30 34  0  0  1  0  0  0  0  0999 V2000
   49.4580  100.4450   27.8380 N   0  0  0  0  0  0  0  0  0  0  0  0
   50.7560  101.0350   27.6450 C   0  0  0  0  0  2  0  0  0  0  0  0
   51.8610  100.0150   27.7950 C   0  0  0  0  0  2  0  0  0  0  0  0
   51.7400   99.3250   29.1050 N   0  0  0  0  0  0  0  0  0  0  0  0
   50.4880   98.5820   29.0940 C   0  0  0  0  0  2  0  0  0  0  0  0
   49.5410   99.0250   27.9920 C   0  0  0  0  0  2  0  0  0  0  0  0
   52.8520   98.3990   29.1080 C   0  0  0  0  0  2  0  0  0  0  0  0
   53.8840   98.5590   28.0750 C   0  0  0  0  0  2  0  0  0  0  0  0
   54.1520   97.4930   27.1700 N   0  0  0  0  0  0  0  0  0  0  0  0
   53.2960   96.4900   26.6370 C   0  0  0  0  0  0  0  0  0  0  0  0
   52.2590   96.0730   27.1730 O   0  0  0  0  0  0  0  0  0  0  0  0
   53.8490   96.0290   25.3410 C   0  0  1  0  0  3  0  0  0  0  0  0
   55.3580   96.2560   25.5860 C   0  0  2  0  0  3  0  0  0  0  0  0
   53.8100   94.5450   25.2620 C   0  0  2  0  0  3  0  0  0  0  0  0
   55.9030   94.9310   25.9680 C   0  0  1  0  0  3  0  0  0  0  0  0
   55.4600   97.3110   26.5840 C   0  0  0  0  0  0  0  0  0  0  0  0
   54.6550   94.2090   26.5030 C   0  0  0  0  0  2  0  0  0  0  0  0
   56.0290   94.1380   24.6840 C   0  0  0  0  0  2  0  0  0  0  0  0
   54.7880   94.1420   24.1970 C   0  0  0  0  0  2  0  0  0  0  0  0
   56.5170   97.9320   26.8620 O   0  0  0  0  0  0  0  0  0  0  0  0
   48.3880  101.2790   28.8270 S   0  0  0  0  0  0  0  0  0  0  0  0
   47.4700  102.1030   27.9340 O   0  0  0  0  0  0  0  0  0  0  0  0
   47.4500  100.2530   29.4640 O   0  0  0  0  0  0  0  0  0  0  0  0
   49.0550  102.2190   30.1000 C   0  0  0  0  0  0  0  0  0  0  0  0
   49.8320  101.6370   31.0720 C   0  0  0  0  0  3  0  0  0  0  0  0
   50.3610  102.4270   32.0770 C   0  0  0  0  0  3  0  0  0  0  0  0
   50.1390  103.7900   32.1450 C   0  0  0  0  0  0  0  0  0  0  0  0
   49.3580  104.3700   31.1670 C   0  0  0  0  0  3  0  0  0  0  0  0
   50.8660  104.8800   33.5300 Br  0  0  0  0  0  0  0  0  0  0  0  0
   48.8270  103.5750   30.1570 C   0  0  0  0  0  3  0  0  0  0  0  0
  1  6  1  0  0  0  0
  1 21  1  0  0  0  0
  2  3  1  0  0  0  0
  2  1  1  0  0  0  0
  3  4  1  0  0  0  0
  4  7  1  0  0  0  0
  5  4  1  0  0  0  0
  6  5  1  0  0  0  0
  8  7  1  0  0  0  0
  9  8  1  0  0  0  0
 10  9  1  0  0  0  0
 10 11  2  0  0  0  0
 12 13  1  0  0  0  0
 12 10  1  1  0  0  0
 13 15  1  0  0  0  0
 13 16  1  1  0  0  0
 14 19  1  6  0  0  0
 14 12  1  0  0  0  0
 14 17  1  0  0  0  0
 15 18  1  6  0  0  0
 15 17  1  0  0  0  0
 16 20  2  0  0  0  0
 16  9  1  0  0  0  0
 19 18  1  0  0  0  0
 21 23  2  0  0  0  0
 21 24  1  0  0  0  0
 22 21  2  0  0  0  0
 24 30  2  0  0  0  0
 24 25  1  0  0  0  0
 25 26  2  0  0  0  0
 26 27  1  0  0  0  0
 27 29  1  0  0  0  0
 28 27  2  0  0  0  0
 30 28  1  0  0  0  0
M  END
>  <Pose>
1

>  <Score>
-9.140

$$$$
