/Users/jonathanwahrer/Desktop/Msc/3_Semester/Drug_Design_Praktikum/waehrer_HTS_screening/HTS_experiment/out/docking_results/vina_output/3npc/1676_docked.pdbqt
 OpenBabel03192220393D

 25 28  0  0  0  0  0  0  0  0999 V2000
   54.7170   92.7060   22.6950 C   0  0  0  0  0  0  0  0  0  0  0  0
   53.8530   93.5370   22.3570 O   0  0  0  0  0  0  0  0  0  0  0  0
   55.3590   92.8600   23.9500 N   0  0  0  0  0  0  0  0  0  0  0  0
   56.0780   92.1780   24.2430 H   0  0  0  0  0  0  0  0  0  0  0  0
   55.0280   91.6110   21.7830 C   0  0  0  0  0  0  0  0  0  0  0  0
   55.4990   90.4250   22.3190 C   0  0  0  0  0  0  0  0  0  0  0  0
   55.8000   89.3790   21.4810 C   0  0  0  0  0  0  0  0  0  0  0  0
   55.7550   90.0210   23.5920 N   0  0  0  0  0  0  0  0  0  0  0  0
   55.6270   89.5300   20.1240 C   0  0  0  0  0  3  0  0  0  0  0  0
   56.2310   88.3660   22.2710 N   0  0  0  0  0  0  0  0  0  0  0  0
   55.1590   90.7090   19.5850 C   0  0  0  0  0  0  0  0  0  0  0  0
   54.9290   90.8890   17.6960 Br  0  0  0  0  0  0  0  0  0  0  0  0
   54.8570   91.7560   20.4150 C   0  0  0  0  0  3  0  0  0  0  0  0
   56.1880   88.7930   23.5200 N   0  0  0  0  0  0  0  0  0  0  0  0
   55.6000   90.6540   24.4030 H   0  0  0  0  0  0  0  0  0  0  0  0
   55.0310   93.9540   24.8310 C   0  0  0  0  0  2  0  0  0  0  0  0
   56.1380   94.9720   24.7760 C   0  0  0  0  0  0  0  0  0  0  0  0
   56.1060   96.2270   25.2520 N   0  0  0  0  0  0  0  0  0  0  0  0
   57.2820   96.8520   25.0260 C   0  0  0  0  0  0  0  0  0  0  0  0
   55.0890   96.9970   25.9310 C   0  0  0  0  0  2  0  0  0  0  0  0
   58.0570   95.9610   24.3960 N   0  0  0  0  0  0  0  0  0  0  0  0
   57.3850   98.2580   25.5050 C   0  0  0  0  0  2  0  0  0  0  0  0
   57.3660   94.8210   24.2430 N   0  0  0  0  0  0  0  0  0  0  0  0
   57.0040   98.1910   26.9910 C   0  0  0  0  0  2  0  0  0  0  0  0
   55.6790   97.5390   27.2150 C   0  0  0  0  0  2  0  0  0  0  0  0
  1  3  1  0  0  0  0
  2  1  2  0  0  0  0
  3  4  1  0  0  0  0
  3 16  1  0  0  0  0
  5  6  1  0  0  0  0
  5  1  1  0  0  0  0
  6  8  1  0  0  0  0
  7 10  1  0  0  0  0
  7  6  2  0  0  0  0
  8 15  1  0  0  0  0
  9  7  1  0  0  0  0
 10 14  2  0  0  0  0
 11  9  2  0  0  0  0
 11 13  1  0  0  0  0
 12 11  1  0  0  0  0
 13  5  2  0  0  0  0
 14  8  1  0  0  0  0
 17 16  1  0  0  0  0
 17 18  1  0  0  0  0
 18 20  1  0  0  0  0
 19 18  1  0  0  0  0
 19 22  1  0  0  0  0
 20 25  1  0  0  0  0
 21 19  2  0  0  0  0
 22 24  1  0  0  0  0
 23 21  1  0  0  0  0
 23 17  2  0  0  0  0
 24 25  1  0  0  0  0
M  END
>  <Pose>
1

>  <Score>
-9.659

$$$$
