/Users/jonathanwahrer/Desktop/Msc/3_Semester/Drug_Design_Praktikum/waehrer_HTS_screening/HTS_experiment/out/docking_results/vina_output/3npc/1690_docked.pdbqt
 OpenBabel03192220403D

 34 37  0  0  1  0  0  0  0  0999 V2000
   53.6610   83.6810   20.6220 C   0  0  0  0  0  0  0  0  0  0  0  0
   54.5700   82.9180   20.2060 O   0  0  0  0  0  0  0  0  0  0  0  0
   52.7820   83.2690   21.6680 N   0  0  0  0  0  0  0  0  0  0  0  0
   51.7150   84.0900   22.1970 C   0  0  0  0  0  2  0  0  0  0  0  0
   51.5800   83.8810   23.7150 C   0  0  2  0  0  0  0  0  0  0  0  0
   52.9220   83.4520   24.2010 C   0  0  2  0  0  3  0  0  0  0  0  0
   53.1900   82.0370   23.7410 C   0  0  0  0  0  2  0  0  0  0  0  0
   52.9530   81.9540   22.2470 C   0  0  0  0  0  2  0  0  0  0  0  0
   50.4770   82.8920   23.9210 C   0  0  0  0  0  1  0  0  0  0  0  0
   53.4770   85.0210   20.0390 C   0  0  0  0  0  2  0  0  0  0  0  0
   54.2630   86.0250   20.8330 C   0  0  0  0  0  2  0  0  0  0  0  0
   53.9080   87.3870   20.3690 C   0  0  0  0  0  0  0  0  0  0  0  0
   52.7570   87.7090   19.7170 N   0  0  0  0  0  0  0  0  0  0  0  0
   52.7340   89.0150   19.4200 C   0  0  0  0  0  0  0  0  0  0  0  0
   52.0070   87.0000   19.4920 H   0  0  0  0  0  0  0  0  0  0  0  0
   51.8230   89.8230   18.7830 C   0  0  0  0  0  3  0  0  0  0  0  0
   53.9090   89.5390   19.9000 C   0  0  0  0  0  0  0  0  0  0  0  0
   52.0460   91.1760   18.5990 C   0  0  0  0  0  0  0  0  0  0  0  0
   50.8940   92.2140   17.7910 Cl  0  0  0  0  0  0  0  0  0  0  0  0
   53.2310   91.6980   19.0860 C   0  0  0  0  0  3  0  0  0  0  0  0
   54.1540   90.8840   19.7300 C   0  0  0  0  0  3  0  0  0  0  0  0
   54.5780   88.5270   20.4590 N   0  0  0  0  0  0  0  0  0  0  0  0
   51.2010   85.1320   24.2240 O   0  0  0  0  0  0  0  0  0  0  0  0
   50.4040   85.4670   23.7030 H   0  0  0  0  0  0  0  0  0  0  0  0
   53.1830   83.6570   25.5820 N   0  0  0  0  0  0  0  0  0  0  0  0
   52.7670   82.8260   26.5490 C   0  0  0  0  0  3  0  0  0  0  0  0
   53.0400   83.0590   27.8910 C   0  0  0  0  0  0  0  0  0  0  0  0
   53.7610   84.1770   28.2420 C   0  0  0  0  0  0  0  0  0  0  0  0
   52.5490   82.0900   28.9300 C   0  0  0  0  0  1  0  0  0  0  0  0
   54.0140   84.3940   29.4680 O   0  0  0  0  0  0  0  0  0  0  0  0
   54.1740   85.0060   27.2730 N   0  0  0  0  0  0  0  0  0  0  0  0
   53.8840   84.7360   25.9890 C   0  0  0  0  0  0  0  0  0  0  0  0
   54.7210   85.8560   27.5250 H   0  0  0  0  0  0  0  0  0  0  0  0
   54.2820   85.5310   25.0660 O   0  0  0  0  0  0  0  0  0  0  0  0
  1  3  1  0  0  0  0
  2  1  2  0  0  0  0
  3  4  1  0  0  0  0
  3  8  1  0  0  0  0
  4  5  1  0  0  0  0
  5  9  1  1  0  0  0
  5  6  1  0  0  0  0
  5 23  1  0  0  0  0
  6  7  1  1  0  0  0
  6 25  1  0  0  0  0
  8  7  1  0  0  0  0
 10  1  1  0  0  0  0
 10 11  1  0  0  0  0
 12 22  2  0  0  0  0
 12 11  1  0  0  0  0
 13 12  1  0  0  0  0
 14 13  1  0  0  0  0
 14 17  1  0  0  0  0
 15 13  1  0  0  0  0
 16 14  2  0  0  0  0
 17 22  1  0  0  0  0
 18 16  1  0  0  0  0
 18 20  2  0  0  0  0
 19 18  1  0  0  0  0
 20 21  1  0  0  0  0
 21 17  2  0  0  0  0
 24 23  1  0  0  0  0
 25 32  1  0  0  0  0
 25 26  1  0  0  0  0
 26 27  2  0  0  0  0
 27 28  1  0  0  0  0
 27 29  1  0  0  0  0
 28 30  2  0  0  0  0
 31 33  1  0  0  0  0
 31 28  1  0  0  0  0
 32 31  1  0  0  0  0
 34 32  2  0  0  0  0
M  END
>  <Pose>
1

>  <Score>
-9.001

$$$$
