/Users/jonathanwahrer/Desktop/Msc/3_Semester/Drug_Design_Praktikum/waehrer_HTS_screening/HTS_experiment/out/docking_results/vina_output/3npc/1699_docked.pdbqt
 OpenBabel03192220413D

 31 34  0  0  1  0  0  0  0  0999 V2000
   51.6690   87.5590   18.2190 Cl  0  0  0  0  0  0  0  0  0  0  0  0
   52.3080   86.0260   18.7160 C   0  0  0  0  0  0  0  0  0  0  0  0
   51.8080   85.3740   19.8330 C   0  0  0  0  0  3  0  0  0  0  0  0
   52.3070   84.1530   20.2410 C   0  0  0  0  0  0  0  0  0  0  0  0
   53.3170   83.5960   19.5080 C   0  0  0  0  0  0  0  0  0  0  0  0
   53.8480   84.2210   18.3750 C   0  0  0  0  0  3  0  0  0  0  0  0
   53.3270   85.4380   17.9970 C   0  0  0  0  0  3  0  0  0  0  0  0
   53.7080   82.3600   20.0910 N   0  0  0  0  0  0  0  0  0  0  0  0
   52.9040   82.1410   21.2410 C   0  0  0  0  0  0  0  0  0  0  0  0
   53.0690   81.1150   21.9770 O   0  0  0  0  0  0  0  0  0  0  0  0
   51.9670   83.2520   21.3400 C   0  0  2  0  0  0  0  0  0  0  0  0
   50.5730   82.8050   21.2680 N   0  0  0  0  0  0  0  0  0  0  0  0
   50.3900   82.2510   22.5900 C   0  0  1  0  0  3  0  0  0  0  0  0
   51.1040   83.1650   23.5320 C   0  0  2  0  0  3  0  0  0  0  0  0
   51.9650   83.9960   22.6290 C   0  0  1  0  0  3  0  0  0  0  0  0
   53.2960   84.1320   23.2700 C   0  0  0  0  0  0  0  0  0  0  0  0
   54.1800   84.8870   22.7870 O   0  0  0  0  0  0  0  0  0  0  0  0
   53.3090   83.2980   24.4170 N   0  0  0  0  0  0  0  0  0  0  0  0
   52.1460   82.4650   24.3500 C   0  0  0  0  0  0  0  0  0  0  0  0
   51.9780   81.3530   24.8620 O   0  0  0  0  0  0  0  0  0  0  0  0
   54.4660   81.7060   19.7330 H   0  0  0  0  0  0  0  0  0  0  0  0
   50.0060   83.6810   21.2100 H   0  0  0  0  0  0  0  0  0  0  0  0
   48.9360   82.0610   22.9390 C   0  0  2  0  0  3  0  0  0  0  0  0
   48.6980   82.0080   24.4260 C   0  0  0  0  0  1  0  0  0  0  0  0
   48.5080   80.8810   22.3430 O   0  0  0  0  0  0  0  0  0  0  0  0
   48.3720   80.1500   22.9980 H   0  0  0  0  0  0  0  0  0  0  0  0
   54.2800   83.2880   25.4440 C   0  0  0  0  0  2  0  0  0  0  0  0
   54.0860   84.1500   26.6300 C   0  0  0  0  0  2  0  0  0  0  0  0
   54.1170   85.6160   26.4330 C   0  0  0  0  0  2  0  0  0  0  0  0
   55.2780   86.1330   25.8790 O   0  0  0  0  0  0  0  0  0  0  0  0
   54.9400   87.3610   25.2590 C   0  0  0  0  0  1  0  0  0  0  0  0
  1  2  1  0  0  0  0
  2  3  1  0  0  0  0
  3  4  2  0  0  0  0
  5  8  1  0  0  0  0
  5  4  1  0  0  0  0
  6  5  2  0  0  0  0
  7  6  1  0  0  0  0
  7  2  2  0  0  0  0
  8  9  1  0  0  0  0
  9 11  1  0  0  0  0
  9 10  2  0  0  0  0
 11  4  1  6  0  0  0
 11 15  1  0  0  0  0
 12 11  1  0  0  0  0
 12 13  1  0  0  0  0
 13 23  1  1  0  0  0
 13 14  1  0  0  0  0
 14 19  1  1  0  0  0
 15 16  1  1  0  0  0
 15 14  1  0  0  0  0
 16 18  1  0  0  0  0
 17 16  2  0  0  0  0
 18 27  1  0  0  0  0
 19 18  1  0  0  0  0
 19 20  2  0  0  0  0
 21  8  1  0  0  0  0
 22 12  1  0  0  0  0
 23 24  1  1  0  0  0
 25 23  1  0  0  0  0
 25 26  1  0  0  0  0
 27 28  1  0  0  0  0
 29 28  1  0  0  0  0
 30 29  1  0  0  0  0
 31 30  1  0  0  0  0
M  END
>  <Pose>
1

>  <Score>
-6.911

$$$$
