/Users/jonathanwahrer/Desktop/Msc/3_Semester/Drug_Design_Praktikum/waehrer_HTS_screening/HTS_experiment/out/docking_results/vina_output/3npc/1718_docked.pdbqt
 OpenBabel03192220413D

 34 38  0  0  1  0  0  0  0  0999 V2000
   55.1100   89.4180   19.8390 Cl  0  0  0  0  0  0  0  0  0  0  0  0
   53.6930   88.4700   19.4490 C   0  0  0  0  0  0  0  0  0  0  0  0
   53.5750   87.2200   20.0580 C   0  0  0  0  0  0  0  0  0  0  0  0
   52.4730   86.4430   19.7760 C   0  0  0  0  0  0  0  0  0  0  0  0
   51.5230   86.9510   18.8880 C   0  0  0  0  0  3  0  0  0  0  0  0
   51.6480   88.1870   18.2910 C   0  0  0  0  0  3  0  0  0  0  0  0
   52.7510   88.9640   18.5740 C   0  0  0  0  0  3  0  0  0  0  0  0
   52.5310   85.1760   20.5040 C   0  0  1  0  0  0  0  0  0  0  0  0
   51.3700   84.9540   21.3460 N   0  0  0  0  0  0  0  0  0  0  0  0
   51.3240   83.5140   21.5600 C   0  0  2  0  0  3  0  0  0  0  0  0
   51.8510   82.8840   20.3010 C   0  0  1  0  0  3  0  0  0  0  0  0
   52.6180   83.9730   19.5920 C   0  0  2  0  0  3  0  0  0  0  0  0
   54.0120   83.4760   19.4720 C   0  0  0  0  0  0  0  0  0  0  0  0
   54.9420   84.2140   19.0410 O   0  0  0  0  0  0  0  0  0  0  0  0
   54.0730   82.1270   19.9030 N   0  0  0  0  0  0  0  0  0  0  0  0
   52.9070   81.8800   20.6730 C   0  0  0  0  0  0  0  0  0  0  0  0
   52.7160   80.9850   21.5440 O   0  0  0  0  0  0  0  0  0  0  0  0
   53.7810   85.2480   21.2780 C   0  0  0  0  0  0  0  0  0  0  0  0
   54.2550   84.3620   22.0780 O   0  0  0  0  0  0  0  0  0  0  0  0
   54.3820   86.4950   20.9780 N   0  0  0  0  0  0  0  0  0  0  0  0
   50.4920   85.3040   20.9010 H   0  0  0  0  0  0  0  0  0  0  0  0
   55.2960   86.8470   21.3720 H   0  0  0  0  0  0  0  0  0  0  0  0
   49.9080   83.1100   21.8520 C   0  0  0  0  0  2  0  0  0  0  0  0
   49.9690   81.9430   22.7880 C   0  0  0  0  0  0  0  0  0  0  0  0
   49.1520   81.0100   22.5780 O   0  0  0  0  0  0  0  0  0  0  0  0
   50.8920   81.8720   23.8630 N   0  0  0  0  0  0  0  0  0  0  0  0
   51.8880   81.6820   23.6390 H   0  0  0  0  0  0  0  0  0  0  0  0
   50.6350   81.9990   24.8610 H   0  0  0  0  0  0  0  0  0  0  0  0
   55.1040   81.1980   19.6130 C   0  0  0  0  0  2  0  0  0  0  0  0
   55.2200   80.7240   18.2190 C   0  0  2  0  0  3  0  0  0  0  0  0
   56.1500   81.3950   17.4410 O   0  0  0  0  0  0  0  0  0  0  0  0
   56.0940   80.6540   16.2600 C   0  0  0  0  0  2  0  0  0  0  0  0
   54.5960   80.4560   15.9940 C   0  0  0  0  0  2  0  0  0  0  0  0
   53.9970   80.7580   17.3780 C   0  0  0  0  0  2  0  0  0  0  0  0
  2  1  1  0  0  0  0
  2  3  1  0  0  0  0
  3 20  1  0  0  0  0
  4  3  2  0  0  0  0
  5  4  1  0  0  0  0
  6  7  1  0  0  0  0
  6  5  2  0  0  0  0
  7  2  2  0  0  0  0
  8  4  1  6  0  0  0
  8 18  1  0  0  0  0
  8  9  1  0  0  0  0
  9 10  1  0  0  0  0
 10 23  1  6  0  0  0
 11 16  1  1  0  0  0
 11 10  1  0  0  0  0
 12 13  1  1  0  0  0
 12 11  1  0  0  0  0
 12  8  1  0  0  0  0
 13 15  1  0  0  0  0
 14 13  2  0  0  0  0
 15 16  1  0  0  0  0
 16 17  2  0  0  0  0
 18 19  2  0  0  0  0
 20 18  1  0  0  0  0
 20 22  1  0  0  0  0
 21  9  1  0  0  0  0
 23 24  1  0  0  0  0
 24 26  1  0  0  0  0
 25 24  2  0  0  0  0
 26 28  1  0  0  0  0
 27 26  1  0  0  0  0
 29 15  1  0  0  0  0
 30 29  1  1  0  0  0
 31 30  1  0  0  0  0
 32 31  1  0  0  0  0
 33 32  1  0  0  0  0
 33 34  1  0  0  0  0
 34 30  1  0  0  0  0
M  END
>  <Pose>
1

>  <Score>
-8.046

$$$$
