/Users/jonathanwahrer/Desktop/Msc/3_Semester/Drug_Design_Praktikum/waehrer_HTS_screening/HTS_experiment/out/docking_results/vina_output/3npc/1726_docked.pdbqt
 OpenBabel03192220423D

 30 33  0  0  1  0  0  0  0  0999 V2000
   53.9460   84.6830   17.9260 N   0  0  0  0  0  4  0  0  0  0  0  0
   54.5440   83.6580   18.7130 C   0  0  0  0  0  2  0  0  0  0  0  0
   54.8470   82.3860   17.9860 C   0  0  1  0  0  3  0  0  0  0  0  0
   53.6520   81.5660   17.6520 C   0  0  0  0  0  2  0  0  0  0  0  0
   53.3650   81.4570   16.2490 N   0  0  0  0  0  0  0  0  0  0  0  0
   53.7760   82.3330   15.3140 C   0  0  0  0  0  0  0  0  0  0  0  0
   53.5020   82.2300   13.9800 C   0  0  0  0  0  3  0  0  0  0  0  0
   52.7540   81.1580   13.5400 C   0  0  0  0  0  3  0  0  0  0  0  0
   52.3300   80.2580   14.4880 C   0  0  0  0  0  3  0  0  0  0  0  0
   52.6230   80.3930   15.8240 C   0  0  0  0  0  0  0  0  0  0  0  0
   52.2170   79.5490   16.6640 O   0  0  0  0  0  0  0  0  0  0  0  0
   54.5900   83.4840   15.8620 C   0  0  1  0  0  3  0  0  0  0  0  0
   53.6530   84.3720   16.5800 C   0  0  0  0  0  2  0  0  0  0  0  0
   55.6230   82.8150   16.7350 C   0  0  0  0  0  2  0  0  0  0  0  0
   54.6140   85.5130   17.9260 H   0  0  0  0  0  0  0  0  0  0  0  0
   52.7740   85.1470   18.6430 C   0  0  0  0  0  2  0  0  0  0  0  0
   53.0900   85.9790   19.8440 C   0  0  1  0  0  3  0  0  0  0  0  0
   52.6470   87.4050   19.5170 C   0  0  0  0  0  2  0  0  0  0  0  0
   53.8140   88.1590   19.3580 O   0  0  0  0  0  0  0  0  0  0  0  0
   54.1570   89.3050   19.9940 C   0  0  0  0  0  0  0  0  0  0  0  0
   53.5980   90.5050   19.6150 C   0  0  0  0  0  0  0  0  0  0  0  0
   52.3390   90.5060   18.1860 Br  0  0  0  0  0  0  0  0  0  0  0  0
   53.9260   91.7040   20.2430 C   0  0  0  0  0  3  0  0  0  0  0  0
   54.8280   91.7030   21.2660 C   0  0  0  0  0  0  0  0  0  0  0  0
   55.4070   90.5150   21.6700 C   0  0  0  0  0  3  0  0  0  0  0  0
   55.1760   92.9950   21.9360 C   0  0  0  0  0  1  0  0  0  0  0  0
   55.0660   89.3200   21.0290 C   0  0  0  0  0  0  0  0  0  0  0  0
   55.8570   87.6790   21.5770 Br  0  0  0  0  0  0  0  0  0  0  0  0
   52.4130   85.4810   20.9570 O   0  0  0  0  0  0  0  0  0  0  0  0
   51.4410   85.5360   20.7330 H   0  0  0  0  0  0  0  0  0  0  0  0
  1 15  1  0  0  0  0
  1 16  1  0  0  0  0
  1  2  1  0  0  0  0
  3 14  1  6  0  0  0
  3  2  1  0  0  0  0
  4  3  1  0  0  0  0
  5  4  1  0  0  0  0
  6 12  1  0  0  0  0
  6  5  1  0  0  0  0
  7  6  2  0  0  0  0
  8  7  1  0  0  0  0
  8  9  2  0  0  0  0
  9 10  1  0  0  0  0
 10  5  1  0  0  0  0
 10 11  2  0  0  0  0
 12 13  1  1  0  0  0
 12 14  1  0  0  0  0
 13  1  1  0  0  0  0
 17 16  1  6  0  0  0
 17 29  1  0  0  0  0
 18 17  1  0  0  0  0
 19 18  1  0  0  0  0
 19 20  1  0  0  0  0
 20 27  1  0  0  0  0
 21 20  2  0  0  0  0
 21 23  1  0  0  0  0
 22 21  1  0  0  0  0
 23 24  2  0  0  0  0
 24 25  1  0  0  0  0
 24 26  1  0  0  0  0
 27 28  1  0  0  0  0
 27 25  2  0  0  0  0
 30 29  1  0  0  0  0
M  END
>  <Pose>
1

>  <Score>
-8.455

$$$$
