/Users/jonathanwahrer/Desktop/Msc/3_Semester/Drug_Design_Praktikum/waehrer_HTS_screening/HTS_experiment/out/docking_results/vina_output/3npc/1732_docked.pdbqt
 OpenBabel03192220423D

 28 31  0  0  0  0  0  0  0  0999 V2000
   53.8810   84.0150   21.3100 N   0  0  0  0  0  0  0  0  0  0  0  0
   53.7960   84.4720   22.5490 N   0  0  0  0  0  2  0  0  0  0  0  0
   54.0540   85.7750   22.5690 N   0  0  0  0  0  0  0  0  0  0  0  0
   54.3120   86.1710   21.3040 C   0  0  0  0  0  0  0  0  0  0  0  0
   54.1950   85.0580   20.5610 N   0  0  0  0  0  2  0  0  0  0  0  0
   53.6680   82.6310   20.8570 C   0  0  0  0  0  2  0  0  0  0  0  0
   53.4510   82.5890   19.3860 C   0  0  0  0  0  0  0  0  0  0  0  0
   54.5200   82.5930   18.4900 N   0  0  0  0  0  0  0  0  0  0  0  0
   55.4880   82.6280   18.9300 H   0  0  0  0  0  0  0  0  0  0  0  0
   52.2700   82.5500   18.9960 O   0  0  0  0  0  0  0  0  0  0  0  0
   54.4920   82.5580   17.0800 C   0  0  0  0  0  0  0  0  0  0  0  0
   54.6710   81.3550   16.3960 C   0  0  0  0  0  0  0  0  0  0  0  0
   54.9540   79.7840   17.4150 Br  0  0  0  0  0  0  0  0  0  0  0  0
   54.6560   81.2440   15.0280 C   0  0  0  0  0  3  0  0  0  0  0  0
   54.4530   82.3710   14.2630 C   0  0  0  0  0  3  0  0  0  0  0  0
   54.2690   83.5850   14.8780 C   0  0  0  0  0  3  0  0  0  0  0  0
   54.2900   83.6620   16.2730 C   0  0  0  0  0  3  0  0  0  0  0  0
   54.6440   87.5150   20.8570 C   0  0  0  0  0  0  0  0  0  0  0  0
   55.8480   88.0500   21.2530 C   0  0  0  0  0  0  0  0  0  0  0  0
   56.1630   89.3300   20.8280 C   0  0  0  0  0  3  0  0  0  0  0  0
   55.3180   90.0650   20.0350 C   0  0  0  0  0  3  0  0  0  0  0  0
   54.1090   89.5310   19.6370 C   0  0  0  0  0  3  0  0  0  0  0  0
   53.7970   88.2520   20.0630 C   0  0  0  0  0  3  0  0  0  0  0  0
   56.7780   87.3470   22.0760 N   0  0  0  0  0  0  0  0  0  0  0  0
   57.6000   86.4050   21.6310 N   0  0  0  0  0  0  0  0  0  0  0  0
   58.3200   85.9620   22.6370 N   0  0  0  0  0  0  0  0  0  0  0  0
   57.9540   86.6270   23.7300 N   0  0  0  0  0  0  0  0  0  0  0  0
   56.9850   87.4970   23.3760 C   0  0  0  0  0  3  0  0  0  0  0  0
  1  2  1  0  0  0  0
  2  3  1  0  0  0  0
  4  3  2  0  0  0  0
  5  4  1  0  0  0  0
  5  1  1  0  0  0  0
  6  1  1  0  0  0  0
  7  6  1  0  0  0  0
  8  9  1  0  0  0  0
  8  7  1  0  0  0  0
 10  7  2  0  0  0  0
 11  8  1  0  0  0  0
 12 11  1  0  0  0  0
 12 13  1  0  0  0  0
 14 12  2  0  0  0  0
 15 16  2  0  0  0  0
 15 14  1  0  0  0  0
 16 17  1  0  0  0  0
 17 11  2  0  0  0  0
 18 19  1  0  0  0  0
 18  4  1  0  0  0  0
 19 24  1  0  0  0  0
 20 19  2  0  0  0  0
 21 20  1  0  0  0  0
 22 21  2  0  0  0  0
 22 23  1  0  0  0  0
 23 18  2  0  0  0  0
 24 28  1  0  0  0  0
 25 24  1  0  0  0  0
 25 26  2  0  0  0  0
 26 27  1  0  0  0  0
 28 27  2  0  0  0  0
M  END
>  <Pose>
1

>  <Score>
-8.779

$$$$
