/Users/jonathanwahrer/Desktop/Msc/3_Semester/Drug_Design_Praktikum/waehrer_HTS_screening/HTS_experiment/out/docking_results/vina_output/3npc/1741_docked.pdbqt
 OpenBabel03192220433D

 28 31  0  0  0  0  0  0  0  0999 V2000
   51.3290   98.8600   29.1660 C   0  0  0  0  0  0  0  0  0  0  0  0
   51.2590   98.4310   30.3350 O   0  0  0  0  0  0  0  0  0  0  0  0
   50.1650   99.2260   28.4750 N   0  0  0  0  0  0  0  0  0  0  0  0
   48.8400   99.1420   29.0470 C   0  0  0  0  0  2  0  0  0  0  0  0
   48.1900  100.5030   28.8590 C   0  0  0  0  0  2  0  0  0  0  0  0
   49.0990  101.4480   28.3570 N   0  0  0  0  0  0  0  0  0  0  0  0
   49.7810  101.2000   27.1540 C   0  0  0  0  0  2  0  0  0  0  0  0
   50.2020   99.7350   27.0950 C   0  0  0  0  0  2  0  0  0  0  0  0
   52.6810   98.9760   28.5220 C   0  0  0  0  0  2  0  0  0  0  0  0
   53.0150   97.7920   27.7580 N   0  0  0  0  0  0  0  0  0  0  0  0
   54.1930   97.5830   27.1030 C   0  0  0  0  0  0  0  0  0  0  0  0
   54.1800   96.3590   26.4760 C   0  0  0  0  0  0  0  0  0  0  0  0
   55.3050   98.3860   27.0030 C   0  0  0  0  0  3  0  0  0  0  0  0
   55.2640   95.9000   25.7350 C   0  0  0  0  0  3  0  0  0  0  0  0
   52.9570   95.7860   26.7470 C   0  0  0  0  0  3  0  0  0  0  0  0
   56.3970   96.7100   25.6290 C   0  0  0  0  0  0  0  0  0  0  0  0
   57.9090   96.1060   24.6150 Br  0  0  0  0  0  0  0  0  0  0  0  0
   56.3930   97.9330   26.2630 C   0  0  0  0  0  3  0  0  0  0  0  0
   52.2800   96.6960   27.5330 C   0  0  0  0  0  3  0  0  0  0  0  0
   49.4530  102.5570   29.1410 C   0  0  0  0  0  2  0  0  0  0  0  0
   49.5300  102.2800   30.6000 C   0  0  0  0  0  0  0  0  0  0  0  0
   50.4820  101.5550   30.9840 O   0  0  0  0  0  0  0  0  0  0  0  0
   48.6130  102.7770   31.5390 N   0  0  0  0  0  0  0  0  0  0  0  0
   48.7550  102.4510   32.9440 C   0  0  0  0  0  2  0  0  0  0  0  0
   47.4870  103.6250   31.2020 C   0  0  0  0  0  2  0  0  0  0  0  0
   48.7720  103.7590   33.7060 C   0  0  0  0  0  2  0  0  0  0  0  0
   47.4940  104.3110   33.5290 O   0  0  0  0  0  0  0  0  0  0  0  0
   47.2790  104.6870   32.2240 C   0  0  0  0  0  2  0  0  0  0  0  0
  1  2  2  0  0  0  0
  3  4  1  0  0  0  0
  3  1  1  0  0  0  0
  5  4  1  0  0  0  0
  6  5  1  0  0  0  0
  6 20  1  0  0  0  0
  7  6  1  0  0  0  0
  8  7  1  0  0  0  0
  8  3  1  0  0  0  0
  9  1  1  0  0  0  0
 10  9  1  0  0  0  0
 11 10  1  0  0  0  0
 12 15  1  0  0  0  0
 12 11  2  0  0  0  0
 13 11  1  0  0  0  0
 14 12  1  0  0  0  0
 15 19  2  0  0  0  0
 16 14  2  0  0  0  0
 16 18  1  0  0  0  0
 17 16  1  0  0  0  0
 18 13  2  0  0  0  0
 19 10  1  0  0  0  0
 20 21  1  0  0  0  0
 21 22  2  0  0  0  0
 21 23  1  0  0  0  0
 23 24  1  0  0  0  0
 24 26  1  0  0  0  0
 25 23  1  0  0  0  0
 25 28  1  0  0  0  0
 27 26  1  0  0  0  0
 28 27  1  0  0  0  0
M  END
>  <Pose>
1

>  <Score>
-8.619

$$$$
