/Users/jonathanwahrer/Desktop/Msc/3_Semester/Drug_Design_Praktikum/waehrer_HTS_screening/HTS_experiment/out/docking_results/vina_output/3npc/1744_docked.pdbqt
 OpenBabel03192220433D

 34 37  0  0  1  0  0  0  0  0999 V2000
   56.1190   87.6760   22.3790 N   0  0  0  0  0  0  0  0  0  0  0  0
   57.2530   86.8500   22.1220 C   0  0  0  0  0  0  0  0  0  0  0  0
   57.6230   86.5160   20.9700 O   0  0  0  0  0  0  0  0  0  0  0  0
   58.0110   86.3790   23.2340 N   0  0  0  0  0  0  0  0  0  0  0  0
   57.6120   86.7470   24.5640 C   0  0  0  0  0  0  0  0  0  0  0  0
   58.4590   86.4960   25.4860 O   0  0  0  0  0  0  0  0  0  0  0  0
   56.3110   87.3740   24.8590 C   0  0  1  0  0  3  0  0  0  0  0  0
   55.7110   88.0560   23.6870 C   0  0  0  0  0  0  0  0  0  0  0  0
   54.8550   88.9500   23.8920 O   0  0  0  0  0  0  0  0  0  0  0  0
   58.8580   85.7660   23.1170 H   0  0  0  0  0  0  0  0  0  0  0  0
   55.3440   86.3530   25.4120 C   0  0  1  0  0  3  0  0  0  0  0  0
   55.5390   85.0480   25.3660 C   0  0  0  0  0  2  0  0  0  0  0  0
   54.3480   84.4540   26.0130 C   0  0  1  0  0  3  0  0  0  0  0  0
   53.9530   85.5040   26.9340 N   0  0  0  0  0  0  0  0  0  0  0  0
   54.1120   86.6230   26.0790 N   0  0  0  0  0  0  0  0  0  0  0  0
   53.0130   85.4100   27.3290 H   0  0  0  0  0  0  0  0  0  0  0  0
   53.5400   87.4520   25.9200 H   0  0  0  0  0  0  0  0  0  0  0  0
   53.2750   84.2000   25.0120 C   0  0  0  0  0  0  0  0  0  0  0  0
   53.4150   84.3340   23.6600 C   0  0  0  0  0  3  0  0  0  0  0  0
   52.3980   84.0480   22.7710 C   0  0  0  0  0  0  0  0  0  0  0  0
   51.1720   83.6050   23.2320 C   0  0  0  0  0  0  0  0  0  0  0  0
   51.0340   83.4700   24.6230 C   0  0  0  0  0  3  0  0  0  0  0  0
   52.0570   83.7600   25.4940 C   0  0  0  0  0  3  0  0  0  0  0  0
   52.5940   84.2050   21.3880 O   0  0  0  0  0  0  0  0  0  0  0  0
   52.3600   83.4250   20.7820 H   0  0  0  0  0  0  0  0  0  0  0  0
   50.1390   83.3070   22.3770 O   0  0  0  0  0  0  0  0  0  0  0  0
   49.2720   82.2160   22.6070 C   0  0  0  0  0  1  0  0  0  0  0  0
   55.3680   88.1200   21.2550 C   0  0  0  0  0  0  0  0  0  0  0  0
   54.2430   87.4390   20.8260 C   0  0  0  0  0  3  0  0  0  0  0  0
   53.4870   87.8480   19.7550 C   0  0  0  0  0  0  0  0  0  0  0  0
   52.0800   86.9520   19.2480 Cl  0  0  0  0  0  0  0  0  0  0  0  0
   53.8860   88.9930   19.0900 C   0  0  0  0  0  3  0  0  0  0  0  0
   55.0030   89.7010   19.4860 C   0  0  0  0  0  3  0  0  0  0  0  0
   55.7340   89.2440   20.5780 C   0  0  0  0  0  3  0  0  0  0  0  0
  1  8  1  0  0  0  0
  2  1  1  0  0  0  0
  2  4  1  0  0  0  0
  3  2  2  0  0  0  0
  4  5  1  0  0  0  0
  5  7  1  0  0  0  0
  5  6  2  0  0  0  0
  7  8  1  6  0  0  0
  7 11  1  0  0  0  0
  8  9  2  0  0  0  0
 10  4  1  0  0  0  0
 11 12  1  1  0  0  0
 11 15  1  0  0  0  0
 12 13  1  0  0  0  0
 13 18  1  6  0  0  0
 13 14  1  0  0  0  0
 14 16  1  0  0  0  0
 15 14  1  0  0  0  0
 17 15  1  0  0  0  0
 18 23  1  0  0  0  0
 19 18  2  0  0  0  0
 20 21  2  0  0  0  0
 20 19  1  0  0  0  0
 21 22  1  0  0  0  0
 22 23  2  0  0  0  0
 24 20  1  0  0  0  0
 25 24  1  0  0  0  0
 26 27  1  0  0  0  0
 26 21  1  0  0  0  0
 28  1  1  0  0  0  0
 29 28  1  0  0  0  0
 30 29  2  0  0  0  0
 31 30  1  0  0  0  0
 32 33  2  0  0  0  0
 32 30  1  0  0  0  0
 33 34  1  0  0  0  0
 34 28  2  0  0  0  0
M  END
>  <Pose>
1

>  <Score>
-8.805

$$$$
