/Users/jonathanwahrer/Desktop/Msc/3_Semester/Drug_Design_Praktikum/waehrer_HTS_screening/HTS_experiment/out/docking_results/vina_output/3npc/1758_docked.pdbqt
 OpenBabel03192220443D

 28 32  0  0  1  0  0  0  0  0999 V2000
   53.2370   84.5360   18.1100 N   0  0  0  0  0  0  0  0  0  0  0  0
   52.3350   85.4930   17.9930 N   0  0  0  0  0  0  0  0  0  0  0  0
   52.3320   86.3110   19.0650 C   0  0  0  0  0  0  0  0  0  0  0  0
   51.5830   87.3610   19.3030 C   0  0  0  0  0  2  0  0  0  0  0  0
   53.3030   85.8340   19.9220 C   0  0  1  0  0  3  0  0  0  0  0  0
   53.8420   84.7320   19.2940 C   0  0  0  0  0  0  0  0  0  0  0  0
   54.7630   84.0110   19.7540 O   0  0  0  0  0  0  0  0  0  0  0  0
   51.6910   85.6210   17.1770 H   0  0  0  0  0  0  0  0  0  0  0  0
   53.6340   86.3550   21.1140 C   0  0  0  0  0  2  0  0  0  0  0  0
   54.9980   86.7150   21.2890 N   0  0  0  0  0  0  0  0  0  0  0  0
   55.6700   86.8500   20.5090 H   0  0  0  0  0  0  0  0  0  0  0  0
   55.4990   86.9080   22.6410 C   0  0  2  0  0  0  0  0  0  0  0  0
   55.2980   88.3540   23.0660 C   0  0  0  0  0  2  0  0  0  0  0  0
   55.7430   88.5120   24.4230 N   0  0  2  0  0  0  0  0  0  0  0  0
   57.1630   88.1760   24.4570 C   0  0  0  0  0  2  0  0  0  0  0  0
   54.9770   87.6220   25.2650 C   0  0  0  0  0  2  0  0  0  0  0  0
   57.3890   86.8030   24.1030 N   0  0  1  0  0  0  0  0  0  0  0  0
   56.6230   85.9240   24.9590 C   0  0  0  0  0  2  0  0  0  0  0  0
   56.9640   86.6050   22.7410 C   0  0  0  0  0  2  0  0  0  0  0  0
   55.2160   86.2240   24.9230 N   0  0  2  0  0  0  0  0  0  0  0  0
   54.7220   86.0140   23.5820 C   0  0  0  0  0  2  0  0  0  0  0  0
   53.5140   83.4910   17.1570 C   0  0  0  0  0  0  0  0  0  0  0  0
   53.1050   82.2050   17.3160 C   0  0  0  0  0  3  0  0  0  0  0  0
   53.4240   81.2650   16.3340 C   0  0  0  0  0  3  0  0  0  0  0  0
   54.1420   81.6060   15.2060 C   0  0  0  0  0  0  0  0  0  0  0  0
   54.6190   80.1840   13.7290 I   0  0  0  0  0  0  0  0  0  0  0  0
   54.5570   82.9070   15.0420 C   0  0  0  0  0  3  0  0  0  0  0  0
   54.2330   83.8200   16.0220 C   0  0  0  0  0  3  0  0  0  0  0  0
  1  6  1  0  0  0  0
  2  1  1  0  0  0  0
  2  3  1  0  0  0  0
  3  4  2  0  0  0  0
  3  5  1  0  0  0  0
  5  9  1  6  0  0  0
  6  7  2  0  0  0  0
  6  5  1  0  0  0  0
  8  2  1  0  0  0  0
  9 10  1  0  0  0  0
 11 10  1  0  0  0  0
 12 10  1  6  0  0  0
 12 19  1  0  0  0  0
 12 13  1  0  0  0  0
 12 21  1  0  0  0  0
 14 13  1  6  0  0  0
 14 15  1  0  0  0  0
 14 16  1  0  0  0  0
 17 19  1  6  0  0  0
 17 15  1  0  0  0  0
 17 18  1  0  0  0  0
 20 21  1  6  0  0  0
 20 18  1  0  0  0  0
 20 16  1  0  0  0  0
 22 23  1  0  0  0  0
 22  1  1  0  0  0  0
 24 23  2  0  0  0  0
 25 24  1  0  0  0  0
 26 25  1  0  0  0  0
 27 25  2  0  0  0  0
 27 28  1  0  0  0  0
 28 22  2  0  0  0  0
M  END
>  <Pose>
1

>  <Score>
-8.197

$$$$
