/Users/jonathanwahrer/Desktop/Msc/3_Semester/Drug_Design_Praktikum/waehrer_HTS_screening/HTS_experiment/out/docking_results/vina_output/3npc/1764_docked.pdbqt
 OpenBabel03192220443D

 34 37  0  0  1  0  0  0  0  0999 V2000
   52.6710   83.8660   20.6130 N   0  0  0  0  0  0  0  0  0  0  0  0
   53.6750   84.4570   19.8710 C   0  0  1  0  0  3  0  0  0  0  0  0
   54.1050   83.3990   18.8450 C   0  0  0  0  0  2  0  0  0  0  0  0
   52.7830   82.7410   18.5160 C   0  0  0  0  0  2  0  0  0  0  0  0
   51.9660   82.8990   19.7760 C   0  0  0  0  0  2  0  0  0  0  0  0
   52.7780   83.4260   22.2110 S   0  0  0  0  0  0  0  0  0  0  0  0
   53.5740   82.1380   22.4160 O   0  0  0  0  0  0  0  0  0  0  0  0
   51.3770   83.0630   22.7060 O   0  0  0  0  0  0  0  0  0  0  0  0
   53.3950   84.6510   23.2800 C   0  0  0  0  0  0  0  0  0  0  0  0
   54.1950   85.6740   22.7450 C   0  0  0  0  0  3  0  0  0  0  0  0
   54.7810   86.6520   23.4970 C   0  0  0  0  0  0  0  0  0  0  0  0
   54.5630   86.6140   24.8620 C   0  0  0  0  0  0  0  0  0  0  0  0
   55.5700   87.6600   22.9630 O   0  0  0  0  0  0  0  0  0  0  0  0
   53.7980   85.6510   25.4480 C   0  0  0  0  0  3  0  0  0  0  0  0
   55.1700   87.6390   25.6640 N   0  0  0  0  0  0  0  0  0  0  0  0
   53.2230   84.6800   24.6350 C   0  0  0  0  0  0  0  0  0  0  0  0
   52.1710   83.5420   25.4470 Cl  0  0  0  0  0  0  0  0  0  0  0  0
   55.9620   88.6450   25.0370 C   0  0  0  0  0  0  0  0  0  0  0  0
   55.0130   87.6240   26.7020 H   0  0  0  0  0  0  0  0  0  0  0  0
   56.8350   89.2470   25.6880 O   0  0  0  0  0  0  0  0  0  0  0  0
   55.6960   88.9260   23.6050 C   0  0  0  0  0  2  0  0  0  0  0  0
   53.0870   85.6370   19.1180 C   0  0  0  0  0  0  0  0  0  0  0  0
   53.4400   85.7510   17.9370 O   0  0  0  0  0  0  0  0  0  0  0  0
   52.2010   86.5080   19.7770 N   0  0  0  0  0  0  0  0  0  0  0  0
   51.9350   86.3910   20.7750 H   0  0  0  0  0  0  0  0  0  0  0  0
   51.6250   87.6280   19.0730 C   0  0  0  0  0  2  0  0  0  0  0  0
   51.9450   88.9660   19.6200 C   0  0  0  0  0  2  0  0  0  0  0  0
   52.6720   89.8420   18.7710 N   0  0  0  0  0  0  0  0  0  0  0  0
   51.8970   90.5650   17.8160 C   0  0  0  0  0  2  0  0  0  0  0  0
   52.4650   91.9670   17.7240 C   0  0  0  0  0  2  0  0  0  0  0  0
   53.9570   91.8740   17.4780 C   0  0  0  0  0  2  0  0  0  0  0  0
   54.1950   90.8670   16.3850 C   0  0  0  0  0  2  0  0  0  0  0  0
   54.1490   89.4520   16.8270 C   0  0  0  0  0  2  0  0  0  0  0  0
   53.8520   89.2250   18.2620 C   0  0  0  0  0  2  0  0  0  0  0  0
  1  6  1  0  0  0  0
  2 22  1  6  0  0  0
  2  1  1  0  0  0  0
  3  2  1  0  0  0  0
  4  3  1  0  0  0  0
  4  5  1  0  0  0  0
  5  1  1  0  0  0  0
  6  7  2  0  0  0  0
  6  8  2  0  0  0  0
  6  9  1  0  0  0  0
  9 16  1  0  0  0  0
 10  9  2  0  0  0  0
 10 11  1  0  0  0  0
 11 12  2  0  0  0  0
 12 14  1  0  0  0  0
 12 15  1  0  0  0  0
 13 11  1  0  0  0  0
 13 21  1  0  0  0  0
 15 19  1  0  0  0  0
 16 17  1  0  0  0  0
 16 14  2  0  0  0  0
 18 15  1  0  0  0  0
 18 20  2  0  0  0  0
 21 18  1  0  0  0  0
 22 24  1  0  0  0  0
 23 22  2  0  0  0  0
 24 25  1  0  0  0  0
 26 27  1  0  0  0  0
 26 24  1  0  0  0  0
 28 27  1  0  0  0  0
 29 28  1  0  0  0  0
 30 29  1  0  0  0  0
 31 30  1  0  0  0  0
 32 33  1  0  0  0  0
 32 31  1  0  0  0  0
 33 34  1  0  0  0  0
 34 28  1  0  0  0  0
M  END
>  <Pose>
1

>  <Score>
-9.510

$$$$
