/Users/jonathanwahrer/Desktop/Msc/3_Semester/Drug_Design_Praktikum/waehrer_HTS_screening/HTS_experiment/out/docking_results/vina_output/3npc/1788_docked.pdbqt
 OpenBabel03192220453D

 30 33  0  0  0  0  0  0  0  0999 V2000
   55.2430   87.9800   21.5120 N   0  0  0  0  0  0  0  0  0  0  0  0
   55.2220   88.9690   20.6920 N   0  0  0  0  0  0  0  0  0  0  0  0
   54.1760   88.8590   19.7890 C   0  0  0  0  0  0  0  0  0  0  0  0
   53.5480   87.7400   20.0950 N   0  0  0  0  0  0  0  0  0  0  0  0
   54.2150   87.1990   21.1700 C   0  0  0  0  0  0  0  0  0  0  0  0
   53.8760   86.1280   21.7180 O   0  0  0  0  0  0  0  0  0  0  0  0
   52.4620   87.0950   19.4260 C   0  0  0  0  0  2  0  0  0  0  0  0
   52.7480   85.7420   18.9130 C   0  0  0  0  0  0  0  0  0  0  0  0
   53.3410   85.7490   17.7550 O   0  0  0  0  0  0  0  0  0  0  0  0
   52.4990   84.4960   19.4440 N   0  0  0  0  0  0  0  0  0  0  0  0
   51.8190   84.2340   20.6840 C   0  0  0  0  0  2  0  0  0  0  0  0
   52.9610   83.3010   18.7160 C   0  0  0  0  0  2  0  0  0  0  0  0
   51.6600   82.7270   20.9550 C   0  0  0  0  0  2  0  0  0  0  0  0
   52.9740   82.0850   20.8620 N   0  0  0  0  0  0  0  0  0  0  0  0
   53.7230   82.4870   19.6940 C   0  0  0  0  0  0  0  0  0  0  0  0
   53.3300   81.4170   21.5510 H   0  0  0  0  0  0  0  0  0  0  0  0
   54.9220   82.1520   19.5660 O   0  0  0  0  0  0  0  0  0  0  0  0
   53.9930   89.8730   18.7520 C   0  0  0  0  0  0  0  0  0  0  0  0
   54.2280   89.5030   17.4220 C   0  0  0  0  0  3  0  0  0  0  0  0
   54.1520   90.3670   16.3640 C   0  0  0  0  0  3  0  0  0  0  0  0
   53.8260   91.7010   16.5660 C   0  0  0  0  0  3  0  0  0  0  0  0
   53.5960   92.0740   17.8600 C   0  0  0  0  0  3  0  0  0  0  0  0
   53.6760   91.1870   18.9370 C   0  0  0  0  0  3  0  0  0  0  0  0
   56.1880   87.7890   22.5600 C   0  0  0  0  0  0  0  0  0  0  0  0
   56.1640   88.6080   23.6720 C   0  0  0  0  0  3  0  0  0  0  0  0
   57.0750   88.4390   24.7010 C   0  0  0  0  0  3  0  0  0  0  0  0
   58.0450   87.4550   24.6730 C   0  0  0  0  0  0  0  0  0  0  0  0
   59.2050   87.2320   25.9690 Cl  0  0  0  0  0  0  0  0  0  0  0  0
   58.0670   86.6340   23.5570 C   0  0  0  0  0  3  0  0  0  0  0  0
   57.1510   86.8040   22.5210 C   0  0  0  0  0  3  0  0  0  0  0  0
  1 24  1  0  0  0  0
  2  1  1  0  0  0  0
  3  4  1  0  0  0  0
  3  2  2  0  0  0  0
  4  5  1  0  0  0  0
  5  1  1  0  0  0  0
  5  6  2  0  0  0  0
  7  4  1  0  0  0  0
  8  7  1  0  0  0  0
  8 10  1  0  0  0  0
  9  8  2  0  0  0  0
 10 11  1  0  0  0  0
 11 13  1  0  0  0  0
 12 10  1  0  0  0  0
 12 15  1  0  0  0  0
 14 13  1  0  0  0  0
 14 16  1  0  0  0  0
 15 14  1  0  0  0  0
 17 15  2  0  0  0  0
 18 23  1  0  0  0  0
 18  3  1  0  0  0  0
 19 18  2  0  0  0  0
 20 21  2  0  0  0  0
 20 19  1  0  0  0  0
 21 22  1  0  0  0  0
 22 23  2  0  0  0  0
 24 25  1  0  0  0  0
 25 26  2  0  0  0  0
 27 26  1  0  0  0  0
 27 28  1  0  0  0  0
 29 27  2  0  0  0  0
 30 24  2  0  0  0  0
 30 29  1  0  0  0  0
M  END
>  <Pose>
1

>  <Score>
-9.571

$$$$
