/Users/jonathanwahrer/Desktop/Msc/3_Semester/Drug_Design_Praktikum/waehrer_HTS_screening/HTS_experiment/out/docking_results/vina_output/3npc/1806_docked.pdbqt
 OpenBabel03192220463D

 32 35  0  0  0  0  0  0  0  0999 V2000
   55.7480   90.2090   21.9390 N   0  0  0  0  0  0  0  0  0  0  0  0
   56.7660   89.9630   20.9380 C   0  0  0  0  0  2  0  0  0  0  0  0
   56.1560   90.3180   19.5730 C   0  0  0  0  0  2  0  0  0  0  0  0
   54.7650   90.6050   19.6670 N   0  0  0  0  0  0  0  0  0  0  0  0
   54.4420   91.7600   20.5030 C   0  0  0  0  0  2  0  0  0  0  0  0
   55.0230   91.4620   21.8650 C   0  0  0  0  0  2  0  0  0  0  0  0
   55.4550   89.3030   22.9940 C   0  0  0  0  0  3  0  0  0  0  0  0
   55.0130   88.0730   22.8780 C   0  0  0  0  0  0  0  0  0  0  0  0
   54.7590   87.4640   21.6270 N   0  0  0  0  0  0  0  0  0  0  0  0
   54.7670   87.2910   24.0680 N   0  0  0  0  0  0  0  0  0  0  0  0
   54.2730   86.1050   21.5440 C   0  0  0  0  0  0  0  0  0  0  0  0
   54.9230   87.9890   20.7500 H   0  0  0  0  0  0  0  0  0  0  0  0
   54.0330   85.3460   22.6610 C   0  0  0  0  0  0  0  0  0  0  0  0
   54.0400   85.5530   20.3100 C   0  0  0  0  0  3  0  0  0  0  0  0
   53.5670   84.0510   22.5440 C   0  0  0  0  0  3  0  0  0  0  0  0
   54.2890   85.9620   23.9540 C   0  0  0  0  0  0  0  0  0  0  0  0
   53.3370   83.5050   21.3190 C   0  0  0  0  0  0  0  0  0  0  0  0
   52.7430   81.8590   21.1090 Cl  0  0  0  0  0  0  0  0  0  0  0  0
   53.5740   84.2560   20.1900 C   0  0  0  0  0  3  0  0  0  0  0  0
   54.0640   85.2510   24.9930 O   0  0  0  0  0  0  0  0  0  0  0  0
   54.9410   87.7060   25.0040 H   0  0  0  0  0  0  0  0  0  0  0  0
   53.6690   89.9220   19.0850 C   0  0  0  0  0  0  0  0  0  0  0  0
   52.9950   88.9930   19.8590 N   0  0  0  0  0  0  0  0  0  0  0  0
   51.9590   88.2760   19.4260 C   0  0  0  0  0  3  0  0  0  0  0  0
   51.5340   88.4680   18.1410 C   0  0  0  0  0  3  0  0  0  0  0  0
   52.1740   89.3780   17.3480 C   0  0  0  0  0  3  0  0  0  0  0  0
   53.2700   90.1400   17.8000 C   0  0  0  0  0  0  0  0  0  0  0  0
   53.8970   91.1070   16.9520 C   0  0  0  0  0  0  0  0  0  0  0  0
   53.7130   92.3210   16.9880 O   0  0  0  0  0  0  0  0  0  0  0  0
   54.8200   90.6490   15.9710 N   0  0  0  0  0  0  0  0  0  0  0  0
   55.7400   90.2430   16.2520 H   0  0  0  0  0  0  0  0  0  0  0  0
   54.6380   90.6910   14.9430 H   0  0  0  0  0  0  0  0  0  0  0  0
  1  7  1  0  0  0  0
  2  1  1  0  0  0  0
  3  4  1  0  0  0  0
  3  2  1  0  0  0  0
  4  5  1  0  0  0  0
  5  6  1  0  0  0  0
  6  1  1  0  0  0  0
  8  7  2  0  0  0  0
  8 10  1  0  0  0  0
  9  8  1  0  0  0  0
 10 21  1  0  0  0  0
 11  9  1  0  0  0  0
 11 13  1  0  0  0  0
 12  9  1  0  0  0  0
 13 16  1  0  0  0  0
 14 11  2  0  0  0  0
 15 13  2  0  0  0  0
 16 10  1  0  0  0  0
 16 20  2  0  0  0  0
 17 15  1  0  0  0  0
 18 17  1  0  0  0  0
 19 14  1  0  0  0  0
 19 17  2  0  0  0  0
 22  4  1  0  0  0  0
 22 23  1  0  0  0  0
 24 23  2  0  0  0  0
 25 24  1  0  0  0  0
 26 27  1  0  0  0  0
 26 25  2  0  0  0  0
 27 22  2  0  0  0  0
 28 29  2  0  0  0  0
 28 27  1  0  0  0  0
 30 31  1  0  0  0  0
 30 28  1  0  0  0  0
 32 30  1  0  0  0  0
M  END
>  <Pose>
1

>  <Score>
-8.428

$$$$
