/Users/jonathanwahrer/Desktop/Msc/3_Semester/Drug_Design_Praktikum/waehrer_HTS_screening/HTS_experiment/out/docking_results/vina_output/3npc/1810_docked.pdbqt
 OpenBabel03192220463D

 32 35  0  0  1  0  0  0  0  0999 V2000
   48.3140  102.5710   31.7920 N   0  0  0  0  0  0  0  0  0  0  0  0
   49.2690  103.4050   31.1080 C   0  0  0  0  0  2  0  0  0  0  0  0
   49.7320  102.6620   29.8770 C   0  0  0  0  0  2  0  0  0  0  0  0
   48.8740  101.5260   29.6540 N   0  0  0  0  0  0  0  0  0  0  0  0
   47.4280  101.6150   29.8190 C   0  0  0  0  0  2  0  0  0  0  0  0
   47.1040  102.5390   30.9950 C   0  0  0  0  0  2  0  0  0  0  0  0
   49.4330  100.2920   29.2760 C   0  0  0  0  0  0  0  0  0  0  0  0
   48.6540   99.3040   29.0430 O   0  0  0  0  0  0  0  0  0  0  0  0
   50.9080  100.1340   29.1540 C   0  0  1  0  0  3  0  0  0  0  0  0
   51.3500   98.7030   29.2590 C   0  0  0  0  0  2  0  0  0  0  0  0
   51.6530   98.2870   27.8930 N   0  0  0  0  0  0  0  0  0  0  0  0
   51.3530   99.3390   26.9960 C   0  0  0  0  0  0  0  0  0  0  0  0
   51.1110   99.1860   25.7740 O   0  0  0  0  0  0  0  0  0  0  0  0
   51.3950  100.5780   27.8020 C   0  0  0  0  0  2  0  0  0  0  0  0
   52.1760   96.9900   27.5270 C   0  0  0  0  0  2  0  0  0  0  0  0
   53.5840   97.0710   27.0720 C   0  0  0  0  0  0  0  0  0  0  0  0
   54.1260   96.0130   26.3570 C   0  0  0  0  0  0  0  0  0  0  0  0
   55.4330   96.0170   25.9010 C   0  0  0  0  0  3  0  0  0  0  0  0
   53.1090   94.6360   26.0300 Cl  0  0  0  0  0  0  0  0  0  0  0  0
   56.1970   97.1300   26.1860 C   0  0  0  0  0  3  0  0  0  0  0  0
   55.6880   98.2030   26.8960 C   0  0  0  0  0  3  0  0  0  0  0  0
   54.3680   98.1720   27.3440 C   0  0  0  0  0  3  0  0  0  0  0  0
   48.0210  103.1350   33.3900 S   0  0  0  0  0  0  0  0  0  0  0  0
   48.8990  102.4420   34.3920 O   0  0  0  0  0  0  0  0  0  0  0  0
   46.6030  102.7360   33.7390 O   0  0  0  0  0  0  0  0  0  0  0  0
   48.1590  104.8640   33.4950 C   0  0  0  0  0  0  0  0  0  0  0  0
   47.2420  105.8580   33.2370 C   0  0  0  0  0  0  0  0  0  0  0  0
   47.8590  107.0580   33.4670 N   0  0  0  0  0  0  0  0  0  0  0  0
   45.8500  105.6400   32.8010 C   0  0  0  0  0  1  0  0  0  0  0  0
   49.0590  106.8130   33.8370 O   0  0  0  0  0  0  0  0  0  0  0  0
   49.3100  105.5260   33.8770 C   0  0  0  0  0  0  0  0  0  0  0  0
   50.6180  104.9610   34.2730 C   0  0  0  0  0  1  0  0  0  0  0  0
  1 23  1  0  0  0  0
  2  1  1  0  0  0  0
  3  2  1  0  0  0  0
  4  5  1  0  0  0  0
  4  3  1  0  0  0  0
  5  6  1  0  0  0  0
  6  1  1  0  0  0  0
  7  4  1  0  0  0  0
  8  7  2  0  0  0  0
  9 10  1  0  0  0  0
  9  7  1  6  0  0  0
 11 10  1  0  0  0  0
 12 14  1  0  0  0  0
 12 11  1  0  0  0  0
 13 12  2  0  0  0  0
 14  9  1  0  0  0  0
 15 11  1  0  0  0  0
 16 22  1  0  0  0  0
 16 15  1  0  0  0  0
 17 16  2  0  0  0  0
 18 20  2  0  0  0  0
 18 17  1  0  0  0  0
 19 17  1  0  0  0  0
 20 21  1  0  0  0  0
 21 22  2  0  0  0  0
 23 26  1  0  0  0  0
 23 25  2  0  0  0  0
 23 24  2  0  0  0  0
 26 31  2  0  0  0  0
 27 28  2  0  0  0  0
 27 26  1  0  0  0  0
 28 30  1  0  0  0  0
 29 27  1  0  0  0  0
 30 31  1  0  0  0  0
 31 32  1  0  0  0  0
M  END
>  <Pose>
1

>  <Score>
-8.693

$$$$
