/Users/jonathanwahrer/Desktop/Msc/3_Semester/Drug_Design_Praktikum/waehrer_HTS_screening/HTS_experiment/out/docking_results/vina_output/3npc/1816_docked.pdbqt
 OpenBabel03192220463D

 36 39  0  0  0  0  0  0  0  0999 V2000
   51.9950   99.7180   27.8490 C   0  0  0  0  0  0  0  0  0  0  0  0
   52.4990  100.2340   26.7920 O   0  0  0  0  0  0  0  0  0  0  0  0
   50.7550  100.1750   28.2580 N   0  0  0  0  0  0  0  0  0  0  0  0
   50.0220  101.1870   27.5640 C   0  0  0  0  0  2  0  0  0  0  0  0
   49.7960  102.3510   28.5300 C   0  0  0  0  0  2  0  0  0  0  0  0
   49.1520  101.8720   29.7070 N   0  0  0  0  0  0  0  0  0  0  0  0
   48.8780  100.4210   29.7660 C   0  0  0  0  0  2  0  0  0  0  0  0
   50.1280   99.6330   29.4420 C   0  0  0  0  0  2  0  0  0  0  0  0
   48.7650  102.6600   30.8110 C   0  0  0  0  0  0  0  0  0  0  0  0
   48.1720  101.9630   31.7740 O   0  0  0  0  0  0  0  0  0  0  0  0
   52.7920   98.6690   28.5430 C   0  0  0  0  0  2  0  0  0  0  0  0
   53.1650   97.5740   27.6190 C   0  0  0  0  0  0  0  0  0  0  0  0
   52.2290   96.6000   27.2770 C   0  0  0  0  0  0  0  0  0  0  0  0
   52.5030   95.6090   26.4630 O   0  0  0  0  0  0  0  0  0  0  0  0
   51.0710   96.7180   27.8010 O   0  0  0  0  0  0  0  0  0  0  0  0
   53.6790   95.4530   25.9050 C   0  0  0  0  0  0  0  0  0  0  0  0
   54.6770   96.3600   26.1750 C   0  0  0  0  0  0  0  0  0  0  0  0
   53.9420   94.3830   25.0400 C   0  0  0  0  0  3  0  0  0  0  0  0
   55.9040   96.1840   25.5820 C   0  0  0  0  0  3  0  0  0  0  0  0
   54.4050   97.4250   27.0390 C   0  0  0  0  0  0  0  0  0  0  0  0
   56.1620   95.1190   24.7240 C   0  0  0  0  0  0  0  0  0  0  0  0
   57.7220   94.8900   23.9690 Cl  0  0  0  0  0  0  0  0  0  0  0  0
   55.1710   94.2050   24.4470 C   0  0  0  0  0  0  0  0  0  0  0  0
   55.4690   98.3850   27.3160 C   0  0  0  0  0  1  0  0  0  0  0  0
   55.4260   93.1270   23.5790 O   0  0  0  0  0  0  0  0  0  0  0  0
   54.7720   92.9960   22.3420 C   0  0  0  0  0  1  0  0  0  0  0  0
   48.8940  104.0610   31.0790 C   0  0  0  0  0  0  0  0  0  0  0  0
   49.8480  104.5010   32.0320 C   0  0  0  0  0  3  0  0  0  0  0  0
   49.9990  105.8310   32.3200 C   0  0  0  0  0  0  0  0  0  0  0  0
   50.8530  106.1960   33.1700 O   0  0  0  0  0  0  0  0  0  0  0  0
   49.2660  106.7860   31.7330 N   0  0  0  0  0  0  0  0  0  0  0  0
   48.3680  106.3720   30.8370 C   0  0  0  0  0  0  0  0  0  0  0  0
   49.4380  108.1840   32.0530 C   0  0  0  0  0  1  0  0  0  0  0  0
   47.6450  107.2420   30.2500 O   0  0  0  0  0  0  0  0  0  0  0  0
   48.1920  105.0410   30.5230 N   0  0  0  0  0  0  0  0  0  0  0  0
   47.4690  104.8250   29.8090 H   0  0  0  0  0  0  0  0  0  0  0  0
  1  3  1  0  0  0  0
  1 11  1  0  0  0  0
  2  1  2  0  0  0  0
  3  8  1  0  0  0  0
  4  3  1  0  0  0  0
  4  5  1  0  0  0  0
  5  6  1  0  0  0  0
  6  7  1  0  0  0  0
  6  9  1  0  0  0  0
  8  7  1  0  0  0  0
  9 27  1  0  0  0  0
  9 10  2  0  0  0  0
 12 11  1  0  0  0  0
 13 12  1  0  0  0  0
 13 15  2  0  0  0  0
 14 13  1  0  0  0  0
 16 17  1  0  0  0  0
 16 14  1  0  0  0  0
 17 20  1  0  0  0  0
 18 16  2  0  0  0  0
 19 17  2  0  0  0  0
 20 24  1  0  0  0  0
 20 12  2  0  0  0  0
 21 19  1  0  0  0  0
 22 21  1  0  0  0  0
 23 21  2  0  0  0  0
 23 18  1  0  0  0  0
 25 23  1  0  0  0  0
 26 25  1  0  0  0  0
 27 28  2  0  0  0  0
 28 29  1  0  0  0  0
 29 30  2  0  0  0  0
 31 33  1  0  0  0  0
 31 29  1  0  0  0  0
 32 31  1  0  0  0  0
 34 32  2  0  0  0  0
 35 32  1  0  0  0  0
 35 27  1  0  0  0  0
 36 35  1  0  0  0  0
M  END
>  <Pose>
1

>  <Score>
-9.721

$$$$
