/Users/jonathanwahrer/Desktop/Msc/3_Semester/Drug_Design_Praktikum/waehrer_HTS_screening/HTS_experiment/out/docking_results/vina_output/3npc/1825_docked.pdbqt
 OpenBabel03192220473D

 29 32  0  0  1  0  0  0  0  0999 V2000
   53.2600   87.3930   19.3490 N   0  0  0  0  0  0  0  0  0  0  0  0
   53.7510   88.6100   18.9700 C   0  0  1  0  0  3  0  0  0  0  0  0
   54.6210   89.0420   19.8980 N   0  0  0  0  0  0  0  0  0  0  0  0
   54.7280   88.1470   20.8880 C   0  0  0  0  0  0  0  0  0  0  0  0
   53.8560   87.1160   20.5100 C   0  0  0  0  0  3  0  0  0  0  0  0
   55.1320   90.3500   19.4870 C   0  0  0  0  0  2  0  0  0  0  0  0
   54.1720   90.8330   18.4170 C   0  0  0  0  0  2  0  0  0  0  0  0
   53.6230   89.5740   17.8470 C   0  0  0  0  0  2  0  0  0  0  0  0
   52.2660   86.6170   18.5930 C   0  0  0  0  0  2  0  0  0  0  0  0
   52.7090   85.1680   18.5720 C   0  0  0  0  0  0  0  0  0  0  0  0
   53.7600   84.7400   17.7770 N   0  0  0  0  0  0  0  0  0  0  0  0
   54.2420   85.4850   17.1890 H   0  0  0  0  0  0  0  0  0  0  0  0
   52.0620   84.4150   19.3080 O   0  0  0  0  0  0  0  0  0  0  0  0
   54.2420   83.4200   17.6750 C   0  0  0  0  0  0  0  0  0  0  0  0
   54.3780   82.8580   16.3870 C   0  0  0  0  0  0  0  0  0  0  0  0
   54.8390   81.5730   16.2140 C   0  0  0  0  0  0  0  0  0  0  0  0
   54.0200   83.6570   15.2020 C   0  0  0  0  0  1  0  0  0  0  0  0
   55.0180   80.8640   14.6220 Cl  0  0  0  0  0  0  0  0  0  0  0  0
   55.1850   80.7790   17.2820 C   0  0  0  0  0  3  0  0  0  0  0  0
   55.0620   81.2970   18.5460 C   0  0  0  0  0  3  0  0  0  0  0  0
   54.5900   82.6140   18.7190 C   0  0  0  0  0  3  0  0  0  0  0  0
   55.5120   88.1300   22.1130 C   0  0  0  0  0  0  0  0  0  0  0  0
   56.4800   87.1960   22.3580 C   0  0  0  0  0  3  0  0  0  0  0  0
   57.2460   87.1780   23.5090 C   0  0  0  0  0  3  0  0  0  0  0  0
   57.0620   88.1330   24.4970 C   0  0  0  0  0  0  0  0  0  0  0  0
   56.0900   89.0720   24.2520 C   0  0  0  0  0  3  0  0  0  0  0  0
   55.3240   89.0900   23.1030 C   0  0  0  0  0  3  0  0  0  0  0  0
   57.8090   88.1470   25.6630 O   0  0  0  0  0  0  0  0  0  0  0  0
   59.1400   87.6690   25.7260 C   0  0  0  0  0  1  0  0  0  0  0  0
  1  5  1  0  0  0  0
  2  8  1  6  0  0  0
  2  1  1  0  0  0  0
  2  3  1  0  0  0  0
  3  4  1  0  0  0  0
  4 22  1  0  0  0  0
  5  4  2  0  0  0  0
  6  3  1  0  0  0  0
  7  6  1  0  0  0  0
  8  7  1  0  0  0  0
  9  1  1  0  0  0  0
 10  9  1  0  0  0  0
 10 13  2  0  0  0  0
 11 10  1  0  0  0  0
 12 11  1  0  0  0  0
 14 11  1  0  0  0  0
 14 21  1  0  0  0  0
 15 14  2  0  0  0  0
 16 15  1  0  0  0  0
 16 19  2  0  0  0  0
 17 15  1  0  0  0  0
 18 16  1  0  0  0  0
 19 20  1  0  0  0  0
 20 21  2  0  0  0  0
 22 23  2  0  0  0  0
 22 27  1  0  0  0  0
 23 24  1  0  0  0  0
 24 25  2  0  0  0  0
 25 28  1  0  0  0  0
 26 25  1  0  0  0  0
 27 26  2  0  0  0  0
 28 29  1  0  0  0  0
M  END
>  <Pose>
1

>  <Score>
-8.643

$$$$
