/Users/jonathanwahrer/Desktop/Msc/3_Semester/Drug_Design_Praktikum/waehrer_HTS_screening/HTS_experiment/out/docking_results/vina_output/3npc/1837_docked.pdbqt
 OpenBabel03192220473D

 29 32  0  0  0  0  0  0  0  0999 V2000
   52.1290   83.2780   20.9200 N   0  0  0  0  0  0  0  0  0  0  0  0
   50.8350   83.0100   21.5820 C   0  0  0  0  0  2  0  0  0  0  0  0
   51.0140   83.7130   22.9430 C   0  0  0  0  0  2  0  0  0  0  0  0
   52.4330   83.4800   23.2500 N   0  0  0  0  0  0  0  0  0  0  0  0
   52.9220   82.1860   22.8940 C   0  0  0  0  0  2  0  0  0  0  0  0
   53.0150   82.1740   21.3600 C   0  0  0  0  0  2  0  0  0  0  0  0
   51.9880   83.2130   19.4770 C   0  0  0  0  0  2  0  0  0  0  0  0
   52.4130   84.5630   18.9470 C   0  0  0  0  0  0  0  0  0  0  0  0
   51.9380   85.7570   19.4970 N   0  0  0  0  0  0  0  0  0  0  0  0
   51.2270   85.6590   20.2870 H   0  0  0  0  0  0  0  0  0  0  0  0
   53.2170   84.5940   17.9800 O   0  0  0  0  0  0  0  0  0  0  0  0
   52.2510   87.0800   19.1190 C   0  0  0  0  0  0  0  0  0  0  0  0
   53.3280   87.7510   19.7190 C   0  0  0  0  0  3  0  0  0  0  0  0
   53.6810   89.0310   19.3820 C   0  0  0  0  0  3  0  0  0  0  0  0
   52.9670   89.7220   18.4130 C   0  0  0  0  0  0  0  0  0  0  0  0
   53.3930   91.3580   17.9580 Cl  0  0  0  0  0  0  0  0  0  0  0  0
   51.9110   89.0780   17.8150 C   0  0  0  0  0  3  0  0  0  0  0  0
   51.5650   87.7790   18.1660 C   0  0  0  0  0  3  0  0  0  0  0  0
   53.1760   84.5170   23.8330 C   0  0  0  0  0  0  0  0  0  0  0  0
   52.9350   84.8990   25.1240 N   0  0  0  0  0  0  0  0  0  0  0  0
   53.5880   85.8820   25.7430 C   0  0  0  0  0  3  0  0  0  0  0  0
   54.5400   86.5540   25.0860 N   0  0  0  0  0  0  0  0  0  0  0  0
   54.8660   86.2750   23.8280 C   0  0  0  0  0  0  0  0  0  0  0  0
   55.7580   86.7830   22.9550 N   0  0  0  0  0  0  0  0  0  0  0  0
   54.1720   85.2410   23.1910 C   0  0  0  0  0  0  0  0  0  0  0  0
   55.6240   86.1020   21.8460 N   0  0  0  0  0  0  0  0  0  0  0  0
   54.6820   85.1800   21.9760 N   0  0  0  0  0  0  0  0  0  0  0  0
   56.7000   87.8690   23.1520 C   0  0  0  0  0  2  0  0  0  0  0  0
   56.1150   89.1920   22.7100 C   0  0  0  0  0  1  0  0  0  0  0  0
  1  6  1  0  0  0  0
  1  2  1  0  0  0  0
  2  3  1  0  0  0  0
  3  4  1  0  0  0  0
  4 19  1  0  0  0  0
  5  4  1  0  0  0  0
  6  5  1  0  0  0  0
  7  1  1  0  0  0  0
  8  7  1  0  0  0  0
  8  9  1  0  0  0  0
  9 10  1  0  0  0  0
 11  8  2  0  0  0  0
 12  9  1  0  0  0  0
 12 13  1  0  0  0  0
 14 13  2  0  0  0  0
 15 14  1  0  0  0  0
 16 15  1  0  0  0  0
 17 18  1  0  0  0  0
 17 15  2  0  0  0  0
 18 12  2  0  0  0  0
 19 20  1  0  0  0  0
 20 21  2  0  0  0  0
 22 21  1  0  0  0  0
 23 22  2  0  0  0  0
 24 28  1  0  0  0  0
 24 23  1  0  0  0  0
 25 23  1  0  0  0  0
 25 19  2  0  0  0  0
 26 27  2  0  0  0  0
 26 24  1  0  0  0  0
 27 25  1  0  0  0  0
 29 28  1  0  0  0  0
M  END
>  <Pose>
1

>  <Score>
-8.359

$$$$
