/Users/jonathanwahrer/Desktop/Msc/3_Semester/Drug_Design_Praktikum/waehrer_HTS_screening/HTS_experiment/out/docking_results/vina_output/3npc/1846_docked.pdbqt
 OpenBabel03192220483D

 31 34  0  0  1  0  0  0  0  0999 V2000
   48.7080  100.4560   28.5380 N   0  0  0  0  0  0  0  0  0  0  0  0
   48.5020   99.1980   28.9860 C   0  0  0  0  0  2  0  0  0  0  0  0
   49.4170   98.2330   28.7600 N   0  0  0  0  0  0  0  0  0  0  0  0
   50.5580   98.4540   28.0960 C   0  0  0  0  0  0  0  0  0  0  0  0
   51.4750   97.5000   27.8670 N   0  0  0  0  0  0  0  0  0  0  0  0
   52.6270   97.6950   27.2030 C   0  0  0  0  0  0  0  0  0  0  0  0
   52.8550   98.9560   26.7440 N   0  0  0  0  0  0  0  0  0  0  0  0
   51.9650   99.9390   26.9520 C   0  0  0  0  0  3  0  0  0  0  0  0
   50.7850   99.7270   27.6340 C   0  0  1  0  0  3  0  0  0  0  0  0
   49.8580  100.7250   27.8570 C   0  0  0  0  0  0  0  0  0  0  0  0
   50.1220  101.8680   27.4100 O   0  0  0  0  0  0  0  0  0  0  0  0
   47.7910  101.5340   28.7330 C   0  0  0  0  0  2  0  0  0  0  0  0
   48.1060  102.3410   29.9620 C   0  0  0  0  0  0  0  0  0  0  0  0
   49.2870  103.0940   30.0540 N   0  0  0  0  0  0  0  0  0  0  0  0
   49.9650  103.0790   29.2190 H   0  0  0  0  0  0  0  0  0  0  0  0
   47.2660  102.2960   30.8740 O   0  0  0  0  0  0  0  0  0  0  0  0
   49.6360  103.8660   31.1830 C   0  0  0  0  0  0  0  0  0  0  0  0
   50.4740  103.4710   32.1950 C   0  0  0  0  0  3  0  0  0  0  0  0
   50.7330  104.3200   33.2720 C   0  0  0  0  0  3  0  0  0  0  0  0
   50.1850  105.5730   33.3950 C   0  0  0  0  0  0  0  0  0  0  0  0
   49.3440  105.9780   32.3860 C   0  0  0  0  0  0  0  0  0  0  0  0
   48.5930  107.5590   32.4430 Cl  0  0  0  0  0  0  0  0  0  0  0  0
   49.0820  105.1520   31.3220 C   0  0  0  0  0  3  0  0  0  0  0  0
   50.4690  106.3970   34.4920 O   0  0  0  0  0  0  0  0  0  0  0  0
   51.7370  106.3400   35.1040 C   0  0  0  0  0  1  0  0  0  0  0  0
   53.5680   96.6620   26.9810 N   0  0  0  0  0  0  0  0  0  0  0  0
   53.0960   95.4010   26.4600 C   0  0  0  0  0  2  0  0  0  0  0  0
   54.1080   94.8780   25.4420 C   0  0  0  0  0  2  0  0  0  0  0  0
   55.4090   94.9170   25.9410 O   0  0  0  0  0  0  0  0  0  0  0  0
   55.7540   96.2650   26.0490 C   0  0  0  0  0  2  0  0  0  0  0  0
   54.9800   96.8070   27.2510 C   0  0  0  0  0  2  0  0  0  0  0  0
  1 12  1  0  0  0  0
  1  2  1  0  0  0  0
  3  2  1  0  0  0  0
  4  3  2  0  0  0  0
  5  4  1  0  0  0  0
  6  5  2  0  0  0  0
  7  8  2  0  0  0  0
  7  6  1  0  0  0  0
  9  8  1  6  0  0  0
  9 10  1  0  0  0  0
  9  4  1  0  0  0  0
 10  1  1  0  0  0  0
 11 10  2  0  0  0  0
 12 13  1  0  0  0  0
 13 14  1  0  0  0  0
 13 16  2  0  0  0  0
 14 17  1  0  0  0  0
 15 14  1  0  0  0  0
 17 23  2  0  0  0  0
 17 18  1  0  0  0  0
 18 19  2  0  0  0  0
 19 20  1  0  0  0  0
 20 24  1  0  0  0  0
 21 22  1  0  0  0  0
 21 20  2  0  0  0  0
 23 21  1  0  0  0  0
 24 25  1  0  0  0  0
 26  6  1  0  0  0  0
 26 31  1  0  0  0  0
 27 26  1  0  0  0  0
 28 29  1  0  0  0  0
 28 27  1  0  0  0  0
 29 30  1  0  0  0  0
 30 31  1  0  0  0  0
M  END
>  <Pose>
1

>  <Score>
-8.846

$$$$
