/Users/jonathanwahrer/Desktop/Msc/3_Semester/Drug_Design_Praktikum/waehrer_HTS_screening/HTS_experiment/out/docking_results/vina_output/3npc/1852_docked.pdbqt
 OpenBabel03192220483D

 26 29  0  0  1  0  0  0  0  0999 V2000
   51.9800   99.9100   27.8300 N   0  0  0  0  0  0  0  0  0  0  0  0
   51.0110  100.5740   28.6440 C   0  0  0  0  0  2  0  0  0  0  0  0
   50.0600  101.3110   27.7160 C   0  0  1  0  0  3  0  0  0  0  0  0
   50.1410  100.4690   26.4600 C   0  0  0  0  0  2  0  0  0  0  0  0
   51.6290  100.0990   26.4580 C   0  0  0  0  0  2  0  0  0  0  0  0
   52.1780   98.2530   28.2550 S   0  0  0  0  0  0  0  0  0  0  0  0
   50.9140   97.5040   28.0020 O   0  0  0  0  0  0  0  0  0  0  0  0
   52.4900   98.1970   29.7270 O   0  0  0  0  0  0  0  0  0  0  0  0
   53.4930   97.5120   27.3730 C   0  0  0  0  0  0  0  0  0  0  0  0
   54.6780   98.1930   27.1800 C   0  0  0  0  0  3  0  0  0  0  0  0
   55.7480   97.6520   26.4880 C   0  0  0  0  0  0  0  0  0  0  0  0
   55.6510   96.3770   25.9610 C   0  0  0  0  0  0  0  0  0  0  0  0
   56.9340   98.3220   26.2900 O   0  0  0  0  0  0  0  0  0  0  0  0
   54.4720   95.7060   26.1580 C   0  0  0  0  0  3  0  0  0  0  0  0
   56.7470   95.8730   25.2780 O   0  0  0  0  0  0  0  0  0  0  0  0
   53.4040   96.2420   26.8450 C   0  0  0  0  0  3  0  0  0  0  0  0
   57.7180   96.6910   24.6490 C   0  0  0  0  0  2  0  0  0  0  0  0
   57.9020   98.0220   25.3280 C   0  0  0  0  0  2  0  0  0  0  0  0
   48.7540  101.1860   28.2520 O   0  0  0  0  0  0  0  0  0  0  0  0
   48.3500  101.8860   29.3760 C   0  0  0  0  0  0  0  0  0  0  0  0
   47.0980  101.6010   29.8380 N   0  0  0  0  0  0  0  0  0  0  0  0
   46.6790  102.2640   30.9280 C   0  0  0  0  0  3  0  0  0  0  0  0
   47.4610  103.2020   31.5730 C   0  0  0  0  0  0  0  0  0  0  0  0
   48.7200  103.4500   31.0610 C   0  0  0  0  0  2  0  0  0  0  0  0
   46.9010  104.0600   32.9930 Cl  0  0  0  0  0  0  0  0  0  0  0  0
   49.1410  102.7810   29.9650 N   0  0  0  0  0  0  0  0  0  0  0  0
  1  6  1  0  0  0  0
  1  2  1  0  0  0  0
  3 19  1  1  0  0  0
  3  2  1  0  0  0  0
  4  3  1  0  0  0  0
  5  4  1  0  0  0  0
  5  1  1  0  0  0  0
  6  8  2  0  0  0  0
  7  6  2  0  0  0  0
  9  6  1  0  0  0  0
 10  9  1  0  0  0  0
 11 10  2  0  0  0  0
 12 14  2  0  0  0  0
 12 11  1  0  0  0  0
 13 11  1  0  0  0  0
 14 16  1  0  0  0  0
 15 12  1  0  0  0  0
 16  9  2  0  0  0  0
 17 15  1  0  0  0  0
 17 18  1  0  0  0  0
 18 13  1  0  0  0  0
 19 20  1  0  0  0  0
 20 21  2  0  0  0  0
 20 26  2  0  0  0  0
 21 22  1  0  0  0  0
 22 23  2  0  0  0  0
 23 25  1  0  0  0  0
 24 23  1  0  0  0  0
 26 24  1  0  0  0  0
M  END
>  <Pose>
1

>  <Score>
-9.174

$$$$
