/Users/jonathanwahrer/Desktop/Msc/3_Semester/Drug_Design_Praktikum/waehrer_HTS_screening/HTS_experiment/out/docking_results/vina_output/3npc/1863_docked.pdbqt
 OpenBabel03192220493D

 33 36  0  0  0  0  0  0  0  0999 V2000
   53.4960   87.1810   20.1430 N   0  0  0  0  0  0  0  0  0  0  0  0
   53.0870   88.1870   19.3220 C   0  0  0  0  0  0  0  0  0  0  0  0
   53.9540   89.2350   19.4860 C   0  0  0  0  0  0  0  0  0  0  0  0
   54.8480   88.8360   20.3900 N   0  0  0  0  0  0  0  0  0  0  0  0
   54.5850   87.5700   20.8120 C   0  0  0  0  0  0  0  0  0  0  0  0
   53.7400   90.3590   18.7820 N   0  0  0  0  0  0  0  0  0  0  0  0
   52.6920   90.4750   17.9220 C   0  0  0  0  0  0  0  0  0  0  0  0
   52.4820   91.5340   17.2520 O   0  0  0  0  0  0  0  0  0  0  0  0
   51.8250   89.4640   17.7410 N   0  0  0  0  0  0  0  0  0  0  0  0
   52.0230   88.3350   18.4350 C   0  0  0  0  0  0  0  0  0  0  0  0
   51.1970   87.4150   18.2450 O   0  0  0  0  0  0  0  0  0  0  0  0
   54.6200   91.4890   18.9230 C   0  0  0  0  0  1  0  0  0  0  0  0
   51.0060   89.5590   17.0670 H   0  0  0  0  0  0  0  0  0  0  0  0
   55.3460   86.8720   21.8190 N   0  0  0  0  0  0  0  0  0  0  0  0
   56.7770   86.8750   21.6210 C   0  0  0  0  0  2  0  0  0  0  0  0
   57.5450   86.2110   22.7360 C   0  0  0  0  0  2  0  0  0  0  0  0
   57.0330   86.6960   23.9660 N   0  0  0  0  0  0  0  0  0  0  0  0
   55.6780   86.3100   24.1770 C   0  0  0  0  0  2  0  0  0  0  0  0
   54.8160   86.1980   22.9540 C   0  0  0  0  0  2  0  0  0  0  0  0
   57.2770   88.0970   24.1050 C   0  0  0  0  0  2  0  0  0  0  0  0
   56.0930   88.8760   24.5720 C   0  0  0  0  0  0  0  0  0  0  0  0
   55.5940   88.7770   25.7040 O   0  0  0  0  0  0  0  0  0  0  0  0
   55.5420   89.7800   23.6040 N   0  0  0  0  0  0  0  0  0  0  0  0
   54.8780   89.4560   22.8650 H   0  0  0  0  0  0  0  0  0  0  0  0
   55.8100   90.7610   23.6440 H   0  0  0  0  0  0  0  0  0  0  0  0
   52.8430   85.9170   20.2160 C   0  0  0  0  0  2  0  0  0  0  0  0
   53.4930   84.8120   19.4630 C   0  0  0  0  0  0  0  0  0  0  0  0
   53.5340   84.9030   18.0640 C   0  0  0  0  0  3  0  0  0  0  0  0
   54.1000   83.9450   17.2700 C   0  0  0  0  0  0  0  0  0  0  0  0
   54.1640   84.0540   15.5130 Cl  0  0  0  0  0  0  0  0  0  0  0  0
   54.6570   82.8290   17.8570 C   0  0  0  0  0  3  0  0  0  0  0  0
   54.6210   82.7310   19.2330 C   0  0  0  0  0  3  0  0  0  0  0  0
   54.0470   83.7070   20.0340 C   0  0  0  0  0  3  0  0  0  0  0  0
  1 26  1  0  0  0  0
  1  5  1  0  0  0  0
  2  3  2  0  0  0  0
  2  1  1  0  0  0  0
  3  4  1  0  0  0  0
  4  5  2  0  0  0  0
  5 14  1  0  0  0  0
  6 12  1  0  0  0  0
  6  3  1  0  0  0  0
  7  6  1  0  0  0  0
  8  7  2  0  0  0  0
  9  7  1  0  0  0  0
  9 10  1  0  0  0  0
 10  2  1  0  0  0  0
 11 10  2  0  0  0  0
 13  9  1  0  0  0  0
 14 19  1  0  0  0  0
 15 14  1  0  0  0  0
 15 16  1  0  0  0  0
 16 17  1  0  0  0  0
 17 20  1  0  0  0  0
 17 18  1  0  0  0  0
 19 18  1  0  0  0  0
 20 21  1  0  0  0  0
 21 22  2  0  0  0  0
 23 25  1  0  0  0  0
 23 21  1  0  0  0  0
 24 23  1  0  0  0  0
 27 33  1  0  0  0  0
 27 26  1  0  0  0  0
 28 27  2  0  0  0  0
 29 31  2  0  0  0  0
 29 28  1  0  0  0  0
 30 29  1  0  0  0  0
 31 32  1  0  0  0  0
 32 33  2  0  0  0  0
M  END
>  <Pose>
1

>  <Score>
-8.442

$$$$
