/Users/jonathanwahrer/Desktop/Msc/3_Semester/Drug_Design_Praktikum/waehrer_HTS_screening/HTS_experiment/out/docking_results/vina_output/3npc/1865_docked.pdbqt
 OpenBabel03192220493D

 29 32  0  0  1  0  0  0  0  0999 V2000
   52.8610   85.0190   25.2620 N   0  0  0  0  0  0  0  0  0  0  0  0
   53.1740   85.0360   26.6630 C   0  0  0  0  0  0  0  0  0  0  0  0
   52.3090   85.0420   27.6000 O   0  0  0  0  0  0  0  0  0  0  0  0
   54.5900   85.0440   26.8230 N   0  0  0  0  0  0  0  0  0  0  0  0
   55.1200   85.5340   25.5700 C   0  0  1  0  0  0  0  0  0  0  0  0
   54.9680   87.0440   25.5860 C   0  0  0  0  0  2  0  0  0  0  0  0
   55.1040   87.4980   24.1370 C   0  0  0  0  0  2  0  0  0  0  0  0
   56.2710   86.8840   23.5330 N   0  0  0  0  0  0  0  0  0  0  0  0
   57.1670   86.1020   24.3430 C   0  0  0  0  0  2  0  0  0  0  0  0
   56.5100   85.1510   25.2890 C   0  0  0  0  0  2  0  0  0  0  0  0
   56.5240   87.0640   22.1480 C   0  0  0  0  0  0  0  0  0  0  0  0
   57.5470   86.5190   21.6220 O   0  0  0  0  0  0  0  0  0  0  0  0
   54.1230   85.0170   24.6000 C   0  0  0  0  0  0  0  0  0  0  0  0
   54.2780   84.6320   23.4100 O   0  0  0  0  0  0  0  0  0  0  0  0
   55.1310   84.7600   27.6600 H   0  0  0  0  0  0  0  0  0  0  0  0
   51.5580   85.0060   24.6380 C   0  0  0  0  0  2  0  0  0  0  0  0
   51.2030   83.6830   24.0810 C   0  0  0  0  0  0  0  0  0  0  0  0
   51.1820   82.5550   24.8680 C   0  0  0  0  0  3  0  0  0  0  0  0
   50.8570   81.3050   24.3840 C   0  0  0  0  0  0  0  0  0  0  0  0
   50.8310   79.8720   25.3930 Cl  0  0  0  0  0  0  0  0  0  0  0  0
   50.5420   81.2140   23.0430 C   0  0  0  0  0  3  0  0  0  0  0  0
   50.5600   82.3370   22.2420 C   0  0  0  0  0  3  0  0  0  0  0  0
   50.8890   83.5840   22.7450 C   0  0  0  0  0  3  0  0  0  0  0  0
   55.6720   87.8490   21.2720 C   0  0  0  0  0  0  0  0  0  0  0  0
   54.4950   87.3910   20.8000 N   0  0  0  0  0  0  0  0  0  0  0  0
   53.7560   88.1710   19.9930 C   0  0  0  0  0  3  0  0  0  0  0  0
   54.1540   89.4370   19.6200 C   0  0  0  0  0  3  0  0  0  0  0  0
   55.3250   89.8970   20.0870 N   0  0  0  0  0  0  0  0  0  0  0  0
   56.0760   89.1110   20.9050 C   0  0  0  0  0  3  0  0  0  0  0  0
  1  2  1  0  0  0  0
  2  4  1  0  0  0  0
  2  3  2  0  0  0  0
  4 15  1  0  0  0  0
  5 10  1  6  0  0  0
  5  6  1  0  0  0  0
  5  4  1  0  0  0  0
  7  6  1  0  0  0  0
  8  7  1  0  0  0  0
  8  9  1  0  0  0  0
  9 10  1  0  0  0  0
 11  8  1  0  0  0  0
 12 11  2  0  0  0  0
 13  1  1  0  0  0  0
 13  5  1  0  0  0  0
 14 13  2  0  0  0  0
 16  1  1  0  0  0  0
 17 16  1  0  0  0  0
 17 18  1  0  0  0  0
 19 18  2  0  0  0  0
 19 20  1  0  0  0  0
 21 19  1  0  0  0  0
 22 23  1  0  0  0  0
 22 21  2  0  0  0  0
 23 17  2  0  0  0  0
 24 11  1  0  0  0  0
 25 24  2  0  0  0  0
 26 25  1  0  0  0  0
 27 26  2  0  0  0  0
 27 28  1  0  0  0  0
 28 29  2  0  0  0  0
 29 24  1  0  0  0  0
M  END
>  <Pose>
1

>  <Score>
-7.824

$$$$
