/Users/jonathanwahrer/Desktop/Msc/3_Semester/Drug_Design_Praktikum/waehrer_HTS_screening/HTS_experiment/out/docking_results/vina_output/3npc/1871_docked.pdbqt
 OpenBabel03192220493D

 28 31  0  0  1  0  0  0  0  0999 V2000
   52.1080   84.4280   25.2410 C   0  0  2  0  0  0  0  0  0  0  0  0
   51.6790   83.6260   26.3190 N   0  0  0  0  0  4  0  0  0  0  0  0
   51.8320   82.2670   26.0160 C   0  0  0  0  0  0  0  0  0  0  0  0
   51.5640   81.0740   26.4880 C   0  0  0  0  0  3  0  0  0  0  0  0
   51.9490   79.8550   25.7680 C   0  0  0  0  0  3  0  0  0  0  0  0
   52.9360   79.9140   24.6970 C   0  0  0  0  0  3  0  0  0  0  0  0
   53.4000   81.2980   24.3190 C   0  0  0  0  0  2  0  0  0  0  0  0
   52.4500   82.2830   24.6980 N   0  0  0  0  0  0  0  0  0  0  0  0
   51.8340   83.4520   24.0830 C   0  0  2  0  0  3  0  0  0  0  0  0
   52.4810   83.7790   22.8030 C   0  0  0  0  0  1  0  0  0  0  0  0
   50.5680   83.7120   26.2260 H   0  0  0  0  0  0  0  0  0  0  0  0
   53.5030   84.8580   25.1940 C   0  0  0  0  0  0  0  0  0  0  0  0
   53.8270   86.0570   24.6150 C   0  0  0  0  0  3  0  0  0  0  0  0
   55.1440   86.5040   24.5280 C   0  0  0  0  0  3  0  0  0  0  0  0
   56.1490   85.6990   25.0470 C   0  0  0  0  0  0  0  0  0  0  0  0
   57.8360   86.1700   24.9840 Cl  0  0  0  0  0  0  0  0  0  0  0  0
   55.8060   84.4930   25.6270 C   0  0  0  0  0  3  0  0  0  0  0  0
   54.5010   84.0520   25.7130 C   0  0  0  0  0  3  0  0  0  0  0  0
   51.2310   85.4710   25.0530 O   0  0  0  0  0  0  0  0  0  0  0  0
   50.3420   85.3780   25.4410 H   0  0  0  0  0  0  0  0  0  0  0  0
   51.8450   84.1220   27.6080 C   0  0  0  0  0  0  0  0  0  0  0  0
   50.8190   84.8980   28.1240 C   0  0  0  0  0  3  0  0  0  0  0  0
   50.8640   85.4570   29.3780 C   0  0  0  0  0  3  0  0  0  0  0  0
   51.9600   85.2760   30.2280 C   0  0  0  0  0  0  0  0  0  0  0  0
   52.9610   84.5040   29.6920 C   0  0  0  0  0  3  0  0  0  0  0  0
   52.9090   83.9490   28.4370 C   0  0  0  0  0  3  0  0  0  0  0  0
   51.9920   85.8390   31.4890 O   0  0  0  0  0  0  0  0  0  0  0  0
   51.0520   85.4370   32.4520 C   0  0  0  0  0  1  0  0  0  0  0  0
  1 19  1  6  0  0  0
  1  2  1  0  0  0  0
  2 21  1  0  0  0  0
  3  2  1  0  0  0  0
  3  4  2  0  0  0  0
  5  4  1  0  0  0  0
  6  5  2  0  0  0  0
  7  6  1  0  0  0  0
  7  8  1  0  0  0  0
  8  3  1  0  0  0  0
  9 10  1  6  0  0  0
  9  8  1  0  0  0  0
  9  1  1  0  0  0  0
 11  2  1  0  0  0  0
 12  1  1  0  0  0  0
 12 18  1  0  0  0  0
 13 12  2  0  0  0  0
 14 13  1  0  0  0  0
 14 15  2  0  0  0  0
 15 17  1  0  0  0  0
 16 15  1  0  0  0  0
 17 18  2  0  0  0  0
 19 20  1  0  0  0  0
 21 22  2  0  0  0  0
 21 26  1  0  0  0  0
 22 23  1  0  0  0  0
 23 24  2  0  0  0  0
 24 27  1  0  0  0  0
 25 24  1  0  0  0  0
 26 25  2  0  0  0  0
 27 28  1  0  0  0  0
M  END
>  <Pose>
1

>  <Score>
-6.142

$$$$
