/Users/jonathanwahrer/Desktop/Msc/3_Semester/Drug_Design_Praktikum/waehrer_HTS_screening/HTS_experiment/out/docking_results/vina_output/3npc/1893_docked.pdbqt
 OpenBabel03192220493D

 28 31  0  0  0  0  0  0  0  0999 V2000
   48.8520  101.4210   29.2360 N   0  0  0  0  0  0  0  0  0  0  0  0
   49.9990  100.7290   29.4330 C   0  0  0  0  0  0  0  0  0  0  0  0
   50.5010  100.5090   30.5660 O   0  0  0  0  0  0  0  0  0  0  0  0
   50.5350  100.3050   28.2280 C   0  0  0  0  0  0  0  0  0  0  0  0
   49.7100  100.7400   27.2890 C   0  0  0  0  0  0  0  0  0  0  0  0
   50.2350  100.3250   26.1170 N   0  0  0  0  0  0  0  0  0  0  0  0
   51.3650   99.6490   26.3650 N   0  0  0  0  0  0  0  0  0  0  0  0
   51.5590   99.6310   27.6740 N   0  0  0  0  0  0  0  0  0  0  0  0
   48.6800  101.4230   27.9030 C   0  0  0  0  0  0  0  0  0  0  0  0
   47.7350  101.9560   27.2810 O   0  0  0  0  0  0  0  0  0  0  0  0
   49.8260  100.5050   25.1820 H   0  0  0  0  0  0  0  0  0  0  0  0
   52.0100   99.1990   25.6820 H   0  0  0  0  0  0  0  0  0  0  0  0
   52.6570   99.0080   28.3810 C   0  0  0  0  0  2  0  0  0  0  0  0
   53.2810   97.8960   27.6210 C   0  0  0  0  0  0  0  0  0  0  0  0
   54.5470   97.9440   27.0810 C   0  0  0  0  0  3  0  0  0  0  0  0
   55.1240   96.9070   26.3760 C   0  0  0  0  0  0  0  0  0  0  0  0
   54.4040   95.7520   26.1910 C   0  0  0  0  0  3  0  0  0  0  0  0
   53.1350   95.6600   26.7130 C   0  0  0  0  0  3  0  0  0  0  0  0
   52.5800   96.7160   27.4170 C   0  0  0  0  0  3  0  0  0  0  0  0
   56.4200   97.0610   25.8680 O   0  0  0  0  0  0  0  0  0  0  0  0
   57.1030   98.2960   25.9460 C   0  0  0  0  0  1  0  0  0  0  0  0
   48.0320  102.0030   30.2260 C   0  0  0  0  0  0  0  0  0  0  0  0
   48.4430  103.1020   30.9520 C   0  0  0  0  0  3  0  0  0  0  0  0
   47.6590  103.6900   31.9280 C   0  0  0  0  0  3  0  0  0  0  0  0
   46.4160  103.1500   32.1800 C   0  0  0  0  0  0  0  0  0  0  0  0
   45.3570  103.8460   33.4120 Cl  0  0  0  0  0  0  0  0  0  0  0  0
   45.9590  102.0510   31.4820 C   0  0  0  0  0  3  0  0  0  0  0  0
   46.7820  101.4910   30.5080 C   0  0  0  0  0  3  0  0  0  0  0  0
  1  2  1  0  0  0  0
  1 22  1  0  0  0  0
  2  3  2  0  0  0  0
  4  2  1  0  0  0  0
  5  9  1  0  0  0  0
  5  4  2  0  0  0  0
  6  7  1  0  0  0  0
  6  5  1  0  0  0  0
  7  8  1  0  0  0  0
  8  4  1  0  0  0  0
  8 13  1  0  0  0  0
  9  1  1  0  0  0  0
 10  9  2  0  0  0  0
 11  6  1  0  0  0  0
 12  7  1  0  0  0  0
 14 13  1  0  0  0  0
 15 14  2  0  0  0  0
 16 15  1  0  0  0  0
 17 16  2  0  0  0  0
 17 18  1  0  0  0  0
 18 19  2  0  0  0  0
 19 14  1  0  0  0  0
 20 21  1  0  0  0  0
 20 16  1  0  0  0  0
 22 28  2  0  0  0  0
 22 23  1  0  0  0  0
 23 24  2  0  0  0  0
 24 25  1  0  0  0  0
 25 26  1  0  0  0  0
 27 25  2  0  0  0  0
 28 27  1  0  0  0  0
M  END
>  <Pose>
1

>  <Score>
-8.839

$$$$
