/Users/jonathanwahrer/Desktop/Msc/3_Semester/Drug_Design_Praktikum/waehrer_HTS_screening/HTS_experiment/out/docking_results/vina_output/3npc/1895_docked.pdbqt
 OpenBabel03192220503D

 32 35  0  0  1  0  0  0  0  0999 V2000
   53.2760   83.7340   22.0860 N   0  0  0  0  0  0  0  0  0  0  0  0
   54.1440   84.7120   21.5560 C   0  0  0  0  0  2  0  0  0  0  0  0
   53.8440   86.0380   22.2860 C   0  0  0  0  0  2  0  0  0  0  0  0
   54.3250   85.7970   23.6230 N   0  0  0  0  0  0  0  0  0  0  0  0
   53.5300   84.7670   24.3270 C   0  0  0  0  0  2  0  0  0  0  0  0
   53.1160   83.6370   23.4760 C   0  0  0  0  0  2  0  0  0  0  0  0
   55.3920   86.3850   24.3000 C   0  0  0  0  0  0  0  0  0  0  0  0
   55.5500   85.9090   25.5200 O   0  0  0  0  0  0  0  0  0  0  0  0
   56.3670   87.3930   23.9740 C   0  0  0  0  0  2  0  0  0  0  0  0
   56.3040   88.0110   22.6850 N   0  0  0  0  0  0  0  0  0  0  0  0
   56.9270   87.5230   21.4950 C   0  0  0  0  0  0  0  0  0  0  0  0
   57.6420   86.4640   21.4560 O   0  0  0  0  0  0  0  0  0  0  0  0
   56.6070   88.4010   20.4380 N   0  0  0  0  0  0  0  0  0  0  0  0
   55.4730   89.2130   20.8500 C   0  0  1  0  0  0  0  0  0  0  0  0
   57.0780   88.4730   19.5230 H   0  0  0  0  0  0  0  0  0  0  0  0
   55.5230   90.6210   20.3700 C   0  0  1  0  0  3  0  0  0  0  0  0
   54.2260   88.4870   20.3980 C   0  0  0  0  0  2  0  0  0  0  0  0
   55.5970   89.2040   22.3380 C   0  0  0  0  0  0  0  0  0  0  0  0
   54.0800   91.0760   20.1220 C   0  0  0  0  0  2  0  0  0  0  0  0
   56.1030   91.5950   21.3690 C   0  0  0  0  0  1  0  0  0  0  0  0
   53.6320   90.3720   18.8560 C   0  0  0  0  0  2  0  0  0  0  0  0
   53.9750   88.9050   18.9570 C   0  0  0  0  0  2  0  0  0  0  0  0
   55.1690   90.0660   23.1300 O   0  0  0  0  0  0  0  0  0  0  0  0
   53.2650   82.2510   21.2410 S   0  0  0  0  0  0  0  0  0  0  0  0
   54.1080   81.1970   21.8430 O   0  0  0  0  0  0  0  0  0  0  0  0
   51.8400   81.7550   21.1840 O   0  0  0  0  0  0  0  0  0  0  0  0
   53.8070   82.5850   19.5870 C   0  0  0  0  0  0  0  0  0  0  0  0
   53.1050   83.5680   18.3870 S   0  0  0  0  0  0  0  0  0  0  0  0
   54.2380   83.3280   17.1390 C   0  0  0  0  0  0  0  0  0  0  0  0
   55.1480   82.4730   17.7030 C   0  0  0  0  0  3  0  0  0  0  0  0
   54.2410   84.0160   15.5080 Cl  0  0  0  0  0  0  0  0  0  0  0  0
   54.9190   82.0910   18.9720 C   0  0  0  0  0  3  0  0  0  0  0  0
  1  6  1  0  0  0  0
  2  1  1  0  0  0  0
  2  3  1  0  0  0  0
  3  4  1  0  0  0  0
  4  7  1  0  0  0  0
  4  5  1  0  0  0  0
  6  5  1  0  0  0  0
  7  8  2  0  0  0  0
  9  7  1  0  0  0  0
 10  9  1  0  0  0  0
 11 10  1  0  0  0  0
 12 11  2  0  0  0  0
 13 14  1  0  0  0  0
 13 11  1  0  0  0  0
 14 17  1  6  0  0  0
 14 18  1  0  0  0  0
 15 13  1  0  0  0  0
 16 14  1  0  0  0  0
 16 20  1  1  0  0  0
 18 10  1  0  0  0  0
 18 23  2  0  0  0  0
 19 16  1  0  0  0  0
 21 22  1  0  0  0  0
 21 19  1  0  0  0  0
 22 17  1  0  0  0  0
 24 25  2  0  0  0  0
 24  1  1  0  0  0  0
 26 24  2  0  0  0  0
 27 24  1  0  0  0  0
 28 27  1  0  0  0  0
 29 30  2  0  0  0  0
 29 28  1  0  0  0  0
 30 32  1  0  0  0  0
 31 29  1  0  0  0  0
 32 27  2  0  0  0  0
M  END
>  <Pose>
1

>  <Score>
-8.936

$$$$
