/Users/jonathanwahrer/Desktop/Msc/3_Semester/Drug_Design_Praktikum/waehrer_HTS_screening/HTS_experiment/out/docking_results/vina_output/3npc/1927_docked.pdbqt
 OpenBabel03192220513D

 36 39  0  0  1  0  0  0  0  0999 V2000
   55.3570   90.7590   21.4540 C   0  0  0  0  0  2  0  0  0  0  0  0
   56.1170   89.5060   21.5720 C   0  0  0  0  0  0  0  0  0  0  0  0
   56.3230   88.6570   22.6510 N   0  0  0  0  0  0  0  0  0  0  0  0
   56.0080   88.9300   24.0090 C   0  0  0  0  0  2  0  0  0  0  0  0
   56.9170   87.3210   22.3810 C   0  0  0  0  0  2  0  0  0  0  0  0
   55.0480   87.8890   24.5460 C   0  0  0  0  0  2  0  0  0  0  0  0
   55.8840   86.6120   24.5900 C   0  0  2  0  0  0  0  0  0  0  0  0
   56.3690   86.2320   23.2410 C   0  0  0  0  0  2  0  0  0  0  0  0
   56.6950   89.1570   20.4520 O   0  0  0  0  0  0  0  0  0  0  0  0
   55.1980   85.5830   25.3510 C   0  0  0  0  0  0  0  0  0  0  0  0
   53.9020   85.8670   25.8000 C   0  0  0  0  0  3  0  0  0  0  0  0
   53.1700   84.9630   26.5690 C   0  0  0  0  0  3  0  0  0  0  0  0
   53.6990   83.7430   26.9170 C   0  0  0  0  0  0  0  0  0  0  0  0
   52.7690   82.5880   27.9070 Cl  0  0  0  0  0  0  0  0  0  0  0  0
   54.9800   83.4490   26.4790 C   0  0  0  0  0  3  0  0  0  0  0  0
   55.6940   84.3550   25.7190 C   0  0  0  0  0  3  0  0  0  0  0  0
   57.0350   87.0020   25.3450 O   0  0  0  0  0  0  0  0  0  0  0  0
   56.7000   87.5430   26.1020 H   0  0  0  0  0  0  0  0  0  0  0  0
   55.7750   91.8530   22.2160 N   0  0  0  0  0  0  0  0  0  0  0  0
   54.9870   93.0120   22.4900 C   0  0  0  0  0  0  0  0  0  0  0  0
   53.8430   93.0130   21.9630 O   0  0  0  0  0  0  0  0  0  0  0  0
   56.7070   91.8520   22.7120 H   0  0  0  0  0  0  0  0  0  0  0  0
   55.4890   94.0780   23.3120 C   0  0  0  0  0  3  0  0  0  0  0  0
   54.9920   94.6530   24.3570 C   0  0  0  0  0  0  0  0  0  0  0  0
   53.7280   94.2980   24.9220 N   0  0  0  0  0  0  0  0  0  0  0  0
   55.7360   95.7250   25.0650 C   0  0  0  0  0  0  0  0  0  0  0  0
   53.2190   94.9270   26.0770 N   0  0  0  0  0  0  0  0  0  0  0  0
   53.1350   93.5510   24.4880 H   0  0  0  0  0  0  0  0  0  0  0  0
   53.9460   95.9430   26.7300 C   0  0  0  0  0  0  0  0  0  0  0  0
   52.2920   94.6400   26.4700 H   0  0  0  0  0  0  0  0  0  0  0  0
   53.4540   96.4800   27.7660 O   0  0  0  0  0  0  0  0  0  0  0  0
   55.2330   96.3350   26.1910 C   0  0  0  0  0  0  0  0  0  0  0  0
   55.9170   97.3140   26.8810 C   0  0  0  0  0  3  0  0  0  0  0  0
   57.1700   97.6930   26.4050 C   0  0  0  0  0  3  0  0  0  0  0  0
   57.7140   97.1180   25.2890 C   0  0  0  0  0  3  0  0  0  0  0  0
   56.9680   96.1310   24.6350 C   0  0  0  0  0  3  0  0  0  0  0  0
  1  2  1  0  0  0  0
  1 19  1  0  0  0  0
  2  3  1  0  0  0  0
  3  4  1  0  0  0  0
  4  6  1  0  0  0  0
  5  3  1  0  0  0  0
  5  8  1  0  0  0  0
  6  7  1  0  0  0  0
  7 17  1  1  0  0  0
  7 10  1  0  0  0  0
  8  7  1  0  0  0  0
  9  2  2  0  0  0  0
 10 16  2  0  0  0  0
 10 11  1  0  0  0  0
 11 12  2  0  0  0  0
 12 13  1  0  0  0  0
 13 14  1  0  0  0  0
 15 13  2  0  0  0  0
 16 15  1  0  0  0  0
 17 18  1  0  0  0  0
 19 20  1  0  0  0  0
 19 22  1  0  0  0  0
 20 23  1  0  0  0  0
 21 20  2  0  0  0  0
 23 24  2  0  0  0  0
 24 25  1  0  0  0  0
 24 26  1  0  0  0  0
 25 27  1  0  0  0  0
 26 32  1  0  0  0  0
 27 30  1  0  0  0  0
 27 29  1  0  0  0  0
 28 25  1  0  0  0  0
 29 31  2  0  0  0  0
 32 29  1  0  0  0  0
 32 33  2  0  0  0  0
 34 33  1  0  0  0  0
 35 34  2  0  0  0  0
 36 26  2  0  0  0  0
 36 35  1  0  0  0  0
M  END
>  <Pose>
1

>  <Score>
-10.226

$$$$
