/Users/jonathanwahrer/Desktop/Msc/3_Semester/Drug_Design_Praktikum/waehrer_HTS_screening/HTS_experiment/out/docking_results/vina_output/3npc/1930_docked.pdbqt
 OpenBabel03192220513D

 34 37  0  0  1  0  0  0  0  0999 V2000
   53.2380   85.3430   26.2050 C   0  0  0  0  0  0  0  0  0  0  0  0
   52.3730   85.3860   25.2930 O   0  0  0  0  0  0  0  0  0  0  0  0
   53.0210   84.5260   27.3300 N   0  0  0  0  0  0  0  0  0  0  0  0
   51.8160   83.7110   27.4890 C   0  0  0  0  0  2  0  0  0  0  0  0
   51.0990   84.2860   28.6940 C   0  0  2  0  0  3  0  0  0  0  0  0
   52.0050   84.3080   29.9020 C   0  0  2  0  0  0  0  0  0  0  0  0
   53.3510   83.6530   29.5710 C   0  0  0  0  0  2  0  0  0  0  0  0
   53.9750   84.4240   28.4210 C   0  0  0  0  0  2  0  0  0  0  0  0
   51.4090   83.6640   31.1170 C   0  0  0  0  0  1  0  0  0  0  0  0
   54.4670   86.1600   26.0670 C   0  0  0  0  0  2  0  0  0  0  0  0
   55.3350   85.7460   24.9240 C   0  0  0  0  0  2  0  0  0  0  0  0
   55.2760   86.6660   23.7610 C   0  0  0  0  0  0  0  0  0  0  0  0
   54.5850   86.5430   22.6150 N   0  0  0  0  0  0  0  0  0  0  0  0
   54.7990   87.5940   21.8070 C   0  0  0  0  0  0  0  0  0  0  0  0
   54.3640   87.9840   20.5490 C   0  0  0  0  0  3  0  0  0  0  0  0
   55.6710   88.4320   22.4710 C   0  0  0  0  0  0  0  0  0  0  0  0
   54.7660   89.1540   19.9580 C   0  0  0  0  0  0  0  0  0  0  0  0
   54.2200   89.6570   18.3650 Cl  0  0  0  0  0  0  0  0  0  0  0  0
   55.6380   89.9680   20.6490 C   0  0  0  0  0  3  0  0  0  0  0  0
   56.1010   89.6170   21.9130 C   0  0  0  0  0  3  0  0  0  0  0  0
   55.9430   87.8500   23.6450 N   0  0  0  0  0  0  0  0  0  0  0  0
   56.8190   88.3500   24.7030 C   0  0  0  0  0  1  0  0  0  0  0  0
   49.8090   83.7410   28.9290 N   0  0  0  0  0  0  0  0  0  0  0  0
   49.5740   82.3980   28.8460 C   0  0  0  0  0  3  0  0  0  0  0  0
   48.3220   81.8670   29.0730 C   0  0  0  0  0  0  0  0  0  0  0  0
   47.2770   82.7050   29.3930 C   0  0  0  0  0  0  0  0  0  0  0  0
   48.0330   80.4130   28.9910 C   0  0  0  0  0  1  0  0  0  0  0  0
   46.1020   82.2520   29.6110 O   0  0  0  0  0  0  0  0  0  0  0  0
   47.5160   84.0250   29.4720 N   0  0  0  0  0  0  0  0  0  0  0  0
   48.7720   84.5050   29.2390 C   0  0  0  0  0  0  0  0  0  0  0  0
   46.7320   84.6600   29.7130 H   0  0  0  0  0  0  0  0  0  0  0  0
   48.9340   85.7420   29.3270 O   0  0  0  0  0  0  0  0  0  0  0  0
   52.3470   85.6270   30.2860 O   0  0  0  0  0  0  0  0  0  0  0  0
   53.1950   85.8310   29.8210 H   0  0  0  0  0  0  0  0  0  0  0  0
  1  3  1  0  0  0  0
  2  1  2  0  0  0  0
  3  4  1  0  0  0  0
  3  8  1  0  0  0  0
  5  4  1  6  0  0  0
  5 23  1  0  0  0  0
  5  6  1  0  0  0  0
  6 33  1  0  0  0  0
  6  9  1  1  0  0  0
  7  6  1  0  0  0  0
  8  7  1  0  0  0  0
 10  1  1  0  0  0  0
 11 10  1  0  0  0  0
 12 11  1  0  0  0  0
 13 12  2  0  0  0  0
 14 16  1  0  0  0  0
 14 13  1  0  0  0  0
 15 14  2  0  0  0  0
 16 21  1  0  0  0  0
 17 15  1  0  0  0  0
 17 19  2  0  0  0  0
 18 17  1  0  0  0  0
 19 20  1  0  0  0  0
 20 16  2  0  0  0  0
 21 12  1  0  0  0  0
 21 22  1  0  0  0  0
 23 30  1  0  0  0  0
 24 23  1  0  0  0  0
 24 25  2  0  0  0  0
 25 26  1  0  0  0  0
 26 29  1  0  0  0  0
 26 28  2  0  0  0  0
 27 25  1  0  0  0  0
 29 31  1  0  0  0  0
 30 32  2  0  0  0  0
 30 29  1  0  0  0  0
 34 33  1  0  0  0  0
M  END
>  <Pose>
1

>  <Score>
-8.664

$$$$
