/Users/jonathanwahrer/Desktop/Msc/3_Semester/Drug_Design_Praktikum/waehrer_HTS_screening/HTS_experiment/out/docking_results/vina_output/3npc/1937_docked.pdbqt
 OpenBabel03192220523D

 31 34  0  0  1  0  0  0  0  0999 V2000
   53.4530   84.1320   21.0780 N   0  0  0  0  0  0  0  0  0  0  0  0
   53.0370   82.8620   21.4540 C   0  0  0  0  0  2  0  0  0  0  0  0
   52.7010   82.0670   20.1210 C   0  0  0  0  0  2  0  0  0  0  0  0
   53.6110   82.6960   19.2010 N   0  0  0  0  0  0  0  0  0  0  0  0
   53.0420   83.9780   18.6920 C   0  0  0  0  0  2  0  0  0  0  0  0
   52.5930   84.6530   19.9580 C   0  0  0  0  0  2  0  0  0  0  0  0
   54.7910   82.1690   18.7700 C   0  0  0  0  0  0  0  0  0  0  0  0
   55.6870   82.9820   18.3570 O   0  0  0  0  0  0  0  0  0  0  0  0
   53.6020   85.2230   22.0120 C   0  0  0  0  0  2  0  0  0  0  0  0
   54.6120   86.1960   21.3950 C   0  0  0  0  0  0  0  0  0  0  0  0
   54.1750   87.4970   21.1330 N   0  0  0  0  0  0  0  0  0  0  0  0
   53.1010   87.6210   21.1560 H   0  0  0  0  0  0  0  0  0  0  0  0
   55.7340   85.8260   21.1710 O   0  0  0  0  0  0  0  0  0  0  0  0
   54.9650   88.6100   20.7490 C   0  0  0  0  0  2  0  0  0  0  0  0
   54.3950   89.3570   19.5960 C   0  0  0  0  0  0  0  0  0  0  0  0
   54.5490   90.7380   19.5710 C   0  0  0  0  0  0  0  0  0  0  0  0
   55.1470   91.5310   21.0080 Cl  0  0  0  0  0  0  0  0  0  0  0  0
   54.2010   91.4840   18.4920 C   0  0  0  0  0  3  0  0  0  0  0  0
   53.6860   90.9460   17.3310 C   0  0  0  0  0  3  0  0  0  0  0  0
   53.5320   89.5440   17.3600 C   0  0  0  0  0  3  0  0  0  0  0  0
   53.8740   88.7800   18.4690 C   0  0  0  0  0  3  0  0  0  0  0  0
   55.1810   80.7260   18.6900 C   0  0  1  0  0  3  0  0  0  0  0  0
   54.1790   80.1380   17.7970 O   0  0  0  0  0  0  0  0  0  0  0  0
   53.8300   81.0620   16.7700 C   0  0  0  0  0  0  0  0  0  0  0  0
   54.8200   81.8850   16.3020 C   0  0  0  0  0  0  0  0  0  0  0  0
   52.5450   81.1380   16.2460 C   0  0  0  0  0  3  0  0  0  0  0  0
   54.5750   82.8250   15.3070 C   0  0  0  0  0  3  0  0  0  0  0  0
   56.1080   81.7780   16.8390 O   0  0  0  0  0  0  0  0  0  0  0  0
   53.2750   82.8780   14.8160 C   0  0  0  0  0  3  0  0  0  0  0  0
   52.2590   82.0590   15.2580 C   0  0  0  0  0  3  0  0  0  0  0  0
   56.4400   80.7270   17.7820 C   0  0  0  0  0  2  0  0  0  0  0  0
  1  2  1  0  0  0  0
  1  9  1  0  0  0  0
  3  2  1  0  0  0  0
  4  3  1  0  0  0  0
  5  4  1  0  0  0  0
  5  6  1  0  0  0  0
  6  1  1  0  0  0  0
  7  4  1  0  0  0  0
  8  7  2  0  0  0  0
 10  9  1  0  0  0  0
 11 12  1  0  0  0  0
 11 10  1  0  0  0  0
 13 10  2  0  0  0  0
 14 11  1  0  0  0  0
 15 14  1  0  0  0  0
 16 15  1  0  0  0  0
 16 17  1  0  0  0  0
 18 16  2  0  0  0  0
 19 20  2  0  0  0  0
 19 18  1  0  0  0  0
 20 21  1  0  0  0  0
 21 15  2  0  0  0  0
 22  7  1  6  0  0  0
 23 22  1  0  0  0  0
 24 23  1  0  0  0  0
 25 24  1  0  0  0  0
 25 28  1  0  0  0  0
 26 24  2  0  0  0  0
 27 25  2  0  0  0  0
 28 31  1  0  0  0  0
 29 30  2  0  0  0  0
 29 27  1  0  0  0  0
 30 26  1  0  0  0  0
 31 22  1  0  0  0  0
M  END
>  <Pose>
1

>  <Score>
-8.339

$$$$
