/Users/jonathanwahrer/Desktop/Msc/3_Semester/Drug_Design_Praktikum/waehrer_HTS_screening/HTS_experiment/out/docking_results/vina_output/3npc/1939_docked.pdbqt
 OpenBabel03192220523D

 28 31  0  0  0  0  0  0  0  0999 V2000
   54.9990   86.0080   22.7340 N   0  0  0  0  0  0  0  0  0  0  0  0
   54.6770   85.6620   24.0180 C   0  0  0  0  0  0  0  0  0  0  0  0
   53.5100   84.9490   24.0290 C   0  0  0  0  0  0  0  0  0  0  0  0
   53.1520   84.8800   22.7540 N   0  0  0  0  0  0  0  0  0  0  0  0
   54.0480   85.5220   21.9360 C   0  0  0  0  0  0  0  0  0  0  0  0
   52.9690   84.4950   25.1750 N   0  0  0  0  0  0  0  0  0  0  0  0
   53.5890   84.7460   26.3580 C   0  0  0  0  0  0  0  0  0  0  0  0
   53.0500   84.3040   27.3980 O   0  0  0  0  0  0  0  0  0  0  0  0
   54.7380   85.4430   26.3980 N   0  0  0  0  0  0  0  0  0  0  0  0
   55.2670   85.8910   25.2500 C   0  0  0  0  0  0  0  0  0  0  0  0
   56.3350   86.5340   25.3400 O   0  0  0  0  0  0  0  0  0  0  0  0
   51.7280   83.7460   25.0950 C   0  0  0  0  0  1  0  0  0  0  0  0
   55.1730   85.6070   27.3300 H   0  0  0  0  0  0  0  0  0  0  0  0
   56.1770   86.7670   22.4080 C   0  0  0  0  0  2  0  0  0  0  0  0
   56.0050   88.2040   22.2110 C   0  0  0  0  0  0  0  0  0  0  0  0
   55.5600   89.0640   23.1590 C   0  0  0  0  0  3  0  0  0  0  0  0
   55.3620   90.4250   22.9070 C   0  0  0  0  0  3  0  0  0  0  0  0
   55.6170   90.9420   21.6720 C   0  0  0  0  0  0  0  0  0  0  0  0
   55.3530   92.6520   21.4070 Cl  0  0  0  0  0  0  0  0  0  0  0  0
   56.0700   90.1040   20.6800 C   0  0  0  0  0  3  0  0  0  0  0  0
   56.2570   88.7680   20.9510 C   0  0  0  0  0  3  0  0  0  0  0  0
   53.8780   85.5960   20.5360 N   0  0  0  0  0  0  0  0  0  0  0  0
   54.1610   84.3990   19.7550 C   0  0  0  0  0  2  0  0  0  0  0  0
   53.1080   84.4490   18.6320 C   0  0  0  0  0  2  0  0  0  0  0  0
   51.8730   85.0460   19.0880 N   0  0  0  0  0  0  0  0  0  0  0  0
   51.9850   86.4510   19.4180 C   0  0  0  0  0  2  0  0  0  0  0  0
   51.1970   84.9610   18.3100 H   0  0  0  0  0  0  0  0  0  0  0  0
   53.4500   86.6920   19.7480 C   0  0  0  0  0  2  0  0  0  0  0  0
  1  2  1  0  0  0  0
  2  3  2  0  0  0  0
  2 10  1  0  0  0  0
  3  6  1  0  0  0  0
  4  3  1  0  0  0  0
  5  1  1  0  0  0  0
  5  4  2  0  0  0  0
  6  7  1  0  0  0  0
  7  9  1  0  0  0  0
  7  8  2  0  0  0  0
  9 13  1  0  0  0  0
 10 11  2  0  0  0  0
 10  9  1  0  0  0  0
 12  6  1  0  0  0  0
 14  1  1  0  0  0  0
 15 14  1  0  0  0  0
 15 16  1  0  0  0  0
 17 16  2  0  0  0  0
 18 17  1  0  0  0  0
 19 18  1  0  0  0  0
 20 21  1  0  0  0  0
 20 18  2  0  0  0  0
 21 15  2  0  0  0  0
 22  5  1  0  0  0  0
 23 22  1  0  0  0  0
 24 25  1  0  0  0  0
 24 23  1  0  0  0  0
 25 26  1  0  0  0  0
 26 28  1  0  0  0  0
 27 25  1  0  0  0  0
 28 22  1  0  0  0  0
M  END
>  <Pose>
1

>  <Score>
-8.331

$$$$
