/Users/jonathanwahrer/Desktop/Msc/3_Semester/Drug_Design_Praktikum/waehrer_HTS_screening/HTS_experiment/out/docking_results/vina_output/3npc/1940_docked.pdbqt
 OpenBabel03192220533D

 30 33  0  0  1  0  0  0  0  0999 V2000
   52.1290   85.1250   19.9220 C   0  0  1  0  0  3  0  0  0  0  0  0
   52.0510   84.4030   21.1980 N   0  0  0  0  0  0  0  0  0  0  0  0
   53.3920   84.2310   21.6160 C   0  0  0  0  0  0  0  0  0  0  0  0
   53.8410   83.2990   22.3260 O   0  0  0  0  0  0  0  0  0  0  0  0
   54.1640   85.3570   21.0580 C   0  0  0  0  0  0  0  0  0  0  0  0
   55.3870   85.5880   21.1860 O   0  0  0  0  0  0  0  0  0  0  0  0
   53.1840   86.1430   20.3200 C   0  0  0  0  0  0  0  0  0  0  0  0
   53.2170   87.4080   20.0820 C   0  0  0  0  0  0  0  0  0  0  0  0
   52.1950   88.0330   19.3690 O   0  0  0  0  0  1  0  0  0  0  0  0
   50.8320   83.9610   21.8620 C   0  0  0  0  0  2  0  0  0  0  0  0
   50.8240   82.5110   22.2320 C   0  0  0  0  0  2  0  0  0  0  0  0
   51.3940   82.1810   23.4940 N   0  0  0  0  0  4  0  0  0  0  0  0
   50.7100   82.6560   24.6530 C   0  0  0  0  0  2  0  0  0  0  0  0
   49.3260   82.0740   24.8250 C   0  0  0  0  0  2  0  0  0  0  0  0
   49.3750   80.6850   24.8670 O   0  0  0  0  0  0  0  0  0  0  0  0
   50.0870   80.1520   23.7980 C   0  0  0  0  0  2  0  0  0  0  0  0
   51.4780   80.7160   23.6710 C   0  0  0  0  0  2  0  0  0  0  0  0
   52.3660   82.5580   23.5230 H   0  0  0  0  0  0  0  0  0  0  0  0
   52.7780   84.2830   18.8860 C   0  0  0  0  0  0  0  0  0  0  0  0
   52.7160   82.9120   18.9090 C   0  0  0  0  0  3  0  0  0  0  0  0
   53.3070   82.1210   17.9440 C   0  0  0  0  0  3  0  0  0  0  0  0
   53.9920   82.7150   16.9060 C   0  0  0  0  0  0  0  0  0  0  0  0
   54.7670   81.7910   15.6430 Cl  0  0  0  0  0  0  0  0  0  0  0  0
   54.0680   84.0830   16.8620 C   0  0  0  0  0  3  0  0  0  0  0  0
   53.4760   84.8670   17.8280 C   0  0  0  0  0  3  0  0  0  0  0  0
   54.3290   88.2280   20.5510 C   0  0  0  0  0  0  0  0  0  0  0  0
   54.8950   88.3370   21.7000 O   0  0  0  0  0  0  0  0  0  0  0  0
   55.8660   89.2040   21.6630 C   0  0  0  0  0  3  0  0  0  0  0  0
   55.9640   89.7190   20.3950 C   0  0  0  0  0  3  0  0  0  0  0  0
   54.9820   89.1020   19.6710 C   0  0  0  0  0  3  0  0  0  0  0  0
  1 19  1  6  0  0  0
  1  7  1  0  0  0  0
  1  2  1  0  0  0  0
  2  3  1  0  0  0  0
  2 10  1  0  0  0  0
  3  4  2  0  0  0  0
  5  6  2  0  0  0  0
  5  3  1  0  0  0  0
  7  5  1  0  0  0  0
  8  7  2  0  0  0  0
  8 26  1  0  0  0  0
  9  8  1  0  0  0  0
 10 11  1  0  0  0  0
 11 12  1  0  0  0  0
 12 18  1  0  0  0  0
 12 17  1  0  0  0  0
 12 13  1  0  0  0  0
 13 14  1  0  0  0  0
 14 15  1  0  0  0  0
 16 15  1  0  0  0  0
 17 16  1  0  0  0  0
 19 20  1  0  0  0  0
 21 20  2  0  0  0  0
 22 21  1  0  0  0  0
 23 22  1  0  0  0  0
 24 22  2  0  0  0  0
 24 25  1  0  0  0  0
 25 19  2  0  0  0  0
 26 27  1  0  0  0  0
 28 27  1  0  0  0  0
 29 28  2  0  0  0  0
 30 29  1  0  0  0  0
 30 26  2  0  0  0  0
M  END
>  <Pose>
1

>  <Score>
-7.565

$$$$
