/Users/jonathanwahrer/Desktop/Msc/3_Semester/Drug_Design_Praktikum/waehrer_HTS_screening/HTS_experiment/out/docking_results/vina_output/3npc/1941_docked.pdbqt
 OpenBabel03192220533D

 22 25  0  0  1  0  0  0  0  0999 V2000
   55.3400   89.0420   20.8940 N   0  0  0  0  0  0  0  0  0  0  0  0
   55.4900   90.3640   20.3560 C   0  0  0  0  0  0  0  0  0  0  0  0
   55.9200   91.3370   21.0670 O   0  0  0  0  0  0  0  0  0  0  0  0
   55.0820   90.3680   18.9420 C   0  0  1  0  0  3  0  0  0  0  0  0
   54.2260   89.1280   18.8330 C   0  0  2  0  0  3  0  0  0  0  0  0
   52.8110   89.5360   18.4850 C   0  0  2  0  0  3  0  0  0  0  0  0
   52.8900   90.1000   17.0580 C   0  0  0  0  0  2  0  0  0  0  0  0
   53.7490   91.3270   17.1650 C   0  0  0  0  0  0  0  0  0  0  0  0
   53.9230   92.0350   16.2100 O   0  0  0  0  0  0  0  0  0  0  0  0
   54.3580   91.5980   18.5130 C   0  0  1  0  0  3  0  0  0  0  0  0
   53.1740   91.8740   19.4470 C   0  0  0  0  0  2  0  0  0  0  0  0
   52.3110   90.6450   19.3700 C   0  0  0  0  0  0  0  0  0  0  0  0
   51.2870   90.5890   19.9930 O   0  0  0  0  0  0  0  0  0  0  0  0
   54.3500   88.4060   20.0980 C   0  0  0  0  0  0  0  0  0  0  0  0
   53.6920   87.3920   20.4250 O   0  0  0  0  0  0  0  0  0  0  0  0
   56.0320   88.4640   21.9940 C   0  0  0  0  0  0  0  0  0  0  0  0
   56.8350   87.3550   21.8030 C   0  0  0  0  0  3  0  0  0  0  0  0
   57.5260   86.7620   22.8350 C   0  0  0  0  0  3  0  0  0  0  0  0
   57.4440   87.2520   24.1150 C   0  0  0  0  0  0  0  0  0  0  0  0
   58.3220   86.5010   25.4420 Cl  0  0  0  0  0  0  0  0  0  0  0  0
   56.6440   88.3630   24.3300 C   0  0  0  0  0  3  0  0  0  0  0  0
   55.9620   88.9410   23.2840 C   0  0  0  0  0  3  0  0  0  0  0  0
  1 16  1  0  0  0  0
  2  1  1  0  0  0  0
  2  3  2  0  0  0  0
  4  2  1  1  0  0  0
  5  4  1  0  0  0  0
  5 14  1  1  0  0  0
  6  7  1  6  0  0  0
  6  5  1  0  0  0  0
  6 12  1  0  0  0  0
  7  8  1  0  0  0  0
  8 10  1  0  0  0  0
  9  8  2  0  0  0  0
 10  4  1  0  0  0  0
 10 11  1  1  0  0  0
 12 11  1  0  0  0  0
 12 13  2  0  0  0  0
 14 15  2  0  0  0  0
 14  1  1  0  0  0  0
 16 22  1  0  0  0  0
 17 16  2  0  0  0  0
 17 18  1  0  0  0  0
 18 19  2  0  0  0  0
 19 21  1  0  0  0  0
 19 20  1  0  0  0  0
 22 21  2  0  0  0  0
M  END
>  <Pose>
1

>  <Score>
-9.244

$$$$
