/Users/jonathanwahrer/Desktop/Msc/3_Semester/Drug_Design_Praktikum/waehrer_HTS_screening/HTS_experiment/out/docking_results/vina_output/3npc/1943_docked.pdbqt
 OpenBabel03192220533D

 34 38  0  0  1  0  0  0  0  0999 V2000
   54.1770   85.3170   24.7280 N   0  0  0  0  0  0  0  0  0  0  0  0
   53.6890   85.0410   23.3970 C   0  0  0  0  0  0  0  0  0  0  0  0
   53.2340   83.9640   23.0000 O   0  0  0  0  0  0  0  0  0  0  0  0
   53.8120   86.2480   22.5690 C   0  0  2  0  0  3  0  0  0  0  0  0
   54.4200   86.0430   21.2010 C   0  0  2  0  0  0  0  0  0  0  0  0
   55.8410   86.2650   21.3130 N   0  0  0  0  0  0  0  0  0  0  0  0
   56.1410   86.2760   22.7310 C   0  0  2  0  0  3  0  0  0  0  0  0
   54.9210   86.9870   23.2810 C   0  0  2  0  0  3  0  0  0  0  0  0
   54.6420   86.6760   24.6950 C   0  0  0  0  0  0  0  0  0  0  0  0
   54.7980   87.4780   25.6200 O   0  0  0  0  0  0  0  0  0  0  0  0
   53.7650   87.0800   20.3300 C   0  0  0  0  0  0  0  0  0  0  0  0
   52.9410   86.4250   19.4590 C   0  0  0  0  0  0  0  0  0  0  0  0
   52.1330   87.1190   18.5440 C   0  0  0  0  0  3  0  0  0  0  0  0
   52.1590   88.4970   18.5040 C   0  0  0  0  0  3  0  0  0  0  0  0
   52.9870   89.1540   19.3750 C   0  0  0  0  0  3  0  0  0  0  0  0
   53.7730   88.4580   20.2690 C   0  0  0  0  0  3  0  0  0  0  0  0
   53.0950   85.0200   19.5700 N   0  0  0  0  0  0  0  0  0  0  0  0
   54.0790   84.7860   20.5660 C   0  0  0  0  0  0  0  0  0  0  0  0
   54.5490   83.6560   20.8140 O   0  0  0  0  0  0  0  0  0  0  0  0
   56.3260   85.4760   20.8230 H   0  0  0  0  0  0  0  0  0  0  0  0
   52.5720   84.2790   19.0110 H   0  0  0  0  0  0  0  0  0  0  0  0
   57.4030   87.0350   23.0430 C   0  0  0  0  0  2  0  0  0  0  0  0
   57.9350   86.7920   24.3810 C   0  0  0  0  0  0  0  0  0  0  0  0
   57.7590   85.6950   24.9430 O   0  0  0  0  0  0  0  0  0  0  0  0
   58.6560   87.8080   25.0510 N   0  0  0  0  0  0  0  0  0  0  0  0
   58.7990   88.7770   24.6760 H   0  0  0  0  0  0  0  0  0  0  0  0
   59.1110   87.6600   25.9980 H   0  0  0  0  0  0  0  0  0  0  0  0
   54.2040   84.4790   25.8480 C   0  0  0  0  0  0  0  0  0  0  0  0
   55.0630   83.4230   25.9770 C   0  0  0  0  0  3  0  0  0  0  0  0
   55.0910   82.5930   27.0920 C   0  0  0  0  0  3  0  0  0  0  0  0
   54.2210   82.8300   28.1280 C   0  0  0  0  0  0  0  0  0  0  0  0
   54.2520   81.7980   29.5470 Cl  0  0  0  0  0  0  0  0  0  0  0  0
   53.3510   83.8730   28.0330 C   0  0  0  0  0  3  0  0  0  0  0  0
   53.3450   84.6910   26.8990 C   0  0  0  0  0  3  0  0  0  0  0  0
  1 28  1  0  0  0  0
  2  1  1  0  0  0  0
  3  2  2  0  0  0  0
  4  8  1  0  0  0  0
  4  2  1  1  0  0  0
  5 11  1  6  0  0  0
  5  6  1  0  0  0  0
  5  4  1  0  0  0  0
  6  7  1  0  0  0  0
  7 22  1  6  0  0  0
  7  8  1  0  0  0  0
  8  9  1  1  0  0  0
  9  1  1  0  0  0  0
  9 10  2  0  0  0  0
 12 17  1  0  0  0  0
 12 11  2  0  0  0  0
 13 12  1  0  0  0  0
 14 13  2  0  0  0  0
 14 15  1  0  0  0  0
 15 16  2  0  0  0  0
 16 11  1  0  0  0  0
 17 18  1  0  0  0  0
 18 19  2  0  0  0  0
 18  5  1  0  0  0  0
 20  6  1  0  0  0  0
 21 17  1  0  0  0  0
 22 23  1  0  0  0  0
 23 24  2  0  0  0  0
 23 25  1  0  0  0  0
 25 27  1  0  0  0  0
 26 25  1  0  0  0  0
 28 29  2  0  0  0  0
 28 34  1  0  0  0  0
 29 30  1  0  0  0  0
 30 31  2  0  0  0  0
 31 32  1  0  0  0  0
 33 31  1  0  0  0  0
 34 33  2  0  0  0  0
M  END
>  <Pose>
1

>  <Score>
-8.185

$$$$
