/Users/jonathanwahrer/Desktop/Msc/3_Semester/Drug_Design_Praktikum/waehrer_HTS_screening/HTS_experiment/out/docking_results/vina_output/3npc/1958_docked.pdbqt
 OpenBabel03192220543D

 28 31  0  0  1  0  0  0  0  0999 V2000
   54.6400   83.2530   17.9400 C   0  0  0  0  0  0  0  0  0  0  0  0
   55.3080   82.3590   18.5650 O   0  0  0  0  0  0  0  0  0  0  0  0
   53.7190   84.0830   18.5970 N   0  0  0  0  0  0  0  0  0  0  0  0
   52.9690   85.0830   17.9060 C   0  0  0  0  0  2  0  0  0  0  0  0
   52.5450   86.2430   18.7630 C   0  0  0  0  0  2  0  0  0  0  0  0
   53.4600   86.3820   19.9220 C   0  0  2  0  0  3  0  0  0  0  0  0
   53.9550   85.2660   20.5700 C   0  0  0  0  0  0  0  0  0  0  0  0
   54.7760   85.3820   21.6200 N   0  0  0  0  0  0  0  0  0  0  0  0
   55.1700   86.5760   22.1110 C   0  0  2  0  0  3  0  0  0  0  0  0
   54.6870   87.6730   21.4790 N   0  0  0  0  0  0  0  0  0  0  0  0
   53.8610   87.6080   20.4210 C   0  0  0  0  0  0  0  0  0  0  0  0
   53.5150   83.9340   20.0110 C   0  0  0  0  0  2  0  0  0  0  0  0
   54.8910   83.3700   16.4680 C   0  0  0  0  0  2  0  0  0  0  0  0
   54.0600   82.4230   15.7080 C   0  0  0  0  0  0  0  0  0  0  0  0
   52.7840   82.0590   16.0820 C   0  0  0  0  0  3  0  0  0  0  0  0
   52.0300   81.1670   15.3510 C   0  0  0  0  0  3  0  0  0  0  0  0
   52.5500   80.5990   14.1930 C   0  0  0  0  0  0  0  0  0  0  0  0
   51.6060   79.4650   13.2530 Cl  0  0  0  0  0  0  0  0  0  0  0  0
   53.8310   80.9720   13.8310 C   0  0  0  0  0  3  0  0  0  0  0  0
   54.5820   81.8640   14.5630 C   0  0  0  0  0  3  0  0  0  0  0  0
   53.3840   88.7520   19.7960 O   0  0  0  0  0  0  0  0  0  0  0  0
   52.4070   88.8470   19.5090 H   0  0  0  0  0  0  0  0  0  0  0  0
   56.0360   86.6430   23.2160 N   0  0  0  0  0  0  0  0  0  0  0  0
   57.2220   87.4440   23.1680 C   0  0  0  0  0  2  0  0  0  0  0  0
   57.5890   87.7560   24.6260 C   0  0  0  0  0  2  0  0  0  0  0  0
   57.8760   86.6080   25.3220 O   0  0  0  0  0  0  0  0  0  0  0  0
   56.9870   85.5780   25.1800 C   0  0  0  0  0  2  0  0  0  0  0  0
   55.7380   85.9040   24.4070 C   0  0  0  0  0  2  0  0  0  0  0  0
  1  2  2  0  0  0  0
  1  3  1  0  0  0  0
  3 12  1  0  0  0  0
  4  3  1  0  0  0  0
  4  5  1  0  0  0  0
  6  5  1  1  0  0  0
  6 11  1  0  0  0  0
  6  7  1  0  0  0  0
  7  8  2  0  0  0  0
  8  9  1  0  0  0  0
  9 23  1  6  0  0  0
 10  9  1  0  0  0  0
 11 10  2  0  0  0  0
 12  7  1  0  0  0  0
 13  1  1  0  0  0  0
 14 15  1  0  0  0  0
 14 13  1  0  0  0  0
 16 15  2  0  0  0  0
 17 16  1  0  0  0  0
 18 17  1  0  0  0  0
 19 17  2  0  0  0  0
 19 20  1  0  0  0  0
 20 14  2  0  0  0  0
 21 11  1  0  0  0  0
 22 21  1  0  0  0  0
 23 28  1  0  0  0  0
 24 23  1  0  0  0  0
 24 25  1  0  0  0  0
 25 26  1  0  0  0  0
 27 26  1  0  0  0  0
 28 27  1  0  0  0  0
M  END
>  <Pose>
1

>  <Score>
-4.221

$$$$
