/Users/jonathanwahrer/Desktop/Msc/3_Semester/Drug_Design_Praktikum/waehrer_HTS_screening/HTS_experiment/out/docking_results/vina_output/3npc/1966_docked.pdbqt
 OpenBabel03192220553D

 27 30  0  0  0  0  0  0  0  0999 V2000
   56.8100   87.4590   21.4780 C   0  0  0  0  0  0  0  0  0  0  0  0
   57.7170   86.5850   21.1920 O   0  0  0  0  0  0  0  0  0  0  0  0
   56.7510   88.7160   20.9310 N   0  0  0  0  0  0  0  0  0  0  0  0
   56.6940   89.9660   20.3880 C   0  0  0  0  0  2  0  0  0  0  0  0
   57.8770   88.4650   20.1980 H   0  0  0  0  0  0  0  0  0  0  0  0
   55.8530   86.9040   22.4730 C   0  0  0  0  0  0  0  0  0  0  0  0
   54.8540   85.9820   22.2900 C   0  0  0  0  0  0  0  0  0  0  0  0
   54.5080   85.3650   21.1330 F   0  0  0  0  0  0  0  0  0  0  0  0
   54.2010   85.7370   23.4670 N   0  0  0  0  0  0  0  0  0  0  0  0
   54.8070   86.5160   24.3770 C   0  0  0  0  0  0  0  0  0  0  0  0
   53.1750   84.9310   23.7870 C   0  0  0  0  0  3  0  0  0  0  0  0
   55.7900   87.2110   23.7830 N   0  0  0  0  0  0  0  0  0  0  0  0
   54.3340   86.4610   25.6650 C   0  0  0  0  0  3  0  0  0  0  0  0
   53.2710   85.6380   26.0390 C   0  0  0  0  0  3  0  0  0  0  0  0
   52.6780   84.8570   25.0830 C   0  0  0  0  0  0  0  0  0  0  0  0
   51.3340   83.7890   25.4860 Cl  0  0  0  0  0  0  0  0  0  0  0  0
   55.5550   90.8320   20.8640 C   0  0  0  0  0  0  0  0  0  0  0  0
   54.5230   91.2420   20.1210 N   0  0  0  0  0  0  0  0  0  0  0  0
   53.7390   91.9760   20.8910 N   0  0  0  0  0  0  0  0  0  0  0  0
   54.2390   92.0460   22.1060 N   0  0  0  0  0  0  0  0  0  0  0  0
   55.3660   91.3340   22.0800 N   0  0  0  0  0  0  0  0  0  0  0  0
   54.3710   90.8890   18.7450 C   0  0  0  0  0  0  0  0  0  0  0  0
   53.7880   89.6620   18.4450 C   0  0  0  0  0  3  0  0  0  0  0  0
   53.6270   89.2510   17.1280 C   0  0  0  0  0  3  0  0  0  0  0  0
   54.0400   90.0440   16.0760 C   0  0  0  0  0  3  0  0  0  0  0  0
   54.6160   91.2590   16.3810 C   0  0  0  0  0  3  0  0  0  0  0  0
   54.7790   91.6710   17.6920 C   0  0  0  0  0  3  0  0  0  0  0  0
  1  6  1  0  0  0  0
  2  1  2  0  0  0  0
  3  1  1  0  0  0  0
  4 17  1  0  0  0  0
  4  3  1  0  0  0  0
  5  3  1  0  0  0  0
  6 12  1  0  0  0  0
  7  6  2  0  0  0  0
  7  9  1  0  0  0  0
  8  7  1  0  0  0  0
  9 11  1  0  0  0  0
  9 10  1  0  0  0  0
 10 13  1  0  0  0  0
 11 15  2  0  0  0  0
 12 10  2  0  0  0  0
 13 14  2  0  0  0  0
 15 16  1  0  0  0  0
 15 14  1  0  0  0  0
 17 21  2  0  0  0  0
 18 17  1  0  0  0  0
 18 19  1  0  0  0  0
 19 20  2  0  0  0  0
 21 20  1  0  0  0  0
 22 18  1  0  0  0  0
 23 22  1  0  0  0  0
 24 23  2  0  0  0  0
 25 26  2  0  0  0  0
 25 24  1  0  0  0  0
 26 27  1  0  0  0  0
 27 22  2  0  0  0  0
M  END
>  <Pose>
1

>  <Score>
-9.427

$$$$
