/Users/jonathanwahrer/Desktop/Msc/3_Semester/Drug_Design_Praktikum/waehrer_HTS_screening/HTS_experiment/out/docking_results/vina_output/3npc/1971_docked.pdbqt
 OpenBabel03192220553D

 22 25  0  0  1  0  0  0  0  0999 V2000
   55.5230   88.2030   21.6640 N   0  0  0  0  0  0  0  0  0  0  0  0
   56.0600   86.9320   22.0780 C   0  0  0  0  0  0  0  0  0  0  0  0
   55.8550   85.8460   21.4880 O   0  0  0  0  0  0  0  0  0  0  0  0
   56.8710   87.1090   23.2800 C   0  0  2  0  0  3  0  0  0  0  0  0
   56.2680   86.5820   24.5400 C   0  0  1  0  0  0  0  0  0  0  0  0
   56.9050   87.4190   25.4900 O   0  0  0  0  0  0  0  0  0  0  0  0
   56.3890   88.6450   24.9970 C   0  0  1  0  0  3  0  0  0  0  0  0
   56.8880   88.6180   23.5730 C   0  0  2  0  0  3  0  0  0  0  0  0
   55.8770   89.1550   22.6610 C   0  0  0  0  0  0  0  0  0  0  0  0
   55.3730   90.3030   22.7290 O   0  0  0  0  0  0  0  0  0  0  0  0
   54.9430   88.3410   24.9740 C   0  0  0  0  0  2  0  0  0  0  0  0
   54.8650   87.0150   24.7180 C   0  0  0  0  0  2  0  0  0  0  0  0
   54.7720   88.5020   20.4940 C   0  0  0  0  0  0  0  0  0  0  0  0
   55.1410   89.5090   19.6170 C   0  0  0  0  0  3  0  0  0  0  0  0
   54.4130   89.7970   18.4820 C   0  0  0  0  0  0  0  0  0  0  0  0
   54.8900   91.0740   17.3850 Cl  0  0  0  0  0  0  0  0  0  0  0  0
   53.2730   89.0830   18.1710 C   0  0  0  0  0  3  0  0  0  0  0  0
   52.8990   88.0760   19.0380 C   0  0  0  0  0  3  0  0  0  0  0  0
   53.6330   87.7870   20.1810 C   0  0  0  0  0  3  0  0  0  0  0  0
   56.5200   85.1410   24.8120 C   0  0  0  0  0  2  0  0  0  0  0  0
   55.7730   84.7420   25.9130 O   0  0  0  0  0  0  0  0  0  0  0  0
   56.3620   84.3650   26.6080 H   0  0  0  0  0  0  0  0  0  0  0  0
  1  2  1  0  0  0  0
  1  9  1  0  0  0  0
  3  2  2  0  0  0  0
  4  2  1  6  0  0  0
  4  8  1  0  0  0  0
  4  5  1  0  0  0  0
  5 12  1  0  0  0  0
  5 20  1  1  0  0  0
  5  6  1  0  0  0  0
  7 11  1  6  0  0  0
  7  6  1  0  0  0  0
  8  9  1  6  0  0  0
  8  7  1  0  0  0  0
  9 10  2  0  0  0  0
 12 11  1  0  0  0  0
 13  1  1  0  0  0  0
 14 13  2  0  0  0  0
 15 14  1  0  0  0  0
 16 15  1  0  0  0  0
 17 15  2  0  0  0  0
 17 18  1  0  0  0  0
 18 19  2  0  0  0  0
 19 13  1  0  0  0  0
 20 21  1  0  0  0  0
 21 22  1  0  0  0  0
M  END
>  <Pose>
1

>  <Score>
-7.799

$$$$
