/Users/jonathanwahrer/Desktop/Msc/3_Semester/Drug_Design_Praktikum/waehrer_HTS_screening/HTS_experiment/out/docking_results/vina_output/3npc/1974_docked.pdbqt
 OpenBabel03192220553D

 26 29  0  0  0  0  0  0  0  0999 V2000
   56.2520   90.9250   21.3730 F   0  0  0  0  0  0  0  0  0  0  0  0
   55.1990   90.4060   20.6970 C   0  0  0  0  0  0  0  0  0  0  0  0
   54.9690   89.0420   20.7810 C   0  0  0  0  0  0  0  0  0  0  0  0
   53.9190   88.4440   20.1200 C   0  0  0  0  0  0  0  0  0  0  0  0
   53.0920   89.2550   19.3620 C   0  0  0  0  0  0  0  0  0  0  0  0
   53.3180   90.6090   19.2780 C   0  0  0  0  0  3  0  0  0  0  0  0
   54.3700   91.2000   19.9400 C   0  0  0  0  0  3  0  0  0  0  0  0
   51.7520   88.4990   18.5190 Cl  0  0  0  0  0  0  0  0  0  0  0  0
   53.8890   87.0160   20.3630 C   0  0  0  0  0  0  0  0  0  0  0  0
   53.0780   86.1680   19.9250 O   0  0  0  0  0  0  0  0  0  0  0  0
   55.0190   86.7490   21.2420 C   0  0  0  0  0  0  0  0  0  0  0  0
   55.3440   85.6060   21.6930 O   0  0  0  0  0  0  0  0  0  0  0  0
   55.6630   87.9900   21.4850 N   0  0  0  0  0  0  0  0  0  0  0  0
   56.8370   88.2150   22.3020 C   0  0  0  0  0  2  0  0  0  0  0  0
   56.5440   88.2990   23.7180 N   0  0  0  0  0  0  0  0  0  0  0  0
   55.1450   88.2020   23.9570 C   0  0  0  0  0  2  0  0  0  0  0  0
   54.7450   87.3210   25.0870 C   0  0  0  0  0  2  0  0  0  0  0  0
   55.5360   86.1230   25.1960 N   0  0  0  0  0  0  0  0  0  0  0  0
   56.8060   86.0700   24.5090 C   0  0  0  0  0  2  0  0  0  0  0  0
   57.3710   87.4740   24.5320 C   0  0  0  0  0  2  0  0  0  0  0  0
   55.1150   85.0020   25.9470 C   0  0  0  0  0  0  0  0  0  0  0  0
   55.6500   83.7860   25.7500 N   0  0  0  0  0  0  0  0  0  0  0  0
   55.2660   82.7030   26.4530 C   0  0  0  0  0  3  0  0  0  0  0  0
   54.2870   82.8100   27.4220 C   0  0  0  0  0  3  0  0  0  0  0  0
   53.7490   84.0230   27.6250 N   0  0  0  0  0  0  0  0  0  0  0  0
   54.1310   85.1070   26.9230 C   0  0  0  0  0  3  0  0  0  0  0  0
  2  3  1  0  0  0  0
  2  1  1  0  0  0  0
  3 13  1  0  0  0  0
  4  9  1  0  0  0  0
  4  3  2  0  0  0  0
  5  4  1  0  0  0  0
  6  5  2  0  0  0  0
  6  7  1  0  0  0  0
  7  2  2  0  0  0  0
  8  5  1  0  0  0  0
  9 11  1  0  0  0  0
 10  9  2  0  0  0  0
 11 13  1  0  0  0  0
 11 12  2  0  0  0  0
 13 14  1  0  0  0  0
 14 15  1  0  0  0  0
 15 16  1  0  0  0  0
 15 20  1  0  0  0  0
 16 17  1  0  0  0  0
 17 18  1  0  0  0  0
 18 21  1  0  0  0  0
 19 20  1  0  0  0  0
 19 18  1  0  0  0  0
 21 26  1  0  0  0  0
 22 21  2  0  0  0  0
 22 23  1  0  0  0  0
 23 24  2  0  0  0  0
 24 25  1  0  0  0  0
 26 25  2  0  0  0  0
M  END
>  <Pose>
1

>  <Score>
-8.482

$$$$
