/Users/jonathanwahrer/Desktop/Msc/3_Semester/Drug_Design_Praktikum/waehrer_HTS_screening/HTS_experiment/out/docking_results/vina_output/3npc/1976_docked.pdbqt
 OpenBabel03192220553D

 26 29  0  0  0  0  0  0  0  0999 V2000
   52.8010   97.8140   27.9920 C   0  0  0  0  0  0  0  0  0  0  0  0
   52.9630   98.7590   28.8410 O   0  0  0  0  0  0  0  0  0  0  0  0
   53.8440   97.4080   27.1190 N   0  0  0  0  0  0  0  0  0  0  0  0
   53.6080   96.3510   26.2000 C   0  0  0  0  0  2  0  0  0  0  0  0
   54.7770   95.3630   26.3030 C   0  0  0  0  0  2  0  0  0  0  0  0
   55.9540   96.1930   25.8370 C   0  0  0  0  0  0  0  0  0  0  0  0
   56.0740   97.4980   26.2670 C   0  0  0  0  0  0  0  0  0  0  0  0
   57.1350   98.2320   25.8240 N   0  0  0  0  0  0  0  0  0  0  0  0
   58.0630   97.7360   24.9910 C   0  0  0  0  0  3  0  0  0  0  0  0
   57.9300   96.4620   24.5810 N   0  0  0  0  0  0  0  0  0  0  0  0
   56.8910   95.6750   24.9890 C   0  0  0  0  0  0  0  0  0  0  0  0
   55.0910   98.0920   27.1940 C   0  0  0  0  0  2  0  0  0  0  0  0
   51.4590   97.1500   27.9560 C   0  0  0  0  0  2  0  0  0  0  0  0
   50.3860   98.1280   28.3130 C   0  0  0  0  0  0  0  0  0  0  0  0
   49.0490   97.7850   28.3440 C   0  0  0  0  0  0  0  0  0  0  0  0
   48.6240   96.1420   27.9430 Cl  0  0  0  0  0  0  0  0  0  0  0  0
   48.0850   98.7210   28.6840 C   0  0  0  0  0  3  0  0  0  0  0  0
   48.4050  100.0280   29.0030 C   0  0  0  0  0  0  0  0  0  0  0  0
   49.7390  100.3850   28.9770 C   0  0  0  0  0  0  0  0  0  0  0  0
   47.4900  100.9910   29.3470 O   0  0  0  0  0  0  0  0  0  0  0  0
   50.6870   99.4390   28.6360 C   0  0  0  0  0  3  0  0  0  0  0  0
   50.0580  101.6890   29.2970 O   0  0  0  0  0  0  0  0  0  0  0  0
   49.2170  102.5780   30.0040 C   0  0  0  0  0  2  0  0  0  0  0  0
   47.7880  102.1670   30.0500 C   0  0  0  0  0  2  0  0  0  0  0  0
   56.7520   94.3650   24.5690 O   0  0  0  0  0  0  0  0  0  0  0  0
   56.3560   93.6970   25.2190 H   0  0  0  0  0  0  0  0  0  0  0  0
  1  2  2  0  0  0  0
  3 12  1  0  0  0  0
  3  1  1  0  0  0  0
  4  5  1  0  0  0  0
  4  3  1  0  0  0  0
  6  7  2  0  0  0  0
  6  5  1  0  0  0  0
  7 12  1  0  0  0  0
  8  7  1  0  0  0  0
  9  8  2  0  0  0  0
 10 11  2  0  0  0  0
 10  9  1  0  0  0  0
 11  6  1  0  0  0  0
 13  1  1  0  0  0  0
 13 14  1  0  0  0  0
 14 15  2  0  0  0  0
 14 21  1  0  0  0  0
 15 17  1  0  0  0  0
 16 15  1  0  0  0  0
 17 18  2  0  0  0  0
 18 20  1  0  0  0  0
 19 18  1  0  0  0  0
 19 22  1  0  0  0  0
 20 24  1  0  0  0  0
 21 19  2  0  0  0  0
 22 23  1  0  0  0  0
 23 24  1  0  0  0  0
 25 11  1  0  0  0  0
 25 26  1  0  0  0  0
M  END
>  <Pose>
1

>  <Score>
-9.986

$$$$
