/Users/jonathanwahrer/Desktop/Msc/3_Semester/Drug_Design_Praktikum/waehrer_HTS_screening/HTS_experiment/out/docking_results/vina_output/3npc/1982_docked.pdbqt
 OpenBabel03192220553D

 25 28  0  0  0  0  0  0  0  0999 V2000
   52.5310   91.6890   18.5630 Cl  0  0  0  0  0  0  0  0  0  0  0  0
   52.6300   89.9580   18.8030 C   0  0  0  0  0  0  0  0  0  0  0  0
   53.5280   89.3750   19.6730 C   0  0  0  0  0  3  0  0  0  0  0  0
   53.6170   88.0130   19.8700 C   0  0  0  0  0  0  0  0  0  0  0  0
   52.7550   87.2050   19.1530 C   0  0  0  0  0  0  0  0  0  0  0  0
   51.8520   87.7760   18.2800 C   0  0  0  0  0  3  0  0  0  0  0  0
   51.7640   89.1380   18.0820 C   0  0  0  0  0  3  0  0  0  0  0  0
   52.8320   85.7410   19.3490 C   0  0  0  0  0  0  0  0  0  0  0  0
   52.1700   84.7960   18.8270 N   0  0  0  0  0  0  0  0  0  0  0  0
   52.5630   83.4850   19.2980 C   0  0  0  0  0  3  0  0  0  0  0  0
   53.6610   83.7430   20.2770 C   0  0  0  0  0  3  0  0  0  0  0  0
   53.7750   85.1880   20.2570 N   0  0  0  0  0  0  0  0  0  0  0  0
   54.6280   86.0920   20.9590 C   0  0  0  0  0  0  0  0  0  0  0  0
   55.5970   85.8620   21.8630 N   0  0  0  0  0  0  0  0  0  0  0  0
   56.1460   86.9950   22.2670 N   0  0  0  0  0  0  0  0  0  0  0  0
   55.4900   87.9660   21.5850 C   0  0  0  0  0  0  0  0  0  0  0  0
   55.7460   89.1830   21.7130 O   0  0  0  0  0  0  0  0  0  0  0  0
   54.5560   87.4370   20.7780 N   0  0  0  0  0  0  0  0  0  0  0  0
   57.2180   87.1590   23.2300 C   0  0  0  0  0  2  0  0  0  0  0  0
   56.6670   86.9200   24.6430 C   0  0  0  0  0  2  0  0  0  0  0  0
   56.1400   88.1890   25.2060 C   0  0  0  0  0  0  0  0  0  0  0  0
   56.8580   89.1230   25.6420 O   0  0  0  0  0  0  0  0  0  0  0  0
   54.7330   88.3570   25.2570 N   0  0  0  0  0  0  0  0  0  0  0  0
   54.0710   87.5910   25.4780 H   0  0  0  0  0  0  0  0  0  0  0  0
   54.3500   89.3050   25.0590 H   0  0  0  0  0  0  0  0  0  0  0  0
  1  2  1  0  0  0  0
  2  3  1  0  0  0  0
  3  4  2  0  0  0  0
  4 18  1  0  0  0  0
  5  8  1  0  0  0  0
  5  4  1  0  0  0  0
  6  5  2  0  0  0  0
  7  6  1  0  0  0  0
  7  2  2  0  0  0  0
  8 12  1  0  0  0  0
  9 10  1  0  0  0  0
  9  8  2  0  0  0  0
 10 11  2  0  0  0  0
 12 11  1  0  0  0  0
 12 13  1  0  0  0  0
 13 14  2  0  0  0  0
 14 15  1  0  0  0  0
 15 19  1  0  0  0  0
 16 17  2  0  0  0  0
 16 15  1  0  0  0  0
 18 13  1  0  0  0  0
 18 16  1  0  0  0  0
 19 20  1  0  0  0  0
 20 21  1  0  0  0  0
 21 23  1  0  0  0  0
 21 22  2  0  0  0  0
 23 24  1  0  0  0  0
 25 23  1  0  0  0  0
M  END
>  <Pose>
1

>  <Score>
-8.508

$$$$
