/Users/jonathanwahrer/Desktop/Msc/3_Semester/Drug_Design_Praktikum/waehrer_HTS_screening/HTS_experiment/out/docking_results/vina_output/3npc/1986_docked.pdbqt
 OpenBabel03192220563D

 30 33  0  0  0  0  0  0  0  0999 V2000
   56.8420   87.4650   21.2100 Cl  0  0  0  0  0  0  0  0  0  0  0  0
   55.7120   86.6000   22.2370 C   0  0  0  0  0  0  0  0  0  0  0  0
   54.6530   85.8990   21.6950 C   0  0  0  0  0  2  0  0  0  0  0  0
   53.7500   85.2090   22.5140 C   0  0  0  0  0  0  0  0  0  0  0  0
   53.9750   85.2680   23.8660 C   0  0  0  0  0  0  0  0  0  0  0  0
   55.0510   85.9810   24.4120 C   0  0  0  0  0  3  0  0  0  0  0  0
   55.9340   86.6570   23.5970 C   0  0  0  0  0  3  0  0  0  0  0  0
   53.0920   84.5900   24.7020 O   0  0  0  0  0  0  0  0  0  0  0  0
   52.0080   83.8660   24.2350 C   0  0  0  0  0  0  0  0  0  0  0  0
   51.7820   83.8080   22.8680 C   0  0  0  0  0  0  0  0  0  0  0  0
   52.6350   84.4790   21.8800 C   0  0  0  0  0  0  0  0  0  0  0  0
   50.6900   83.0730   22.4520 C   0  0  0  0  0  0  0  0  0  0  0  0
   50.4330   82.9830   21.2090 O   0  0  0  0  0  0  0  0  0  0  0  0
   49.8520   82.4270   23.2770 N   0  0  0  0  0  0  0  0  0  0  0  0
   50.1130   82.5120   24.6040 C   0  0  0  0  0  0  0  0  0  0  0  0
   49.3140   81.8980   25.3620 O   0  0  0  0  0  0  0  0  0  0  0  0
   51.1660   83.2170   25.0560 N   0  0  0  0  0  0  0  0  0  0  0  0
   51.3760   83.2610   26.4890 C   0  0  0  0  0  1  0  0  0  0  0  0
   48.7090   81.6590   22.7820 C   0  0  0  0  0  1  0  0  0  0  0  0
   53.1980   83.4570   20.9380 C   0  0  0  0  0  3  0  0  0  0  0  0
   53.1160   83.6320   19.5740 C   0  0  0  0  0  0  0  0  0  0  0  0
   53.6300   82.6970   18.7300 N   0  0  0  0  0  0  0  0  0  0  0  0
   52.5160   84.7550   19.0770 O   0  0  0  0  0  0  0  0  0  0  0  0
   54.2260   81.5810   19.2190 C   0  0  0  0  0  0  0  0  0  0  0  0
   53.5130   82.9430   17.2960 C   0  0  0  0  0  1  0  0  0  0  0  0
   54.6900   80.7350   18.4060 O   0  0  0  0  0  0  0  0  0  0  0  0
   54.3210   81.3830   20.5440 N   0  0  0  0  0  0  0  0  0  0  0  0
   53.8150   82.3050   21.3840 C   0  0  0  0  0  0  0  0  0  0  0  0
   54.9680   80.1710   21.0360 C   0  0  0  0  0  1  0  0  0  0  0  0
   53.9100   82.1070   22.6040 O   0  0  0  0  0  0  0  0  0  0  0  0
  1  2  1  0  0  0  0
  2  7  2  0  0  0  0
  3  2  1  0  0  0  0
  3  4  1  0  0  0  0
  4  5  1  0  0  0  0
  5  6  2  0  0  0  0
  5  8  1  0  0  0  0
  7  6  1  0  0  0  0
  9  8  1  0  0  0  0
  9 17  1  0  0  0  0
 10  9  2  0  0  0  0
 11  4  2  0  0  0  0
 11 10  1  0  0  0  0
 12 10  1  0  0  0  0
 12 14  1  0  0  0  0
 13 12  2  0  0  0  0
 14 15  1  0  0  0  0
 15 17  1  0  0  0  0
 15 16  2  0  0  0  0
 17 18  1  0  0  0  0
 19 14  1  0  0  0  0
 20 28  1  0  0  0  0
 20 11  1  0  0  0  0
 21 20  1  0  0  0  0
 22 24  1  0  0  0  0
 22 21  1  0  0  0  0
 23 21  2  0  0  0  0
 24 27  1  0  0  0  0
 25 22  1  0  0  0  0
 26 24  2  0  0  0  0
 27 29  1  0  0  0  0
 27 28  1  0  0  0  0
 28 30  2  0  0  0  0
M  END
>  <Pose>
1

>  <Score>
-7.536

$$$$
