/Users/jonathanwahrer/Desktop/Msc/3_Semester/Drug_Design_Praktikum/waehrer_HTS_screening/HTS_experiment/out/docking_results/vina_output/3npc/1991_docked.pdbqt
 OpenBabel03192220563D

 31 34  0  0  1  0  0  0  0  0999 V2000
   52.2050   83.9340   26.1130 Cl  0  0  0  0  0  0  0  0  0  0  0  0
   52.3100   84.1870   24.3870 C   0  0  0  0  0  0  0  0  0  0  0  0
   53.4420   84.7260   23.8170 C   0  0  0  0  0  3  0  0  0  0  0  0
   53.5060   84.9180   22.4620 C   0  0  0  0  0  0  0  0  0  0  0  0
   52.4150   84.5610   21.6600 C   0  0  0  0  0  0  0  0  0  0  0  0
   51.2720   84.0180   22.2250 C   0  0  0  0  0  3  0  0  0  0  0  0
   51.2470   83.8430   23.5820 C   0  0  0  0  0  3  0  0  0  0  0  0
   52.3230   84.6910   20.2830 O   0  0  0  0  0  0  0  0  0  0  0  0
   53.3750   84.7580   19.3500 C   0  0  0  0  0  0  0  0  0  0  0  0
   54.2100   85.9860   19.5200 C   0  0  0  0  0  2  0  0  0  0  0  0
   54.4880   86.3570   20.8740 N   0  0  0  0  0  0  0  0  0  0  0  0
   54.7880   85.5070   21.9970 C   0  0  0  0  0  2  0  0  0  0  0  0
   54.4720   87.7560   21.2000 C   0  0  0  0  0  0  0  0  0  0  0  0
   54.7230   88.0630   22.3920 O   0  0  0  0  0  0  0  0  0  0  0  0
   54.1950   83.4790   19.4160 C   0  0  0  0  0  2  0  0  0  0  0  0
   53.6590   82.4600   18.4250 C   0  0  0  0  0  2  0  0  0  0  0  0
   53.8400   82.8530   17.1130 O   0  0  0  0  0  0  0  0  0  0  0  0
   53.8580   84.2390   17.0080 C   0  0  0  0  0  2  0  0  0  0  0  0
   52.7990   84.8060   17.9330 C   0  0  0  0  0  2  0  0  0  0  0  0
   54.1800   88.7770   20.1960 C   0  0  0  0  0  2  0  0  0  0  0  0
   55.2320   89.6430   19.8090 N   0  0  0  0  0  0  0  0  0  0  0  0
   55.3040   90.8310   20.6640 C   0  0  0  0  0  2  0  0  0  0  0  0
   54.0270   91.5730   20.5360 C   0  0  0  0  0  2  0  0  0  0  0  0
   53.5140   91.7860   19.1520 C   0  0  1  0  0  3  0  0  0  0  0  0
   54.1400   90.9990   18.0690 C   0  0  0  0  0  2  0  0  0  0  0  0
   55.2350   90.0700   18.4320 C   0  0  0  0  0  2  0  0  0  0  0  0
   52.0350   91.6830   19.0960 C   0  0  0  0  0  0  0  0  0  0  0  0
   51.4640   90.7520   19.7000 O   0  0  0  0  0  0  0  0  0  0  0  0
   51.2880   92.6300   18.3630 N   0  0  0  0  0  0  0  0  0  0  0  0
   50.7580   93.3450   18.9440 H   0  0  0  0  0  0  0  0  0  0  0  0
   51.2100   92.6890   17.3410 H   0  0  0  0  0  0  0  0  0  0  0  0
  2  1  1  0  0  0  0
  3  2  1  0  0  0  0
  4  3  2  0  0  0  0
  5  6  2  0  0  0  0
  5  4  1  0  0  0  0
  6  7  1  0  0  0  0
  7  2  2  0  0  0  0
  8  5  1  0  0  0  0
  9 15  1  0  0  0  0
  9 10  1  0  0  0  0
  9  8  1  0  0  0  0
 10 11  1  0  0  0  0
 11 13  1  0  0  0  0
 11 12  1  0  0  0  0
 12  4  1  0  0  0  0
 13 14  2  0  0  0  0
 16 15  1  0  0  0  0
 17 16  1  0  0  0  0
 18 17  1  0  0  0  0
 18 19  1  0  0  0  0
 19  9  1  0  0  0  0
 20 13  1  0  0  0  0
 21 20  1  0  0  0  0
 21 22  1  0  0  0  0
 23 22  1  0  0  0  0
 24 27  1  1  0  0  0
 24 23  1  0  0  0  0
 25 26  1  0  0  0  0
 25 24  1  0  0  0  0
 26 21  1  0  0  0  0
 27 28  2  0  0  0  0
 29 30  1  0  0  0  0
 29 27  1  0  0  0  0
 31 29  1  0  0  0  0
M  END
>  <Pose>
1

>  <Score>
-7.902

$$$$
