/Users/jonathanwahrer/Desktop/Msc/3_Semester/Drug_Design_Praktikum/waehrer_HTS_screening/HTS_experiment/out/docking_results/vina_output/3npc/2014_docked.pdbqt
 OpenBabel03192220573D

 26 29  0  0  0  0  0  0  0  0999 V2000
   54.5600   85.8620   21.4390 C   0  0  0  0  0  0  0  0  0  0  0  0
   54.5050   87.0820   20.9120 N   0  0  0  0  0  0  0  0  0  0  0  0
   55.5500   87.8330   21.3650 C   0  0  0  0  0  0  0  0  0  0  0  0
   56.2440   87.0130   22.1880 N   0  0  0  0  0  0  0  0  0  0  0  0
   55.6700   85.8420   22.2420 N   0  0  0  0  0  0  0  0  0  0  0  0
   55.5100   89.0670   20.8390 N   0  0  0  0  0  0  0  0  0  0  0  0
   54.4560   89.1590   20.0370 C   0  0  0  0  0  0  0  0  0  0  0  0
   53.8200   87.9070   20.0800 C   0  0  0  0  0  0  0  0  0  0  0  0
   52.7180   87.7010   19.3470 N   0  0  0  0  0  0  0  0  0  0  0  0
   52.2550   88.7300   18.5860 C   0  0  0  0  0  0  0  0  0  0  0  0
   51.2070   88.5070   17.9030 O   0  0  0  0  0  0  0  0  0  0  0  0
   52.8180   89.9330   18.5130 N   0  0  0  0  0  0  0  0  0  0  0  0
   53.9170   90.1410   19.2390 C   0  0  0  0  0  0  0  0  0  0  0  0
   54.4900   91.2610   19.2070 O   0  0  0  0  0  0  0  0  0  0  0  0
   52.2520   90.9950   17.6640 C   0  0  0  0  0  1  0  0  0  0  0  0
   52.0400   86.4370   19.3140 C   0  0  0  0  0  1  0  0  0  0  0  0
   56.4490   90.1420   21.0880 C   0  0  0  0  0  1  0  0  0  0  0  0
   53.7220   84.6760   21.3000 C   0  0  0  0  0  0  0  0  0  0  0  0
   52.7040   84.4150   22.2140 C   0  0  0  0  0  3  0  0  0  0  0  0
   51.8770   83.3410   22.0290 C   0  0  0  0  0  0  0  0  0  0  0  0
   50.4710   82.9660   23.2780 Br  0  0  0  0  0  0  0  0  0  0  0  0
   51.9920   82.4720   20.9580 C   0  0  0  0  0  3  0  0  0  0  0  0
   53.0080   82.7440   20.0570 C   0  0  0  0  0  3  0  0  0  0  0  0
   53.8380   83.8110   20.2320 C   0  0  0  0  0  0  0  0  0  0  0  0
   54.8780   84.1000   19.3200 O   0  0  0  0  0  0  0  0  0  0  0  0
   54.8980   83.5130   18.0320 C   0  0  0  0  0  1  0  0  0  0  0  0
  1  5  2  0  0  0  0
  2  3  1  0  0  0  0
  2  1  1  0  0  0  0
  3  4  2  0  0  0  0
  4  5  1  0  0  0  0
  6 17  1  0  0  0  0
  6  3  1  0  0  0  0
  7  8  2  0  0  0  0
  7  6  1  0  0  0  0
  8  2  1  0  0  0  0
  9  8  1  0  0  0  0
 10  9  1  0  0  0  0
 11 10  2  0  0  0  0
 12 10  1  0  0  0  0
 12 13  1  0  0  0  0
 13  7  1  0  0  0  0
 14 13  2  0  0  0  0
 15 12  1  0  0  0  0
 16  9  1  0  0  0  0
 18  1  1  0  0  0  0
 18 19  1  0  0  0  0
 20 19  2  0  0  0  0
 20 21  1  0  0  0  0
 22 20  1  0  0  0  0
 23 24  1  0  0  0  0
 23 22  2  0  0  0  0
 24 18  2  0  0  0  0
 25 24  1  0  0  0  0
 26 25  1  0  0  0  0
M  END
>  <Pose>
1

>  <Score>
-8.135

$$$$
