/Users/jonathanwahrer/Desktop/Msc/3_Semester/Drug_Design_Praktikum/waehrer_HTS_screening/HTS_experiment/out/docking_results/vina_output/3npc/2017_docked.pdbqt
 OpenBabel03192220573D

 24 27  0  0  0  0  0  0  0  0999 V2000
   58.3430   95.2110   23.4530 Cl  0  0  0  0  0  0  0  0  0  0  0  0
   57.3130   96.0220   24.6210 C   0  0  0  0  0  0  0  0  0  0  0  0
   56.1060   95.4920   25.0360 C   0  0  0  0  0  2  0  0  0  0  0  0
   55.3160   96.1290   25.9390 N   0  0  0  0  0  0  0  0  0  0  0  0
   55.6520   97.3080   26.4890 C   0  0  0  0  0  0  0  0  0  0  0  0
   54.8760   97.9460   27.3850 N   0  0  0  0  0  0  0  0  0  0  0  0
   53.7000   97.4390   27.7940 C   0  0  0  0  0  0  0  0  0  0  0  0
   53.3420   96.2130   27.2290 C   0  0  0  0  0  2  0  0  0  0  0  0
   54.1450   95.5690   26.3120 C   0  0  0  0  0  0  0  0  0  0  0  0
   53.8140   94.4510   25.8000 O   0  0  0  0  0  0  0  0  0  0  0  0
   56.8610   97.8630   26.0890 C   0  0  0  0  0  3  0  0  0  0  0  0
   57.6770   97.2320   25.1720 C   0  0  0  0  0  3  0  0  0  0  0  0
   52.8090   98.1050   28.7800 C   0  0  0  0  0  2  0  0  0  0  0  0
   51.5480   98.3460   28.1820 N   0  0  0  0  0  0  0  0  0  0  0  0
   51.5150   99.1160   26.9960 C   0  0  0  0  0  2  0  0  0  0  0  0
   50.2290   99.9020   26.7950 C   0  0  0  0  0  2  0  0  0  0  0  0
   49.9850  100.6190   28.0740 C   0  0  0  0  0  0  0  0  0  0  0  0
   50.0890   99.8570   29.2190 C   0  0  0  0  0  0  0  0  0  0  0  0
   49.6790  101.9610   28.0870 C   0  0  0  0  0  3  0  0  0  0  0  0
   49.8780  100.4600   30.3980 N   0  0  0  0  0  0  0  0  0  0  0  0
   50.4250   98.4220   29.0540 C   0  0  0  0  0  2  0  0  0  0  0  0
   49.5710  101.7930   30.4510 C   0  0  0  0  0  0  0  0  0  0  0  0
   49.4780  102.5090   29.3060 N   0  0  0  0  0  0  0  0  0  0  0  0
   49.3360  102.4720   31.7510 C   0  0  0  0  0  1  0  0  0  0  0  0
  1  2  1  0  0  0  0
  2  3  1  0  0  0  0
  2 12  2  0  0  0  0
  3  4  1  0  0  0  0
  4  9  1  0  0  0  0
  4  5  1  0  0  0  0
  5  6  1  0  0  0  0
  6  7  2  0  0  0  0
  7 13  1  0  0  0  0
  8  7  1  0  0  0  0
  9  8  1  0  0  0  0
 10  9  2  0  0  0  0
 11  5  2  0  0  0  0
 12 11  1  0  0  0  0
 14 13  1  0  0  0  0
 14 21  1  0  0  0  0
 15 14  1  0  0  0  0
 16 15  1  0  0  0  0
 16 17  1  0  0  0  0
 17 19  1  0  0  0  0
 17 18  2  0  0  0  0
 18 20  1  0  0  0  0
 19 23  2  0  0  0  0
 20 22  2  0  0  0  0
 21 18  1  0  0  0  0
 22 24  1  0  0  0  0
 23 22  1  0  0  0  0
M  END
>  <Pose>
1

>  <Score>
-9.161

$$$$
