/Users/jonathanwahrer/Desktop/Msc/3_Semester/Drug_Design_Praktikum/waehrer_HTS_screening/HTS_experiment/out/docking_results/vina_output/3npc/2020_docked.pdbqt
 OpenBabel03192220573D

 22 24  0  0  1  0  0  0  0  0999 V2000
   53.0970   83.2780   24.2720 C   0  0  2  0  0  3  0  0  0  0  0  0
   51.7440   82.7610   23.7100 C   0  0  2  0  0  3  0  0  0  0  0  0
   51.0990   84.1330   23.4340 C   0  0  0  0  0  0  0  0  0  0  0  0
   50.5530   84.4270   22.3870 O   0  0  0  0  0  0  0  0  0  0  0  0
   51.2390   85.0000   24.5830 N   0  0  0  0  0  0  0  0  0  0  0  0
   51.5170   84.2850   25.8420 C   0  0  1  0  0  0  0  0  0  0  0  0
   50.5440   83.1840   25.8240 N   0  0  0  0  0  0  0  0  0  0  0  0
   50.8460   82.2330   24.7830 C   0  0  0  0  0  0  0  0  0  0  0  0
   50.4050   81.0690   24.7630 O   0  0  0  0  0  0  0  0  0  0  0  0
   52.8980   83.6000   25.6550 C   0  0  0  0  0  2  0  0  0  0  0  0
   51.4690   85.0990   27.0590 C   0  0  0  0  0  1  0  0  0  0  0  0
   51.1720   86.0200   24.5400 H   0  0  0  0  0  0  0  0  0  0  0  0
   49.7530   83.1180   26.4750 H   0  0  0  0  0  0  0  0  0  0  0  0
   53.5040   84.2610   23.2740 C   0  0  0  0  0  0  0  0  0  0  0  0
   53.3860   83.8830   21.9300 C   0  0  0  0  0  3  0  0  0  0  0  0
   53.8320   84.7170   20.9020 C   0  0  0  0  0  0  0  0  0  0  0  0
   53.6660   84.1650   19.0890 Br  0  0  0  0  0  0  0  0  0  0  0  0
   54.3930   85.9250   21.1660 C   0  0  0  0  0  3  0  0  0  0  0  0
   54.5160   86.3090   22.4720 C   0  0  0  0  0  3  0  0  0  0  0  0
   54.0800   85.4970   23.5050 C   0  0  0  0  0  0  0  0  0  0  0  0
   54.1780   85.8560   24.8200 O   0  0  0  0  0  0  0  0  0  0  0  0
   54.8150   87.0540   25.1730 C   0  0  0  0  0  1  0  0  0  0  0  0
  1 14  1  6  0  0  0
  1 10  1  0  0  0  0
  2  3  1  1  0  0  0
  2  1  1  0  0  0  0
  2  8  1  0  0  0  0
  3  5  1  0  0  0  0
  4  3  2  0  0  0  0
  5  6  1  0  0  0  0
  6 11  1  1  0  0  0
  7  6  1  0  0  0  0
  7 13  1  0  0  0  0
  8  7  1  0  0  0  0
  9  8  2  0  0  0  0
 10  6  1  0  0  0  0
 12  5  1  0  0  0  0
 14 20  1  0  0  0  0
 15 14  2  0  0  0  0
 16 18  2  0  0  0  0
 16 15  1  0  0  0  0
 17 16  1  0  0  0  0
 18 19  1  0  0  0  0
 19 20  2  0  0  0  0
 20 21  1  0  0  0  0
 21 22  1  0  0  0  0
M  END
>  <Pose>
1

>  <Score>
-5.714

$$$$
