/Users/jonathanwahrer/Desktop/Msc/3_Semester/Drug_Design_Praktikum/waehrer_HTS_screening/HTS_experiment/out/docking_results/vina_output/3npc/2028_docked.pdbqt
 OpenBabel03192220573D

 31 34  0  0  1  0  0  0  0  0999 V2000
   50.3470   83.3550   24.4540 Cl  0  0  0  0  0  0  0  0  0  0  0  0
   51.7720   84.0320   25.2370 C   0  0  0  0  0  0  0  0  0  0  0  0
   52.7810   84.5750   24.4210 C   0  0  0  0  0  0  0  0  0  0  0  0
   53.8790   85.1020   25.0310 C   0  0  0  0  0  0  0  0  0  0  0  0
   54.0200   85.1070   26.4120 C   0  0  0  0  0  3  0  0  0  0  0  0
   53.0180   84.5670   27.1840 C   0  0  0  0  0  0  0  0  0  0  0  0
   51.8890   84.0280   26.6100 C   0  0  0  0  0  3  0  0  0  0  0  0
   53.1960   84.5850   28.6790 C   0  0  0  0  0  1  0  0  0  0  0  0
   54.7230   85.7180   23.9610 C   0  0  2  0  0  0  0  0  0  0  0  0
   56.1130   85.5860   24.1440 N   0  0  0  0  0  0  0  0  0  0  0  0
   56.5400   86.7160   24.9180 C   0  0  2  0  0  3  0  0  0  0  0  0
   55.4350   87.6890   25.0070 C   0  0  2  0  0  3  0  0  0  0  0  0
   54.5050   87.1970   23.8950 C   0  0  1  0  0  3  0  0  0  0  0  0
   55.1060   87.8280   22.7340 C   0  0  0  0  0  0  0  0  0  0  0  0
   55.2870   87.4620   21.5520 O   0  0  0  0  0  0  0  0  0  0  0  0
   55.5300   89.1350   23.2040 N   0  0  0  0  0  0  0  0  0  0  0  0
   55.7080   89.0650   24.6100 C   0  0  0  0  0  0  0  0  0  0  0  0
   56.0350   90.0130   25.3370 O   0  0  0  0  0  0  0  0  0  0  0  0
   54.1990   85.1230   22.7340 C   0  0  0  0  0  0  0  0  0  0  0  0
   54.6930   85.0410   21.5660 O   0  0  0  0  0  0  0  0  0  0  0  0
   52.9300   84.5750   23.0060 N   0  0  0  0  0  0  0  0  0  0  0  0
   56.3850   84.6810   24.5990 H   0  0  0  0  0  0  0  0  0  0  0  0
   52.1950   84.2200   22.3440 H   0  0  0  0  0  0  0  0  0  0  0  0
   57.8680   87.2720   24.4390 C   0  0  2  0  0  3  0  0  0  0  0  0
   58.3080   86.5200   23.2270 C   0  0  0  0  0  1  0  0  0  0  0  0
   58.8050   87.4550   25.4120 O   0  0  0  0  0  0  0  0  0  0  0  0
   59.3710   88.2600   25.2940 H   0  0  0  0  0  0  0  0  0  0  0  0
   55.7380   90.3300   22.4290 C   0  0  0  0  0  2  0  0  0  0  0  0
   54.6110   90.7350   21.5540 C   0  0  0  0  0  2  0  0  0  0  0  0
   54.2030   92.0340   21.6010 O   0  0  0  0  0  0  0  0  0  0  0  0
   55.0800   92.9050   22.2160 C   0  0  0  0  0  1  0  0  0  0  0  0
  1  2  1  0  0  0  0
  2  7  1  0  0  0  0
  3  4  1  0  0  0  0
  3  2  2  0  0  0  0
  4  5  2  0  0  0  0
  5  6  1  0  0  0  0
  6  8  1  0  0  0  0
  7  6  2  0  0  0  0
  9 19  1  6  0  0  0
  9 10  1  0  0  0  0
  9  4  1  0  0  0  0
 10 22  1  0  0  0  0
 10 11  1  0  0  0  0
 11 24  1  6  0  0  0
 11 12  1  0  0  0  0
 12 17  1  6  0  0  0
 13 14  1  6  0  0  0
 13  9  1  0  0  0  0
 13 12  1  0  0  0  0
 14 16  1  0  0  0  0
 15 14  2  0  0  0  0
 16 17  1  0  0  0  0
 17 18  2  0  0  0  0
 19 21  1  0  0  0  0
 20 19  2  0  0  0  0
 21  3  1  0  0  0  0
 23 21  1  0  0  0  0
 24 25  1  6  0  0  0
 24 26  1  0  0  0  0
 27 26  1  0  0  0  0
 28 16  1  0  0  0  0
 29 30  1  0  0  0  0
 29 28  1  0  0  0  0
 30 31  1  0  0  0  0
M  END
>  <Pose>
1

>  <Score>
-6.908

$$$$
