/Users/jonathanwahrer/Desktop/Msc/3_Semester/Drug_Design_Praktikum/waehrer_HTS_screening/HTS_experiment/out/docking_results/vina_output/3npc/2032_docked.pdbqt
 OpenBabel03192220573D

 31 34  0  0  0  0  0  0  0  0999 V2000
   52.3830   85.9090   18.6100 C   0  0  0  0  0  3  0  0  0  0  0  0
   52.8270   87.0740   18.9560 C   0  0  0  0  0  0  0  0  0  0  0  0
   53.8670   87.3330   19.8050 O   0  0  0  0  0  0  0  0  0  0  0  0
   54.0350   88.7130   19.9100 C   0  0  0  0  0  0  0  0  0  0  0  0
   53.1340   89.3980   19.1610 C   0  0  0  0  0  0  0  0  0  0  0  0
   53.1440   90.7960   19.1140 C   0  0  0  0  0  3  0  0  0  0  0  0
   54.0530   91.5430   19.8180 C   0  0  0  0  0  3  0  0  0  0  0  0
   54.9610   90.7890   20.5830 C   0  0  0  0  0  0  0  0  0  0  0  0
   54.9810   89.4370   20.6450 C   0  0  0  0  0  0  0  0  0  0  0  0
   55.8630   91.6030   21.3010 O   0  0  0  0  0  1  0  0  0  0  0  0
   52.3120   88.3700   18.5120 C   0  0  0  0  0  0  0  0  0  0  0  0
   51.3470   88.5730   17.7190 O   0  0  0  0  0  0  0  0  0  0  0  0
   52.8870   84.6140   19.0430 C   0  0  0  0  0  0  0  0  0  0  0  0
   52.6000   84.1450   20.2980 C   0  0  0  0  0  3  0  0  0  0  0  0
   53.1150   82.9120   20.7380 C   0  0  0  0  0  0  0  0  0  0  0  0
   52.7360   82.2240   22.4650 Br  0  0  0  0  0  0  0  0  0  0  0  0
   53.9170   82.1770   19.8930 C   0  0  0  0  0  3  0  0  0  0  0  0
   54.2050   82.6420   18.6510 C   0  0  0  0  0  3  0  0  0  0  0  0
   53.6910   83.8710   18.2090 C   0  0  0  0  0  0  0  0  0  0  0  0
   53.9420   84.3870   16.9850 O   0  0  0  0  0  0  0  0  0  0  0  0
   54.3740   83.7110   15.8550 C   0  0  0  0  0  1  0  0  0  0  0  0
   55.8990   88.6460   21.4850 C   0  0  0  0  0  2  0  0  0  0  0  0
   55.1810   87.8530   22.4550 N   0  0  0  0  0  4  0  0  0  0  0  0
   55.2050   88.5310   23.7390 C   0  0  0  0  0  2  0  0  0  0  0  0
   55.3760   87.6500   24.9030 C   0  0  0  0  0  2  0  0  0  0  0  0
   54.8390   86.3320   24.7830 N   0  0  0  0  0  0  0  0  0  0  0  0
   54.3820   85.9190   23.5350 C   0  0  0  0  0  2  0  0  0  0  0  0
   55.3130   86.4780   22.4260 C   0  0  0  0  0  2  0  0  0  0  0  0
   54.1270   88.0330   22.1180 H   0  0  0  0  0  0  0  0  0  0  0  0
   55.3480   85.3530   25.6670 C   0  0  0  0  0  2  0  0  0  0  0  0
   54.6460   84.0410   25.6470 C   0  0  0  0  0  1  0  0  0  0  0  0
  1  2  2  0  0  0  0
  1 13  1  0  0  0  0
  2  3  1  0  0  0  0
  3  4  1  0  0  0  0
  4  9  1  0  0  0  0
  5  4  2  0  0  0  0
  6  5  1  0  0  0  0
  6  7  2  0  0  0  0
  7  8  1  0  0  0  0
  8  9  2  0  0  0  0
  8 10  1  0  0  0  0
  9 22  1  0  0  0  0
 11  2  1  0  0  0  0
 11  5  1  0  0  0  0
 12 11  2  0  0  0  0
 13 14  1  0  0  0  0
 14 15  2  0  0  0  0
 15 16  1  0  0  0  0
 17 15  1  0  0  0  0
 18 17  2  0  0  0  0
 19 18  1  0  0  0  0
 19 13  2  0  0  0  0
 20 19  1  0  0  0  0
 21 20  1  0  0  0  0
 22 23  1  0  0  0  0
 23 24  1  0  0  0  0
 24 25  1  0  0  0  0
 26 25  1  0  0  0  0
 26 30  1  0  0  0  0
 27 26  1  0  0  0  0
 28 23  1  0  0  0  0
 28 27  1  0  0  0  0
 29 23  1  0  0  0  0
 31 30  1  0  0  0  0
M  END
>  <Pose>
1

>  <Score>
-8.440

$$$$
