/Users/jonathanwahrer/Desktop/Msc/3_Semester/Drug_Design_Praktikum/waehrer_HTS_screening/HTS_experiment/out/docking_results/vina_output/3npc/2041_docked.pdbqt
 OpenBabel03192220583D

 30 33  0  0  0  0  0  0  0  0999 V2000
   49.4420  102.3300   29.9250 N   0  0  0  0  0  0  0  0  0  0  0  0
   48.7010  102.0160   28.7190 C   0  0  0  0  0  2  0  0  0  0  0  0
   49.6000  101.3090   27.7130 C   0  0  0  0  0  2  0  0  0  0  0  0
   50.0710  100.0700   28.3320 N   0  0  0  0  0  0  0  0  0  0  0  0
   49.8070   99.9560   29.7360 C   0  0  0  0  0  2  0  0  0  0  0  0
   50.2430  101.2390   30.3920 C   0  0  0  0  0  2  0  0  0  0  0  0
   50.7080   99.1090   27.5400 C   0  0  0  0  0  0  0  0  0  0  0  0
   50.8580   99.3460   26.2730 O   0  0  0  0  0  0  0  0  0  0  0  0
   51.2570   97.8110   27.9440 C   0  0  0  0  0  2  0  0  0  0  0  0
   53.0360   97.7800   28.1220 S   0  0  0  0  0  0  0  0  0  0  0  0
   53.8650   96.6850   26.9830 C   0  0  0  0  0  0  0  0  0  0  0  0
   53.2810   95.5790   26.5410 N   0  0  0  0  0  0  0  0  0  0  0  0
   53.8510   94.7370   25.6750 C   0  0  0  0  0  3  0  0  0  0  0  0
   55.1090   95.0310   25.2210 N   0  0  0  0  0  0  0  0  0  0  0  0
   55.7260   96.1380   25.6480 C   0  0  0  0  0  0  0  0  0  0  0  0
   56.9520   96.6570   25.3490 N   0  0  0  0  0  0  0  0  0  0  0  0
   55.1310   97.0070   26.5440 C   0  0  0  0  0  0  0  0  0  0  0  0
   57.1030   97.7790   26.0220 N   0  0  0  0  0  0  0  0  0  0  0  0
   57.9040   96.0790   24.4460 C   0  0  0  0  0  1  0  0  0  0  0  0
   56.0190   98.0270   26.7600 C   0  0  0  0  0  3  0  0  0  0  0  0
   48.3680  102.8760   31.1510 S   0  0  0  0  0  0  0  0  0  0  0  0
   47.5250  103.9710   30.5380 O   0  0  0  0  0  0  0  0  0  0  0  0
   47.4340  101.8050   31.6010 O   0  0  0  0  0  0  0  0  0  0  0  0
   49.2880  103.5110   32.4960 C   0  0  0  0  0  0  0  0  0  0  0  0
   48.9910  103.2740   33.8190 C   0  0  0  0  0  3  0  0  0  0  0  0
   49.7490  103.8090   34.8320 C   0  0  0  0  0  3  0  0  0  0  0  0
   50.8490  104.6120   34.5330 C   0  0  0  0  0  0  0  0  0  0  0  0
   51.1630  104.8620   33.1930 C   0  0  0  0  0  3  0  0  0  0  0  0
   51.8020  105.2840   35.8300 Cl  0  0  0  0  0  0  0  0  0  0  0  0
   50.3880  104.3140   32.1940 C   0  0  0  0  0  3  0  0  0  0  0  0
  1  6  1  0  0  0  0
  1 21  1  0  0  0  0
  2  1  1  0  0  0  0
  3  4  1  0  0  0  0
  3  2  1  0  0  0  0
  4  5  1  0  0  0  0
  5  6  1  0  0  0  0
  7  9  1  0  0  0  0
  7  4  1  0  0  0  0
  8  7  2  0  0  0  0
  9 10  1  0  0  0  0
 11 10  1  0  0  0  0
 12 11  2  0  0  0  0
 13 12  1  0  0  0  0
 14 15  1  0  0  0  0
 14 13  2  0  0  0  0
 15 17  2  0  0  0  0
 16 15  1  0  0  0  0
 16 18  1  0  0  0  0
 17 20  1  0  0  0  0
 17 11  1  0  0  0  0
 18 20  2  0  0  0  0
 19 16  1  0  0  0  0
 21 23  2  0  0  0  0
 21 24  1  0  0  0  0
 22 21  2  0  0  0  0
 24 25  1  0  0  0  0
 25 26  2  0  0  0  0
 27 26  1  0  0  0  0
 27 29  1  0  0  0  0
 28 27  2  0  0  0  0
 30 24  2  0  0  0  0
 30 28  1  0  0  0  0
M  END
>  <Pose>
1

>  <Score>
-8.489

$$$$
