/Users/jonathanwahrer/Desktop/Msc/3_Semester/Drug_Design_Praktikum/waehrer_HTS_screening/HTS_experiment/out/docking_results/vina_output/3npc/2046_docked.pdbqt
 OpenBabel03192220583D

 26 29  0  0  0  0  0  0  0  0999 V2000
   54.9410   89.6650   20.9570 Cl  0  0  0  0  0  0  0  0  0  0  0  0
   54.0650   88.2560   20.4450 C   0  0  0  0  0  0  0  0  0  0  0  0
   52.9890   88.3560   19.6020 C   0  0  0  0  0  0  0  0  0  0  0  0
   52.3350   87.2010   19.2330 C   0  0  0  0  0  3  0  0  0  0  0  0
   52.7080   85.9480   19.6680 C   0  0  0  0  0  0  0  0  0  0  0  0
   53.7900   85.8660   20.5140 C   0  0  0  0  0  3  0  0  0  0  0  0
   54.4500   87.0160   20.8890 C   0  0  0  0  0  3  0  0  0  0  0  0
   52.0010   84.7490   19.2630 N   0  0  0  0  0  0  0  0  0  0  0  0
   51.2950   84.7720   18.5210 H   0  0  0  0  0  0  0  0  0  0  0  0
   52.3420   83.5510   19.9470 C   0  0  0  0  0  2  0  0  0  0  0  0
   53.4870   82.7810   19.4720 C   0  0  0  0  0  0  0  0  0  0  0  0
   54.3270   82.4870   20.4340 O   0  0  0  0  0  0  0  0  0  0  0  0
   53.8360   82.3170   18.2280 N   0  0  0  0  0  0  0  0  0  0  0  0
   53.0520   82.4120   17.0380 C   0  0  0  0  0  2  0  0  0  0  0  0
   55.1550   81.6800   18.0240 C   0  0  0  0  0  2  0  0  0  0  0  0
   53.8540   83.1850   15.9940 C   0  0  0  0  0  2  0  0  0  0  0  0
   54.9790   82.3730   15.7350 O   0  0  0  0  0  0  0  0  0  0  0  0
   55.8010   82.4080   16.8400 C   0  0  0  0  0  2  0  0  0  0  0  0
   52.5250   89.5890   19.1110 N   0  0  0  0  0  0  0  0  0  0  0  0
   51.5180   90.2670   19.6220 N   0  0  0  0  0  0  0  0  0  0  0  0
   51.3350   91.3860   18.9480 N   0  0  0  0  0  0  0  0  0  0  0  0
   52.2470   91.4000   17.9970 N   0  0  0  0  0  0  0  0  0  0  0  0
   53.0120   90.2710   18.0830 C   0  0  0  0  0  0  0  0  0  0  0  0
   54.1070   89.9910   17.1560 C   0  0  0  0  0  3  0  0  0  0  0  0
   54.4820   90.8100   16.0090 C   0  0  0  0  0  2  0  0  0  0  0  0
   55.3290   90.9470   17.2850 C   0  0  0  0  0  2  0  0  0  0  0  0
  2  7  1  0  0  0  0
  2  1  1  0  0  0  0
  3  2  2  0  0  0  0
  4  3  1  0  0  0  0
  4  5  2  0  0  0  0
  5  6  1  0  0  0  0
  6  7  2  0  0  0  0
  8  5  1  0  0  0  0
  8 10  1  0  0  0  0
  9  8  1  0  0  0  0
 11 10  1  0  0  0  0
 11 12  2  0  0  0  0
 13 11  1  0  0  0  0
 14 13  1  0  0  0  0
 15 13  1  0  0  0  0
 16 14  1  0  0  0  0
 17 16  1  0  0  0  0
 17 18  1  0  0  0  0
 18 15  1  0  0  0  0
 19  3  1  0  0  0  0
 19 20  1  0  0  0  0
 21 20  2  0  0  0  0
 22 23  2  0  0  0  0
 22 21  1  0  0  0  0
 23 19  1  0  0  0  0
 24 26  1  0  0  0  0
 24 23  1  0  0  0  0
 25 24  1  0  0  0  0
 25 26  1  0  0  0  0
M  END
>  <Pose>
1

>  <Score>
-8.221

$$$$
