/Users/jonathanwahrer/Desktop/Msc/3_Semester/Drug_Design_Praktikum/waehrer_HTS_screening/HTS_experiment/out/docking_results/vina_output/3npc/2072_docked.pdbqt
 OpenBabel03192220593D

 27 30  0  0  0  0  0  0  0  0999 V2000
   50.3450  100.6950   28.9780 N   0  0  0  0  0  0  0  0  0  0  0  0
   50.9790  100.7850   27.7140 C   0  0  0  0  0  2  0  0  0  0  0  0
   51.9510   99.7010   27.3460 C   0  0  0  0  0  2  0  0  0  0  0  0
   51.5290   98.4730   27.9360 N   0  0  0  0  0  0  0  0  0  0  0  0
   51.6580   98.6550   29.3810 C   0  0  0  0  0  2  0  0  0  0  0  0
   50.6140   99.6100   29.8250 C   0  0  0  0  0  2  0  0  0  0  0  0
   52.2310   97.3160   27.4970 C   0  0  0  0  0  2  0  0  0  0  0  0
   53.5470   97.1670   28.1810 C   0  0  0  0  0  2  0  0  0  0  0  0
   54.6470   97.0690   27.2460 N   0  0  0  0  0  0  0  0  0  0  0  0
   55.4550   98.0490   26.8430 N   0  0  0  0  0  0  0  0  0  0  0  0
   56.3670   97.5780   25.9820 C   0  0  0  0  0  0  0  0  0  0  0  0
   56.1330   96.2680   25.8350 N   0  0  0  0  0  0  0  0  0  0  0  0
   57.4190   98.1270   25.2700 C   0  0  0  0  0  3  0  0  0  0  0  0
   56.8980   95.5050   25.0170 C   0  0  0  0  0  3  0  0  0  0  0  0
   55.0620   95.9640   26.6250 C   0  0  0  0  0  0  0  0  0  0  0  0
   57.9490   96.0280   24.2990 C   0  0  0  0  0  3  0  0  0  0  0  0
   58.2140   97.3770   24.4310 C   0  0  0  0  0  3  0  0  0  0  0  0
   54.6080   94.7960   26.6890 O   0  0  0  0  0  0  0  0  0  0  0  0
   48.6440  100.8730   28.7740 S   0  0  0  0  0  0  0  0  0  0  0  0
   48.3870  101.4820   27.4140 O   0  0  0  0  0  0  0  0  0  0  0  0
   47.9420   99.5680   28.8270 O   0  0  0  0  0  0  0  0  0  0  0  0
   47.9800  101.9030   30.0510 C   0  0  0  0  0  0  0  0  0  0  0  0
   48.7390  103.1390   30.9460 S   0  0  0  0  0  0  0  0  0  0  0  0
   47.4330  103.6050   31.9340 C   0  0  0  0  0  0  0  0  0  0  0  0
   46.4260  102.7700   31.5320 C   0  0  0  0  0  3  0  0  0  0  0  0
   47.3560  104.9690   33.2950 Br  0  0  0  0  0  0  0  0  0  0  0  0
   46.7070  101.8930   30.5610 C   0  0  0  0  0  3  0  0  0  0  0  0
  1  6  1  0  0  0  0
  2  1  1  0  0  0  0
  3  2  1  0  0  0  0
  3  4  1  0  0  0  0
  4  5  1  0  0  0  0
  5  6  1  0  0  0  0
  7  4  1  0  0  0  0
  7  8  1  0  0  0  0
  9  8  1  0  0  0  0
 10  9  1  0  0  0  0
 11 10  2  0  0  0  0
 12 11  1  0  0  0  0
 12 15  1  0  0  0  0
 13 11  1  0  0  0  0
 14 12  1  0  0  0  0
 15 18  2  0  0  0  0
 15  9  1  0  0  0  0
 16 17  1  0  0  0  0
 16 14  2  0  0  0  0
 17 13  2  0  0  0  0
 19 21  2  0  0  0  0
 19  1  1  0  0  0  0
 19 22  1  0  0  0  0
 20 19  2  0  0  0  0
 22 27  2  0  0  0  0
 22 23  1  0  0  0  0
 23 24  1  0  0  0  0
 24 26  1  0  0  0  0
 25 24  2  0  0  0  0
 27 25  1  0  0  0  0
M  END
>  <Pose>
1

>  <Score>
-9.062

$$$$
