/Users/jonathanwahrer/Desktop/Msc/3_Semester/Drug_Design_Praktikum/waehrer_HTS_screening/HTS_experiment/out/docking_results/vina_output/3npc/2079_docked.pdbqt
 OpenBabel03192220593D

 31 34  0  0  0  0  0  0  0  0999 V2000
   52.9440   97.1630   27.4150 C   0  0  0  0  0  0  0  0  0  0  0  0
   51.7540   96.5050   27.2030 C   0  0  0  0  0  3  0  0  0  0  0  0
   50.5850   97.0240   27.7770 C   0  0  0  0  0  0  0  0  0  0  0  0
   50.6090   98.1670   28.5460 C   0  0  0  0  0  0  0  0  0  0  0  0
   49.5020   98.7590   29.1540 C   0  0  0  0  0  0  0  0  0  0  0  0
   48.2880   98.0710   28.9030 C   0  0  0  0  0  0  0  0  0  0  0  0
   48.2210   96.9170   28.1280 C   0  0  0  0  0  3  0  0  0  0  0  0
   49.3800   96.4040   27.5670 C   0  0  0  0  0  3  0  0  0  0  0  0
   47.0720   98.4890   29.4070 O   0  0  0  0  0  1  0  0  0  0  0  0
   51.7310   98.7410   28.7160 O   0  0  0  0  0  0  0  0  0  0  0  0
   52.8950   98.3270   28.2090 C   0  0  0  0  0  0  0  0  0  0  0  0
   53.9510   98.9340   28.4220 O   0  0  0  0  0  0  0  0  0  0  0  0
   49.4230  100.0120   29.8190 C   0  0  0  0  0  2  0  0  0  0  0  0
   50.0630  101.2220   29.3710 N   0  0  0  0  0  4  0  0  0  0  0  0
   49.2210  101.9520   28.3820 C   0  0  0  0  0  2  0  0  0  0  0  0
   47.7930  101.8970   28.7940 C   0  0  0  0  0  2  0  0  0  0  0  0
   47.4970  102.4920   30.0780 N   0  0  0  0  0  0  0  0  0  0  0  0
   48.5940  102.4370   30.9840 C   0  0  0  0  0  2  0  0  0  0  0  0
   49.9460  102.2050   30.4950 C   0  0  0  0  0  2  0  0  0  0  0  0
   51.0260  101.2250   29.1270 H   0  0  0  0  0  0  0  0  0  0  0  0
   46.3130  101.8540   30.6730 C   0  0  0  0  0  2  0  0  0  0  0  0
   45.8780  102.5380   31.9480 C   0  0  0  0  0  2  0  0  0  0  0  0
   44.7100  103.2700   31.7910 O   0  0  0  0  0  0  0  0  0  0  0  0
   44.9200  104.0760   31.2200 H   0  0  0  0  0  0  0  0  0  0  0  0
   54.1910   96.7430   26.7460 C   0  0  0  0  0  0  0  0  0  0  0  0
   54.2600   95.4030   26.3190 C   0  0  0  0  0  3  0  0  0  0  0  0
   55.3770   94.9520   25.6380 C   0  0  0  0  0  3  0  0  0  0  0  0
   56.4550   95.7830   25.3570 C   0  0  0  0  0  0  0  0  0  0  0  0
   57.8600   95.2460   24.4030 Cl  0  0  0  0  0  0  0  0  0  0  0  0
   56.3810   97.0960   25.7850 C   0  0  0  0  0  3  0  0  0  0  0  0
   55.2550   97.5240   26.4650 C   0  0  0  0  0  3  0  0  0  0  0  0
  1 11  1  0  0  0  0
  2  1  2  0  0  0  0
  2  3  1  0  0  0  0
  3  4  1  0  0  0  0
  4 10  1  0  0  0  0
  4  5  2  0  0  0  0
  5 13  1  0  0  0  0
  6  5  1  0  0  0  0
  6  9  1  0  0  0  0
  7  6  2  0  0  0  0
  8  3  2  0  0  0  0
  8  7  1  0  0  0  0
 11 12  2  0  0  0  0
 11 10  1  0  0  0  0
 14 13  1  0  0  0  0
 14 19  1  0  0  0  0
 15 16  1  0  0  0  0
 15 14  1  0  0  0  0
 16 17  1  0  0  0  0
 17 21  1  0  0  0  0
 17 18  1  0  0  0  0
 19 18  1  0  0  0  0
 20 14  1  0  0  0  0
 21 22  1  0  0  0  0
 23 22  1  0  0  0  0
 24 23  1  0  0  0  0
 25  1  1  0  0  0  0
 26 25  2  0  0  0  0
 27 26  1  0  0  0  0
 28 27  2  0  0  0  0
 28 30  1  0  0  0  0
 29 28  1  0  0  0  0
 30 31  2  0  0  0  0
 31 25  1  0  0  0  0
M  END
>  <Pose>
1

>  <Score>
-10.051

$$$$
