/Users/jonathanwahrer/Desktop/Msc/3_Semester/Drug_Design_Praktikum/waehrer_HTS_screening/HTS_experiment/out/docking_results/vina_output/3npc/2091_docked.pdbqt
 OpenBabel03192221003D

 28 31  0  0  0  0  0  0  0  0999 V2000
   53.4320   87.1100   20.0980 N   0  0  0  0  0  0  0  0  0  0  0  0
   52.9930   88.1460   19.3690 C   0  0  0  0  0  0  0  0  0  0  0  0
   53.7800   89.2440   19.6330 C   0  0  0  0  0  0  0  0  0  0  0  0
   54.6790   88.8410   20.5190 N   0  0  0  0  0  0  0  0  0  0  0  0
   54.4940   87.5480   20.8200 C   0  0  0  0  0  0  0  0  0  0  0  0
   53.6030   90.4540   19.0470 N   0  0  0  0  0  0  0  0  0  0  0  0
   52.5990   90.5580   18.1610 C   0  0  0  0  0  0  0  0  0  0  0  0
   52.4470   91.6860   17.6290 O   0  0  0  0  0  0  0  0  0  0  0  0
   51.7970   89.5220   17.8580 N   0  0  0  0  0  0  0  0  0  0  0  0
   51.9640   88.3170   18.4350 C   0  0  0  0  0  0  0  0  0  0  0  0
   51.2460   87.3420   18.1760 O   0  0  0  0  0  0  0  0  0  0  0  0
   54.4800   91.5540   19.3910 C   0  0  0  0  0  1  0  0  0  0  0  0
   51.0220   89.6110   17.1670 H   0  0  0  0  0  0  0  0  0  0  0  0
   52.8800   85.7770   20.1250 C   0  0  0  0  0  2  0  0  0  0  0  0
   53.4390   84.7910   19.2220 C   0  0  0  0  0  0  0  0  0  0  0  0
   53.5040   84.8790   17.8660 C   0  0  0  0  0  3  0  0  0  0  0  0
   54.0940   83.9080   17.0600 C   0  0  0  0  0  3  0  0  0  0  0  0
   54.6530   82.7820   17.6550 C   0  0  0  0  0  0  0  0  0  0  0  0
   55.4920   81.4120   16.6290 Br  0  0  0  0  0  0  0  0  0  0  0  0
   54.6110   82.6510   19.0240 C   0  0  0  0  0  3  0  0  0  0  0  0
   54.0170   83.6340   19.7790 C   0  0  0  0  0  3  0  0  0  0  0  0
   55.2640   86.7590   21.7370 N   0  0  0  0  0  0  0  0  0  0  0  0
   54.5560   86.0810   22.8010 C   0  0  0  0  0  2  0  0  0  0  0  0
   55.0150   86.6820   24.1210 C   0  0  0  0  0  2  0  0  0  0  0  0
   56.3010   87.2910   24.0370 N   0  0  0  0  0  0  0  0  0  0  0  0
   57.2090   86.7130   23.1030 C   0  0  0  0  0  2  0  0  0  0  0  0
   56.3770   88.6890   24.2310 C   0  0  0  0  0  1  0  0  0  0  0  0
   56.6930   86.6020   21.6910 C   0  0  0  0  0  2  0  0  0  0  0  0
  1 14  1  0  0  0  0
  1  5  1  0  0  0  0
  2  3  2  0  0  0  0
  2  1  1  0  0  0  0
  3  4  1  0  0  0  0
  4  5  2  0  0  0  0
  5 22  1  0  0  0  0
  6 12  1  0  0  0  0
  6  3  1  0  0  0  0
  7  6  1  0  0  0  0
  8  7  2  0  0  0  0
  9  7  1  0  0  0  0
  9 10  1  0  0  0  0
 10  2  1  0  0  0  0
 11 10  2  0  0  0  0
 13  9  1  0  0  0  0
 15 21  1  0  0  0  0
 15 14  1  0  0  0  0
 16 15  2  0  0  0  0
 17 18  2  0  0  0  0
 17 16  1  0  0  0  0
 18 20  1  0  0  0  0
 19 18  1  0  0  0  0
 20 21  2  0  0  0  0
 22 23  1  0  0  0  0
 23 24  1  0  0  0  0
 25 24  1  0  0  0  0
 25 27  1  0  0  0  0
 26 25  1  0  0  0  0
 28 22  1  0  0  0  0
 28 26  1  0  0  0  0
M  END
>  <Pose>
1

>  <Score>
-8.492

$$$$
