/Users/jonathanwahrer/Desktop/Msc/3_Semester/Drug_Design_Praktikum/waehrer_HTS_screening/HTS_experiment/out/docking_results/vina_output/3npc/2105_docked.pdbqt
 OpenBabel03192221003D

 29 32  0  0  1  0  0  0  0  0999 V2000
   52.7840   85.1350   25.7240 Cl  0  0  0  0  0  0  0  0  0  0  0  0
   52.3820   84.1160   27.0900 C   0  0  0  0  0  0  0  0  0  0  0  0
   51.3050   84.4310   27.9190 C   0  0  0  0  0  0  0  0  0  0  0  0
   50.9600   83.6640   28.9920 C   0  0  0  0  0  0  0  0  0  0  0  0
   51.7390   82.5380   29.2250 C   0  0  0  0  0  3  0  0  0  0  0  0
   52.8050   82.2090   28.4160 C   0  0  0  0  0  3  0  0  0  0  0  0
   53.1380   82.9970   27.3370 C   0  0  0  0  0  3  0  0  0  0  0  0
   49.7870   84.2680   29.6570 C   0  0  2  0  0  0  0  0  0  0  0  0
   50.1420   84.6860   31.0620 C   0  0  0  0  0  0  0  0  0  0  0  0
   49.4970   84.2770   32.1180 C   0  0  0  0  0  0  0  0  0  0  0  0
   48.3870   83.3860   32.0230 N   0  0  0  0  0  0  0  0  0  0  0  0
   47.9870   82.9430   30.7390 C   0  0  0  0  0  0  0  0  0  0  0  0
   48.6290   83.3490   29.6680 C   0  0  0  0  0  0  0  0  0  0  0  0
   48.1840   82.8680   28.3670 C   0  0  0  0  0  0  0  0  0  0  0  0
   47.8450   82.4920   27.3270 N   0  0  0  0  0  0  0  0  0  0  0  0
   50.1110   84.8830   33.3180 C   0  0  0  0  0  0  0  0  0  0  0  0
   51.1460   85.6600   32.8570 O   0  0  0  0  0  0  0  0  0  0  0  0
   51.2130   85.5790   31.4850 C   0  0  0  0  0  0  0  0  0  0  0  0
   52.0420   86.1610   30.7020 O   0  0  0  0  0  0  0  0  0  0  0  0
   50.5330   83.7810   34.2640 C   0  0  0  0  0  1  0  0  0  0  0  0
   49.1350   85.7750   34.0630 C   0  0  0  0  0  1  0  0  0  0  0  0
   49.4870   85.4740   28.8510 C   0  0  0  0  0  0  0  0  0  0  0  0
   48.5410   86.3150   29.0580 O   0  0  0  0  0  0  0  0  0  0  0  0
   50.4300   85.5410   27.8050 N   0  0  0  0  0  0  0  0  0  0  0  0
   47.8680   83.0560   32.8630 H   0  0  0  0  0  0  0  0  0  0  0  0
   50.4460   86.3120   27.0710 H   0  0  0  0  0  0  0  0  0  0  0  0
   46.8830   82.0500   30.5630 N   0  0  0  0  0  0  0  0  0  0  0  0
   47.0320   81.0890   30.2270 H   0  0  0  0  0  0  0  0  0  0  0  0
   45.9390   82.3910   30.7800 H   0  0  0  0  0  0  0  0  0  0  0  0
  1  2  1  0  0  0  0
  2  7  2  0  0  0  0
  2  3  1  0  0  0  0
  3  4  2  0  0  0  0
  4  5  1  0  0  0  0
  4  8  1  0  0  0  0
  6  5  2  0  0  0  0
  7  6  1  0  0  0  0
  8 22  1  6  0  0  0
  8 13  1  0  0  0  0
  8  9  1  0  0  0  0
  9 18  1  0  0  0  0
  9 10  2  0  0  0  0
 10 16  1  0  0  0  0
 11 10  1  0  0  0  0
 11 25  1  0  0  0  0
 12 11  1  0  0  0  0
 13 12  2  0  0  0  0
 14 13  1  0  0  0  0
 15 14  3  0  0  0  0
 16 21  1  0  0  0  0
 16 20  1  0  0  0  0
 17 16  1  0  0  0  0
 18 17  1  0  0  0  0
 19 18  2  0  0  0  0
 22 23  2  0  0  0  0
 24  3  1  0  0  0  0
 24 22  1  0  0  0  0
 26 24  1  0  0  0  0
 27 12  1  0  0  0  0
 27 29  1  0  0  0  0
 28 27  1  0  0  0  0
M  END
>  <Pose>
1

>  <Score>
-7.836

$$$$
