/Users/jonathanwahrer/Desktop/Msc/3_Semester/Drug_Design_Praktikum/waehrer_HTS_screening/HTS_experiment/out/docking_results/vina_output/3npc/2109_docked.pdbqt
 OpenBabel03192221003D

 21 24  0  0  1  0  0  0  0  0999 V2000
   49.6880  100.0850   28.2420 N   0  0  0  0  0  0  0  0  0  0  0  0
   48.3540   99.8510   28.7160 C   0  0  0  0  0  0  0  0  0  0  0  0
   47.8930   98.7560   29.1240 O   0  0  0  0  0  0  0  0  0  0  0  0
   47.5710  101.1060   28.6560 C   0  0  1  0  0  3  0  0  0  0  0  0
   46.9380  101.3990   29.8590 O   0  0  0  0  0  0  0  0  0  0  0  0
   47.8700  101.6630   30.7600 N   0  0  1  0  0  0  0  0  0  0  0  0
   49.0520  102.0940   30.1560 C   0  0  1  0  0  3  0  0  0  0  0  0
   48.6920  102.1400   28.6700 C   0  0  1  0  0  3  0  0  0  0  0  0
   49.7160  101.4550   27.8460 C   0  0  0  0  0  0  0  0  0  0  0  0
   50.4900  101.9270   26.9600 O   0  0  0  0  0  0  0  0  0  0  0  0
   49.6970  103.3270   30.6260 C   0  0  0  0  0  2  0  0  0  0  0  0
   49.0940  104.0320   31.7770 C   0  0  0  0  0  2  0  0  0  0  0  0
   48.4920  103.0080   32.7140 C   0  0  0  0  0  2  0  0  0  0  0  0
   47.4220  102.2920   31.9330 C   0  0  0  0  0  2  0  0  0  0  0  0
   50.7730   99.1570   28.1720 C   0  0  0  0  0  0  0  0  0  0  0  0
   50.6610   97.9050   27.6080 C   0  0  0  0  0  3  0  0  0  0  0  0
   51.7180   97.0120   27.5450 C   0  0  0  0  0  3  0  0  0  0  0  0
   52.9510   97.3580   28.0570 C   0  0  0  0  0  0  0  0  0  0  0  0
   54.2980   96.2360   27.9820 Cl  0  0  0  0  0  0  0  0  0  0  0  0
   53.0750   98.6100   28.6240 C   0  0  0  0  0  3  0  0  0  0  0  0
   52.0170   99.4970   28.6840 C   0  0  0  0  0  3  0  0  0  0  0  0
  1  2  1  0  0  0  0
  2  3  2  0  0  0  0
  4  8  1  0  0  0  0
  4  2  1  1  0  0  0
  4  5  1  0  0  0  0
  5  6  1  0  0  0  0
  6 14  1  1  0  0  0
  7 11  1  1  0  0  0
  7  6  1  0  0  0  0
  8  9  1  6  0  0  0
  8  7  1  0  0  0  0
  9  1  1  0  0  0  0
 10  9  2  0  0  0  0
 11 12  1  0  0  0  0
 12 13  1  0  0  0  0
 14 13  1  0  0  0  0
 15  1  1  0  0  0  0
 15 21  1  0  0  0  0
 16 15  2  0  0  0  0
 17 16  1  0  0  0  0
 17 18  2  0  0  0  0
 18 20  1  0  0  0  0
 19 18  1  0  0  0  0
 20 21  2  0  0  0  0
M  END
>  <Pose>
1

>  <Score>
-8.253

$$$$
