/Users/jonathanwahrer/Desktop/Msc/3_Semester/Drug_Design_Praktikum/waehrer_HTS_screening/HTS_experiment/out/docking_results/vina_output/3npc/2121_docked.pdbqt
 OpenBabel03192221013D

 31 34  0  0  1  0  0  0  0  0999 V2000
   53.2380   84.0590   20.7880 C   0  0  0  0  0  0  0  0  0  0  0  0
   54.5380   83.7630   20.9140 O   0  0  0  0  0  0  0  0  0  0  0  0
   52.4060   83.0500   21.2250 N   0  0  0  0  0  0  0  0  0  0  0  0
   53.1840   81.9020   21.7680 C   0  0  0  0  0  2  0  0  0  0  0  0
   53.4090   82.1160   23.2520 C   0  0  0  0  0  2  0  0  0  0  0  0
   52.3740   83.0580   23.7370 C   0  0  1  0  0  3  0  0  0  0  0  0
   50.9990   82.5210   23.5010 C   0  0  2  0  0  3  0  0  0  0  0  0
   50.3380   83.4760   22.4930 C   0  0  0  0  0  2  0  0  0  0  0  0
   50.9870   83.0930   21.1490 C   0  0  0  0  0  2  0  0  0  0  0  0
   53.0100   85.3630   20.2270 C   0  0  0  0  0  0  0  0  0  0  0  0
   52.0840   85.7870   19.3630 N   0  0  0  0  0  0  0  0  0  0  0  0
   52.2610   87.1110   19.0710 C   0  0  0  0  0  0  0  0  0  0  0  0
   51.3070   85.2580   18.9460 H   0  0  0  0  0  0  0  0  0  0  0  0
   53.3340   87.5340   19.7750 C   0  0  0  0  0  0  0  0  0  0  0  0
   51.5940   87.9860   18.2560 C   0  0  0  0  0  3  0  0  0  0  0  0
   53.8030   88.8510   19.7080 C   0  0  0  0  0  3  0  0  0  0  0  0
   53.8180   86.4650   20.5030 C   0  0  0  0  0  3  0  0  0  0  0  0
   53.1310   89.7060   18.8950 C   0  0  0  0  0  0  0  0  0  0  0  0
   53.6950   91.3750   18.7820 Cl  0  0  0  0  0  0  0  0  0  0  0  0
   52.0330   89.2980   18.1660 C   0  0  0  0  0  3  0  0  0  0  0  0
   52.4900   83.5600   25.0690 N   0  0  0  0  0  0  0  0  0  0  0  0
   52.4090   84.9940   25.1880 C   0  0  0  0  0  2  0  0  0  0  0  0
   53.5360   85.6710   24.5050 C   0  0  0  0  0  2  0  0  0  0  0  0
   54.7670   85.1130   25.0770 N   0  0  0  0  0  0  0  0  0  0  0  0
   54.5860   84.1330   26.1170 C   0  0  0  0  0  2  0  0  0  0  0  0
   56.0390   85.5630   24.6110 C   0  0  0  0  0  0  0  0  0  0  0  0
   53.6190   83.0350   25.7880 C   0  0  0  0  0  2  0  0  0  0  0  0
   57.0710   85.0750   25.0900 O   0  0  0  0  0  0  0  0  0  0  0  0
   56.0770   86.6180   23.5500 C   0  0  0  0  0  1  0  0  0  0  0  0
   50.2320   82.4010   24.6580 O   0  0  0  0  0  0  0  0  0  0  0  0
   50.0110   83.3480   24.9350 H   0  0  0  0  0  0  0  0  0  0  0  0
  1  2  2  0  0  0  0
  1  3  1  0  0  0  0
  3  4  1  0  0  0  0
  4  5  1  0  0  0  0
  6  5  1  1  0  0  0
  6 21  1  0  0  0  0
  7  6  1  0  0  0  0
  7 30  1  1  0  0  0
  8  7  1  0  0  0  0
  9  3  1  0  0  0  0
  9  8  1  0  0  0  0
 10 17  2  0  0  0  0
 10  1  1  0  0  0  0
 11 10  1  0  0  0  0
 12 11  1  0  0  0  0
 12 14  1  0  0  0  0
 13 11  1  0  0  0  0
 14 17  1  0  0  0  0
 15 12  2  0  0  0  0
 16 14  2  0  0  0  0
 18 16  1  0  0  0  0
 19 18  1  0  0  0  0
 20 15  1  0  0  0  0
 20 18  2  0  0  0  0
 21 22  1  0  0  0  0
 21 27  1  0  0  0  0
 23 24  1  0  0  0  0
 23 22  1  0  0  0  0
 24 25  1  0  0  0  0
 26 24  1  0  0  0  0
 26 28  2  0  0  0  0
 27 25  1  0  0  0  0
 29 26  1  0  0  0  0
 30 31  1  0  0  0  0
M  END
>  <Pose>
1

>  <Score>
-8.225

$$$$
