/Users/jonathanwahrer/Desktop/Msc/3_Semester/Drug_Design_Praktikum/waehrer_HTS_screening/HTS_experiment/out/docking_results/vina_output/3npc/2122_docked.pdbqt
 OpenBabel03192221013D

 29 32  0  0  0  0  0  0  0  0999 V2000
   55.4810   86.7380   24.8170 C   0  0  0  0  0  0  0  0  0  0  0  0
   54.9430   86.5940   26.0400 N   0  0  0  0  0  0  0  0  0  0  0  0
   53.8980   85.8180   25.9910 O   0  0  0  0  0  0  0  0  0  0  0  0
   53.7450   85.4520   24.7350 C   0  0  0  0  0  0  0  0  0  0  0  0
   54.7110   86.0090   23.9980 N   0  0  0  0  0  0  0  0  0  0  0  0
   56.7020   87.5270   24.4990 C   0  0  0  0  0  2  0  0  0  0  0  0
   56.7730   87.7970   23.0920 N   0  0  0  0  0  0  0  0  0  0  0  0
   56.3370   88.8480   22.3910 C   0  0  0  0  0  0  0  0  0  0  0  0
   55.6850   90.0150   22.7640 C   0  0  0  0  0  3  0  0  0  0  0  0
   56.6370   88.6590   21.0400 C   0  0  0  0  0  0  0  0  0  0  0  0
   55.3620   90.9370   21.7730 C   0  0  0  0  0  0  0  0  0  0  0  0
   54.5350   92.4150   22.2370 Cl  0  0  0  0  0  0  0  0  0  0  0  0
   55.6740   90.7190   20.4430 C   0  0  0  0  0  3  0  0  0  0  0  0
   56.3140   89.5740   20.0800 C   0  0  0  0  0  3  0  0  0  0  0  0
   57.2330   87.5070   21.0030 O   0  0  0  0  0  0  0  0  0  0  0  0
   57.3330   86.9690   22.1920 C   0  0  0  0  0  0  0  0  0  0  0  0
   57.8740   85.8520   22.4120 O   0  0  0  0  0  0  0  0  0  0  0  0
   52.6260   84.5430   24.3150 C   0  0  0  0  0  0  0  0  0  0  0  0
   51.8870   84.2480   25.3170 O   0  0  0  0  0  0  0  0  0  0  0  0
   52.5090   84.1550   23.0320 N   0  0  0  0  0  0  0  0  0  0  0  0
   51.3550   83.4850   23.3500 H   0  0  0  0  0  0  0  0  0  0  0  0
   52.3730   83.7460   21.7190 C   0  0  0  0  0  2  0  0  0  0  0  0
   53.6060   84.0430   20.8580 C   0  0  0  0  0  2  0  0  0  0  0  0
   53.4660   85.1280   19.9700 N   0  0  0  0  0  0  0  0  0  0  0  0
   53.9170   86.3300   20.5540 C   0  0  0  0  0  2  0  0  0  0  0  0
   53.2620   87.5440   19.9870 C   0  0  0  0  0  2  0  0  0  0  0  0
   53.1530   87.4000   18.6280 O   0  0  0  0  0  0  0  0  0  0  0  0
   52.2840   86.3980   18.2370 C   0  0  0  0  0  2  0  0  0  0  0  0
   52.3800   85.1600   19.0790 C   0  0  0  0  0  2  0  0  0  0  0  0
  1  2  2  0  0  0  0
  3  2  1  0  0  0  0
  4  3  1  0  0  0  0
  5  4  2  0  0  0  0
  5  1  1  0  0  0  0
  6  1  1  0  0  0  0
  7  6  1  0  0  0  0
  8  9  1  0  0  0  0
  8  7  1  0  0  0  0
 10  8  2  0  0  0  0
 11 12  1  0  0  0  0
 11  9  2  0  0  0  0
 13 11  1  0  0  0  0
 14 13  2  0  0  0  0
 14 10  1  0  0  0  0
 15 10  1  0  0  0  0
 15 16  1  0  0  0  0
 16 17  2  0  0  0  0
 16  7  1  0  0  0  0
 18  4  1  0  0  0  0
 18 19  2  0  0  0  0
 20 21  1  0  0  0  0
 20 18  1  0  0  0  0
 22 20  1  0  0  0  0
 23 22  1  0  0  0  0
 24 25  1  0  0  0  0
 24 23  1  0  0  0  0
 26 25  1  0  0  0  0
 27 26  1  0  0  0  0
 28 27  1  0  0  0  0
 28 29  1  0  0  0  0
 29 24  1  0  0  0  0
M  END
>  <Pose>
1

>  <Score>
-8.057

$$$$
