/Users/jonathanwahrer/Desktop/Msc/3_Semester/Drug_Design_Praktikum/waehrer_HTS_screening/HTS_experiment/out/docking_results/vina_output/3npc/2134_docked.pdbqt
 OpenBabel03192221023D

 36 39  0  0  0  0  0  0  0  0999 V2000
   54.2910   89.4300   20.8120 C   0  0  0  0  0  0  0  0  0  0  0  0
   54.4950   88.1380   20.7240 N   0  0  0  0  0  0  0  0  0  0  0  0
   53.7420   87.5510   19.7400 N   0  0  0  0  0  0  0  0  0  0  0  0
   52.9850   88.6070   19.1480 C   0  0  0  0  0  0  0  0  0  0  0  0
   52.1160   88.6370   18.1810 N   0  0  0  0  0  0  0  0  0  0  0  0
   51.4880   89.8430   17.7750 N   0  0  0  0  0  0  0  0  0  0  0  0
   51.7690   91.0740   18.3950 C   0  0  0  0  0  0  0  0  0  0  0  0
   51.1830   92.2080   18.0320 C   0  0  0  0  0  2  0  0  0  0  0  0
   52.7420   91.0630   19.4810 C   0  0  0  0  0  0  0  0  0  0  0  0
   53.0040   92.1340   20.0390 O   0  0  0  0  0  0  0  0  0  0  0  0
   53.3320   89.8100   19.8310 N   0  0  0  0  0  0  0  0  0  0  0  0
   50.8070   89.7560   16.9880 H   0  0  0  0  0  0  0  0  0  0  0  0
   54.9480   90.3060   21.7610 C   0  0  0  0  0  0  0  0  0  0  0  0
   55.1790   91.6590   21.4150 N   0  0  0  0  0  0  0  0  0  0  0  0
   54.8730   92.0660   20.5180 H   0  0  0  0  0  0  0  0  0  0  0  0
   55.3290   89.8820   22.8990 O   0  0  0  0  0  0  0  0  0  0  0  0
   55.8350   92.4750   22.3290 N   0  0  0  0  0  0  0  0  0  0  0  0
   55.2430   93.3680   23.2420 C   0  0  0  0  0  0  0  0  0  0  0  0
   55.9690   94.1670   24.1430 N   0  0  0  0  0  0  0  0  0  0  0  0
   53.9850   93.4600   23.2620 O   0  0  0  0  0  0  0  0  0  0  0  0
   57.0180   94.1190   24.1450 H   0  0  0  0  0  0  0  0  0  0  0  0
   56.9030   92.3900   22.2920 H   0  0  0  0  0  0  0  0  0  0  0  0
   55.4050   95.0660   25.0920 C   0  0  0  0  0  0  0  0  0  0  0  0
   56.0550   96.2530   25.4230 C   0  0  0  0  0  3  0  0  0  0  0  0
   55.5330   97.1410   26.3370 C   0  0  0  0  0  3  0  0  0  0  0  0
   54.3350   96.8090   26.9150 C   0  0  0  0  0  0  0  0  0  0  0  0
   53.5780   97.8840   28.0970 Cl  0  0  0  0  0  0  0  0  0  0  0  0
   53.6620   95.6540   26.6190 C   0  0  0  0  0  3  0  0  0  0  0  0
   54.1950   94.7740   25.7040 C   0  0  0  0  0  3  0  0  0  0  0  0
   53.6980   86.1620   19.4250 C   0  0  0  0  0  0  0  0  0  0  0  0
   53.4000   85.7240   18.1580 C   0  0  0  0  0  3  0  0  0  0  0  0
   53.3840   84.3860   17.7870 C   0  0  0  0  0  3  0  0  0  0  0  0
   53.6800   83.4110   18.7190 C   0  0  0  0  0  0  0  0  0  0  0  0
   53.9800   83.8270   19.9990 C   0  0  0  0  0  3  0  0  0  0  0  0
   53.7120   81.9620   18.3540 C   0  0  0  0  0  1  0  0  0  0  0  0
   53.9870   85.1780   20.3430 C   0  0  0  0  0  3  0  0  0  0  0  0
  1 13  1  0  0  0  0
  2  1  2  0  0  0  0
  3  2  1  0  0  0  0
  4  3  1  0  0  0  0
  4 11  1  0  0  0  0
  5  4  2  0  0  0  0
  6  5  1  0  0  0  0
  6  7  1  0  0  0  0
  7  9  1  0  0  0  0
  8  7  2  0  0  0  0
  9 11  1  0  0  0  0
  9 10  2  0  0  0  0
 11  1  1  0  0  0  0
 12  6  1  0  0  0  0
 13 16  2  0  0  0  0
 14 13  1  0  0  0  0
 14 17  1  0  0  0  0
 15 14  1  0  0  0  0
 17 18  1  0  0  0  0
 18 20  2  0  0  0  0
 18 19  1  0  0  0  0
 19 21  1  0  0  0  0
 19 23  1  0  0  0  0
 22 17  1  0  0  0  0
 23 24  2  0  0  0  0
 23 29  1  0  0  0  0
 24 25  1  0  0  0  0
 25 26  2  0  0  0  0
 26 27  1  0  0  0  0
 28 26  1  0  0  0  0
 29 28  2  0  0  0  0
 30  3  1  0  0  0  0
 30 36  1  0  0  0  0
 31 30  2  0  0  0  0
 32 31  1  0  0  0  0
 32 33  2  0  0  0  0
 33 34  1  0  0  0  0
 34 36  2  0  0  0  0
 35 33  1  0  0  0  0
M  END
>  <Pose>
1

>  <Score>
-10.841

$$$$
