/Users/jonathanwahrer/Desktop/Msc/3_Semester/Drug_Design_Praktikum/waehrer_HTS_screening/HTS_experiment/out/docking_results/vina_output/3npc/2136_docked.pdbqt
 OpenBabel03192221023D

 33 37  0  0  1  0  0  0  0  0999 V2000
   53.8770   80.5720   30.3860 Cl  0  0  0  0  0  0  0  0  0  0  0  0
   53.3900   82.1930   29.9360 C   0  0  0  0  0  0  0  0  0  0  0  0
   53.6750   82.7410   28.7020 C   0  0  0  0  0  0  0  0  0  0  0  0
   53.2740   84.0330   28.3780 C   0  0  0  0  0  0  0  0  0  0  0  0
   52.5870   84.7220   29.3390 C   0  0  0  0  0  3  0  0  0  0  0  0
   52.2940   84.1920   30.5730 C   0  0  0  0  0  3  0  0  0  0  0  0
   52.6890   82.9260   30.8870 C   0  0  0  0  0  3  0  0  0  0  0  0
   53.7230   84.3190   27.0100 C   0  0  2  0  0  0  0  0  0  0  0  0
   54.5980   85.4750   26.9420 N   0  0  0  0  0  0  0  0  0  0  0  0
   54.5920   85.7760   25.5090 C   0  0  1  0  0  3  0  0  0  0  0  0
   53.2280   85.4760   25.0150 C   0  0  2  0  0  3  0  0  0  0  0  0
   52.5700   84.7430   26.1400 C   0  0  1  0  0  3  0  0  0  0  0  0
   51.8200   83.6130   25.5850 C   0  0  0  0  0  0  0  0  0  0  0  0
   50.9540   82.9640   26.2250 O   0  0  0  0  0  0  0  0  0  0  0  0
   52.2710   83.4380   24.2480 N   0  0  0  0  0  0  0  0  0  0  0  0
   53.2420   84.4250   23.9300 C   0  0  0  0  0  0  0  0  0  0  0  0
   54.0160   84.4820   22.9350 O   0  0  0  0  0  0  0  0  0  0  0  0
   54.4250   83.1150   26.5370 C   0  0  0  0  0  0  0  0  0  0  0  0
   54.9680   82.9130   25.4410 O   0  0  0  0  0  0  0  0  0  0  0  0
   54.3710   82.1760   27.6010 N   0  0  0  0  0  0  0  0  0  0  0  0
   55.5750   85.2490   27.2760 H   0  0  0  0  0  0  0  0  0  0  0  0
   54.7760   81.2010   27.6030 H   0  0  0  0  0  0  0  0  0  0  0  0
   54.9660   87.2050   25.2520 C   0  0  0  0  0  2  0  0  0  0  0  0
   55.5800   87.4520   23.9370 C   0  0  0  0  0  0  0  0  0  0  0  0
   56.6130   86.6060   23.5380 C   0  0  0  0  0  3  0  0  0  0  0  0
   57.1910   86.7970   22.3100 C   0  0  0  0  0  3  0  0  0  0  0  0
   56.7970   87.7900   21.4450 C   0  0  0  0  0  3  0  0  0  0  0  0
   55.7730   88.6050   21.8760 C   0  0  0  0  0  3  0  0  0  0  0  0
   55.1560   88.4570   23.1000 C   0  0  0  0  0  3  0  0  0  0  0  0
   51.7960   82.3920   23.3450 C   0  0  0  0  0  2  0  0  0  0  0  0
   50.6070   82.9460   22.5730 C   0  0  0  0  0  2  0  0  0  0  0  0
   50.6170   82.4970   21.2620 O   0  0  0  0  0  0  0  0  0  0  0  0
   51.8200   82.8300   20.6700 C   0  0  0  0  0  1  0  0  0  0  0  0
  2  1  1  0  0  0  0
  2  7  1  0  0  0  0
  3  2  2  0  0  0  0
  4  3  1  0  0  0  0
  4  5  2  0  0  0  0
  5  6  1  0  0  0  0
  6  7  2  0  0  0  0
  8 18  1  6  0  0  0
  8  4  1  0  0  0  0
  9  8  1  0  0  0  0
  9 21  1  0  0  0  0
 10 23  1  1  0  0  0
 10  9  1  0  0  0  0
 11 16  1  6  0  0  0
 11 10  1  0  0  0  0
 11 12  1  0  0  0  0
 12 13  1  6  0  0  0
 12  8  1  0  0  0  0
 13 14  2  0  0  0  0
 15 13  1  0  0  0  0
 16 15  1  0  0  0  0
 17 16  2  0  0  0  0
 18 20  1  0  0  0  0
 19 18  2  0  0  0  0
 20 22  1  0  0  0  0
 20  3  1  0  0  0  0
 24 23  1  0  0  0  0
 25 24  1  0  0  0  0
 26 25  2  0  0  0  0
 27 28  2  0  0  0  0
 27 26  1  0  0  0  0
 28 29  1  0  0  0  0
 29 24  2  0  0  0  0
 30 15  1  0  0  0  0
 31 30  1  0  0  0  0
 32 31  1  0  0  0  0
 33 32  1  0  0  0  0
M  END
>  <Pose>
1

>  <Score>
-7.568

$$$$
