/Users/jonathanwahrer/Desktop/Msc/3_Semester/Drug_Design_Praktikum/waehrer_HTS_screening/HTS_experiment/out/docking_results/vina_output/3npc/2139_docked.pdbqt
 OpenBabel03192221023D

 27 30  0  0  0  0  0  0  0  0999 V2000
   55.7690   88.2120   22.0130 N   0  0  0  0  0  0  0  0  0  0  0  0
   55.6730   89.0700   23.1260 C   0  0  0  0  0  2  0  0  0  0  0  0
   55.2980   88.4300   24.4350 C   0  0  0  0  0  2  0  0  0  0  0  0
   55.6610   86.9940   24.3070 N   0  0  0  0  0  0  0  0  0  0  0  0
   56.8720   86.7720   23.6120 C   0  0  0  0  0  2  0  0  0  0  0  0
   56.6160   87.0610   22.1480 C   0  0  0  0  0  2  0  0  0  0  0  0
   54.7850   86.0670   24.9100 C   0  0  0  0  0  0  0  0  0  0  0  0
   54.8170   85.9070   26.2670 N   0  0  0  0  0  0  0  0  0  0  0  0
   54.0750   85.0460   26.9520 C   0  0  0  0  0  0  0  0  0  0  0  0
   53.2180   84.2610   26.2780 N   0  0  0  0  0  0  0  0  0  0  0  0
   53.1410   84.3750   24.9320 C   0  0  0  0  0  0  0  0  0  0  0  0
   52.3850   83.7470   24.0140 N   0  0  0  0  0  0  0  0  0  0  0  0
   53.9200   85.2790   24.2070 C   0  0  0  0  0  0  0  0  0  0  0  0
   52.6730   84.2270   22.8040 C   0  0  0  0  0  3  0  0  0  0  0  0
   53.6200   85.1780   22.9020 N   0  0  0  0  0  0  0  0  0  0  0  0
   54.0020   85.7080   22.0900 H   0  0  0  0  0  0  0  0  0  0  0  0
   54.1590   84.9290   28.3880 N   0  0  0  0  0  0  0  0  0  0  0  0
   54.2470   85.7520   28.9990 H   0  0  0  0  0  0  0  0  0  0  0  0
   54.1300   83.9890   28.8300 H   0  0  0  0  0  0  0  0  0  0  0  0
   54.6260   88.0520   21.1980 C   0  0  0  0  0  2  0  0  0  0  0  0
   54.5570   88.8930   20.0040 C   0  0  0  0  0  0  0  0  0  0  0  0
   53.5760   88.6970   19.0650 C   0  0  0  0  0  3  0  0  0  0  0  0
   53.4540   89.4590   17.9080 C   0  0  0  0  0  3  0  0  0  0  0  0
   54.3810   90.4610   17.7170 C   0  0  0  0  0  0  0  0  0  0  0  0
   54.2930   91.4630   16.2820 Cl  0  0  0  0  0  0  0  0  0  0  0  0
   55.3670   90.6590   18.6560 C   0  0  0  0  0  3  0  0  0  0  0  0
   55.4700   89.8950   19.7930 C   0  0  0  0  0  3  0  0  0  0  0  0
  1  6  1  0  0  0  0
  1  2  1  0  0  0  0
  2  3  1  0  0  0  0
  4  3  1  0  0  0  0
  4  7  1  0  0  0  0
  5  4  1  0  0  0  0
  6  5  1  0  0  0  0
  7  8  1  0  0  0  0
  8  9  2  0  0  0  0
  9 17  1  0  0  0  0
 10  9  1  0  0  0  0
 11 10  2  0  0  0  0
 12 11  1  0  0  0  0
 13  7  2  0  0  0  0
 13 11  1  0  0  0  0
 14 15  1  0  0  0  0
 14 12  2  0  0  0  0
 15 13  1  0  0  0  0
 16 15  1  0  0  0  0
 17 19  1  0  0  0  0
 17 18  1  0  0  0  0
 20  1  1  0  0  0  0
 21 20  1  0  0  0  0
 22 21  2  0  0  0  0
 23 22  1  0  0  0  0
 24 23  2  0  0  0  0
 24 26  1  0  0  0  0
 25 24  1  0  0  0  0
 26 27  2  0  0  0  0
 27 21  1  0  0  0  0
M  END
>  <Pose>
1

>  <Score>
-8.542

$$$$
