/Users/jonathanwahrer/Desktop/Msc/3_Semester/Drug_Design_Praktikum/waehrer_HTS_screening/HTS_experiment/out/docking_results/vina_output/3npc/2164_docked.pdbqt
 OpenBabel03192221033D

 25 28  0  0  1  0  0  0  0  0999 V2000
   56.4990   88.7360   23.3130 C   0  0  2  0  0  3  0  0  0  0  0  0
   56.8890   87.4370   23.9690 C   0  0  0  0  0  2  0  0  0  0  0  0
   55.5440   87.2910   24.5450 N   0  0  0  0  0  0  0  0  0  0  0  0
   55.3700   88.7100   24.3010 C   0  0  0  0  0  2  0  0  0  0  0  0
   56.0760   88.5900   21.8770 C   0  0  0  0  0  0  0  0  0  0  0  0
   54.8830   89.1960   21.4520 N   0  0  0  0  0  0  0  0  0  0  0  0
   54.2980   89.7540   22.1750 H   0  0  0  0  0  0  0  0  0  0  0  0
   56.8430   87.9240   21.1670 O   0  0  0  0  0  0  0  0  0  0  0  0
   54.3640   89.1430   20.1430 C   0  0  0  0  0  0  0  0  0  0  0  0
   54.7320   90.1350   19.2230 C   0  0  0  0  0  3  0  0  0  0  0  0
   54.2720   90.1600   17.9270 C   0  0  0  0  0  0  0  0  0  0  0  0
   54.7980   91.5280   16.7090 Br  0  0  0  0  0  0  0  0  0  0  0  0
   53.4200   89.1880   17.4940 C   0  0  0  0  0  3  0  0  0  0  0  0
   53.0480   88.2150   18.3650 C   0  0  0  0  0  3  0  0  0  0  0  0
   53.5100   88.1810   19.6830 C   0  0  0  0  0  3  0  0  0  0  0  0
   54.8180   86.1920   25.0830 C   0  0  0  0  0  0  0  0  0  0  0  0
   54.6750   86.0070   26.4210 N   0  0  0  0  0  0  0  0  0  0  0  0
   53.9730   84.9440   26.9120 C   0  0  0  0  0  3  0  0  0  0  0  0
   53.4040   84.0520   26.0950 N   0  0  0  0  0  0  0  0  0  0  0  0
   53.5050   84.1730   24.7700 C   0  0  0  0  0  0  0  0  0  0  0  0
   53.0340   83.4240   23.7530 N   0  0  0  0  0  0  0  0  0  0  0  0
   54.2160   85.2480   24.2760 C   0  0  0  0  0  0  0  0  0  0  0  0
   53.4340   84.0080   22.6450 N   0  0  0  0  0  0  0  0  0  0  0  0
   52.2350   82.2030   23.8290 C   0  0  0  0  0  1  0  0  0  0  0  0
   54.1460   85.1060   22.9250 N   0  0  0  0  0  0  0  0  0  0  0  0
  1  5  1  6  0  0  0
  1  2  1  0  0  0  0
  1  4  1  0  0  0  0
  2  3  1  0  0  0  0
  3 16  1  0  0  0  0
  4  3  1  0  0  0  0
  6  5  1  0  0  0  0
  6  7  1  0  0  0  0
  8  5  2  0  0  0  0
  9  6  1  0  0  0  0
 10  9  2  0  0  0  0
 11 10  1  0  0  0  0
 12 11  1  0  0  0  0
 13 11  2  0  0  0  0
 13 14  1  0  0  0  0
 14 15  2  0  0  0  0
 15  9  1  0  0  0  0
 16 17  1  0  0  0  0
 17 18  2  0  0  0  0
 19 18  1  0  0  0  0
 20 19  2  0  0  0  0
 21 24  1  0  0  0  0
 21 20  1  0  0  0  0
 22 20  1  0  0  0  0
 22 16  2  0  0  0  0
 23 25  2  0  0  0  0
 23 21  1  0  0  0  0
 25 22  1  0  0  0  0
M  END
>  <Pose>
1

>  <Score>
-8.256

$$$$
