/Users/jonathanwahrer/Desktop/Msc/3_Semester/Drug_Design_Praktikum/waehrer_HTS_screening/HTS_experiment/out/docking_results/vina_output/3npc/2170_docked.pdbqt
 OpenBabel03192221033D

 32 36  0  0  0  0  0  0  0  0999 V2000
   53.6860   86.1000   19.8870 N   0  0  0  0  0  0  0  0  0  0  0  0
   53.1830   87.2680   19.5460 N   0  0  0  0  0  0  0  0  0  0  0  0
   52.1040   87.1360   18.7610 C   0  0  0  0  0  0  0  0  0  0  0  0
   51.6090   88.3360   18.4230 N   0  0  0  0  0  0  0  0  0  0  0  0
   52.3690   89.2990   18.9900 C   0  0  0  0  0  0  0  0  0  0  0  0
   53.3600   88.6080   19.6960 C   0  0  0  0  0  0  0  0  0  0  0  0
   54.2690   89.4050   20.3580 C   0  0  0  0  0  0  0  0  0  0  0  0
   55.1880   88.8240   21.0090 O   0  0  0  0  0  0  0  0  0  0  0  0
   54.2300   90.7640   20.3460 N   0  0  0  0  0  0  0  0  0  0  0  0
   53.2470   91.3500   19.6470 C   0  0  0  0  0  0  0  0  0  0  0  0
   53.2280   92.6250   19.6480 O   0  0  0  0  0  0  0  0  0  0  0  0
   52.3280   90.6410   18.9760 N   0  0  0  0  0  0  0  0  0  0  0  0
   51.3000   91.3310   18.2440 C   0  0  0  0  0  1  0  0  0  0  0  0
   55.2220   91.5270   21.0690 C   0  0  0  0  0  1  0  0  0  0  0  0
   51.9380   85.7970   18.6120 N   0  0  0  0  0  0  0  0  0  0  0  0
   52.8960   85.1540   19.2920 C   0  0  0  0  0  0  0  0  0  0  0  0
   54.8310   85.7800   20.7070 C   0  0  0  0  0  2  0  0  0  0  0  0
   54.5500   85.8080   22.1530 C   0  0  0  0  0  0  0  0  0  0  0  0
   53.4880   85.3650   22.6440 O   0  0  0  0  0  0  0  0  0  0  0  0
   55.5600   86.3800   23.0350 C   0  0  0  0  0  0  0  0  0  0  0  0
   55.2320   87.0570   24.1910 C   0  0  0  0  0  3  0  0  0  0  0  0
   56.1920   87.5960   25.0240 C   0  0  0  0  0  3  0  0  0  0  0  0
   57.5410   87.4720   24.7200 C   0  0  0  0  0  0  0  0  0  0  0  0
   58.7820   88.1470   25.7630 Cl  0  0  0  0  0  0  0  0  0  0  0  0
   57.8900   86.7980   23.5680 C   0  0  0  0  0  3  0  0  0  0  0  0
   56.9240   86.2630   22.7420 C   0  0  0  0  0  3  0  0  0  0  0  0
   53.1040   83.7500   19.4120 N   0  0  0  0  0  0  0  0  0  0  0  0
   52.5160   82.9780   20.4930 C   0  0  0  0  0  2  0  0  0  0  0  0
   53.5350   81.9570   20.9350 C   0  0  0  0  0  2  0  0  0  0  0  0
   53.9380   81.1760   19.8400 O   0  0  0  0  0  0  0  0  0  0  0  0
   54.6850   81.9040   18.9400 C   0  0  0  0  0  2  0  0  0  0  0  0
   53.9140   83.0720   18.4340 C   0  0  0  0  0  2  0  0  0  0  0  0
  1 17  1  0  0  0  0
  2  6  1  0  0  0  0
  2  1  1  0  0  0  0
  3  2  1  0  0  0  0
  4  3  2  0  0  0  0
  4  5  1  0  0  0  0
  5  6  2  0  0  0  0
  6  7  1  0  0  0  0
  7  8  2  0  0  0  0
  9  7  1  0  0  0  0
  9 14  1  0  0  0  0
 10 11  2  0  0  0  0
 10  9  1  0  0  0  0
 12  5  1  0  0  0  0
 12 10  1  0  0  0  0
 13 12  1  0  0  0  0
 15  3  1  0  0  0  0
 15 16  2  0  0  0  0
 16 27  1  0  0  0  0
 16  1  1  0  0  0  0
 17 18  1  0  0  0  0
 18 19  2  0  0  0  0
 18 20  1  0  0  0  0
 20 21  1  0  0  0  0
 21 22  2  0  0  0  0
 23 22  1  0  0  0  0
 23 24  1  0  0  0  0
 25 23  2  0  0  0  0
 26 20  2  0  0  0  0
 26 25  1  0  0  0  0
 27 28  1  0  0  0  0
 28 29  1  0  0  0  0
 30 29  1  0  0  0  0
 31 30  1  0  0  0  0
 32 31  1  0  0  0  0
 32 27  1  0  0  0  0
M  END
>  <Pose>
1

>  <Score>
-8.390

$$$$
