/Users/jonathanwahrer/Desktop/Msc/3_Semester/Drug_Design_Praktikum/waehrer_HTS_screening/HTS_experiment/out/docking_results/vina_output/3npc/2177_docked.pdbqt
 OpenBabel03192221033D

 31 35  0  0  0  0  0  0  0  0999 V2000
   55.1970   91.8010   21.8960 N   0  0  0  0  0  0  0  0  0  0  0  0
   54.1910   92.1900   20.9370 C   0  0  0  0  0  2  0  0  0  0  0  0
   54.2410   91.2230   19.7830 C   0  0  0  0  0  2  0  0  0  0  0  0
   54.3410   89.8380   20.2000 N   0  0  0  0  0  0  0  0  0  0  0  0
   55.3340   89.4780   21.1920 C   0  0  0  0  0  2  0  0  0  0  0  0
   55.2130   90.4300   22.3530 C   0  0  0  0  0  2  0  0  0  0  0  0
   56.1110   92.7940   22.3410 C   0  0  0  0  0  3  0  0  0  0  0  0
   55.8750   93.6620   23.2960 C   0  0  0  0  0  0  0  0  0  0  0  0
   54.6450   93.7040   24.0120 N   0  0  0  0  0  0  0  0  0  0  0  0
   56.8730   94.6080   23.6500 N   0  0  0  0  0  0  0  0  0  0  0  0
   54.3560   94.6280   25.0500 C   0  0  0  0  0  0  0  0  0  0  0  0
   53.9230   93.0030   23.7410 H   0  0  0  0  0  0  0  0  0  0  0  0
   55.3200   95.5520   25.4000 C   0  0  0  0  0  0  0  0  0  0  0  0
   53.1660   94.6720   25.7450 C   0  0  0  0  0  3  0  0  0  0  0  0
   55.0970   96.4700   26.3970 C   0  0  0  0  0  3  0  0  0  0  0  0
   56.6080   95.5340   24.6770 C   0  0  0  0  0  0  0  0  0  0  0  0
   53.9020   96.4990   27.0800 C   0  0  0  0  0  0  0  0  0  0  0  0
   53.6570   97.6970   28.3560 Cl  0  0  0  0  0  0  0  0  0  0  0  0
   52.9280   95.5860   26.7460 C   0  0  0  0  0  3  0  0  0  0  0  0
   57.4550   96.4110   25.0470 O   0  0  0  0  0  0  0  0  0  0  0  0
   57.8010   94.6400   23.1710 H   0  0  0  0  0  0  0  0  0  0  0  0
   53.4700   88.8580   19.6320 C   0  0  0  0  0  0  0  0  0  0  0  0
   52.5650   89.2480   18.7120 N   0  0  0  0  0  0  0  0  0  0  0  0
   51.7150   88.3470   18.1450 C   0  0  0  0  0  3  0  0  0  0  0  0
   51.7600   87.0420   18.4940 N   0  0  0  0  0  0  0  0  0  0  0  0
   52.6350   86.5950   19.4000 C   0  0  0  0  0  0  0  0  0  0  0  0
   52.8890   85.3810   19.9210 N   0  0  0  0  0  0  0  0  0  0  0  0
   53.4980   87.5310   19.9710 C   0  0  0  0  0  0  0  0  0  0  0  0
   53.8740   85.5220   20.7900 N   0  0  0  0  0  0  0  0  0  0  0  0
   52.2170   84.1170   19.6030 C   0  0  0  0  0  1  0  0  0  0  0  0
   54.2680   86.8260   20.8430 C   0  0  0  0  0  3  0  0  0  0  0  0
  1  7  1  0  0  0  0
  1  6  1  0  0  0  0
  2  1  1  0  0  0  0
  3  4  1  0  0  0  0
  3  2  1  0  0  0  0
  4  5  1  0  0  0  0
  5  6  1  0  0  0  0
  7  8  2  0  0  0  0
  8 10  1  0  0  0  0
  8  9  1  0  0  0  0
  9 11  1  0  0  0  0
 10 16  1  0  0  0  0
 11 13  2  0  0  0  0
 11 14  1  0  0  0  0
 12  9  1  0  0  0  0
 13 15  1  0  0  0  0
 14 19  2  0  0  0  0
 15 17  2  0  0  0  0
 16 20  2  0  0  0  0
 16 13  1  0  0  0  0
 17 18  1  0  0  0  0
 19 17  1  0  0  0  0
 21 10  1  0  0  0  0
 22 28  1  0  0  0  0
 22  4  1  0  0  0  0
 23 22  2  0  0  0  0
 24 25  2  0  0  0  0
 24 23  1  0  0  0  0
 25 26  1  0  0  0  0
 26 27  1  0  0  0  0
 26 28  2  0  0  0  0
 27 29  1  0  0  0  0
 28 31  1  0  0  0  0
 29 31  2  0  0  0  0
 30 27  1  0  0  0  0
M  END
>  <Pose>
1

>  <Score>
-9.729

$$$$
