/Users/jonathanwahrer/Desktop/Msc/3_Semester/Drug_Design_Praktikum/waehrer_HTS_screening/HTS_experiment/out/docking_results/vina_output/3npc/2184_docked.pdbqt
 OpenBabel03192221033D

 29 32  0  0  0  0  0  0  0  0999 V2000
   55.8510   87.2090   24.9490 N   0  0  0  0  0  4  0  0  0  0  0  0
   55.1170   88.2170   24.3530 C   0  0  0  0  0  2  0  0  0  0  0  0
   56.0590   89.1890   23.5630 C   0  0  0  0  0  2  0  0  0  0  0  0
   56.4160   88.2400   22.4030 N   0  0  0  0  0  0  0  0  0  0  0  0
   57.2080   87.1910   22.8250 C   0  0  0  0  0  2  0  0  0  0  0  0
   57.2250   87.2500   24.3690 C   0  0  0  0  0  2  0  0  0  0  0  0
   56.0460   87.5100   25.9580 H   0  0  0  0  0  0  0  0  0  0  0  0
   55.4790   85.8640   25.0200 C   0  0  0  0  0  2  0  0  0  0  0  0
   54.0990   85.4380   25.3080 C   0  0  0  0  0  0  0  0  0  0  0  0
   53.4280   84.9210   24.1550 C   0  0  0  0  0  0  0  0  0  0  0  0
   54.0340   84.9740   22.9490 C   0  0  0  0  0  3  0  0  0  0  0  0
   52.1690   84.4040   24.2910 C   0  0  0  0  0  0  0  0  0  0  0  0
   53.4080   84.5120   21.8220 C   0  0  0  0  0  0  0  0  0  0  0  0
   54.1090   84.6060   20.2030 Cl  0  0  0  0  0  0  0  0  0  0  0  0
   52.1230   83.9660   21.9030 C   0  0  0  0  0  0  0  0  0  0  0  0
   51.5200   83.9230   23.1290 C   0  0  0  0  0  3  0  0  0  0  0  0
   51.4570   83.4540   20.7670 O   0  0  0  0  0  1  0  0  0  0  0  0
   51.5430   84.3600   25.4330 O   0  0  0  0  0  0  0  0  0  0  0  0
   52.1250   84.8300   26.5300 C   0  0  0  0  0  0  0  0  0  0  0  0
   51.5120   84.7780   27.6040 O   0  0  0  0  0  0  0  0  0  0  0  0
   53.4220   85.3810   26.4760 C   0  0  0  0  0  3  0  0  0  0  0  0
   55.7970   88.6140   21.1900 C   0  0  0  0  0  0  0  0  0  0  0  0
   54.5890   88.2070   20.7430 C   0  0  0  0  0  3  0  0  0  0  0  0
   53.9500   88.8320   19.6340 C   0  0  0  0  0  3  0  0  0  0  0  0
   54.5310   89.8770   18.9670 C   0  0  0  0  0  0  0  0  0  0  0  0
   55.7800   90.2980   19.4140 C   0  0  0  0  0  3  0  0  0  0  0  0
   56.3960   89.6800   20.4930 C   0  0  0  0  0  3  0  0  0  0  0  0
   53.8690   90.4520   17.8900 O   0  0  0  0  0  0  0  0  0  0  0  0
   54.6000   91.0780   16.8240 C   0  0  0  0  0  1  0  0  0  0  0  0
  1  8  1  0  0  0  0
  1  7  1  0  0  0  0
  2  1  1  0  0  0  0
  3  2  1  0  0  0  0
  4  5  1  0  0  0  0
  4  3  1  0  0  0  0
  5  6  1  0  0  0  0
  6  1  1  0  0  0  0
  8  9  1  0  0  0  0
  9 21  2  0  0  0  0
 10 12  1  0  0  0  0
 10  9  1  0  0  0  0
 11 10  2  0  0  0  0
 12 18  1  0  0  0  0
 13 15  2  0  0  0  0
 13 11  1  0  0  0  0
 14 13  1  0  0  0  0
 15 16  1  0  0  0  0
 16 12  2  0  0  0  0
 17 15  1  0  0  0  0
 18 19  1  0  0  0  0
 19 20  2  0  0  0  0
 21 19  1  0  0  0  0
 22  4  1  0  0  0  0
 23 22  1  0  0  0  0
 24 23  2  0  0  0  0
 25 26  2  0  0  0  0
 25 24  1  0  0  0  0
 26 27  1  0  0  0  0
 27 22  2  0  0  0  0
 28 25  1  0  0  0  0
 29 28  1  0  0  0  0
M  END
>  <Pose>
1

>  <Score>
-8.479

$$$$
