/Users/jonathanwahrer/Desktop/Msc/3_Semester/Drug_Design_Praktikum/waehrer_HTS_screening/HTS_experiment/out/docking_results/vina_output/3npc/2213_docked.pdbqt
 OpenBabel03192221053D

 31 34  0  0  0  0  0  0  0  0999 V2000
   54.9580   86.0640   26.0740 Cl  0  0  0  0  0  0  0  0  0  0  0  0
   54.8190   85.9980   24.3300 C   0  0  0  0  0  0  0  0  0  0  0  0
   53.7940   85.2160   23.7780 C   0  0  0  0  0  0  0  0  0  0  0  0
   53.6600   85.1430   22.4160 C   0  0  0  0  0  0  0  0  0  0  0  0
   54.5730   85.8700   21.6440 C   0  0  0  0  0  2  0  0  0  0  0  0
   55.5760   86.6340   22.1980 C   0  0  0  0  0  0  0  0  0  0  0  0
   55.7150   86.7100   23.5720 C   0  0  0  0  0  3  0  0  0  0  0  0
   56.7120   87.5390   21.2050 Cl  0  0  0  0  0  0  0  0  0  0  0  0
   52.6160   84.3490   21.7510 C   0  0  0  0  0  0  0  0  0  0  0  0
   51.7620   83.6650   22.7370 C   0  0  0  0  0  0  0  0  0  0  0  0
   51.9130   83.7500   24.0850 C   0  0  0  0  0  0  0  0  0  0  0  0
   51.0920   83.0950   24.9570 N   0  0  0  0  0  0  0  0  0  0  0  0
   50.1170   82.3500   24.4420 C   0  0  0  0  0  0  0  0  0  0  0  0
   49.3270   81.7200   25.2150 O   0  0  0  0  0  0  0  0  0  0  0  0
   49.9310   82.2370   23.1110 N   0  0  0  0  0  0  0  0  0  0  0  0
   50.7280   82.8760   22.2480 C   0  0  0  0  0  0  0  0  0  0  0  0
   50.5560   82.7710   21.0070 O   0  0  0  0  0  0  0  0  0  0  0  0
   48.8440   81.4080   22.6100 C   0  0  0  0  0  1  0  0  0  0  0  0
   51.2810   83.2060   26.3870 C   0  0  0  0  0  1  0  0  0  0  0  0
   52.9220   84.5210   24.5950 O   0  0  0  0  0  0  0  0  0  0  0  0
   53.2080   83.3800   20.7700 C   0  0  0  0  0  3  0  0  0  0  0  0
   53.8720   82.2480   21.1760 C   0  0  0  0  0  0  0  0  0  0  0  0
   54.4210   81.3690   20.3220 N   0  0  0  0  0  0  0  0  0  0  0  0
   53.9830   81.9990   22.5280 O   0  0  0  0  0  0  0  0  0  0  0  0
   54.3130   81.6140   19.0020 C   0  0  0  0  0  0  0  0  0  0  0  0
   55.1130   80.1810   20.7820 C   0  0  0  0  0  1  0  0  0  0  0  0
   54.8350   80.7790   18.2070 O   0  0  0  0  0  0  0  0  0  0  0  0
   53.6710   82.7100   18.5600 N   0  0  0  0  0  0  0  0  0  0  0  0
   53.1150   83.5990   19.3960 C   0  0  0  0  0  0  0  0  0  0  0  0
   53.5830   82.9290   17.1350 C   0  0  0  0  0  1  0  0  0  0  0  0
   52.5110   84.6290   19.0140 O   0  0  0  0  0  0  0  0  0  0  0  0
  2  1  1  0  0  0  0
  3  2  2  0  0  0  0
  3 20  1  0  0  0  0
  4  3  1  0  0  0  0
  5  6  1  0  0  0  0
  5  4  1  0  0  0  0
  6  7  2  0  0  0  0
  7  2  1  0  0  0  0
  8  6  1  0  0  0  0
  9  4  2  0  0  0  0
  9 10  1  0  0  0  0
 10 11  2  0  0  0  0
 11 20  1  0  0  0  0
 11 12  1  0  0  0  0
 12 19  1  0  0  0  0
 13 12  1  0  0  0  0
 13 14  2  0  0  0  0
 15 13  1  0  0  0  0
 16 10  1  0  0  0  0
 16 15  1  0  0  0  0
 17 16  2  0  0  0  0
 18 15  1  0  0  0  0
 21 22  1  0  0  0  0
 21  9  1  0  0  0  0
 22 24  2  0  0  0  0
 23 26  1  0  0  0  0
 23 22  1  0  0  0  0
 25 23  1  0  0  0  0
 27 25  2  0  0  0  0
 28 25  1  0  0  0  0
 28 29  1  0  0  0  0
 29 21  1  0  0  0  0
 30 28  1  0  0  0  0
 31 29  2  0  0  0  0
M  END
>  <Pose>
1

>  <Score>
-8.026

$$$$
