/Users/jonathanwahrer/Desktop/Msc/3_Semester/Drug_Design_Praktikum/waehrer_HTS_screening/HTS_experiment/out/docking_results/vina_output/3npc/2242_docked.pdbqt
 OpenBabel03192221063D

 32 35  0  0  0  0  0  0  0  0999 V2000
   55.4260   93.2070   24.3340 N   0  0  0  0  0  0  0  0  0  0  0  0
   54.9290   92.9180   23.0610 C   0  0  0  0  0  0  0  0  0  0  0  0
   54.1470   93.6650   22.4540 O   0  0  0  0  0  0  0  0  0  0  0  0
   56.0940   92.5010   24.7780 H   0  0  0  0  0  0  0  0  0  0  0  0
   55.3300   91.6680   22.3590 C   0  0  0  0  0  0  0  0  0  0  0  0
   55.4570   90.5790   23.0520 N   0  0  0  0  0  0  0  0  0  0  0  0
   55.8290   89.3670   22.4740 N   0  0  0  0  0  0  0  0  0  0  0  0
   56.0760   89.3200   21.0870 C   0  0  0  0  0  0  0  0  0  0  0  0
   56.3270   88.1710   20.5880 O   0  0  0  0  0  0  0  0  0  0  0  0
   56.0510   90.5230   20.2310 C   0  0  0  0  0  2  0  0  0  0  0  0
   55.5730   91.6440   20.9620 N   0  0  0  0  0  0  0  0  0  0  0  0
   55.3810   92.5390   20.4420 H   0  0  0  0  0  0  0  0  0  0  0  0
   55.9660   88.1730   23.2820 C   0  0  0  0  0  0  0  0  0  0  0  0
   57.1530   87.8510   23.8940 C   0  0  0  0  0  3  0  0  0  0  0  0
   57.2590   86.6940   24.6730 C   0  0  0  0  0  3  0  0  0  0  0  0
   56.1780   85.8520   24.8400 C   0  0  0  0  0  0  0  0  0  0  0  0
   54.9970   86.1870   24.2190 C   0  0  0  0  0  3  0  0  0  0  0  0
   56.2380   84.6080   25.6640 C   0  0  0  0  0  1  0  0  0  0  0  0
   54.9010   87.3170   23.4620 C   0  0  0  0  0  3  0  0  0  0  0  0
   55.1160   94.3530   25.0770 C   0  0  0  0  0  0  0  0  0  0  0  0
   56.0760   95.3660   25.1440 C   0  0  0  0  0  0  0  0  0  0  0  0
   57.6080   95.1620   24.3220 Cl  0  0  0  0  0  0  0  0  0  0  0  0
   55.8590   96.5220   25.8390 C   0  0  0  0  0  3  0  0  0  0  0  0
   54.6880   96.7530   26.5050 C   0  0  0  0  0  0  0  0  0  0  0  0
   53.7210   95.7840   26.4630 C   0  0  0  0  0  0  0  0  0  0  0  0
   54.4310   97.9600   27.2320 N   0  0  0  0  0  0  0  0  0  0  0  0
   53.9500   94.5960   25.7470 C   0  0  0  0  0  3  0  0  0  0  0  0
   52.5000   95.9380   27.1140 O   0  0  0  0  0  0  0  0  0  0  0  0
   52.0190   97.2190   27.5470 C   0  0  0  0  0  2  0  0  0  0  0  0
   53.1730   98.1060   27.8830 C   0  0  0  0  0  0  0  0  0  0  0  0
   53.0110   98.9880   28.7570 O   0  0  0  0  0  0  0  0  0  0  0  0
   55.1460   98.7110   27.2820 H   0  0  0  0  0  0  0  0  0  0  0  0
  1  4  1  0  0  0  0
  1 20  1  0  0  0  0
  2  1  1  0  0  0  0
  3  2  2  0  0  0  0
  5  6  2  0  0  0  0
  5  2  1  0  0  0  0
  7  6  1  0  0  0  0
  7 13  1  0  0  0  0
  8  7  1  0  0  0  0
  9  8  2  0  0  0  0
 10 11  1  0  0  0  0
 10  8  1  0  0  0  0
 11  5  1  0  0  0  0
 12 11  1  0  0  0  0
 13 19  2  0  0  0  0
 13 14  1  0  0  0  0
 14 15  2  0  0  0  0
 15 16  1  0  0  0  0
 16 18  1  0  0  0  0
 17 16  2  0  0  0  0
 19 17  1  0  0  0  0
 20 21  2  0  0  0  0
 20 27  1  0  0  0  0
 21 23  1  0  0  0  0
 22 21  1  0  0  0  0
 23 24  2  0  0  0  0
 24 26  1  0  0  0  0
 25 24  1  0  0  0  0
 25 28  1  0  0  0  0
 26 32  1  0  0  0  0
 26 30  1  0  0  0  0
 27 25  2  0  0  0  0
 28 29  1  0  0  0  0
 29 30  1  0  0  0  0
 30 31  2  0  0  0  0
M  END
>  <Pose>
1

>  <Score>
-10.016

$$$$
