/Users/jonathanwahrer/Desktop/Msc/3_Semester/Drug_Design_Praktikum/waehrer_HTS_screening/HTS_experiment/out/docking_results/vina_output/3npc/2266_docked.pdbqt
 OpenBabel03192221063D

 27 30  0  0  1  0  0  0  0  0999 V2000
   55.9880   88.5780   21.7960 N   0  0  0  0  0  0  0  0  0  0  0  0
   55.7240   89.6590   22.6590 C   0  0  0  0  0  2  0  0  0  0  0  0
   55.7130   91.0090   21.9690 C   0  0  0  0  0  2  0  0  0  0  0  0
   54.7700   90.8740   20.8180 C   0  0  2  0  0  3  0  0  0  0  0  0
   54.9130   89.7500   20.0310 C   0  0  0  0  0  0  0  0  0  0  0  0
   54.1020   89.5720   18.9880 N   0  0  0  0  0  0  0  0  0  0  0  0
   53.1630   90.5070   18.7400 C   0  0  2  0  0  3  0  0  0  0  0  0
   53.0030   91.6100   19.4910 N   0  0  0  0  0  0  0  0  0  0  0  0
   51.9930   92.3580   19.0070 N   0  0  0  0  0  0  0  0  0  0  0  0
   51.4630   91.7670   17.9260 C   0  0  0  0  0  3  0  0  0  0  0  0
   52.1810   90.6090   17.7450 C   0  0  0  0  0  3  0  0  0  0  0  0
   53.8070   91.8240   20.5560 C   0  0  0  0  0  0  0  0  0  0  0  0
   53.7070   92.8360   21.2950 O   0  0  0  0  0  0  0  0  0  0  0  0
   55.9840   88.7970   20.4090 C   0  0  0  0  0  2  0  0  0  0  0  0
   51.6900   93.2620   19.4330 H   0  0  0  0  0  0  0  0  0  0  0  0
   55.7540   87.0250   22.3830 S   0  0  0  0  0  0  0  0  0  0  0  0
   56.9970   86.1620   22.2200 O   0  0  0  0  0  0  0  0  0  0  0  0
   55.5590   87.1190   23.8930 O   0  0  0  0  0  0  0  0  0  0  0  0
   54.4330   86.1400   21.7240 C   0  0  0  0  0  0  0  0  0  0  0  0
   53.8890   85.0550   22.4090 C   0  0  0  0  0  0  0  0  0  0  0  0
   52.8330   84.3670   21.8510 C   0  0  0  0  0  3  0  0  0  0  0  0
   52.2980   84.7080   20.6520 C   0  0  0  0  0  3  0  0  0  0  0  0
   52.8090   85.7670   19.9560 C   0  0  0  0  0  0  0  0  0  0  0  0
   53.8660   86.4570   20.5130 C   0  0  0  0  0  3  0  0  0  0  0  0
   52.1310   86.2330   18.3920 Cl  0  0  0  0  0  0  0  0  0  0  0  0
   54.3710   84.6440   23.6290 O   0  0  0  0  0  0  0  0  0  0  0  0
   53.4620   84.3940   24.6770 C   0  0  0  0  0  1  0  0  0  0  0  0
  1 16  1  0  0  0  0
  1  2  1  0  0  0  0
  3  2  1  0  0  0  0
  4  3  1  6  0  0  0
  5 14  1  0  0  0  0
  5  4  1  0  0  0  0
  6  5  2  0  0  0  0
  7 11  1  1  0  0  0
  7  6  1  0  0  0  0
  7  8  1  0  0  0  0
  8 12  1  0  0  0  0
  9 15  1  0  0  0  0
  9  8  1  0  0  0  0
 10  9  1  0  0  0  0
 11 10  2  0  0  0  0
 12  4  1  0  0  0  0
 12 13  2  0  0  0  0
 14  1  1  0  0  0  0
 16 18  2  0  0  0  0
 17 16  2  0  0  0  0
 19 16  1  0  0  0  0
 19 20  1  0  0  0  0
 20 26  1  0  0  0  0
 21 20  2  0  0  0  0
 22 21  1  0  0  0  0
 23 24  1  0  0  0  0
 23 22  2  0  0  0  0
 24 19  2  0  0  0  0
 25 23  1  0  0  0  0
 26 27  1  0  0  0  0
M  END
>  <Pose>
1

>  <Score>
-8.727

$$$$
