/Users/jonathanwahrer/Desktop/Msc/3_Semester/Drug_Design_Praktikum/waehrer_HTS_screening/HTS_experiment/out/docking_results/vina_output/3npc/2267_docked.pdbqt
 OpenBabel03192221063D

 27 30  0  0  1  0  0  0  0  0999 V2000
   51.4480   98.0830   28.5170 N   0  0  0  0  0  0  0  0  0  0  0  0
   50.3310   97.6060   27.8350 C   0  0  0  0  0  2  0  0  0  0  0  0
   49.0180   98.0920   28.4030 C   0  0  0  0  0  2  0  0  0  0  0  0
   49.1170   99.4040   29.0850 C   0  0  2  0  0  3  0  0  0  0  0  0
   50.2680   99.6510   29.7940 C   0  0  0  0  0  0  0  0  0  0  0  0
   50.4450  100.8070   30.4430 N   0  0  0  0  0  0  0  0  0  0  0  0
   49.4590  101.7620   30.3980 C   0  0  1  0  0  3  0  0  0  0  0  0
   48.3370  101.5020   29.6970 N   0  0  0  0  0  0  0  0  0  0  0  0
   47.5480  102.5730   29.8100 N   0  0  0  0  0  0  0  0  0  0  0  0
   48.1340  103.5000   30.5580 C   0  0  0  0  0  3  0  0  0  0  0  0
   49.3780  103.0170   30.9620 C   0  0  0  0  0  3  0  0  0  0  0  0
   48.1070  100.3630   29.0300 C   0  0  0  0  0  0  0  0  0  0  0  0
   47.0620  100.1230   28.3780 O   0  0  0  0  0  0  0  0  0  0  0  0
   51.3100   98.6120   29.8220 C   0  0  0  0  0  2  0  0  0  0  0  0
   46.6020  102.6820   29.3770 H   0  0  0  0  0  0  0  0  0  0  0  0
   52.8310   98.4580   27.6620 S   0  0  0  0  0  0  0  0  0  0  0  0
   52.5020   99.4710   26.5900 O   0  0  0  0  0  0  0  0  0  0  0  0
   53.8680   99.0860   28.5460 O   0  0  0  0  0  0  0  0  0  0  0  0
   53.5750   97.0970   26.8520 C   0  0  0  0  0  0  0  0  0  0  0  0
   54.8650   97.1340   26.3510 C   0  0  0  0  0  3  0  0  0  0  0  0
   55.4030   96.0250   25.7170 C   0  0  0  0  0  0  0  0  0  0  0  0
   54.6990   94.8540   25.5590 C   0  0  0  0  0  0  0  0  0  0  0  0
   57.0370   96.0910   25.0870 Cl  0  0  0  0  0  0  0  0  0  0  0  0
   53.4150   94.8150   26.0580 C   0  0  0  0  0  3  0  0  0  0  0  0
   52.8790   95.9170   26.6880 C   0  0  0  0  0  3  0  0  0  0  0  0
   55.2640   93.7420   24.9140 O   0  0  0  0  0  0  0  0  0  0  0  0
   54.9190   93.4600   23.5710 C   0  0  0  0  0  1  0  0  0  0  0  0
  1 14  1  0  0  0  0
  2  3  1  0  0  0  0
  2  1  1  0  0  0  0
  4  3  1  1  0  0  0
  4  5  1  0  0  0  0
  5 14  1  0  0  0  0
  5  6  2  0  0  0  0
  7  6  1  0  0  0  0
  7 11  1  1  0  0  0
  8  9  1  0  0  0  0
  8  7  1  0  0  0  0
  9 10  1  0  0  0  0
 10 11  2  0  0  0  0
 12  4  1  0  0  0  0
 12  8  1  0  0  0  0
 13 12  2  0  0  0  0
 15  9  1  0  0  0  0
 16  1  1  0  0  0  0
 16 18  2  0  0  0  0
 17 16  2  0  0  0  0
 19 16  1  0  0  0  0
 20 19  2  0  0  0  0
 21 20  1  0  0  0  0
 22 21  2  0  0  0  0
 22 24  1  0  0  0  0
 23 21  1  0  0  0  0
 24 25  2  0  0  0  0
 25 19  1  0  0  0  0
 26 22  1  0  0  0  0
 27 26  1  0  0  0  0
M  END
>  <Pose>
1

>  <Score>
-8.816

$$$$
