/Users/jonathanwahrer/Desktop/Msc/3_Semester/Drug_Design_Praktikum/waehrer_HTS_screening/HTS_experiment/out/docking_results/vina_output/3npc/2270_docked.pdbqt
 OpenBabel03192221063D

 22 24  0  0  1  0  0  0  0  0999 V2000
   52.2170   97.6130   28.4180 C   0  0  0  0  0  0  0  0  0  0  0  0
   52.6360   98.2500   29.4250 O   0  0  0  0  0  0  0  0  0  0  0  0
   50.8230   97.5240   28.1210 N   0  0  0  0  0  0  0  0  0  0  0  0
   50.5340   96.9980   27.2970 H   0  0  0  0  0  0  0  0  0  0  0  0
   53.1710   96.9640   27.5540 C   0  0  0  0  0  0  0  0  0  0  0  0
   54.4870   97.4380   27.5690 C   0  0  0  0  0  3  0  0  0  0  0  0
   55.4870   96.9030   26.7880 C   0  0  0  0  0  0  0  0  0  0  0  0
   55.1790   95.8510   25.9530 C   0  0  0  0  0  0  0  0  0  0  0  0
   56.4420   95.1500   24.9440 Cl  0  0  0  0  0  0  0  0  0  0  0  0
   53.8790   95.3660   25.9230 C   0  0  0  0  0  3  0  0  0  0  0  0
   52.8750   95.9220   26.7240 C   0  0  0  0  0  3  0  0  0  0  0  0
   56.7840   97.3950   26.8240 O   0  0  0  0  0  0  0  0  0  0  0  0
   57.1730   98.5050   26.0370 C   0  0  0  0  0  1  0  0  0  0  0  0
   49.9060   98.1840   29.0040 C   0  0  0  0  0  2  0  0  0  0  0  0
   49.3780   99.4930   28.5720 C   0  0  2  0  0  3  0  0  0  0  0  0
   50.1410  100.6550   28.9090 N   0  0  1  0  0  0  0  0  0  0  0  0
   50.0040  101.5590   27.7400 C   0  0  0  0  0  2  0  0  0  0  0  0
   49.6070  101.4430   30.0010 C   0  0  0  0  0  2  0  0  0  0  0  0
   48.5000  101.5410   27.4380 C   0  0  0  0  0  2  0  0  0  0  0  0
   47.7150  101.1690   28.5970 N   0  0  1  0  0  0  0  0  0  0  0  0
   47.9440   99.7770   28.9920 C   0  0  0  0  0  2  0  0  0  0  0  0
   48.2060  101.9640   29.7090 C   0  0  0  0  0  2  0  0  0  0  0  0
  1  2  2  0  0  0  0
  3  1  1  0  0  0  0
  3 14  1  0  0  0  0
  4  3  1  0  0  0  0
  5  6  1  0  0  0  0
  5  1  1  0  0  0  0
  7 12  1  0  0  0  0
  7  6  2  0  0  0  0
  8  7  1  0  0  0  0
  9  8  1  0  0  0  0
 10  8  2  0  0  0  0
 10 11  1  0  0  0  0
 11  5  2  0  0  0  0
 13 12  1  0  0  0  0
 15 16  1  0  0  0  0
 15 21  1  0  0  0  0
 15 14  1  1  0  0  0
 16 17  1  6  0  0  0
 16 18  1  0  0  0  0
 19 17  1  0  0  0  0
 20 19  1  6  0  0  0
 20 21  1  0  0  0  0
 20 22  1  0  0  0  0
 22 18  1  0  0  0  0
M  END
>  <Pose>
1

>  <Score>
-8.152

$$$$
