/Users/jonathanwahrer/Desktop/Msc/3_Semester/Drug_Design_Praktikum/waehrer_HTS_screening/HTS_experiment/out/docking_results/vina_output/3npc/2272_docked.pdbqt
 OpenBabel03192221073D

 29 32  0  0  0  0  0  0  0  0999 V2000
   50.8860  100.1450   27.4110 C   0  0  0  0  0  0  0  0  0  0  0  0
   50.4130  100.2250   26.2130 O   0  0  0  0  0  0  0  0  0  0  0  0
   49.9390  100.1710   28.4370 N   0  0  0  0  0  0  0  0  0  0  0  0
   50.2630  100.3070   29.8690 C   0  0  0  0  0  2  0  0  0  0  0  0
   49.7210  101.7540   30.0920 C   0  0  0  0  0  2  0  0  0  0  0  0
   48.2730  101.7080   29.9420 N   0  0  0  0  0  0  0  0  0  0  0  0
   47.6790  100.7410   29.1950 C   0  0  0  0  0  2  0  0  0  0  0  0
   48.5310  100.0090   28.1970 C   0  0  0  0  0  2  0  0  0  0  0  0
   52.3210  100.0200   27.4860 C   0  0  0  0  0  2  0  0  0  0  0  0
   52.9710   98.9460   28.2320 C   0  0  0  0  0  2  0  0  0  0  0  0
   53.3500   97.7530   27.4950 N   0  0  0  0  0  0  0  0  0  0  0  0
   54.4720   97.4230   26.8620 C   0  0  0  0  0  0  0  0  0  0  0  0
   54.3240   96.2100   26.2330 C   0  0  0  0  0  0  0  0  0  0  0  0
   55.7050   98.0940   26.7730 C   0  0  0  0  0  3  0  0  0  0  0  0
   55.3610   95.6170   25.5020 C   0  0  0  0  0  3  0  0  0  0  0  0
   53.1020   95.8330   26.5020 O   0  0  0  0  0  0  0  0  0  0  0  0
   56.5640   96.2590   25.4050 C   0  0  0  0  0  0  0  0  0  0  0  0
   57.8840   95.5420   24.5140 Cl  0  0  0  0  0  0  0  0  0  0  0  0
   56.7080   97.4780   26.0420 C   0  0  0  0  0  3  0  0  0  0  0  0
   52.4820   96.7150   27.2470 C   0  0  0  0  0  0  0  0  0  0  0  0
   51.2930   96.6420   27.6720 O   0  0  0  0  0  0  0  0  0  0  0  0
   47.7700  102.9550   30.2740 C   0  0  0  0  0  2  0  0  0  0  0  0
   47.6890  103.1530   31.7890 C   0  0  0  0  0  0  0  0  0  0  0  0
   46.7670  102.4460   32.3490 O   0  0  0  0  0  0  0  0  0  0  0  0
   48.5030  103.9890   32.4220 N   0  0  0  0  0  0  0  0  0  0  0  0
   48.0680  103.5570   33.6340 H   0  0  0  0  0  0  0  0  0  0  0  0
   49.3700  104.8800   33.0950 C   0  0  0  0  0  3  0  0  0  0  0  0
   50.9030  104.6420   32.8150 C   0  0  0  0  0  2  0  0  0  0  0  0
   50.3370  104.3030   34.1070 C   0  0  0  0  0  2  0  0  0  0  0  0
  1  9  1  0  0  0  0
  1  3  1  0  0  0  0
  2  1  2  0  0  0  0
  3  4  1  0  0  0  0
  4  5  1  0  0  0  0
  6  5  1  0  0  0  0
  6 22  1  0  0  0  0
  7  6  1  0  0  0  0
  8  3  1  0  0  0  0
  8  7  1  0  0  0  0
  9 10  1  0  0  0  0
 11 10  1  0  0  0  0
 12 11  1  0  0  0  0
 13 16  1  0  0  0  0
 13 12  2  0  0  0  0
 14 12  1  0  0  0  0
 15 13  1  0  0  0  0
 16 20  1  0  0  0  0
 17 15  2  0  0  0  0
 17 19  1  0  0  0  0
 18 17  1  0  0  0  0
 19 14  2  0  0  0  0
 20 11  1  0  0  0  0
 20 21  2  0  0  0  0
 22 23  1  0  0  0  0
 23 24  2  0  0  0  0
 23 25  1  0  0  0  0
 25 27  1  0  0  0  0
 25 26  1  0  0  0  0
 27 29  1  0  0  0  0
 28 27  1  0  0  0  0
 28 29  1  0  0  0  0
M  END
>  <Pose>
1

>  <Score>
-8.387

$$$$
