/Users/jonathanwahrer/Desktop/Msc/3_Semester/Drug_Design_Praktikum/waehrer_HTS_screening/HTS_experiment/out/docking_results/vina_output/3npc/2281_docked.pdbqt
 OpenBabel03192221073D

 34 37  0  0  1  0  0  0  0  0999 V2000
   52.4110   83.3090   23.8650 N   0  0  0  0  0  0  0  0  0  0  0  0
   51.4340   83.8420   24.7170 C   0  0  0  0  0  2  0  0  0  0  0  0
   52.1000   85.0410   25.4860 C   0  0  0  0  0  2  0  0  0  0  0  0
   53.3270   85.4780   25.0360 N   0  0  0  0  0  0  0  0  0  0  0  0
   54.1970   84.5590   24.3540 C   0  0  0  0  0  2  0  0  0  0  0  0
   53.7240   83.0910   24.6080 C   0  0  0  0  0  2  0  0  0  0  0  0
   52.5180   83.1110   22.4970 C   0  0  2  0  0  3  0  0  0  0  0  0
   53.0190   82.0520   21.8780 C   0  0  1  0  0  3  0  0  0  0  0  0
   53.1470   80.5190   22.8320 Cl  0  0  0  0  0  0  0  0  0  0  0  0
   53.4330   82.0490   20.5450 C   0  0  0  0  0  0  0  0  0  0  0  0
   53.3150   83.1450   19.8470 N   0  0  0  0  0  0  0  0  0  0  0  0
   53.9240   80.9610   20.0880 O   0  0  0  0  0  0  0  0  0  0  0  0
   52.7890   84.2490   20.4390 N   0  0  0  0  0  0  0  0  0  0  0  0
   52.3890   84.3240   21.6520 C   0  0  0  0  0  3  0  0  0  0  0  0
   53.9590   83.3380   18.5490 C   0  0  0  0  0  0  0  0  0  0  0  0
   55.1140   82.7140   18.2010 C   0  0  0  0  0  3  0  0  0  0  0  0
   55.6320   82.8210   16.9290 C   0  0  0  0  0  3  0  0  0  0  0  0
   54.9790   83.5760   15.9560 C   0  0  0  0  0  3  0  0  0  0  0  0
   53.8000   84.2120   16.3450 C   0  0  0  0  0  3  0  0  0  0  0  0
   53.3140   84.0950   17.5890 C   0  0  0  0  0  3  0  0  0  0  0  0
   54.2320   86.0360   26.0960 C   0  0  0  0  0  2  0  0  0  0  0  0
   55.2510   86.8730   25.4810 C   0  0  0  0  0  0  0  0  0  0  0  0
   56.3310   86.7570   25.2220 O   0  0  0  0  0  0  0  0  0  0  0  0
   54.5800   88.3880   25.0630 N   0  0  0  0  0  0  0  0  0  0  0  0
   55.7320   88.7880   24.1800 C   0  0  0  0  0  0  0  0  0  0  0  0
   53.9920   88.1780   25.5200 H   0  0  0  0  0  0  0  0  0  0  0  0
   56.8790   88.4720   24.3390 O   0  0  0  0  0  0  0  0  0  0  0  0
   55.2600   89.6050   23.0860 N   0  0  0  0  0  0  0  0  0  0  0  0
   54.2090   89.8300   23.1050 H   0  0  0  0  0  0  0  0  0  0  0  0
   56.0200   90.1520   22.0260 C   0  0  0  0  0  3  0  0  0  0  0  0
   56.2710   89.3490   20.8160 C   0  0  0  0  0  2  0  0  0  0  0  0
   55.1520   89.6620   19.8170 C   0  0  0  0  0  2  0  0  0  0  0  0
   54.8860   91.1170   20.1210 C   0  0  0  0  0  2  0  0  0  0  0  0
   55.1970   91.3600   21.5320 C   0  0  0  0  0  2  0  0  0  0  0  0
  1  6  1  0  0  0  0
  1  2  1  0  0  0  0
  2  3  1  0  0  0  0
  4  3  1  0  0  0  0
  4 21  1  0  0  0  0
  5  6  1  0  0  0  0
  5  4  1  0  0  0  0
  7 14  1  1  0  0  0
  7  1  1  0  0  0  0
  8  7  1  0  0  0  0
  8  9  1  6  0  0  0
 10  8  1  0  0  0  0
 11 13  1  0  0  0  0
 11 10  1  0  0  0  0
 12 10  2  0  0  0  0
 13 14  2  0  0  0  0
 15 11  1  0  0  0  0
 16 15  1  0  0  0  0
 17 16  2  0  0  0  0
 18 19  2  0  0  0  0
 18 17  1  0  0  0  0
 19 20  1  0  0  0  0
 20 15  2  0  0  0  0
 22 21  1  0  0  0  0
 23 22  2  0  0  0  0
 24 22  1  0  0  0  0
 24 26  1  0  0  0  0
 25 27  2  0  0  0  0
 25 24  1  0  0  0  0
 28 29  1  0  0  0  0
 28 25  1  0  0  0  0
 30 28  1  0  0  0  0
 31 30  1  0  0  0  0
 32 33  1  0  0  0  0
 32 31  1  0  0  0  0
 33 34  1  0  0  0  0
 34 30  1  0  0  0  0
M  END
>  <Pose>
1

>  <Score>
-9.200

$$$$
