/Users/jonathanwahrer/Desktop/Msc/3_Semester/Drug_Design_Praktikum/waehrer_HTS_screening/HTS_experiment/out/docking_results/vina_output/3npc/2282_docked.pdbqt
 OpenBabel03192221073D

 31 34  0  0  1  0  0  0  0  0999 V2000
   55.7390   87.7460   23.8920 N   0  0  0  0  0  0  0  0  0  0  0  0
   56.8700   86.8530   23.9750 C   0  0  0  0  0  2  0  0  0  0  0  0
   56.4780   85.5980   24.6900 C   0  0  0  0  0  2  0  0  0  0  0  0
   55.0410   85.6010   24.8070 N   0  0  0  0  0  0  0  0  0  0  0  0
   54.6580   86.6040   25.7330 C   0  0  0  0  0  2  0  0  0  0  0  0
   54.9260   87.9550   25.0630 C   0  0  0  0  0  2  0  0  0  0  0  0
   55.3930   88.4330   22.6990 C   0  0  0  0  0  0  0  0  0  0  0  0
   54.7360   87.8000   21.6480 C   0  0  0  0  0  0  0  0  0  0  0  0
   54.3580   86.1030   21.8510 Cl  0  0  0  0  0  0  0  0  0  0  0  0
   54.4050   88.4950   20.5010 C   0  0  0  0  0  0  0  0  0  0  0  0
   54.7010   89.8000   20.3540 N   0  0  0  0  0  0  0  0  0  0  0  0
   53.8100   87.9150   19.5500 O   0  0  0  0  0  0  0  0  0  0  0  0
   55.3240   90.3830   21.3630 N   0  0  0  0  0  0  0  0  0  0  0  0
   55.6760   89.7680   22.5060 C   0  0  0  0  0  3  0  0  0  0  0  0
   54.3540   90.5210   19.1650 C   0  0  0  0  0  0  0  0  0  0  0  0
   55.2370   90.5820   18.1120 C   0  0  0  0  0  3  0  0  0  0  0  0
   54.9090   91.2830   16.9460 C   0  0  0  0  0  3  0  0  0  0  0  0
   53.7000   91.9290   16.8160 C   0  0  0  0  0  3  0  0  0  0  0  0
   52.8090   91.8720   17.8650 C   0  0  0  0  0  3  0  0  0  0  0  0
   53.1480   91.1730   19.0190 C   0  0  0  0  0  3  0  0  0  0  0  0
   54.4150   84.3410   24.8770 C   0  0  0  0  0  2  0  0  0  0  0  0
   53.0470   84.3620   25.4060 C   0  0  0  0  0  0  0  0  0  0  0  0
   52.1470   84.8030   24.6140 O   0  0  0  0  0  0  0  0  0  0  0  0
   52.6410   83.9410   26.6950 N   0  0  0  0  0  0  0  0  0  0  0  0
   53.3760   83.5730   27.3330 H   0  0  0  0  0  0  0  0  0  0  0  0
   51.2820   83.9800   27.1710 C   0  0  0  0  0  2  0  0  0  0  0  0
   51.1450   85.0490   28.2100 C   0  0  1  0  0  3  0  0  0  0  0  0
   50.4170   86.0910   27.6990 O   0  0  0  0  0  0  0  0  0  0  0  0
   49.3130   86.3400   28.4680 C   0  0  0  0  0  2  0  0  0  0  0  0
   49.7360   85.8780   29.8460 C   0  0  0  0  0  2  0  0  0  0  0  0
   50.3990   84.5510   29.4390 C   0  0  0  0  0  2  0  0  0  0  0  0
  1  2  1  0  0  0  0
  1  6  1  0  0  0  0
  2  3  1  0  0  0  0
  3  4  1  0  0  0  0
  4 21  1  0  0  0  0
  4  5  1  0  0  0  0
  6  5  1  0  0  0  0
  7  1  1  0  0  0  0
  8  9  1  0  0  0  0
  8  7  2  0  0  0  0
 10  8  1  0  0  0  0
 11 10  1  0  0  0  0
 11 13  1  0  0  0  0
 12 10  2  0  0  0  0
 13 14  2  0  0  0  0
 14  7  1  0  0  0  0
 15 11  1  0  0  0  0
 16 15  2  0  0  0  0
 17 16  1  0  0  0  0
 18 17  2  0  0  0  0
 18 19  1  0  0  0  0
 19 20  2  0  0  0  0
 20 15  1  0  0  0  0
 21 22  1  0  0  0  0
 22 24  1  0  0  0  0
 23 22  2  0  0  0  0
 24 26  1  0  0  0  0
 24 25  1  0  0  0  0
 27 26  1  6  0  0  0
 27 31  1  0  0  0  0
 28 27  1  0  0  0  0
 28 29  1  0  0  0  0
 29 30  1  0  0  0  0
 31 30  1  0  0  0  0
M  END
>  <Pose>
1

>  <Score>
-8.376

$$$$
