/Users/jonathanwahrer/Desktop/Msc/3_Semester/Drug_Design_Praktikum/waehrer_HTS_screening/HTS_experiment/out/docking_results/vina_output/3npc/2286_docked.pdbqt
 OpenBabel03192221093D

 31 34  0  0  0  0  0  0  0  0999 V2000
   53.5790   83.7430   25.1260 N   0  0  0  0  0  0  0  0  0  0  0  0
   53.3890   85.0310   25.6860 C   0  0  0  0  0  2  0  0  0  0  0  0
   54.2400   86.1070   25.0640 C   0  0  0  0  0  2  0  0  0  0  0  0
   54.3560   85.9500   23.6290 N   0  0  0  0  0  0  0  0  0  0  0  0
   53.4570   84.9910   23.0160 C   0  0  0  0  0  2  0  0  0  0  0  0
   53.5110   83.6530   23.7110 C   0  0  0  0  0  2  0  0  0  0  0  0
   55.2990   86.7050   22.9210 C   0  0  0  0  0  0  0  0  0  0  0  0
   56.0310   87.5100   23.5460 O   0  0  0  0  0  0  0  0  0  0  0  0
   55.4680   86.5910   21.4490 C   0  0  0  0  0  2  0  0  0  0  0  0
   54.7200   87.5910   20.7390 N   0  0  0  0  0  0  0  0  0  0  0  0
   53.4810   87.3560   20.0870 C   0  0  0  0  0  0  0  0  0  0  0  0
   52.8820   86.2280   20.0500 O   0  0  0  0  0  0  0  0  0  0  0  0
   52.9810   88.5350   19.4700 N   0  0  0  0  0  0  0  0  0  0  0  0
   54.0420   89.5230   19.5360 C   0  0  0  0  0  0  0  0  0  0  0  0
   51.6480   88.6950   18.8910 C   0  0  0  0  0  1  0  0  0  0  0  0
   53.5570   90.8450   20.0570 C   0  0  0  0  0  2  0  0  0  0  0  0
   54.6470   89.6150   18.1550 C   0  0  0  0  0  2  0  0  0  0  0  0
   55.0010   88.9670   20.5230 C   0  0  0  0  0  0  0  0  0  0  0  0
   52.9590   91.7290   19.0030 C   0  0  0  0  0  2  0  0  0  0  0  0
   53.8200   91.8850   17.7850 C   0  0  0  0  0  2  0  0  0  0  0  0
   55.0700   91.0340   17.8470 C   0  0  0  0  0  2  0  0  0  0  0  0
   55.9300   89.5830   21.0980 O   0  0  0  0  0  0  0  0  0  0  0  0
   54.8440   82.8310   25.8290 S   0  0  0  0  0  0  0  0  0  0  0  0
   56.0860   83.6660   25.8790 O   0  0  0  0  0  0  0  0  0  0  0  0
   55.1430   81.6000   25.0250 O   0  0  0  0  0  0  0  0  0  0  0  0
   54.4210   82.2780   27.4580 C   0  0  0  0  0  0  0  0  0  0  0  0
   54.1580   83.2030   28.8580 S   0  0  0  0  0  0  0  0  0  0  0  0
   53.8110   81.9520   29.9560 C   0  0  0  0  0  0  0  0  0  0  0  0
   53.9110   80.8220   29.1890 C   0  0  0  0  0  3  0  0  0  0  0  0
   53.4120   82.0480   31.6850 Cl  0  0  0  0  0  0  0  0  0  0  0  0
   54.2290   80.9930   27.8860 C   0  0  0  0  0  3  0  0  0  0  0  0
  1  2  1  0  0  0  0
  1 23  1  0  0  0  0
  3  2  1  0  0  0  0
  4  3  1  0  0  0  0
  5  4  1  0  0  0  0
  5  6  1  0  0  0  0
  6  1  1  0  0  0  0
  7  8  2  0  0  0  0
  7  4  1  0  0  0  0
  9  7  1  0  0  0  0
 10  9  1  0  0  0  0
 11 10  1  0  0  0  0
 12 11  2  0  0  0  0
 13 14  1  0  0  0  0
 13 11  1  0  0  0  0
 14 16  1  0  0  0  0
 14 18  1  0  0  0  0
 15 13  1  0  0  0  0
 17 14  1  0  0  0  0
 18 10  1  0  0  0  0
 18 22  2  0  0  0  0
 19 16  1  0  0  0  0
 20 21  1  0  0  0  0
 20 19  1  0  0  0  0
 21 17  1  0  0  0  0
 23 24  2  0  0  0  0
 23 26  1  0  0  0  0
 25 23  2  0  0  0  0
 26 31  2  0  0  0  0
 26 27  1  0  0  0  0
 27 28  1  0  0  0  0
 28 30  1  0  0  0  0
 29 28  2  0  0  0  0
 31 29  1  0  0  0  0
M  END
>  <Pose>
1

>  <Score>
-8.024

$$$$
