/Users/jonathanwahrer/Desktop/Msc/3_Semester/Drug_Design_Praktikum/waehrer_HTS_screening/HTS_experiment/out/docking_results/vina_output/3npc/2298_docked.pdbqt
 OpenBabel03192221093D

 34 37  0  0  0  0  0  0  0  0999 V2000
   48.7860  100.9270   27.6460 C   0  0  0  0  0  2  0  0  0  0  0  0
   50.1120  101.4720   27.6110 N   0  0  0  0  0  0  0  0  0  0  0  0
   50.8890  101.1850   28.7630 C   0  0  0  0  0  2  0  0  0  0  0  0
   52.1550  100.4090   28.5220 C   0  0  0  0  0  2  0  0  0  0  0  0
   51.9310   99.3690   27.6440 N   0  0  0  0  0  0  0  0  0  0  0  0
   51.2590   99.6750   26.4570 C   0  0  0  0  0  2  0  0  0  0  0  0
   50.8070  101.1320   26.4110 C   0  0  0  0  0  2  0  0  0  0  0  0
   52.4120   97.8040   27.9340 S   0  0  0  0  0  0  0  0  0  0  0  0
   52.7760   97.5370   29.3740 O   0  0  0  0  0  0  0  0  0  0  0  0
   51.3740   96.7620   27.5810 O   0  0  0  0  0  0  0  0  0  0  0  0
   53.8600   97.4410   27.0000 C   0  0  0  0  0  0  0  0  0  0  0  0
   54.9880   98.2050   27.1120 C   0  0  0  0  0  3  0  0  0  0  0  0
   56.1170   97.9270   26.3880 C   0  0  0  0  0  3  0  0  0  0  0  0
   56.1080   96.8510   25.5280 C   0  0  0  0  0  0  0  0  0  0  0  0
   54.9700   96.0760   25.4110 C   0  0  0  0  0  3  0  0  0  0  0  0
   57.5700   96.5200   24.6140 Cl  0  0  0  0  0  0  0  0  0  0  0  0
   53.8450   96.3640   26.1420 C   0  0  0  0  0  3  0  0  0  0  0  0
   48.0280  101.4250   28.8430 C   0  0  0  0  0  0  0  0  0  0  0  0
   47.2220  100.6290   29.3730 O   0  0  0  0  0  0  0  0  0  0  0  0
   48.2200  102.7360   29.3460 N   0  0  0  0  0  0  0  0  0  0  0  0
   48.9170  103.3560   28.8530 H   0  0  0  0  0  0  0  0  0  0  0  0
   47.4530  103.1260   30.4930 C   0  0  0  0  0  2  0  0  0  0  0  0
   48.2100  103.6530   31.6510 C   0  0  0  0  0  0  0  0  0  0  0  0
   49.6430  103.1880   31.5690 C   0  0  0  0  0  2  0  0  0  0  0  0
   49.8670  101.8690   32.3150 C   0  0  0  0  0  2  0  0  0  0  0  0
   49.7030  102.0780   33.8070 C   0  0  0  0  0  2  0  0  0  0  0  0
   48.6640  103.1670   34.0000 C   0  0  0  0  0  2  0  0  0  0  0  0
   47.6380  102.9630   32.9050 C   0  0  0  0  0  2  0  0  0  0  0  0
   48.1560  105.0410   31.9050 N   0  0  0  0  0  0  0  0  0  0  0  0
   48.6160  105.9310   30.8980 C   0  0  0  0  0  2  0  0  0  0  0  0
   48.8500  107.2800   31.6010 C   0  0  0  0  0  2  0  0  0  0  0  0
   47.6640  107.7660   32.0970 O   0  0  0  0  0  0  0  0  0  0  0  0
   46.5850  106.9430   31.8970 C   0  0  0  0  0  2  0  0  0  0  0  0
   46.8630  105.5100   32.3540 C   0  0  0  0  0  2  0  0  0  0  0  0
  1 18  1  0  0  0  0
  2  1  1  0  0  0  0
  2  3  1  0  0  0  0
  4  3  1  0  0  0  0
  5  8  1  0  0  0  0
  5  4  1  0  0  0  0
  6  5  1  0  0  0  0
  7  6  1  0  0  0  0
  7  2  1  0  0  0  0
  8  9  2  0  0  0  0
 10  8  2  0  0  0  0
 11 12  1  0  0  0  0
 11  8  1  0  0  0  0
 13 12  2  0  0  0  0
 14 13  1  0  0  0  0
 15 14  2  0  0  0  0
 15 17  1  0  0  0  0
 16 14  1  0  0  0  0
 17 11  2  0  0  0  0
 18 20  1  0  0  0  0
 18 19  2  0  0  0  0
 20 22  1  0  0  0  0
 21 20  1  0  0  0  0
 22 23  1  0  0  0  0
 23 29  1  0  0  0  0
 23 28  1  0  0  0  0
 24 23  1  0  0  0  0
 24 25  1  0  0  0  0
 25 26  1  0  0  0  0
 26 27  1  0  0  0  0
 28 27  1  0  0  0  0
 29 34  1  0  0  0  0
 30 31  1  0  0  0  0
 30 29  1  0  0  0  0
 31 32  1  0  0  0  0
 33 32  1  0  0  0  0
 33 34  1  0  0  0  0
M  END
>  <Pose>
1

>  <Score>
-8.420

$$$$
