/Users/jonathanwahrer/Desktop/Msc/3_Semester/Drug_Design_Praktikum/waehrer_HTS_screening/HTS_experiment/out/docking_results/vina_output/3npc/2319_docked.pdbqt
 OpenBabel03192221103D

 33 36  0  0  0  0  0  0  0  0999 V2000
   50.1810  100.5350   28.6270 N   0  0  0  0  0  0  0  0  0  0  0  0
   50.4200   99.1730   28.9150 C   0  0  0  0  0  0  0  0  0  0  0  0
   50.7060   98.8120   30.0760 O   0  0  0  0  0  0  0  0  0  0  0  0
   49.9380  100.9060   27.6840 H   0  0  0  0  0  0  0  0  0  0  0  0
   50.3470   98.1070   27.8660 C   0  0  0  0  0  2  0  0  0  0  0  0
   51.4610   97.2020   27.9390 N   0  0  0  0  0  0  0  0  0  0  0  0
   52.7510   97.5240   27.4360 C   0  0  0  0  0  0  0  0  0  0  0  0
   52.9190   98.6440   26.9080 O   0  0  0  0  0  0  0  0  0  0  0  0
   51.3640   96.2550   28.3750 H   0  0  0  0  0  0  0  0  0  0  0  0
   53.9170   96.5930   27.5030 C   0  0  0  0  0  0  0  0  0  0  0  0
   55.1310   97.2810   27.5710 O   0  0  0  0  0  0  0  0  0  0  0  0
   56.0750   97.3330   26.5480 C   0  0  0  0  0  0  0  0  0  0  0  0
   55.9900   96.3740   25.5740 C   0  0  0  0  0  0  0  0  0  0  0  0
   57.0540   98.2800   26.4870 C   0  0  0  0  0  3  0  0  0  0  0  0
   56.9230   96.4010   24.5380 C   0  0  0  0  0  3  0  0  0  0  0  0
   55.0060   95.4260   25.6400 O   0  0  0  0  0  0  0  0  0  0  0  0
   57.9170   97.3500   24.4630 C   0  0  0  0  0  3  0  0  0  0  0  0
   57.9710   98.3020   25.4630 C   0  0  0  0  0  3  0  0  0  0  0  0
   53.8700   95.5410   26.4510 C   0  0  0  0  0  3  0  0  0  0  0  0
   50.2760  101.4550   29.6750 N   0  0  0  0  0  0  0  0  0  0  0  0
   49.2550  102.0330   30.1860 C   0  0  0  0  0  0  0  0  0  0  0  0
   49.1670  103.0040   31.2660 C   0  0  0  0  0  0  0  0  0  0  0  0
   47.8740  101.8090   29.7430 C   0  0  0  0  0  0  0  0  0  0  0  0
   47.8530  103.3730   31.4990 C   0  0  0  0  0  0  0  0  0  0  0  0
   50.1220  103.5980   32.0620 C   0  0  0  0  0  3  0  0  0  0  0  0
   47.5070  104.2860   32.4740 C   0  0  0  0  0  0  0  0  0  0  0  0
   47.0740  102.6360   30.5630 N   0  0  0  0  0  0  0  0  0  0  0  0
   45.6860  104.7870   32.7820 Br  0  0  0  0  0  0  0  0  0  0  0  0
   48.4960  104.8710   33.2650 C   0  0  0  0  0  3  0  0  0  0  0  0
   49.8160  104.5130   33.0450 C   0  0  0  0  0  0  0  0  0  0  0  0
   51.1900  105.3010   34.1150 Br  0  0  0  0  0  0  0  0  0  0  0  0
   46.0440  102.7010   30.4940 H   0  0  0  0  0  0  0  0  0  0  0  0
   47.5550  101.0210   28.8130 O   0  0  0  0  0  0  0  0  0  0  0  0
  1  2  1  0  0  0  0
  1 20  1  0  0  0  0
  2  3  2  0  0  0  0
  4  1  1  0  0  0  0
  5  6  1  0  0  0  0
  5  2  1  0  0  0  0
  6  9  1  0  0  0  0
  7 10  1  0  0  0  0
  7  6  1  0  0  0  0
  8  7  2  0  0  0  0
 10 11  1  0  0  0  0
 12 11  1  0  0  0  0
 13 16  1  0  0  0  0
 13 12  2  0  0  0  0
 14 12  1  0  0  0  0
 15 13  1  0  0  0  0
 16 19  1  0  0  0  0
 17 15  2  0  0  0  0
 17 18  1  0  0  0  0
 18 14  2  0  0  0  0
 19 10  2  0  0  0  0
 20 21  2  0  0  0  0
 21 22  1  0  0  0  0
 22 24  2  0  0  0  0
 22 25  1  0  0  0  0
 23 21  1  0  0  0  0
 23 27  1  0  0  0  0
 24 26  1  0  0  0  0
 25 30  2  0  0  0  0
 26 28  1  0  0  0  0
 26 29  2  0  0  0  0
 27 24  1  0  0  0  0
 30 29  1  0  0  0  0
 30 31  1  0  0  0  0
 32 27  1  0  0  0  0
 33 23  2  0  0  0  0
M  END
>  <Pose>
1

>  <Score>
-10.130

$$$$
