/Users/jonathanwahrer/Desktop/Msc/3_Semester/Drug_Design_Praktikum/waehrer_HTS_screening/HTS_experiment/out/docking_results/vina_output/3npc/2330_docked.pdbqt
 OpenBabel03192221103D

 28 31  0  0  0  0  0  0  0  0999 V2000
   55.3120   94.0600   25.0280 C   0  0  0  0  0  0  0  0  0  0  0  0
   55.6260   93.0740   25.7340 O   0  0  0  0  0  0  0  0  0  0  0  0
   54.9870   93.8650   23.6850 N   0  0  0  0  0  0  0  0  0  0  0  0
   54.7210   94.7790   23.1710 H   0  0  0  0  0  0  0  0  0  0  0  0
   55.3090   95.3810   25.6820 C   0  0  0  0  0  0  0  0  0  0  0  0
   56.3930   96.2320   25.6140 C   0  0  0  0  0  0  0  0  0  0  0  0
   57.7990   95.6880   24.7110 Cl  0  0  0  0  0  0  0  0  0  0  0  0
   56.3900   97.4800   26.2330 C   0  0  0  0  0  3  0  0  0  0  0  0
   55.2750   97.8680   26.9280 C   0  0  0  0  0  3  0  0  0  0  0  0
   54.1500   97.0420   27.0270 C   0  0  0  0  0  0  0  0  0  0  0  0
   54.2170   95.8270   26.3960 C   0  0  0  0  0  3  0  0  0  0  0  0
   52.9860   97.4920   27.7760 C   0  0  0  0  0  0  0  0  0  0  0  0
   51.7060   97.1260   27.6600 N   0  0  0  0  0  0  0  0  0  0  0  0
   50.9750   97.8020   28.5610 N   0  0  0  0  0  0  0  0  0  0  0  0
   51.7870   98.5910   29.2420 N   0  0  0  0  0  0  0  0  0  0  0  0
   49.9430   97.7320   28.7140 H   0  0  0  0  0  0  0  0  0  0  0  0
   53.0190   98.4010   28.7630 N   0  0  0  0  0  0  0  0  0  0  0  0
   54.9490   92.6990   22.9000 C   0  0  0  0  0  3  0  0  0  0  0  0
   54.4280   92.7250   21.5270 C   0  0  0  0  0  3  0  0  0  0  0  0
   54.6470   91.5790   20.6490 C   0  0  0  0  0  0  0  0  0  0  0  0
   53.8160   91.0840   19.7260 N   0  0  0  0  0  0  0  0  0  0  0  0
   54.4170   90.0700   19.1250 C   0  0  0  0  0  0  0  0  0  0  0  0
   52.5710   91.4460   19.3590 C   0  0  0  0  0  3  0  0  0  0  0  0
   55.6300   89.9300   19.6780 N   0  0  0  0  0  0  0  0  0  0  0  0
   53.8180   89.3440   18.1180 C   0  0  0  0  0  3  0  0  0  0  0  0
   55.7650   90.8450   20.5990 N   0  0  0  0  0  0  0  0  0  0  0  0
   52.5400   89.7150   17.7420 C   0  0  0  0  0  3  0  0  0  0  0  0
   51.9260   90.7650   18.3690 C   0  0  0  0  0  3  0  0  0  0  0  0
  1  5  1  0  0  0  0
  1  2  2  0  0  0  0
  3  1  1  0  0  0  0
  4  3  1  0  0  0  0
  5 11  1  0  0  0  0
  6  5  2  0  0  0  0
  6  8  1  0  0  0  0
  7  6  1  0  0  0  0
  8  9  2  0  0  0  0
  9 10  1  0  0  0  0
 10 12  1  0  0  0  0
 11 10  2  0  0  0  0
 12 17  1  0  0  0  0
 13 12  2  0  0  0  0
 13 14  1  0  0  0  0
 14 16  1  0  0  0  0
 14 15  1  0  0  0  0
 17 15  2  0  0  0  0
 18  3  1  0  0  0  0
 19 18  2  0  0  0  0
 20 19  1  0  0  0  0
 21 20  1  0  0  0  0
 22 24  2  0  0  0  0
 22 21  1  0  0  0  0
 23 21  1  0  0  0  0
 24 26  1  0  0  0  0
 25 22  1  0  0  0  0
 26 20  2  0  0  0  0
 27 25  2  0  0  0  0
 27 28  1  0  0  0  0
 28 23  2  0  0  0  0
M  END
>  <Pose>
1

>  <Score>
-10.031

$$$$
