/Users/jonathanwahrer/Desktop/Msc/3_Semester/Drug_Design_Praktikum/waehrer_HTS_screening/HTS_experiment/out/docking_results/vina_output/3npc/2334_docked.pdbqt
 OpenBabel03192221103D

 30 33  0  0  1  0  0  0  0  0999 V2000
   54.1090   85.0550   24.5720 S   0  0  0  0  0  0  0  0  0  0  0  0
   54.8060   83.9500   25.3690 O   0  0  0  0  0  0  0  0  0  0  0  0
   53.1690   85.7100   25.5910 O   0  0  0  0  0  0  0  0  0  0  0  0
   55.3170   86.1490   24.1070 N   0  0  0  0  0  0  0  0  0  0  0  0
   54.9910   87.5290   24.1820 C   0  0  0  0  0  2  0  0  0  0  0  0
   56.1330   88.4350   23.7830 C   0  0  1  0  0  3  0  0  0  0  0  0
   57.3430   88.1390   24.6000 C   0  0  0  0  0  2  0  0  0  0  0  0
   57.6610   86.6540   24.6170 C   0  0  0  0  0  2  0  0  0  0  0  0
   56.4440   85.9040   25.0310 C   0  0  0  0  0  2  0  0  0  0  0  0
   56.3650   88.5070   22.3260 C   0  0  0  0  0  0  0  0  0  0  0  0
   56.8210   87.4290   21.7930 O   0  0  0  0  0  0  0  0  0  0  0  0
   56.1460   89.5910   21.4870 N   0  0  0  0  0  0  0  0  0  0  0  0
   56.3800   89.5130   20.0790 C   0  0  0  0  0  2  0  0  0  0  0  0
   55.6850   90.8620   21.9890 C   0  0  0  0  0  2  0  0  0  0  0  0
   55.3950   90.2980   19.2580 C   0  0  0  0  0  2  0  0  0  0  0  0
   54.7860   91.3300   19.9000 O   0  0  0  0  0  0  0  0  0  0  0  0
   54.3870   91.1040   21.2010 C   0  0  0  0  0  2  0  0  0  0  0  0
   53.1480   84.3640   23.3340 C   0  0  0  0  0  0  0  0  0  0  0  0
   51.9230   83.7920   23.5770 C   0  0  0  0  0  0  0  0  0  0  0  0
   51.1630   83.3080   22.5220 C   0  0  0  0  0  3  0  0  0  0  0  0
   51.2720   83.5550   25.1840 Cl  0  0  0  0  0  0  0  0  0  0  0  0
   51.6160   83.3850   21.2030 C   0  0  0  0  0  3  0  0  0  0  0  0
   52.8440   83.9540   20.9450 C   0  0  0  0  0  0  0  0  0  0  0  0
   53.5820   84.4280   22.0040 C   0  0  0  0  0  3  0  0  0  0  0  0
   53.3410   84.0450   19.5790 C   0  0  0  0  0  0  0  0  0  0  0  0
   52.8530   84.8360   18.6090 N   0  0  0  0  0  0  0  0  0  0  0  0
   53.5360   84.6660   17.5110 O   0  0  0  0  0  0  0  0  0  0  0  0
   54.4700   83.7780   17.7250 C   0  0  0  0  0  0  0  0  0  0  0  0
   54.3610   83.3830   19.0080 N   0  0  0  0  0  0  0  0  0  0  0  0
   55.4860   83.2790   16.7330 C   0  0  0  0  0  1  0  0  0  0  0  0
  1  2  2  0  0  0  0
  1  3  2  0  0  0  0
  4  5  1  0  0  0  0
  4  1  1  0  0  0  0
  4  9  1  0  0  0  0
  6 10  1  6  0  0  0
  6  5  1  0  0  0  0
  6  7  1  0  0  0  0
  7  8  1  0  0  0  0
  8  9  1  0  0  0  0
 11 10  2  0  0  0  0
 12 14  1  0  0  0  0
 12 10  1  0  0  0  0
 13 12  1  0  0  0  0
 15 16  1  0  0  0  0
 15 13  1  0  0  0  0
 16 17  1  0  0  0  0
 17 14  1  0  0  0  0
 18 19  1  0  0  0  0
 18  1  1  0  0  0  0
 19 21  1  0  0  0  0
 20 19  2  0  0  0  0
 22 20  1  0  0  0  0
 23 22  2  0  0  0  0
 23 24  1  0  0  0  0
 24 18  2  0  0  0  0
 25 23  1  0  0  0  0
 26 25  2  0  0  0  0
 27 28  1  0  0  0  0
 27 26  1  0  0  0  0
 28 29  2  0  0  0  0
 29 25  1  0  0  0  0
 30 28  1  0  0  0  0
M  END
>  <Pose>
1

>  <Score>
-8.674

$$$$
