/Users/jonathanwahrer/Desktop/Msc/3_Semester/Drug_Design_Praktikum/waehrer_HTS_screening/HTS_experiment/out/docking_results/vina_output/3npc/2335_docked.pdbqt
 OpenBabel03192221113D

 35 38  0  0  1  0  0  0  0  0999 V2000
   53.3960   84.8320   22.7370 N   0  0  0  0  0  0  0  0  0  0  0  0
   53.7780   85.3610   23.9860 C   0  0  0  0  0  2  0  0  0  0  0  0
   54.0980   84.3050   25.0210 C   0  0  2  0  0  3  0  0  0  0  0  0
   53.3870   83.0220   24.8190 C   0  0  0  0  0  2  0  0  0  0  0  0
   52.2120   83.0360   23.9120 C   0  0  0  0  0  3  0  0  0  0  0  0
   52.3300   83.9320   22.7050 C   0  0  0  0  0  3  0  0  0  0  0  0
   54.2530   85.2270   21.3690 S   0  0  0  0  0  0  0  0  0  0  0  0
   54.6280   83.9390   20.6380 O   0  0  0  0  0  0  0  0  0  0  0  0
   55.6010   85.7990   21.7930 O   0  0  0  0  0  0  0  0  0  0  0  0
   53.5120   86.3390   20.2790 C   0  0  0  0  0  0  0  0  0  0  0  0
   53.7080   87.7030   20.4330 C   0  0  0  0  0  3  0  0  0  0  0  0
   53.1520   88.6290   19.5840 C   0  0  0  0  0  0  0  0  0  0  0  0
   52.3560   88.1810   18.5230 C   0  0  0  0  0  0  0  0  0  0  0  0
   53.1700   90.0450   19.4720 N   0  0  0  0  0  0  0  0  0  0  0  0
   52.1710   86.8450   18.3810 C   0  0  0  0  0  3  0  0  0  0  0  0
   51.8530   89.3340   17.7300 C   0  0  0  0  0  2  0  0  0  0  0  0
   52.7330   85.9120   19.2370 C   0  0  0  0  0  0  0  0  0  0  0  0
   52.3940   84.0360   18.9370 Br  0  0  0  0  0  0  0  0  0  0  0  0
   51.9780   90.4680   18.7280 C   0  0  0  0  0  2  0  0  0  0  0  0
   54.1240   90.9370   19.9580 C   0  0  0  0  0  0  0  0  0  0  0  0
   54.0020   92.1880   19.7200 O   0  0  0  0  0  0  0  0  0  0  0  0
   55.2910   90.5390   20.7430 C   0  0  0  0  0  2  0  0  0  0  0  0
   56.4950   90.2250   19.8580 C   0  0  0  0  0  1  0  0  0  0  0  0
   53.8510   84.8150   26.3940 C   0  0  0  0  0  0  0  0  0  0  0  0
   54.5280   85.7970   26.7880 O   0  0  0  0  0  0  0  0  0  0  0  0
   52.8580   84.1920   27.2390 N   0  0  0  0  0  0  0  0  0  0  0  0
   52.3700   83.3940   26.8250 H   0  0  0  0  0  0  0  0  0  0  0  0
   52.6750   84.7330   28.5360 C   0  0  0  0  0  2  0  0  0  0  0  0
   51.9840   83.9180   29.5630 C   0  0  0  0  0  2  0  0  0  0  0  0
   50.6930   84.3030   29.9980 N   0  0  0  0  0  0  0  0  0  0  0  0
   49.5990   83.5700   29.5530 C   0  0  0  0  0  2  0  0  0  0  0  0
   48.6300   84.2850   28.6570 C   0  0  0  0  0  2  0  0  0  0  0  0
   48.4110   85.5980   29.0480 O   0  0  0  0  0  0  0  0  0  0  0  0
   49.6340   86.2560   28.9210 C   0  0  0  0  0  2  0  0  0  0  0  0
   50.5270   85.7370   30.0230 C   0  0  0  0  0  2  0  0  0  0  0  0
  1  2  1  0  0  0  0
  2  3  1  0  0  0  0
  3 24  1  1  0  0  0
  4  3  1  0  0  0  0
  5  4  1  0  0  0  0
  6  1  1  0  0  0  0
  6  5  2  0  0  0  0
  7  9  2  0  0  0  0
  7  1  1  0  0  0  0
  8  7  2  0  0  0  0
 10 11  1  0  0  0  0
 10  7  1  0  0  0  0
 12 11  2  0  0  0  0
 13 12  1  0  0  0  0
 14 12  1  0  0  0  0
 14 20  1  0  0  0  0
 15 13  2  0  0  0  0
 15 17  1  0  0  0  0
 16 13  1  0  0  0  0
 16 19  1  0  0  0  0
 17 10  2  0  0  0  0
 18 17  1  0  0  0  0
 19 14  1  0  0  0  0
 20 22  1  0  0  0  0
 21 20  2  0  0  0  0
 23 22  1  0  0  0  0
 24 25  2  0  0  0  0
 24 26  1  0  0  0  0
 26 28  1  0  0  0  0
 27 26  1  0  0  0  0
 28 29  1  0  0  0  0
 29 30  1  0  0  0  0
 30 35  1  0  0  0  0
 31 30  1  0  0  0  0
 32 33  1  0  0  0  0
 32 31  1  0  0  0  0
 34 33  1  0  0  0  0
 34 35  1  0  0  0  0
M  END
>  <Pose>
1

>  <Score>
-9.310

$$$$
