/Users/jonathanwahrer/Desktop/Msc/3_Semester/Drug_Design_Praktikum/waehrer_HTS_screening/HTS_experiment/out/docking_results/vina_output/3npc/2349_docked.pdbqt
 OpenBabel03192221113D

 28 31  0  0  1  0  0  0  0  0999 V2000
   53.6530   84.8450   23.7380 N   0  0  0  0  0  0  0  0  0  0  0  0
   53.4530   83.6500   22.9690 C   0  0  0  0  0  0  0  0  0  0  0  0
   52.9800   82.6290   23.5440 O   0  0  0  0  0  0  0  0  0  0  0  0
   53.8060   83.7060   21.5980 N   0  0  0  0  0  2  0  0  0  0  0  0
   54.2860   84.7110   21.0100 C   0  0  0  0  0  0  0  0  0  0  0  0
   54.5840   86.0400   21.6470 C   0  0  1  0  0  0  0  0  0  0  0  0
   56.0800   86.1650   21.5760 C   0  0  0  0  0  2  0  0  0  0  0  0
   56.6260   87.4670   21.6030 N   0  0  0  0  0  4  0  0  0  0  0  0
   55.9320   88.4510   20.8600 C   0  0  0  0  0  0  0  0  0  0  0  0
   54.6310   88.2590   20.5230 C   0  0  0  0  0  0  0  0  0  0  0  0
   53.9820   89.2510   19.7930 C   0  0  0  0  0  3  0  0  0  0  0  0
   54.6620   90.3940   19.4270 C   0  0  0  0  0  0  0  0  0  0  0  0
   55.9920   90.5880   19.7710 C   0  0  0  0  0  3  0  0  0  0  0  0
   56.6290   89.5880   20.5020 C   0  0  0  0  0  3  0  0  0  0  0  0
   53.9950   91.4740   18.6330 C   0  0  0  0  0  1  0  0  0  0  0  0
   53.8370   87.0640   20.8830 C   0  0  0  0  0  2  0  0  0  0  0  0
   56.9430   87.9840   22.9250 C   0  0  0  0  0  1  0  0  0  0  0  0
   54.1740   85.9810   23.0710 C   0  0  0  0  0  0  0  0  0  0  0  0
   54.2720   87.0210   23.8180 O   0  0  0  0  0  0  0  0  0  0  0  0
   54.5930   84.6510   19.6380 O   0  0  0  0  0  0  0  0  0  0  0  0
   57.5810   87.4050   21.1230 H   0  0  0  0  0  0  0  0  0  0  0  0
   53.3440   84.7870   25.1160 C   0  0  0  0  0  0  0  0  0  0  0  0
   52.0500   85.0160   25.5860 C   0  0  0  0  0  3  0  0  0  0  0  0
   51.7250   84.9590   26.9150 C   0  0  0  0  0  3  0  0  0  0  0  0
   52.6800   84.6660   27.8880 C   0  0  0  0  0  0  0  0  0  0  0  0
   52.2390   84.5880   29.5830 Cl  0  0  0  0  0  0  0  0  0  0  0  0
   53.9610   84.4390   27.4240 C   0  0  0  0  0  3  0  0  0  0  0  0
   54.2850   84.4970   26.0900 C   0  0  0  0  0  3  0  0  0  0  0  0
  1 22  1  0  0  0  0
  2  3  2  0  0  0  0
  2  1  1  0  0  0  0
  4  2  1  0  0  0  0
  5  4  1  0  0  0  0
  5  6  1  0  0  0  0
  6 16  1  6  0  0  0
  6 18  1  0  0  0  0
  7  8  1  0  0  0  0
  7  6  1  0  0  0  0
  8 17  1  0  0  0  0
  9  8  1  0  0  0  0
 10  9  1  0  0  0  0
 10 16  1  0  0  0  0
 11 10  2  0  0  0  0
 12 13  2  0  0  0  0
 12 11  1  0  0  0  0
 13 14  1  0  0  0  0
 14  9  2  0  0  0  0
 15 12  1  0  0  0  0
 18  1  1  0  0  0  0
 18 19  2  0  0  0  0
 20  5  2  0  0  0  0
 21  8  1  0  0  0  0
 22 23  2  0  0  0  0
 22 28  1  0  0  0  0
 23 24  1  0  0  0  0
 24 25  2  0  0  0  0
 25 26  1  0  0  0  0
 27 25  1  0  0  0  0
 28 27  2  0  0  0  0
M  END
>  <Pose>
1

>  <Score>
-7.914

$$$$
