/Users/jonathanwahrer/Desktop/Msc/3_Semester/Drug_Design_Praktikum/waehrer_HTS_screening/HTS_experiment/out/docking_results/vina_output/3npc/2350_docked.pdbqt
 OpenBabel03192221113D

 23 26  0  0  1  0  0  0  0  0999 V2000
   54.8970   88.1440   20.8430 N   0  0  0  0  0  0  0  0  0  0  0  0
   56.2990   88.2660   21.1370 C   0  0  0  0  0  0  0  0  0  0  0  0
   57.0160   89.2010   20.7010 O   0  0  0  0  0  0  0  0  0  0  0  0
   56.7530   87.1520   22.0060 C   0  0  1  0  0  3  0  0  0  0  0  0
   57.2200   87.5930   23.3550 C   0  0  1  0  0  3  0  0  0  0  0  0
   56.4390   88.8380   23.7190 C   0  0  1  0  0  3  0  0  0  0  0  0
   55.0200   88.2820   23.8360 C   0  0  1  0  0  3  0  0  0  0  0  0
   55.1440   86.7850   23.6740 C   0  0  1  0  0  3  0  0  0  0  0  0
   55.4640   86.3650   22.2740 C   0  0  1  0  0  3  0  0  0  0  0  0
   54.4980   86.8470   21.2580 C   0  0  0  0  0  0  0  0  0  0  0  0
   53.5070   86.1900   20.8550 O   0  0  0  0  0  0  0  0  0  0  0  0
   56.5400   86.6000   24.3130 C   0  0  0  0  0  2  0  0  0  0  0  0
   54.0240   89.1010   20.2590 C   0  0  0  0  0  0  0  0  0  0  0  0
   54.2110   90.4690   20.4890 C   0  0  0  0  0  3  0  0  0  0  0  0
   53.3640   91.3980   19.9330 C   0  0  0  0  0  3  0  0  0  0  0  0
   52.3050   91.0180   19.1300 C   0  0  0  0  0  0  0  0  0  0  0  0
   51.2330   92.2310   18.4330 Cl  0  0  0  0  0  0  0  0  0  0  0  0
   52.0990   89.6680   18.8870 C   0  0  0  0  0  3  0  0  0  0  0  0
   52.9610   88.7610   19.4560 C   0  0  0  0  0  3  0  0  0  0  0  0
   56.8360   89.2330   24.9780 O   0  0  0  0  0  0  0  0  0  0  0  0
   57.0950   90.1800   25.0570 H   0  0  0  0  0  0  0  0  0  0  0  0
   54.5080   88.4900   25.1150 O   0  0  0  0  0  0  0  0  0  0  0  0
   54.0480   87.6410   25.3910 H   0  0  0  0  0  0  0  0  0  0  0  0
  1  2  1  0  0  0  0
  1 10  1  0  0  0  0
  3  2  2  0  0  0  0
  4  2  1  6  0  0  0
  4  9  1  0  0  0  0
  4  5  1  0  0  0  0
  5  6  1  0  0  0  0
  5 12  1  1  0  0  0
  6  7  1  0  0  0  0
  6 20  1  1  0  0  0
  7 22  1  1  0  0  0
  8  7  1  0  0  0  0
  8 12  1  1  0  0  0
  9 10  1  6  0  0  0
  9  8  1  0  0  0  0
 11 10  2  0  0  0  0
 13 14  1  0  0  0  0
 13  1  1  0  0  0  0
 15 14  2  0  0  0  0
 16 15  1  0  0  0  0
 17 16  1  0  0  0  0
 18 16  2  0  0  0  0
 18 19  1  0  0  0  0
 19 13  2  0  0  0  0
 20 21  1  0  0  0  0
 22 23  1  0  0  0  0
M  END
>  <Pose>
1

>  <Score>
-8.308

$$$$
