/Users/jonathanwahrer/Desktop/Msc/3_Semester/Drug_Design_Praktikum/waehrer_HTS_screening/HTS_experiment/out/docking_results/vina_output/3npc/2358_docked.pdbqt
 OpenBabel03192221123D

 34 37  0  0  1  0  0  0  0  0999 V2000
   56.0880   87.5220   22.3280 N   0  0  0  0  0  0  0  0  0  0  0  0
   57.2800   86.7740   22.1280 C   0  0  0  0  0  0  0  0  0  0  0  0
   57.6490   86.5430   20.9400 O   0  0  0  0  0  0  0  0  0  0  0  0
   58.0430   86.2950   23.2160 N   0  0  0  0  0  0  0  0  0  0  0  0
   57.6370   86.5490   24.5470 C   0  0  0  0  0  0  0  0  0  0  0  0
   58.4000   86.2830   25.5400 O   0  0  0  0  0  0  0  0  0  0  0  0
   56.3290   87.1290   24.8500 C   0  0  1  0  0  3  0  0  0  0  0  0
   55.7110   87.7580   23.6760 C   0  0  0  0  0  0  0  0  0  0  0  0
   54.7550   88.5910   23.8450 O   0  0  0  0  0  0  0  0  0  0  0  0
   58.9230   85.7410   23.0470 H   0  0  0  0  0  0  0  0  0  0  0  0
   55.4410   86.1030   25.4730 C   0  0  1  0  0  3  0  0  0  0  0  0
   54.1890   86.2240   25.8270 C   0  0  0  0  0  2  0  0  0  0  0  0
   53.7660   84.9210   26.3950 C   0  0  2  0  0  3  0  0  0  0  0  0
   55.0120   84.2560   26.7110 N   0  0  0  0  0  0  0  0  0  0  0  0
   55.8990   84.7870   25.7670 N   0  0  0  0  0  0  0  0  0  0  0  0
   55.3210   84.4640   27.6900 H   0  0  0  0  0  0  0  0  0  0  0  0
   56.7290   84.2640   25.3850 H   0  0  0  0  0  0  0  0  0  0  0  0
   53.0000   84.1330   25.3900 C   0  0  0  0  0  0  0  0  0  0  0  0
   52.3800   84.7220   24.3120 C   0  0  0  0  0  3  0  0  0  0  0  0
   51.6670   83.9990   23.3730 C   0  0  0  0  0  0  0  0  0  0  0  0
   51.5550   82.6330   23.4970 C   0  0  0  0  0  0  0  0  0  0  0  0
   52.1670   82.0270   24.5650 C   0  0  0  0  0  3  0  0  0  0  0  0
   52.8760   82.7550   25.4950 C   0  0  0  0  0  3  0  0  0  0  0  0
   51.0650   84.6470   22.3110 O   0  0  0  0  0  0  0  0  0  0  0  0
   51.0990   85.6430   22.2230 H   0  0  0  0  0  0  0  0  0  0  0  0
   50.8470   81.8930   22.5710 O   0  0  0  0  0  0  0  0  0  0  0  0
   49.4900   81.5940   22.8080 C   0  0  0  0  0  1  0  0  0  0  0  0
   55.3020   88.0210   21.2530 C   0  0  0  0  0  0  0  0  0  0  0  0
   55.5920   89.2240   20.6220 C   0  0  0  0  0  3  0  0  0  0  0  0
   54.8430   89.7060   19.5920 C   0  0  0  0  0  3  0  0  0  0  0  0
   53.7470   88.9820   19.1440 C   0  0  0  0  0  0  0  0  0  0  0  0
   52.7570   89.5670   17.8200 Cl  0  0  0  0  0  0  0  0  0  0  0  0
   53.4290   87.7780   19.7510 C   0  0  0  0  0  3  0  0  0  0  0  0
   54.2140   87.3050   20.8050 C   0  0  0  0  0  3  0  0  0  0  0  0
  1  8  1  0  0  0  0
  2  1  1  0  0  0  0
  2  4  1  0  0  0  0
  3  2  2  0  0  0  0
  4  5  1  0  0  0  0
  5  7  1  0  0  0  0
  5  6  2  0  0  0  0
  7  8  1  6  0  0  0
  7 11  1  0  0  0  0
  8  9  2  0  0  0  0
 10  4  1  0  0  0  0
 11 15  1  0  0  0  0
 11 12  1  6  0  0  0
 12 13  1  0  0  0  0
 13 18  1  6  0  0  0
 13 14  1  0  0  0  0
 14 16  1  0  0  0  0
 15 14  1  0  0  0  0
 17 15  1  0  0  0  0
 18 23  1  0  0  0  0
 19 18  2  0  0  0  0
 20 21  2  0  0  0  0
 20 19  1  0  0  0  0
 21 22  1  0  0  0  0
 22 23  2  0  0  0  0
 24 20  1  0  0  0  0
 25 24  1  0  0  0  0
 26 27  1  0  0  0  0
 26 21  1  0  0  0  0
 28  1  1  0  0  0  0
 29 28  2  0  0  0  0
 30 29  1  0  0  0  0
 31 30  2  0  0  0  0
 31 33  1  0  0  0  0
 32 31  1  0  0  0  0
 33 34  2  0  0  0  0
 34 28  1  0  0  0  0
M  END
>  <Pose>
1

>  <Score>
-9.118

$$$$
