/Users/jonathanwahrer/Desktop/Msc/3_Semester/Drug_Design_Praktikum/waehrer_HTS_screening/HTS_experiment/out/docking_results/vina_output/3npc/2361_docked.pdbqt
 OpenBabel03192221123D

 30 33  0  0  1  0  0  0  0  0999 V2000
   55.7340   89.1230   21.9470 N   0  0  0  0  0  0  0  0  0  0  0  0
   55.5190   90.0890   22.9590 C   0  0  0  0  0  0  0  0  0  0  0  0
   54.9330   91.1670   22.6910 O   0  0  0  0  0  0  0  0  0  0  0  0
   55.9790   89.8110   24.2930 N   0  0  0  0  0  0  0  0  0  0  0  0
   56.6420   88.5920   24.6000 C   0  0  0  0  0  0  0  0  0  0  0  0
   57.3240   88.5070   25.6510 O   0  0  0  0  0  0  0  0  0  0  0  0
   56.5180   87.4510   23.6790 C   0  0  2  0  0  3  0  0  0  0  0  0
   56.3980   87.9190   22.2880 C   0  0  0  0  0  0  0  0  0  0  0  0
   56.9060   87.2240   21.3410 O   0  0  0  0  0  0  0  0  0  0  0  0
   55.8420   90.4940   25.0690 H   0  0  0  0  0  0  0  0  0  0  0  0
   55.3350   86.5990   24.0400 C   0  0  1  0  0  3  0  0  0  0  0  0
   54.9230   86.2410   25.2280 C   0  0  0  0  0  2  0  0  0  0  0  0
   53.7220   85.4030   25.0930 C   0  0  1  0  0  3  0  0  0  0  0  0
   53.2970   85.6200   23.7390 N   0  0  0  0  0  0  0  0  0  0  0  0
   54.4570   86.0480   23.0720 N   0  0  0  0  0  0  0  0  0  0  0  0
   52.5420   86.3080   23.6670 H   0  0  0  0  0  0  0  0  0  0  0  0
   54.5760   85.9440   22.0390 H   0  0  0  0  0  0  0  0  0  0  0  0
   54.1530   83.9930   25.2740 C   0  0  0  0  0  0  0  0  0  0  0  0
   55.2500   83.6980   26.0480 C   0  0  0  0  0  3  0  0  0  0  0  0
   55.6500   82.4070   26.2170 N   0  0  0  0  0  0  0  0  0  0  0  0
   55.0090   81.3720   25.6500 C   0  0  0  0  0  3  0  0  0  0  0  0
   53.9060   81.6320   24.8690 C   0  0  0  0  0  3  0  0  0  0  0  0
   53.4810   82.9560   24.6840 C   0  0  0  0  0  3  0  0  0  0  0  0
   55.2910   89.3630   20.5900 C   0  0  0  0  0  0  0  0  0  0  0  0
   54.1770   88.7450   20.0640 C   0  0  0  0  0  3  0  0  0  0  0  0
   53.7640   88.9850   18.7590 C   0  0  0  0  0  3  0  0  0  0  0  0
   54.4570   89.8520   17.9420 C   0  0  0  0  0  0  0  0  0  0  0  0
   53.9400   90.1600   16.2930 Cl  0  0  0  0  0  0  0  0  0  0  0  0
   55.5720   90.4670   18.4710 C   0  0  0  0  0  3  0  0  0  0  0  0
   55.9810   90.2280   19.7700 C   0  0  0  0  0  3  0  0  0  0  0  0
  1  8  1  0  0  0  0
  1  2  1  0  0  0  0
  2  4  1  0  0  0  0
  3  2  2  0  0  0  0
  4  5  1  0  0  0  0
  4 10  1  0  0  0  0
  5  6  2  0  0  0  0
  7  8  1  6  0  0  0
  7 11  1  0  0  0  0
  7  5  1  0  0  0  0
  9  8  2  0  0  0  0
 11 12  1  1  0  0  0
 13 12  1  0  0  0  0
 13 18  1  6  0  0  0
 14 13  1  0  0  0  0
 15 14  1  0  0  0  0
 15 11  1  0  0  0  0
 16 14  1  0  0  0  0
 17 15  1  0  0  0  0
 18 19  1  0  0  0  0
 19 20  2  0  0  0  0
 21 20  1  0  0  0  0
 22 21  2  0  0  0  0
 23 22  1  0  0  0  0
 23 18  2  0  0  0  0
 24  1  1  0  0  0  0
 25 24  1  0  0  0  0
 26 25  2  0  0  0  0
 27 29  2  0  0  0  0
 27 26  1  0  0  0  0
 28 27  1  0  0  0  0
 29 30  1  0  0  0  0
 30 24  2  0  0  0  0
M  END
>  <Pose>
1

>  <Score>
-9.352

$$$$
