/Users/jonathanwahrer/Desktop/Msc/3_Semester/Drug_Design_Praktikum/waehrer_HTS_screening/HTS_experiment/out/docking_results/vina_output/3npc/2364_docked.pdbqt
 OpenBabel03192221133D

 33 37  0  0  1  0  0  0  0  0999 V2000
   49.1140  104.6610   34.2270 N   0  0  0  0  0  0  0  0  0  0  0  0
   47.8850  105.3370   33.9920 C   0  0  0  0  0  0  0  0  0  0  0  0
   47.5750  106.3370   34.7170 O   0  0  0  0  0  0  0  0  0  0  0  0
   46.9360  104.9460   32.9460 C   0  0  1  0  0  3  0  0  0  0  0  0
   47.2100  103.6940   32.3220 N   0  0  1  0  0  0  0  0  0  0  0  0
   48.5850  103.3300   32.2000 C   0  0  2  0  0  0  0  0  0  0  0  0
   49.2910  103.8220   30.9600 C   0  0  0  0  0  2  0  0  0  0  0  0
   49.3730  102.4810   30.4800 N   0  0  0  0  0  0  0  0  0  0  0  0
   48.6910  101.9430   31.5900 C   0  0  0  0  0  2  0  0  0  0  0  0
   49.3650  103.4930   33.4550 C   0  0  0  0  0  0  0  0  0  0  0  0
   50.2170  102.6570   33.8490 O   0  0  0  0  0  0  0  0  0  0  0  0
   46.5060  102.6700   33.0390 C   0  0  0  0  0  2  0  0  0  0  0  0
   45.7010  103.3310   34.1230 C   0  0  1  0  0  3  0  0  0  0  0  0
   45.5790  104.7460   33.6350 C   0  0  0  0  0  2  0  0  0  0  0  0
   48.9600  102.1890   29.1560 C   0  0  0  0  0  2  0  0  0  0  0  0
   49.8490  101.3180   28.3790 C   0  0  0  0  0  0  0  0  0  0  0  0
   50.8480  100.6170   29.0090 C   0  0  0  0  0  3  0  0  0  0  0  0
   51.7090   99.7810   28.2930 C   0  0  0  0  0  0  0  0  0  0  0  0
   51.5470   99.6620   26.9320 C   0  0  0  0  0  3  0  0  0  0  0  0
   50.5550  100.3510   26.2760 C   0  0  0  0  0  3  0  0  0  0  0  0
   49.7140  101.1760   27.0200 C   0  0  0  0  0  3  0  0  0  0  0  0
   52.7150   99.0750   28.9230 O   0  0  0  0  0  0  0  0  0  0  0  0
   53.0780   97.8090   28.4050 C   0  0  0  0  0  1  0  0  0  0  0  0
   50.0790  105.1270   35.2070 C   0  0  0  0  0  2  0  0  0  0  0  0
   51.0220  106.1100   34.5700 C   0  0  0  0  0  0  0  0  0  0  0  0
   52.2020  106.4590   35.1850 C   0  0  0  0  0  3  0  0  0  0  0  0
   53.0840  107.3590   34.6220 C   0  0  0  0  0  0  0  0  0  0  0  0
   54.5760  107.7780   35.4330 Cl  0  0  0  0  0  0  0  0  0  0  0  0
   52.7920  107.9370   33.4090 C   0  0  0  0  0  3  0  0  0  0  0  0
   51.6070  107.5740   32.8110 C   0  0  0  0  0  3  0  0  0  0  0  0
   50.7300  106.6890   33.3550 C   0  0  0  0  0  3  0  0  0  0  0  0
   44.4670  102.7280   34.3250 O   0  0  0  0  0  0  0  0  0  0  0  0
   43.9880  103.2600   35.0060 H   0  0  0  0  0  0  0  0  0  0  0  0
  1 24  1  0  0  0  0
  2  1  1  0  0  0  0
  2  3  2  0  0  0  0
  4 14  1  1  0  0  0
  4  2  1  0  0  0  0
  5  4  1  0  0  0  0
  5 12  1  1  0  0  0
  6  7  1  6  0  0  0
  6  5  1  0  0  0  0
  6 10  1  0  0  0  0
  8  7  1  0  0  0  0
  8  9  1  0  0  0  0
  9  6  1  0  0  0  0
 10 11  2  0  0  0  0
 10  1  1  0  0  0  0
 12 13  1  0  0  0  0
 13 32  1  6  0  0  0
 14 13  1  0  0  0  0
 15  8  1  0  0  0  0
 16 17  1  0  0  0  0
 16 15  1  0  0  0  0
 18 22  1  0  0  0  0
 18 17  2  0  0  0  0
 19 18  1  0  0  0  0
 20 19  2  0  0  0  0
 20 21  1  0  0  0  0
 21 16  2  0  0  0  0
 23 22  1  0  0  0  0
 25 26  1  0  0  0  0
 25 24  1  0  0  0  0
 27 26  2  0  0  0  0
 27 28  1  0  0  0  0
 29 27  1  0  0  0  0
 30 31  1  0  0  0  0
 30 29  2  0  0  0  0
 31 25  2  0  0  0  0
 32 33  1  0  0  0  0
M  END
>  <Pose>
1

>  <Score>
-7.158

$$$$
