/Users/jonathanwahrer/Desktop/Msc/3_Semester/Drug_Design_Praktikum/waehrer_HTS_screening/HTS_experiment/out/docking_results/vina_output/3npc/2365_docked.pdbqt
 OpenBabel03192221133D

 32 36  0  0  1  0  0  0  0  0999 V2000
   53.1020   87.0170   20.1560 N   0  0  0  0  0  0  0  0  0  0  0  0
   52.6530   87.6610   18.9930 C   0  0  0  0  0  0  0  0  0  0  0  0
   51.9710   86.9900   18.1600 O   0  0  0  0  0  0  0  0  0  0  0  0
   53.6660   87.5590   20.8540 H   0  0  0  0  0  0  0  0  0  0  0  0
   52.9220   89.0800   18.6650 C   0  0  1  0  0  0  0  0  0  0  0  0
   53.5020   89.8050   19.8630 C   0  0  0  0  0  2  0  0  0  0  0  0
   53.7660   91.2480   19.5400 C   0  0  1  0  0  0  0  0  0  0  0  0
   54.8210   91.2740   18.4320 C   0  0  0  0  0  2  0  0  0  0  0  0
   52.5540   91.9670   19.0340 C   0  0  0  0  0  2  0  0  0  0  0  0
   54.3010   90.5560   17.2280 C   0  0  1  0  0  3  0  0  0  0  0  0
   53.9650   89.1220   17.5690 C   0  0  0  0  0  2  0  0  0  0  0  0
   53.0580   91.2580   16.7330 C   0  0  0  0  0  2  0  0  0  0  0  0
   52.0290   91.2150   17.8380 C   0  0  1  0  0  3  0  0  0  0  0  0
   51.6800   89.7890   18.1740 C   0  0  0  0  0  2  0  0  0  0  0  0
   54.3170   91.8620   20.7320 N   0  0  0  0  0  0  0  0  0  0  0  0
   53.8260   92.8190   21.4990 N   0  0  0  0  0  0  0  0  0  0  0  0
   54.6190   93.1060   22.4880 N   0  0  0  0  0  0  0  0  0  0  0  0
   55.6810   92.3260   22.3950 C   0  0  0  0  0  3  0  0  0  0  0  0
   55.4950   91.5450   21.2950 N   0  0  0  0  0  0  0  0  0  0  0  0
   52.8150   85.6930   20.4000 N   0  0  0  0  0  0  0  0  0  0  0  0
   53.7530   84.7340   20.8520 C   0  0  0  0  0  0  0  0  0  0  0  0
   54.9510   85.0490   21.0680 O   0  0  0  0  0  0  0  0  0  0  0  0
   51.8260   85.3510   20.2410 H   0  0  0  0  0  0  0  0  0  0  0  0
   53.3800   83.3120   21.0990 C   0  0  1  0  0  3  0  0  0  0  0  0
   52.8100   83.1000   22.4610 C   0  0  0  0  0  1  0  0  0  0  0  0
   52.4310   82.8530   20.0160 C   0  0  0  0  0  2  0  0  0  0  0  0
   53.1050   82.5650   18.7720 N   0  0  0  0  0  0  0  0  0  0  0  0
   53.1140   83.3060   17.6350 C   0  0  0  0  0  3  0  0  0  0  0  0
   53.8820   82.6740   16.6770 C   0  0  0  0  0  0  0  0  0  0  0  0
   54.2720   83.2180   14.8930 Br  0  0  0  0  0  0  0  0  0  0  0  0
   54.3390   81.5090   17.2980 C   0  0  0  0  0  3  0  0  0  0  0  0
   53.8370   81.5080   18.5460 N   0  0  0  0  0  0  0  0  0  0  0  0
  1 20  1  0  0  0  0
  1  4  1  0  0  0  0
  2  1  1  0  0  0  0
  3  2  2  0  0  0  0
  5  2  1  1  0  0  0
  5  6  1  0  0  0  0
  7  8  1  6  0  0  0
  7  6  1  0  0  0  0
  7 15  1  0  0  0  0
  9  7  1  0  0  0  0
 10 12  1  1  0  0  0
 10 11  1  0  0  0  0
 10  8  1  0  0  0  0
 11  5  1  0  0  0  0
 13 12  1  6  0  0  0
 13 14  1  0  0  0  0
 13  9  1  0  0  0  0
 14  5  1  0  0  0  0
 15 19  1  0  0  0  0
 15 16  1  0  0  0  0
 16 17  2  0  0  0  0
 18 17  1  0  0  0  0
 19 18  2  0  0  0  0
 20 21  1  0  0  0  0
 21 22  2  0  0  0  0
 21 24  1  0  0  0  0
 23 20  1  0  0  0  0
 24 25  1  1  0  0  0
 26 24  1  0  0  0  0
 27 26  1  0  0  0  0
 28 27  1  0  0  0  0
 29 31  1  0  0  0  0
 29 28  2  0  0  0  0
 30 29  1  0  0  0  0
 31 32  2  0  0  0  0
 32 27  1  0  0  0  0
M  END
>  <Pose>
1

>  <Score>
-9.520

$$$$
