/Users/jonathanwahrer/Desktop/Msc/3_Semester/Drug_Design_Praktikum/waehrer_HTS_screening/HTS_experiment/out/docking_results/vina_output/3npc/2373_docked.pdbqt
 OpenBabel03192221143D

 28 31  0  0  1  0  0  0  0  0999 V2000
   53.6010   87.7660   19.7850 N   0  0  0  0  0  0  0  0  0  0  0  0
   54.2230   88.9070   19.5460 C   0  0  2  0  0  3  0  0  0  0  0  0
   55.1790   89.1460   20.4830 N   0  0  0  0  0  0  0  0  0  0  0  0
   55.1640   88.1450   21.3350 C   0  0  0  0  0  0  0  0  0  0  0  0
   54.1570   87.2640   20.8860 C   0  0  0  0  0  3  0  0  0  0  0  0
   56.0530   90.2850   20.4580 C   0  0  0  0  0  2  0  0  0  0  0  0
   55.3010   91.5420   20.8890 C   0  0  0  0  0  2  0  0  0  0  0  0
   53.8890   91.3650   20.3210 C   0  0  0  0  0  2  0  0  0  0  0  0
   54.0010   91.2650   18.8250 C   0  0  0  0  0  2  0  0  0  0  0  0
   53.8660   89.7950   18.3970 C   0  0  0  0  0  2  0  0  0  0  0  0
   52.5120   87.0890   19.0740 C   0  0  0  0  0  2  0  0  0  0  0  0
   52.5660   85.6500   19.4100 C   0  0  0  0  0  0  0  0  0  0  0  0
   51.9010   85.2660   20.4290 O   0  0  0  0  0  0  0  0  0  0  0  0
   53.3220   84.6730   18.6580 C   0  0  0  0  0  0  0  0  0  0  0  0
   53.8920   83.5930   19.3420 C   0  0  0  0  0  3  0  0  0  0  0  0
   54.6230   82.6360   18.6840 C   0  0  0  0  0  3  0  0  0  0  0  0
   54.8300   82.6930   17.3280 C   0  0  0  0  0  0  0  0  0  0  0  0
   55.7500   81.5120   16.4320 Cl  0  0  0  0  0  0  0  0  0  0  0  0
   54.2620   83.7670   16.6600 C   0  0  0  0  0  3  0  0  0  0  0  0
   53.5270   84.7320   17.3110 C   0  0  0  0  0  3  0  0  0  0  0  0
   55.9920   87.8810   22.5160 C   0  0  0  0  0  0  0  0  0  0  0  0
   55.9990   88.6020   23.6660 C   0  0  0  0  0  3  0  0  0  0  0  0
   56.8630   88.3400   24.7290 C   0  0  0  0  0  3  0  0  0  0  0  0
   57.7630   87.3130   24.6520 C   0  0  0  0  0  0  0  0  0  0  0  0
   57.7790   86.5630   23.5020 C   0  0  0  0  0  3  0  0  0  0  0  0
   56.9200   86.8360   22.4600 C   0  0  0  0  0  3  0  0  0  0  0  0
   58.6450   87.0270   25.7080 O   0  0  0  0  0  0  0  0  0  0  0  0
   59.6390   87.9220   26.1290 C   0  0  0  0  0  1  0  0  0  0  0  0
  1  5  1  0  0  0  0
  2 10  1  1  0  0  0
  2  1  1  0  0  0  0
  2  3  1  0  0  0  0
  3  4  1  0  0  0  0
  4 21  1  0  0  0  0
  5  4  2  0  0  0  0
  6  3  1  0  0  0  0
  6  7  1  0  0  0  0
  8  7  1  0  0  0  0
  9  8  1  0  0  0  0
 10  9  1  0  0  0  0
 11 12  1  0  0  0  0
 11  1  1  0  0  0  0
 12 13  2  0  0  0  0
 14 15  1  0  0  0  0
 14 12  1  0  0  0  0
 16 15  2  0  0  0  0
 17 16  1  0  0  0  0
 18 17  1  0  0  0  0
 19 20  1  0  0  0  0
 19 17  2  0  0  0  0
 20 14  2  0  0  0  0
 21 22  1  0  0  0  0
 22 23  2  0  0  0  0
 24 23  1  0  0  0  0
 24 27  1  0  0  0  0
 25 24  2  0  0  0  0
 26 21  2  0  0  0  0
 26 25  1  0  0  0  0
 27 28  1  0  0  0  0
M  END
>  <Pose>
1

>  <Score>
-9.192

$$$$
