/Users/jonathanwahrer/Desktop/Msc/3_Semester/Drug_Design_Praktikum/waehrer_HTS_screening/HTS_experiment/out/docking_results/vina_output/3npc/2381_docked.pdbqt
 OpenBabel03192221153D

 30 33  0  0  0  0  0  0  0  0999 V2000
   55.6620   87.5400   23.7030 N   0  0  0  0  0  0  0  0  0  0  0  0
   57.0410   87.2250   23.9540 C   0  0  0  0  0  2  0  0  0  0  0  0
   57.1950   85.8390   24.5380 C   0  0  0  0  0  2  0  0  0  0  0  0
   56.0890   85.4870   25.3930 N   0  0  0  0  0  0  0  0  0  0  0  0
   55.1830   86.5270   25.8160 C   0  0  0  0  0  2  0  0  0  0  0  0
   54.5790   87.1410   24.5790 C   0  0  0  0  0  2  0  0  0  0  0  0
   55.9040   84.1430   25.8040 C   0  0  0  0  0  0  0  0  0  0  0  0
   56.6990   83.2210   25.4330 O   0  0  0  0  0  0  0  0  0  0  0  0
   55.3380   88.2850   22.5280 C   0  0  0  0  0  0  0  0  0  0  0  0
   54.6770   87.7230   21.4540 C   0  0  0  0  0  0  0  0  0  0  0  0
   54.2120   86.0390   21.5310 Cl  0  0  0  0  0  0  0  0  0  0  0  0
   54.3990   88.5120   20.3490 C   0  0  0  0  0  0  0  0  0  0  0  0
   54.7420   89.8100   20.2620 N   0  0  0  0  0  0  0  0  0  0  0  0
   53.8020   88.0100   19.3730 O   0  0  0  0  0  0  0  0  0  0  0  0
   55.3750   90.3320   21.3000 N   0  0  0  0  0  0  0  0  0  0  0  0
   55.6750   89.6210   22.4030 C   0  0  0  0  0  3  0  0  0  0  0  0
   54.4290   90.5730   19.0930 C   0  0  0  0  0  0  0  0  0  0  0  0
   53.2930   91.3540   19.0430 C   0  0  0  0  0  3  0  0  0  0  0  0
   52.9830   92.0930   17.9190 C   0  0  0  0  0  3  0  0  0  0  0  0
   53.7880   92.0870   16.7990 C   0  0  0  0  0  3  0  0  0  0  0  0
   54.9260   91.3090   16.8440 C   0  0  0  0  0  3  0  0  0  0  0  0
   55.2300   90.5730   17.9670 C   0  0  0  0  0  3  0  0  0  0  0  0
   54.7800   83.7270   26.6840 C   0  0  0  0  0  2  0  0  0  0  0  0
   53.8580   82.9150   26.0100 O   0  0  0  0  0  0  0  0  0  0  0  0
   52.9350   83.4690   25.1440 C   0  0  0  0  0  0  0  0  0  0  0  0
   52.0320   84.4330   25.3560 N   0  0  0  0  0  0  0  0  0  0  0  0
   51.3560   84.6610   24.2780 O   0  0  0  0  0  0  0  0  0  0  0  0
   51.7510   83.8840   23.2900 C   0  0  0  0  0  0  0  0  0  0  0  0
   52.7640   83.1080   23.8160 C   0  0  0  0  0  3  0  0  0  0  0  0
   51.1650   83.9170   21.9380 C   0  0  0  0  0  1  0  0  0  0  0  0
  1  2  1  0  0  0  0
  1  6  1  0  0  0  0
  2  3  1  0  0  0  0
  3  4  1  0  0  0  0
  4  7  1  0  0  0  0
  4  5  1  0  0  0  0
  6  5  1  0  0  0  0
  7 23  1  0  0  0  0
  8  7  2  0  0  0  0
  9  1  1  0  0  0  0
 10 11  1  0  0  0  0
 10  9  2  0  0  0  0
 12 10  1  0  0  0  0
 13 12  1  0  0  0  0
 13 15  1  0  0  0  0
 14 12  2  0  0  0  0
 15 16  2  0  0  0  0
 16  9  1  0  0  0  0
 17 13  1  0  0  0  0
 18 17  1  0  0  0  0
 19 18  2  0  0  0  0
 20 21  2  0  0  0  0
 20 19  1  0  0  0  0
 21 22  1  0  0  0  0
 22 17  2  0  0  0  0
 24 23  1  0  0  0  0
 25 26  2  0  0  0  0
 25 24  1  0  0  0  0
 27 26  1  0  0  0  0
 28 29  2  0  0  0  0
 28 27  1  0  0  0  0
 29 25  1  0  0  0  0
 30 28  1  0  0  0  0
M  END
>  <Pose>
1

>  <Score>
-8.286

$$$$
