/Users/jonathanwahrer/Desktop/Msc/3_Semester/Drug_Design_Praktikum/waehrer_HTS_screening/HTS_experiment/out/docking_results/vina_output/3npc/2402_docked.pdbqt
 OpenBabel03192221163D

 33 36  0  0  1  0  0  0  0  0999 V2000
   54.1480   85.4210   20.6840 C   0  0  2  0  0  3  0  0  0  0  0  0
   53.8130   84.2490   19.9330 N   0  0  0  0  0  0  0  0  0  0  0  0
   52.9880   83.3830   20.6970 C   0  0  0  0  0  0  0  0  0  0  0  0
   52.3420   82.3620   20.3590 O   0  0  0  0  0  0  0  0  0  0  0  0
   52.9750   83.8730   22.0950 C   0  0  0  0  0  0  0  0  0  0  0  0
   52.3570   83.3680   23.0650 O   0  0  0  0  0  0  0  0  0  0  0  0
   53.8240   85.0490   22.0890 C   0  0  0  0  0  0  0  0  0  0  0  0
   54.2060   85.6750   23.2090 C   0  0  0  0  0  0  0  0  0  0  0  0
   54.9970   86.8110   22.9940 O   0  0  0  0  0  1  0  0  0  0  0  0
   53.5350   86.6530   20.2160 C   0  0  0  0  0  0  0  0  0  0  0  0
   54.2800   87.8170   20.1940 C   0  0  0  0  0  3  0  0  0  0  0  0
   53.8000   89.0200   19.7690 C   0  0  0  0  0  3  0  0  0  0  0  0
   52.5100   89.1150   19.3330 C   0  0  0  0  0  0  0  0  0  0  0  0
   51.8850   90.8240   18.7470 Br  0  0  0  0  0  0  0  0  0  0  0  0
   51.7170   87.9920   19.3300 C   0  0  0  0  0  3  0  0  0  0  0  0
   52.2370   86.7770   19.7710 C   0  0  0  0  0  3  0  0  0  0  0  0
   53.8420   85.2240   24.5470 C   0  0  0  0  0  0  0  0  0  0  0  0
   52.7990   85.4640   25.2650 O   0  0  0  0  0  0  0  0  0  0  0  0
   52.8000   84.8940   26.4320 C   0  0  0  0  0  0  0  0  0  0  0  0
   53.9780   84.1700   26.5450 C   0  0  0  0  0  0  0  0  0  0  0  0
   51.9120   84.8780   27.4930 C   0  0  0  0  0  0  0  0  0  0  0  0
   54.6250   84.3980   25.3290 C   0  0  0  0  0  3  0  0  0  0  0  0
   54.2370   83.4630   27.6950 C   0  0  0  0  0  3  0  0  0  0  0  0
   53.3400   83.4620   28.7390 C   0  0  0  0  0  3  0  0  0  0  0  0
   52.1580   84.1830   28.6350 C   0  0  0  0  0  3  0  0  0  0  0  0
   50.7470   85.6040   27.3580 O   0  0  0  0  0  0  0  0  0  0  0  0
   49.8090   85.8270   28.4020 C   0  0  0  0  0  1  0  0  0  0  0  0
   54.2340   83.9550   18.5900 C   0  0  0  0  0  2  0  0  0  0  0  0
   53.1280   84.2280   17.5870 C   0  0  0  0  0  2  0  0  0  0  0  0
   53.1480   83.3540   16.4650 N   0  0  0  0  0  4  0  0  0  0  0  0
   54.2160   83.5550   15.5330 C   0  0  0  0  0  1  0  0  0  0  0  0
   53.0920   81.9610   16.8880 C   0  0  0  0  0  1  0  0  0  0  0  0
   52.2490   83.5210   15.9210 H   0  0  0  0  0  0  0  0  0  0  0  0
  1 10  1  6  0  0  0
  1  7  1  0  0  0  0
  2  1  1  0  0  0  0
  2  3  1  0  0  0  0
  3  5  1  0  0  0  0
  4  3  2  0  0  0  0
  5  6  2  0  0  0  0
  7  5  1  0  0  0  0
  7  8  2  0  0  0  0
  8 17  1  0  0  0  0
  9  8  1  0  0  0  0
 11 10  1  0  0  0  0
 12 11  2  0  0  0  0
 13 12  1  0  0  0  0
 14 13  1  0  0  0  0
 15 13  2  0  0  0  0
 15 16  1  0  0  0  0
 16 10  2  0  0  0  0
 17 18  1  0  0  0  0
 17 22  2  0  0  0  0
 18 19  1  0  0  0  0
 19 20  2  0  0  0  0
 19 21  1  0  0  0  0
 20 23  1  0  0  0  0
 21 25  2  0  0  0  0
 22 20  1  0  0  0  0
 23 24  2  0  0  0  0
 25 24  1  0  0  0  0
 26 21  1  0  0  0  0
 26 27  1  0  0  0  0
 28  2  1  0  0  0  0
 29 28  1  0  0  0  0
 30 32  1  0  0  0  0
 30 29  1  0  0  0  0
 31 30  1  0  0  0  0
 33 30  1  0  0  0  0
M  END
>  <Pose>
1

>  <Score>
-7.725

$$$$
