/Users/jonathanwahrer/Desktop/Msc/3_Semester/Drug_Design_Praktikum/waehrer_HTS_screening/HTS_experiment/out/docking_results/vina_output/3npc/2403_docked.pdbqt
 OpenBabel03192221163D

 26 29  0  0  0  0  0  0  0  0999 V2000
   55.9950   87.3460   23.2330 N   0  0  0  0  0  0  0  0  0  0  0  0
   55.0810   86.4050   23.5080 C   0  0  0  0  0  0  0  0  0  0  0  0
   54.8810   86.2930   24.8800 C   0  0  0  0  0  0  0  0  0  0  0  0
   55.7140   87.2070   25.4320 N   0  0  0  0  0  0  0  0  0  0  0  0
   56.3780   87.8340   24.4570 C   0  0  0  0  0  3  0  0  0  0  0  0
   54.0180   85.4200   25.4380 N   0  0  0  0  0  0  0  0  0  0  0  0
   53.3330   84.6320   24.5880 C   0  0  0  0  0  0  0  0  0  0  0  0
   52.5210   83.8090   25.0930 O   0  0  0  0  0  0  0  0  0  0  0  0
   53.4890   84.6990   23.2580 N   0  0  0  0  0  0  0  0  0  0  0  0
   54.3510   85.5720   22.6960 C   0  0  0  0  0  0  0  0  0  0  0  0
   54.5110   85.6480   21.4620 O   0  0  0  0  0  0  0  0  0  0  0  0
   52.7480   83.8470   22.3440 C   0  0  0  0  0  1  0  0  0  0  0  0
   53.8560   85.3530   26.8780 C   0  0  0  0  0  1  0  0  0  0  0  0
   56.5010   87.8200   21.9600 C   0  0  0  0  0  2  0  0  0  0  0  0
   55.5920   88.8340   21.3280 C   0  0  0  0  0  0  0  0  0  0  0  0
   54.6650   88.4150   20.4480 N   0  0  0  0  0  0  0  0  0  0  0  0
   53.8090   89.2960   19.8530 C   0  0  0  0  0  0  0  0  0  0  0  0
   53.8690   90.6070   20.1300 N   0  0  0  0  0  0  0  0  0  0  0  0
   52.8730   88.8120   18.9540 C   0  0  0  0  0  3  0  0  0  0  0  0
   53.0230   91.4790   19.5420 C   0  0  0  0  0  3  0  0  0  0  0  0
   54.7870   91.0950   21.0150 C   0  0  0  0  0  0  0  0  0  0  0  0
   52.0960   91.0090   18.6520 C   0  0  0  0  0  0  0  0  0  0  0  0
   50.9160   92.2650   17.8390 Br  0  0  0  0  0  0  0  0  0  0  0  0
   51.9990   89.6730   18.3390 C   0  0  0  0  0  3  0  0  0  0  0  0
   55.6360   90.1790   21.5980 C   0  0  0  0  0  3  0  0  0  0  0  0
   54.8080   92.3140   21.2420 O   0  0  0  0  0  0  0  0  0  0  0  0
  1  2  1  0  0  0  0
  1  5  1  0  0  0  0
  2  3  2  0  0  0  0
  3  4  1  0  0  0  0
  3  6  1  0  0  0  0
  5  4  2  0  0  0  0
  6 13  1  0  0  0  0
  7  8  2  0  0  0  0
  7  6  1  0  0  0  0
  9  7  1  0  0  0  0
 10  9  1  0  0  0  0
 10  2  1  0  0  0  0
 11 10  2  0  0  0  0
 12  9  1  0  0  0  0
 14  1  1  0  0  0  0
 15 25  2  0  0  0  0
 15 14  1  0  0  0  0
 16 15  1  0  0  0  0
 17 18  1  0  0  0  0
 17 16  2  0  0  0  0
 18 21  1  0  0  0  0
 19 17  1  0  0  0  0
 20 18  1  0  0  0  0
 21 26  2  0  0  0  0
 21 25  1  0  0  0  0
 22 20  2  0  0  0  0
 23 22  1  0  0  0  0
 24 22  1  0  0  0  0
 24 19  2  0  0  0  0
M  END
>  <Pose>
1

>  <Score>
-8.873

$$$$
