/Users/jonathanwahrer/Desktop/Msc/3_Semester/Drug_Design_Praktikum/waehrer_HTS_screening/HTS_experiment/out/docking_results/vina_output/3npc/2416_docked.pdbqt
 OpenBabel03192221163D

 34 37  0  0  1  0  0  0  0  0999 V2000
   53.0680   83.0780   26.0080 N   0  0  0  0  0  0  0  0  0  0  0  0
   53.1020   81.6970   25.8460 C   0  0  0  0  0  2  0  0  0  0  0  0
   51.9010   81.2660   24.9920 C   0  0  0  0  0  2  0  0  0  0  0  0
   51.7050   82.2280   23.9070 N   0  0  0  0  0  0  0  0  0  0  0  0
   51.4940   83.6060   24.3050 C   0  0  0  0  0  2  0  0  0  0  0  0
   51.8140   83.6740   25.8050 C   0  0  0  0  0  2  0  0  0  0  0  0
   51.7450   81.8000   22.5500 C   0  0  0  0  0  0  0  0  0  0  0  0
   51.9560   80.5830   22.3350 O   0  0  0  0  0  0  0  0  0  0  0  0
   51.5490   82.7520   21.4580 C   0  0  0  0  0  2  0  0  0  0  0  0
   52.7790   82.9630   20.5880 C   0  0  2  0  0  3  0  0  0  0  0  0
   53.7610   83.8320   21.1800 N   0  0  0  0  0  0  0  0  0  0  0  0
   54.2000   85.1430   20.8540 C   0  0  0  0  0  0  0  0  0  0  0  0
   54.2870   83.4620   22.0330 H   0  0  0  0  0  0  0  0  0  0  0  0
   55.3240   85.5490   21.2510 O   0  0  0  0  0  0  0  0  0  0  0  0
   53.4690   86.1560   20.0620 C   0  0  0  0  0  0  0  0  0  0  0  0
   52.4820   85.9150   19.1000 C   0  0  0  0  0  0  0  0  0  0  0  0
   53.8240   87.4500   20.3430 C   0  0  0  0  0  3  0  0  0  0  0  0
   51.8960   86.9690   18.4590 C   0  0  0  0  0  3  0  0  0  0  0  0
   52.0030   84.6400   18.7000 N   0  0  0  0  0  0  0  0  0  0  0  0
   52.2380   88.2970   18.7250 C   0  0  0  0  0  3  0  0  0  0  0  0
   53.2240   88.5040   19.6900 C   0  0  0  0  0  3  0  0  0  0  0  0
   52.3530   83.3570   19.2280 C   0  0  0  0  0  0  0  0  0  0  0  0
   51.3220   84.6540   17.9410 H   0  0  0  0  0  0  0  0  0  0  0  0
   52.2710   82.4300   18.3470 O   0  0  0  0  0  0  0  0  0  0  0  0
   54.3190   83.9200   26.6970 S   0  0  0  0  0  0  0  0  0  0  0  0
   53.8150   84.6050   27.9540 O   0  0  0  0  0  0  0  0  0  0  0  0
   55.4760   83.0520   27.1470 O   0  0  0  0  0  0  0  0  0  0  0  0
   54.9780   85.1960   25.6680 C   0  0  0  0  0  0  0  0  0  0  0  0
   54.1880   86.2140   25.1860 C   0  0  0  0  0  3  0  0  0  0  0  0
   54.7460   87.1840   24.3830 C   0  0  0  0  0  3  0  0  0  0  0  0
   56.0820   87.1950   24.0260 C   0  0  0  0  0  0  0  0  0  0  0  0
   56.8780   86.1670   24.5140 C   0  0  0  0  0  3  0  0  0  0  0  0
   56.7930   88.4120   23.0180 Cl  0  0  0  0  0  0  0  0  0  0  0  0
   56.3150   85.2000   25.3160 C   0  0  0  0  0  3  0  0  0  0  0  0
  1 25  1  0  0  0  0
  2  1  1  0  0  0  0
  3  2  1  0  0  0  0
  4  5  1  0  0  0  0
  4  3  1  0  0  0  0
  5  6  1  0  0  0  0
  6  1  1  0  0  0  0
  7  4  1  0  0  0  0
  8  7  2  0  0  0  0
  9  7  1  0  0  0  0
 10 11  1  0  0  0  0
 10  9  1  1  0  0  0
 11 13  1  0  0  0  0
 12 11  1  0  0  0  0
 12 14  2  0  0  0  0
 15 17  1  0  0  0  0
 15 12  1  0  0  0  0
 16 15  2  0  0  0  0
 18 20  2  0  0  0  0
 18 16  1  0  0  0  0
 19 16  1  0  0  0  0
 19 22  1  0  0  0  0
 20 21  1  0  0  0  0
 21 17  2  0  0  0  0
 22 10  1  0  0  0  0
 23 19  1  0  0  0  0
 24 22  2  0  0  0  0
 25 27  2  0  0  0  0
 25 26  2  0  0  0  0
 28 25  1  0  0  0  0
 29 28  2  0  0  0  0
 30 29  1  0  0  0  0
 31 30  2  0  0  0  0
 31 32  1  0  0  0  0
 32 34  2  0  0  0  0
 33 31  1  0  0  0  0
 34 28  1  0  0  0  0
M  END
>  <Pose>
1

>  <Score>
-8.843

$$$$
