/Users/jonathanwahrer/Desktop/Msc/3_Semester/Drug_Design_Praktikum/waehrer_HTS_screening/HTS_experiment/out/docking_results/vina_output/3npc/2417_docked.pdbqt
 OpenBabel03192221163D

 27 30  0  0  1  0  0  0  0  0999 V2000
   56.4770   88.8460   22.3050 N   0  0  0  0  0  0  0  0  0  0  0  0
   56.8480   87.6300   23.0650 C   0  0  0  0  0  2  0  0  0  0  0  0
   55.5730   87.2050   23.6340 C   0  0  2  0  0  3  0  0  0  0  0  0
   55.1050   88.5010   24.2780 C   0  0  2  0  0  3  0  0  0  0  0  0
   55.4260   89.4250   23.0280 C   0  0  0  0  0  2  0  0  0  0  0  0
   56.2250   88.4010   20.9260 C   0  0  0  0  0  2  0  0  0  0  0  0
   55.1430   89.0390   20.2200 C   0  0  0  0  0  0  0  0  0  0  0  0
   53.9780   88.5240   19.6970 C   0  0  0  0  0  0  0  0  0  0  0  0
   53.3820   87.2970   19.8620 C   0  0  0  0  0  0  0  0  0  0  0  0
   53.2920   89.4690   18.9700 C   0  0  0  0  0  0  0  0  0  0  0  0
   54.3080   86.0440   20.6820 Cl  0  0  0  0  0  0  0  0  0  0  0  0
   52.1480   87.0120   19.3420 C   0  0  0  0  0  3  0  0  0  0  0  0
   51.4700   87.9830   18.6120 C   0  0  0  0  0  3  0  0  0  0  0  0
   52.0640   89.2360   18.4300 C   0  0  0  0  0  3  0  0  0  0  0  0
   54.0590   90.5800   19.0320 N   0  0  0  0  0  0  0  0  0  0  0  0
   55.1200   90.3410   19.7550 N   0  0  0  0  0  0  0  0  0  0  0  0
   53.7790   91.8190   18.2850 C   0  0  0  0  0  1  0  0  0  0  0  0
   55.6450   86.1050   24.6630 C   0  0  0  0  0  2  0  0  0  0  0  0
   54.3200   85.8310   25.1250 N   0  0  0  0  0  0  0  0  0  0  0  0
   53.5380   85.0650   24.1780 C   0  0  0  0  0  2  0  0  0  0  0  0
   53.0270   83.7560   24.7330 C   0  0  0  0  0  2  0  0  0  0  0  0
   52.3290   83.8820   25.9130 O   0  0  0  0  0  0  0  0  0  0  0  0
   52.8420   84.8770   26.7400 C   0  0  0  0  0  2  0  0  0  0  0  0
   54.2760   85.1270   26.3860 C   0  0  0  0  0  2  0  0  0  0  0  0
   56.0720   88.9750   25.3250 C   0  0  0  0  0  2  0  0  0  0  0  0
   55.7360   90.3020   25.7020 O   0  0  0  0  0  0  0  0  0  0  0  0
   55.4950   90.2450   26.7050 H   0  0  0  0  0  0  0  0  0  0  0  0
  1  5  1  0  0  0  0
  1  2  1  0  0  0  0
  2  3  1  0  0  0  0
  3  4  1  0  0  0  0
  3 18  1  1  0  0  0
  4 25  1  1  0  0  0
  5  4  1  0  0  0  0
  6  1  1  0  0  0  0
  7  6  1  0  0  0  0
  8  9  1  0  0  0  0
  8  7  1  0  0  0  0
  9 11  1  0  0  0  0
 10 15  1  0  0  0  0
 10  8  2  0  0  0  0
 12  9  2  0  0  0  0
 13 12  1  0  0  0  0
 14 13  2  0  0  0  0
 14 10  1  0  0  0  0
 15 16  1  0  0  0  0
 16  7  2  0  0  0  0
 17 15  1  0  0  0  0
 18 19  1  0  0  0  0
 19 24  1  0  0  0  0
 20 21  1  0  0  0  0
 20 19  1  0  0  0  0
 21 22  1  0  0  0  0
 22 23  1  0  0  0  0
 24 23  1  0  0  0  0
 25 26  1  0  0  0  0
 26 27  1  0  0  0  0
M  END
>  <Pose>
1

>  <Score>
-7.556

$$$$
