/Users/jonathanwahrer/Desktop/Msc/3_Semester/Drug_Design_Praktikum/waehrer_HTS_screening/HTS_experiment/out/docking_results/vina_output/3npc/2420_docked.pdbqt
 OpenBabel03192221173D

 29 32  0  0  1  0  0  0  0  0999 V2000
   55.8110   87.3980   22.5830 N   0  0  0  0  0  0  0  0  0  0  0  0
   55.6830   87.9890   23.9140 C   0  0  0  0  0  2  0  0  0  0  0  0
   56.2400   86.9130   24.8180 C   0  0  2  0  0  3  0  0  0  0  0  0
   57.4680   86.4470   24.0450 C   0  0  0  0  0  2  0  0  0  0  0  0
   57.0700   86.7190   22.6190 C   0  0  0  0  0  0  0  0  0  0  0  0
   57.7430   86.3990   21.5940 O   0  0  0  0  0  0  0  0  0  0  0  0
   55.2870   85.7910   24.9940 C   0  0  0  0  0  0  0  0  0  0  0  0
   55.7510   84.6550   25.2610 O   0  0  0  0  0  0  0  0  0  0  0  0
   53.8880   85.9530   24.8720 N   0  0  0  0  0  0  0  0  0  0  0  0
   53.5360   86.9180   24.6460 H   0  0  0  0  0  0  0  0  0  0  0  0
   52.9570   84.8680   25.0420 C   0  0  0  0  0  2  0  0  0  0  0  0
   52.6730   84.2300   23.6990 C   0  0  0  0  0  2  0  0  0  0  0  0
   51.2630   84.1250   23.4130 N   0  0  0  0  0  0  0  0  0  0  0  0
   51.1160   84.0380   21.9650 C   0  0  0  0  0  2  0  0  0  0  0  0
   51.3000   82.5960   21.4990 C   0  0  0  0  0  2  0  0  0  0  0  0
   50.2850   81.7700   21.9210 O   0  0  0  0  0  0  0  0  0  0  0  0
   49.6750   82.3180   23.0250 C   0  0  0  0  0  2  0  0  0  0  0  0
   50.6730   82.9350   23.9840 C   0  0  0  0  0  2  0  0  0  0  0  0
   54.8870   87.4890   21.5110 C   0  0  0  0  0  0  0  0  0  0  0  0
   53.8870   86.6720   21.1550 N   0  0  0  0  0  0  0  0  0  0  0  0
   53.2710   87.1360   20.0780 N   0  0  0  0  0  0  0  0  0  0  0  0
   53.8610   88.3000   19.6830 C   0  0  0  0  0  0  0  0  0  0  0  0
   52.4560   86.7520   19.5390 H   0  0  0  0  0  0  0  0  0  0  0  0
   53.6580   89.1920   18.6720 C   0  0  0  0  0  3  0  0  0  0  0  0
   54.8750   88.5220   20.5820 C   0  0  0  0  0  0  0  0  0  0  0  0
   54.4450   90.3120   18.5280 C   0  0  0  0  0  0  0  0  0  0  0  0
   54.1420   91.5420   17.1080 Br  0  0  0  0  0  0  0  0  0  0  0  0
   55.4780   90.5440   19.4390 C   0  0  0  0  0  3  0  0  0  0  0  0
   55.6850   89.6450   20.4610 C   0  0  0  0  0  3  0  0  0  0  0  0
  1  5  1  0  0  0  0
  1  2  1  0  0  0  0
  2  3  1  0  0  0  0
  3  7  1  6  0  0  0
  4  3  1  0  0  0  0
  5  4  1  0  0  0  0
  6  5  2  0  0  0  0
  7  8  2  0  0  0  0
  9  7  1  0  0  0  0
  9 11  1  0  0  0  0
 10  9  1  0  0  0  0
 12 11  1  0  0  0  0
 13 12  1  0  0  0  0
 13 18  1  0  0  0  0
 14 13  1  0  0  0  0
 15 16  1  0  0  0  0
 15 14  1  0  0  0  0
 16 17  1  0  0  0  0
 17 18  1  0  0  0  0
 19  1  1  0  0  0  0
 20 19  2  0  0  0  0
 21 20  1  0  0  0  0
 22 21  1  0  0  0  0
 22 25  1  0  0  0  0
 23 21  1  0  0  0  0
 24 22  2  0  0  0  0
 25 19  1  0  0  0  0
 26 24  1  0  0  0  0
 26 28  2  0  0  0  0
 27 26  1  0  0  0  0
 28 29  1  0  0  0  0
 29 25  2  0  0  0  0
M  END
>  <Pose>
1

>  <Score>
-9.020

$$$$
