/Users/jonathanwahrer/Desktop/Msc/3_Semester/Drug_Design_Praktikum/waehrer_HTS_screening/HTS_experiment/out/docking_results/vina_output/3npc/2439_docked.pdbqt
 OpenBabel03192221173D

 30 34  0  0  1  0  0  0  0  0999 V2000
   53.7950   84.5120   19.7620 C   0  0  0  0  0  0  0  0  0  0  0  0
   54.4810   83.4070   19.2270 C   0  0  0  0  0  3  0  0  0  0  0  0
   54.1760   83.2900   17.9360 N   0  0  0  0  0  0  0  0  0  0  0  0
   54.4150   82.5290   16.8370 C   0  0  0  0  0  0  0  0  0  0  0  0
   53.6890   83.0640   15.8280 C   0  0  0  0  0  0  0  0  0  0  0  0
   53.0350   84.1220   16.3300 N   0  0  0  0  0  0  0  0  0  0  0  0
   53.3280   84.2760   17.6400 C   0  0  1  0  0  3  0  0  0  0  0  0
   53.0840   85.0400   18.7560 N   0  0  0  0  0  0  0  0  0  0  0  0
   53.7220   82.5050   14.5630 C   0  0  0  0  0  3  0  0  0  0  0  0
   54.4980   81.3870   14.3040 C   0  0  0  0  0  3  0  0  0  0  0  0
   55.2430   80.8390   15.3380 C   0  0  0  0  0  3  0  0  0  0  0  0
   55.1870   81.4210   16.5850 C   0  0  0  0  0  3  0  0  0  0  0  0
   52.3760   84.7440   15.7920 H   0  0  0  0  0  0  0  0  0  0  0  0
   52.2000   86.1580   18.7750 C   0  0  0  0  0  3  0  0  0  0  0  0
   52.8600   87.5070   18.8990 C   0  0  0  0  0  3  0  0  0  0  0  0
   52.0040   88.6350   19.2680 C   0  0  0  0  0  2  0  0  0  0  0  0
   52.0350   89.8360   18.4850 N   0  0  0  0  0  4  0  0  0  0  0  0
   52.0850   91.0330   19.3060 C   0  0  0  0  0  3  0  0  0  0  0  0
   53.4220   91.5010   19.6940 C   0  0  0  0  0  3  0  0  0  0  0  0
   54.5770   90.8780   19.0020 C   0  0  0  0  0  2  0  0  0  0  0  0
   54.2390   90.5310   17.5960 C   0  0  0  0  0  3  0  0  0  0  0  0
   52.9480   89.8280   17.3990 C   0  0  0  0  0  3  0  0  0  0  0  0
   51.0780   89.8990   18.0690 H   0  0  0  0  0  0  0  0  0  0  0  0
   53.9150   84.8830   21.1760 C   0  0  0  0  0  0  0  0  0  0  0  0
   54.8070   85.8980   21.5200 C   0  0  0  0  0  3  0  0  0  0  0  0
   55.0000   86.3440   22.8130 C   0  0  0  0  0  3  0  0  0  0  0  0
   54.2980   85.7890   23.8420 C   0  0  0  0  0  0  0  0  0  0  0  0
   54.5270   86.3670   25.6340 Br  0  0  0  0  0  0  0  0  0  0  0  0
   53.4140   84.7910   23.5380 C   0  0  0  0  0  3  0  0  0  0  0  0
   53.2210   84.3370   22.2110 C   0  0  0  0  0  3  0  0  0  0  0  0
  1 24  1  0  0  0  0
  2  1  2  0  0  0  0
  3  2  1  0  0  0  0
  4  3  1  0  0  0  0
  5  6  1  0  0  0  0
  5  4  2  0  0  0  0
  7  6  1  1  0  0  0
  7  3  1  0  0  0  0
  7  8  1  0  0  0  0
  8 14  1  0  0  0  0
  8  1  1  0  0  0  0
  9  5  1  0  0  0  0
 10  9  2  0  0  0  0
 10 11  1  0  0  0  0
 11 12  2  0  0  0  0
 12  4  1  0  0  0  0
 13  6  1  0  0  0  0
 14 15  2  0  0  0  0
 15 16  1  0  0  0  0
 17 16  1  0  0  0  0
 17 18  1  0  0  0  0
 18 19  2  0  0  0  0
 20 19  1  0  0  0  0
 21 20  1  0  0  0  0
 22 21  2  0  0  0  0
 22 17  1  0  0  0  0
 23 17  1  0  0  0  0
 24 25  2  0  0  0  0
 24 30  1  0  0  0  0
 25 26  1  0  0  0  0
 26 27  2  0  0  0  0
 27 28  1  0  0  0  0
 29 27  1  0  0  0  0
 30 29  2  0  0  0  0
M  END
>  <Pose>
1

>  <Score>
-8.725

$$$$
