/Users/jonathanwahrer/Desktop/Msc/3_Semester/Drug_Design_Praktikum/waehrer_HTS_screening/HTS_experiment/out/docking_results/vina_output/3npc/2440_docked.pdbqt
 OpenBabel03192221183D

 33 36  0  0  1  0  0  0  0  0999 V2000
   55.2390   86.2240   21.2220 Cl  0  0  0  0  0  0  0  0  0  0  0  0
   55.0380   86.4440   22.9570 C   0  0  0  0  0  0  0  0  0  0  0  0
   54.0520   85.6730   23.5910 C   0  0  0  0  0  0  0  0  0  0  0  0
   53.9000   85.8460   24.9390 C   0  0  0  0  0  0  0  0  0  0  0  0
   54.6980   86.7600   25.6590 C   0  0  0  0  0  3  0  0  0  0  0  0
   55.6590   87.5090   25.0280 C   0  0  0  0  0  3  0  0  0  0  0  0
   55.8080   87.3300   23.6700 C   0  0  0  0  0  3  0  0  0  0  0  0
   52.8340   84.9410   25.3920 C   0  0  2  0  0  0  0  0  0  0  0  0
   51.8040   85.5680   26.1410 N   0  0  0  0  0  0  0  0  0  0  0  0
   51.2220   84.6860   27.0540 C   0  0  1  0  0  3  0  0  0  0  0  0
   52.2110   83.5480   27.1870 C   0  0  2  0  0  3  0  0  0  0  0  0
   53.3950   83.8830   26.3390 C   0  0  1  0  0  3  0  0  0  0  0  0
   53.7990   82.6440   25.6220 C   0  0  0  0  0  0  0  0  0  0  0  0
   54.8230   82.5520   24.9060 O   0  0  0  0  0  0  0  0  0  0  0  0
   52.8260   81.6370   25.9050 N   0  0  0  0  0  0  0  0  0  0  0  0
   51.7340   82.2930   26.5670 C   0  0  0  0  0  0  0  0  0  0  0  0
   50.5730   81.8560   26.6020 O   0  0  0  0  0  0  0  0  0  0  0  0
   52.3600   84.2620   24.1830 C   0  0  0  0  0  0  0  0  0  0  0  0
   51.4280   83.4080   24.0610 O   0  0  0  0  0  0  0  0  0  0  0  0
   53.1320   84.7130   23.0860 N   0  0  0  0  0  0  0  0  0  0  0  0
   51.1800   86.2010   25.6140 H   0  0  0  0  0  0  0  0  0  0  0  0
   53.0750   84.4250   22.0810 H   0  0  0  0  0  0  0  0  0  0  0  0
   50.7440   85.2010   28.3560 C   0  0  0  0  0  2  0  0  0  0  0  0
   49.8620   84.3420   29.1700 C   0  0  0  0  0  2  0  0  0  0  0  0
   48.4800   84.1620   28.7130 C   0  0  0  0  0  0  0  0  0  0  0  0
   47.5650   84.8710   29.1700 O   0  0  0  0  0  0  0  0  0  0  0  0
   48.1080   83.1890   27.7390 N   0  0  0  0  0  0  0  0  0  0  0  0
   48.3880   83.2410   26.7440 H   0  0  0  0  0  0  0  0  0  0  0  0
   47.5280   82.3870   28.0380 H   0  0  0  0  0  0  0  0  0  0  0  0
   52.8930   80.2390   25.6100 C   0  0  0  0  0  2  0  0  0  0  0  0
   53.3960   79.8800   24.2580 C   0  0  0  0  0  2  0  0  0  0  0  0
   52.5350   80.2590   23.1050 C   0  0  0  0  0  2  0  0  0  0  0  0
   53.2840   81.1290   22.1010 C   0  0  0  0  0  1  0  0  0  0  0  0
  1  2  1  0  0  0  0
  2  3  2  0  0  0  0
  2  7  1  0  0  0  0
  3  4  1  0  0  0  0
  4  8  1  0  0  0  0
  4  5  2  0  0  0  0
  6  5  1  0  0  0  0
  7  6  2  0  0  0  0
  8 18  1  6  0  0  0
  8  9  1  0  0  0  0
  8 12  1  0  0  0  0
  9 10  1  0  0  0  0
 10 11  1  0  0  0  0
 10 23  1  1  0  0  0
 11 16  1  6  0  0  0
 12 13  1  6  0  0  0
 12 11  1  0  0  0  0
 13 15  1  0  0  0  0
 14 13  2  0  0  0  0
 15 16  1  0  0  0  0
 16 17  2  0  0  0  0
 19 18  2  0  0  0  0
 20  3  1  0  0  0  0
 20 18  1  0  0  0  0
 21  9  1  0  0  0  0
 22 20  1  0  0  0  0
 23 24  1  0  0  0  0
 25 26  2  0  0  0  0
 25 24  1  0  0  0  0
 27 29  1  0  0  0  0
 27 25  1  0  0  0  0
 28 27  1  0  0  0  0
 30 15  1  0  0  0  0
 31 30  1  0  0  0  0
 32 31  1  0  0  0  0
 33 32  1  0  0  0  0
M  END
>  <Pose>
1

>  <Score>
-6.765

$$$$
