/Users/jonathanwahrer/Desktop/Msc/3_Semester/Drug_Design_Praktikum/waehrer_HTS_screening/HTS_experiment/out/docking_results/vina_output/3npc/2447_docked.pdbqt
 OpenBabel03192221183D

 33 36  0  0  1  0  0  0  0  0999 V2000
   54.1720   84.2190   26.6130 C   0  0  1  0  0  3  0  0  0  0  0  0
   55.3040   83.3480   26.1840 C   0  0  0  0  0  0  0  0  0  0  0  0
   55.2560   82.0970   26.2460 O   0  0  0  0  0  0  0  0  0  0  0  0
   56.4080   84.0540   25.7120 O   0  0  0  0  0  0  0  0  0  0  0  0
   56.3500   85.2940   25.1120 C   0  0  0  0  0  3  0  0  0  0  0  0
   55.1350   85.8680   24.9690 C   0  0  0  0  0  0  0  0  0  0  0  0
   53.9720   85.1530   25.4480 C   0  0  0  0  0  0  0  0  0  0  0  0
   52.8480   85.2860   24.9350 O   0  0  0  0  0  0  0  0  0  0  0  0
   54.9880   87.1800   24.3250 C   0  0  0  0  0  2  0  0  0  0  0  0
   55.5290   87.2830   23.0330 N   0  0  0  0  0  0  0  0  0  0  0  0
   56.3890   88.3340   22.6900 C   0  0  0  0  0  2  0  0  0  0  0  0
   56.4090   88.5350   21.1580 C   0  0  0  0  0  2  0  0  0  0  0  0
   55.0220   88.5530   20.7690 N   0  0  0  0  0  0  0  0  0  0  0  0
   54.3510   87.2660   20.8820 C   0  0  0  0  0  2  0  0  0  0  0  0
   54.9940   86.4660   22.0070 C   0  0  0  0  0  2  0  0  0  0  0  0
   54.3680   89.7200   20.3280 C   0  0  0  0  0  0  0  0  0  0  0  0
   53.3520   89.7250   19.4000 C   0  0  0  0  0  3  0  0  0  0  0  0
   52.7450   90.8960   19.0090 C   0  0  0  0  0  0  0  0  0  0  0  0
   53.1140   92.1190   19.5160 C   0  0  0  0  0  3  0  0  0  0  0  0
   51.4630   90.8370   17.8290 Cl  0  0  0  0  0  0  0  0  0  0  0  0
   54.1250   92.1470   20.4420 C   0  0  0  0  0  3  0  0  0  0  0  0
   54.7390   90.9690   20.8390 C   0  0  0  0  0  3  0  0  0  0  0  0
   52.9320   83.4590   26.9270 C   0  0  0  0  0  2  0  0  0  0  0  0
   52.1790   84.1790   27.8930 N   0  0  0  0  0  0  0  0  0  0  0  0
   52.9090   84.5800   29.0690 C   0  0  0  0  0  2  0  0  0  0  0  0
   52.3780   83.7610   30.2290 C   0  0  0  0  0  2  0  0  0  0  0  0
   51.0540   84.1950   30.5250 N   0  0  0  0  0  0  0  0  0  0  0  0
   50.3210   84.5250   29.3460 C   0  0  0  0  0  2  0  0  0  0  0  0
   50.8400   83.7760   28.1170 C   0  0  0  0  0  2  0  0  0  0  0  0
   50.9410   85.3300   31.7840 S   0  0  0  0  0  0  0  0  0  0  0  0
   52.1460   86.2410   31.8790 O   0  0  0  0  0  0  0  0  0  0  0  0
   49.7550   86.2390   31.4930 O   0  0  0  0  0  0  0  0  0  0  0  0
   50.6700   84.6150   33.3620 C   0  0  0  0  0  1  0  0  0  0  0  0
  1 23  1  6  0  0  0
  2  3  2  0  0  0  0
  2  1  1  0  0  0  0
  4  2  1  0  0  0  0
  5  4  1  0  0  0  0
  6  5  2  0  0  0  0
  6  7  1  0  0  0  0
  7  1  1  0  0  0  0
  8  7  2  0  0  0  0
  9  6  1  0  0  0  0
 10  9  1  0  0  0  0
 11 10  1  0  0  0  0
 12 11  1  0  0  0  0
 13 14  1  0  0  0  0
 13 12  1  0  0  0  0
 14 15  1  0  0  0  0
 15 10  1  0  0  0  0
 16 13  1  0  0  0  0
 16 22  1  0  0  0  0
 17 16  2  0  0  0  0
 18 17  1  0  0  0  0
 18 19  2  0  0  0  0
 19 21  1  0  0  0  0
 20 18  1  0  0  0  0
 21 22  2  0  0  0  0
 23 24  1  0  0  0  0
 24 29  1  0  0  0  0
 24 25  1  0  0  0  0
 25 26  1  0  0  0  0
 26 27  1  0  0  0  0
 27 30  1  0  0  0  0
 28 27  1  0  0  0  0
 29 28  1  0  0  0  0
 30 31  2  0  0  0  0
 30 33  1  0  0  0  0
 32 30  2  0  0  0  0
M  END
>  <Pose>
1

>  <Score>
-9.231

$$$$
