2jam.A


 32 34  0  0  0  0  0  0  0  0999 V2000
   13.4292    3.7416   11.4294 C   0  0  0  0  0  0  0  0  0  0  0  0
   12.1699    4.0277   11.9880 C   0  0  0  0  0  0  0  0  0  0  0  0
   12.0130    5.4067   11.9902 C   0  0  0  0  0  0  0  0  0  0  0  0
   13.1866    5.9151   11.4417 C   0  0  0  0  0  0  0  0  0  0  0  0
   11.1506    2.9990   12.4967 C   0  0  0  0  0  0  0  0  0  0  0  0
   13.5698    7.3786   11.2264 C   0  0  0  0  0  0  0  0  0  0  0  0
   14.0003    4.9152   11.1126 N   0  0  0  0  0  0  0  0  0  0  0  0
   14.9105    5.0225   10.6883 H   0  0  0  0  0  0  0  0  0  0  0  0
   10.8179    6.2661   12.5440 C   0  0  0  0  0  0  0  0  0  0  0  0
    9.8806    6.6687   11.6823 N   0  0  0  0  0  0  0  0  0  0  0  0
    9.9923    6.4271   10.7080 H   0  0  0  0  0  0  0  0  0  0  0  0
   10.7435    6.4923   13.7471 O   0  0  0  0  0  0  0  0  0  0  0  0
    8.6814    7.4532   12.0788 C   0  0  0  0  0  0  0  0  0  0  0  0
    7.4950    6.4569   12.1398 C   0  0  0  0  0  0  0  0  0  0  0  0
    6.2152    7.0062   12.6730 N   0  0  0  0  0  0  0  0  0  0  0  0
    5.5144    6.3219   12.4263 H   0  0  0  0  0  0  0  0  0  0  0  0
    5.8463    8.2900   12.0267 C   0  0  0  0  0  0  0  0  0  0  0  0
    4.8866    8.0971   10.8395 C   0  0  0  0  0  0  0  0  0  0  0  0
    6.1712    7.1093   14.1538 C   0  0  0  0  0  0  0  0  0  0  0  0
    5.0240    8.0447   14.5717 C   0  0  0  0  0  0  0  0  0  0  0  0
   13.9193    2.4380   11.2736 C   0  0  0  0  0  0  0  0  0  0  0  0
   10.9434    0.1347    8.7816 C   0  0  0  0  0  0  0  0  0  0  0  0
   11.4809   -0.4100    7.6014 C   0  0  0  0  0  0  0  0  0  0  0  0
   12.8326   -0.2156    7.3138 C   0  0  0  0  0  0  0  0  0  0  0  0
   11.7376    0.8696    9.6634 C   0  0  0  0  0  0  0  0  0  0  0  0
   13.0790    1.0680    9.3727 C   0  0  0  0  0  0  0  0  0  0  0  0
   13.6278    0.5284    8.1948 C   0  0  0  0  0  0  0  0  0  0  0  0
   14.1119    1.7419   10.0490 C   0  0  0  0  0  0  0  0  0  0  0  0
   15.2423    1.5812    9.2300 C   0  0  0  0  0  0  0  0  0  0  0  0
   14.9282    0.8661    8.1583 N   0  0  0  0  0  0  0  0  0  0  0  0
   16.3921    1.9983    9.4196 O   0  0  0  0  0  0  0  0  0  0  0  0
    9.2838   -0.1171    9.1816 Cl  0  0  0  0  0  0  0  0  0  0  0  0
 22 23  1  0  0  0
 22 25  2  0  0  0
 22 32  1  0  0  0
 23 24  2  0  0  0
 24 27  1  0  0  0
 25 26  1  0  0  0
 26 27  1  0  0  0
 26 28  2  0  0  0
 27 30  2  0  0  0
 28 29  1  0  0  0
 28 21  1  0  0  0
 29 30  1  0  0  0
 29 31  2  0  0  0
 21  1  1  0  0  0
  1  2  2  0  0  0
  1  7  1  0  0  0
  2  3  1  0  0  0
  2  5  1  0  0  0
  3  4  2  0  0  0
  3  9  1  0  0  0
  4  6  1  0  0  0
  4  7  1  0  0  0
  9 10  1  0  0  0
  9 12  2  0  0  0
 13 14  1  0  0  0
 13 10  1  0  0  0
 14 15  1  0  0  0
 17 15  1  0  0  0
 17 18  1  0  0  0
 19 15  1  0  0  0
 19 20  1  0  0  0
  7  8  1  0  0  0
 10 11  1  0  0  0
 15 16  1  0  0  0
M  CHG 1  15   1
M  END
> <minimizedAffinity>
-8.94061

$$$$
2jam.A


 32 34  0  0  0  0  0  0  0  0999 V2000
   13.6669    3.6016   11.4397 C   0  0  0  0  0  0  0  0  0  0  0  0
   12.4353    4.2272   11.7072 C   0  0  0  0  0  0  0  0  0  0  0  0
   12.6736    5.5879   11.8411 C   0  0  0  0  0  0  0  0  0  0  0  0
   14.0446    5.7444   11.6603 C   0  0  0  0  0  0  0  0  0  0  0  0
   11.0726    3.5303   11.8232 C   0  0  0  0  0  0  0  0  0  0  0  0
   14.8629    7.0333   11.7260 C   0  0  0  0  0  0  0  0  0  0  0  0
   14.6050    4.5624   11.4177 N   0  0  0  0  0  0  0  0  0  0  0  0
   15.5881    4.4105   11.2432 H   0  0  0  0  0  0  0  0  0  0  0  0
   11.6620    6.7404   12.1901 C   0  0  0  0  0  0  0  0  0  0  0  0
   10.7874    7.1147   11.2529 N   0  0  0  0  0  0  0  0  0  0  0  0
   10.8299    6.6607   10.3517 H   0  0  0  0  0  0  0  0  0  0  0  0
   11.6595    7.2204   13.3187 O   0  0  0  0  0  0  0  0  0  0  0  0
    9.7546    8.1633   11.4637 C   0  0  0  0  0  0  0  0  0  0  0  0
    8.4671    7.4359   11.9297 C   0  0  0  0  0  0  0  0  0  0  0  0
    7.2966    8.3134   12.2191 N   0  0  0  0  0  0  0  0  0  0  0  0
    7.3800    8.5457   13.1985 H   0  0  0  0  0  0  0  0  0  0  0  0
    6.0068    7.6054   12.0265 C   0  0  0  0  0  0  0  0  0  0  0  0
    5.1721    8.2037   10.8806 C   0  0  0  0  0  0  0  0  0  0  0  0
    7.3192    9.6105   11.4962 C   0  0  0  0  0  0  0  0  0  0  0  0
    7.3682   10.7654   12.5107 C   0  0  0  0  0  0  0  0  0  0  0  0
   13.7979    2.2196   11.2481 C   0  0  0  0  0  0  0  0  0  0  0  0
   10.7651   -0.0330    8.7786 C   0  0  0  0  0  0  0  0  0  0  0  0
   11.2768   -0.5587    7.5785 C   0  0  0  0  0  0  0  0  0  0  0  0
   12.6228   -0.3627    7.2665 C   0  0  0  0  0  0  0  0  0  0  0  0
   11.5794    0.6846    9.6564 C   0  0  0  0  0  0  0  0  0  0  0  0
   12.9150    0.8846    9.3417 C   0  0  0  0  0  0  0  0  0  0  0  0
   13.4381    0.3640    8.1437 C   0  0  0  0  0  0  0  0  0  0  0  0
   13.9635    1.5442   10.0081 C   0  0  0  0  0  0  0  0  0  0  0  0
   15.0764    1.3949    9.1635 C   0  0  0  0  0  0  0  0  0  0  0  0
   14.7384    0.6991    8.0863 N   0  0  0  0  0  0  0  0  0  0  0  0
   16.2310    1.8058    9.3365 O   0  0  0  0  0  0  0  0  0  0  0  0
    9.1134   -0.2876    9.2082 Cl  0  0  0  0  0  0  0  0  0  0  0  0
 22 23  1  0  0  0
 22 25  2  0  0  0
 22 32  1  0  0  0
 23 24  2  0  0  0
 24 27  1  0  0  0
 25 26  1  0  0  0
 26 27  1  0  0  0
 26 28  2  0  0  0
 27 30  2  0  0  0
 28 29  1  0  0  0
 28 21  1  0  0  0
 29 30  1  0  0  0
 29 31  2  0  0  0
 21  1  1  0  0  0
  1  2  2  0  0  0
  1  7  1  0  0  0
  2  3  1  0  0  0
  2  5  1  0  0  0
  3  4  2  0  0  0
  3  9  1  0  0  0
  4  6  1  0  0  0
  4  7  1  0  0  0
  9 10  1  0  0  0
  9 12  2  0  0  0
 13 14  1  0  0  0
 13 10  1  0  0  0
 14 15  1  0  0  0
 17 15  1  0  0  0
 17 18  1  0  0  0
 19 15  1  0  0  0
 19 20  1  0  0  0
  7  8  1  0  0  0
 10 11  1  0  0  0
 15 16  1  0  0  0
M  CHG 1  15   1
M  END
> <minimizedAffinity>
-8.81117

$$$$
2jam.A


 32 34  0  0  0  0  0  0  0  0999 V2000
   12.0282    4.2576   12.0538 C   0  0  0  0  0  0  0  0  0  0  0  0
   10.8517    4.8901   11.6115 C   0  0  0  0  0  0  0  0  0  0  0  0
   10.9215    6.2234   11.9904 C   0  0  0  0  0  0  0  0  0  0  0  0
   12.1343    6.3563   12.6598 C   0  0  0  0  0  0  0  0  0  0  0  0
    9.7014    4.2259   10.8421 C   0  0  0  0  0  0  0  0  0  0  0  0
   12.7169    7.6077   13.3154 C   0  0  0  0  0  0  0  0  0  0  0  0
   12.7702    5.1877   12.6767 N   0  0  0  0  0  0  0  0  0  0  0  0
   13.6749    5.0246   13.0950 H   0  0  0  0  0  0  0  0  0  0  0  0
    9.8583    7.3655   11.7934 C   0  0  0  0  0  0  0  0  0  0  0  0
    9.3180    7.9164   12.8832 N   0  0  0  0  0  0  0  0  0  0  0  0
    9.5949    7.5588   13.7863 H   0  0  0  0  0  0  0  0  0  0  0  0
    9.5984    7.7597   10.6615 O   0  0  0  0  0  0  0  0  0  0  0  0
    8.3311    9.0277   12.8399 C   0  0  0  0  0  0  0  0  0  0  0  0
    7.0833    8.5488   13.6257 C   0  0  0  0  0  0  0  0  0  0  0  0
    5.7831    8.6552   12.9031 N   0  0  0  0  0  0  0  0  0  0  0  0
    5.3127    7.7794   13.0814 H   0  0  0  0  0  0  0  0  0  0  0  0
    5.9683    8.7831   11.4363 C   0  0  0  0  0  0  0  0  0  0  0  0
    4.7769    8.2206   10.6413 C   0  0  0  0  0  0  0  0  0  0  0  0
    4.8812    9.7097   13.4323 C   0  0  0  0  0  0  0  0  0  0  0  0
    3.5603    9.0731   13.8965 C   0  0  0  0  0  0  0  0  0  0  0  0
   12.2925    2.8979   11.8417 C   0  0  0  0  0  0  0  0  0  0  0  0
   10.8049    0.0588    8.6640 C   0  0  0  0  0  0  0  0  0  0  0  0
   11.7707   -0.2828    7.7001 C   0  0  0  0  0  0  0  0  0  0  0  0
   13.0571    0.2480    7.8049 C   0  0  0  0  0  0  0  0  0  0  0  0
   11.1112    0.9228    9.7167 C   0  0  0  0  0  0  0  0  0  0  0  0
   12.3879    1.4551    9.8155 C   0  0  0  0  0  0  0  0  0  0  0  0
   13.3622    1.1211    8.8569 C   0  0  0  0  0  0  0  0  0  0  0  0
   12.9884    2.3277   10.7409 C   0  0  0  0  0  0  0  0  0  0  0  0
   14.3072    2.4856   10.2824 C   0  0  0  0  0  0  0  0  0  0  0  0
   14.4949    1.7665    9.1841 N   0  0  0  0  0  0  0  0  0  0  0  0
   15.2168    3.1607   10.7811 O   0  0  0  0  0  0  0  0  0  0  0  0
    9.2155   -0.6079    8.5806 Cl  0  0  0  0  0  0  0  0  0  0  0  0
 22 23  1  0  0  0
 22 25  2  0  0  0
 22 32  1  0  0  0
 23 24  2  0  0  0
 24 27  1  0  0  0
 25 26  1  0  0  0
 26 27  1  0  0  0
 26 28  2  0  0  0
 27 30  2  0  0  0
 28 29  1  0  0  0
 28 21  1  0  0  0
 29 30  1  0  0  0
 29 31  2  0  0  0
 21  1  1  0  0  0
  1  2  2  0  0  0
  1  7  1  0  0  0
  2  3  1  0  0  0
  2  5  1  0  0  0
  3  4  2  0  0  0
  3  9  1  0  0  0
  4  6  1  0  0  0
  4  7  1  0  0  0
  9 10  1  0  0  0
  9 12  2  0  0  0
 13 14  1  0  0  0
 13 10  1  0  0  0
 14 15  1  0  0  0
 17 15  1  0  0  0
 17 18  1  0  0  0
 19 15  1  0  0  0
 19 20  1  0  0  0
  7  8  1  0  0  0
 10 11  1  0  0  0
 15 16  1  0  0  0
M  CHG 1  15   1
M  END
> <minimizedAffinity>
-8.52012

$$$$
2jam.A


 32 34  0  0  0  0  0  0  0  0999 V2000
   13.5911    3.6449   11.3432 C   0  0  0  0  0  0  0  0  0  0  0  0
   14.6026    4.5807   11.6275 C   0  0  0  0  0  0  0  0  0  0  0  0
   14.0078    5.8317   11.7140 C   0  0  0  0  0  0  0  0  0  0  0  0
   12.6546    5.6173   11.4697 C   0  0  0  0  0  0  0  0  0  0  0  0
   16.0945    4.2720   11.8149 C   0  0  0  0  0  0  0  0  0  0  0  0
   11.5310    6.6516   11.4160 C   0  0  0  0  0  0  0  0  0  0  0  0
   12.4338    4.3217   11.2624 N   0  0  0  0  0  0  0  0  0  0  0  0
   11.5317    3.9092   11.0727 H   0  0  0  0  0  0  0  0  0  0  0  0
   14.6791    7.2319   11.9630 C   0  0  0  0  0  0  0  0  0  0  0  0
   15.4539    7.3750   13.0412 N   0  0  0  0  0  0  0  0  0  0  0  0
   15.5547    6.5868   13.6647 H   0  0  0  0  0  0  0  0  0  0  0  0
   14.5267    8.1294   11.1411 O   0  0  0  0  0  0  0  0  0  0  0  0
   16.1764    8.6312   13.3740 C   0  0  0  0  0  0  0  0  0  0  0  0
   17.6754    8.2613   13.5150 C   0  0  0  0  0  0  0  0  0  0  0  0
   18.5358    8.5880   12.3415 N   0  0  0  0  0  0  0  0  0  0  0  0
   19.4165    8.8840   12.7376 H   0  0  0  0  0  0  0  0  0  0  0  0
   17.9911    9.7166   11.5467 C   0  0  0  0  0  0  0  0  0  0  0  0
   19.0768   10.7287   11.1407 C   0  0  0  0  0  0  0  0  0  0  0  0
   18.8553    7.4202   11.4815 C   0  0  0  0  0  0  0  0  0  0  0  0
   17.9108    7.4000   10.2677 C   0  0  0  0  0  0  0  0  0  0  0  0
   13.8382    2.2746   11.1858 C   0  0  0  0  0  0  0  0  0  0  0  0
   10.8365   -0.0339    8.7299 C   0  0  0  0  0  0  0  0  0  0  0  0
   11.3611   -0.5793    7.5441 C   0  0  0  0  0  0  0  0  0  0  0  0
   12.7093   -0.3838    7.2410 C   0  0  0  0  0  0  0  0  0  0  0  0
   11.6400    0.7026    9.6019 C   0  0  0  0  0  0  0  0  0  0  0  0
   12.9778    0.9019    9.2958 C   0  0  0  0  0  0  0  0  0  0  0  0
   13.5137    0.3618    8.1123 C   0  0  0  0  0  0  0  0  0  0  0  0
   14.0177    1.5775    9.9597 C   0  0  0  0  0  0  0  0  0  0  0  0
   15.1388    1.4172    9.1281 C   0  0  0  0  0  0  0  0  0  0  0  0
   14.8133    0.7007    8.0607 N   0  0  0  0  0  0  0  0  0  0  0  0
   16.2903    1.8355    9.3042 O   0  0  0  0  0  0  0  0  0  0  0  0
    9.1818   -0.2870    9.1489 Cl  0  0  0  0  0  0  0  0  0  0  0  0
 22 23  1  0  0  0
 22 25  2  0  0  0
 22 32  1  0  0  0
 23 24  2  0  0  0
 24 27  1  0  0  0
 25 26  1  0  0  0
 26 27  1  0  0  0
 26 28  2  0  0  0
 27 30  2  0  0  0
 28 29  1  0  0  0
 28 21  1  0  0  0
 29 30  1  0  0  0
 29 31  2  0  0  0
 21  1  1  0  0  0
  1  2  2  0  0  0
  1  7  1  0  0  0
  2  3  1  0  0  0
  2  5  1  0  0  0
  3  4  2  0  0  0
  3  9  1  0  0  0
  4  6  1  0  0  0
  4  7  1  0  0  0
  9 10  1  0  0  0
  9 12  2  0  0  0
 13 14  1  0  0  0
 13 10  1  0  0  0
 14 15  1  0  0  0
 17 15  1  0  0  0
 17 18  1  0  0  0
 19 15  1  0  0  0
 19 20  1  0  0  0
  7  8  1  0  0  0
 10 11  1  0  0  0
 15 16  1  0  0  0
M  CHG 1  15   1
M  END
> <minimizedAffinity>
-8.34161

$$$$
2jam.A


 32 34  0  0  0  0  0  0  0  0999 V2000
   13.0173    3.7873   10.9107 C   0  0  0  0  0  0  0  0  0  0  0  0
   13.4653    4.9072   11.6353 C   0  0  0  0  0  0  0  0  0  0  0  0
   12.5653    5.9403   11.4141 C   0  0  0  0  0  0  0  0  0  0  0  0
   11.6042    5.4179   10.5538 C   0  0  0  0  0  0  0  0  0  0  0  0
   14.7199    4.9718   12.5172 C   0  0  0  0  0  0  0  0  0  0  0  0
   10.3876    6.1255    9.9584 C   0  0  0  0  0  0  0  0  0  0  0  0
   11.8881    4.1475   10.2790 N   0  0  0  0  0  0  0  0  0  0  0  0
   11.3374    3.5446    9.6847 H   0  0  0  0  0  0  0  0  0  0  0  0
   12.6101    7.4217   11.9402 C   0  0  0  0  0  0  0  0  0  0  0  0
   11.7839    7.7617   12.9327 N   0  0  0  0  0  0  0  0  0  0  0  0
   11.1474    7.0612   13.2852 H   0  0  0  0  0  0  0  0  0  0  0  0
   13.4328    8.2032   11.4749 O   0  0  0  0  0  0  0  0  0  0  0  0
   11.7497    9.1153   13.5471 C   0  0  0  0  0  0  0  0  0  0  0  0
   10.2590    9.5345   13.6236 C   0  0  0  0  0  0  0  0  0  0  0  0
    9.2674    8.4386   13.4240 N   0  0  0  0  0  0  0  0  0  0  0  0
    9.8223    7.6122   13.2526 H   0  0  0  0  0  0  0  0  0  0  0  0
    8.4127    8.6691   12.2331 C   0  0  0  0  0  0  0  0  0  0  0  0
    7.2676    7.6470   12.1236 C   0  0  0  0  0  0  0  0  0  0  0  0
    8.4535    8.1323   14.6278 C   0  0  0  0  0  0  0  0  0  0  0  0
    8.0402    9.4432   15.3181 C   0  0  0  0  0  0  0  0  0  0  0  0
   13.6925    2.5594   10.9044 C   0  0  0  0  0  0  0  0  0  0  0  0
   10.8071   -0.1270    8.7070 C   0  0  0  0  0  0  0  0  0  0  0  0
   11.3721   -0.8034    7.6107 C   0  0  0  0  0  0  0  0  0  0  0  0
   12.7212   -0.6099    7.3107 C   0  0  0  0  0  0  0  0  0  0  0  0
   11.5716    0.7370    9.4928 C   0  0  0  0  0  0  0  0  0  0  0  0
   12.9103    0.9338    9.1892 C   0  0  0  0  0  0  0  0  0  0  0  0
   13.4864    0.2630    8.0948 C   0  0  0  0  0  0  0  0  0  0  0  0
   13.9173    1.7175    9.7811 C   0  0  0  0  0  0  0  0  0  0  0  0
   15.0606    1.4847    8.9981 C   0  0  0  0  0  0  0  0  0  0  0  0
   14.7777    0.6294    8.0250 N   0  0  0  0  0  0  0  0  0  0  0  0
   16.1967    1.9547    9.1412 O   0  0  0  0  0  0  0  0  0  0  0  0
    9.1505   -0.3716    9.1234 Cl  0  0  0  0  0  0  0  0  0  0  0  0
 22 23  1  0  0  0
 22 25  2  0  0  0
 22 32  1  0  0  0
 23 24  2  0  0  0
 24 27  1  0  0  0
 25 26  1  0  0  0
 26 27  1  0  0  0
 26 28  2  0  0  0
 27 30  2  0  0  0
 28 29  1  0  0  0
 28 21  1  0  0  0
 29 30  1  0  0  0
 29 31  2  0  0  0
 21  1  1  0  0  0
  1  2  2  0  0  0
  1  7  1  0  0  0
  2  3  1  0  0  0
  2  5  1  0  0  0
  3  4  2  0  0  0
  3  9  1  0  0  0
  4  6  1  0  0  0
  4  7  1  0  0  0
  9 10  1  0  0  0
  9 12  2  0  0  0
 13 14  1  0  0  0
 13 10  1  0  0  0
 14 15  1  0  0  0
 17 15  1  0  0  0
 17 18  1  0  0  0
 19 15  1  0  0  0
 19 20  1  0  0  0
  7  8  1  0  0  0
 10 11  1  0  0  0
 15 16  1  0  0  0
M  CHG 1  15   1
M  END
> <minimizedAffinity>
-8.15113

$$$$
2jam.A


 32 34  0  0  0  0  0  0  0  0999 V2000
   14.2506    3.5784   11.4364 C   0  0  0  0  0  0  0  0  0  0  0  0
   13.3729    4.6193   11.7913 C   0  0  0  0  0  0  0  0  0  0  0  0
   14.1334    5.7634   11.9888 C   0  0  0  0  0  0  0  0  0  0  0  0
   15.4505    5.3784   11.7571 C   0  0  0  0  0  0  0  0  0  0  0  0
   11.8480    4.5101   11.9285 C   0  0  0  0  0  0  0  0  0  0  0  0
   16.7137    6.2326   11.8573 C   0  0  0  0  0  0  0  0  0  0  0  0
   15.4921    4.0905   11.4260 N   0  0  0  0  0  0  0  0  0  0  0  0
   16.3311    3.5754   11.2006 H   0  0  0  0  0  0  0  0  0  0  0  0
   13.6680    7.1949   12.4442 C   0  0  0  0  0  0  0  0  0  0  0  0
   13.2379    7.3466   13.6994 N   0  0  0  0  0  0  0  0  0  0  0  0
   13.2047    6.5312   14.2945 H   0  0  0  0  0  0  0  0  0  0  0  0
   13.7663    8.1378   11.6661 O   0  0  0  0  0  0  0  0  0  0  0  0
   12.8053    8.6503   14.2686 C   0  0  0  0  0  0  0  0  0  0  0  0
   11.4021    8.4243   14.8881 C   0  0  0  0  0  0  0  0  0  0  0  0
   10.7407    9.6362   15.4520 N   0  0  0  0  0  0  0  0  0  0  0  0
   10.7851    9.5157   16.4539 H   0  0  0  0  0  0  0  0  0  0  0  0
    9.3105    9.7224   15.0661 C   0  0  0  0  0  0  0  0  0  0  0  0
    9.1213    9.9705   13.5592 C   0  0  0  0  0  0  0  0  0  0  0  0
   11.4589   10.9048   15.1686 C   0  0  0  0  0  0  0  0  0  0  0  0
   11.6457   11.6946   16.4751 C   0  0  0  0  0  0  0  0  0  0  0  0
   13.8196    2.2730   11.1640 C   0  0  0  0  0  0  0  0  0  0  0  0
   10.7578   -0.0306    8.7787 C   0  0  0  0  0  0  0  0  0  0  0  0
   11.2579   -0.5905    7.5892 C   0  0  0  0  0  0  0  0  0  0  0  0
   12.6024   -0.4092    7.2619 C   0  0  0  0  0  0  0  0  0  0  0  0
   11.5820    0.7064    9.6307 C   0  0  0  0  0  0  0  0  0  0  0  0
   12.9161    0.8917    9.3007 C   0  0  0  0  0  0  0  0  0  0  0  0
   13.4276    0.3369    8.1131 C   0  0  0  0  0  0  0  0  0  0  0  0
   13.9726    1.5640    9.9413 C   0  0  0  0  0  0  0  0  0  0  0  0
   15.0783    1.3870    9.0925 C   0  0  0  0  0  0  0  0  0  0  0  0
   14.7289    0.6642    8.0369 N   0  0  0  0  0  0  0  0  0  0  0  0
   16.2360    1.7970    9.2457 O   0  0  0  0  0  0  0  0  0  0  0  0
    9.1083   -0.2659    9.2274 Cl  0  0  0  0  0  0  0  0  0  0  0  0
 22 23  1  0  0  0
 22 25  2  0  0  0
 22 32  1  0  0  0
 23 24  2  0  0  0
 24 27  1  0  0  0
 25 26  1  0  0  0
 26 27  1  0  0  0
 26 28  2  0  0  0
 27 30  2  0  0  0
 28 29  1  0  0  0
 28 21  1  0  0  0
 29 30  1  0  0  0
 29 31  2  0  0  0
 21  1  1  0  0  0
  1  2  2  0  0  0
  1  7  1  0  0  0
  2  3  1  0  0  0
  2  5  1  0  0  0
  3  4  2  0  0  0
  3  9  1  0  0  0
  4  6  1  0  0  0
  4  7  1  0  0  0
  9 10  1  0  0  0
  9 12  2  0  0  0
 13 14  1  0  0  0
 13 10  1  0  0  0
 14 15  1  0  0  0
 17 15  1  0  0  0
 17 18  1  0  0  0
 19 15  1  0  0  0
 19 20  1  0  0  0
  7  8  1  0  0  0
 10 11  1  0  0  0
 15 16  1  0  0  0
M  CHG 1  15   1
M  END
> <minimizedAffinity>
-7.73158

$$$$
2jam.A


 32 34  0  0  0  0  0  0  0  0999 V2000
   11.4106    4.5385   12.2255 C   0  0  0  0  0  0  0  0  0  0  0  0
   10.2864    5.3004   11.8575 C   0  0  0  0  0  0  0  0  0  0  0  0
   10.5655    6.6295   12.1435 C   0  0  0  0  0  0  0  0  0  0  0  0
   11.8473    6.6315   12.6856 C   0  0  0  0  0  0  0  0  0  0  0  0
    8.9878    4.7591   11.2437 C   0  0  0  0  0  0  0  0  0  0  0  0
   12.6500    7.8244   13.2031 C   0  0  0  0  0  0  0  0  0  0  0  0
   12.3259    5.3904   12.7157 N   0  0  0  0  0  0  0  0  0  0  0  0
   13.2400    5.1284   13.0559 H   0  0  0  0  0  0  0  0  0  0  0  0
    9.6437    7.8927   11.9765 C   0  0  0  0  0  0  0  0  0  0  0  0
    9.3962    8.6377   13.0567 N   0  0  0  0  0  0  0  0  0  0  0  0
    9.7892    8.3441   13.9396 H   0  0  0  0  0  0  0  0  0  0  0  0
    9.2288    8.1944   10.8625 O   0  0  0  0  0  0  0  0  0  0  0  0
    8.5735    9.8760   13.0308 C   0  0  0  0  0  0  0  0  0  0  0  0
    7.5871    9.7829   14.2234 C   0  0  0  0  0  0  0  0  0  0  0  0
    6.4271    8.8650   14.0337 N   0  0  0  0  0  0  0  0  0  0  0  0
    6.7852    7.9444   14.2446 H   0  0  0  0  0  0  0  0  0  0  0  0
    5.9456    8.8564   12.6301 C   0  0  0  0  0  0  0  0  0  0  0  0
    4.4099    8.8364   12.5347 C   0  0  0  0  0  0  0  0  0  0  0  0
    5.3139    9.0910   14.9902 C   0  0  0  0  0  0  0  0  0  0  0  0
    5.6599   10.2704   15.9149 C   0  0  0  0  0  0  0  0  0  0  0  0
   11.4747    3.1467   12.0753 C   0  0  0  0  0  0  0  0  0  0  0  0
   15.6378    2.5586   10.4341 C   0  0  0  0  0  0  0  0  0  0  0  0
   15.6920    1.7645    9.2744 C   0  0  0  0  0  0  0  0  0  0  0  0
   14.5078    1.2555    8.7397 C   0  0  0  0  0  0  0  0  0  0  0  0
   14.4219    2.8390   11.0596 C   0  0  0  0  0  0  0  0  0  0  0  0
   13.2466    2.3267   10.5312 C   0  0  0  0  0  0  0  0  0  0  0  0
   13.2883    1.5306    9.3718 C   0  0  0  0  0  0  0  0  0  0  0  0
   11.8993    2.4339   10.9208 C   0  0  0  0  0  0  0  0  0  0  0  0
   11.1895    1.6798    9.9711 C   0  0  0  0  0  0  0  0  0  0  0  0
   12.0274    1.1689    9.0792 N   0  0  0  0  0  0  0  0  0  0  0  0
    9.9686    1.4887    9.9008 O   0  0  0  0  0  0  0  0  0  0  0  0
   17.0813    3.2301   11.0997 Cl  0  0  0  0  0  0  0  0  0  0  0  0
 22 23  1  0  0  0
 22 25  2  0  0  0
 22 32  1  0  0  0
 23 24  2  0  0  0
 24 27  1  0  0  0
 25 26  1  0  0  0
 26 27  1  0  0  0
 26 28  2  0  0  0
 27 30  2  0  0  0
 28 29  1  0  0  0
 28 21  1  0  0  0
 29 30  1  0  0  0
 29 31  2  0  0  0
 21  1  1  0  0  0
  1  2  2  0  0  0
  1  7  1  0  0  0
  2  3  1  0  0  0
  2  5  1  0  0  0
  3  4  2  0  0  0
  3  9  1  0  0  0
  4  6  1  0  0  0
  4  7  1  0  0  0
  9 10  1  0  0  0
  9 12  2  0  0  0
 13 14  1  0  0  0
 13 10  1  0  0  0
 14 15  1  0  0  0
 17 15  1  0  0  0
 17 18  1  0  0  0
 19 15  1  0  0  0
 19 20  1  0  0  0
  7  8  1  0  0  0
 10 11  1  0  0  0
 15 16  1  0  0  0
M  CHG 1  15   1
M  END
> <minimizedAffinity>
-7.69578

$$$$
2jam.A


 32 34  0  0  0  0  0  0  0  0999 V2000
   14.2761    5.1113   12.4169 C   0  0  0  0  0  0  0  0  0  0  0  0
   13.7968    4.1623   11.4953 C   0  0  0  0  0  0  0  0  0  0  0  0
   12.4364    4.3829   11.3315 C   0  0  0  0  0  0  0  0  0  0  0  0
   12.1305    5.4532   12.1669 C   0  0  0  0  0  0  0  0  0  0  0  0
   14.6305    3.0820   10.7923 C   0  0  0  0  0  0  0  0  0  0  0  0
   10.7686    6.1044   12.4043 C   0  0  0  0  0  0  0  0  0  0  0  0
   13.2311    5.8688   12.7883 N   0  0  0  0  0  0  0  0  0  0  0  0
   13.2743    6.6382   13.4411 H   0  0  0  0  0  0  0  0  0  0  0  0
   11.4020    3.5833   10.4575 C   0  0  0  0  0  0  0  0  0  0  0  0
   11.1435    2.3164   10.7911 N   0  0  0  0  0  0  0  0  0  0  0  0
   11.6422    1.9174   11.5735 H   0  0  0  0  0  0  0  0  0  0  0  0
   10.8199    4.1518    9.5398 O   0  0  0  0  0  0  0  0  0  0  0  0
   10.1615    1.4610   10.0735 C   0  0  0  0  0  0  0  0  0  0  0  0
   10.8864    0.9000    8.8231 C   0  0  0  0  0  0  0  0  0  0  0  0
   11.7191   -0.3164    9.0491 N   0  0  0  0  0  0  0  0  0  0  0  0
   12.2147   -0.1374    9.9108 H   0  0  0  0  0  0  0  0  0  0  0  0
   12.7256   -0.5112    7.9763 C   0  0  0  0  0  0  0  0  0  0  0  0
   13.6864    0.6837    7.8463 C   0  0  0  0  0  0  0  0  0  0  0  0
   10.9320   -1.5527    9.2887 C   0  0  0  0  0  0  0  0  0  0  0  0
    9.7441   -1.6049    8.3131 C   0  0  0  0  0  0  0  0  0  0  0  0
   15.6167    5.1781   12.8197 C   0  0  0  0  0  0  0  0  0  0  0  0
   19.7085    3.4128   12.1047 C   0  0  0  0  0  0  0  0  0  0  0  0
   20.5361    4.1949   11.2788 C   0  0  0  0  0  0  0  0  0  0  0  0
   20.0538    5.4054   10.7794 C   0  0  0  0  0  0  0  0  0  0  0  0
   18.4143    3.8251   12.4260 C   0  0  0  0  0  0  0  0  0  0  0  0
   17.9339    5.0249   11.9232 C   0  0  0  0  0  0  0  0  0  0  0  0
   18.7522    5.8154   11.0956 C   0  0  0  0  0  0  0  0  0  0  0  0
   16.7063    5.6964   12.0678 C   0  0  0  0  0  0  0  0  0  0  0  0
   16.8447    6.8667   11.3028 C   0  0  0  0  0  0  0  0  0  0  0  0
   18.0501    6.9086   10.7514 N   0  0  0  0  0  0  0  0  0  0  0  0
   16.0205    7.7746   11.1343 O   0  0  0  0  0  0  0  0  0  0  0  0
   20.2883    1.9277   12.7650 Cl  0  0  0  0  0  0  0  0  0  0  0  0
 22 23  1  0  0  0
 22 25  2  0  0  0
 22 32  1  0  0  0
 23 24  2  0  0  0
 24 27  1  0  0  0
 25 26  1  0  0  0
 26 27  1  0  0  0
 26 28  2  0  0  0
 27 30  2  0  0  0
 28 29  1  0  0  0
 28 21  1  0  0  0
 29 30  1  0  0  0
 29 31  2  0  0  0
 21  1  1  0  0  0
  1  2  2  0  0  0
  1  7  1  0  0  0
  2  3  1  0  0  0
  2  5  1  0  0  0
  3  4  2  0  0  0
  3  9  1  0  0  0
  4  6  1  0  0  0
  4  7  1  0  0  0
  9 10  1  0  0  0
  9 12  2  0  0  0
 13 14  1  0  0  0
 13 10  1  0  0  0
 14 15  1  0  0  0
 17 15  1  0  0  0
 17 18  1  0  0  0
 19 15  1  0  0  0
 19 20  1  0  0  0
  7  8  1  0  0  0
 10 11  1  0  0  0
 15 16  1  0  0  0
M  CHG 1  15   1
M  END
> <minimizedAffinity>
-7.61506

$$$$
2jam.A


 32 34  0  0  0  0  0  0  0  0999 V2000
    8.0837    8.6429   12.0412 C   0  0  0  0  0  0  0  0  0  0  0  0
    8.2617    7.2476   12.0075 C   0  0  0  0  0  0  0  0  0  0  0  0
    9.5438    6.9748   12.4636 C   0  0  0  0  0  0  0  0  0  0  0  0
   10.1076    8.2144   12.7506 C   0  0  0  0  0  0  0  0  0  0  0  0
    7.2221    6.2132   11.5544 C   0  0  0  0  0  0  0  0  0  0  0  0
   11.5159    8.5136   13.2628 C   0  0  0  0  0  0  0  0  0  0  0  0
    9.2258    9.1791   12.5013 N   0  0  0  0  0  0  0  0  0  0  0  0
    9.3907   10.1661   12.6376 H   0  0  0  0  0  0  0  0  0  0  0  0
   10.2774    5.5889   12.5849 C   0  0  0  0  0  0  0  0  0  0  0  0
   11.0883    5.2176   11.5910 N   0  0  0  0  0  0  0  0  0  0  0  0
   11.1756    5.8294   10.7922 H   0  0  0  0  0  0  0  0  0  0  0  0
   10.1370    4.9184   13.6022 O   0  0  0  0  0  0  0  0  0  0  0  0
   11.8696    3.9525   11.5961 C   0  0  0  0  0  0  0  0  0  0  0  0
   12.4007    3.7489   10.1538 C   0  0  0  0  0  0  0  0  0  0  0  0
   12.0935    2.4290    9.5313 N   0  0  0  0  0  0  0  0  0  0  0  0
   11.9474    2.6296    8.5522 H   0  0  0  0  0  0  0  0  0  0  0  0
   10.8429    1.8365   10.0669 C   0  0  0  0  0  0  0  0  0  0  0  0
   10.3396    0.6564    9.2173 C   0  0  0  0  0  0  0  0  0  0  0  0
   13.2188    1.4610    9.5786 C   0  0  0  0  0  0  0  0  0  0  0  0
   14.2707    1.8411    8.5228 C   0  0  0  0  0  0  0  0  0  0  0  0
    6.8966    9.2730   11.6442 C   0  0  0  0  0  0  0  0  0  0  0  0
    5.3238   10.0161   15.8090 C   0  0  0  0  0  0  0  0  0  0  0  0
    3.9632    9.7003   15.9748 C   0  0  0  0  0  0  0  0  0  0  0  0
    3.2433    9.1931   14.8922 C   0  0  0  0  0  0  0  0  0  0  0  0
    5.9610    9.8362   14.5801 C   0  0  0  0  0  0  0  0  0  0  0  0
    5.2426    9.3387   13.5034 C   0  0  0  0  0  0  0  0  0  0  0  0
    3.8809    9.0197   13.6571 C   0  0  0  0  0  0  0  0  0  0  0  0
    5.5961    9.0488   12.1731 C   0  0  0  0  0  0  0  0  0  0  0  0
    4.4131    8.5737   11.5824 C   0  0  0  0  0  0  0  0  0  0  0  0
    3.4319    8.5654   12.4745 N   0  0  0  0  0  0  0  0  0  0  0  0
    4.2382    8.1874   10.4195 O   0  0  0  0  0  0  0  0  0  0  0  0
    6.2490   10.6131   17.1376 Cl  0  0  0  0  0  0  0  0  0  0  0  0
 22 23  1  0  0  0
 22 25  2  0  0  0
 22 32  1  0  0  0
 23 24  2  0  0  0
 24 27  1  0  0  0
 25 26  1  0  0  0
 26 27  1  0  0  0
 26 28  2  0  0  0
 27 30  2  0  0  0
 28 29  1  0  0  0
 28 21  1  0  0  0
 29 30  1  0  0  0
 29 31  2  0  0  0
 21  1  1  0  0  0
  1  2  2  0  0  0
  1  7  1  0  0  0
  2  3  1  0  0  0
  2  5  1  0  0  0
  3  4  2  0  0  0
  3  9  1  0  0  0
  4  6  1  0  0  0
  4  7  1  0  0  0
  9 10  1  0  0  0
  9 12  2  0  0  0
 13 14  1  0  0  0
 13 10  1  0  0  0
 14 15  1  0  0  0
 17 15  1  0  0  0
 17 18  1  0  0  0
 19 15  1  0  0  0
 19 20  1  0  0  0
  7  8  1  0  0  0
 10 11  1  0  0  0
 15 16  1  0  0  0
M  CHG 1  15   1
M  END
> <minimizedAffinity>
-7.55045

$$$$
2jam.A


 32 34  0  0  0  0  0  0  0  0999 V2000
   13.5826    3.6515   11.3172 C   0  0  0  0  0  0  0  0  0  0  0  0
   14.5744    4.5687   11.7106 C   0  0  0  0  0  0  0  0  0  0  0  0
   13.9847    5.8231   11.7813 C   0  0  0  0  0  0  0  0  0  0  0  0
   12.6550    5.6294   11.4190 C   0  0  0  0  0  0  0  0  0  0  0  0
   16.0427    4.2396   12.0135 C   0  0  0  0  0  0  0  0  0  0  0  0
   11.5484    6.6764   11.2999 C   0  0  0  0  0  0  0  0  0  0  0  0
   12.4418    4.3422   11.1585 N   0  0  0  0  0  0  0  0  0  0  0  0
   11.5554    3.9443   10.8829 H   0  0  0  0  0  0  0  0  0  0  0  0
   14.6442    7.2092   12.1238 C   0  0  0  0  0  0  0  0  0  0  0  0
   15.2367    7.3469   13.3126 N   0  0  0  0  0  0  0  0  0  0  0  0
   15.2132    6.5648   13.9513 H   0  0  0  0  0  0  0  0  0  0  0  0
   14.6520    8.0991   11.2800 O   0  0  0  0  0  0  0  0  0  0  0  0
   15.9291    8.5888   13.7474 C   0  0  0  0  0  0  0  0  0  0  0  0
   15.1467    9.1324   14.9706 C   0  0  0  0  0  0  0  0  0  0  0  0
   15.5398    8.5674   16.2936 N   0  0  0  0  0  0  0  0  0  0  0  0
   16.3594    8.0079   16.1056 H   0  0  0  0  0  0  0  0  0  0  0  0
   14.4953    7.6731   16.8514 C   0  0  0  0  0  0  0  0  0  0  0  0
   15.0734    6.3447   17.3703 C   0  0  0  0  0  0  0  0  0  0  0  0
   15.9693    9.5874   17.2838 C   0  0  0  0  0  0  0  0  0  0  0  0
   17.4567    9.3860   17.6196 C   0  0  0  0  0  0  0  0  0  0  0  0
   13.8309    2.2833   11.1435 C   0  0  0  0  0  0  0  0  0  0  0  0
   10.7565   -0.0744    8.8282 C   0  0  0  0  0  0  0  0  0  0  0  0
   11.2330   -0.6071    7.6167 C   0  0  0  0  0  0  0  0  0  0  0  0
   12.5610   -0.3862    7.2494 C   0  0  0  0  0  0  0  0  0  0  0  0
   11.5877    0.6748    9.6627 C   0  0  0  0  0  0  0  0  0  0  0  0
   12.9052    0.8995    9.2929 C   0  0  0  0  0  0  0  0  0  0  0  0
   13.3930    0.3721    8.0832 C   0  0  0  0  0  0  0  0  0  0  0  0
   13.9635    1.5925    9.9080 C   0  0  0  0  0  0  0  0  0  0  0  0
   15.0458    1.4548    9.0226 C   0  0  0  0  0  0  0  0  0  0  0  0
   14.6821    0.7350    7.9699 N   0  0  0  0  0  0  0  0  0  0  0  0
   16.1966    1.8939    9.1442 O   0  0  0  0  0  0  0  0  0  0  0  0
    9.1289   -0.3588    9.3260 Cl  0  0  0  0  0  0  0  0  0  0  0  0
 22 23  1  0  0  0
 22 25  2  0  0  0
 22 32  1  0  0  0
 23 24  2  0  0  0
 24 27  1  0  0  0
 25 26  1  0  0  0
 26 27  1  0  0  0
 26 28  2  0  0  0
 27 30  2  0  0  0
 28 29  1  0  0  0
 28 21  1  0  0  0
 29 30  1  0  0  0
 29 31  2  0  0  0
 21  1  1  0  0  0
  1  2  2  0  0  0
  1  7  1  0  0  0
  2  3  1  0  0  0
  2  5  1  0  0  0
  3  4  2  0  0  0
  3  9  1  0  0  0
  4  6  1  0  0  0
  4  7  1  0  0  0
  9 10  1  0  0  0
  9 12  2  0  0  0
 13 14  1  0  0  0
 13 10  1  0  0  0
 14 15  1  0  0  0
 17 15  1  0  0  0
 17 18  1  0  0  0
 19 15  1  0  0  0
 19 20  1  0  0  0
  7  8  1  0  0  0
 10 11  1  0  0  0
 15 16  1  0  0  0
M  CHG 1  15   1
M  END
> <minimizedAffinity>
-7.48306

$$$$
