3sx0.A


 34 36  0  0  0  0  0  0  0  0999 V2000
   21.6198   63.6182   -8.2684 C   0  0  0  0  0  0  0  0  0  0  0  0
   20.1941   63.3350   -8.4549 O   0  0  0  0  0  0  0  0  0  0  0  0
   22.1977   63.8979   -9.6721 C   0  0  0  0  0  0  0  0  0  0  0  0
   23.1867   62.8915   -9.9813 O   0  0  0  0  0  0  0  0  0  0  0  0
   23.4811   63.0412  -10.8827 H   0  0  0  0  0  0  0  0  0  0  0  0
   20.9630   63.6899  -10.5895 C   0  0  0  0  0  0  0  0  0  0  0  0
   21.3206   62.9402  -11.7033 O   0  0  0  0  0  0  0  0  0  0  0  0
   21.7152   62.1235  -11.3889 H   0  0  0  0  0  0  0  0  0  0  0  0
   20.1152   62.7313   -9.7517 C   0  0  0  0  0  0  0  0  0  0  0  0
   16.0003   59.6778  -10.2487 N   0  0  0  0  0  0  0  0  0  0  0  0
   17.2441   59.4188   -9.8457 C   0  0  0  0  0  0  0  0  0  0  0  0
   18.1977   60.3423   -9.7886 N   0  0  0  0  0  0  0  0  0  0  0  0
   17.9197   61.6007  -10.1329 C   0  0  0  0  0  0  0  0  0  0  0  0
   16.6429   61.9180  -10.5572 C   0  0  0  0  0  0  0  0  0  0  0  0
   15.6602   60.9156  -10.6209 C   0  0  0  0  0  0  0  0  0  0  0  0
   14.4093   61.1413  -11.0233 N   0  0  0  0  0  0  0  0  0  0  0  0
   14.1282   62.0706  -11.3017 H   0  0  0  0  0  0  0  0  0  0  0  0
   13.7427   60.3830  -11.0498 H   0  0  0  0  0  0  0  0  0  0  0  0
   16.7108   63.2696  -10.8306 C   0  0  0  0  0  0  0  0  0  0  0  0
   17.9478   63.7283  -10.5862 C   0  0  0  0  0  0  0  0  0  0  0  0
   18.6785   62.6967  -10.1672 N   0  0  0  0  0  0  0  0  0  0  0  0
   15.2687   64.3803  -11.4339 Br  0  0  0  0  0  0  0  0  0  0  0  0
   21.6173   64.8067   -7.3367 C   0  0  0  0  0  0  0  0  0  0  0  0
   23.3052   65.2398   -6.7833 S   0  0  0  0  0  0  0  0  0  0  0  0
   23.5373   64.1478   -5.3085 C   0  0  0  0  0  0  0  0  0  0  0  0
   24.5365   63.0139   -5.5348 C   0  0  0  0  0  0  0  0  0  0  0  0
   23.7565   62.3406   -3.2541 N   0  0  0  0  0  0  0  0  0  0  0  0
   23.5762   63.3067   -3.0209 H   0  0  0  0  0  0  0  0  0  0  0  0
   24.0000   61.8317   -2.4163 H   0  0  0  0  0  0  0  0  0  0  0  0
   22.9292   61.9338   -3.6667 H   0  0  0  0  0  0  0  0  0  0  0  0
   24.8856   62.2663   -4.2273 C   0  0  0  0  0  0  0  0  0  0  0  0
   26.1187   62.9061   -3.5767 C   0  0  0  0  0  0  0  0  0  0  0  0
   27.1617   62.9045   -4.2453 O   0  0  0  0  0  0  0  0  0  0  0  0
   26.0019   63.3610   -2.4229 O   0  0  0  0  0  0  0  0  0  0  0  0
 27 28  1  0  0  0
 27 29  1  0  0  0
 27 30  1  0  0  0
 27 31  1  0  0  0
 31 32  1  0  0  0
 31 26  1  0  0  0
 32 33  1  0  0  0
 32 34  2  0  0  0
 26 25  1  0  0  0
 25 24  1  0  0  0
 24 23  1  0  0  0
 23  1  1  0  0  0
  1  2  1  0  0  0
  1  3  1  0  0  0
  2  9  1  0  0  0
  3  4  1  0  0  0
  3  6  1  0  0  0
  4  5  1  0  0  0
  6  7  1  0  0  0
  6  9  1  0  0  0
  7  8  1  0  0  0
  9 21  1  0  0  0
 10 11  2  0  0  0
 10 15  1  0  0  0
 11 12  1  0  0  0
 12 13  2  0  0  0
 13 14  1  0  0  0
 13 21  1  0  0  0
 14 15  1  0  0  0
 14 19  2  0  0  0
 15 16  2  0  0  0
 16 17  1  0  0  0
 16 18  1  0  0  0
 19 20  1  0  0  0
 19 22  1  0  0  0
 20 21  1  0  0  0
M  CHG 1  27   1
M  CHG 1  33  -1
M  END
> <minimizedAffinity>
-10.88270

$$$$
3sx0.A


 34 36  0  0  0  0  0  0  0  0999 V2000
   21.8081   64.0744   -8.3896 C   0  0  0  0  0  0  0  0  0  0  0  0
   20.6910   63.1265   -8.3545 O   0  0  0  0  0  0  0  0  0  0  0  0
   21.7634   64.7523   -9.7756 C   0  0  0  0  0  0  0  0  0  0  0  0
   22.9723   64.4268  -10.4963 O   0  0  0  0  0  0  0  0  0  0  0  0
   22.8932   64.7976  -11.3783 H   0  0  0  0  0  0  0  0  0  0  0  0
   20.5635   64.0413  -10.4570 C   0  0  0  0  0  0  0  0  0  0  0  0
   20.8948   63.6973  -11.7618 O   0  0  0  0  0  0  0  0  0  0  0  0
   21.6945   63.1673  -11.7281 H   0  0  0  0  0  0  0  0  0  0  0  0
   20.5363   62.7042   -9.7147 C   0  0  0  0  0  0  0  0  0  0  0  0
   15.6359   63.2134  -11.2080 N   0  0  0  0  0  0  0  0  0  0  0  0
   16.6448   64.0841  -11.1901 C   0  0  0  0  0  0  0  0  0  0  0  0
   17.8621   63.7786  -10.7538 N   0  0  0  0  0  0  0  0  0  0  0  0
   18.1173   62.5433  -10.3199 C   0  0  0  0  0  0  0  0  0  0  0  0
   17.1023   61.6048  -10.3198 C   0  0  0  0  0  0  0  0  0  0  0  0
   15.8215   61.9631  -10.7734 C   0  0  0  0  0  0  0  0  0  0  0  0
   14.7911   61.1173  -10.8000 N   0  0  0  0  0  0  0  0  0  0  0  0
   14.9107   60.1656  -10.4837 H   0  0  0  0  0  0  0  0  0  0  0  0
   13.8910   61.4283  -11.1365 H   0  0  0  0  0  0  0  0  0  0  0  0
   17.7019   60.4682   -9.8150 C   0  0  0  0  0  0  0  0  0  0  0  0
   18.9902   60.7132   -9.5314 C   0  0  0  0  0  0  0  0  0  0  0  0
   19.2293   61.9870   -9.8381 N   0  0  0  0  0  0  0  0  0  0  0  0
   16.8703   58.7573   -9.5729 Br  0  0  0  0  0  0  0  0  0  0  0  0
   21.5190   64.9929   -7.2263 C   0  0  0  0  0  0  0  0  0  0  0  0
   23.0544   65.5710   -6.4191 S   0  0  0  0  0  0  0  0  0  0  0  0
   23.3598   64.2597   -5.1507 C   0  0  0  0  0  0  0  0  0  0  0  0
   24.4588   63.2719   -5.5407 C   0  0  0  0  0  0  0  0  0  0  0  0
   23.7895   62.2986   -3.3343 N   0  0  0  0  0  0  0  0  0  0  0  0
   23.6376   63.2250   -2.9617 H   0  0  0  0  0  0  0  0  0  0  0  0
   24.0687   61.6773   -2.5885 H   0  0  0  0  0  0  0  0  0  0  0  0
   22.9351   61.9597   -3.7528 H   0  0  0  0  0  0  0  0  0  0  0  0
   24.8643   62.3487   -4.3686 C   0  0  0  0  0  0  0  0  0  0  0  0
   26.1403   62.8821   -3.7050 C   0  0  0  0  0  0  0  0  0  0  0  0
   27.1824   62.8122   -4.3715 O   0  0  0  0  0  0  0  0  0  0  0  0
   26.0546   63.3255   -2.5440 O   0  0  0  0  0  0  0  0  0  0  0  0
 27 28  1  0  0  0
 27 29  1  0  0  0
 27 30  1  0  0  0
 27 31  1  0  0  0
 31 32  1  0  0  0
 31 26  1  0  0  0
 32 33  1  0  0  0
 32 34  2  0  0  0
 26 25  1  0  0  0
 25 24  1  0  0  0
 24 23  1  0  0  0
 23  1  1  0  0  0
  1  2  1  0  0  0
  1  3  1  0  0  0
  2  9  1  0  0  0
  3  4  1  0  0  0
  3  6  1  0  0  0
  4  5  1  0  0  0
  6  7  1  0  0  0
  6  9  1  0  0  0
  7  8  1  0  0  0
  9 21  1  0  0  0
 10 11  2  0  0  0
 10 15  1  0  0  0
 11 12  1  0  0  0
 12 13  2  0  0  0
 13 14  1  0  0  0
 13 21  1  0  0  0
 14 15  1  0  0  0
 14 19  2  0  0  0
 15 16  2  0  0  0
 16 17  1  0  0  0
 16 18  1  0  0  0
 19 20  1  0  0  0
 19 22  1  0  0  0
 20 21  1  0  0  0
M  CHG 1  27   1
M  CHG 1  33  -1
M  END
> <minimizedAffinity>
-9.21006

$$$$
3sx0.A


 34 36  0  0  0  0  0  0  0  0999 V2000
   21.4889   63.1328   -8.6848 C   0  0  0  0  0  0  0  0  0  0  0  0
   20.0414   62.9410   -8.8095 O   0  0  0  0  0  0  0  0  0  0  0  0
   21.9867   63.6158  -10.0637 C   0  0  0  0  0  0  0  0  0  0  0  0
   22.9004   62.6352  -10.6027 O   0  0  0  0  0  0  0  0  0  0  0  0
   23.1421   62.9191  -11.4873 H   0  0  0  0  0  0  0  0  0  0  0  0
   20.6852   63.6106  -10.9097 C   0  0  0  0  0  0  0  0  0  0  0  0
   20.9299   63.0403  -12.1528 O   0  0  0  0  0  0  0  0  0  0  0  0
   21.3019   62.1680  -12.0038 H   0  0  0  0  0  0  0  0  0  0  0  0
   19.8465   62.5620  -10.1772 C   0  0  0  0  0  0  0  0  0  0  0  0
   15.4696   59.8630  -10.4249 N   0  0  0  0  0  0  0  0  0  0  0  0
   16.7136   59.4950  -10.1192 C   0  0  0  0  0  0  0  0  0  0  0  0
   17.7415   60.3369  -10.1159 N   0  0  0  0  0  0  0  0  0  0  0  0
   17.5438   61.6215  -10.4161 C   0  0  0  0  0  0  0  0  0  0  0  0
   16.2702   62.0508  -10.7394 C   0  0  0  0  0  0  0  0  0  0  0  0
   15.2065   61.1328  -10.7487 C   0  0  0  0  0  0  0  0  0  0  0  0
   13.9526   61.4682  -11.0538 N   0  0  0  0  0  0  0  0  0  0  0  0
   13.7296   62.4235  -11.2940 H   0  0  0  0  0  0  0  0  0  0  0  0
   13.2258   60.7669  -11.0448 H   0  0  0  0  0  0  0  0  0  0  0  0
   16.4291   63.3987  -10.9927 C   0  0  0  0  0  0  0  0  0  0  0  0
   17.7140   63.7502  -10.8319 C   0  0  0  0  0  0  0  0  0  0  0  0
   18.3857   62.6533  -10.4864 N   0  0  0  0  0  0  0  0  0  0  0  0
   15.0435   64.6362  -11.4682 Br  0  0  0  0  0  0  0  0  0  0  0  0
   21.6087   64.1513   -7.5764 C   0  0  0  0  0  0  0  0  0  0  0  0
   23.2502   64.0918   -6.7732 S   0  0  0  0  0  0  0  0  0  0  0  0
   23.3026   65.6919   -5.8468 C   0  0  0  0  0  0  0  0  0  0  0  0
   23.3147   66.9246   -6.7500 C   0  0  0  0  0  0  0  0  0  0  0  0
   21.3521   68.4659   -6.9392 N   0  0  0  0  0  0  0  0  0  0  0  0
   21.6394   68.7320   -7.8702 H   0  0  0  0  0  0  0  0  0  0  0  0
   20.8633   69.2357   -6.5048 H   0  0  0  0  0  0  0  0  0  0  0  0
   20.7391   67.6649   -6.9922 H   0  0  0  0  0  0  0  0  0  0  0  0
   22.5553   68.1188   -6.1274 C   0  0  0  0  0  0  0  0  0  0  0  0
   23.4705   69.3490   -6.0813 C   0  0  0  0  0  0  0  0  0  0  0  0
   24.2427   69.4295   -5.1157 O   0  0  0  0  0  0  0  0  0  0  0  0
   23.3658   70.1908   -6.9936 O   0  0  0  0  0  0  0  0  0  0  0  0
 27 28  1  0  0  0
 27 29  1  0  0  0
 27 30  1  0  0  0
 27 31  1  0  0  0
 31 32  1  0  0  0
 31 26  1  0  0  0
 32 33  1  0  0  0
 32 34  2  0  0  0
 26 25  1  0  0  0
 25 24  1  0  0  0
 24 23  1  0  0  0
 23  1  1  0  0  0
  1  2  1  0  0  0
  1  3  1  0  0  0
  2  9  1  0  0  0
  3  4  1  0  0  0
  3  6  1  0  0  0
  4  5  1  0  0  0
  6  7  1  0  0  0
  6  9  1  0  0  0
  7  8  1  0  0  0
  9 21  1  0  0  0
 10 11  2  0  0  0
 10 15  1  0  0  0
 11 12  1  0  0  0
 12 13  2  0  0  0
 13 14  1  0  0  0
 13 21  1  0  0  0
 14 15  1  0  0  0
 14 19  2  0  0  0
 15 16  2  0  0  0
 16 17  1  0  0  0
 16 18  1  0  0  0
 19 20  1  0  0  0
 19 22  1  0  0  0
 20 21  1  0  0  0
M  CHG 1  27   1
M  CHG 1  33  -1
M  END
> <minimizedAffinity>
-8.94236

$$$$
3sx0.A


 34 36  0  0  0  0  0  0  0  0999 V2000
   22.5900   63.7729  -10.3436 C   0  0  0  0  0  0  0  0  0  0  0  0
   21.3365   63.1204  -10.7317 O   0  0  0  0  0  0  0  0  0  0  0  0
   22.6298   63.7615   -8.8006 C   0  0  0  0  0  0  0  0  0  0  0  0
   22.6234   65.1240   -8.3210 O   0  0  0  0  0  0  0  0  0  0  0  0
   22.5768   65.0942   -7.3625 H   0  0  0  0  0  0  0  0  0  0  0  0
   21.2773   63.0925   -8.4362 C   0  0  0  0  0  0  0  0  0  0  0  0
   20.6650   63.7924   -7.4039 O   0  0  0  0  0  0  0  0  0  0  0  0
   20.5852   64.7080   -7.6813 H   0  0  0  0  0  0  0  0  0  0  0  0
   20.4293   63.4237   -9.6653 C   0  0  0  0  0  0  0  0  0  0  0  0
   15.5610   63.2715  -11.3326 N   0  0  0  0  0  0  0  0  0  0  0  0
   16.4526   64.2620  -11.3109 C   0  0  0  0  0  0  0  0  0  0  0  0
   17.6817   64.1242  -10.8256 N   0  0  0  0  0  0  0  0  0  0  0  0
   18.0726   62.9436  -10.3429 C   0  0  0  0  0  0  0  0  0  0  0  0
   17.1827   61.8857  -10.3447 C   0  0  0  0  0  0  0  0  0  0  0  0
   15.8847   62.0674  -10.8512 C   0  0  0  0  0  0  0  0  0  0  0  0
   14.9691   61.0987  -10.8832 N   0  0  0  0  0  0  0  0  0  0  0  0
   15.1944   60.1790  -10.5318 H   0  0  0  0  0  0  0  0  0  0  0  0
   14.0501   61.2847  -11.2587 H   0  0  0  0  0  0  0  0  0  0  0  0
   17.9002   60.8482   -9.7834 C   0  0  0  0  0  0  0  0  0  0  0  0
   19.1370   61.2608   -9.4665 C   0  0  0  0  0  0  0  0  0  0  0  0
   19.2269   62.5451   -9.8072 N   0  0  0  0  0  0  0  0  0  0  0  0
   17.2794   59.0542   -9.5118 Br  0  0  0  0  0  0  0  0  0  0  0  0
   23.6440   62.9214  -11.0102 C   0  0  0  0  0  0  0  0  0  0  0  0
   23.8834   63.3845  -12.7627 S   0  0  0  0  0  0  0  0  0  0  0  0
   25.7257   63.3904  -12.9288 C   0  0  0  0  0  0  0  0  0  0  0  0
   26.2252   64.0656  -14.2055 C   0  0  0  0  0  0  0  0  0  0  0  0
   27.9245   63.5988  -15.9825 N   0  0  0  0  0  0  0  0  0  0  0  0
   27.6478   64.4337  -16.4791 H   0  0  0  0  0  0  0  0  0  0  0  0
   28.2609   62.9111  -16.6414 H   0  0  0  0  0  0  0  0  0  0  0  0
   28.6591   63.8248  -15.3273 H   0  0  0  0  0  0  0  0  0  0  0  0
   26.7509   63.0475  -15.2436 C   0  0  0  0  0  0  0  0  0  0  0  0
   25.6503   62.7314  -16.2643 C   0  0  0  0  0  0  0  0  0  0  0  0
   24.8544   63.6453  -16.5220 O   0  0  0  0  0  0  0  0  0  0  0  0
   25.6121   61.5837  -16.7471 O   0  0  0  0  0  0  0  0  0  0  0  0
 27 28  1  0  0  0
 27 29  1  0  0  0
 27 30  1  0  0  0
 27 31  1  0  0  0
 31 32  1  0  0  0
 31 26  1  0  0  0
 32 33  1  0  0  0
 32 34  2  0  0  0
 26 25  1  0  0  0
 25 24  1  0  0  0
 24 23  1  0  0  0
 23  1  1  0  0  0
  1  2  1  0  0  0
  1  3  1  0  0  0
  2  9  1  0  0  0
  3  4  1  0  0  0
  3  6  1  0  0  0
  4  5  1  0  0  0
  6  7  1  0  0  0
  6  9  1  0  0  0
  7  8  1  0  0  0
  9 21  1  0  0  0
 10 11  2  0  0  0
 10 15  1  0  0  0
 11 12  1  0  0  0
 12 13  2  0  0  0
 13 14  1  0  0  0
 13 21  1  0  0  0
 14 15  1  0  0  0
 14 19  2  0  0  0
 15 16  2  0  0  0
 16 17  1  0  0  0
 16 18  1  0  0  0
 19 20  1  0  0  0
 19 22  1  0  0  0
 20 21  1  0  0  0
M  CHG 1  27   1
M  CHG 1  33  -1
M  END
> <minimizedAffinity>
-8.86645

$$$$
