4agl.A


 15 15  0  0  0  0  0  0  0  0999 V2000
   91.7105   99.0322  -42.8668 C   0  0  0  0  0  0  0  0  0  0  0  0
   92.0227   97.8391  -42.2044 C   0  0  0  0  0  0  0  0  0  0  0  0
   91.5982   96.6136  -42.7117 C   0  0  0  0  0  0  0  0  0  0  0  0
   90.8418   96.5462  -43.8908 C   0  0  0  0  0  0  0  0  0  0  0  0
   90.9515   98.9593  -44.0538 C   0  0  0  0  0  0  0  0  0  0  0  0
   90.5189   97.7267  -44.5627 C   0  0  0  0  0  0  0  0  0  0  0  0
   92.7827   97.9019  -41.0689 O   0  0  0  0  0  0  0  0  0  0  0  0
   92.9877   97.0529  -40.6704 H   0  0  0  0  0  0  0  0  0  0  0  0
   92.0855   94.8668  -41.6402 I   0  0  0  0  0  0  0  0  0  0  0  0
   89.3929   97.6889  -46.3255 I   0  0  0  0  0  0  0  0  0  0  0  0
   92.1404  100.3851  -42.3191 C   0  0  0  0  0  0  0  0  0  0  0  0
   91.4659  100.7634  -41.0626 N   0  0  0  0  0  0  0  0  0  0  0  0
   91.1909   99.8885  -40.6396 H   0  0  0  0  0  0  0  0  0  0  0  0
   92.3490  101.4188  -40.0769 C   0  0  0  0  0  0  0  0  0  0  0  0
   90.2483  101.5528  -41.3066 C   0  0  0  0  0  0  0  0  0  0  0  0
  1  2  2  0  0  0
  1 11  1  0  0  0
  1  5  1  0  0  0
  2  3  1  0  0  0
  2  7  1  0  0  0
  3  4  2  0  0  0
  3  9  1  0  0  0
 11 12  1  0  0  0
 12 13  1  0  0  0
 12 14  1  0  0  0
 12 15  1  0  0  0
  4  6  1  0  0  0
  5  6  2  0  0  0
  6 10  1  0  0  0
  7  8  1  0  0  0
M  CHG 1  12   1
M  END
> <minimizedAffinity>
-4.31792

$$$$
4agl.A


 15 15  0  0  0  0  0  0  0  0999 V2000
   90.9230   95.6403  -45.3895 C   0  0  0  0  0  0  0  0  0  0  0  0
   91.3379   95.5200  -44.0579 C   0  0  0  0  0  0  0  0  0  0  0  0
   91.7986   94.3015  -43.5654 C   0  0  0  0  0  0  0  0  0  0  0  0
   91.8493   93.1662  -44.3873 C   0  0  0  0  0  0  0  0  0  0  0  0
   90.9781   94.4962  -46.2132 C   0  0  0  0  0  0  0  0  0  0  0  0
   91.4366   93.2677  -45.7173 C   0  0  0  0  0  0  0  0  0  0  0  0
   91.3136   96.6328  -43.2631 O   0  0  0  0  0  0  0  0  0  0  0  0
   91.6324   96.4988  -42.3675 H   0  0  0  0  0  0  0  0  0  0  0  0
   92.3777   94.1970  -41.5429 I   0  0  0  0  0  0  0  0  0  0  0  0
   91.4891   91.6086  -46.9905 I   0  0  0  0  0  0  0  0  0  0  0  0
   90.3915   96.9536  -45.9443 C   0  0  0  0  0  0  0  0  0  0  0  0
   89.1648   97.4314  -45.2782 N   0  0  0  0  0  0  0  0  0  0  0  0
   89.1639   96.9786  -44.3754 H   0  0  0  0  0  0  0  0  0  0  0  0
   89.1574   98.8805  -44.9937 C   0  0  0  0  0  0  0  0  0  0  0  0
   87.9497   97.0153  -45.9964 C   0  0  0  0  0  0  0  0  0  0  0  0
  1  2  2  0  0  0
  1 11  1  0  0  0
  1  5  1  0  0  0
  2  3  1  0  0  0
  2  7  1  0  0  0
  3  4  2  0  0  0
  3  9  1  0  0  0
 11 12  1  0  0  0
 12 13  1  0  0  0
 12 14  1  0  0  0
 12 15  1  0  0  0
  4  6  1  0  0  0
  5  6  2  0  0  0
  6 10  1  0  0  0
  7  8  1  0  0  0
M  CHG 1  12   1
M  END
> <minimizedAffinity>
-4.27224

$$$$
4agl.A


 15 15  0  0  0  0  0  0  0  0999 V2000
   91.0839   95.5070  -44.7725 C   0  0  0  0  0  0  0  0  0  0  0  0
   90.9449   94.6133  -45.8410 C   0  0  0  0  0  0  0  0  0  0  0  0
   91.4399   93.3148  -45.7493 C   0  0  0  0  0  0  0  0  0  0  0  0
   92.0960   92.8752  -44.5903 C   0  0  0  0  0  0  0  0  0  0  0  0
   91.7423   95.0595  -43.6077 C   0  0  0  0  0  0  0  0  0  0  0  0
   92.2459   93.7544  -43.5160 C   0  0  0  0  0  0  0  0  0  0  0  0
   90.2820   95.0329  -46.9614 O   0  0  0  0  0  0  0  0  0  0  0  0
   90.1940   94.3719  -47.6521 H   0  0  0  0  0  0  0  0  0  0  0  0
   91.2152   92.0410  -47.4118 I   0  0  0  0  0  0  0  0  0  0  0  0
   93.2158   93.1555  -41.7619 I   0  0  0  0  0  0  0  0  0  0  0  0
   90.5748   96.9383  -44.8577 C   0  0  0  0  0  0  0  0  0  0  0  0
   91.2797   97.7653  -45.8558 N   0  0  0  0  0  0  0  0  0  0  0  0
   91.3993   97.1626  -46.6574 H   0  0  0  0  0  0  0  0  0  0  0  0
   90.4990   98.9204  -46.3426 C   0  0  0  0  0  0  0  0  0  0  0  0
   92.6148   98.1726  -45.3903 C   0  0  0  0  0  0  0  0  0  0  0  0
  1  2  2  0  0  0
  1 11  1  0  0  0
  1  5  1  0  0  0
  2  3  1  0  0  0
  2  7  1  0  0  0
  3  4  2  0  0  0
  3  9  1  0  0  0
 11 12  1  0  0  0
 12 13  1  0  0  0
 12 14  1  0  0  0
 12 15  1  0  0  0
  4  6  1  0  0  0
  5  6  2  0  0  0
  6 10  1  0  0  0
  7  8  1  0  0  0
M  CHG 1  12   1
M  END
> <minimizedAffinity>
-4.22847

$$$$
4agl.A


 15 15  0  0  0  0  0  0  0  0999 V2000
   91.4279   92.5085  -45.8244 C   0  0  0  0  0  0  0  0  0  0  0  0
   90.9107   93.7640  -46.1650 C   0  0  0  0  0  0  0  0  0  0  0  0
   91.0619   94.8504  -45.3070 C   0  0  0  0  0  0  0  0  0  0  0  0
   91.7265   94.7110  -44.0799 C   0  0  0  0  0  0  0  0  0  0  0  0
   92.0979   92.3736  -44.5901 C   0  0  0  0  0  0  0  0  0  0  0  0
   92.2460   93.4651  -43.7230 C   0  0  0  0  0  0  0  0  0  0  0  0
   90.2856   93.9071  -47.3731 O   0  0  0  0  0  0  0  0  0  0  0  0
   89.9731   94.7941  -47.5657 H   0  0  0  0  0  0  0  0  0  0  0  0
   90.2301   96.6987  -45.8804 I   0  0  0  0  0  0  0  0  0  0  0  0
   93.2466   93.1963  -41.9055 I   0  0  0  0  0  0  0  0  0  0  0  0
   91.2533   91.3003  -46.7326 C   0  0  0  0  0  0  0  0  0  0  0  0
   92.1963   91.2634  -47.8667 N   0  0  0  0  0  0  0  0  0  0  0  0
   92.6699   92.1551  -47.8424 H   0  0  0  0  0  0  0  0  0  0  0  0
   93.2597   90.2472  -47.7350 C   0  0  0  0  0  0  0  0  0  0  0  0
   91.5007   91.1534  -49.1587 C   0  0  0  0  0  0  0  0  0  0  0  0
  1  2  2  0  0  0
  1 11  1  0  0  0
  1  5  1  0  0  0
  2  3  1  0  0  0
  2  7  1  0  0  0
  3  4  2  0  0  0
  3  9  1  0  0  0
 11 12  1  0  0  0
 12 13  1  0  0  0
 12 14  1  0  0  0
 12 15  1  0  0  0
  4  6  1  0  0  0
  5  6  2  0  0  0
  6 10  1  0  0  0
  7  8  1  0  0  0
M  CHG 1  12   1
M  END
> <minimizedAffinity>
-4.17515

$$$$
4agl.A


 15 15  0  0  0  0  0  0  0  0999 V2000
   90.9398   96.0408  -45.3801 C   0  0  0  0  0  0  0  0  0  0  0  0
   89.8732   96.0587  -46.2866 C   0  0  0  0  0  0  0  0  0  0  0  0
   88.9298   97.0826  -46.2524 C   0  0  0  0  0  0  0  0  0  0  0  0
   89.0204   98.1130  -45.3054 C   0  0  0  0  0  0  0  0  0  0  0  0
   91.0282   97.0808  -44.4308 C   0  0  0  0  0  0  0  0  0  0  0  0
   90.0763   98.1092  -44.3918 C   0  0  0  0  0  0  0  0  0  0  0  0
   89.7988   95.0686  -47.2273 O   0  0  0  0  0  0  0  0  0  0  0  0
   89.0623   95.1442  -47.8385 H   0  0  0  0  0  0  0  0  0  0  0  0
   87.3397   97.0213  -47.6325 I   0  0  0  0  0  0  0  0  0  0  0  0
   90.2632   99.6192  -42.9560 I   0  0  0  0  0  0  0  0  0  0  0  0
   91.9686   94.9198  -45.3801 C   0  0  0  0  0  0  0  0  0  0  0  0
   91.4534   93.6353  -44.8688 N   0  0  0  0  0  0  0  0  0  0  0  0
   90.4534   93.7614  -44.8043 H   0  0  0  0  0  0  0  0  0  0  0  0
   91.6499   92.4968  -45.7885 C   0  0  0  0  0  0  0  0  0  0  0  0
   91.9613   93.3351  -43.5207 C   0  0  0  0  0  0  0  0  0  0  0  0
  1  2  2  0  0  0
  1 11  1  0  0  0
  1  5  1  0  0  0
  2  3  1  0  0  0
  2  7  1  0  0  0
  3  4  2  0  0  0
  3  9  1  0  0  0
 11 12  1  0  0  0
 12 13  1  0  0  0
 12 14  1  0  0  0
 12 15  1  0  0  0
  4  6  1  0  0  0
  5  6  2  0  0  0
  6 10  1  0  0  0
  7  8  1  0  0  0
M  CHG 1  12   1
M  END
> <minimizedAffinity>
-4.01005

$$$$
4agl.A


 15 15  0  0  0  0  0  0  0  0999 V2000
   90.6874   95.9197  -45.5245 C   0  0  0  0  0  0  0  0  0  0  0  0
   90.6880   96.9757  -44.6055 C   0  0  0  0  0  0  0  0  0  0  0  0
   89.6626   97.9180  -44.6064 C   0  0  0  0  0  0  0  0  0  0  0  0
   88.6119   97.8369  -45.5318 C   0  0  0  0  0  0  0  0  0  0  0  0
   89.6271   95.8408  -46.4518 C   0  0  0  0  0  0  0  0  0  0  0  0
   88.5970   96.7917  -46.4574 C   0  0  0  0  0  0  0  0  0  0  0  0
   91.6983   97.0405  -43.6857 O   0  0  0  0  0  0  0  0  0  0  0  0
   91.6352   97.7698  -43.0645 H   0  0  0  0  0  0  0  0  0  0  0  0
   89.7521   99.4921  -43.2096 I   0  0  0  0  0  0  0  0  0  0  0  0
   87.0563   96.6192  -47.8620 I   0  0  0  0  0  0  0  0  0  0  0  0
   91.8093   94.8925  -45.5607 C   0  0  0  0  0  0  0  0  0  0  0  0
   91.4338   93.5769  -45.0086 N   0  0  0  0  0  0  0  0  0  0  0  0
   90.4445   93.6461  -44.8175 H   0  0  0  0  0  0  0  0  0  0  0  0
   91.5749   92.4589  -45.9630 C   0  0  0  0  0  0  0  0  0  0  0  0
   92.1230   93.2946  -43.7395 C   0  0  0  0  0  0  0  0  0  0  0  0
  1  2  2  0  0  0
  1 11  1  0  0  0
  1  5  1  0  0  0
  2  3  1  0  0  0
  2  7  1  0  0  0
  3  4  2  0  0  0
  3  9  1  0  0  0
 11 12  1  0  0  0
 12 13  1  0  0  0
 12 14  1  0  0  0
 12 15  1  0  0  0
  4  6  1  0  0  0
  5  6  2  0  0  0
  6 10  1  0  0  0
  7  8  1  0  0  0
M  CHG 1  12   1
M  END
> <minimizedAffinity>
-3.89353

$$$$
4agl.A


 15 15  0  0  0  0  0  0  0  0999 V2000
   90.7891   97.4170  -44.2424 C   0  0  0  0  0  0  0  0  0  0  0  0
   89.9166   97.5994  -45.3218 C   0  0  0  0  0  0  0  0  0  0  0  0
   89.6449   96.5528  -46.1994 C   0  0  0  0  0  0  0  0  0  0  0  0
   90.2447   95.2967  -46.0287 C   0  0  0  0  0  0  0  0  0  0  0  0
   91.3882   96.1509  -44.0732 C   0  0  0  0  0  0  0  0  0  0  0  0
   91.1199   95.0981  -44.9591 C   0  0  0  0  0  0  0  0  0  0  0  0
   89.3108   98.8163  -45.4736 O   0  0  0  0  0  0  0  0  0  0  0  0
   88.7037   98.8776  -46.2148 H   0  0  0  0  0  0  0  0  0  0  0  0
   88.3427   96.9170  -47.8146 I   0  0  0  0  0  0  0  0  0  0  0  0
   92.0447   93.2466  -44.6540 I   0  0  0  0  0  0  0  0  0  0  0  0
   91.1222   98.5516  -43.2848 C   0  0  0  0  0  0  0  0  0  0  0  0
   91.7096   99.7352  -43.9412 N   0  0  0  0  0  0  0  0  0  0  0  0
   91.0165  100.0329  -44.6128 H   0  0  0  0  0  0  0  0  0  0  0  0
   91.9085  100.8886  -43.0407 C   0  0  0  0  0  0  0  0  0  0  0  0
   92.9410   99.4040  -44.6756 C   0  0  0  0  0  0  0  0  0  0  0  0
  1  2  2  0  0  0
  1 11  1  0  0  0
  1  5  1  0  0  0
  2  3  1  0  0  0
  2  7  1  0  0  0
  3  4  2  0  0  0
  3  9  1  0  0  0
 11 12  1  0  0  0
 12 13  1  0  0  0
 12 14  1  0  0  0
 12 15  1  0  0  0
  4  6  1  0  0  0
  5  6  2  0  0  0
  6 10  1  0  0  0
  7  8  1  0  0  0
M  CHG 1  12   1
M  END
> <minimizedAffinity>
-3.71132

$$$$
4agl.A


 15 15  0  0  0  0  0  0  0  0999 V2000
   90.4326   97.4702  -44.7021 C   0  0  0  0  0  0  0  0  0  0  0  0
   91.0993   96.3105  -44.2893 C   0  0  0  0  0  0  0  0  0  0  0  0
   91.0196   95.1406  -45.0405 C   0  0  0  0  0  0  0  0  0  0  0  0
   90.2637   95.0936  -46.2210 C   0  0  0  0  0  0  0  0  0  0  0  0
   89.6755   97.4189  -45.8915 C   0  0  0  0  0  0  0  0  0  0  0  0
   89.5899   96.2404  -46.6458 C   0  0  0  0  0  0  0  0  0  0  0  0
   91.8580   96.3628  -43.1525 O   0  0  0  0  0  0  0  0  0  0  0  0
   92.3129   95.5471  -42.9304 H   0  0  0  0  0  0  0  0  0  0  0  0
   92.0290   93.4312  -44.3362 I   0  0  0  0  0  0  0  0  0  0  0  0
   88.4467   96.2305  -48.3978 I   0  0  0  0  0  0  0  0  0  0  0  0
   90.4829   98.7531  -43.8856 C   0  0  0  0  0  0  0  0  0  0  0  0
   91.8487   99.1804  -43.5266 N   0  0  0  0  0  0  0  0  0  0  0  0
   92.3332   98.3288  -43.2812 H   0  0  0  0  0  0  0  0  0  0  0  0
   92.6139   99.7617  -44.6478 C   0  0  0  0  0  0  0  0  0  0  0  0
   91.8584  100.0638  -42.3498 C   0  0  0  0  0  0  0  0  0  0  0  0
  1  2  2  0  0  0
  1 11  1  0  0  0
  1  5  1  0  0  0
  2  3  1  0  0  0
  2  7  1  0  0  0
  3  4  2  0  0  0
  3  9  1  0  0  0
 11 12  1  0  0  0
 12 13  1  0  0  0
 12 14  1  0  0  0
 12 15  1  0  0  0
  4  6  1  0  0  0
  5  6  2  0  0  0
  6 10  1  0  0  0
  7  8  1  0  0  0
M  CHG 1  12   1
M  END
> <minimizedAffinity>
-3.69346

$$$$
4agl.A


 15 15  0  0  0  0  0  0  0  0999 V2000
   90.9963   97.7635  -44.4115 C   0  0  0  0  0  0  0  0  0  0  0  0
   91.7052   98.5161  -45.3552 C   0  0  0  0  0  0  0  0  0  0  0  0
   91.3300   99.8254  -45.6457 C   0  0  0  0  0  0  0  0  0  0  0  0
   90.2299  100.4168  -45.0079 C   0  0  0  0  0  0  0  0  0  0  0  0
   89.8919   98.3634  -43.7706 C   0  0  0  0  0  0  0  0  0  0  0  0
   89.5097   99.6795  -44.0660 C   0  0  0  0  0  0  0  0  0  0  0  0
   92.7941   97.9491  -45.9583 O   0  0  0  0  0  0  0  0  0  0  0  0
   93.2573   98.5183  -46.5773 H   0  0  0  0  0  0  0  0  0  0  0  0
   92.4314  100.8806  -47.0985 I   0  0  0  0  0  0  0  0  0  0  0  0
   87.8596  100.5083  -43.0828 I   0  0  0  0  0  0  0  0  0  0  0  0
   91.3703   96.3229  -44.0955 C   0  0  0  0  0  0  0  0  0  0  0  0
   91.4820   95.4590  -45.2864 N   0  0  0  0  0  0  0  0  0  0  0  0
   92.1781   95.9035  -45.8677 H   0  0  0  0  0  0  0  0  0  0  0  0
   92.0064   94.1075  -45.0049 C   0  0  0  0  0  0  0  0  0  0  0  0
   90.2235   95.4030  -46.0468 C   0  0  0  0  0  0  0  0  0  0  0  0
  1  2  2  0  0  0
  1 11  1  0  0  0
  1  5  1  0  0  0
  2  3  1  0  0  0
  2  7  1  0  0  0
  3  4  2  0  0  0
  3  9  1  0  0  0
 11 12  1  0  0  0
 12 13  1  0  0  0
 12 14  1  0  0  0
 12 15  1  0  0  0
  4  6  1  0  0  0
  5  6  2  0  0  0
  6 10  1  0  0  0
  7  8  1  0  0  0
M  CHG 1  12   1
M  END
> <minimizedAffinity>
-3.59502

$$$$
4agl.A


 15 15  0  0  0  0  0  0  0  0999 V2000
   90.9718   98.6727  -42.9123 C   0  0  0  0  0  0  0  0  0  0  0  0
   89.6835   99.1307  -43.2126 C   0  0  0  0  0  0  0  0  0  0  0  0
   89.2364  100.3584  -42.7306 C   0  0  0  0  0  0  0  0  0  0  0  0
   90.0609  101.1592  -41.9269 C   0  0  0  0  0  0  0  0  0  0  0  0
   91.7985   99.4828  -42.1055 C   0  0  0  0  0  0  0  0  0  0  0  0
   91.3478  100.7163  -41.6151 C   0  0  0  0  0  0  0  0  0  0  0  0
   88.8884   98.3626  -44.0180 O   0  0  0  0  0  0  0  0  0  0  0  0
   88.0256   98.7365  -44.2117 H   0  0  0  0  0  0  0  0  0  0  0  0
   87.2749  100.9625  -43.2044 I   0  0  0  0  0  0  0  0  0  0  0  0
   92.6225  101.8671  -40.4204 I   0  0  0  0  0  0  0  0  0  0  0  0
   91.4744   97.3238  -43.4052 C   0  0  0  0  0  0  0  0  0  0  0  0
   91.5741   97.2230  -44.8738 N   0  0  0  0  0  0  0  0  0  0  0  0
   90.6850   97.5546  -45.2198 H   0  0  0  0  0  0  0  0  0  0  0  0
   92.5884   98.1136  -45.4727 C   0  0  0  0  0  0  0  0  0  0  0  0
   91.7451   95.8314  -45.3205 C   0  0  0  0  0  0  0  0  0  0  0  0
  1  2  2  0  0  0
  1 11  1  0  0  0
  1  5  1  0  0  0
  2  3  1  0  0  0
  2  7  1  0  0  0
  3  4  2  0  0  0
  3  9  1  0  0  0
 11 12  1  0  0  0
 12 13  1  0  0  0
 12 14  1  0  0  0
 12 15  1  0  0  0
  4  6  1  0  0  0
  5  6  2  0  0  0
  6 10  1  0  0  0
  7  8  1  0  0  0
M  CHG 1  12   1
M  END
> <minimizedAffinity>
-3.53453

$$$$
