6e43.C


 36 39  0  0  0  0  0  0  0  0999 V2000
   22.1107   79.6257   12.2039 C   0  0  0  0  0  0  0  0  0  0  0  0
   21.6508   78.3722   12.6044 C   0  0  0  0  0  0  0  0  0  0  0  0
   21.6391   78.0513   13.9540 C   0  0  0  0  0  0  0  0  0  0  0  0
   22.1715   78.9303   14.8754 C   0  0  0  0  0  0  0  0  0  0  0  0
   22.6089   80.1913   14.4833 C   0  0  0  0  0  0  0  0  0  0  0  0
   22.5878   80.5436   13.1360 C   0  0  0  0  0  0  0  0  0  0  0  0
   21.2456   76.7237   14.3983 N   0  0  0  0  0  0  0  0  0  0  0  0
   21.6633   76.3476   15.2375 H   0  0  0  0  0  0  0  0  0  0  0  0
   20.2762   75.9212   13.6811 C   0  0  0  0  0  0  0  0  0  0  0  0
   20.1114   74.5988   14.2598 N   0  0  0  0  0  0  0  0  0  0  0  0
   20.6474   74.3200   15.0692 H   0  0  0  0  0  0  0  0  0  0  0  0
   19.6617   76.3527   12.7536 O   0  0  0  0  0  0  0  0  0  0  0  0
   19.1572   73.6829   13.6484 C   0  0  0  0  0  0  0  0  0  0  0  0
   19.6295   72.4210   13.2935 C   0  0  0  0  0  0  0  0  0  0  0  0
   18.7689   71.5144   12.6882 C   0  0  0  0  0  0  0  0  0  0  0  0
   17.4523   71.9185   12.4582 C   0  0  0  0  0  0  0  0  0  0  0  0
   16.9989   73.1838   12.8074 C   0  0  0  0  0  0  0  0  0  0  0  0
   17.8507   74.0869   13.4124 C   0  0  0  0  0  0  0  0  0  0  0  0
   16.4750   70.9322   11.7860 C   0  0  0  0  0  0  0  0  0  0  0  0
   22.0833   80.0072   10.6973 C   0  0  0  0  0  0  0  0  0  0  0  0
   21.7233   79.2083    9.4404 C   0  0  0  0  0  0  0  0  0  0  0  0
   20.8593   80.3911    9.8631 C   0  0  0  0  0  0  0  0  0  0  0  0
   19.4991   80.0556   10.5000 C   0  0  0  0  0  0  0  0  0  0  0  0
   19.0812   78.8624   10.5860 O   0  0  0  0  0  0  0  0  0  0  0  0
   18.7866   80.9938   10.9382 O   0  0  0  0  0  0  0  0  0  0  0  0
   22.1674   78.5884   16.3351 N   0  0  0  0  0  0  0  0  0  0  0  0
   20.9059   78.9826   17.0861 C   0  0  0  0  0  0  0  0  0  0  0  0
   20.7462   78.2122   18.3927 C   0  0  0  0  0  0  0  0  0  0  0  0
   19.5459   78.8021   19.1713 C   0  0  0  0  0  0  0  0  0  0  0  0
   19.7163   80.3129   19.3936 C   0  0  0  0  0  0  0  0  0  0  0  0
   19.9345   81.0982   18.0928 C   0  0  0  0  0  0  0  0  0  0  0  0
   21.1055   80.4894   17.2983 C   0  0  0  0  0  0  0  0  0  0  0  0
   23.4112   78.1629   17.0767 C   0  0  0  0  0  0  0  0  0  0  0  0
   24.6902   78.2666   16.1758 C   0  0  0  0  0  0  0  0  0  0  0  0
   25.7990   78.9788   17.0178 C   0  0  0  0  0  0  0  0  0  0  0  0
   25.0776   76.8360   15.7860 C   0  0  0  0  0  0  0  0  0  0  0  0
  1  2  2  0  0  0
  1  6  1  0  0  0
  1 20  1  0  0  0
  2  3  1  0  0  0
  3  4  2  0  0  0
  3  7  1  0  0  0
  4  5  1  0  0  0
  4 26  1  0  0  0
  5  6  2  0  0  0
 26 33  1  0  0  0
 26 27  1  0  0  0
 33 34  1  0  0  0
 34 35  1  0  0  0
 34 36  1  0  0  0
 27 28  1  0  0  0
 27 32  1  0  0  0
 28 29  1  0  0  0
 29 30  1  0  0  0
 30 31  1  0  0  0
 31 32  1  0  0  0
  7  8  1  0  0  0
  7  9  1  0  0  0
  9 10  1  0  0  0
  9 12  2  0  0  0
 10 11  1  0  0  0
 10 13  1  0  0  0
 13 14  2  0  0  0
 13 18  1  0  0  0
 14 15  1  0  0  0
 15 16  2  0  0  0
 16 17  1  0  0  0
 16 19  1  0  0  0
 17 18  2  0  0  0
 20 21  1  0  0  0
 20 22  1  0  0  0
 21 22  1  0  0  0
 22 23  1  0  0  0
 23 24  1  0  0  0
 23 25  2  0  0  0
M  CHG 1  24  -1
M  END
> <minimizedAffinity>
-12.66868

$$$$
6e43.C


 36 39  0  0  0  0  0  0  0  0999 V2000
   21.7815   79.4808   11.8527 C   0  0  0  0  0  0  0  0  0  0  0  0
   21.3224   78.2475   12.3124 C   0  0  0  0  0  0  0  0  0  0  0  0
   21.4119   77.9493   13.6643 C   0  0  0  0  0  0  0  0  0  0  0  0
   22.0409   78.8279   14.5231 C   0  0  0  0  0  0  0  0  0  0  0  0
   22.4784   80.0695   14.0735 C   0  0  0  0  0  0  0  0  0  0  0  0
   22.3572   80.4002   12.7260 C   0  0  0  0  0  0  0  0  0  0  0  0
   21.0205   76.6407   14.1637 N   0  0  0  0  0  0  0  0  0  0  0  0
   21.4243   76.3088   15.0279 H   0  0  0  0  0  0  0  0  0  0  0  0
   20.0726   75.7961   13.4666 C   0  0  0  0  0  0  0  0  0  0  0  0
   19.9071   74.5012   14.1044 N   0  0  0  0  0  0  0  0  0  0  0  0
   20.4289   74.2662   14.9366 H   0  0  0  0  0  0  0  0  0  0  0  0
   19.4733   76.1772   12.5075 O   0  0  0  0  0  0  0  0  0  0  0  0
   18.9730   73.5486   13.5187 C   0  0  0  0  0  0  0  0  0  0  0  0
   19.4916   72.3192   13.1170 C   0  0  0  0  0  0  0  0  0  0  0  0
   18.6507   71.3805   12.5333 C   0  0  0  0  0  0  0  0  0  0  0  0
   17.3061   71.7202   12.3719 C   0  0  0  0  0  0  0  0  0  0  0  0
   16.8059   72.9540   12.7671 C   0  0  0  0  0  0  0  0  0  0  0  0
   17.6382   73.8888   13.3508 C   0  0  0  0  0  0  0  0  0  0  0  0
   16.3497   70.6971   11.7251 C   0  0  0  0  0  0  0  0  0  0  0  0
   21.6418   79.8382   10.3464 C   0  0  0  0  0  0  0  0  0  0  0  0
   21.0971   79.0524    9.1492 C   0  0  0  0  0  0  0  0  0  0  0  0
   20.3801   80.3121    9.6220 C   0  0  0  0  0  0  0  0  0  0  0  0
   19.0639   80.1054   10.3922 C   0  0  0  0  0  0  0  0  0  0  0  0
   18.5086   78.9689   10.4674 O   0  0  0  0  0  0  0  0  0  0  0  0
   18.5279   81.0942   10.9534 O   0  0  0  0  0  0  0  0  0  0  0  0
   22.1463   78.5102   15.9845 N   0  0  0  0  0  0  0  0  0  0  0  0
   23.5196   78.0508   16.4469 C   0  0  0  0  0  0  0  0  0  0  0  0
   24.2895   77.3300   15.3450 C   0  0  0  0  0  0  0  0  0  0  0  0
   25.7305   77.0629   15.8418 C   0  0  0  0  0  0  0  0  0  0  0  0
   26.4153   78.3647   16.2859 C   0  0  0  0  0  0  0  0  0  0  0  0
   25.6260   79.1329   17.3552 C   0  0  0  0  0  0  0  0  0  0  0  0
   24.1802   79.3672   16.8779 C   0  0  0  0  0  0  0  0  0  0  0  0
   20.9378   78.3642   16.8768 C   0  0  0  0  0  0  0  0  0  0  0  0
   20.9374   79.4221   18.0340 C   0  0  0  0  0  0  0  0  0  0  0  0
   20.7138   80.8266   17.3837 C   0  0  0  0  0  0  0  0  0  0  0  0
   19.8071   79.0329   18.9928 C   0  0  0  0  0  0  0  0  0  0  0  0
  1  2  2  0  0  0
  1  6  1  0  0  0
  1 20  1  0  0  0
  2  3  1  0  0  0
  3  4  2  0  0  0
  3  7  1  0  0  0
  4  5  1  0  0  0
  4 26  1  0  0  0
  5  6  2  0  0  0
 26 33  1  0  0  0
 26 27  1  0  0  0
 33 34  1  0  0  0
 34 35  1  0  0  0
 34 36  1  0  0  0
 27 28  1  0  0  0
 27 32  1  0  0  0
 28 29  1  0  0  0
 29 30  1  0  0  0
 30 31  1  0  0  0
 31 32  1  0  0  0
  7  8  1  0  0  0
  7  9  1  0  0  0
  9 10  1  0  0  0
  9 12  2  0  0  0
 10 11  1  0  0  0
 10 13  1  0  0  0
 13 14  2  0  0  0
 13 18  1  0  0  0
 14 15  1  0  0  0
 15 16  2  0  0  0
 16 17  1  0  0  0
 16 19  1  0  0  0
 17 18  2  0  0  0
 20 21  1  0  0  0
 20 22  1  0  0  0
 21 22  1  0  0  0
 22 23  1  0  0  0
 23 24  1  0  0  0
 23 25  2  0  0  0
M  CHG 1  24  -1
M  END
> <minimizedAffinity>
-12.19772

$$$$
6e43.C


 36 39  0  0  0  0  0  0  0  0999 V2000
   21.2783   79.2978   12.1096 C   0  0  0  0  0  0  0  0  0  0  0  0
   20.8829   78.0214   12.5066 C   0  0  0  0  0  0  0  0  0  0  0  0
   21.1387   77.6028   13.8042 C   0  0  0  0  0  0  0  0  0  0  0  0
   21.8658   78.4087   14.6570 C   0  0  0  0  0  0  0  0  0  0  0  0
   22.2410   79.6921   14.2734 C   0  0  0  0  0  0  0  0  0  0  0  0
   21.9542   80.1421   12.9869 C   0  0  0  0  0  0  0  0  0  0  0  0
   20.8156   76.2488   14.2252 N   0  0  0  0  0  0  0  0  0  0  0  0
   21.2306   75.8908   15.0735 H   0  0  0  0  0  0  0  0  0  0  0  0
   19.9200   75.3952   13.4720 C   0  0  0  0  0  0  0  0  0  0  0  0
   19.8207   74.0592   14.0343 N   0  0  0  0  0  0  0  0  0  0  0  0
   20.3485   73.8059   14.8573 H   0  0  0  0  0  0  0  0  0  0  0  0
   19.3077   75.7972   12.5298 O   0  0  0  0  0  0  0  0  0  0  0  0
   18.9441   73.0923   13.3864 C   0  0  0  0  0  0  0  0  0  0  0  0
   17.5928   73.4215   13.3003 C   0  0  0  0  0  0  0  0  0  0  0  0
   16.7078   72.5278   12.7113 C   0  0  0  0  0  0  0  0  0  0  0  0
   17.2220   71.3226   12.2291 C   0  0  0  0  0  0  0  0  0  0  0  0
   18.5697   71.0036   12.3321 C   0  0  0  0  0  0  0  0  0  0  0  0
   19.4534   71.8910   12.9142 C   0  0  0  0  0  0  0  0  0  0  0  0
   16.2613   70.3106   11.5713 C   0  0  0  0  0  0  0  0  0  0  0  0
   20.9535   79.7885   10.6709 C   0  0  0  0  0  0  0  0  0  0  0  0
   21.4417   80.9938    9.8607 C   0  0  0  0  0  0  0  0  0  0  0  0
   21.7969   79.5810    9.4112 C   0  0  0  0  0  0  0  0  0  0  0  0
   23.2458   79.1251    9.6586 C   0  0  0  0  0  0  0  0  0  0  0  0
   23.5332   78.2831   10.5609 O   0  0  0  0  0  0  0  0  0  0  0  0
   24.1635   79.6087    8.9487 O   0  0  0  0  0  0  0  0  0  0  0  0
   22.1510   77.9610   16.0591 N   0  0  0  0  0  0  0  0  0  0  0  0
   20.9963   78.1218   17.0346 C   0  0  0  0  0  0  0  0  0  0  0  0
   21.2482   77.3976   18.3531 C   0  0  0  0  0  0  0  0  0  0  0  0
   20.1161   77.7634   19.3426 C   0  0  0  0  0  0  0  0  0  0  0  0
   20.0015   79.2857   19.5176 C   0  0  0  0  0  0  0  0  0  0  0  0
   19.8038   80.0369   18.1935 C   0  0  0  0  0  0  0  0  0  0  0  0
   20.9088   79.6456   17.1941 C   0  0  0  0  0  0  0  0  0  0  0  0
   23.5450   77.6552   16.5500 C   0  0  0  0  0  0  0  0  0  0  0  0
   24.6014   77.7435   15.3948 C   0  0  0  0  0  0  0  0  0  0  0  0
   25.6260   78.8596   15.7822 C   0  0  0  0  0  0  0  0  0  0  0  0
   25.2542   76.3616   15.2816 C   0  0  0  0  0  0  0  0  0  0  0  0
  1  2  2  0  0  0
  1  6  1  0  0  0
  1 20  1  0  0  0
  2  3  1  0  0  0
  3  4  2  0  0  0
  3  7  1  0  0  0
  4  5  1  0  0  0
  4 26  1  0  0  0
  5  6  2  0  0  0
 26 33  1  0  0  0
 26 27  1  0  0  0
 33 34  1  0  0  0
 34 35  1  0  0  0
 34 36  1  0  0  0
 27 28  1  0  0  0
 27 32  1  0  0  0
 28 29  1  0  0  0
 29 30  1  0  0  0
 30 31  1  0  0  0
 31 32  1  0  0  0
  7  8  1  0  0  0
  7  9  1  0  0  0
  9 10  1  0  0  0
  9 12  2  0  0  0
 10 11  1  0  0  0
 10 13  1  0  0  0
 13 14  2  0  0  0
 13 18  1  0  0  0
 14 15  1  0  0  0
 15 16  2  0  0  0
 16 17  1  0  0  0
 16 19  1  0  0  0
 17 18  2  0  0  0
 20 21  1  0  0  0
 20 22  1  0  0  0
 21 22  1  0  0  0
 22 23  1  0  0  0
 23 24  1  0  0  0
 23 25  2  0  0  0
M  CHG 1  24  -1
M  END
> <minimizedAffinity>
-11.79302

$$$$
6e43.C


 36 39  0  0  0  0  0  0  0  0999 V2000
   21.1214   79.2174   12.0413 C   0  0  0  0  0  0  0  0  0  0  0  0
   20.7452   77.9326   12.4298 C   0  0  0  0  0  0  0  0  0  0  0  0
   20.9908   77.5159   13.7300 C   0  0  0  0  0  0  0  0  0  0  0  0
   21.6899   78.3336   14.5947 C   0  0  0  0  0  0  0  0  0  0  0  0
   22.0456   79.6250   14.2192 C   0  0  0  0  0  0  0  0  0  0  0  0
   21.7683   80.0725   12.9298 C   0  0  0  0  0  0  0  0  0  0  0  0
   20.6880   76.1549   14.1435 N   0  0  0  0  0  0  0  0  0  0  0  0
   21.1414   75.7840   14.9663 H   0  0  0  0  0  0  0  0  0  0  0  0
   19.7599   75.3121   13.4181 C   0  0  0  0  0  0  0  0  0  0  0  0
   19.6872   73.9672   13.9628 N   0  0  0  0  0  0  0  0  0  0  0  0
   20.2520   73.7015   14.7569 H   0  0  0  0  0  0  0  0  0  0  0  0
   19.1053   75.7282   12.5112 O   0  0  0  0  0  0  0  0  0  0  0  0
   18.7828   73.0094   13.3399 C   0  0  0  0  0  0  0  0  0  0  0  0
   19.3422   71.8208   12.8752 C   0  0  0  0  0  0  0  0  0  0  0  0
   18.5304   70.8803   12.2542 C   0  0  0  0  0  0  0  0  0  0  0  0
   17.1727   71.1771   12.1207 C   0  0  0  0  0  0  0  0  0  0  0  0
   16.6315   72.3711   12.5790 C   0  0  0  0  0  0  0  0  0  0  0  0
   17.4348   73.3074   13.1999 C   0  0  0  0  0  0  0  0  0  0  0  0
   16.2480   70.1511   11.4336 C   0  0  0  0  0  0  0  0  0  0  0  0
   20.8075   79.7052   10.5992 C   0  0  0  0  0  0  0  0  0  0  0  0
   21.2586   80.9383    9.8096 C   0  0  0  0  0  0  0  0  0  0  0  0
   21.6879   79.5470    9.3578 C   0  0  0  0  0  0  0  0  0  0  0  0
   23.1500   79.1552    9.6352 C   0  0  0  0  0  0  0  0  0  0  0  0
   24.1055   79.6183    8.9436 O   0  0  0  0  0  0  0  0  0  0  0  0
   23.3955   78.3501   10.5688 O   0  0  0  0  0  0  0  0  0  0  0  0
   21.9640   77.8882   15.9998 N   0  0  0  0  0  0  0  0  0  0  0  0
   23.4328   77.6948   16.3399 C   0  0  0  0  0  0  0  0  0  0  0  0
   24.2635   77.3127   15.1191 C   0  0  0  0  0  0  0  0  0  0  0  0
   25.7589   77.3159   15.5175 C   0  0  0  0  0  0  0  0  0  0  0  0
   26.1724   78.6709   16.1125 C   0  0  0  0  0  0  0  0  0  0  0  0
   25.3101   79.0985   17.3084 C   0  0  0  0  0  0  0  0  0  0  0  0
   23.8187   79.0601   16.9249 C   0  0  0  0  0  0  0  0  0  0  0  0
   20.8808   77.3821   16.9209 C   0  0  0  0  0  0  0  0  0  0  0  0
   20.5909   78.3891   18.0872 C   0  0  0  0  0  0  0  0  0  0  0  0
   19.2910   79.1747   17.7147 C   0  0  0  0  0  0  0  0  0  0  0  0
   20.4281   77.5572   19.3639 C   0  0  0  0  0  0  0  0  0  0  0  0
  1  2  2  0  0  0
  1  6  1  0  0  0
  1 20  1  0  0  0
  2  3  1  0  0  0
  3  4  2  0  0  0
  3  7  1  0  0  0
  4  5  1  0  0  0
  4 26  1  0  0  0
  5  6  2  0  0  0
 26 33  1  0  0  0
 26 27  1  0  0  0
 33 34  1  0  0  0
 34 35  1  0  0  0
 34 36  1  0  0  0
 27 28  1  0  0  0
 27 32  1  0  0  0
 28 29  1  0  0  0
 29 30  1  0  0  0
 30 31  1  0  0  0
 31 32  1  0  0  0
  7  8  1  0  0  0
  7  9  1  0  0  0
  9 10  1  0  0  0
  9 12  2  0  0  0
 10 11  1  0  0  0
 10 13  1  0  0  0
 13 14  2  0  0  0
 13 18  1  0  0  0
 14 15  1  0  0  0
 15 16  2  0  0  0
 16 17  1  0  0  0
 16 19  1  0  0  0
 17 18  2  0  0  0
 20 21  1  0  0  0
 20 22  1  0  0  0
 21 22  1  0  0  0
 22 23  1  0  0  0
 23 24  1  0  0  0
 23 25  2  0  0  0
M  CHG 1  24  -1
M  END
> <minimizedAffinity>
-11.68405

$$$$
6e43.C


 36 39  0  0  0  0  0  0  0  0999 V2000
   20.7542   78.4697   12.8207 C   0  0  0  0  0  0  0  0  0  0  0  0
   21.1002   79.5199   13.6695 C   0  0  0  0  0  0  0  0  0  0  0  0
   21.6113   79.2374   14.9278 C   0  0  0  0  0  0  0  0  0  0  0  0
   21.6800   77.9302   15.3656 C   0  0  0  0  0  0  0  0  0  0  0  0
   21.3589   76.8784   14.5137 C   0  0  0  0  0  0  0  0  0  0  0  0
   20.8838   77.1456   13.2320 C   0  0  0  0  0  0  0  0  0  0  0  0
   21.9027   80.3075   15.8685 N   0  0  0  0  0  0  0  0  0  0  0  0
   22.8418   80.6772   15.9095 H   0  0  0  0  0  0  0  0  0  0  0  0
   20.8951   80.8623   16.7487 C   0  0  0  0  0  0  0  0  0  0  0  0
   21.4384   81.8539   17.6611 N   0  0  0  0  0  0  0  0  0  0  0  0
   22.4214   82.0853   17.6450 H   0  0  0  0  0  0  0  0  0  0  0  0
   19.7455   80.5528   16.6671 O   0  0  0  0  0  0  0  0  0  0  0  0
   20.5360   82.5077   18.5999 C   0  0  0  0  0  0  0  0  0  0  0  0
   20.3730   83.8851   18.4662 C   0  0  0  0  0  0  0  0  0  0  0  0
   19.5406   84.5636   19.3470 C   0  0  0  0  0  0  0  0  0  0  0  0
   18.8999   83.8219   20.3414 C   0  0  0  0  0  0  0  0  0  0  0  0
   19.0809   82.4510   20.4692 C   0  0  0  0  0  0  0  0  0  0  0  0
   19.9051   81.7722   19.5933 C   0  0  0  0  0  0  0  0  0  0  0  0
   17.9707   84.5501   21.3345 C   0  0  0  0  0  0  0  0  0  0  0  0
   20.2240   78.7803   11.3929 C   0  0  0  0  0  0  0  0  0  0  0  0
   19.9926   80.0978   10.6458 C   0  0  0  0  0  0  0  0  0  0  0  0
   21.0532   79.1200   10.1526 C   0  0  0  0  0  0  0  0  0  0  0  0
   22.5189   79.5004   10.4266 C   0  0  0  0  0  0  0  0  0  0  0  0
   23.4547   78.6507   10.3360 O   0  0  0  0  0  0  0  0  0  0  0  0
   22.7874   80.6838   10.7544 O   0  0  0  0  0  0  0  0  0  0  0  0
   22.2261   77.6172   16.7262 N   0  0  0  0  0  0  0  0  0  0  0  0
   23.7423   77.5506   16.8127 C   0  0  0  0  0  0  0  0  0  0  0  0
   24.3876   77.2841   15.4566 C   0  0  0  0  0  0  0  0  0  0  0  0
   25.9225   77.4140   15.6051 C   0  0  0  0  0  0  0  0  0  0  0  0
   26.3108   78.7830   16.1849 C   0  0  0  0  0  0  0  0  0  0  0  0
   25.6263   79.0926   17.5236 C   0  0  0  0  0  0  0  0  0  0  0  0
   24.1008   78.9276   17.3876 C   0  0  0  0  0  0  0  0  0  0  0  0
   21.3614   77.1140   17.8563 C   0  0  0  0  0  0  0  0  0  0  0  0
   20.0632   77.9770   18.0245 C   0  0  0  0  0  0  0  0  0  0  0  0
   18.9186   77.2583   17.2377 C   0  0  0  0  0  0  0  0  0  0  0  0
   19.7774   78.0632   19.5277 C   0  0  0  0  0  0  0  0  0  0  0  0
  1  2  2  0  0  0
  1  6  1  0  0  0
  1 20  1  0  0  0
  2  3  1  0  0  0
  3  4  2  0  0  0
  3  7  1  0  0  0
  4  5  1  0  0  0
  4 26  1  0  0  0
  5  6  2  0  0  0
 26 33  1  0  0  0
 26 27  1  0  0  0
 33 34  1  0  0  0
 34 35  1  0  0  0
 34 36  1  0  0  0
 27 28  1  0  0  0
 27 32  1  0  0  0
 28 29  1  0  0  0
 29 30  1  0  0  0
 30 31  1  0  0  0
 31 32  1  0  0  0
  7  8  1  0  0  0
  7  9  1  0  0  0
  9 10  1  0  0  0
  9 12  2  0  0  0
 10 11  1  0  0  0
 10 13  1  0  0  0
 13 14  2  0  0  0
 13 18  1  0  0  0
 14 15  1  0  0  0
 15 16  2  0  0  0
 16 17  1  0  0  0
 16 19  1  0  0  0
 17 18  2  0  0  0
 20 21  1  0  0  0
 20 22  1  0  0  0
 21 22  1  0  0  0
 22 23  1  0  0  0
 23 24  1  0  0  0
 23 25  2  0  0  0
M  CHG 1  24  -1
M  END
> <minimizedAffinity>
-9.82000

$$$$
6e43.C


 36 39  0  0  0  0  0  0  0  0999 V2000
   19.1869   75.6474   13.9386 C   0  0  0  0  0  0  0  0  0  0  0  0
   19.4007   76.2044   15.1985 C   0  0  0  0  0  0  0  0  0  0  0  0
   20.3748   77.1797   15.3546 C   0  0  0  0  0  0  0  0  0  0  0  0
   21.1872   77.5180   14.2913 C   0  0  0  0  0  0  0  0  0  0  0  0
   20.9617   76.9829   13.0272 C   0  0  0  0  0  0  0  0  0  0  0  0
   19.9593   76.0330   12.8460 C   0  0  0  0  0  0  0  0  0  0  0  0
   20.6808   77.7200   16.6697 N   0  0  0  0  0  0  0  0  0  0  0  0
   21.2254   77.1610   17.3109 H   0  0  0  0  0  0  0  0  0  0  0  0
   20.2328   79.0306   17.0933 C   0  0  0  0  0  0  0  0  0  0  0  0
   20.5789   79.3173   18.4749 N   0  0  0  0  0  0  0  0  0  0  0  0
   21.0710   78.6359   19.0350 H   0  0  0  0  0  0  0  0  0  0  0  0
   19.6895   79.7848   16.3448 O   0  0  0  0  0  0  0  0  0  0  0  0
   20.2013   80.6079   19.0361 C   0  0  0  0  0  0  0  0  0  0  0  0
   20.5514   81.7421   18.3062 C   0  0  0  0  0  0  0  0  0  0  0  0
   20.2348   82.9996   18.8037 C   0  0  0  0  0  0  0  0  0  0  0  0
   19.5736   83.0679   20.0315 C   0  0  0  0  0  0  0  0  0  0  0  0
   19.2411   81.9289   20.7529 C   0  0  0  0  0  0  0  0  0  0  0  0
   19.5512   80.6765   20.2602 C   0  0  0  0  0  0  0  0  0  0  0  0
   19.2111   84.4519   20.6085 C   0  0  0  0  0  0  0  0  0  0  0  0
   18.0660   74.5873   13.7489 C   0  0  0  0  0  0  0  0  0  0  0  0
   17.5889   73.8033   12.5221 C   0  0  0  0  0  0  0  0  0  0  0  0
   18.2315   73.0672   13.6924 C   0  0  0  0  0  0  0  0  0  0  0  0
   19.6731   72.5709   13.4839 C   0  0  0  0  0  0  0  0  0  0  0  0
   20.6262   72.9682   14.2183 O   0  0  0  0  0  0  0  0  0  0  0  0
   19.9057   71.7557   12.5557 O   0  0  0  0  0  0  0  0  0  0  0  0
   22.2457   78.5672   14.4536 N   0  0  0  0  0  0  0  0  0  0  0  0
   23.3579   78.2155   15.4283 C   0  0  0  0  0  0  0  0  0  0  0  0
   24.4612   77.3905   14.7735 C   0  0  0  0  0  0  0  0  0  0  0  0
   25.6268   77.2362   15.7796 C   0  0  0  0  0  0  0  0  0  0  0  0
   26.1243   78.6056   16.2679 C   0  0  0  0  0  0  0  0  0  0  0  0
   25.0150   79.4729   16.8795 C   0  0  0  0  0  0  0  0  0  0  0  0
   23.8376   79.5969   15.8940 C   0  0  0  0  0  0  0  0  0  0  0  0
   22.0848   79.9753   13.9347 C   0  0  0  0  0  0  0  0  0  0  0  0
   22.5669   80.1068   12.4486 C   0  0  0  0  0  0  0  0  0  0  0  0
   23.6116   78.9714   12.1936 C   0  0  0  0  0  0  0  0  0  0  0  0
   21.3236   79.9697   11.5632 C   0  0  0  0  0  0  0  0  0  0  0  0
  1  2  2  0  0  0
  1  6  1  0  0  0
  1 20  1  0  0  0
  2  3  1  0  0  0
  3  4  2  0  0  0
  3  7  1  0  0  0
  4  5  1  0  0  0
  4 26  1  0  0  0
  5  6  2  0  0  0
 26 33  1  0  0  0
 26 27  1  0  0  0
 33 34  1  0  0  0
 34 35  1  0  0  0
 34 36  1  0  0  0
 27 28  1  0  0  0
 27 32  1  0  0  0
 28 29  1  0  0  0
 29 30  1  0  0  0
 30 31  1  0  0  0
 31 32  1  0  0  0
  7  8  1  0  0  0
  7  9  1  0  0  0
  9 10  1  0  0  0
  9 12  2  0  0  0
 10 11  1  0  0  0
 10 13  1  0  0  0
 13 14  2  0  0  0
 13 18  1  0  0  0
 14 15  1  0  0  0
 15 16  2  0  0  0
 16 17  1  0  0  0
 16 19  1  0  0  0
 17 18  2  0  0  0
 20 21  1  0  0  0
 20 22  1  0  0  0
 21 22  1  0  0  0
 22 23  1  0  0  0
 23 24  1  0  0  0
 23 25  2  0  0  0
M  CHG 1  24  -1
M  END
> <minimizedAffinity>
-9.69665

$$$$
