6q9y.B


 28 31  0  0  0  0  0  0  0  0999 V2000
   -1.4492   16.8986  -13.4238 C   0  0  0  0  0  0  0  0  0  0  0  0
   -0.8012   16.2569  -12.4214 N   0  0  0  0  0  0  0  0  0  0  0  0
   -1.1394   16.3406  -11.4734 H   0  0  0  0  0  0  0  0  0  0  0  0
   -1.0898   16.8150  -14.6006 O   0  0  0  0  0  0  0  0  0  0  0  0
   -2.2752   19.8043   -9.8081 C   0  0  0  0  0  0  0  0  0  0  0  0
   -3.5338   20.3990   -9.8987 C   0  0  0  0  0  0  0  0  0  0  0  0
   -4.3877   20.0854  -10.9721 C   0  0  0  0  0  0  0  0  0  0  0  0
   -1.8116   18.8820  -10.7493 C   0  0  0  0  0  0  0  0  0  0  0  0
   -2.6676   18.5823  -11.8195 C   0  0  0  0  0  0  0  0  0  0  0  0
   -3.9176   19.1843  -11.9326 C   0  0  0  0  0  0  0  0  0  0  0  0
   -4.5434   18.7621  -13.0653 N   0  0  0  0  0  0  0  0  0  0  0  0
   -5.4642   19.0470  -13.3672 H   0  0  0  0  0  0  0  0  0  0  0  0
   -3.7488   17.9153  -13.7097 C   0  0  0  0  0  0  0  0  0  0  0  0
   -2.5932   17.7354  -13.0418 C   0  0  0  0  0  0  0  0  0  0  0  0
   -5.6509   20.6192  -11.1276 O   0  0  0  0  0  0  0  0  0  0  0  0
   -6.1611   21.4609  -10.0742 C   0  0  0  0  0  0  0  0  0  0  0  0
    0.3785   15.4474  -12.6974 C   0  0  0  0  0  0  0  0  0  0  0  0
    0.1317   13.9325  -12.7568 C   0  0  0  0  0  0  0  0  0  0  0  0
    1.4467   13.3879  -12.4216 N   0  0  0  0  0  0  0  0  0  0  0  0
    2.3308   14.3784  -11.8069 C   0  0  0  0  0  0  0  0  0  0  0  0
    1.4106   15.5887  -11.5667 C   0  0  0  0  0  0  0  0  0  0  0  0
    1.9047   12.1823  -12.8845 C   0  0  0  0  0  0  0  0  0  0  0  0
    3.1790   11.7160  -12.5318 C   0  0  0  0  0  0  0  0  0  0  0  0
    3.6769   10.5092  -13.0061 C   0  0  0  0  0  0  0  0  0  0  0  0
    2.9162    9.7385  -13.8793 C   0  0  0  0  0  0  0  0  0  0  0  0
    1.6440   10.1825  -14.2362 C   0  0  0  0  0  0  0  0  0  0  0  0
    1.1359   11.3843  -13.7485 C   0  0  0  0  0  0  0  0  0  0  0  0
    3.4596    8.4157  -14.4134 C   0  0  0  0  0  0  0  0  0  0  0  0
  5  6  2  0  0  0
  5  8  1  0  0  0
  6  7  1  0  0  0
  7 10  2  0  0  0
  7 15  1  0  0  0
  8  9  2  0  0  0
  9 10  1  0  0  0
  9 14  1  0  0  0
 10 11  1  0  0  0
 11 12  1  0  0  0
 11 13  1  0  0  0
 13 14  2  0  0  0
 14  1  1  0  0  0
 15 16  1  0  0  0
  1  2  1  0  0  0
  1  4  2  0  0  0
  2  3  1  0  0  0
  2 17  1  0  0  0
 17 18  1  0  0  0
 17 21  1  0  0  0
 18 19  1  0  0  0
 19 20  1  0  0  0
 19 22  1  0  0  0
 20 21  1  0  0  0
 22 23  2  0  0  0
 22 27  1  0  0  0
 23 24  1  0  0  0
 24 25  2  0  0  0
 25 26  1  0  0  0
 25 28  1  0  0  0
 26 27  2  0  0  0
M  END
> <minimizedAffinity>
-11.94088

$$$$
6q9y.B


 28 31  0  0  0  0  0  0  0  0999 V2000
   -6.9206   10.4756  -13.6760 C   0  0  0  0  0  0  0  0  0  0  0  0
   -6.2303    9.8558  -14.6637 N   0  0  0  0  0  0  0  0  0  0  0  0
   -6.3726   10.1347  -15.6239 H   0  0  0  0  0  0  0  0  0  0  0  0
   -6.7711   10.1871  -12.4863 O   0  0  0  0  0  0  0  0  0  0  0  0
   -9.8276   10.8819  -17.3614 C   0  0  0  0  0  0  0  0  0  0  0  0
  -10.5841   12.0523  -17.2978 C   0  0  0  0  0  0  0  0  0  0  0  0
  -10.4094   12.9491  -16.2278 C   0  0  0  0  0  0  0  0  0  0  0  0
   -8.8739   10.5516  -16.3957 C   0  0  0  0  0  0  0  0  0  0  0  0
   -8.7132   11.4486  -15.3292 C   0  0  0  0  0  0  0  0  0  0  0  0
   -9.4762   12.6097  -15.2431 C   0  0  0  0  0  0  0  0  0  0  0  0
   -9.1653   13.2951  -14.1090 N   0  0  0  0  0  0  0  0  0  0  0  0
   -9.5751   14.1730  -13.8237 H   0  0  0  0  0  0  0  0  0  0  0  0
   -8.2363   12.6241  -13.4378 C   0  0  0  0  0  0  0  0  0  0  0  0
   -7.8914   11.4965  -14.0885 C   0  0  0  0  0  0  0  0  0  0  0  0
  -11.1076   14.1325  -16.0980 O   0  0  0  0  0  0  0  0  0  0  0  0
  -12.0519   14.4746  -17.1322 C   0  0  0  0  0  0  0  0  0  0  0  0
   -5.2848    8.7911  -14.3545 C   0  0  0  0  0  0  0  0  0  0  0  0
   -3.8283    9.2438  -14.1721 C   0  0  0  0  0  0  0  0  0  0  0  0
   -3.0804    8.0298  -14.4959 N   0  0  0  0  0  0  0  0  0  0  0  0
   -3.8885    7.0386  -15.2066 C   0  0  0  0  0  0  0  0  0  0  0  0
   -5.1957    7.7895  -15.5174 C   0  0  0  0  0  0  0  0  0  0  0  0
   -1.8594    7.7278  -13.9523 C   0  0  0  0  0  0  0  0  0  0  0  0
   -1.2698    6.4739  -14.1659 C   0  0  0  0  0  0  0  0  0  0  0  0
   -0.0445    6.1336  -13.6071 C   0  0  0  0  0  0  0  0  0  0  0  0
    0.6205    7.0387  -12.7863 C   0  0  0  0  0  0  0  0  0  0  0  0
    0.0530    8.2929  -12.5676 C   0  0  0  0  0  0  0  0  0  0  0  0
   -1.1675    8.6425  -13.1406 C   0  0  0  0  0  0  0  0  0  0  0  0
    1.9628    6.6693  -12.1599 C   0  0  0  0  0  0  0  0  0  0  0  0
  5  6  2  0  0  0
  5  8  1  0  0  0
  6  7  1  0  0  0
  7 10  2  0  0  0
  7 15  1  0  0  0
  8  9  2  0  0  0
  9 10  1  0  0  0
  9 14  1  0  0  0
 10 11  1  0  0  0
 11 12  1  0  0  0
 11 13  1  0  0  0
 13 14  2  0  0  0
 14  1  1  0  0  0
 15 16  1  0  0  0
  1  2  1  0  0  0
  1  4  2  0  0  0
  2  3  1  0  0  0
  2 17  1  0  0  0
 17 18  1  0  0  0
 17 21  1  0  0  0
 18 19  1  0  0  0
 19 20  1  0  0  0
 19 22  1  0  0  0
 20 21  1  0  0  0
 22 23  2  0  0  0
 22 27  1  0  0  0
 23 24  1  0  0  0
 24 25  2  0  0  0
 25 26  1  0  0  0
 25 28  1  0  0  0
 26 27  2  0  0  0
M  END
> <minimizedAffinity>
-11.89691

$$$$
6q9y.B


 28 31  0  0  0  0  0  0  0  0999 V2000
    0.2792   16.2905  -11.9971 C   0  0  0  0  0  0  0  0  0  0  0  0
   -0.8361   16.3478  -12.7647 N   0  0  0  0  0  0  0  0  0  0  0  0
   -1.1044   15.5460  -13.3171 H   0  0  0  0  0  0  0  0  0  0  0  0
    0.6414   17.2334  -11.2894 O   0  0  0  0  0  0  0  0  0  0  0  0
   -0.5646   12.0061  -13.7663 C   0  0  0  0  0  0  0  0  0  0  0  0
    0.5282   11.1543  -13.6040 C   0  0  0  0  0  0  0  0  0  0  0  0
    1.6907   11.6121  -12.9569 C   0  0  0  0  0  0  0  0  0  0  0  0
   -0.5661   13.3221  -13.2980 C   0  0  0  0  0  0  0  0  0  0  0  0
    0.6006   13.7708  -12.6614 C   0  0  0  0  0  0  0  0  0  0  0  0
    1.7055   12.9375  -12.5113 C   0  0  0  0  0  0  0  0  0  0  0  0
    2.7202   13.6059  -11.8980 N   0  0  0  0  0  0  0  0  0  0  0  0
    3.6237   13.2172  -11.6684 H   0  0  0  0  0  0  0  0  0  0  0  0
    2.3315   14.8513  -11.6498 C   0  0  0  0  0  0  0  0  0  0  0  0
    1.0676   15.0542  -12.0684 C   0  0  0  0  0  0  0  0  0  0  0  0
    2.8082   10.8302  -12.7452 O   0  0  0  0  0  0  0  0  0  0  0  0
    3.0981    9.7950  -13.7057 C   0  0  0  0  0  0  0  0  0  0  0  0
   -1.6521   17.5544  -12.8011 C   0  0  0  0  0  0  0  0  0  0  0  0
   -2.4586   17.8361  -11.5244 C   0  0  0  0  0  0  0  0  0  0  0  0
   -3.5681   18.6450  -12.0273 N   0  0  0  0  0  0  0  0  0  0  0  0
   -3.7214   18.5567  -13.4797 C   0  0  0  0  0  0  0  0  0  0  0  0
   -2.7390   17.4425  -13.8826 C   0  0  0  0  0  0  0  0  0  0  0  0
   -4.2083   19.5971  -11.2782 C   0  0  0  0  0  0  0  0  0  0  0  0
   -3.5928   20.1537  -10.1481 C   0  0  0  0  0  0  0  0  0  0  0  0
   -4.2287   21.1027   -9.3579 C   0  0  0  0  0  0  0  0  0  0  0  0
   -5.5244   21.5061   -9.6634 C   0  0  0  0  0  0  0  0  0  0  0  0
   -6.1503   20.9687  -10.7869 C   0  0  0  0  0  0  0  0  0  0  0  0
   -5.5082   20.0294  -11.5905 C   0  0  0  0  0  0  0  0  0  0  0  0
   -6.2346   22.5411   -8.7945 C   0  0  0  0  0  0  0  0  0  0  0  0
  5  6  2  0  0  0
  5  8  1  0  0  0
  6  7  1  0  0  0
  7 10  2  0  0  0
  7 15  1  0  0  0
  8  9  2  0  0  0
  9 10  1  0  0  0
  9 14  1  0  0  0
 10 11  1  0  0  0
 11 12  1  0  0  0
 11 13  1  0  0  0
 13 14  2  0  0  0
 14  1  1  0  0  0
 15 16  1  0  0  0
  1  2  1  0  0  0
  1  4  2  0  0  0
  2  3  1  0  0  0
  2 17  1  0  0  0
 17 18  1  0  0  0
 17 21  1  0  0  0
 18 19  1  0  0  0
 19 20  1  0  0  0
 19 22  1  0  0  0
 20 21  1  0  0  0
 22 23  2  0  0  0
 22 27  1  0  0  0
 23 24  1  0  0  0
 24 25  2  0  0  0
 25 26  1  0  0  0
 25 28  1  0  0  0
 26 27  2  0  0  0
M  END
> <minimizedAffinity>
-10.41203

$$$$
6q9y.B


 28 31  0  0  0  0  0  0  0  0999 V2000
   -0.2618   15.7769  -12.4912 C   0  0  0  0  0  0  0  0  0  0  0  0
   -1.5132   16.1461  -12.8575 N   0  0  0  0  0  0  0  0  0  0  0  0
   -2.1431   15.4595  -13.2471 H   0  0  0  0  0  0  0  0  0  0  0  0
    0.5403   16.5705  -11.9934 O   0  0  0  0  0  0  0  0  0  0  0  0
    3.6579   13.2857  -11.6991 C   0  0  0  0  0  0  0  0  0  0  0  0
    3.5203   11.9593  -12.1089 C   0  0  0  0  0  0  0  0  0  0  0  0
    2.3188   11.5225  -12.6964 C   0  0  0  0  0  0  0  0  0  0  0  0
    2.6394   14.2287  -11.8553 C   0  0  0  0  0  0  0  0  0  0  0  0
    1.4430   13.7810  -12.4349 C   0  0  0  0  0  0  0  0  0  0  0  0
    1.2854   12.4553  -12.8293 C   0  0  0  0  0  0  0  0  0  0  0  0
    0.0346   12.2573  -13.3282 N   0  0  0  0  0  0  0  0  0  0  0  0
   -0.3214   11.3834  -13.6881 H   0  0  0  0  0  0  0  0  0  0  0  0
   -0.6427   13.3980  -13.2657 C   0  0  0  0  0  0  0  0  0  0  0  0
    0.1162   14.3813  -12.7449 C   0  0  0  0  0  0  0  0  0  0  0  0
    2.1071   10.2327  -13.1397 O   0  0  0  0  0  0  0  0  0  0  0  0
    2.4971    9.9118  -14.4900 C   0  0  0  0  0  0  0  0  0  0  0  0
   -1.9592   17.5237  -12.6949 C   0  0  0  0  0  0  0  0  0  0  0  0
   -3.0568   17.7348  -11.6412 C   0  0  0  0  0  0  0  0  0  0  0  0
   -3.7077   18.9581  -12.1081 N   0  0  0  0  0  0  0  0  0  0  0  0
   -3.3801   19.2800  -13.4973 C   0  0  0  0  0  0  0  0  0  0  0  0
   -2.6128   18.0390  -13.9875 C   0  0  0  0  0  0  0  0  0  0  0  0
   -4.3177   19.8552  -11.2711 C   0  0  0  0  0  0  0  0  0  0  0  0
   -3.6427   20.3670  -10.1539 C   0  0  0  0  0  0  0  0  0  0  0  0
   -4.2457   21.2589   -9.2763 C   0  0  0  0  0  0  0  0  0  0  0  0
   -5.5661   21.6473   -9.4783 C   0  0  0  0  0  0  0  0  0  0  0  0
   -6.2514   21.1541  -10.5873 C   0  0  0  0  0  0  0  0  0  0  0  0
   -5.6432   20.2727  -11.4781 C   0  0  0  0  0  0  0  0  0  0  0  0
   -6.2399   22.6194   -8.5131 C   0  0  0  0  0  0  0  0  0  0  0  0
  5  6  2  0  0  0
  5  8  1  0  0  0
  6  7  1  0  0  0
  7 10  2  0  0  0
  7 15  1  0  0  0
  8  9  2  0  0  0
  9 10  1  0  0  0
  9 14  1  0  0  0
 10 11  1  0  0  0
 11 12  1  0  0  0
 11 13  1  0  0  0
 13 14  2  0  0  0
 14  1  1  0  0  0
 15 16  1  0  0  0
  1  2  1  0  0  0
  1  4  2  0  0  0
  2  3  1  0  0  0
  2 17  1  0  0  0
 17 18  1  0  0  0
 17 21  1  0  0  0
 18 19  1  0  0  0
 19 20  1  0  0  0
 19 22  1  0  0  0
 20 21  1  0  0  0
 22 23  2  0  0  0
 22 27  1  0  0  0
 23 24  1  0  0  0
 24 25  2  0  0  0
 25 26  1  0  0  0
 25 28  1  0  0  0
 26 27  2  0  0  0
M  END
> <minimizedAffinity>
-10.07992

$$$$
6q9y.B


 28 31  0  0  0  0  0  0  0  0999 V2000
   -1.0949   17.2138  -12.1990 C   0  0  0  0  0  0  0  0  0  0  0  0
   -0.0196   16.5865  -11.6638 N   0  0  0  0  0  0  0  0  0  0  0  0
    0.2719   16.8092  -10.7228 H   0  0  0  0  0  0  0  0  0  0  0  0
   -1.5043   16.9660  -13.3357 O   0  0  0  0  0  0  0  0  0  0  0  0
   -5.2509   19.4209  -12.4329 C   0  0  0  0  0  0  0  0  0  0  0  0
   -5.4200   20.3197  -11.3795 C   0  0  0  0  0  0  0  0  0  0  0  0
   -4.4011   20.4880  -10.4240 C   0  0  0  0  0  0  0  0  0  0  0  0
   -4.0866   18.6665  -12.5959 C   0  0  0  0  0  0  0  0  0  0  0  0
   -3.0803   18.8361  -11.6334 C   0  0  0  0  0  0  0  0  0  0  0  0
   -3.2447   19.7145  -10.5662 C   0  0  0  0  0  0  0  0  0  0  0  0
   -2.1532   19.6788   -9.7537 N   0  0  0  0  0  0  0  0  0  0  0  0
   -2.0266   20.2310   -8.9176 H   0  0  0  0  0  0  0  0  0  0  0  0
   -1.2815   18.8012  -10.2370 C   0  0  0  0  0  0  0  0  0  0  0  0
   -1.7422   18.2384  -11.3706 C   0  0  0  0  0  0  0  0  0  0  0  0
   -4.4843   21.3645   -9.3612 O   0  0  0  0  0  0  0  0  0  0  0  0
   -5.7636   21.9692   -9.0851 C   0  0  0  0  0  0  0  0  0  0  0  0
    0.7205   15.5940  -12.4322 C   0  0  0  0  0  0  0  0  0  0  0  0
    0.4882   14.1354  -12.0103 C   0  0  0  0  0  0  0  0  0  0  0  0
    1.7191   13.4818  -12.4528 N   0  0  0  0  0  0  0  0  0  0  0  0
    2.7950   14.4318  -12.7366 C   0  0  0  0  0  0  0  0  0  0  0  0
    2.2347   15.7762  -12.2387 C   0  0  0  0  0  0  0  0  0  0  0  0
    1.7802   12.1677  -12.8361 C   0  0  0  0  0  0  0  0  0  0  0  0
    0.7210   11.5757  -13.5385 C   0  0  0  0  0  0  0  0  0  0  0  0
    0.7471   10.2398  -13.9181 C   0  0  0  0  0  0  0  0  0  0  0  0
    1.8341    9.4415  -13.5773 C   0  0  0  0  0  0  0  0  0  0  0  0
    2.8997   10.0141  -12.8848 C   0  0  0  0  0  0  0  0  0  0  0  0
    2.8833   11.3577  -12.5179 C   0  0  0  0  0  0  0  0  0  0  0  0
    1.8666    7.9698  -13.9816 C   0  0  0  0  0  0  0  0  0  0  0  0
  5  6  2  0  0  0
  5  8  1  0  0  0
  6  7  1  0  0  0
  7 10  2  0  0  0
  7 15  1  0  0  0
  8  9  2  0  0  0
  9 10  1  0  0  0
  9 14  1  0  0  0
 10 11  1  0  0  0
 11 12  1  0  0  0
 11 13  1  0  0  0
 13 14  2  0  0  0
 14  1  1  0  0  0
 15 16  1  0  0  0
  1  2  1  0  0  0
  1  4  2  0  0  0
  2  3  1  0  0  0
  2 17  1  0  0  0
 17 18  1  0  0  0
 17 21  1  0  0  0
 18 19  1  0  0  0
 19 20  1  0  0  0
 19 22  1  0  0  0
 20 21  1  0  0  0
 22 23  2  0  0  0
 22 27  1  0  0  0
 23 24  1  0  0  0
 24 25  2  0  0  0
 25 26  1  0  0  0
 25 28  1  0  0  0
 26 27  2  0  0  0
M  END
> <minimizedAffinity>
-10.01418

$$$$
6q9y.B


 28 31  0  0  0  0  0  0  0  0999 V2000
    0.7642   15.7924  -12.1340 C   0  0  0  0  0  0  0  0  0  0  0  0
   -0.4350   15.9279  -12.7504 N   0  0  0  0  0  0  0  0  0  0  0  0
   -0.8468   15.1356  -13.2222 H   0  0  0  0  0  0  0  0  0  0  0  0
    1.3025   16.7219  -11.5279 O   0  0  0  0  0  0  0  0  0  0  0  0
   -0.6492   11.5807  -13.7031 C   0  0  0  0  0  0  0  0  0  0  0  0
    0.3682   10.6297  -13.6222 C   0  0  0  0  0  0  0  0  0  0  0  0
    1.6258   10.9834  -13.0996 C   0  0  0  0  0  0  0  0  0  0  0  0
   -0.4806   12.8985  -13.2715 C   0  0  0  0  0  0  0  0  0  0  0  0
    0.7793   13.2425  -12.7594 C   0  0  0  0  0  0  0  0  0  0  0  0
    1.8093   12.3085  -12.6922 C   0  0  0  0  0  0  0  0  0  0  0  0
    2.9372   12.8855  -12.1948 N   0  0  0  0  0  0  0  0  0  0  0  0
    3.8176   12.4149  -12.0412 H   0  0  0  0  0  0  0  0  0  0  0  0
    2.6943   14.1669  -11.9439 C   0  0  0  0  0  0  0  0  0  0  0  0
    1.4211   14.4844  -12.2469 C   0  0  0  0  0  0  0  0  0  0  0  0
    2.6790   10.1004  -12.9736 O   0  0  0  0  0  0  0  0  0  0  0  0
    3.2017    9.4991  -14.1751 C   0  0  0  0  0  0  0  0  0  0  0  0
   -1.1363   17.2051  -12.7391 C   0  0  0  0  0  0  0  0  0  0  0  0
   -2.0888   17.4167  -11.5527 C   0  0  0  0  0  0  0  0  0  0  0  0
   -3.0465   18.3829  -12.0888 N   0  0  0  0  0  0  0  0  0  0  0  0
   -3.0004   18.4770  -13.5482 C   0  0  0  0  0  0  0  0  0  0  0  0
   -2.0654   17.3251  -13.9581 C   0  0  0  0  0  0  0  0  0  0  0  0
   -3.7059   19.3012  -11.3146 C   0  0  0  0  0  0  0  0  0  0  0  0
   -4.9943   19.7350  -11.6574 C   0  0  0  0  0  0  0  0  0  0  0  0
   -5.6753   20.6822  -10.9035 C   0  0  0  0  0  0  0  0  0  0  0  0
   -5.0685   21.2497   -9.7879 C   0  0  0  0  0  0  0  0  0  0  0  0
   -3.7903   20.8263   -9.4276 C   0  0  0  0  0  0  0  0  0  0  0  0
   -3.1122   19.8642  -10.1724 C   0  0  0  0  0  0  0  0  0  0  0  0
   -5.8057   22.2989   -8.9594 C   0  0  0  0  0  0  0  0  0  0  0  0
  5  6  2  0  0  0
  5  8  1  0  0  0
  6  7  1  0  0  0
  7 10  2  0  0  0
  7 15  1  0  0  0
  8  9  2  0  0  0
  9 10  1  0  0  0
  9 14  1  0  0  0
 10 11  1  0  0  0
 11 12  1  0  0  0
 11 13  1  0  0  0
 13 14  2  0  0  0
 14  1  1  0  0  0
 15 16  1  0  0  0
  1  2  1  0  0  0
  1  4  2  0  0  0
  2  3  1  0  0  0
  2 17  1  0  0  0
 17 18  1  0  0  0
 17 21  1  0  0  0
 18 19  1  0  0  0
 19 20  1  0  0  0
 19 22  1  0  0  0
 20 21  1  0  0  0
 22 23  2  0  0  0
 22 27  1  0  0  0
 23 24  1  0  0  0
 24 25  2  0  0  0
 25 26  1  0  0  0
 25 28  1  0  0  0
 26 27  2  0  0  0
M  END
> <minimizedAffinity>
-9.88497

$$$$
6q9y.B


 28 31  0  0  0  0  0  0  0  0999 V2000
   -0.7271   15.8283  -13.0906 C   0  0  0  0  0  0  0  0  0  0  0  0
   -0.7545   14.6135  -12.4909 N   0  0  0  0  0  0  0  0  0  0  0  0
   -1.0593   14.5367  -11.5310 H   0  0  0  0  0  0  0  0  0  0  0  0
   -0.3816   15.9757  -14.2654 O   0  0  0  0  0  0  0  0  0  0  0  0
   -4.3951   18.7851  -13.1156 C   0  0  0  0  0  0  0  0  0  0  0  0
   -4.3053   19.7306  -12.0937 C   0  0  0  0  0  0  0  0  0  0  0  0
   -3.1991   19.7280  -11.2243 C   0  0  0  0  0  0  0  0  0  0  0  0
   -3.4118   17.8166  -13.3303 C   0  0  0  0  0  0  0  0  0  0  0  0
   -2.3171   17.8180  -12.4531 C   0  0  0  0  0  0  0  0  0  0  0  0
   -2.2254   18.7428  -11.4168 C   0  0  0  0  0  0  0  0  0  0  0  0
   -1.0984   18.5221  -10.6862 N   0  0  0  0  0  0  0  0  0  0  0  0
   -0.8023   19.0642   -9.8871 H   0  0  0  0  0  0  0  0  0  0  0  0
   -0.4505   17.4794  -11.1929 C   0  0  0  0  0  0  0  0  0  0  0  0
   -1.0995   16.9823  -12.2632 C   0  0  0  0  0  0  0  0  0  0  0  0
   -3.0287   20.6353  -10.1984 O   0  0  0  0  0  0  0  0  0  0  0  0
   -4.2053   21.0980   -9.5056 C   0  0  0  0  0  0  0  0  0  0  0  0
   -0.3489   13.4169  -13.2167 C   0  0  0  0  0  0  0  0  0  0  0  0
   -1.0674   12.1249  -12.7993 C   0  0  0  0  0  0  0  0  0  0  0  0
   -0.1018   11.0939  -13.1771 N   0  0  0  0  0  0  0  0  0  0  0  0
    1.2386   11.6312  -13.4122 C   0  0  0  0  0  0  0  0  0  0  0  0
    1.1305   13.0952  -12.9494 C   0  0  0  0  0  0  0  0  0  0  0  0
   -0.4597    9.8250  -13.5503 C   0  0  0  0  0  0  0  0  0  0  0  0
   -1.8051    9.4302  -13.5503 C   0  0  0  0  0  0  0  0  0  0  0  0
   -2.1930    8.1434  -13.9011 C   0  0  0  0  0  0  0  0  0  0  0  0
   -1.2324    7.1957  -14.2389 C   0  0  0  0  0  0  0  0  0  0  0  0
    0.1099    7.5714  -14.2508 C   0  0  0  0  0  0  0  0  0  0  0  0
    0.4999    8.8659  -13.9158 C   0  0  0  0  0  0  0  0  0  0  0  0
   -1.6490    5.7762  -14.6159 C   0  0  0  0  0  0  0  0  0  0  0  0
  5  6  2  0  0  0
  5  8  1  0  0  0
  6  7  1  0  0  0
  7 10  2  0  0  0
  7 15  1  0  0  0
  8  9  2  0  0  0
  9 10  1  0  0  0
  9 14  1  0  0  0
 10 11  1  0  0  0
 11 12  1  0  0  0
 11 13  1  0  0  0
 13 14  2  0  0  0
 14  1  1  0  0  0
 15 16  1  0  0  0
  1  2  1  0  0  0
  1  4  2  0  0  0
  2  3  1  0  0  0
  2 17  1  0  0  0
 17 18  1  0  0  0
 17 21  1  0  0  0
 18 19  1  0  0  0
 19 20  1  0  0  0
 19 22  1  0  0  0
 20 21  1  0  0  0
 22 23  2  0  0  0
 22 27  1  0  0  0
 23 24  1  0  0  0
 24 25  2  0  0  0
 25 26  1  0  0  0
 25 28  1  0  0  0
 26 27  2  0  0  0
M  END
> <minimizedAffinity>
-9.82053

$$$$
6q9y.B


 28 31  0  0  0  0  0  0  0  0999 V2000
   -5.7357    9.9113  -13.9272 C   0  0  0  0  0  0  0  0  0  0  0  0
   -4.5258   10.2099  -14.4595 N   0  0  0  0  0  0  0  0  0  0  0  0
   -4.4742   10.6593  -15.3625 H   0  0  0  0  0  0  0  0  0  0  0  0
   -5.8558    9.3801  -12.8206 O   0  0  0  0  0  0  0  0  0  0  0  0
   -9.0149   13.2894  -13.7461 C   0  0  0  0  0  0  0  0  0  0  0  0
   -9.9412   13.1682  -14.7822 C   0  0  0  0  0  0  0  0  0  0  0  0
   -9.8317   12.1142  -15.7079 C   0  0  0  0  0  0  0  0  0  0  0  0
   -7.9622   12.3880  -13.5715 C   0  0  0  0  0  0  0  0  0  0  0  0
   -7.8576   11.3456  -14.5044 C   0  0  0  0  0  0  0  0  0  0  0  0
   -8.7632   11.2252  -15.5548 C   0  0  0  0  0  0  0  0  0  0  0  0
   -8.4355   10.1630  -16.3403 N   0  0  0  0  0  0  0  0  0  0  0  0
   -8.9428    9.8616  -17.1600 H   0  0  0  0  0  0  0  0  0  0  0  0
   -7.3415    9.5866  -15.8558 C   0  0  0  0  0  0  0  0  0  0  0  0
   -6.9131   10.2206  -14.7475 C   0  0  0  0  0  0  0  0  0  0  0  0
  -10.7126   11.9166  -16.7518 O   0  0  0  0  0  0  0  0  0  0  0  0
  -11.2018   13.0792  -17.4500 C   0  0  0  0  0  0  0  0  0  0  0  0
   -3.2986    9.8894  -13.7423 C   0  0  0  0  0  0  0  0  0  0  0  0
   -2.0815   10.7497  -14.1138 C   0  0  0  0  0  0  0  0  0  0  0  0
   -0.9624    9.8727  -13.7718 N   0  0  0  0  0  0  0  0  0  0  0  0
   -1.3667    8.4766  -13.6043 C   0  0  0  0  0  0  0  0  0  0  0  0
   -2.8321    8.4628  -14.0751 C   0  0  0  0  0  0  0  0  0  0  0  0
    0.2635   10.3350  -13.3707 C   0  0  0  0  0  0  0  0  0  0  0  0
    0.5690   11.7020  -13.4304 C   0  0  0  0  0  0  0  0  0  0  0  0
    1.8117   12.1942  -13.0526 C   0  0  0  0  0  0  0  0  0  0  0  0
    2.8053   11.3192  -12.6256 C   0  0  0  0  0  0  0  0  0  0  0  0
    2.5181    9.9571  -12.5533 C   0  0  0  0  0  0  0  0  0  0  0  0
    1.2671    9.4632  -12.9156 C   0  0  0  0  0  0  0  0  0  0  0  0
    4.1773   11.8503  -12.2180 C   0  0  0  0  0  0  0  0  0  0  0  0
  5  6  2  0  0  0
  5  8  1  0  0  0
  6  7  1  0  0  0
  7 10  2  0  0  0
  7 15  1  0  0  0
  8  9  2  0  0  0
  9 10  1  0  0  0
  9 14  1  0  0  0
 10 11  1  0  0  0
 11 12  1  0  0  0
 11 13  1  0  0  0
 13 14  2  0  0  0
 14  1  1  0  0  0
 15 16  1  0  0  0
  1  2  1  0  0  0
  1  4  2  0  0  0
  2  3  1  0  0  0
  2 17  1  0  0  0
 17 18  1  0  0  0
 17 21  1  0  0  0
 18 19  1  0  0  0
 19 20  1  0  0  0
 19 22  1  0  0  0
 20 21  1  0  0  0
 22 23  2  0  0  0
 22 27  1  0  0  0
 23 24  1  0  0  0
 24 25  2  0  0  0
 25 26  1  0  0  0
 25 28  1  0  0  0
 26 27  2  0  0  0
M  END
> <minimizedAffinity>
-9.72611

$$$$
6q9y.B


 28 31  0  0  0  0  0  0  0  0999 V2000
    0.7489   13.4528  -12.8019 C   0  0  0  0  0  0  0  0  0  0  0  0
   -0.1292   14.1239  -13.5860 N   0  0  0  0  0  0  0  0  0  0  0  0
   -0.6329   13.6298  -14.3086 H   0  0  0  0  0  0  0  0  0  0  0  0
    1.3757   14.0034  -11.8936 O   0  0  0  0  0  0  0  0  0  0  0  0
   -2.1903    9.8246  -13.4308 C   0  0  0  0  0  0  0  0  0  0  0  0
   -1.5032    8.6459  -13.7219 C   0  0  0  0  0  0  0  0  0  0  0  0
   -0.0973    8.6432  -13.7779 C   0  0  0  0  0  0  0  0  0  0  0  0
   -1.5350   11.0317  -13.1763 C   0  0  0  0  0  0  0  0  0  0  0  0
   -0.1338   11.0197  -13.2424 C   0  0  0  0  0  0  0  0  0  0  0  0
    0.5629    9.8550  -13.5521 C   0  0  0  0  0  0  0  0  0  0  0  0
    1.9009   10.1021  -13.5900 N   0  0  0  0  0  0  0  0  0  0  0  0
    2.6180    9.4179  -13.7845 H   0  0  0  0  0  0  0  0  0  0  0  0
    2.1121   11.3873  -13.3303 C   0  0  0  0  0  0  0  0  0  0  0  0
    0.9507   12.0303  -13.1034 C   0  0  0  0  0  0  0  0  0  0  0  0
    0.6567    7.5188  -14.0462 O   0  0  0  0  0  0  0  0  0  0  0  0
    0.2152    6.2633  -13.4918 C   0  0  0  0  0  0  0  0  0  0  0  0
   -0.3540   15.5511  -13.3972 C   0  0  0  0  0  0  0  0  0  0  0  0
   -1.5143   15.9107  -12.4569 C   0  0  0  0  0  0  0  0  0  0  0  0
   -1.8934   17.2436  -12.9233 N   0  0  0  0  0  0  0  0  0  0  0  0
   -1.3596   17.5533  -14.2499 C   0  0  0  0  0  0  0  0  0  0  0  0
   -0.7598   16.2168  -14.7223 C   0  0  0  0  0  0  0  0  0  0  0  0
   -2.4366   18.2022  -12.1087 C   0  0  0  0  0  0  0  0  0  0  0  0
   -1.8428   18.5181  -10.8785 C   0  0  0  0  0  0  0  0  0  0  0  0
   -2.3858   19.4683  -10.0232 C   0  0  0  0  0  0  0  0  0  0  0  0
   -3.5676   20.1172  -10.3657 C   0  0  0  0  0  0  0  0  0  0  0  0
   -4.1691   19.8211  -11.5878 C   0  0  0  0  0  0  0  0  0  0  0  0
   -3.6172   18.8809  -12.4547 C   0  0  0  0  0  0  0  0  0  0  0  0
   -4.1769   21.1556   -9.4271 C   0  0  0  0  0  0  0  0  0  0  0  0
  5  6  2  0  0  0
  5  8  1  0  0  0
  6  7  1  0  0  0
  7 10  2  0  0  0
  7 15  1  0  0  0
  8  9  2  0  0  0
  9 10  1  0  0  0
  9 14  1  0  0  0
 10 11  1  0  0  0
 11 12  1  0  0  0
 11 13  1  0  0  0
 13 14  2  0  0  0
 14  1  1  0  0  0
 15 16  1  0  0  0
  1  2  1  0  0  0
  1  4  2  0  0  0
  2  3  1  0  0  0
  2 17  1  0  0  0
 17 18  1  0  0  0
 17 21  1  0  0  0
 18 19  1  0  0  0
 19 20  1  0  0  0
 19 22  1  0  0  0
 20 21  1  0  0  0
 22 23  2  0  0  0
 22 27  1  0  0  0
 23 24  1  0  0  0
 24 25  2  0  0  0
 25 26  1  0  0  0
 25 28  1  0  0  0
 26 27  2  0  0  0
M  END
> <minimizedAffinity>
-9.51193

$$$$
6q9y.B


 28 31  0  0  0  0  0  0  0  0999 V2000
   -3.2338    8.6769  -14.0596 C   0  0  0  0  0  0  0  0  0  0  0  0
   -3.9912    9.6834  -13.5601 N   0  0  0  0  0  0  0  0  0  0  0  0
   -3.5550   10.4161  -13.0190 H   0  0  0  0  0  0  0  0  0  0  0  0
   -3.7125    7.7681  -14.7422 O   0  0  0  0  0  0  0  0  0  0  0  0
   -0.0484   12.1222  -13.6343 C   0  0  0  0  0  0  0  0  0  0  0  0
    1.2040   11.6276  -13.2696 C   0  0  0  0  0  0  0  0  0  0  0  0
    1.3935   10.2445  -13.0939 C   0  0  0  0  0  0  0  0  0  0  0  0
   -1.1502   11.2907  -13.8483 C   0  0  0  0  0  0  0  0  0  0  0  0
   -0.9525    9.9144  -13.6629 C   0  0  0  0  0  0  0  0  0  0  0  0
    0.2869    9.4098  -13.2791 C   0  0  0  0  0  0  0  0  0  0  0  0
    0.2202    8.0585  -13.1306 N   0  0  0  0  0  0  0  0  0  0  0  0
    0.9891    7.4592  -12.8664 H   0  0  0  0  0  0  0  0  0  0  0  0
   -1.0182    7.6544  -13.3888 C   0  0  0  0  0  0  0  0  0  0  0  0
   -1.8051    8.6952  -13.7227 C   0  0  0  0  0  0  0  0  0  0  0  0
    2.6016    9.6746  -12.7471 O   0  0  0  0  0  0  0  0  0  0  0  0
    3.7671   10.5230  -12.7312 C   0  0  0  0  0  0  0  0  0  0  0  0
   -5.4287    9.7193  -13.7959 C   0  0  0  0  0  0  0  0  0  0  0  0
   -5.9426   10.9807  -14.5061 C   0  0  0  0  0  0  0  0  0  0  0  0
   -7.3351   11.0431  -14.0642 N   0  0  0  0  0  0  0  0  0  0  0  0
   -7.5975   10.2024  -12.8959 C   0  0  0  0  0  0  0  0  0  0  0  0
   -6.1972    9.7310  -12.4644 C   0  0  0  0  0  0  0  0  0  0  0  0
   -8.3418   11.5898  -14.8160 C   0  0  0  0  0  0  0  0  0  0  0  0
   -8.5959   11.1308  -16.1162 C   0  0  0  0  0  0  0  0  0  0  0  0
   -9.5943   11.6834  -16.9082 C   0  0  0  0  0  0  0  0  0  0  0  0
  -10.3575   12.7420  -16.4266 C   0  0  0  0  0  0  0  0  0  0  0  0
  -10.1238   13.2076  -15.1337 C   0  0  0  0  0  0  0  0  0  0  0  0
   -9.1345   12.6439  -14.3315 C   0  0  0  0  0  0  0  0  0  0  0  0
  -11.4500   13.3620  -17.2940 C   0  0  0  0  0  0  0  0  0  0  0  0
  5  6  2  0  0  0
  5  8  1  0  0  0
  6  7  1  0  0  0
  7 10  2  0  0  0
  7 15  1  0  0  0
  8  9  2  0  0  0
  9 10  1  0  0  0
  9 14  1  0  0  0
 10 11  1  0  0  0
 11 12  1  0  0  0
 11 13  1  0  0  0
 13 14  2  0  0  0
 14  1  1  0  0  0
 15 16  1  0  0  0
  1  2  1  0  0  0
  1  4  2  0  0  0
  2  3  1  0  0  0
  2 17  1  0  0  0
 17 18  1  0  0  0
 17 21  1  0  0  0
 18 19  1  0  0  0
 19 20  1  0  0  0
 19 22  1  0  0  0
 20 21  1  0  0  0
 22 23  2  0  0  0
 22 27  1  0  0  0
 23 24  1  0  0  0
 24 25  2  0  0  0
 25 26  1  0  0  0
 25 28  1  0  0  0
 26 27  2  0  0  0
M  END
> <minimizedAffinity>
-9.46329

$$$$
