/Users/jonathanwahrer/Desktop/Msc/3_Semester/Drug_Design_Praktikum/waehrer_HTS_screening/HTS_experiment/out/docking_results/vina_output/3sx0/0004_docked.pdbqt
 OpenBabel03192221203D

 34 37  0  0  0  0  0  0  0  0999 V2000
   23.0770   63.7400   -8.3830 C   0  0  0  0  0  0  0  0  0  0  0  0
   22.6630   64.9590   -8.0470 N   0  0  0  0  0  4  0  0  0  0  0  0
   22.9110   65.5090   -6.8240 C   0  0  0  0  0  0  0  0  0  0  0  0
   23.5970   64.7540   -5.9700 N   0  0  0  0  0  0  0  0  0  0  0  0
   24.0550   63.5080   -6.2290 C   0  0  0  0  0  0  0  0  0  0  0  0
   23.7630   63.0330   -7.4770 N   0  0  0  0  0  2  0  0  0  0  0  0
   22.7990   63.2020   -9.6700 N   0  0  0  0  0  0  0  0  0  0  0  0
   23.5160   62.9110  -10.3420 H   0  0  0  0  0  0  0  0  0  0  0  0
   21.4580   63.0470  -10.0720 N   0  0  0  0  0  0  0  0  0  0  0  0
   20.4910   62.9360   -9.2490 C   0  0  0  0  0  3  0  0  0  0  0  0
   19.1000   62.7750   -9.6390 C   0  0  0  0  0  0  0  0  0  0  0  0
   18.2930   63.8800   -9.7730 C   0  0  0  0  0  3  0  0  0  0  0  0
   16.9660   63.7530  -10.1440 C   0  0  0  0  0  0  0  0  0  0  0  0
   16.4030   62.5210  -10.3910 C   0  0  0  0  0  0  0  0  0  0  0  0
   15.8640   65.3090  -10.3240 Br  0  0  0  0  0  0  0  0  0  0  0  0
   17.2060   61.4050  -10.2590 C   0  0  0  0  0  0  0  0  0  0  0  0
   16.4170   59.6990  -10.6030 Br  0  0  0  0  0  0  0  0  0  0  0  0
   18.5350   61.5410   -9.8870 C   0  0  0  0  0  0  0  0  0  0  0  0
   15.0690   62.3750  -10.7650 O   0  0  0  0  0  0  0  0  0  0  0  0
   14.7100   61.4580  -10.9750 H   0  0  0  0  0  0  0  0  0  0  0  0
   19.3230   60.4220   -9.7580 O   0  0  0  0  0  0  0  0  0  0  0  0
   19.8320   60.0450  -10.5630 H   0  0  0  0  0  0  0  0  0  0  0  0
   22.4630   66.8040   -6.4880 N   0  0  0  0  0  0  0  0  0  0  0  0
   21.0880   67.1710   -6.6840 C   0  0  0  0  0  2  0  0  0  0  0  0
   21.0760   68.5260   -7.3730 C   0  0  0  0  0  2  0  0  0  0  0  0
   21.9470   69.4250   -6.7690 O   0  0  0  0  0  0  0  0  0  0  0  0
   23.2630   69.0240   -6.8080 C   0  0  0  0  0  2  0  0  0  0  0  0
   23.3860   67.7620   -5.9460 C   0  0  0  0  0  2  0  0  0  0  0  0
   24.7780   62.7450   -5.2940 N   0  0  0  0  0  0  0  0  0  0  0  0
   24.2080   62.4090   -4.0260 C   0  0  0  0  0  2  0  0  0  0  0  0
   25.2240   62.8090   -2.9540 C   0  0  0  0  0  2  0  0  0  0  0  0
   26.3270   63.4340   -3.4950 O   0  0  0  0  0  0  0  0  0  0  0  0
   26.9980   62.6920   -4.4350 C   0  0  0  0  0  2  0  0  0  0  0  0
   26.1000   62.2950   -5.6010 C   0  0  0  0  0  2  0  0  0  0  0  0
  1  2  2  0  0  0  0
  1  6  1  0  0  0  0
  2  3  2  0  0  0  0
  3 23  1  0  0  0  0
  3  4  1  0  0  0  0
  5  4  2  0  0  0  0
  5 29  1  0  0  0  0
  6  5  1  0  0  0  0
  7  1  1  0  0  0  0
  8  7  1  0  0  0  0
  9  7  1  0  0  0  0
  9 10  2  0  0  0  0
 11 10  1  0  0  0  0
 12 11  1  0  0  0  0
 13 12  2  0  0  0  0
 14 16  2  0  0  0  0
 14 13  1  0  0  0  0
 15 13  1  0  0  0  0
 16 18  1  0  0  0  0
 17 16  1  0  0  0  0
 18 21  1  0  0  0  0
 18 11  2  0  0  0  0
 19 14  1  0  0  0  0
 20 19  1  0  0  0  0
 22 21  1  0  0  0  0
 23 28  1  0  0  0  0
 24 23  1  0  0  0  0
 25 26  1  0  0  0  0
 25 24  1  0  0  0  0
 27 26  1  0  0  0  0
 27 28  1  0  0  0  0
 29 30  1  0  0  0  0
 30 31  1  0  0  0  0
 32 31  1  0  0  0  0
 33 32  1  0  0  0  0
 34 29  1  0  0  0  0
 34 33  1  0  0  0  0
M  END
>  <Pose>
1

>  <Score>
-8.794

$$$$
