/Users/jonathanwahrer/Desktop/Msc/3_Semester/Drug_Design_Praktikum/waehrer_HTS_screening/HTS_experiment/out/docking_results/vina_output/3sx0/0006_docked.pdbqt
 OpenBabel03192221213D

 34 37  0  0  0  0  0  0  0  0999 V2000
   18.0760   63.0110  -10.0980 N   0  0  0  0  0  0  0  0  0  0  0  0
   17.2280   61.9610  -10.2570 C   0  0  0  0  0  0  0  0  0  0  0  0
   17.8740   60.7890   -9.9760 C   0  0  0  0  0  0  0  0  0  0  0  0
   19.1250   61.1440   -9.6460 N   0  0  0  0  0  0  0  0  0  0  0  0
   19.2530   62.5070   -9.7200 C   0  0  0  0  0  0  0  0  0  0  0  0
   17.1740   59.6050  -10.0810 C   0  0  0  0  0  3  0  0  0  0  0  0
   15.8420   59.5700  -10.4610 C   0  0  0  0  0  3  0  0  0  0  0  0
   15.2150   60.7720  -10.7380 C   0  0  0  0  0  3  0  0  0  0  0  0
   15.9130   61.9590  -10.6340 C   0  0  0  0  0  3  0  0  0  0  0  0
   17.7920   64.3990  -10.2900 C   0  0  0  0  0  2  0  0  0  0  0  0
   16.4480   64.7250  -10.6990 C   0  0  0  0  0  0  0  0  0  0  0  0
   15.9840   64.5890  -12.0300 N   0  0  0  0  0  0  0  0  0  0  0  0
   16.6600   64.2350  -12.7400 H   0  0  0  0  0  0  0  0  0  0  0  0
   15.6250   65.1530   -9.8560 O   0  0  0  0  0  0  0  0  0  0  0  0
   14.7000   64.8950  -12.4510 N   0  0  0  0  0  0  0  0  0  0  0  0
   14.3310   64.8880  -13.6750 C   0  0  0  0  0  3  0  0  0  0  0  0
   12.9590   65.2250  -14.0010 C   0  0  0  0  0  0  0  0  0  0  0  0
   12.0090   64.2520  -14.0380 C   0  0  0  0  0  0  0  0  0  0  0  0
   10.7070   64.5830  -14.3500 C   0  0  0  0  0  0  0  0  0  0  0  0
   12.3350   62.9350  -13.7680 O   0  0  0  0  0  1  0  0  0  0  0  0
    9.3980   63.2110  -14.3960 Br  0  0  0  0  0  0  0  0  0  0  0  0
   10.3680   65.8970  -14.6230 C   0  0  0  0  0  3  0  0  0  0  0  0
   11.3420   66.8640  -14.5800 C   0  0  0  0  0  0  0  0  0  0  0  0
   12.6460   66.5620  -14.2720 C   0  0  0  0  0  3  0  0  0  0  0  0
   10.8590   68.6760  -14.9590 Br  0  0  0  0  0  0  0  0  0  0  0  0
   20.4870   63.2230   -9.4210 C   0  0  0  0  0  0  0  0  0  0  0  0
   20.8000   63.7780   -8.2430 N   0  0  0  0  0  0  0  0  0  0  0  0
   21.9920   64.3390   -8.3400 O   0  0  0  0  0  0  0  0  0  0  0  0
   22.4700   64.1730   -9.5330 N   0  0  0  0  0  0  0  0  0  0  0  0
   21.5580   63.4770  -10.2470 C   0  0  0  0  0  0  0  0  0  0  0  0
   21.6770   63.0780  -11.6000 N   0  0  0  0  0  4  0  0  0  0  0  0
   21.2350   62.1680  -11.7890 H   0  0  0  0  0  0  0  0  0  0  0  0
   22.7110   62.9490  -11.7770 H   0  0  0  0  0  0  0  0  0  0  0  0
   21.3440   63.8160  -12.2730 H   0  0  0  0  0  0  0  0  0  0  0  0
  1  5  1  0  0  0  0
  2  1  1  0  0  0  0
  2  3  1  0  0  0  0
  3  4  1  0  0  0  0
  5  4  2  0  0  0  0
  5 26  1  0  0  0  0
  6  3  2  0  0  0  0
  7  6  1  0  0  0  0
  8  9  1  0  0  0  0
  8  7  2  0  0  0  0
  9  2  2  0  0  0  0
 10  1  1  0  0  0  0
 11 10  1  0  0  0  0
 11 14  2  0  0  0  0
 12 11  1  0  0  0  0
 13 12  1  0  0  0  0
 15 12  1  0  0  0  0
 16 15  2  0  0  0  0
 17 16  1  0  0  0  0
 18 17  1  0  0  0  0
 18 20  1  0  0  0  0
 19 18  2  0  0  0  0
 21 19  1  0  0  0  0
 22 23  2  0  0  0  0
 22 19  1  0  0  0  0
 23 24  1  0  0  0  0
 24 17  2  0  0  0  0
 25 23  1  0  0  0  0
 26 27  2  0  0  0  0
 28 27  1  0  0  0  0
 29 28  1  0  0  0  0
 30 29  2  0  0  0  0
 30 26  1  0  0  0  0
 31 30  1  0  0  0  0
 32 31  1  0  0  0  0
 33 31  1  0  0  0  0
 34 31  1  0  0  0  0
M  END
>  <Pose>
1

>  <Score>
-8.588

$$$$
