/Users/jonathanwahrer/Desktop/Msc/3_Semester/Drug_Design_Praktikum/waehrer_HTS_screening/HTS_experiment/out/docking_results/vina_output/3sx0/0011_docked.pdbqt
 OpenBabel03192221213D

 36 39  0  0  0  0  0  0  0  0999 V2000
   18.1650   62.9240  -10.5500 N   0  0  0  0  0  0  0  0  0  0  0  0
   17.3490   61.8050  -10.4800 C   0  0  0  0  0  0  0  0  0  0  0  0
   18.0480   60.8450   -9.8490 C   0  0  0  0  0  0  0  0  0  0  0  0
   19.2300   61.3600   -9.5490 N   0  0  0  0  0  0  0  0  0  0  0  0
   19.3170   62.6730   -9.9880 C   0  0  0  0  0  0  0  0  0  0  0  0
   17.5320   59.5820   -9.6010 C   0  0  0  0  0  3  0  0  0  0  0  0
   16.2500   59.3490  -10.0370 C   0  0  0  0  0  3  0  0  0  0  0  0
   15.4890   60.2980  -10.6930 C   0  0  0  0  0  3  0  0  0  0  0  0
   16.0580   61.5510  -10.9140 C   0  0  0  0  0  3  0  0  0  0  0  0
   17.6830   64.1020  -11.1420 C   0  0  0  0  0  2  0  0  0  0  0  0
   16.2560   64.4520  -10.6660 C   0  0  0  0  0  0  0  0  0  0  0  0
   15.4060   64.5630  -11.7170 N   0  0  0  0  0  0  0  0  0  0  0  0
   14.3760   64.8270  -10.7980 H   0  0  0  0  0  0  0  0  0  0  0  0
   16.1760   64.5600   -9.4440 O   0  0  0  0  0  0  0  0  0  0  0  0
   14.6310   64.6640  -12.6700 N   0  0  0  0  0  2  0  0  0  0  0  0
   13.9410   64.7050  -13.6290 C   0  0  0  0  0  2  0  0  0  0  0  0
   12.6660   65.2630  -13.9190 C   0  0  0  0  0  0  0  0  0  0  0  0
   11.5090   64.4810  -13.7910 C   0  0  0  0  0  3  0  0  0  0  0  0
   10.2370   64.9150  -14.0260 C   0  0  0  0  0  0  0  0  0  0  0  0
   10.0700   66.2620  -14.4300 C   0  0  0  0  0  0  0  0  0  0  0  0
   11.1800   67.0650  -14.5700 C   0  0  0  0  0  0  0  0  0  0  0  0
    8.7960   66.6930  -14.6590 O   0  0  0  0  0  1  0  0  0  0  0  0
   10.9880   68.8830  -15.0830 Br  0  0  0  0  0  0  0  0  0  0  0  0
   12.4420   66.5630  -14.3160 C   0  0  0  0  0  3  0  0  0  0  0  0
    9.1050   64.1340  -13.8910 O   0  0  0  0  0  0  0  0  0  0  0  0
    8.8880   62.9840  -14.6350 C   0  0  0  0  0  2  0  0  0  0  0  0
    8.6260   61.7280  -13.8530 C   0  0  0  0  0  1  0  0  0  0  0  0
   20.5630   63.3630   -9.7040 C   0  0  0  0  0  0  0  0  0  0  0  0
   20.8390   63.9190   -8.4570 N   0  0  0  0  0  0  0  0  0  0  0  0
   21.9970   64.4440   -8.4490 O   0  0  0  0  0  0  0  0  0  0  0  0
   22.5560   64.3060   -9.5840 N   0  0  0  0  0  0  0  0  0  0  0  0
   21.6840   63.6270  -10.4040 C   0  0  0  0  0  0  0  0  0  0  0  0
   22.0180   63.2920  -11.7330 N   0  0  0  0  0  4  0  0  0  0  0  0
   21.5030   63.9850  -12.3960 H   0  0  0  0  0  0  0  0  0  0  0  0
   21.6110   62.3820  -11.9810 H   0  0  0  0  0  0  0  0  0  0  0  0
   22.9960   63.4820  -11.9370 H   0  0  0  0  0  0  0  0  0  0  0  0
  1  2  1  0  0  0  0
  1  5  1  0  0  0  0
  2  3  1  0  0  0  0
  3  6  2  0  0  0  0
  3  4  1  0  0  0  0
  5 28  1  0  0  0  0
  5  4  2  0  0  0  0
  7  6  1  0  0  0  0
  8  7  2  0  0  0  0
  9  8  1  0  0  0  0
  9  2  2  0  0  0  0
 10 11  1  0  0  0  0
 10  1  1  0  0  0  0
 11 14  2  0  0  0  0
 12 13  1  0  0  0  0
 12 11  1  0  0  0  0
 15 12  1  0  0  0  0
 16 15  1  0  0  0  0
 17 18  1  0  0  0  0
 17 16  1  0  0  0  0
 19 25  1  0  0  0  0
 19 18  2  0  0  0  0
 20 19  1  0  0  0  0
 21 20  2  0  0  0  0
 21 24  1  0  0  0  0
 22 20  1  0  0  0  0
 23 21  1  0  0  0  0
 24 17  2  0  0  0  0
 26 25  1  0  0  0  0
 26 27  1  0  0  0  0
 28 29  2  0  0  0  0
 29 30  1  0  0  0  0
 31 30  1  0  0  0  0
 32 28  1  0  0  0  0
 32 31  2  0  0  0  0
 33 32  1  0  0  0  0
 34 33  1  0  0  0  0
 35 33  1  0  0  0  0
 36 33  1  0  0  0  0
M  END
>  <Pose>
1

>  <Score>
-8.382

$$$$
