/Users/jonathanwahrer/Desktop/Msc/3_Semester/Drug_Design_Praktikum/waehrer_HTS_screening/HTS_experiment/out/docking_results/vina_output/3sx0/0017_docked.pdbqt
 OpenBabel03192221223D

 38 41  0  0  0  0  0  0  0  0999 V2000
   12.4030   66.2950  -14.4070 C   0  0  0  0  0  0  0  0  0  0  0  0
   11.9350   67.4460  -13.9080 N   0  0  0  0  0  0  0  0  0  0  0  0
   10.8360   67.7840  -14.5390 N   0  0  0  0  0  0  0  0  0  0  0  0
   10.5310   66.8720  -15.4800 N   0  0  0  0  0  0  0  0  0  0  0  0
   11.4870   65.9420  -15.4160 C   0  0  0  0  0  0  0  0  0  0  0  0
   13.5920   65.5480  -14.0190 C   0  0  0  0  0  0  0  0  0  0  0  0
   13.6070   64.7080  -12.8820 N   0  0  0  0  0  0  0  0  0  0  0  0
   12.7190   64.6310  -12.3060 H   0  0  0  0  0  0  0  0  0  0  0  0
   14.6250   65.6520  -14.7090 O   0  0  0  0  0  0  0  0  0  0  0  0
   14.6900   63.9780  -12.4620 N   0  0  0  0  0  0  0  0  0  0  0  0
   15.1840   63.9840  -11.2790 C   0  0  0  0  0  3  0  0  0  0  0  0
   16.3380   63.1740  -10.9250 C   0  0  0  0  0  0  0  0  0  0  0  0
   17.6330   63.6670  -10.8890 C   0  0  0  0  0  3  0  0  0  0  0  0
   18.7060   62.8770  -10.5510 C   0  0  0  0  0  0  0  0  0  0  0  0
   18.4540   61.5600  -10.2420 C   0  0  0  0  0  0  0  0  0  0  0  0
   17.1690   61.0320  -10.2680 C   0  0  0  0  0  0  0  0  0  0  0  0
   16.8300   59.2060   -9.8390 Br  0  0  0  0  0  0  0  0  0  0  0  0
   16.1320   61.8490  -10.6090 C   0  0  0  0  0  3  0  0  0  0  0  0
   20.0030   63.3310  -10.5050 O   0  0  0  0  0  0  0  0  0  0  0  0
   20.5490   64.2080   -9.5750 C   0  0  0  0  0  2  0  0  0  0  0  0
   21.1840   63.5580   -8.3890 C   0  0  0  0  0  1  0  0  0  0  0  0
   19.5020   60.7130   -9.8920 O   0  0  0  0  0  0  0  0  0  0  0  0
   20.4570   60.9840  -10.0950 H   0  0  0  0  0  0  0  0  0  0  0  0
   11.6620   64.7400  -16.2340 C   0  0  0  0  0  2  0  0  0  0  0  0
   10.7290   63.6630  -16.0220 N   0  0  0  0  0  0  0  0  0  0  0  0
   11.3360   62.5100  -16.6990 C   0  0  0  0  0  2  0  0  0  0  0  0
   12.6530   62.0990  -16.1710 C   0  0  0  0  0  2  0  0  0  0  0  0
   12.7500   62.3330  -14.8090 O   0  0  0  0  0  0  0  0  0  0  0  0
   11.5020   62.1600  -14.2490 C   0  0  0  0  0  2  0  0  0  0  0  0
   10.6470   63.3650  -14.5900 C   0  0  0  0  0  2  0  0  0  0  0  0
    9.3930   66.9880  -16.3420 C   0  0  0  0  0  0  0  0  0  0  0  0
    8.6490   66.0170  -16.8930 N   0  0  0  0  0  0  0  0  0  0  0  0
    7.6960   66.5610  -17.6120 O   0  0  0  0  0  0  0  0  0  0  0  0
    7.7760   67.8690  -17.5630 N   0  0  0  0  0  0  0  0  0  0  0  0
    8.8270   68.1620  -16.7760 C   0  0  0  0  0  0  0  0  0  0  0  0
    9.2340   69.4890  -16.4770 N   0  0  0  0  0  0  0  0  0  0  0  0
    9.0640   70.3040  -17.1010 H   0  0  0  0  0  0  0  0  0  0  0  0
    9.7390   69.7070  -15.5810 H   0  0  0  0  0  0  0  0  0  0  0  0
  1  6  1  0  0  0  0
  1  2  1  0  0  0  0
  3  2  2  0  0  0  0
  4  5  1  0  0  0  0
  4  3  1  0  0  0  0
  5  1  2  0  0  0  0
  6  7  1  0  0  0  0
  7 10  1  0  0  0  0
  7  8  1  0  0  0  0
  9  6  2  0  0  0  0
 10 11  2  0  0  0  0
 11 12  1  0  0  0  0
 12 13  2  0  0  0  0
 12 18  1  0  0  0  0
 13 14  1  0  0  0  0
 14 19  1  0  0  0  0
 14 15  2  0  0  0  0
 15 22  1  0  0  0  0
 16 15  1  0  0  0  0
 16 17  1  0  0  0  0
 18 16  2  0  0  0  0
 19 20  1  0  0  0  0
 20 21  1  0  0  0  0
 23 22  1  0  0  0  0
 24 25  1  0  0  0  0
 24  5  1  0  0  0  0
 25 30  1  0  0  0  0
 26 27  1  0  0  0  0
 26 25  1  0  0  0  0
 27 28  1  0  0  0  0
 28 29  1  0  0  0  0
 30 29  1  0  0  0  0
 31  4  1  0  0  0  0
 32 31  2  0  0  0  0
 33 34  1  0  0  0  0
 33 32  1  0  0  0  0
 34 35  2  0  0  0  0
 35 36  1  0  0  0  0
 35 31  1  0  0  0  0
 36 38  1  0  0  0  0
 37 36  1  0  0  0  0
M  END
>  <Pose>
1

>  <Score>
-6.496

$$$$
