/Users/jonathanwahrer/Desktop/Msc/3_Semester/Drug_Design_Praktikum/waehrer_HTS_screening/HTS_experiment/out/docking_results/vina_output/3sx0/0018_docked.pdbqt
 OpenBabel03192221233D

 37 40  0  0  0  0  0  0  0  0999 V2000
   23.5320   63.3910   -7.7020 C   0  0  0  0  0  0  0  0  0  0  0  0
   24.3440   62.4110   -7.5140 N   0  0  0  0  0  0  0  0  0  0  0  0
   24.8460   62.4680   -6.2920 N   0  0  0  0  0  0  0  0  0  0  0  0
   24.3440   63.5290   -5.6750 N   0  0  0  0  0  0  0  0  0  0  0  0
   23.5160   64.2080   -6.4560 C   0  0  0  0  0  0  0  0  0  0  0  0
   22.4120   63.6540   -8.5770 C   0  0  0  0  0  0  0  0  0  0  0  0
   21.0920   63.1680   -8.2390 N   0  0  0  0  0  0  0  0  0  0  0  0
   20.6030   62.5420   -7.7530 H   0  0  0  0  0  0  0  0  0  0  0  0
   22.5750   64.3600   -9.5710 O   0  0  0  0  0  0  0  0  0  0  0  0
   20.1490   64.1740   -9.0420 N   0  0  0  0  0  2  0  0  0  0  0  0
   19.1580   63.2830   -9.2400 C   0  0  0  0  0  2  0  0  0  0  0  0
   17.9210   63.0770   -9.7810 C   0  0  0  0  0  0  0  0  0  0  0  0
   16.9770   64.0060  -10.1810 C   0  0  0  0  0  3  0  0  0  0  0  0
   15.7520   63.6870  -10.7200 C   0  0  0  0  0  0  0  0  0  0  0  0
   15.4460   62.3630  -10.8740 C   0  0  0  0  0  0  0  0  0  0  0  0
   16.3510   61.3970  -10.4900 C   0  0  0  0  0  0  0  0  0  0  0  0
   15.8690   59.5390  -10.6960 Br  0  0  0  0  0  0  0  0  0  0  0  0
   17.5350   61.6980   -9.9670 C   0  0  0  0  0  3  0  0  0  0  0  0
   14.8530   64.6970  -11.0830 O   0  0  0  0  0  0  0  0  0  0  0  0
   14.4480   64.8000  -12.4620 C   0  0  0  0  0  1  0  0  0  0  0  0
   14.2180   61.9800  -11.4210 O   0  0  0  0  0  0  0  0  0  0  0  0
   14.2250   61.4850  -12.3380 H   0  0  0  0  0  0  0  0  0  0  0  0
   22.6140   65.3080   -6.2710 C   0  0  0  0  0  2  0  0  0  0  0  0
   22.5950   66.3600   -7.2890 N   0  0  0  0  0  0  0  0  0  0  0  0
   23.3000   67.5300   -6.8760 C   0  0  0  0  0  2  0  0  0  0  0  0
   22.6580   68.2910   -5.7520 C   0  0  0  0  0  2  0  0  0  0  0  0
   21.5430   68.9620   -6.2240 O   0  0  0  0  0  0  0  0  0  0  0  0
   21.0370   68.3350   -7.3690 C   0  0  0  0  0  2  0  0  0  0  0  0
   21.1520   66.8550   -7.2220 C   0  0  0  0  0  2  0  0  0  0  0  0
   24.3740   63.6110   -4.2290 C   0  0  0  0  0  0  0  0  0  0  0  0
   23.5190   63.9090   -3.3430 N   0  0  0  0  0  0  0  0  0  0  0  0
   24.0340   63.8970   -2.1130 O   0  0  0  0  0  0  0  0  0  0  0  0
   25.2700   63.5740   -2.2430 N   0  0  0  0  0  0  0  0  0  0  0  0
   25.5920   63.3730   -3.5210 C   0  0  0  0  0  0  0  0  0  0  0  0
   26.8420   63.0270   -4.0600 N   0  0  0  0  0  0  0  0  0  0  0  0
   27.5970   62.5930   -3.5000 H   0  0  0  0  0  0  0  0  0  0  0  0
   27.0800   63.1840   -5.0980 H   0  0  0  0  0  0  0  0  0  0  0  0
  1  2  1  0  0  0  0
  1  5  2  0  0  0  0
  2  3  2  0  0  0  0
  3  4  1  0  0  0  0
  4 30  1  0  0  0  0
  5 23  1  0  0  0  0
  5  4  1  0  0  0  0
  6  7  1  0  0  0  0
  6  1  1  0  0  0  0
  7  8  1  0  0  0  0
  9  6  2  0  0  0  0
 10  7  1  0  0  0  0
 11 10  1  0  0  0  0
 12 11  1  0  0  0  0
 13 12  2  0  0  0  0
 14 13  1  0  0  0  0
 15 14  2  0  0  0  0
 15 16  1  0  0  0  0
 16 18  2  0  0  0  0
 17 16  1  0  0  0  0
 18 12  1  0  0  0  0
 19 14  1  0  0  0  0
 20 19  1  0  0  0  0
 21 15  1  0  0  0  0
 22 21  1  0  0  0  0
 24 29  1  0  0  0  0
 24 25  1  0  0  0  0
 24 23  1  0  0  0  0
 25 26  1  0  0  0  0
 27 26  1  0  0  0  0
 28 29  1  0  0  0  0
 28 27  1  0  0  0  0
 30 34  1  0  0  0  0
 30 31  2  0  0  0  0
 31 32  1  0  0  0  0
 33 32  1  0  0  0  0
 34 33  2  0  0  0  0
 35 34  1  0  0  0  0
 35 36  1  0  0  0  0
 37 35  1  0  0  0  0
M  END
>  <Pose>
1

>  <Score>
-7.512

$$$$
