/Users/jonathanwahrer/Desktop/Msc/3_Semester/Drug_Design_Praktikum/waehrer_HTS_screening/HTS_experiment/out/docking_results/vina_output/3sx0/0020_docked.pdbqt
 OpenBabel03192221233D

 34 37  0  0  0  0  0  0  0  0999 V2000
   23.0700   63.5660   -8.2080 C   0  0  0  0  0  0  0  0  0  0  0  0
   22.6600   64.7960   -7.9650 N   0  0  0  0  0  4  0  0  0  0  0  0
   22.8440   65.3680   -6.7410 C   0  0  0  0  0  0  0  0  0  0  0  0
   23.4660   64.5980   -5.8180 N   0  0  0  0  0  0  0  0  0  0  0  0
   23.9040   63.3390   -6.0070 C   0  0  0  0  0  0  0  0  0  0  0  0
   23.6850   62.8320   -7.2420 N   0  0  0  0  0  2  0  0  0  0  0  0
   23.1030   62.9470   -9.5540 N   0  0  0  0  0  0  0  0  0  0  0  0
   23.8880   62.3510   -9.7330 H   0  0  0  0  0  0  0  0  0  0  0  0
   22.0520   63.3140  -10.2420 N   0  0  0  0  0  2  0  0  0  0  0  0
   21.1080   63.6380  -10.8340 C   0  0  0  0  0  2  0  0  0  0  0  0
   19.6990   63.2180  -10.6860 C   0  0  0  0  0  0  0  0  0  0  0  0
   18.6310   63.8620  -11.2400 C   0  0  0  0  0  3  0  0  0  0  0  0
   17.3690   63.2860  -11.2380 C   0  0  0  0  0  0  0  0  0  0  0  0
   17.1720   62.0330  -10.6600 C   0  0  0  0  0  0  0  0  0  0  0  0
   18.2330   61.3820  -10.0940 C   0  0  0  0  0  0  0  0  0  0  0  0
   17.9710   59.6470   -9.3180 Br  0  0  0  0  0  0  0  0  0  0  0  0
   19.4720   61.9840  -10.1190 C   0  0  0  0  0  3  0  0  0  0  0  0
   16.2590   63.8640  -11.7710 O   0  0  0  0  0  0  0  0  0  0  0  0
   15.2340   64.5520  -11.1460 C   0  0  0  0  0  2  0  0  0  0  0  0
   15.6530   65.1550   -9.8130 C   0  0  0  0  0  1  0  0  0  0  0  0
   15.9390   61.4180  -10.6390 O   0  0  0  0  0  0  0  0  0  0  0  0
   15.2940   61.4880   -9.8880 H   0  0  0  0  0  0  0  0  0  0  0  0
   22.4980   66.7120   -6.4660 N   0  0  0  0  0  0  0  0  0  0  0  0
   21.1010   67.1490   -6.6260 C   0  0  0  0  0  2  0  0  0  0  0  0
   21.1900   68.4830   -7.4110 C   0  0  0  0  0  2  0  0  0  0  0  0
   21.7780   69.3530   -6.5380 O   0  0  0  0  0  0  0  0  0  0  0  0
   23.0970   69.0890   -6.2940 C   0  0  0  0  0  2  0  0  0  0  0  0
   23.4690   67.6600   -6.0730 C   0  0  0  0  0  2  0  0  0  0  0  0
   24.6640   62.6680   -5.0650 N   0  0  0  0  0  0  0  0  0  0  0  0
   24.3580   62.3250   -3.7300 C   0  0  0  0  0  2  0  0  0  0  0  0
   25.3790   63.0500   -2.8480 C   0  0  0  0  0  2  0  0  0  0  0  0
   26.6360   62.6910   -3.2830 O   0  0  0  0  0  0  0  0  0  0  0  0
   26.9380   63.0370   -4.5800 C   0  0  0  0  0  2  0  0  0  0  0  0
   26.0120   62.2340   -5.5390 C   0  0  0  0  0  2  0  0  0  0  0  0
  1  2  2  0  0  0  0
  1  6  1  0  0  0  0
  2  3  2  0  0  0  0
  3 23  1  0  0  0  0
  3  4  1  0  0  0  0
  5  4  2  0  0  0  0
  5 29  1  0  0  0  0
  6  5  1  0  0  0  0
  7  1  1  0  0  0  0
  8  7  1  0  0  0  0
  9  7  1  0  0  0  0
 10 11  1  0  0  0  0
 10  9  1  0  0  0  0
 11 17  1  0  0  0  0
 12 13  1  0  0  0  0
 12 11  2  0  0  0  0
 13 14  2  0  0  0  0
 14 21  1  0  0  0  0
 14 15  1  0  0  0  0
 15 16  1  0  0  0  0
 17 15  2  0  0  0  0
 18 13  1  0  0  0  0
 18 19  1  0  0  0  0
 19 20  1  0  0  0  0
 21 22  1  0  0  0  0
 23 28  1  0  0  0  0
 24 23  1  0  0  0  0
 25 24  1  0  0  0  0
 25 26  1  0  0  0  0
 26 27  1  0  0  0  0
 27 28  1  0  0  0  0
 29 30  1  0  0  0  0
 30 31  1  0  0  0  0
 32 31  1  0  0  0  0
 33 32  1  0  0  0  0
 34 29  1  0  0  0  0
 34 33  1  0  0  0  0
M  END
>  <Pose>
1

>  <Score>
-8.198

$$$$
