/Users/jonathanwahrer/Desktop/Msc/3_Semester/Drug_Design_Praktikum/waehrer_HTS_screening/HTS_experiment/out/docking_results/vina_output/3sx0/0026_docked.pdbqt
 OpenBabel03192221243D

 29 32  0  0  1  0  0  0  0  0999 V2000
   20.1250   62.5060   -9.0250 C   0  0  2  0  0  3  0  0  0  0  0  0
   20.2810   63.3010   -7.8790 N   0  0  0  0  0  4  0  0  0  0  0  0
   21.4490   64.0830   -7.7240 C   0  0  1  0  0  3  0  0  0  0  0  0
   22.6310   63.6510   -8.5490 C   0  0  0  0  0  2  0  0  0  0  0  0
   22.2480   63.3390   -9.9470 C   0  0  0  0  0  0  0  0  0  0  0  0
   22.8990   63.5000  -11.1400 C   0  0  0  0  0  0  0  0  0  0  0  0
   22.0200   63.0190  -12.0950 C   0  0  0  0  0  0  0  0  0  0  0  0
   20.8870   62.5880  -11.4780 N   0  0  0  0  0  0  0  0  0  0  0  0
   21.0240   62.7830  -10.1600 C   0  0  0  0  0  0  0  0  0  0  0  0
   22.4400   63.0670  -13.4070 C   0  0  0  0  0  3  0  0  0  0  0  0
   23.6760   63.5700  -13.7550 C   0  0  0  0  0  3  0  0  0  0  0  0
   24.5500   64.0500  -12.8020 C   0  0  0  0  0  3  0  0  0  0  0  0
   24.1450   64.0090  -11.4780 C   0  0  0  0  0  3  0  0  0  0  0  0
   19.4430   63.9310   -7.7180 H   0  0  0  0  0  0  0  0  0  0  0  0
   20.2190   62.6550   -7.0270 H   0  0  0  0  0  0  0  0  0  0  0  0
   20.0960   62.1860  -12.0260 H   0  0  0  0  0  0  0  0  0  0  0  0
   18.7350   62.6520   -9.5400 C   0  0  0  0  0  0  0  0  0  0  0  0
   18.1240   63.8800   -9.6770 C   0  0  0  0  0  3  0  0  0  0  0  0
   16.8340   63.8910  -10.1600 C   0  0  0  0  0  0  0  0  0  0  0  0
   16.1350   62.7550  -10.5080 C   0  0  0  0  0  0  0  0  0  0  0  0
   15.9610   65.5740  -10.3610 Br  0  0  0  0  0  0  0  0  0  0  0  0
   16.7500   61.5340  -10.3700 C   0  0  0  0  0  0  0  0  0  0  0  0
   15.8210   59.9430  -10.8390 Br  0  0  0  0  0  0  0  0  0  0  0  0
   18.0600   61.5000   -9.8810 C   0  0  0  0  0  3  0  0  0  0  0  0
   14.8160   62.8510  -10.9950 O   0  0  0  0  0  0  0  0  0  0  0  0
   14.3380   61.9930  -11.2300 H   0  0  0  0  0  0  0  0  0  0  0  0
   21.2190   65.5260   -8.0070 C   0  0  0  0  0  0  0  0  0  0  0  0
   20.7290   65.8720   -9.1370 O   0  0  0  0  0  0  0  0  0  0  0  0
   21.5400   66.4740   -7.0490 O   0  0  0  0  0  1  0  0  0  0  0  0
  1 17  1  6  0  0  0
  1  2  1  0  0  0  0
  2  3  1  0  0  0  0
  2 14  1  0  0  0  0
  2 15  1  0  0  0  0
  3 27  1  6  0  0  0
  4  3  1  0  0  0  0
  5  4  1  0  0  0  0
  6  5  1  0  0  0  0
  7  8  1  0  0  0  0
  7  6  2  0  0  0  0
  8  9  1  0  0  0  0
  9  5  2  0  0  0  0
  9  1  1  0  0  0  0
 10  7  1  0  0  0  0
 11 10  2  0  0  0  0
 11 12  1  0  0  0  0
 12 13  2  0  0  0  0
 13  6  1  0  0  0  0
 16  8  1  0  0  0  0
 18 17  1  0  0  0  0
 19 18  2  0  0  0  0
 20 22  2  0  0  0  0
 20 19  1  0  0  0  0
 21 19  1  0  0  0  0
 22 24  1  0  0  0  0
 23 22  1  0  0  0  0
 24 17  2  0  0  0  0
 25 20  1  0  0  0  0
 26 25  1  0  0  0  0
 27 29  1  0  0  0  0
 28 27  2  0  0  0  0
M  END
>  <Pose>
1

>  <Score>
-6.544

$$$$
