/Users/jonathanwahrer/Desktop/Msc/3_Semester/Drug_Design_Praktikum/waehrer_HTS_screening/HTS_experiment/out/docking_results/vina_output/3sx0/0031_docked.pdbqt
 OpenBabel03192221243D

 24 27  0  0  1  0  0  0  0  0999 V2000
   23.3850   64.1690   -4.6400 Br  0  0  0  0  0  0  0  0  0  0  0  0
   23.3170   63.9060   -6.5410 C   0  0  0  0  0  0  0  0  0  0  0  0
   22.3800   64.5120   -7.3000 C   0  0  0  0  0  0  0  0  0  0  0  0
   22.3010   64.2590   -8.7000 C   0  0  0  0  0  0  0  0  0  0  0  0
   23.1880   63.3880   -9.2320 C   0  0  0  0  0  3  0  0  0  0  0  0
   24.1310   62.7690   -8.4360 C   0  0  0  0  0  3  0  0  0  0  0  0
   24.2100   63.0170   -7.1000 C   0  0  0  0  0  3  0  0  0  0  0  0
   21.0100   64.6650   -9.2900 C   0  0  0  0  0  2  0  0  0  0  0  0
   20.1070   63.7210   -9.8060 N   0  0  2  0  0  4  0  0  0  0  0  0
   19.9870   62.4550   -9.2800 C   0  0  0  0  0  2  0  0  0  0  0  0
   18.8930   61.7050   -9.8930 N   0  0  2  0  0  0  0  0  0  0  0  0
   19.1560   61.6350  -11.3210 C   0  0  0  0  0  2  0  0  0  0  0  0
   17.6050   62.3340   -9.7320 C   0  0  0  0  0  2  0  0  0  0  0  0
   19.3260   62.9470  -11.9090 N   0  0  2  0  0  0  0  0  0  0  0  0
   20.3300   63.7200  -11.2930 C   0  0  0  0  0  2  0  0  0  0  0  0
   18.0540   63.6360  -11.8400 C   0  0  0  0  0  2  0  0  0  0  0  0
   17.6940   63.7140  -10.3780 C   0  0  2  0  0  3  0  0  0  0  0  0
   18.7890   64.4350   -9.6820 C   0  0  0  0  0  2  0  0  0  0  0  0
   21.4930   65.3740   -6.7610 O   0  0  0  0  0  0  0  0  0  0  0  0
   21.4540   66.7820   -7.0690 C   0  0  0  0  0  2  0  0  0  0  0  0
   22.4390   67.6380   -6.4140 C   0  0  0  0  0  0  0  0  0  0  0  0
   23.6000   67.3300   -6.1840 O   0  0  0  0  0  0  0  0  0  0  0  0
   22.0290   68.9260   -6.0500 O   0  0  0  0  0  0  0  0  0  0  0  0
   22.9200   69.9970   -5.8920 C   0  0  0  0  0  1  0  0  0  0  0  0
  2  1  1  0  0  0  0
  3 19  1  0  0  0  0
  3  2  2  0  0  0  0
  4  3  1  0  0  0  0
  5  4  2  0  0  0  0
  5  6  1  0  0  0  0
  6  7  2  0  0  0  0
  7  2  1  0  0  0  0
  8  4  1  0  0  0  0
  9 18  1  0  0  0  0
  9  8  1  1  0  0  0
  9 10  1  0  0  0  0
 11 12  1  6  0  0  0
 11 13  1  0  0  0  0
 11 10  1  0  0  0  0
 14 16  1  1  0  0  0
 14 12  1  0  0  0  0
 14 15  1  0  0  0  0
 15  9  1  0  0  0  0
 17 16  1  6  0  0  0
 17 13  1  0  0  0  0
 17 18  1  0  0  0  0
 20 19  1  0  0  0  0
 20 21  1  0  0  0  0
 21 22  2  0  0  0  0
 21 23  1  0  0  0  0
 23 24  1  0  0  0  0
M  END
>  <Pose>
1

>  <Score>
-5.508

$$$$
