/Users/jonathanwahrer/Desktop/Msc/3_Semester/Drug_Design_Praktikum/waehrer_HTS_screening/HTS_experiment/out/docking_results/vina_output/3sx0/0037_docked.pdbqt
 OpenBabel03192221253D

 27 30  0  0  1  0  0  0  0  0999 V2000
   19.8900   63.4490  -10.1280 N   0  0  0  0  0  0  0  0  0  0  0  0
   20.3810   63.9620   -8.8700 C   0  0  0  0  0  2  0  0  0  0  0  0
   21.7790   63.3840   -8.8240 C   0  0  1  0  0  3  0  0  0  0  0  0
   22.2600   63.6650  -10.2370 C   0  0  0  0  0  2  0  0  0  0  0  0
   21.0130   63.3510  -10.9850 C   0  0  0  0  0  0  0  0  0  0  0  0
   20.9760   63.0470  -12.1960 O   0  0  0  0  0  0  0  0  0  0  0  0
   22.6240   64.0500   -7.8110 C   0  0  0  0  0  0  0  0  0  0  0  0
   23.7710   64.4720   -8.0960 O   0  0  0  0  0  0  0  0  0  0  0  0
   22.1240   64.2100   -6.5020 N   0  0  0  0  0  0  0  0  0  0  0  0
   21.1800   63.8640   -6.2580 H   0  0  0  0  0  0  0  0  0  0  0  0
   22.9140   64.8570   -5.4830 C   0  0  0  0  0  2  0  0  0  0  0  0
   23.4280   63.8700   -4.4920 C   0  0  0  0  0  0  0  0  0  0  0  0
   24.6010   63.1890   -4.5300 N   0  0  0  0  0  0  0  0  0  0  0  0
   24.6930   62.3980   -3.4480 C   0  0  0  0  0  0  0  0  0  0  0  0
   25.7690   63.0630   -5.3830 C   0  0  0  0  0  2  0  0  0  0  0  0
   23.5480   62.6120   -2.7500 N   0  0  0  0  0  0  0  0  0  0  0  0
   25.9800   61.6290   -3.4570 C   0  0  0  0  0  2  0  0  0  0  0  0
   22.7900   63.4920   -3.3730 N   0  0  0  0  0  0  0  0  0  0  0  0
   26.4460   61.8030   -4.8850 C   0  0  0  0  0  2  0  0  0  0  0  0
   18.5280   63.1340  -10.3790 C   0  0  0  0  0  0  0  0  0  0  0  0
   18.0080   61.8580  -10.3380 C   0  0  0  0  0  3  0  0  0  0  0  0
   16.7000   61.5370  -10.5750 C   0  0  0  0  0  0  0  0  0  0  0  0
   15.8310   62.5770  -10.8810 C   0  0  0  0  0  0  0  0  0  0  0  0
   16.1730   60.1460  -10.5200 C   0  0  0  0  0  1  0  0  0  0  0  0
   14.0010   62.1650  -11.2200 Br  0  0  0  0  0  0  0  0  0  0  0  0
   16.2900   63.8770  -10.9380 C   0  0  0  0  0  3  0  0  0  0  0  0
   17.6210   64.1500  -10.6900 C   0  0  0  0  0  3  0  0  0  0  0  0
  1  2  1  0  0  0  0
  2  3  1  0  0  0  0
  3  7  1  1  0  0  0
  4  3  1  0  0  0  0
  5  4  1  0  0  0  0
  5  1  1  0  0  0  0
  6  5  2  0  0  0  0
  7  9  1  0  0  0  0
  8  7  2  0  0  0  0
  9 10  1  0  0  0  0
  9 11  1  0  0  0  0
 11 12  1  0  0  0  0
 12 18  2  0  0  0  0
 13 12  1  0  0  0  0
 13 14  1  0  0  0  0
 14 16  2  0  0  0  0
 15 19  1  0  0  0  0
 15 13  1  0  0  0  0
 17 14  1  0  0  0  0
 18 16  1  0  0  0  0
 19 17  1  0  0  0  0
 20 21  1  0  0  0  0
 20  1  1  0  0  0  0
 22 24  1  0  0  0  0
 22 21  2  0  0  0  0
 23 22  1  0  0  0  0
 25 23  1  0  0  0  0
 26 23  2  0  0  0  0
 26 27  1  0  0  0  0
 27 20  2  0  0  0  0
M  END
>  <Pose>
1

>  <Score>
-10.059

$$$$
