/Users/jonathanwahrer/Desktop/Msc/3_Semester/Drug_Design_Praktikum/waehrer_HTS_screening/HTS_experiment/out/docking_results/vina_output/3sx0/0039_docked.pdbqt
 OpenBabel03192221253D

 21 23  0  0  1  0  0  0  0  0999 V2000
   18.8400   63.0870   -9.2850 N   0  0  0  0  0  0  0  0  0  0  0  0
   20.1040   63.3330   -9.8240 C   0  0  0  0  0  0  0  0  0  0  0  0
   20.2420   63.7920  -10.9670 O   0  0  0  0  0  0  0  0  0  0  0  0
   18.8250   62.6940   -8.2970 H   0  0  0  0  0  0  0  0  0  0  0  0
   21.2980   63.0370   -9.0080 C   0  0  0  0  0  2  0  0  0  0  0  0
   21.6560   64.0250   -8.0430 N   0  0  1  0  0  4  0  0  0  0  0  0
   23.0690   63.8120   -7.6940 C   0  0  0  0  0  2  0  0  0  0  0  0
   23.6040   65.1260   -7.1820 C   0  0  0  0  0  2  0  0  0  0  0  0
   22.5300   65.7110   -6.3780 N   0  0  1  0  0  0  0  0  0  0  0  0
   21.6200   66.3310   -7.3360 C   0  0  0  0  0  2  0  0  0  0  0  0
   21.7880   64.6430   -5.7260 C   0  0  0  0  0  2  0  0  0  0  0  0
   21.4830   65.3930   -8.5260 C   0  0  0  0  0  2  0  0  0  0  0  0
   20.9380   63.9280   -6.7890 C   0  0  0  0  0  2  0  0  0  0  0  0
   17.5740   63.2930   -9.8790 C   0  0  0  0  0  0  0  0  0  0  0  0
   16.8180   62.2050  -10.3370 C   0  0  0  0  0  0  0  0  0  0  0  0
   17.6110   60.4690  -10.1040 Br  0  0  0  0  0  0  0  0  0  0  0  0
   15.5830   62.3420  -10.9220 C   0  0  0  0  0  3  0  0  0  0  0  0
   15.0030   63.5760  -11.0960 C   0  0  0  0  0  0  0  0  0  0  0  0
   15.7250   64.6580  -10.6550 C   0  0  0  0  0  3  0  0  0  0  0  0
   13.6600   63.7370  -11.7310 C   0  0  0  0  0  1  0  0  0  0  0  0
   16.9820   64.5250  -10.0600 C   0  0  0  0  0  3  0  0  0  0  0  0
  1  4  1  0  0  0  0
  2  1  1  0  0  0  0
  2  5  1  0  0  0  0
  3  2  2  0  0  0  0
  6  5  1  6  0  0  0
  6  7  1  0  0  0  0
  6 13  1  0  0  0  0
  7  8  1  0  0  0  0
  8  9  1  0  0  0  0
  9 10  1  6  0  0  0
  9 11  1  0  0  0  0
 12  6  1  0  0  0  0
 12 10  1  0  0  0  0
 13 11  1  0  0  0  0
 14  1  1  0  0  0  0
 15 16  1  0  0  0  0
 15 14  2  0  0  0  0
 17 15  1  0  0  0  0
 18 17  2  0  0  0  0
 18 19  1  0  0  0  0
 19 21  2  0  0  0  0
 20 18  1  0  0  0  0
 21 14  1  0  0  0  0
M  END
>  <Pose>
1

>  <Score>
-7.153

$$$$
