/Users/jonathanwahrer/Desktop/Msc/3_Semester/Drug_Design_Praktikum/waehrer_HTS_screening/HTS_experiment/out/docking_results/vina_output/3sx0/0056_docked.pdbqt
 OpenBabel03192221253D

 24 27  0  0  1  0  0  0  0  0999 V2000
   19.3460   63.7190   -8.5260 C   0  0  1  0  0  3  0  0  0  0  0  0
   20.7320   63.7210   -8.3590 C   0  0  1  0  0  0  0  0  0  0  0  0
   21.9420   63.7860   -9.2230 C   0  0  0  0  0  0  0  0  0  0  0  0
   22.1020   65.2560   -9.0830 N   0  0  0  0  0  2  0  0  0  0  0  0
   20.9200   65.7880   -9.1190 C   0  0  1  0  0  3  0  0  0  0  0  0
   19.9810   64.7240   -9.2880 C   0  0  2  0  0  0  0  0  0  0  0  0
   19.9290   64.4000  -10.7450 C   0  0  0  0  0  0  0  0  0  0  0  0
   19.8620   64.1450  -11.8990 N   0  0  0  0  0  0  0  0  0  0  0  0
   22.9900   63.1470   -8.5520 O   0  0  0  0  0  0  0  0  0  0  0  0
   23.5500   62.2490   -9.4400 C   0  0  0  0  0  2  0  0  0  0  0  0
   23.1880   62.8540  -10.7850 C   0  0  0  0  0  2  0  0  0  0  0  0
   21.8890   63.3280  -10.4780 O   0  0  0  0  0  0  0  0  0  0  0  0
   21.1450   64.2850   -7.0240 C   0  0  0  0  0  0  0  0  0  0  0  0
   21.4490   64.7330   -5.9740 N   0  0  0  0  0  0  0  0  0  0  0  0
   18.7400   62.5110   -9.1450 C   0  0  0  0  0  0  0  0  0  0  0  0
   17.5430   62.5560   -9.8140 C   0  0  0  0  0  0  0  0  0  0  0  0
   16.5660   64.1820  -10.0180 Br  0  0  0  0  0  0  0  0  0  0  0  0
   17.0420   61.3810  -10.3570 C   0  0  0  0  0  3  0  0  0  0  0  0
   17.7260   60.1660  -10.2380 C   0  0  0  0  0  3  0  0  0  0  0  0
   18.9230   60.1440   -9.5640 C   0  0  0  0  0  3  0  0  0  0  0  0
   19.4200   61.3220   -9.0230 C   0  0  0  0  0  3  0  0  0  0  0  0
   20.6280   67.1990   -9.0060 N   0  0  0  0  0  0  0  0  0  0  0  0
   20.9660   67.8750   -9.7170 H   0  0  0  0  0  0  0  0  0  0  0  0
   20.0720   67.5630   -8.2100 H   0  0  0  0  0  0  0  0  0  0  0  0
  1 15  1  6  0  0  0
  1  2  1  0  0  0  0
  2 13  1  1  0  0  0
  3  4  1  0  0  0  0
  3  9  1  0  0  0  0
  3  2  1  0  0  0  0
  5  4  1  0  0  0  0
  5 22  1  1  0  0  0
  6  7  1  6  0  0  0
  6  5  1  0  0  0  0
  6  1  1  0  0  0  0
  6  2  1  0  0  0  0
  8  7  3  0  0  0  0
 10  9  1  0  0  0  0
 11 12  1  0  0  0  0
 11 10  1  0  0  0  0
 12  3  1  0  0  0  0
 13 14  3  0  0  0  0
 15 21  1  0  0  0  0
 16 15  2  0  0  0  0
 17 16  1  0  0  0  0
 18 19  2  0  0  0  0
 18 16  1  0  0  0  0
 19 20  1  0  0  0  0
 20 21  2  0  0  0  0
 22 24  1  0  0  0  0
 23 22  1  0  0  0  0
M  END
>  <Pose>
1

>  <Score>
-1.518

$$$$
