/Users/jonathanwahrer/Desktop/Msc/3_Semester/Drug_Design_Praktikum/waehrer_HTS_screening/HTS_experiment/out/docking_results/vina_output/3sx0/0064_docked.pdbqt
 OpenBabel03192221253D

 22 25  0  0  1  0  0  0  0  0999 V2000
   18.7570   62.9990  -10.1470 N   0  0  0  0  0  0  0  0  0  0  0  0
   19.4610   62.8040   -8.9300 C   0  0  0  0  0  0  0  0  0  0  0  0
   18.9240   62.7570   -7.8100 O   0  0  0  0  0  0  0  0  0  0  0  0
   20.9150   62.6660   -9.1720 C   0  0  2  0  0  3  0  0  0  0  0  0
   21.7180   63.7720   -8.5800 C   0  0  1  0  0  0  0  0  0  0  0  0
   22.5170   64.2660   -9.6450 O   0  0  0  0  0  0  0  0  0  0  0  0
   21.4510   64.4650  -10.5600 C   0  0  1  0  0  3  0  0  0  0  0  0
   21.0270   62.9960  -10.6710 C   0  0  2  0  0  3  0  0  0  0  0  0
   19.6760   62.8610  -11.2360 C   0  0  0  0  0  0  0  0  0  0  0  0
   19.3500   62.6640  -12.4260 O   0  0  0  0  0  0  0  0  0  0  0  0
   20.5170   65.2460   -9.7210 C   0  0  0  0  0  2  0  0  0  0  0  0
   20.8070   64.9510   -8.4550 C   0  0  0  0  0  2  0  0  0  0  0  0
   17.3830   63.2920  -10.3510 C   0  0  0  0  0  0  0  0  0  0  0  0
   16.4120   62.3320  -10.5190 C   0  0  0  0  0  0  0  0  0  0  0  0
   16.9830   60.4920  -10.4670 Br  0  0  0  0  0  0  0  0  0  0  0  0
   15.0850   62.6430  -10.7180 C   0  0  0  0  0  3  0  0  0  0  0  0
   14.6620   63.9440  -10.7600 C   0  0  0  0  0  3  0  0  0  0  0  0
   15.6160   64.9410  -10.5950 C   0  0  0  0  0  3  0  0  0  0  0  0
   16.9430   64.6110  -10.3960 C   0  0  0  0  0  3  0  0  0  0  0  0
   22.4960   63.4770   -7.3680 C   0  0  0  0  0  2  0  0  0  0  0  0
   23.3420   62.3870   -7.6460 O   0  0  0  0  0  0  0  0  0  0  0  0
   23.3440   61.7620   -6.8630 H   0  0  0  0  0  0  0  0  0  0  0  0
  1  2  1  0  0  0  0
  2  3  2  0  0  0  0
  4  2  1  1  0  0  0
  4  5  1  0  0  0  0
  5 12  1  0  0  0  0
  5 20  1  1  0  0  0
  6  5  1  0  0  0  0
  7 11  1  1  0  0  0
  7  6  1  0  0  0  0
  8  9  1  6  0  0  0
  8  7  1  0  0  0  0
  8  4  1  0  0  0  0
  9  1  1  0  0  0  0
 10  9  2  0  0  0  0
 11 12  1  0  0  0  0
 13  1  1  0  0  0  0
 14 15  1  0  0  0  0
 14 13  2  0  0  0  0
 16 14  1  0  0  0  0
 17 16  2  0  0  0  0
 17 18  1  0  0  0  0
 18 19  2  0  0  0  0
 19 13  1  0  0  0  0
 21 20  1  0  0  0  0
 21 22  1  0  0  0  0
M  END
>  <Pose>
1

>  <Score>
-6.742

$$$$
