/Users/jonathanwahrer/Desktop/Msc/3_Semester/Drug_Design_Praktikum/waehrer_HTS_screening/HTS_experiment/out/docking_results/vina_output/3sx0/0067_docked.pdbqt
 OpenBabel03192221253D

 22 25  0  0  1  0  0  0  0  0999 V2000
   18.0660   62.3540   -9.6270 N   0  0  0  0  0  0  0  0  0  0  0  0
   18.3810   63.2190   -8.4750 C   0  0  0  0  0  2  0  0  0  0  0  0
   19.7690   63.5710   -8.7440 C   0  0  2  0  0  0  0  0  0  0  0  0
   19.9730   64.6660   -9.6000 O   0  0  0  0  0  0  0  0  0  0  0  0
   21.3790   64.4980   -9.7170 C   0  0  2  0  0  3  0  0  0  0  0  0
   21.3580   63.1220  -10.3960 C   0  0  1  0  0  3  0  0  0  0  0  0
   20.4270   62.3910   -9.4790 C   0  0  2  0  0  3  0  0  0  0  0  0
   19.2710   61.7550  -10.0880 C   0  0  0  0  0  0  0  0  0  0  0  0
   19.3060   60.8110  -10.9050 O   0  0  0  0  0  0  0  0  0  0  0  0
   21.7620   64.4020   -8.2780 C   0  0  0  0  0  2  0  0  0  0  0  0
   20.6670   63.9220   -7.6470 C   0  0  0  0  0  2  0  0  0  0  0  0
   16.7910   62.1330  -10.2110 C   0  0  0  0  0  0  0  0  0  0  0  0
   15.9510   63.1700  -10.5780 C   0  0  0  0  0  0  0  0  0  0  0  0
   16.4360   64.9740  -10.3290 Br  0  0  0  0  0  0  0  0  0  0  0  0
   14.7030   62.9160  -11.1510 C   0  0  0  0  0  3  0  0  0  0  0  0
   14.2680   61.6360  -11.3700 C   0  0  0  0  0  3  0  0  0  0  0  0
   15.0780   60.6040  -11.0170 C   0  0  0  0  0  3  0  0  0  0  0  0
   16.3040   60.8540  -10.4550 C   0  0  0  0  0  3  0  0  0  0  0  0
   20.7010   63.3590  -11.7210 C   0  0  0  0  0  0  0  0  0  0  0  0
   19.5570   63.8210  -11.8320 O   0  0  0  0  0  0  0  0  0  0  0  0
   21.4080   63.0440  -12.8740 O   0  0  0  0  0  0  0  0  0  0  0  0
   22.8400   63.0830  -12.8310 C   0  0  0  0  0  1  0  0  0  0  0  0
  1  2  1  0  0  0  0
  3  2  1  1  0  0  0
  3 11  1  0  0  0  0
  4  3  1  0  0  0  0
  5  4  1  0  0  0  0
  5 10  1  1  0  0  0
  6 19  1  6  0  0  0
  6  5  1  0  0  0  0
  6  7  1  0  0  0  0
  7  8  1  6  0  0  0
  7  3  1  0  0  0  0
  8  1  1  0  0  0  0
  9  8  2  0  0  0  0
 10 11  1  0  0  0  0
 12  1  1  0  0  0  0
 13 14  1  0  0  0  0
 13 12  2  0  0  0  0
 15 13  1  0  0  0  0
 16 15  2  0  0  0  0
 16 17  1  0  0  0  0
 17 18  2  0  0  0  0
 18 12  1  0  0  0  0
 20 19  2  0  0  0  0
 21 22  1  0  0  0  0
 21 19  1  0  0  0  0
M  END
>  <Pose>
1

>  <Score>
-6.251

$$$$
