/Users/jonathanwahrer/Desktop/Msc/3_Semester/Drug_Design_Praktikum/waehrer_HTS_screening/HTS_experiment/out/docking_results/vina_output/3sx0/0085_docked.pdbqt
 OpenBabel03192221253D

 26 29  0  0  0  0  0  0  0  0999 V2000
   14.5800   63.9170  -11.7950 C   0  0  0  0  0  0  0  0  0  0  0  0
   14.9070   62.6380  -11.3000 C   0  0  0  0  0  0  0  0  0  0  0  0
   14.1460   61.5190  -11.1630 N   0  0  0  0  0  0  0  0  0  0  0  0
   14.9090   60.5980  -10.6580 O   0  0  0  0  0  0  0  0  0  0  0  0
   16.1070   61.0540  -10.4620 N   0  0  0  0  0  0  0  0  0  0  0  0
   16.1640   62.3350  -10.8480 C   0  0  0  0  0  0  0  0  0  0  0  0
   17.1910   63.2570  -10.8480 C   0  0  0  0  0  0  0  0  0  0  0  0
   16.8670   64.5100  -11.3330 C   0  0  0  0  0  3  0  0  0  0  0  0
   15.5910   64.8290  -11.7950 C   0  0  0  0  0  3  0  0  0  0  0  0
   13.2460   64.1150  -12.2350 N   0  0  0  0  0  0  0  0  0  0  0  0
   12.8590   64.3780  -13.5460 C   0  0  0  0  0  0  0  0  0  0  0  0
   13.7480   64.4520  -14.4740 O   0  0  0  0  0  0  0  0  0  0  0  0
   12.4510   64.0520  -11.5300 H   0  0  0  0  0  0  0  0  0  0  0  0
   11.4570   64.5840  -13.9650 C   0  0  0  0  0  0  0  0  0  0  0  0
   10.7770   65.7460  -14.1360 C   0  0  0  0  0  0  0  0  0  0  0  0
   11.3950   67.5430  -13.9480 Br  0  0  0  0  0  0  0  0  0  0  0  0
    9.4660   65.3970  -14.5160 C   0  0  0  0  0  3  0  0  0  0  0  0
    9.4490   64.0690  -14.5460 N   0  0  0  0  0  0  0  0  0  0  0  0
   10.6000   63.5390  -14.2300 N   0  0  0  0  0  0  0  0  0  0  0  0
   10.9160   62.1360  -14.1660 C   0  0  0  0  0  1  0  0  0  0  0  0
   18.4870   62.9620  -10.3870 N   0  0  0  0  0  0  0  0  0  0  0  0
   18.8080   63.2440   -8.9900 C   0  0  0  0  0  2  0  0  0  0  0  0
   20.2700   63.0360   -8.7040 C   0  0  0  0  0  2  0  0  0  0  0  0
   21.1300   63.4410   -9.6710 O   0  0  0  0  0  0  0  0  0  0  0  0
   20.7210   63.3910  -10.9710 C   0  0  0  0  0  2  0  0  0  0  0  0
   19.5850   62.4000  -11.1140 C   0  0  0  0  0  2  0  0  0  0  0  0
  1  2  1  0  0  0  0
  2  3  2  0  0  0  0
  2  6  1  0  0  0  0
  3  4  1  0  0  0  0
  4  5  1  0  0  0  0
  6  7  1  0  0  0  0
  6  5  2  0  0  0  0
  7 21  1  0  0  0  0
  8  7  2  0  0  0  0
  9  1  2  0  0  0  0
  9  8  1  0  0  0  0
 10  1  1  0  0  0  0
 10 13  1  0  0  0  0
 11 10  1  0  0  0  0
 12 11  2  0  0  0  0
 14 11  1  0  0  0  0
 15 14  2  0  0  0  0
 15 16  1  0  0  0  0
 17 15  1  0  0  0  0
 18 17  2  0  0  0  0
 18 19  1  0  0  0  0
 19 20  1  0  0  0  0
 19 14  1  0  0  0  0
 21 22  1  0  0  0  0
 22 23  1  0  0  0  0
 24 23  1  0  0  0  0
 25 24  1  0  0  0  0
 26 25  1  0  0  0  0
 26 21  1  0  0  0  0
M  END
>  <Pose>
1

>  <Score>
-6.764

$$$$
