/Users/jonathanwahrer/Desktop/Msc/3_Semester/Drug_Design_Praktikum/waehrer_HTS_screening/HTS_experiment/out/docking_results/vina_output/3sx0/0095_docked.pdbqt
 OpenBabel03192221263D

 26 29  0  0  0  0  0  0  0  0999 V2000
   13.4540   65.1410  -14.2800 C   0  0  0  0  0  0  0  0  0  0  0  0
   14.2670   64.9330  -15.2380 O   0  0  0  0  0  0  0  0  0  0  0  0
   13.5410   64.6140  -13.0140 N   0  0  0  0  0  0  0  0  0  0  0  0
   14.6750   63.9430  -13.3570 H   0  0  0  0  0  0  0  0  0  0  0  0
   12.2960   66.0570  -14.6020 C   0  0  0  0  0  0  0  0  0  0  0  0
   12.3870   67.4130  -14.4170 C   0  0  0  0  0  3  0  0  0  0  0  0
   11.2770   68.2100  -14.7230 C   0  0  0  0  0  0  0  0  0  0  0  0
   11.3770   70.0840  -14.4740 Br  0  0  0  0  0  0  0  0  0  0  0  0
   10.1210   67.6440  -15.2000 C   0  0  0  0  0  3  0  0  0  0  0  0
   10.0300   66.2790  -15.3860 C   0  0  0  0  0  3  0  0  0  0  0  0
   11.1470   65.4840  -15.0790 C   0  0  0  0  0  0  0  0  0  0  0  0
   11.1280   64.0790  -15.2530 N   0  0  0  0  0  0  0  0  0  0  0  0
   10.7380   63.2300  -14.3210 N   0  0  0  0  0  0  0  0  0  0  0  0
   10.8220   61.9900  -14.7520 N   0  0  0  0  0  0  0  0  0  0  0  0
   11.2760   62.0170  -15.9950 N   0  0  0  0  0  0  0  0  0  0  0  0
   11.4630   63.3060  -16.2960 C   0  0  0  0  0  3  0  0  0  0  0  0
   13.6280   64.0890  -11.7550 C   0  0  0  0  0  2  0  0  0  0  0  0
   15.0530   63.8650  -11.2770 C   0  0  0  0  0  0  0  0  0  0  0  0
   15.5840   62.6640  -10.9590 N   0  0  0  0  0  0  0  0  0  0  0  0
   16.8590   62.8080  -10.5750 C   0  0  0  0  0  0  0  0  0  0  0  0
   15.0280   61.4190  -10.9790 C   0  0  0  0  0  3  0  0  0  0  0  0
   17.1180   64.1230  -10.6590 N   0  0  0  0  0  0  0  0  0  0  0  0
   17.6210   61.6950  -10.1960 C   0  0  0  0  0  3  0  0  0  0  0  0
   16.0220   64.7670  -11.0850 N   0  0  0  0  0  0  0  0  0  0  0  0
   17.0690   60.4440  -10.2150 C   0  0  0  0  0  3  0  0  0  0  0  0
   15.7550   60.2960  -10.6110 C   0  0  0  0  0  3  0  0  0  0  0  0
  1  3  1  0  0  0  0
  2  1  2  0  0  0  0
  3 17  1  0  0  0  0
  4  3  1  0  0  0  0
  5  6  1  0  0  0  0
  5  1  1  0  0  0  0
  7  8  1  0  0  0  0
  7  6  2  0  0  0  0
  9  7  1  0  0  0  0
 10  9  2  0  0  0  0
 10 11  1  0  0  0  0
 11  5  2  0  0  0  0
 12 11  1  0  0  0  0
 12 13  1  0  0  0  0
 14 13  2  0  0  0  0
 15 14  1  0  0  0  0
 16 15  2  0  0  0  0
 16 12  1  0  0  0  0
 17 18  1  0  0  0  0
 18 24  2  0  0  0  0
 18 19  1  0  0  0  0
 19 20  1  0  0  0  0
 20 23  1  0  0  0  0
 21 19  1  0  0  0  0
 21 26  2  0  0  0  0
 22 20  2  0  0  0  0
 24 22  1  0  0  0  0
 25 23  2  0  0  0  0
 26 25  1  0  0  0  0
M  END
>  <Pose>
1

>  <Score>
-6.793

$$$$
