/Users/jonathanwahrer/Desktop/Msc/3_Semester/Drug_Design_Praktikum/waehrer_HTS_screening/HTS_experiment/out/docking_results/vina_output/3sx0/0111_docked.pdbqt
 OpenBabel03192221273D

 29 32  0  0  0  0  0  0  0  0999 V2000
   18.9010   62.9210   -9.2970 C   0  0  0  0  0  0  0  0  0  0  0  0
   20.1650   63.0760   -9.6260 N   0  0  0  0  0  0  0  0  0  0  0  0
   20.9250   63.3210   -8.5120 C   0  0  0  0  0  0  0  0  0  0  0  0
   20.0720   63.3220   -7.4620 N   0  0  0  0  0  0  0  0  0  0  0  0
   18.8830   63.0900   -7.9060 N   0  0  0  0  0  0  0  0  0  0  0  0
   22.2030   63.4760   -8.8640 N   0  0  0  0  0  0  0  0  0  0  0  0
   22.2630   63.3350  -10.1980 C   0  0  0  0  0  0  0  0  0  0  0  0
   20.9920   63.0860  -10.7030 C   0  0  0  0  0  0  0  0  0  0  0  0
   20.7540   62.9290  -11.9910 N   0  0  0  0  0  0  0  0  0  0  0  0
   21.8320   63.0140  -12.8320 C   0  0  0  0  0  0  0  0  0  0  0  0
   21.7200   62.8780  -14.0770 O   0  0  0  0  0  0  0  0  0  0  0  0
   23.0810   63.2500  -12.3780 N   0  0  0  0  0  0  0  0  0  0  0  0
   23.3220   63.4130  -11.0820 C   0  0  0  0  0  0  0  0  0  0  0  0
   24.4610   63.6360  -10.5980 O   0  0  0  0  0  0  0  0  0  0  0  0
   19.5010   62.7480  -12.6610 C   0  0  0  0  0  1  0  0  0  0  0  0
   23.8900   63.3110  -13.0300 H   0  0  0  0  0  0  0  0  0  0  0  0
   17.6390   62.6510   -9.9250 C   0  0  0  0  0  0  0  0  0  0  0  0
   16.7160   63.5280  -10.4090 C   0  0  0  0  0  3  0  0  0  0  0  0
   15.5200   63.2100  -10.9850 C   0  0  0  0  0  0  0  0  0  0  0  0
   14.3670   64.6000  -11.5980 Br  0  0  0  0  0  0  0  0  0  0  0  0
   15.1700   61.8980  -11.1100 C   0  0  0  0  0  3  0  0  0  0  0  0
   16.0510   60.9340  -10.6450 C   0  0  0  0  0  3  0  0  0  0  0  0
   17.2450   61.3010  -10.0720 C   0  0  0  0  0  0  0  0  0  0  0  0
   18.0950   60.3070   -9.6200 O   0  0  0  0  0  0  0  0  0  0  0  0
   17.6800   59.0430   -9.2050 C   0  0  0  0  0  1  0  0  0  0  0  0
   23.3190   63.7410   -8.0050 C   0  0  0  0  0  2  0  0  0  0  0  0
   23.2240   65.1580   -7.4780 C   0  0  0  0  0  2  0  0  0  0  0  0
   22.8470   65.1020   -6.1510 O   0  0  0  0  0  0  0  0  0  0  0  0
   23.5360   64.0910   -5.4590 C   0  0  0  0  0  1  0  0  0  0  0  0
  1  5  2  0  0  0  0
  2  1  1  0  0  0  0
  2  3  1  0  0  0  0
  3  4  2  0  0  0  0
  5  4  1  0  0  0  0
  6  3  1  0  0  0  0
  6 26  1  0  0  0  0
  7  6  1  0  0  0  0
  8  7  2  0  0  0  0
  8  2  1  0  0  0  0
  9  8  1  0  0  0  0
 10 12  1  0  0  0  0
 10  9  1  0  0  0  0
 11 10  2  0  0  0  0
 12 13  1  0  0  0  0
 13 14  2  0  0  0  0
 13  7  1  0  0  0  0
 15  9  1  0  0  0  0
 16 12  1  0  0  0  0
 17  1  1  0  0  0  0
 18 17  2  0  0  0  0
 19 18  1  0  0  0  0
 20 19  1  0  0  0  0
 21 19  2  0  0  0  0
 21 22  1  0  0  0  0
 22 23  2  0  0  0  0
 23 17  1  0  0  0  0
 23 24  1  0  0  0  0
 24 25  1  0  0  0  0
 26 27  1  0  0  0  0
 27 28  1  0  0  0  0
 28 29  1  0  0  0  0
M  END
>  <Pose>
1

>  <Score>
-6.603

$$$$
