/Users/jonathanwahrer/Desktop/Msc/3_Semester/Drug_Design_Praktikum/waehrer_HTS_screening/HTS_experiment/out/docking_results/vina_output/3sx0/0127_docked.pdbqt
 OpenBabel03192221273D

 29 32  0  0  0  0  0  0  0  0999 V2000
   22.0130   63.4600   -9.2840 N   0  0  0  0  0  0  0  0  0  0  0  0
   21.5440   64.1210  -10.4440 C   0  0  0  0  0  2  0  0  0  0  0  0
   20.2220   63.6890  -10.9510 C   0  0  0  0  0  2  0  0  0  0  0  0
   19.2380   63.7160   -9.9160 N   0  0  0  0  0  0  0  0  0  0  0  0
   19.6780   63.6660   -8.5520 C   0  0  0  0  0  2  0  0  0  0  0  0
   21.0260   63.0100   -8.3660 C   0  0  0  0  0  2  0  0  0  0  0  0
   17.8460   63.7640  -10.1930 C   0  0  0  0  0  0  0  0  0  0  0  0
   17.1940   62.6100  -10.3170 C   0  0  0  0  0  0  0  0  0  0  0  0
   17.5500   61.2410  -10.2400 N   0  0  0  0  0  0  0  0  0  0  0  0
   15.7450   62.7050  -10.6040 C   0  0  0  0  0  0  0  0  0  0  0  0
   16.3500   60.5320  -10.4740 N   0  0  0  0  0  0  0  0  0  0  0  0
   18.8600   60.6940   -9.9800 C   0  0  0  0  0  1  0  0  0  0  0  0
   15.3030   61.4590  -10.6860 C   0  0  0  0  0  0  0  0  0  0  0  0
   16.3190   59.4920  -10.4750 H   0  0  0  0  0  0  0  0  0  0  0  0
   13.8770   61.1420  -10.9660 C   0  0  0  0  0  1  0  0  0  0  0  0
   15.1280   63.9810  -10.7320 N   0  0  0  0  0  0  0  0  0  0  0  0
   15.8050   65.0680  -10.6030 C   0  0  0  0  0  3  0  0  0  0  0  0
   17.1860   65.0400  -10.3290 N   0  0  0  0  0  0  0  0  0  0  0  0
   17.7710   65.8850  -10.2170 H   0  0  0  0  0  0  0  0  0  0  0  0
   23.2200   63.9330   -8.7280 C   0  0  0  0  0  2  0  0  0  0  0  0
   23.0550   64.6730   -7.4760 C   0  0  0  0  0  0  0  0  0  0  0  0
   22.4930   65.7980   -7.4990 O   0  0  0  0  0  0  0  0  0  0  0  0
   23.5480   64.0850   -6.2350 C   0  0  0  0  0  0  0  0  0  0  0  0
   24.7260   63.3850   -6.2130 C   0  0  0  0  0  3  0  0  0  0  0  0
   25.2240   62.8110   -5.0500 C   0  0  0  0  0  0  0  0  0  0  0  0
   26.8610   61.8420   -5.0220 Br  0  0  0  0  0  0  0  0  0  0  0  0
   24.5120   62.9480   -3.8780 C   0  0  0  0  0  3  0  0  0  0  0  0
   23.3200   63.6600   -3.9150 C   0  0  0  0  0  3  0  0  0  0  0  0
   22.8340   64.2240   -5.0670 C   0  0  0  0  0  3  0  0  0  0  0  0
  1 20  1  0  0  0  0
  1  6  1  0  0  0  0
  2  1  1  0  0  0  0
  3  2  1  0  0  0  0
  3  4  1  0  0  0  0
  4  5  1  0  0  0  0
  5  6  1  0  0  0  0
  7  4  1  0  0  0  0
  8  9  1  0  0  0  0
  8  7  2  0  0  0  0
  9 12  1  0  0  0  0
 10  8  1  0  0  0  0
 11  9  1  0  0  0  0
 13 10  2  0  0  0  0
 13 11  1  0  0  0  0
 14 11  1  0  0  0  0
 15 13  1  0  0  0  0
 16 10  1  0  0  0  0
 16 17  2  0  0  0  0
 17 18  1  0  0  0  0
 18 19  1  0  0  0  0
 18  7  1  0  0  0  0
 20 21  1  0  0  0  0
 21 23  1  0  0  0  0
 22 21  2  0  0  0  0
 23 24  2  0  0  0  0
 23 29  1  0  0  0  0
 24 25  1  0  0  0  0
 25 26  1  0  0  0  0
 25 27  2  0  0  0  0
 28 27  1  0  0  0  0
 29 28  2  0  0  0  0
M  END
>  <Pose>
1

>  <Score>
-8.139

$$$$
