/Users/jonathanwahrer/Desktop/Msc/3_Semester/Drug_Design_Praktikum/waehrer_HTS_screening/HTS_experiment/out/docking_results/vina_output/3sx0/0131_docked.pdbqt
 OpenBabel03192221273D

 30 33  0  0  1  0  0  0  0  0999 V2000
   21.3310   64.9120   -9.0560 C   0  0  0  0  0  0  0  0  0  0  0  0
   20.3660   65.6420   -8.7220 O   0  0  0  0  0  0  0  0  0  0  0  0
   22.4740   64.8670   -8.2430 N   0  0  0  0  0  0  0  0  0  0  0  0
   23.6200   64.0520   -8.5610 C   0  0  0  0  0  2  0  0  0  0  0  0
   23.7390   63.0150   -7.4660 C   0  0  0  0  0  2  0  0  0  0  0  0
   23.6990   63.6920   -6.1170 C   0  0  1  0  0  0  0  0  0  0  0  0
   22.5260   63.2180   -5.4130 N   0  0  0  0  0  0  0  0  0  0  0  0
   22.4110   63.6680   -4.0700 C   0  0  0  0  0  2  0  0  0  0  0  0
   23.6580   63.7320   -3.2670 C   0  0  0  0  0  2  0  0  0  0  0  0
   24.8610   63.2160   -3.9540 C   0  0  0  0  0  0  0  0  0  0  0  0
   26.0470   62.7170   -3.4880 N   0  0  0  0  0  0  0  0  0  0  0  0
   26.7780   62.4020   -4.5640 C   0  0  0  0  0  3  0  0  0  0  0  0
   26.0790   62.6900   -5.6740 N   0  0  0  0  0  0  0  0  0  0  0  0
   24.8710   63.2030   -5.3300 C   0  0  0  0  0  0  0  0  0  0  0  0
   23.7120   65.1850   -6.1740 C   0  0  0  0  0  2  0  0  0  0  0  0
   22.5360   65.6530   -7.0370 C   0  0  0  0  0  2  0  0  0  0  0  0
   21.6730   63.5410   -5.9400 H   0  0  0  0  0  0  0  0  0  0  0  0
   26.2920   62.6200   -2.4600 H   0  0  0  0  0  0  0  0  0  0  0  0
   21.1830   64.1340  -10.3150 C   0  0  0  0  0  2  0  0  0  0  0  0
   19.7950   63.8310  -10.5950 N   0  0  0  0  0  0  0  0  0  0  0  0
   19.1730   62.6580  -10.1130 C   0  0  0  0  0  0  0  0  0  0  0  0
   19.8720   61.8730   -9.4220 O   0  0  0  0  0  0  0  0  0  0  0  0
   19.2380   64.4950  -11.1680 H   0  0  0  0  0  0  0  0  0  0  0  0
   17.7810   62.3290  -10.3810 C   0  0  0  0  0  0  0  0  0  0  0  0
   16.8300   63.2740  -10.7200 C   0  0  0  0  0  3  0  0  0  0  0  0
   15.5130   62.9330  -10.9700 C   0  0  0  0  0  0  0  0  0  0  0  0
   14.2780   64.2930  -11.4300 Br  0  0  0  0  0  0  0  0  0  0  0  0
   15.1050   61.6010  -10.8820 C   0  0  0  0  0  3  0  0  0  0  0  0
   16.0640   60.6730  -10.5420 C   0  0  0  0  0  3  0  0  0  0  0  0
   17.3750   61.0050  -10.2930 C   0  0  0  0  0  3  0  0  0  0  0  0
  1  2  2  0  0  0  0
  1  3  1  0  0  0  0
  3 16  1  0  0  0  0
  4  3  1  0  0  0  0
  4  5  1  0  0  0  0
  6  5  1  6  0  0  0
  6  7  1  0  0  0  0
  6 14  1  0  0  0  0
  7  8  1  0  0  0  0
  8  9  1  0  0  0  0
 10 11  1  0  0  0  0
 10  9  1  0  0  0  0
 11 18  1  0  0  0  0
 12 11  1  0  0  0  0
 13 14  1  0  0  0  0
 13 12  2  0  0  0  0
 14 10  2  0  0  0  0
 15  6  1  0  0  0  0
 16 15  1  0  0  0  0
 17  7  1  0  0  0  0
 19  1  1  0  0  0  0
 20 19  1  0  0  0  0
 20 21  1  0  0  0  0
 21 22  2  0  0  0  0
 23 20  1  0  0  0  0
 24 30  1  0  0  0  0
 24 21  1  0  0  0  0
 25 24  2  0  0  0  0
 26 28  2  0  0  0  0
 26 25  1  0  0  0  0
 27 26  1  0  0  0  0
 28 29  1  0  0  0  0
 29 30  2  0  0  0  0
M  END
>  <Pose>
1

>  <Score>
-7.913

$$$$
