/Users/jonathanwahrer/Desktop/Msc/3_Semester/Drug_Design_Praktikum/waehrer_HTS_screening/HTS_experiment/out/docking_results/vina_output/3sx0/0137_docked.pdbqt
 OpenBabel03192221283D

 25 28  0  0  1  0  0  0  0  0999 V2000
   20.3630   63.2720  -10.5460 C   0  0  2  0  0  3  0  0  0  0  0  0
   19.2610   64.0950   -9.7830 C   0  0  0  0  0  2  0  0  0  0  0  0
   18.0400   63.5670  -10.2880 N   0  0  0  0  0  0  0  0  0  0  0  0
   18.2880   62.2490  -10.8550 C   0  0  1  0  0  3  0  0  0  0  0  0
   19.6450   61.8950  -10.4020 C   0  0  0  0  0  2  0  0  0  0  0  0
   17.1940   61.3300  -10.5040 C   0  0  0  0  0  0  0  0  0  0  0  0
   17.4590   60.1540  -10.1990 O   0  0  0  0  0  0  0  0  0  0  0  0
   15.8550   61.7780  -10.5130 N   0  0  0  0  0  0  0  0  0  0  0  0
   15.5580   63.1530  -10.1770 C   0  0  2  0  0  3  0  0  0  0  0  0
   14.3480   63.5230  -11.0110 C   0  0  0  0  0  2  0  0  0  0  0  0
   13.9550   62.2640  -11.7010 C   0  0  0  0  0  2  0  0  0  0  0  0
   14.5590   61.1720  -10.8050 C   0  0  0  0  0  2  0  0  0  0  0  0
   16.7010   64.0450  -10.3430 C   0  0  0  0  0  0  0  0  0  0  0  0
   16.5120   65.2950  -10.5440 O   0  0  0  0  0  0  0  0  0  0  0  0
   21.5730   63.3930  -10.0110 N   0  0  0  0  0  0  0  0  0  0  0  0
   22.8260   63.5160   -9.4630 C   0  0  0  0  0  0  0  0  0  0  0  0
   23.9670   63.4300  -10.0120 O   0  0  0  0  0  0  0  0  0  0  0  0
   22.1540   63.1680  -11.2390 H   0  0  0  0  0  0  0  0  0  0  0  0
   22.9580   63.7980   -7.9830 C   0  0  0  0  0  0  0  0  0  0  0  0
   23.9520   63.2150   -7.2360 C   0  0  0  0  0  3  0  0  0  0  0  0
   24.1000   63.4540   -5.8910 C   0  0  0  0  0  0  0  0  0  0  0  0
   25.4930   62.6710   -4.8620 Br  0  0  0  0  0  0  0  0  0  0  0  0
   23.1890   64.3230   -5.2970 C   0  0  0  0  0  3  0  0  0  0  0  0
   22.1890   64.9200   -6.0120 C   0  0  0  0  0  3  0  0  0  0  0  0
   22.0760   64.6510   -7.3700 C   0  0  0  0  0  3  0  0  0  0  0  0
  1  5  1  0  0  0  0
  1 15  1  1  0  0  0
  1  2  1  0  0  0  0
  3  2  1  0  0  0  0
  4  6  1  0  0  0  0
  4  5  1  1  0  0  0
  4  3  1  0  0  0  0
  6  7  2  0  0  0  0
  8  6  1  0  0  0  0
  8  9  1  0  0  0  0
  9 10  1  6  0  0  0
 11 10  1  0  0  0  0
 11 12  1  0  0  0  0
 12  8  1  0  0  0  0
 13  3  1  0  0  0  0
 13  9  1  0  0  0  0
 14 13  2  0  0  0  0
 15 16  1  0  0  0  0
 16 19  1  0  0  0  0
 17 16  2  0  0  0  0
 18 15  1  0  0  0  0
 19 25  2  0  0  0  0
 19 20  1  0  0  0  0
 20 21  2  0  0  0  0
 21 23  1  0  0  0  0
 21 22  1  0  0  0  0
 24 23  2  0  0  0  0
 25 24  1  0  0  0  0
M  END
>  <Pose>
1

>  <Score>
-8.964

$$$$
