/Users/jonathanwahrer/Desktop/Msc/3_Semester/Drug_Design_Praktikum/waehrer_HTS_screening/HTS_experiment/out/docking_results/vina_output/3sx0/0138_docked.pdbqt
 OpenBabel03192221283D

 25 28  0  0  1  0  0  0  0  0999 V2000
   13.0060   64.5060  -13.0560 C   0  0  2  0  0  3  0  0  0  0  0  0
   11.8460   64.0410  -13.8720 C   0  0  0  0  0  2  0  0  0  0  0  0
   11.3200   65.2960  -14.4370 N   0  0  0  0  0  0  0  0  0  0  0  0
   12.2960   66.3570  -14.2380 C   0  0  1  0  0  3  0  0  0  0  0  0
   13.5670   65.6140  -13.9610 C   0  0  0  0  0  2  0  0  0  0  0  0
   12.3260   67.1740  -15.4480 C   0  0  0  0  0  0  0  0  0  0  0  0
   13.3820   67.6710  -15.8570 O   0  0  0  0  0  0  0  0  0  0  0  0
   11.1130   67.4060  -16.1760 N   0  0  0  0  0  0  0  0  0  0  0  0
    9.8910   67.0220  -15.5120 C   0  0  1  0  0  3  0  0  0  0  0  0
    8.7360   67.2200  -16.4050 C   0  0  0  0  0  2  0  0  0  0  0  0
    9.3000   68.1450  -17.4660 C   0  0  0  0  0  2  0  0  0  0  0  0
   10.7780   67.9470  -17.4580 C   0  0  0  0  0  2  0  0  0  0  0  0
   10.0920   65.5910  -15.0970 C   0  0  0  0  0  0  0  0  0  0  0  0
    9.2290   64.7120  -15.3200 O   0  0  0  0  0  0  0  0  0  0  0  0
   13.9670   63.5130  -12.7470 N   0  0  0  0  0  0  0  0  0  0  0  0
   14.4340   63.3610  -11.4230 C   0  0  0  0  0  0  0  0  0  0  0  0
   13.9810   64.1320  -10.5060 O   0  0  0  0  0  0  0  0  0  0  0  0
   14.3360   62.8880  -13.4860 H   0  0  0  0  0  0  0  0  0  0  0  0
   15.4140   62.3810  -10.9870 C   0  0  0  0  0  0  0  0  0  0  0  0
   16.7040   62.7110  -10.6540 C   0  0  0  0  0  3  0  0  0  0  0  0
   17.6390   61.7970  -10.2420 C   0  0  0  0  0  0  0  0  0  0  0  0
   19.4180   62.2910   -9.7900 Br  0  0  0  0  0  0  0  0  0  0  0  0
   17.2850   60.4680  -10.1480 C   0  0  0  0  0  3  0  0  0  0  0  0
   15.9930   60.0870  -10.4730 C   0  0  0  0  0  3  0  0  0  0  0  0
   15.0670   61.0550  -10.8910 C   0  0  0  0  0  3  0  0  0  0  0  0
  1 15  1  6  0  0  0
  2  1  1  0  0  0  0
  3  4  1  0  0  0  0
  3  2  1  0  0  0  0
  4  5  1  6  0  0  0
  5  1  1  0  0  0  0
  6  4  1  0  0  0  0
  7  6  2  0  0  0  0
  8  9  1  0  0  0  0
  8  6  1  0  0  0  0
  9 10  1  6  0  0  0
  9 13  1  0  0  0  0
 11 12  1  0  0  0  0
 11 10  1  0  0  0  0
 12  8  1  0  0  0  0
 13  3  1  0  0  0  0
 14 13  2  0  0  0  0
 15 16  1  0  0  0  0
 16 19  1  0  0  0  0
 16 17  2  0  0  0  0
 18 15  1  0  0  0  0
 19 25  2  0  0  0  0
 19 20  1  0  0  0  0
 20 21  2  0  0  0  0
 21 23  1  0  0  0  0
 21 22  1  0  0  0  0
 24 23  2  0  0  0  0
 25 24  1  0  0  0  0
M  END
>  <Pose>
1

>  <Score>
-7.042

$$$$
