/Users/jonathanwahrer/Desktop/Msc/3_Semester/Drug_Design_Praktikum/waehrer_HTS_screening/HTS_experiment/out/docking_results/vina_output/3sx0/0152_docked.pdbqt
 OpenBabel03192221283D

 27 30  0  0  0  0  0  0  0  0999 V2000
   18.7780   63.4300  -11.8430 C   0  0  0  0  0  3  0  0  0  0  0  0
   19.9650   63.3940  -11.2270 C   0  0  0  0  0  0  0  0  0  0  0  0
   20.1800   63.5220   -9.9190 O   0  0  0  0  0  0  0  0  0  0  0  0
   21.5650   63.3980   -9.6420 C   0  0  0  0  0  0  0  0  0  0  0  0
   22.2680   63.1820  -10.7790 C   0  0  0  0  0  0  0  0  0  0  0  0
   23.6390   62.9620  -10.6700 C   0  0  0  0  0  3  0  0  0  0  0  0
   24.2480   62.9890   -9.4550 C   0  0  0  0  0  3  0  0  0  0  0  0
   23.5090   63.2420   -8.3170 C   0  0  0  0  0  0  0  0  0  0  0  0
   22.1520   63.4620   -8.3490 C   0  0  0  0  0  0  0  0  0  0  0  0
   24.1810   63.2710   -7.0930 O   0  0  0  0  0  1  0  0  0  0  0  0
   21.2670   63.1790  -11.8730 C   0  0  0  0  0  0  0  0  0  0  0  0
   21.4900   63.0300  -13.0880 O   0  0  0  0  0  0  0  0  0  0  0  0
   17.5340   63.6170  -11.0480 C   0  0  0  0  0  0  0  0  0  0  0  0
   16.5320   62.6360  -11.1100 C   0  0  0  0  0  3  0  0  0  0  0  0
   15.2190   62.8990  -10.6980 C   0  0  0  0  0  0  0  0  0  0  0  0
   13.9390   61.4920  -10.8550 Br  0  0  0  0  0  0  0  0  0  0  0  0
   14.8750   64.1110  -10.2210 C   0  0  0  0  0  3  0  0  0  0  0  0
   15.8590   65.1310  -10.1370 C   0  0  0  0  0  3  0  0  0  0  0  0
   17.1740   64.8390  -10.5580 C   0  0  0  0  0  3  0  0  0  0  0  0
   21.3380   64.1710   -7.3830 C   0  0  0  0  0  2  0  0  0  0  0  0
   21.3770   65.2060   -6.5200 N   0  0  0  0  0  4  0  0  0  0  0  0
   22.4520   65.6060   -5.7230 C   0  0  0  0  0  2  0  0  0  0  0  0
   23.3060   66.7340   -6.3440 C   0  0  0  0  0  2  0  0  0  0  0  0
   22.6290   67.9240   -6.4710 O   0  0  0  0  0  0  0  0  0  0  0  0
   21.3100   67.6720   -6.8630 C   0  0  0  0  0  2  0  0  0  0  0  0
   21.1370   66.3930   -7.4960 C   0  0  0  0  0  2  0  0  0  0  0  0
   20.4690   65.2100   -5.9180 H   0  0  0  0  0  0  0  0  0  0  0  0
  1  2  2  0  0  0  0
  1 13  1  0  0  0  0
  2  3  1  0  0  0  0
  3  4  1  0  0  0  0
  4  9  1  0  0  0  0
  5  6  1  0  0  0  0
  5  4  2  0  0  0  0
  6  7  2  0  0  0  0
  7  8  1  0  0  0  0
  8 10  1  0  0  0  0
  9  8  2  0  0  0  0
  9 20  1  0  0  0  0
 11  2  1  0  0  0  0
 11  5  1  0  0  0  0
 12 11  2  0  0  0  0
 13 19  1  0  0  0  0
 14 13  2  0  0  0  0
 14 15  1  0  0  0  0
 15 17  2  0  0  0  0
 16 15  1  0  0  0  0
 17 18  1  0  0  0  0
 19 18  2  0  0  0  0
 20 21  1  0  0  0  0
 21 27  1  0  0  0  0
 21 22  1  0  0  0  0
 23 22  1  0  0  0  0
 24 23  1  0  0  0  0
 25 24  1  0  0  0  0
 26 25  1  0  0  0  0
 26 21  1  0  0  0  0
M  END
>  <Pose>
1

>  <Score>
-8.098

$$$$
