/Users/jonathanwahrer/Desktop/Msc/3_Semester/Drug_Design_Praktikum/waehrer_HTS_screening/HTS_experiment/out/docking_results/vina_output/3sx0/0156_docked.pdbqt
 OpenBabel03192221293D

 29 32  0  0  0  0  0  0  0  0999 V2000
   22.6610   63.4240  -10.2470 C   0  0  0  0  0  0  0  0  0  0  0  0
   21.4930   63.0700  -10.7940 N   0  0  0  0  0  4  0  0  0  0  0  0
   20.2950   63.2590  -10.1750 C   0  0  0  0  0  0  0  0  0  0  0  0
   20.3540   63.8350   -8.9550 N   0  0  0  0  0  0  0  0  0  0  0  0
   21.4950   64.2120   -8.3530 C   0  0  0  0  0  0  0  0  0  0  0  0
   22.6410   63.9870   -9.0410 N   0  0  0  0  0  2  0  0  0  0  0  0
   23.8760   63.1970  -10.9500 N   0  0  0  0  0  0  0  0  0  0  0  0
   24.7660   63.0480  -10.4310 H   0  0  0  0  0  0  0  0  0  0  0  0
   23.9170   63.1700  -12.3470 N   0  0  0  0  0  0  0  0  0  0  0  0
   24.9470   63.4310  -13.0510 C   0  0  0  0  0  3  0  0  0  0  0  0
   24.9590   63.3960  -14.5080 C   0  0  0  0  0  0  0  0  0  0  0  0
   23.8550   63.7550  -15.2610 C   0  0  0  0  0  3  0  0  0  0  0  0
   23.8350   63.7310  -16.6340 C   0  0  0  0  0  0  0  0  0  0  0  0
   22.2720   64.2410  -17.6160 Br  0  0  0  0  0  0  0  0  0  0  0  0
   24.9720   63.3310  -17.3060 C   0  0  0  0  0  3  0  0  0  0  0  0
   26.0980   62.9630  -16.6010 C   0  0  0  0  0  3  0  0  0  0  0  0
   26.0780   63.0010  -15.2090 C   0  0  0  0  0  3  0  0  0  0  0  0
   19.0740   62.8760  -10.7730 N   0  0  0  0  0  0  0  0  0  0  0  0
   18.6720   61.4980  -10.8030 C   0  0  0  0  0  2  0  0  0  0  0  0
   17.2770   61.4300  -10.1920 C   0  0  0  0  0  2  0  0  0  0  0  0
   16.4630   62.2320  -10.9880 O   0  0  0  0  0  0  0  0  0  0  0  0
   16.7820   63.5730  -10.8820 C   0  0  0  0  0  2  0  0  0  0  0  0
   18.2020   63.8510  -11.3670 C   0  0  0  0  0  2  0  0  0  0  0  0
   21.5290   64.8100   -7.0820 N   0  0  0  0  0  0  0  0  0  0  0  0
   21.0410   64.1370   -5.9080 C   0  0  0  0  0  2  0  0  0  0  0  0
   22.0010   64.5240   -4.7740 C   0  0  0  0  0  2  0  0  0  0  0  0
   23.2570   64.8350   -5.2900 O   0  0  0  0  0  0  0  0  0  0  0  0
   23.2940   65.9960   -6.0190 C   0  0  0  0  0  2  0  0  0  0  0  0
   22.0610   66.1330   -6.9240 C   0  0  0  0  0  2  0  0  0  0  0  0
  1  6  1  0  0  0  0
  2  1  2  0  0  0  0
  2  3  2  0  0  0  0
  3  4  1  0  0  0  0
  4  5  2  0  0  0  0
  5 24  1  0  0  0  0
  6  5  1  0  0  0  0
  7  8  1  0  0  0  0
  7  1  1  0  0  0  0
  9  7  1  0  0  0  0
 10  9  2  0  0  0  0
 11 10  1  0  0  0  0
 12 11  2  0  0  0  0
 13 12  1  0  0  0  0
 14 13  1  0  0  0  0
 15 13  2  0  0  0  0
 15 16  1  0  0  0  0
 16 17  2  0  0  0  0
 17 11  1  0  0  0  0
 18  3  1  0  0  0  0
 19 18  1  0  0  0  0
 19 20  1  0  0  0  0
 21 22  1  0  0  0  0
 21 20  1  0  0  0  0
 23 22  1  0  0  0  0
 23 18  1  0  0  0  0
 24 29  1  0  0  0  0
 24 25  1  0  0  0  0
 25 26  1  0  0  0  0
 27 26  1  0  0  0  0
 28 27  1  0  0  0  0
 29 28  1  0  0  0  0
M  END
>  <Pose>
1

>  <Score>
-8.695

$$$$
