/Users/jonathanwahrer/Desktop/Msc/3_Semester/Drug_Design_Praktikum/waehrer_HTS_screening/HTS_experiment/out/docking_results/vina_output/3sx0/0169_docked.pdbqt
 OpenBabel03192221303D

 37 40  0  0  1  0  0  0  0  0999 V2000
   21.2140   63.9990   -7.8490 C   0  0  2  0  0  3  0  0  0  0  0  0
   22.4020   63.5240   -8.5300 N   0  0  0  0  0  0  0  0  0  0  0  0
   22.1520   63.6770   -9.9200 C   0  0  0  0  0  0  0  0  0  0  0  0
   22.9950   63.8160  -10.8340 O   0  0  0  0  0  0  0  0  0  0  0  0
   20.6830   63.6450  -10.0950 C   0  0  0  0  0  0  0  0  0  0  0  0
   20.0440   63.7420  -11.1660 O   0  0  0  0  0  0  0  0  0  0  0  0
   20.1350   63.4730   -8.7570 C   0  0  0  0  0  0  0  0  0  0  0  0
   18.9890   62.9360   -8.4680 C   0  0  0  0  0  0  0  0  0  0  0  0
   18.6490   62.7930   -7.1060 O   0  0  0  0  0  1  0  0  0  0  0  0
   21.2250   65.4810   -7.8690 C   0  0  0  0  0  0  0  0  0  0  0  0
   22.0640   66.2150   -7.0400 C   0  0  0  0  0  3  0  0  0  0  0  0
   22.0730   67.5940   -7.0470 C   0  0  0  0  0  0  0  0  0  0  0  0
   23.2500   68.5390   -5.8820 Br  0  0  0  0  0  0  0  0  0  0  0  0
   21.2450   68.3100   -7.8830 C   0  0  0  0  0  3  0  0  0  0  0  0
   20.4040   67.6040   -8.7150 C   0  0  0  0  0  3  0  0  0  0  0  0
   20.4020   66.2260   -8.7000 C   0  0  0  0  0  3  0  0  0  0  0  0
   18.0040   62.4640   -9.4300 C   0  0  0  0  0  0  0  0  0  0  0  0
   17.7270   61.2500   -9.9620 C   0  0  0  0  0  0  0  0  0  0  0  0
   16.6590   61.3810  -10.7770 N   0  0  0  0  0  0  0  0  0  0  0  0
   18.4720   59.9620   -9.7600 C   0  0  0  0  0  1  0  0  0  0  0  0
   16.2210   62.6450  -10.8030 C   0  0  0  0  0  0  0  0  0  0  0  0
   16.2300   60.5790  -11.3240 H   0  0  0  0  0  0  0  0  0  0  0  0
   17.0470   63.3480   -9.9670 C   0  0  0  0  0  0  0  0  0  0  0  0
   16.9430   64.8100   -9.6770 C   0  0  0  0  0  1  0  0  0  0  0  0
   15.0800   63.1760  -11.5760 C   0  0  0  0  0  0  0  0  0  0  0  0
   14.0010   62.5650  -11.5600 O   0  0  0  0  0  0  0  0  0  0  0  0
   15.2060   64.3400  -12.3100 O   0  0  0  0  0  0  0  0  0  0  0  0
   14.1410   64.9450  -13.0070 C   0  0  0  0  0  1  0  0  0  0  0  0
   23.6220   62.9870   -7.9210 C   0  0  0  0  0  2  0  0  0  0  0  0
   24.0830   63.8530   -6.7690 C   0  0  0  0  0  2  0  0  0  0  0  0
   24.2450   63.1460   -5.5410 N   0  0  0  0  0  4  0  0  0  0  0  0
   23.8000   63.8900   -4.3690 C   0  0  0  0  0  2  0  0  0  0  0  0
   23.5970   62.9000   -3.2540 C   0  0  0  0  0  2  0  0  0  0  0  0
   24.3560   61.7820   -3.4940 O   0  0  0  0  0  0  0  0  0  0  0  0
   25.6370   62.0470   -3.9470 C   0  0  0  0  0  2  0  0  0  0  0  0
   25.6370   62.8050   -5.2730 C   0  0  0  0  0  2  0  0  0  0  0  0
   23.7440   62.2410   -5.5970 H   0  0  0  0  0  0  0  0  0  0  0  0
  1 10  1  6  0  0  0
  2 29  1  0  0  0  0
  2  1  1  0  0  0  0
  3  2  1  0  0  0  0
  4  3  2  0  0  0  0
  5  3  1  0  0  0  0
  5  7  1  0  0  0  0
  6  5  2  0  0  0  0
  7  8  2  0  0  0  0
  7  1  1  0  0  0  0
  8  9  1  0  0  0  0
 10 11  1  0  0  0  0
 12 11  2  0  0  0  0
 12 13  1  0  0  0  0
 14 12  1  0  0  0  0
 15 16  1  0  0  0  0
 15 14  2  0  0  0  0
 16 10  2  0  0  0  0
 17  8  1  0  0  0  0
 18 20  1  0  0  0  0
 18 17  2  0  0  0  0
 19 18  1  0  0  0  0
 21 19  1  0  0  0  0
 21 23  2  0  0  0  0
 22 19  1  0  0  0  0
 23 24  1  0  0  0  0
 23 17  1  0  0  0  0
 25 26  2  0  0  0  0
 25 21  1  0  0  0  0
 27 25  1  0  0  0  0
 28 27  1  0  0  0  0
 29 30  1  0  0  0  0
 30 31  1  0  0  0  0
 31 36  1  0  0  0  0
 31 32  1  0  0  0  0
 32 33  1  0  0  0  0
 34 33  1  0  0  0  0
 35 34  1  0  0  0  0
 36 35  1  0  0  0  0
 37 31  1  0  0  0  0
M  END
>  <Pose>
1

>  <Score>
-5.384

$$$$
