/Users/jonathanwahrer/Desktop/Msc/3_Semester/Drug_Design_Praktikum/waehrer_HTS_screening/HTS_experiment/out/docking_results/vina_output/3sx0/0170_docked.pdbqt
 OpenBabel03192221303D

 35 38  0  0  1  0  0  0  0  0999 V2000
   21.9350   62.6530  -10.1410 C   0  0  1  0  0  3  0  0  0  0  0  0
   22.3350   63.4260   -8.9810 N   0  0  0  0  0  0  0  0  0  0  0  0
   21.5550   64.5960   -8.8670 C   0  0  0  0  0  0  0  0  0  0  0  0
   21.7500   65.6600   -8.2260 O   0  0  0  0  0  0  0  0  0  0  0  0
   20.3510   64.3580   -9.7020 C   0  0  0  0  0  0  0  0  0  0  0  0
   19.4290   65.1880   -9.8350 O   0  0  0  0  0  0  0  0  0  0  0  0
   20.4870   63.0340  -10.2800 C   0  0  0  0  0  0  0  0  0  0  0  0
   19.5160   62.3080  -10.7720 C   0  0  0  0  0  0  0  0  0  0  0  0
   19.7960   61.0100  -11.2330 O   0  0  0  0  0  1  0  0  0  0  0  0
   22.7060   62.9830  -11.3520 C   0  0  0  0  0  0  0  0  0  0  0  0
   24.0830   62.9940  -11.3620 C   0  0  0  0  0  3  0  0  0  0  0  0
   24.7910   63.3090  -12.5160 C   0  0  0  0  0  0  0  0  0  0  0  0
   26.6960   63.3200  -12.5060 Br  0  0  0  0  0  0  0  0  0  0  0  0
   24.1090   63.6170  -13.6820 C   0  0  0  0  0  3  0  0  0  0  0  0
   22.7310   63.6020  -13.6620 C   0  0  0  0  0  3  0  0  0  0  0  0
   22.0320   63.2890  -12.5140 C   0  0  0  0  0  3  0  0  0  0  0  0
   18.1650   62.7910  -10.8670 C   0  0  0  0  0  0  0  0  0  0  0  0
   17.1430   61.8480  -10.6830 C   0  0  0  0  0  3  0  0  0  0  0  0
   15.8290   62.2100  -10.7960 C   0  0  0  0  0  0  0  0  0  0  0  0
   15.4490   63.5130  -11.0940 C   0  0  0  0  0  0  0  0  0  0  0  0
   14.7510   61.1900  -10.5970 C   0  0  0  0  0  1  0  0  0  0  0  0
   16.4560   64.4100  -11.2680 C   0  0  0  0  0  3  0  0  0  0  0  0
   17.7870   64.0620  -11.1590 C   0  0  0  0  0  3  0  0  0  0  0  0
   14.1020   63.7970  -11.1890 O   0  0  0  0  0  0  0  0  0  0  0  0
   13.5170   64.1390  -12.4370 C   0  0  0  0  0  1  0  0  0  0  0  0
   23.3970   63.0650   -8.0280 C   0  0  0  0  0  2  0  0  0  0  0  0
   23.8970   64.2990   -7.3310 C   0  0  0  0  0  2  0  0  0  0  0  0
   23.7250   64.3020   -5.8500 C   0  0  0  0  0  2  0  0  0  0  0  0
   24.1800   63.0870   -5.2090 N   0  0  0  0  0  4  0  0  0  0  0  0
   25.5460   62.7660   -5.5720 C   0  0  0  0  0  2  0  0  0  0  0  0
   26.4500   62.8340   -4.3710 C   0  0  0  0  0  2  0  0  0  0  0  0
   25.9970   61.8760   -3.4410 O   0  0  0  0  0  0  0  0  0  0  0  0
   24.7210   62.2020   -2.9850 C   0  0  0  0  0  2  0  0  0  0  0  0
   24.0620   63.2960   -3.7630 C   0  0  0  0  0  2  0  0  0  0  0  0
   23.5790   62.2610   -5.4130 H   0  0  0  0  0  0  0  0  0  0  0  0
  1 10  1  6  0  0  0
  1  2  1  0  0  0  0
  2  3  1  0  0  0  0
  2 26  1  0  0  0  0
  3  4  2  0  0  0  0
  5  3  1  0  0  0  0
  6  5  2  0  0  0  0
  7  1  1  0  0  0  0
  7  5  1  0  0  0  0
  8  7  2  0  0  0  0
  9  8  1  0  0  0  0
 11 10  1  0  0  0  0
 12 13  1  0  0  0  0
 12 11  2  0  0  0  0
 14 15  2  0  0  0  0
 14 12  1  0  0  0  0
 15 16  1  0  0  0  0
 16 10  2  0  0  0  0
 17  8  1  0  0  0  0
 17 18  1  0  0  0  0
 19 18  2  0  0  0  0
 19 21  1  0  0  0  0
 20 19  1  0  0  0  0
 22 23  1  0  0  0  0
 22 20  2  0  0  0  0
 23 17  2  0  0  0  0
 24 20  1  0  0  0  0
 25 24  1  0  0  0  0
 26 27  1  0  0  0  0
 27 28  1  0  0  0  0
 28 29  1  0  0  0  0
 29 34  1  0  0  0  0
 30 29  1  0  0  0  0
 30 31  1  0  0  0  0
 31 32  1  0  0  0  0
 32 33  1  0  0  0  0
 34 33  1  0  0  0  0
 35 29  1  0  0  0  0
M  END
>  <Pose>
1

>  <Score>
-7.518

$$$$
