/Users/jonathanwahrer/Desktop/Msc/3_Semester/Drug_Design_Praktikum/waehrer_HTS_screening/HTS_experiment/out/docking_results/vina_output/3sx0/0176_docked.pdbqt
 OpenBabel03192221313D

 33 36  0  0  1  0  0  0  0  0999 V2000
   22.0610   62.6540  -10.3170 C   0  0  1  0  0  3  0  0  0  0  0  0
   22.5580   63.4050   -9.1750 N   0  0  0  0  0  0  0  0  0  0  0  0
   21.7490   64.5950   -9.0730 C   0  0  0  0  0  0  0  0  0  0  0  0
   22.0730   65.6270   -8.4340 O   0  0  0  0  0  0  0  0  0  0  0  0
   20.5400   64.3530   -9.8310 C   0  0  0  0  0  0  0  0  0  0  0  0
   19.5560   65.1360  -10.0120 O   0  0  0  0  0  0  0  0  0  0  0  0
   20.6310   63.0090  -10.3850 C   0  0  0  0  0  0  0  0  0  0  0  0
   19.6160   62.3100  -10.8720 C   0  0  0  0  0  0  0  0  0  0  0  0
   19.9830   61.0540  -11.3990 O   0  0  0  0  0  1  0  0  0  0  0  0
   23.6980   63.0650   -8.3870 C   0  0  0  0  0  3  0  0  0  0  0  0
   23.7930   63.5620   -7.0030 C   0  0  0  0  0  3  0  0  0  0  0  0
   24.8220   63.0180   -6.0840 C   0  0  0  0  0  2  0  0  0  0  0  0
   24.3960   62.4670   -4.8420 N   0  0  0  0  0  4  0  0  0  0  0  0
   25.5260   62.1480   -4.0070 C   0  0  0  0  0  2  0  0  0  0  0  0
   25.9060   63.2670   -3.0600 C   0  0  0  0  0  2  0  0  0  0  0  0
   24.8830   63.4760   -2.1310 O   0  0  0  0  0  0  0  0  0  0  0  0
   23.6530   63.0590   -2.6430 C   0  0  0  0  0  2  0  0  0  0  0  0
   23.6060   63.4860   -4.0840 C   0  0  0  0  0  2  0  0  0  0  0  0
   23.7380   61.6990   -4.9510 H   0  0  0  0  0  0  0  0  0  0  0  0
   22.8100   63.0140  -11.5480 C   0  0  0  0  0  0  0  0  0  0  0  0
   24.1860   63.0320  -11.5400 C   0  0  0  0  0  3  0  0  0  0  0  0
   24.9290   63.3640  -12.6640 C   0  0  0  0  0  0  0  0  0  0  0  0
   26.8290   63.3880  -12.6670 Br  0  0  0  0  0  0  0  0  0  0  0  0
   24.2880   63.6910  -13.8400 C   0  0  0  0  0  3  0  0  0  0  0  0
   22.9120   63.6740  -13.8500 C   0  0  0  0  0  3  0  0  0  0  0  0
   22.1720   63.3360  -12.7080 C   0  0  0  0  0  3  0  0  0  0  0  0
   18.2310   62.7510  -10.8810 C   0  0  0  0  0  0  0  0  0  0  0  0
   17.7890   63.9760  -11.3210 C   0  0  0  0  0  3  0  0  0  0  0  0
   16.4550   64.3280  -11.3380 C   0  0  0  0  0  3  0  0  0  0  0  0
   15.4930   63.4450  -10.9020 C   0  0  0  0  0  0  0  0  0  0  0  0
   15.9180   62.2090  -10.4560 C   0  0  0  0  0  3  0  0  0  0  0  0
   13.7780   63.8710  -10.9140 Cl  0  0  0  0  0  0  0  0  0  0  0  0
   17.2560   61.8670  -10.4440 C   0  0  0  0  0  3  0  0  0  0  0  0
  1 20  1  6  0  0  0
  1  2  1  0  0  0  0
  2  3  1  0  0  0  0
  2 10  1  0  0  0  0
  3  4  2  0  0  0  0
  5  3  1  0  0  0  0
  6  5  2  0  0  0  0
  7  1  1  0  0  0  0
  7  5  1  0  0  0  0
  8  7  2  0  0  0  0
  9  8  1  0  0  0  0
 10 11  2  0  0  0  0
 11 12  1  0  0  0  0
 12 13  1  0  0  0  0
 13 18  1  0  0  0  0
 13 14  1  0  0  0  0
 14 15  1  0  0  0  0
 15 16  1  0  0  0  0
 17 16  1  0  0  0  0
 18 17  1  0  0  0  0
 19 13  1  0  0  0  0
 20 21  1  0  0  0  0
 22 21  2  0  0  0  0
 23 22  1  0  0  0  0
 24 22  1  0  0  0  0
 25 24  2  0  0  0  0
 25 26  1  0  0  0  0
 26 20  2  0  0  0  0
 27  8  1  0  0  0  0
 27 33  1  0  0  0  0
 28 27  2  0  0  0  0
 29 28  1  0  0  0  0
 29 30  2  0  0  0  0
 30 31  1  0  0  0  0
 31 33  2  0  0  0  0
 32 30  1  0  0  0  0
M  END
>  <Pose>
1

>  <Score>
-7.008

$$$$
