/Users/jonathanwahrer/Desktop/Msc/3_Semester/Drug_Design_Praktikum/waehrer_HTS_screening/HTS_experiment/out/docking_results/vina_output/3sx0/0182_docked.pdbqt
 OpenBabel03192221313D

 36 40  0  0  1  0  0  0  0  0999 V2000
   11.1110   63.4760  -15.4680 C   0  0  2  0  0  3  0  0  0  0  0  0
   12.3320   63.5460  -14.7440 N   0  0  0  0  0  0  0  0  0  0  0  0
   13.0830   64.5890  -15.4480 C   0  0  0  0  0  0  0  0  0  0  0  0
   14.3190   64.6870  -15.5120 O   0  0  0  0  0  0  0  0  0  0  0  0
   12.0790   65.4810  -16.0530 C   0  0  0  0  0  0  0  0  0  0  0  0
   12.2730   66.5090  -16.7410 O   0  0  0  0  0  0  0  0  0  0  0  0
   10.7850   64.9180  -15.6780 C   0  0  0  0  0  0  0  0  0  0  0  0
    9.6580   65.5660  -15.5310 C   0  0  0  0  0  0  0  0  0  0  0  0
    8.5400   64.8210  -15.0980 O   0  0  0  0  0  1  0  0  0  0  0  0
   10.0430   62.6270  -15.0340 C   0  0  0  0  0  0  0  0  0  0  0  0
    9.4840   61.7040  -15.9410 C   0  0  0  0  0  3  0  0  0  0  0  0
    8.4530   60.8620  -15.6150 C   0  0  0  0  0  0  0  0  0  0  0  0
    7.7450   59.6310  -16.9010 Br  0  0  0  0  0  0  0  0  0  0  0  0
    7.9000   60.8740  -14.3630 C   0  0  0  0  0  3  0  0  0  0  0  0
    8.4120   61.7590  -13.4420 C   0  0  0  0  0  3  0  0  0  0  0  0
    9.4490   62.5970  -13.7920 C   0  0  0  0  0  3  0  0  0  0  0  0
    9.5210   66.9900  -15.7990 C   0  0  0  0  0  0  0  0  0  0  0  0
   10.1130   68.0640  -15.2570 N   0  0  0  0  0  0  0  0  0  0  0  0
    9.6220   69.1760  -15.8110 C   0  0  0  0  0  0  0  0  0  0  0  0
   11.0840   68.0920  -14.3020 C   0  0  0  0  0  3  0  0  0  0  0  0
    8.6960   68.7940  -16.7290 N   0  0  0  0  0  0  0  0  0  0  0  0
   10.0750   70.4400  -15.4400 C   0  0  0  0  0  0  0  0  0  0  0  0
    8.6040   67.4580  -16.7540 C   0  0  0  0  0  0  0  0  0  0  0  0
    7.7100   66.6350  -17.6160 C   0  0  0  0  0  1  0  0  0  0  0  0
   11.0600   70.4980  -14.4730 C   0  0  0  0  0  3  0  0  0  0  0  0
    9.4920   71.6400  -16.0880 C   0  0  0  0  0  1  0  0  0  0  0  0
   11.5470   69.3280  -13.9210 C   0  0  0  0  0  3  0  0  0  0  0  0
   12.8930   62.8200  -13.6180 C   0  0  0  0  0  2  0  0  0  0  0  0
   13.6630   63.6480  -12.6480 C   0  0  0  0  0  2  0  0  0  0  0  0
   13.7570   63.0400  -11.3360 N   0  0  0  0  0  4  0  0  0  0  0  0
   14.7530   61.9930  -11.3070 C   0  0  0  0  0  2  0  0  0  0  0  0
   16.1530   62.6130  -11.3510 C   0  0  0  0  0  2  0  0  0  0  0  0
   16.2910   63.3220  -10.1520 O   0  0  0  0  0  0  0  0  0  0  0  0
   15.4440   64.4420  -10.2740 C   0  0  0  0  0  2  0  0  0  0  0  0
   13.9900   64.0330  -10.3050 C   0  0  0  0  0  2  0  0  0  0  0  0
   12.8400   62.5840  -11.1070 H   0  0  0  0  0  0  0  0  0  0  0  0
  1 10  1  1  0  0  0
  1  2  1  0  0  0  0
  2 28  1  0  0  0  0
  3  2  1  0  0  0  0
  4  3  2  0  0  0  0
  5  7  1  0  0  0  0
  5  3  1  0  0  0  0
  6  5  2  0  0  0  0
  7  8  2  0  0  0  0
  7  1  1  0  0  0  0
  8  9  1  0  0  0  0
 10 16  1  0  0  0  0
 11 12  1  0  0  0  0
 11 10  2  0  0  0  0
 12 14  2  0  0  0  0
 13 12  1  0  0  0  0
 14 15  1  0  0  0  0
 16 15  2  0  0  0  0
 17  8  1  0  0  0  0
 17 18  1  0  0  0  0
 18 20  1  0  0  0  0
 19 22  1  0  0  0  0
 19 18  1  0  0  0  0
 20 27  2  0  0  0  0
 21 19  2  0  0  0  0
 22 25  2  0  0  0  0
 23 21  1  0  0  0  0
 23 17  2  0  0  0  0
 24 23  1  0  0  0  0
 25 27  1  0  0  0  0
 26 22  1  0  0  0  0
 28 29  1  0  0  0  0
 29 30  1  0  0  0  0
 30 31  1  0  0  0  0
 30 36  1  0  0  0  0
 30 35  1  0  0  0  0
 32 31  1  0  0  0  0
 32 33  1  0  0  0  0
 34 33  1  0  0  0  0
 35 34  1  0  0  0  0
M  END
>  <Pose>
1

>  <Score>
-4.492

$$$$
