/Users/jonathanwahrer/Desktop/Msc/3_Semester/Drug_Design_Praktikum/waehrer_HTS_screening/HTS_experiment/out/docking_results/vina_output/3sx0/0184_docked.pdbqt
 OpenBabel03192221323D

 33 36  0  0  1  0  0  0  0  0999 V2000
   21.7070   62.7900  -10.1000 C   0  0  2  0  0  3  0  0  0  0  0  0
   22.1240   63.4360  -11.3290 N   0  0  0  0  0  0  0  0  0  0  0  0
   21.4090   62.7570  -12.3700 C   0  0  0  0  0  0  0  0  0  0  0  0
   21.7290   62.6510  -13.5670 O   0  0  0  0  0  0  0  0  0  0  0  0
   20.2060   62.2000  -11.7630 C   0  0  0  0  0  0  0  0  0  0  0  0
   19.2670   61.5180  -12.2720 O   0  0  0  0  0  0  0  0  0  0  0  0
   20.2490   62.5750  -10.3580 C   0  0  0  0  0  0  0  0  0  0  0  0
   19.2150   62.6450   -9.5430 C   0  0  0  0  0  0  0  0  0  0  0  0
   19.5040   62.9660   -8.2090 O   0  0  0  0  0  1  0  0  0  0  0  0
   21.9270   63.5810   -8.8830 C   0  0  0  0  0  0  0  0  0  0  0  0
   22.7690   63.2250   -7.8830 C   0  0  0  0  0  3  0  0  0  0  0  0
   22.9140   64.0320   -6.7550 C   0  0  0  0  0  0  0  0  0  0  0  0
   24.1040   63.4980   -5.3740 Br  0  0  0  0  0  0  0  0  0  0  0  0
   22.2080   65.2190   -6.6160 C   0  0  0  0  0  3  0  0  0  0  0  0
   21.3580   65.5630   -7.6440 C   0  0  0  0  0  3  0  0  0  0  0  0
   21.2140   64.7770   -8.7490 C   0  0  0  0  0  3  0  0  0  0  0  0
   17.8280   62.4240   -9.9250 C   0  0  0  0  0  0  0  0  0  0  0  0
   16.9170   63.3460  -10.2700 N   0  0  0  0  0  0  0  0  0  0  0  0
   15.7400   62.7590  -10.6070 C   0  0  0  0  0  0  0  0  0  0  0  0
   16.9670   64.7100  -10.3220 C   0  0  0  0  0  3  0  0  0  0  0  0
   15.9560   61.4230  -10.4540 N   0  0  0  0  0  0  0  0  0  0  0  0
   14.6220   63.4830  -10.9910 C   0  0  0  0  0  3  0  0  0  0  0  0
   17.1900   61.1800  -10.0480 C   0  0  0  0  0  0  0  0  0  0  0  0
   17.8880   59.9100   -9.7470 C   0  0  0  0  0  1  0  0  0  0  0  0
   14.6810   64.8600  -11.0420 C   0  0  0  0  0  3  0  0  0  0  0  0
   15.8890   65.4520  -10.6950 C   0  0  0  0  0  3  0  0  0  0  0  0
   23.0790   64.5340  -11.5030 C   0  0  0  0  0  2  0  0  0  0  0  0
   24.4610   64.0780  -11.7970 C   0  0  0  0  0  2  0  0  0  0  0  0
   24.8280   63.8010  -13.1960 C   0  0  0  0  0  2  0  0  0  0  0  0
   26.1750   64.0620  -13.5670 N   0  0  0  0  0  4  0  0  0  0  0  0
   26.3830   63.7250  -14.9550 C   0  0  0  0  0  1  0  0  0  0  0  0
   27.0700   63.1720  -12.8020 C   0  0  0  0  0  1  0  0  0  0  0  0
   26.5130   65.0190  -13.3270 H   0  0  0  0  0  0  0  0  0  0  0  0
  1 10  1  1  0  0  0
  2  1  1  0  0  0  0
  3  5  1  0  0  0  0
  3  2  1  0  0  0  0
  4  3  2  0  0  0  0
  5  7  1  0  0  0  0
  6  5  2  0  0  0  0
  7  1  1  0  0  0  0
  7  8  2  0  0  0  0
  8  9  1  0  0  0  0
 10 16  2  0  0  0  0
 10 11  1  0  0  0  0
 11 12  2  0  0  0  0
 12 14  1  0  0  0  0
 12 13  1  0  0  0  0
 15 14  2  0  0  0  0
 16 15  1  0  0  0  0
 17  8  1  0  0  0  0
 18 17  1  0  0  0  0
 19 21  2  0  0  0  0
 19 18  1  0  0  0  0
 20 18  1  0  0  0  0
 21 23  1  0  0  0  0
 22 19  1  0  0  0  0
 23 17  2  0  0  0  0
 23 24  1  0  0  0  0
 25 22  2  0  0  0  0
 25 26  1  0  0  0  0
 26 20  2  0  0  0  0
 27  2  1  0  0  0  0
 28 27  1  0  0  0  0
 29 28  1  0  0  0  0
 30 33  1  0  0  0  0
 30 29  1  0  0  0  0
 30 32  1  0  0  0  0
 31 30  1  0  0  0  0
M  END
>  <Pose>
1

>  <Score>
-4.795

$$$$
