/Users/jonathanwahrer/Desktop/Msc/3_Semester/Drug_Design_Praktikum/waehrer_HTS_screening/HTS_experiment/out/docking_results/vina_output/3sx0/0188_docked.pdbqt
 OpenBabel03192221323D

 31 34  0  0  1  0  0  0  0  0999 V2000
   11.4110   66.1070  -15.8690 C   0  0  2  0  0  3  0  0  0  0  0  0
   10.1060   65.4850  -16.0340 N   0  0  0  0  0  0  0  0  0  0  0  0
    9.6600   65.2930  -14.6710 C   0  0  0  0  0  0  0  0  0  0  0  0
    8.4770   65.1990  -14.2800 O   0  0  0  0  0  0  0  0  0  0  0  0
   10.8280   65.2250  -13.8020 C   0  0  0  0  0  0  0  0  0  0  0  0
   10.9250   65.0720  -12.5570 O   0  0  0  0  0  0  0  0  0  0  0  0
   11.9870   65.3800  -14.6790 C   0  0  0  0  0  0  0  0  0  0  0  0
   13.2230   65.0160  -14.4920 C   0  0  0  0  0  0  0  0  0  0  0  0
   14.1640   65.3230  -15.4980 O   0  0  0  0  0  1  0  0  0  0  0  0
    9.3580   65.1340  -17.2120 C   0  0  0  0  0  2  0  0  0  0  0  0
    9.4980   63.6850  -17.6160 C   0  0  0  0  0  2  0  0  0  0  0  0
    8.4070   62.8930  -17.0130 C   0  0  0  0  0  2  0  0  0  0  0  0
    8.8020   61.6100  -16.4770 N   0  0  0  0  0  4  0  0  0  0  0  0
   10.2350   61.4750  -16.3640 C   0  0  0  0  0  2  0  0  0  0  0  0
   10.7890   61.7890  -15.0200 C   0  0  0  0  0  2  0  0  0  0  0  0
   10.0590   61.3170  -13.9500 O   0  0  0  0  0  0  0  0  0  0  0  0
    8.7060   61.6230  -14.0180 C   0  0  0  0  0  2  0  0  0  0  0  0
    8.0910   61.1810  -15.3210 C   0  0  0  0  0  2  0  0  0  0  0  0
    8.5360   60.9200  -17.2500 H   0  0  0  0  0  0  0  0  0  0  0  0
   11.2830   67.5340  -15.4520 C   0  0  0  0  0  0  0  0  0  0  0  0
   10.4450   68.3900  -16.1330 C   0  0  0  0  0  3  0  0  0  0  0  0
   10.2890   69.7230  -15.7890 C   0  0  0  0  0  0  0  0  0  0  0  0
    9.1090   70.8770  -16.7650 Br  0  0  0  0  0  0  0  0  0  0  0  0
   10.9950   70.2340  -14.7190 C   0  0  0  0  0  3  0  0  0  0  0  0
   11.8410   69.3930  -14.0210 C   0  0  0  0  0  3  0  0  0  0  0  0
   11.9870   68.0520  -14.3820 C   0  0  0  0  0  3  0  0  0  0  0  0
   13.6140   64.3120  -13.2850 C   0  0  0  0  0  0  0  0  0  0  0  0
   13.3930   63.0390  -13.0910 O   0  0  0  0  0  0  0  0  0  0  0  0
   13.8380   62.6530  -11.9260 C   0  0  0  0  0  3  0  0  0  0  0  0
   14.3880   63.7330  -11.3040 C   0  0  0  0  0  3  0  0  0  0  0  0
   14.2450   64.8150  -12.1810 C   0  0  0  0  0  3  0  0  0  0  0  0
  1 20  1  1  0  0  0
  1  7  1  0  0  0  0
  2  1  1  0  0  0  0
  2  3  1  0  0  0  0
  3  4  2  0  0  0  0
  3  5  1  0  0  0  0
  5  6  2  0  0  0  0
  7  8  2  0  0  0  0
  7  5  1  0  0  0  0
  8 27  1  0  0  0  0
  9  8  1  0  0  0  0
 10  2  1  0  0  0  0
 11 10  1  0  0  0  0
 11 12  1  0  0  0  0
 12 13  1  0  0  0  0
 13 14  1  0  0  0  0
 13 18  1  0  0  0  0
 14 15  1  0  0  0  0
 15 16  1  0  0  0  0
 17 16  1  0  0  0  0
 18 17  1  0  0  0  0
 19 13  1  0  0  0  0
 20 26  1  0  0  0  0
 21 22  1  0  0  0  0
 21 20  2  0  0  0  0
 22 24  2  0  0  0  0
 23 22  1  0  0  0  0
 24 25  1  0  0  0  0
 26 25  2  0  0  0  0
 27 28  1  0  0  0  0
 27 31  2  0  0  0  0
 28 29  1  0  0  0  0
 29 30  2  0  0  0  0
 31 30  1  0  0  0  0
M  END
>  <Pose>
1

>  <Score>
-4.796

$$$$
