/Users/jonathanwahrer/Desktop/Msc/3_Semester/Drug_Design_Praktikum/waehrer_HTS_screening/HTS_experiment/out/docking_results/vina_output/3sx0/0199_docked.pdbqt
 OpenBabel03192221323D

 25 28  0  0  1  0  0  0  0  0999 V2000
   22.1470   64.4050   -9.7430 C   0  0  2  0  0  3  0  0  0  0  0  0
   20.6750   64.6430   -9.5300 C   0  0  0  0  0  2  0  0  0  0  0  0
   20.3450   63.3610  -10.1710 N   0  0  0  0  0  0  0  0  0  0  0  0
   21.6750   63.3980  -10.7510 C   0  0  0  0  0  2  0  0  0  0  0  0
   22.8480   63.8130   -8.5500 C   0  0  0  0  0  0  0  0  0  0  0  0
   22.7210   64.4420   -7.3020 N   0  0  0  0  0  0  0  0  0  0  0  0
   22.1170   65.3410   -7.2330 H   0  0  0  0  0  0  0  0  0  0  0  0
   23.5010   62.7850   -8.7810 O   0  0  0  0  0  0  0  0  0  0  0  0
   23.3180   64.0030   -6.1050 C   0  0  0  0  0  0  0  0  0  0  0  0
   24.5460   63.3260   -6.1620 C   0  0  0  0  0  3  0  0  0  0  0  0
   25.1970   62.8640   -5.0420 C   0  0  0  0  0  0  0  0  0  0  0  0
   26.8640   61.9490   -5.1660 Br  0  0  0  0  0  0  0  0  0  0  0  0
   24.6460   63.0600   -3.8110 C   0  0  0  0  0  3  0  0  0  0  0  0
   23.4570   63.7130   -3.7270 C   0  0  0  0  0  3  0  0  0  0  0  0
   22.7890   64.1860   -4.8580 C   0  0  0  0  0  3  0  0  0  0  0  0
   19.1940   62.5270  -10.1660 C   0  0  0  0  0  0  0  0  0  0  0  0
   19.2410   61.2340   -9.7510 N   0  0  0  0  0  0  0  0  0  0  0  0
   18.1210   60.4540   -9.7550 C   0  0  0  0  0  3  0  0  0  0  0  0
   16.9440   60.9340  -10.1670 N   0  0  0  0  0  0  0  0  0  0  0  0
   16.8250   62.1940  -10.5880 C   0  0  0  0  0  0  0  0  0  0  0  0
   15.7730   62.9020  -11.0450 N   0  0  0  0  0  0  0  0  0  0  0  0
   17.9590   62.9810  -10.5830 C   0  0  0  0  0  0  0  0  0  0  0  0
   16.2270   64.1050  -11.3210 N   0  0  0  0  0  0  0  0  0  0  0  0
   14.3920   62.4570  -11.2110 C   0  0  0  0  0  1  0  0  0  0  0  0
   17.5360   64.1850  -11.0550 N   0  0  0  0  0  0  0  0  0  0  0  0
  1  2  1  0  0  0  0
  1  5  1  1  0  0  0
  3 16  1  0  0  0  0
  3  2  1  0  0  0  0
  4  3  1  0  0  0  0
  4  1  1  0  0  0  0
  5  6  1  0  0  0  0
  6  7  1  0  0  0  0
  6  9  1  0  0  0  0
  8  5  2  0  0  0  0
  9 15  1  0  0  0  0
 10  9  2  0  0  0  0
 10 11  1  0  0  0  0
 11 13  2  0  0  0  0
 12 11  1  0  0  0  0
 13 14  1  0  0  0  0
 15 14  2  0  0  0  0
 16 17  1  0  0  0  0
 18 17  2  0  0  0  0
 19 18  1  0  0  0  0
 20 22  1  0  0  0  0
 20 19  2  0  0  0  0
 21 20  1  0  0  0  0
 22 16  2  0  0  0  0
 23 25  2  0  0  0  0
 23 21  1  0  0  0  0
 24 21  1  0  0  0  0
 25 22  1  0  0  0  0
M  END
>  <Pose>
1

>  <Score>
-8.527

$$$$
