/Users/jonathanwahrer/Desktop/Msc/3_Semester/Drug_Design_Praktikum/waehrer_HTS_screening/HTS_experiment/out/docking_results/vina_output/3sx0/0200_docked.pdbqt
 OpenBabel03192221333D

 21 24  0  0  1  0  0  0  0  0999 V2000
   18.2960   63.1050  -10.2250 C   0  0  1  0  0  3  0  0  0  0  0  0
   18.4890   61.8420   -9.8580 N   0  0  0  0  0  0  0  0  0  0  0  0
   17.5880   60.8530   -9.9780 C   0  0  0  0  0  0  0  0  0  0  0  0
   17.5400   59.5400   -9.6940 N   0  0  0  0  0  2  0  0  0  0  0  0
   16.3950   59.0290  -10.0190 O   0  0  0  0  0  0  0  0  0  0  0  0
   15.6760   59.9730  -10.5150 N   0  0  0  0  0  0  0  0  0  0  0  0
   16.3450   61.1380  -10.5250 C   0  0  0  0  0  0  0  0  0  0  0  0
   16.1020   62.4000  -10.9110 N   0  0  0  0  0  0  0  0  0  0  0  0
   15.0010   62.9140  -11.4540 N   0  0  0  0  0  0  0  0  0  0  0  0
   15.2360   64.2180  -11.6640 N   0  0  0  0  0  0  0  0  0  0  0  0
   16.4750   64.4860  -11.2470 N   0  0  0  0  0  0  0  0  0  0  0  0
   17.0250   63.3640  -10.7760 C   0  0  0  0  0  0  0  0  0  0  0  0
   19.2120   64.1770  -10.1180 N   0  0  0  0  0  0  0  0  0  0  0  0
   18.8660   65.1740  -10.2180 H   0  0  0  0  0  0  0  0  0  0  0  0
   20.5950   64.0300   -9.8810 C   0  0  0  0  0  0  0  0  0  0  0  0
   21.5540   63.7060  -10.8020 C   0  0  0  0  0  3  0  0  0  0  0  0
   22.9050   63.5710  -10.5280 C   0  0  0  0  0  0  0  0  0  0  0  0
   24.1630   63.1150  -11.8870 Br  0  0  0  0  0  0  0  0  0  0  0  0
   23.3380   63.7720   -9.2430 C   0  0  0  0  0  3  0  0  0  0  0  0
   22.4240   64.1020   -8.2680 C   0  0  0  0  0  3  0  0  0  0  0  0
   21.0910   64.2270   -8.5750 C   0  0  0  0  0  3  0  0  0  0  0  0
  1 13  1  1  0  0  0
  1  2  1  0  0  0  0
  3  2  2  0  0  0  0
  3  4  1  0  0  0  0
  5  4  1  0  0  0  0
  6  5  1  0  0  0  0
  7  6  2  0  0  0  0
  7  3  1  0  0  0  0
  8 12  1  0  0  0  0
  8  7  1  0  0  0  0
  9  8  1  0  0  0  0
 10  9  2  0  0  0  0
 10 11  1  0  0  0  0
 11 12  2  0  0  0  0
 12  1  1  0  0  0  0
 13 15  1  0  0  0  0
 14 13  1  0  0  0  0
 15 21  1  0  0  0  0
 16 17  1  0  0  0  0
 16 15  2  0  0  0  0
 17 19  2  0  0  0  0
 18 17  1  0  0  0  0
 19 20  1  0  0  0  0
 21 20  2  0  0  0  0
M  END
>  <Pose>
1

>  <Score>
-9.351

$$$$
