/Users/jonathanwahrer/Desktop/Msc/3_Semester/Drug_Design_Praktikum/waehrer_HTS_screening/HTS_experiment/out/docking_results/vina_output/3sx0/0201_docked.pdbqt
 OpenBabel03192221333D

 25 28  0  0  0  0  0  0  0  0999 V2000
   21.7780   64.2440   -8.2900 C   0  0  0  0  0  0  0  0  0  0  0  0
   22.7690   64.8940   -8.7050 O   0  0  0  0  0  0  0  0  0  0  0  0
   21.5560   64.1520   -6.9010 N   0  0  0  0  0  0  0  0  0  0  0  0
   20.7260   63.6070   -6.5750 H   0  0  0  0  0  0  0  0  0  0  0  0
   20.9030   63.6180   -9.2750 C   0  0  0  0  0  0  0  0  0  0  0  0
   21.2090   63.2440  -10.5410 N   0  0  0  0  0  0  0  0  0  0  0  0
   20.1270   62.7170  -11.0890 N   0  0  0  0  0  0  0  0  0  0  0  0
   19.1300   62.7270  -10.2450 N   0  0  0  0  0  0  0  0  0  0  0  0
   19.5790   63.2820   -9.1070 C   0  0  0  0  0  3  0  0  0  0  0  0
   17.7850   62.2590  -10.4190 C   0  0  0  0  0  0  0  0  0  0  0  0
   16.7310   63.0980  -10.6880 C   0  0  0  0  0  3  0  0  0  0  0  0
   15.4370   62.5930  -10.8500 C   0  0  0  0  0  0  0  0  0  0  0  0
   13.9730   63.7540  -11.2230 Br  0  0  0  0  0  0  0  0  0  0  0  0
   15.1890   61.2420  -10.7420 C   0  0  0  0  0  3  0  0  0  0  0  0
   16.2370   60.3920  -10.4730 C   0  0  0  0  0  3  0  0  0  0  0  0
   17.5270   60.9100  -10.3140 C   0  0  0  0  0  3  0  0  0  0  0  0
   22.4000   64.7570   -5.8960 C   0  0  0  0  0  2  0  0  0  0  0  0
   23.5560   63.8600   -5.5460 C   0  0  0  0  0  0  0  0  0  0  0  0
   23.8450   63.2940   -4.3500 N   0  0  0  0  0  0  0  0  0  0  0  0
   24.9590   62.5630   -4.4600 C   0  0  0  0  0  0  0  0  0  0  0  0
   23.3150   63.2460   -2.9980 C   0  0  0  0  0  2  0  0  0  0  0  0
   25.3590   62.6870   -5.7490 N   0  0  0  0  0  0  0  0  0  0  0  0
   25.3160   61.9160   -3.1460 C   0  0  0  0  0  2  0  0  0  0  0  0
   24.5170   63.4650   -6.4000 N   0  0  0  0  0  0  0  0  0  0  0  0
   24.4950   62.7500   -2.1850 C   0  0  0  0  0  2  0  0  0  0  0  0
  1  3  1  0  0  0  0
  2  1  2  0  0  0  0
  3  4  1  0  0  0  0
  3 17  1  0  0  0  0
  5  9  2  0  0  0  0
  5  1  1  0  0  0  0
  6  5  1  0  0  0  0
  7  6  2  0  0  0  0
  7  8  1  0  0  0  0
  8  9  1  0  0  0  0
 10 16  1  0  0  0  0
 10  8  1  0  0  0  0
 11 10  2  0  0  0  0
 12 14  2  0  0  0  0
 12 11  1  0  0  0  0
 13 12  1  0  0  0  0
 14 15  1  0  0  0  0
 15 16  2  0  0  0  0
 17 18  1  0  0  0  0
 18 19  1  0  0  0  0
 19 21  1  0  0  0  0
 20 19  1  0  0  0  0
 20 23  1  0  0  0  0
 21 25  1  0  0  0  0
 22 20  2  0  0  0  0
 23 25  1  0  0  0  0
 24 22  1  0  0  0  0
 24 18  2  0  0  0  0
M  END
>  <Pose>
1

>  <Score>
-9.817

$$$$
