/Users/jonathanwahrer/Desktop/Msc/3_Semester/Drug_Design_Praktikum/waehrer_HTS_screening/HTS_experiment/out/docking_results/vina_output/3sx0/0205_docked.pdbqt
 OpenBabel03192221333D

 25 28  0  0  1  0  0  0  0  0999 V2000
   19.1840   62.5490  -10.6860 N   0  0  0  0  0  0  0  0  0  0  0  0
   20.1040   62.6660  -11.7900 C   0  0  0  0  0  0  0  0  0  0  0  0
   19.9860   62.0210  -12.8700 O   0  0  0  0  0  0  0  0  0  0  0  0
   21.1500   63.6260  -11.4450 C   0  0  2  0  0  3  0  0  0  0  0  0
   22.4180   63.3850  -11.8950 O   0  0  0  0  0  0  0  0  0  0  0  0
   23.1980   63.8820  -10.8530 N   0  0  0  0  0  0  0  0  0  0  0  0
   22.5720   63.5460   -9.6380 C   0  0  0  0  0  0  0  0  0  0  0  0
   21.2830   63.3690   -9.9620 C   0  0  0  0  0  0  0  0  0  0  0  0
   19.9370   62.9950   -9.5440 C   0  0  0  0  0  0  0  0  0  0  0  0
   19.5050   63.0510   -8.3740 O   0  0  0  0  0  0  0  0  0  0  0  0
   24.0790   64.4030  -10.9550 H   0  0  0  0  0  0  0  0  0  0  0  0
   17.8450   62.0970  -10.6780 C   0  0  0  0  0  0  0  0  0  0  0  0
   16.7730   62.9640  -10.8750 C   0  0  0  0  0  3  0  0  0  0  0  0
   15.4590   62.5680  -10.8760 C   0  0  0  0  0  0  0  0  0  0  0  0
   14.0160   63.7850  -11.1450 Br  0  0  0  0  0  0  0  0  0  0  0  0
   15.1350   61.2420  -10.6750 C   0  0  0  0  0  3  0  0  0  0  0  0
   16.1940   60.3600  -10.4780 C   0  0  0  0  0  3  0  0  0  0  0  0
   17.5060   60.7680  -10.4780 C   0  0  0  0  0  3  0  0  0  0  0  0
   23.1400   63.4560   -8.3020 C   0  0  0  0  0  0  0  0  0  0  0  0
   22.7600   64.2570   -7.2220 C   0  0  0  0  0  0  0  0  0  0  0  0
   23.4560   63.8880   -6.1650 N   0  0  0  0  0  0  0  0  0  0  0  0
   21.7650   65.3550   -7.2560 C   0  0  0  0  0  1  0  0  0  0  0  0
   24.2630   62.8920   -6.5200 N   0  0  0  0  0  0  0  0  0  0  0  0
   23.3820   64.4620   -4.8220 C   0  0  0  0  0  1  0  0  0  0  0  0
   24.0930   62.6140   -7.8010 C   0  0  0  0  0  3  0  0  0  0  0  0
  1 12  1  0  0  0  0
  1  9  1  0  0  0  0
  2  4  1  0  0  0  0
  2  1  1  0  0  0  0
  3  2  2  0  0  0  0
  4  5  1  6  0  0  0
  4  8  1  0  0  0  0
  5  6  1  0  0  0  0
  6  7  1  0  0  0  0
  7 19  1  0  0  0  0
  8  7  2  0  0  0  0
  8  9  1  0  0  0  0
  9 10  2  0  0  0  0
 11  6  1  0  0  0  0
 12 18  1  0  0  0  0
 13 12  2  0  0  0  0
 14 13  1  0  0  0  0
 14 16  2  0  0  0  0
 15 14  1  0  0  0  0
 16 17  1  0  0  0  0
 18 17  2  0  0  0  0
 19 25  1  0  0  0  0
 19 20  2  0  0  0  0
 20 21  1  0  0  0  0
 21 24  1  0  0  0  0
 22 20  1  0  0  0  0
 23 21  1  0  0  0  0
 25 23  2  0  0  0  0
M  END
>  <Pose>
1

>  <Score>
-9.461

$$$$
