/Users/jonathanwahrer/Desktop/Msc/3_Semester/Drug_Design_Praktikum/waehrer_HTS_screening/HTS_experiment/out/docking_results/vina_output/3sx0/0211_docked.pdbqt
 OpenBabel03192221333D

 22 25  0  0  1  0  0  0  0  0999 V2000
   20.9910   64.0010   -9.6030 N   0  0  0  0  0  0  0  0  0  0  0  0
   21.2260   65.1740   -8.8370 C   0  0  0  0  0  0  0  0  0  0  0  0
   20.3690   66.1160   -8.6590 O   0  0  0  0  0  0  0  0  0  0  0  0
   22.5910   65.1250   -8.2930 C   0  0  1  0  0  3  0  0  0  0  0  0
   22.5310   64.5190   -6.9250 C   0  0  1  0  0  0  0  0  0  0  0  0
   22.2240   63.1780   -7.2720 O   0  0  0  0  0  0  0  0  0  0  0  0
   23.3970   62.9430   -8.0370 C   0  0  1  0  0  3  0  0  0  0  0  0
   23.2580   64.0330   -9.0830 C   0  0  1  0  0  3  0  0  0  0  0  0
   22.2570   63.5550  -10.0580 C   0  0  0  0  0  0  0  0  0  0  0  0
   22.5010   62.8790  -11.0910 O   0  0  0  0  0  0  0  0  0  0  0  0
   24.4280   63.3030   -7.0370 C   0  0  0  0  0  2  0  0  0  0  0  0
   23.8690   64.2920   -6.3140 C   0  0  0  0  0  2  0  0  0  0  0  0
   19.7090   63.3860   -9.8680 C   0  0  0  0  0  0  0  0  0  0  0  0
   18.5440   64.1310   -9.9710 C   0  0  0  0  0  3  0  0  0  0  0  0
   17.3150   63.6100  -10.2190 C   0  0  0  0  0  0  0  0  0  0  0  0
   15.7980   64.7640  -10.3330 Br  0  0  0  0  0  0  0  0  0  0  0  0
   17.1970   62.2430  -10.3830 C   0  0  0  0  0  3  0  0  0  0  0  0
   18.3270   61.4580  -10.2900 C   0  0  0  0  0  3  0  0  0  0  0  0
   19.5770   62.0260  -10.0330 C   0  0  0  0  0  3  0  0  0  0  0  0
   21.5440   65.1260   -6.0020 C   0  0  0  0  0  2  0  0  0  0  0  0
   20.9630   64.1120   -5.2380 O   0  0  0  0  0  0  0  0  0  0  0  0
   20.3610   64.5000   -4.5540 H   0  0  0  0  0  0  0  0  0  0  0  0
  1  2  1  0  0  0  0
  2  3  2  0  0  0  0
  4  2  1  6  0  0  0
  4  5  1  0  0  0  0
  5 12  1  0  0  0  0
  5 20  1  1  0  0  0
  6  5  1  0  0  0  0
  7  6  1  0  0  0  0
  7 11  1  1  0  0  0
  8  9  1  6  0  0  0
  8  4  1  0  0  0  0
  8  7  1  0  0  0  0
  9  1  1  0  0  0  0
 10  9  2  0  0  0  0
 11 12  1  0  0  0  0
 13  1  1  0  0  0  0
 14 13  1  0  0  0  0
 15 14  2  0  0  0  0
 16 15  1  0  0  0  0
 17 18  2  0  0  0  0
 17 15  1  0  0  0  0
 18 19  1  0  0  0  0
 19 13  2  0  0  0  0
 20 21  1  0  0  0  0
 21 22  1  0  0  0  0
M  END
>  <Pose>
1

>  <Score>
-7.079

$$$$
