/Users/jonathanwahrer/Desktop/Msc/3_Semester/Drug_Design_Praktikum/waehrer_HTS_screening/HTS_experiment/out/docking_results/vina_output/3sx0/0226_docked.pdbqt
 OpenBabel03192221343D

 30 33  0  0  0  0  0  0  0  0999 V2000
   22.0520   63.3530  -10.1620 N   0  0  0  0  0  0  0  0  0  0  0  0
   22.4040   63.3240  -11.4580 C   0  0  0  0  0  0  0  0  0  0  0  0
   23.6990   63.7830  -11.6000 C   0  0  0  0  0  0  0  0  0  0  0  0
   24.1000   64.0790  -10.3580 N   0  0  0  0  0  0  0  0  0  0  0  0
   23.1240   63.8290   -9.4670 C   0  0  0  0  0  0  0  0  0  0  0  0
   24.2660   63.8400  -12.8190 N   0  0  0  0  0  0  0  0  0  0  0  0
   23.5830   63.4550  -13.9120 C   0  0  0  0  0  0  0  0  0  0  0  0
   24.0740   63.4930  -15.0680 O   0  0  0  0  0  0  0  0  0  0  0  0
   22.3060   63.0010  -13.7860 N   0  0  0  0  0  0  0  0  0  0  0  0
   21.6960   62.9250  -12.5900 C   0  0  0  0  0  0  0  0  0  0  0  0
   20.4990   62.4960  -12.5130 O   0  0  0  0  0  0  0  0  0  0  0  0
   25.6210   64.3170  -13.0020 C   0  0  0  0  0  1  0  0  0  0  0  0
   21.8110   62.7100  -14.6610 H   0  0  0  0  0  0  0  0  0  0  0  0
   20.7970   62.9530   -9.5910 C   0  0  0  0  0  2  0  0  0  0  0  0
   19.7120   63.9630   -9.7930 C   0  0  0  0  0  0  0  0  0  0  0  0
   19.9450   65.1770   -9.6770 O   0  0  0  0  0  0  0  0  0  0  0  0
   18.3530   63.5420  -10.1300 C   0  0  0  0  0  0  0  0  0  0  0  0
   18.0070   62.2160  -10.2040 C   0  0  0  0  0  3  0  0  0  0  0  0
   16.7190   61.8210  -10.5260 C   0  0  0  0  0  3  0  0  0  0  0  0
   15.7200   62.7470  -10.7910 C   0  0  0  0  0  0  0  0  0  0  0  0
   13.9650   62.1630  -11.2300 Br  0  0  0  0  0  0  0  0  0  0  0  0
   16.0650   64.0780  -10.7180 C   0  0  0  0  0  3  0  0  0  0  0  0
   17.3490   64.4560  -10.3960 C   0  0  0  0  0  3  0  0  0  0  0  0
   23.1390   63.9980   -8.0620 N   0  0  0  0  0  0  0  0  0  0  0  0
   23.8060   63.0280   -7.2540 C   0  0  0  0  0  2  0  0  0  0  0  0
   24.1090   63.4050   -5.8520 C   0  0  0  0  0  2  0  0  0  0  0  0
   23.2640   64.4120   -5.2810 N   0  0  0  0  0  0  0  0  0  0  0  0
   23.2330   65.5400   -6.1910 C   0  0  0  0  0  2  0  0  0  0  0  0
   21.9550   63.9380   -4.9340 C   0  0  0  0  0  1  0  0  0  0  0  0
   22.4970   65.1300   -7.4690 C   0  0  0  0  0  2  0  0  0  0  0  0
  1 14  1  0  0  0  0
  1  5  1  0  0  0  0
  2  1  1  0  0  0  0
  3  2  2  0  0  0  0
  3  4  1  0  0  0  0
  4  5  2  0  0  0  0
  5 24  1  0  0  0  0
  6  3  1  0  0  0  0
  7  9  1  0  0  0  0
  7  6  1  0  0  0  0
  8  7  2  0  0  0  0
  9 10  1  0  0  0  0
 10 11  2  0  0  0  0
 10  2  1  0  0  0  0
 12  6  1  0  0  0  0
 13  9  1  0  0  0  0
 15 16  2  0  0  0  0
 15 14  1  0  0  0  0
 17 15  1  0  0  0  0
 18 17  1  0  0  0  0
 19 18  2  0  0  0  0
 20 22  2  0  0  0  0
 20 19  1  0  0  0  0
 21 20  1  0  0  0  0
 22 23  1  0  0  0  0
 23 17  2  0  0  0  0
 24 30  1  0  0  0  0
 24 25  1  0  0  0  0
 25 26  1  0  0  0  0
 26 27  1  0  0  0  0
 27 29  1  0  0  0  0
 28 27  1  0  0  0  0
 30 28  1  0  0  0  0
M  END
>  <Pose>
1

>  <Score>
-6.516

$$$$
