/Users/jonathanwahrer/Desktop/Msc/3_Semester/Drug_Design_Praktikum/waehrer_HTS_screening/HTS_experiment/out/docking_results/vina_output/3sx0/0231_docked.pdbqt
 OpenBabel03192221343D

 34 37  0  0  1  0  0  0  0  0999 V2000
   22.5900   64.4710   -9.0900 C   0  0  2  0  0  3  0  0  0  0  0  0
   21.9060   64.1800  -10.4030 C   0  0  1  0  0  3  0  0  0  0  0  0
   22.9170   63.4310  -11.1130 N   0  0  0  0  0  0  0  0  0  0  0  0
   23.6130   62.6690  -10.1320 C   0  0  0  0  0  0  0  0  0  0  0  0
   24.4810   61.7730  -10.3660 O   0  0  0  0  0  0  0  0  0  0  0  0
   23.1480   63.0990   -8.7990 C   0  0  0  0  0  0  0  0  0  0  0  0
   23.2180   62.4660   -7.7340 O   0  0  0  0  0  0  0  0  0  0  0  0
   21.7180   64.9450   -8.0310 C   0  0  0  0  0  0  0  0  0  0  0  0
   20.7600   64.2560   -7.6240 O   0  0  0  0  0  0  0  0  0  0  0  0
   21.9520   66.2410   -7.4220 C   0  0  0  0  0  0  0  0  0  0  0  0
   23.1180   66.4870   -6.6870 C   0  0  0  0  0  3  0  0  0  0  0  0
   23.3590   67.7010   -6.0980 C   0  0  0  0  0  3  0  0  0  0  0  0
   22.4360   68.7110   -6.2280 C   0  0  0  0  0  0  0  0  0  0  0  0
   22.7870   70.3840   -5.4050 Br  0  0  0  0  0  0  0  0  0  0  0  0
   21.2760   68.5340   -6.9340 C   0  0  0  0  0  3  0  0  0  0  0  0
   21.0670   67.2960   -7.5140 C   0  0  0  0  0  3  0  0  0  0  0  0
   20.6280   63.4960  -10.2790 C   0  0  0  0  0  0  0  0  0  0  0  0
   19.4230   64.0930  -10.6760 C   0  0  0  0  0  3  0  0  0  0  0  0
   18.2150   63.4370  -10.5590 C   0  0  0  0  0  0  0  0  0  0  0  0
   18.1470   62.1550  -10.0440 C   0  0  0  0  0  0  0  0  0  0  0  0
   19.3200   61.5490   -9.6490 C   0  0  0  0  0  3  0  0  0  0  0  0
   16.9440   61.4720   -9.9160 O   0  0  0  0  0  1  0  0  0  0  0  0
   20.5260   62.2220   -9.7720 C   0  0  0  0  0  3  0  0  0  0  0  0
   17.0230   64.0210  -10.9480 O   0  0  0  0  0  0  0  0  0  0  0  0
   16.2200   64.7940  -10.0930 C   0  0  0  0  0  1  0  0  0  0  0  0
   23.2290   63.4010  -12.5200 C   0  0  0  0  0  2  0  0  0  0  0  0
   24.6970   63.2970  -12.8060 C   0  0  0  0  0  2  0  0  0  0  0  0
   25.2300   64.3090  -13.6330 N   0  0  0  0  0  4  0  0  0  0  0  0
   24.5160   64.2740  -14.9140 C   0  0  0  0  0  2  0  0  0  0  0  0
   24.8590   63.0700  -15.7280 C   0  0  0  0  0  2  0  0  0  0  0  0
   25.9750   62.3880  -15.3070 O   0  0  0  0  0  0  0  0  0  0  0  0
   26.9940   63.2500  -14.9840 C   0  0  0  0  0  2  0  0  0  0  0  0
   26.6200   64.2400  -13.9140 C   0  0  0  0  0  2  0  0  0  0  0  0
   25.0230   65.2700  -13.2410 H   0  0  0  0  0  0  0  0  0  0  0  0
  1  6  1  0  0  0  0
  1  8  1  1  0  0  0
  2 17  1  1  0  0  0
  2  1  1  0  0  0  0
  3  2  1  0  0  0  0
  3  4  1  0  0  0  0
  4  6  1  0  0  0  0
  5  4  2  0  0  0  0
  6  7  2  0  0  0  0
  8  9  2  0  0  0  0
  8 10  1  0  0  0  0
 10 11  1  0  0  0  0
 11 12  2  0  0  0  0
 13 12  1  0  0  0  0
 13 14  1  0  0  0  0
 15 13  2  0  0  0  0
 16 10  2  0  0  0  0
 16 15  1  0  0  0  0
 17 23  1  0  0  0  0
 18 19  1  0  0  0  0
 18 17  2  0  0  0  0
 19 20  2  0  0  0  0
 20 22  1  0  0  0  0
 20 21  1  0  0  0  0
 23 21  2  0  0  0  0
 24 19  1  0  0  0  0
 24 25  1  0  0  0  0
 26  3  1  0  0  0  0
 27 26  1  0  0  0  0
 28 34  1  0  0  0  0
 28 27  1  0  0  0  0
 29 28  1  0  0  0  0
 30 31  1  0  0  0  0
 30 29  1  0  0  0  0
 31 32  1  0  0  0  0
 32 33  1  0  0  0  0
 33 28  1  0  0  0  0
M  END
>  <Pose>
1

>  <Score>
-5.615

$$$$
