/Users/jonathanwahrer/Desktop/Msc/3_Semester/Drug_Design_Praktikum/waehrer_HTS_screening/HTS_experiment/out/docking_results/vina_output/3sx0/0243_docked.pdbqt
 OpenBabel03192221353D

 30 33  0  0  1  0  0  0  0  0999 V2000
   17.7700   62.1880   -9.5330 C   0  0  2  0  0  3  0  0  0  0  0  0
   18.8340   63.0230   -8.8640 C   0  0  0  0  0  2  0  0  0  0  0  0
   19.9900   62.8840   -9.7230 N   0  0  0  0  0  0  0  0  0  0  0  0
   19.8360   61.7190  -10.5780 C   0  0  1  0  0  3  0  0  0  0  0  0
   18.4820   61.1450  -10.3500 C   0  0  0  0  0  2  0  0  0  0  0  0
   20.0500   62.1970  -11.9630 C   0  0  0  0  0  0  0  0  0  0  0  0
   19.2300   61.8840  -12.8550 O   0  0  0  0  0  0  0  0  0  0  0  0
   21.1870   62.9990  -12.2240 N   0  0  0  0  0  0  0  0  0  0  0  0
   21.9320   63.6940  -11.1990 C   0  0  1  0  0  3  0  0  0  0  0  0
   21.1970   63.6130   -9.9040 C   0  0  0  0  0  0  0  0  0  0  0  0
   21.6550   64.2300   -8.8760 O   0  0  0  0  0  0  0  0  0  0  0  0
   21.4810   63.0720  -13.2340 H   0  0  0  0  0  0  0  0  0  0  0  0
   16.9430   62.9620  -10.4230 N   0  0  0  0  0  0  0  0  0  0  0  0
   15.6970   62.4880  -10.8410 C   0  0  0  0  0  0  0  0  0  0  0  0
   15.2620   61.3550  -10.4420 O   0  0  0  0  0  0  0  0  0  0  0  0
   17.2920   63.8800  -10.7470 H   0  0  0  0  0  0  0  0  0  0  0  0
   14.8080   63.2300  -11.7460 C   0  0  0  0  0  0  0  0  0  0  0  0
   13.7030   62.6400  -12.3230 C   0  0  0  0  0  3  0  0  0  0  0  0
   12.8680   63.3370  -13.1730 C   0  0  0  0  0  3  0  0  0  0  0  0
   13.0950   64.6600  -13.4930 C   0  0  0  0  0  0  0  0  0  0  0  0
   11.9730   65.6570  -14.6580 Br  0  0  0  0  0  0  0  0  0  0  0  0
   14.2100   65.2520  -12.9110 C   0  0  0  0  0  3  0  0  0  0  0  0
   15.0340   64.5490  -12.0650 C   0  0  0  0  0  3  0  0  0  0  0  0
   23.3430   63.1670  -11.0940 C   0  0  0  0  0  2  0  0  0  0  0  0
   24.0940   63.3650  -12.3660 C   0  0  0  0  0  0  0  0  0  0  0  0
   23.4120   63.5550  -13.5690 C   0  0  0  0  0  3  0  0  0  0  0  0
   24.1580   63.7330  -14.7130 C   0  0  0  0  0  3  0  0  0  0  0  0
   25.5420   63.7330  -14.7200 C   0  0  0  0  0  3  0  0  0  0  0  0
   26.1680   63.5420  -13.5100 C   0  0  0  0  0  3  0  0  0  0  0  0
   25.4760   63.3580  -12.3340 C   0  0  0  0  0  3  0  0  0  0  0  0
  1 13  1  6  0  0  0
  1  2  1  0  0  0  0
  3  2  1  0  0  0  0
  4  5  1  6  0  0  0
  4  3  1  0  0  0  0
  5  1  1  0  0  0  0
  6  4  1  0  0  0  0
  7  6  2  0  0  0  0
  8  6  1  0  0  0  0
  8  9  1  0  0  0  0
  9 24  1  1  0  0  0
  9 10  1  0  0  0  0
 10  3  1  0  0  0  0
 10 11  2  0  0  0  0
 12  8  1  0  0  0  0
 14 15  2  0  0  0  0
 14 13  1  0  0  0  0
 16 13  1  0  0  0  0
 17 14  1  0  0  0  0
 18 17  2  0  0  0  0
 19 18  1  0  0  0  0
 20 19  2  0  0  0  0
 20 22  1  0  0  0  0
 21 20  1  0  0  0  0
 22 23  2  0  0  0  0
 23 17  1  0  0  0  0
 25 30  1  0  0  0  0
 25 24  1  0  0  0  0
 26 25  2  0  0  0  0
 27 26  1  0  0  0  0
 28 27  2  0  0  0  0
 28 29  1  0  0  0  0
 29 30  2  0  0  0  0
M  END
>  <Pose>
1

>  <Score>
-7.771

$$$$
