/Users/jonathanwahrer/Desktop/Msc/3_Semester/Drug_Design_Praktikum/waehrer_HTS_screening/HTS_experiment/out/docking_results/vina_output/3sx0/0244_docked.pdbqt
 OpenBabel03192221353D

 25 28  0  0  1  0  0  0  0  0999 V2000
   20.9720   64.1360  -10.2720 C   0  0  2  0  0  3  0  0  0  0  0  0
   20.8070   65.2760   -9.2940 C   0  0  0  0  0  2  0  0  0  0  0  0
   21.4970   64.7920   -8.1110 N   0  0  0  0  0  0  0  0  0  0  0  0
   21.4820   63.3420   -8.1140 C   0  0  1  0  0  3  0  0  0  0  0  0
   20.9440   62.8860   -9.4280 C   0  0  0  0  0  2  0  0  0  0  0  0
   22.8800   62.9040   -7.8720 C   0  0  0  0  0  0  0  0  0  0  0  0
   23.4490   62.0040   -8.5330 O   0  0  0  0  0  0  0  0  0  0  0  0
   23.6380   63.5180   -6.8460 N   0  0  0  0  0  0  0  0  0  0  0  0
   23.3820   64.8700   -6.3950 C   0  0  2  0  0  3  0  0  0  0  0  0
   23.3020   64.6630   -4.9150 C   0  0  0  0  0  2  0  0  0  0  0  0
   24.4490   63.6720   -4.6840 C   0  0  0  0  0  2  0  0  0  0  0  0
   24.7350   63.0420   -6.0510 C   0  0  0  0  0  2  0  0  0  0  0  0
   22.1470   65.4160   -7.0100 C   0  0  0  0  0  0  0  0  0  0  0  0
   21.6290   66.4900   -6.5490 O   0  0  0  0  0  0  0  0  0  0  0  0
   22.2120   64.1700  -10.9760 N   0  0  0  0  0  0  0  0  0  0  0  0
   22.3420   63.4720  -12.2030 C   0  0  0  0  0  0  0  0  0  0  0  0
   21.3690   62.8350  -12.6590 O   0  0  0  0  0  0  0  0  0  0  0  0
   23.0050   64.7180  -10.5560 H   0  0  0  0  0  0  0  0  0  0  0  0
   23.6090   63.4830  -12.9610 C   0  0  0  0  0  0  0  0  0  0  0  0
   23.5680   63.5610  -14.3350 C   0  0  0  0  0  3  0  0  0  0  0  0
   24.7320   63.5730  -15.0710 C   0  0  0  0  0  3  0  0  0  0  0  0
   25.9800   63.5090  -14.4740 C   0  0  0  0  0  0  0  0  0  0  0  0
   27.5410   63.5300  -15.5530 Br  0  0  0  0  0  0  0  0  0  0  0  0
   26.0210   63.4310  -13.0950 C   0  0  0  0  0  3  0  0  0  0  0  0
   24.8330   63.4200  -12.3670 C   0  0  0  0  0  3  0  0  0  0  0  0
  1 15  1  1  0  0  0
  1  5  1  0  0  0  0
  1  2  1  0  0  0  0
  2  3  1  0  0  0  0
  3 13  1  0  0  0  0
  4  5  1  6  0  0  0
  4  3  1  0  0  0  0
  4  6  1  0  0  0  0
  6  8  1  0  0  0  0
  7  6  2  0  0  0  0
  8  9  1  0  0  0  0
  8 12  1  0  0  0  0
  9 10  1  1  0  0  0
 10 11  1  0  0  0  0
 12 11  1  0  0  0  0
 13 14  2  0  0  0  0
 13  9  1  0  0  0  0
 15 18  1  0  0  0  0
 16 15  1  0  0  0  0
 17 16  2  0  0  0  0
 19 25  1  0  0  0  0
 19 16  1  0  0  0  0
 20 19  2  0  0  0  0
 21 22  2  0  0  0  0
 21 20  1  0  0  0  0
 22 24  1  0  0  0  0
 23 22  1  0  0  0  0
 24 25  2  0  0  0  0
M  END
>  <Pose>
1

>  <Score>
-7.154

$$$$
