/Users/jonathanwahrer/Desktop/Msc/3_Semester/Drug_Design_Praktikum/waehrer_HTS_screening/HTS_experiment/out/docking_results/vina_output/3sx0/0247_docked.pdbqt
 OpenBabel03192221353D

 23 26  0  0  1  0  0  0  0  0999 V2000
   21.4380   64.8940   -8.8890 N   0  0  0  0  0  0  0  0  0  0  0  0
   21.8740   65.7980   -7.8790 C   0  0  0  0  0  0  0  0  0  0  0  0
   21.0890   66.6780   -7.3870 O   0  0  0  0  0  0  0  0  0  0  0  0
   23.2970   65.5470   -7.5330 C   0  0  2  0  0  3  0  0  0  0  0  0
   23.5980   64.2930   -8.3300 C   0  0  1  0  0  3  0  0  0  0  0  0
   23.4470   63.2350   -7.2580 C   0  0  1  0  0  3  0  0  0  0  0  0
   24.3530   63.8990   -6.2000 C   0  0  0  0  0  2  0  0  0  0  0  0
   23.4450   65.1390   -6.0940 C   0  0  2  0  0  3  0  0  0  0  0  0
   22.1700   64.4230   -5.7350 C   0  0  0  0  0  2  0  0  0  0  0  0
   22.1460   63.3720   -6.5460 C   0  0  0  0  0  2  0  0  0  0  0  0
   22.5620   64.1870   -9.3730 C   0  0  0  0  0  0  0  0  0  0  0  0
   22.6810   63.5840  -10.4610 O   0  0  0  0  0  0  0  0  0  0  0  0
   20.1270   64.6740   -9.3860 N   0  0  0  0  0  0  0  0  0  0  0  0
   19.5240   63.4000   -9.3320 C   0  0  0  0  0  0  0  0  0  0  0  0
   20.1270   62.3940   -8.8330 O   0  0  0  0  0  0  0  0  0  0  0  0
   19.6100   65.4760   -9.7890 H   0  0  0  0  0  0  0  0  0  0  0  0
   18.1900   63.1950   -9.8440 C   0  0  0  0  0  0  0  0  0  0  0  0
   17.7790   61.9030  -10.1550 C   0  0  0  0  0  3  0  0  0  0  0  0
   16.5180   61.6600  -10.6590 C   0  0  0  0  0  3  0  0  0  0  0  0
   15.6440   62.6880  -10.8630 C   0  0  0  0  0  0  0  0  0  0  0  0
   13.9020   62.3260  -11.5650 Br  0  0  0  0  0  0  0  0  0  0  0  0
   16.0400   63.9890  -10.5550 C   0  0  0  0  0  3  0  0  0  0  0  0
   17.2960   64.2190  -10.0560 C   0  0  0  0  0  3  0  0  0  0  0  0
  1  2  1  0  0  0  0
  2  3  2  0  0  0  0
  4  2  1  1  0  0  0
  4  8  1  0  0  0  0
  5 11  1  6  0  0  0
  5  4  1  0  0  0  0
  5  6  1  0  0  0  0
  6 10  1  1  0  0  0
  6  7  1  0  0  0  0
  8  7  1  6  0  0  0
  8  9  1  0  0  0  0
 10  9  1  0  0  0  0
 11  1  1  0  0  0  0
 12 11  2  0  0  0  0
 13 14  1  0  0  0  0
 13  1  1  0  0  0  0
 14 15  2  0  0  0  0
 16 13  1  0  0  0  0
 17 14  1  0  0  0  0
 18 17  2  0  0  0  0
 19 18  1  0  0  0  0
 20 19  2  0  0  0  0
 20 22  1  0  0  0  0
 21 20  1  0  0  0  0
 22 23  2  0  0  0  0
 23 17  1  0  0  0  0
M  END
>  <Pose>
1

>  <Score>
-6.943

$$$$
