/Users/jonathanwahrer/Desktop/Msc/3_Semester/Drug_Design_Praktikum/waehrer_HTS_screening/HTS_experiment/out/docking_results/vina_output/3sx0/0257_docked.pdbqt
 OpenBabel03192221353D

 31 34  0  0  1  0  0  0  0  0999 V2000
   20.4430   63.1050  -10.8980 C   0  0  2  0  0  3  0  0  0  0  0  0
   21.5060   64.1320  -10.6560 C   0  0  2  0  0  3  0  0  0  0  0  0
   22.5850   63.6090  -11.4860 N   0  0  0  0  0  0  0  0  0  0  0  0
   21.9220   63.1370  -12.6760 C   0  0  0  0  0  0  0  0  0  0  0  0
   22.4630   63.0410  -13.7900 O   0  0  0  0  0  0  0  0  0  0  0  0
   20.5330   62.8070  -12.3190 C   0  0  0  0  0  0  0  0  0  0  0  0
   19.6240   62.3670  -13.0700 O   0  0  0  0  0  0  0  0  0  0  0  0
   19.5870   62.6020  -10.0460 C   0  0  1  0  0  3  0  0  0  0  0  0
   20.0760   61.8300   -8.9740 O   0  0  0  0  0  1  0  0  0  0  0  0
   18.1640   62.8430  -10.2140 C   0  0  0  0  0  0  0  0  0  0  0  0
   17.3150   61.7730  -10.5240 C   0  0  0  0  0  3  0  0  0  0  0  0
   15.9660   61.9760  -10.7180 C   0  0  0  0  0  3  0  0  0  0  0  0
   15.3850   63.2220  -10.6210 C   0  0  0  0  0  0  0  0  0  0  0  0
   13.5230   63.5280  -10.8840 Br  0  0  0  0  0  0  0  0  0  0  0  0
   16.2030   64.2890  -10.3160 C   0  0  0  0  0  3  0  0  0  0  0  0
   17.5680   64.0820  -10.1200 C   0  0  0  0  0  3  0  0  0  0  0  0
   21.8600   64.1940   -9.2160 C   0  0  0  0  0  0  0  0  0  0  0  0
   22.8700   63.4220   -8.7840 N   0  0  0  0  0  0  0  0  0  0  0  0
   23.2850   63.4020   -7.5150 C   0  0  0  0  0  3  0  0  0  0  0  0
   22.6410   64.2150   -6.6110 C   0  0  0  0  0  3  0  0  0  0  0  0
   21.6020   65.0220   -7.0100 C   0  0  0  0  0  3  0  0  0  0  0  0
   21.2150   65.0060   -8.3250 C   0  0  0  0  0  3  0  0  0  0  0  0
   23.9850   63.5890  -11.1780 C   0  0  0  0  0  2  0  0  0  0  0  0
   24.8090   62.9800  -12.3020 C   0  0  0  0  0  2  0  0  0  0  0  0
   25.4900   64.1270  -13.0490 C   0  0  0  0  0  2  0  0  0  0  0  0
   25.9090   63.7240  -14.3780 N   0  0  0  0  0  0  0  0  0  0  0  0
   27.1700   63.6960  -14.8690 C   0  0  0  0  0  2  0  0  0  0  0  0
   27.1330   63.2610  -16.1400 N   0  0  0  0  0  0  0  0  0  0  0  0
   25.8640   63.0040  -16.4900 C   0  0  0  0  0  3  0  0  0  0  0  0
   27.9630   63.1340  -16.7840 H   0  0  0  0  0  0  0  0  0  0  0  0
   25.1120   63.3000  -15.3700 C   0  0  0  0  0  3  0  0  0  0  0  0
  1  2  1  0  0  0  0
  1  8  1  6  0  0  0
  2 17  1  1  0  0  0
  3 23  1  0  0  0  0
  3  2  1  0  0  0  0
  4  6  1  0  0  0  0
  4  3  1  0  0  0  0
  5  4  2  0  0  0  0
  6  1  1  0  0  0  0
  7  6  2  0  0  0  0
  8  9  1  1  0  0  0
 10 16  1  0  0  0  0
 10  8  1  0  0  0  0
 11 10  2  0  0  0  0
 12 13  2  0  0  0  0
 12 11  1  0  0  0  0
 13 15  1  0  0  0  0
 14 13  1  0  0  0  0
 15 16  2  0  0  0  0
 17 18  2  0  0  0  0
 17 22  1  0  0  0  0
 18 19  1  0  0  0  0
 19 20  2  0  0  0  0
 21 20  1  0  0  0  0
 22 21  2  0  0  0  0
 24 23  1  0  0  0  0
 25 24  1  0  0  0  0
 26 25  1  0  0  0  0
 27 26  1  0  0  0  0
 28 27  1  0  0  0  0
 29 28  1  0  0  0  0
 29 31  2  0  0  0  0
 30 28  1  0  0  0  0
 31 26  1  0  0  0  0
M  END
>  <Pose>
1

>  <Score>
-8.270

$$$$
