/Users/jonathanwahrer/Desktop/Msc/3_Semester/Drug_Design_Praktikum/waehrer_HTS_screening/HTS_experiment/out/docking_results/vina_output/3sx0/0263_docked.pdbqt
 OpenBabel03192221363D

 34 37  0  0  1  0  0  0  0  0999 V2000
   20.0960   63.2190   -9.6520 C   0  0  0  0  0  0  0  0  0  0  0  0
   20.9150   63.4520  -10.6430 C   0  0  0  0  0  0  0  0  0  0  0  0
   22.2990   64.0410  -10.5610 C   0  0  2  0  0  3  0  0  0  0  0  0
   22.9890   63.4090  -11.6330 N   0  0  0  0  0  0  0  0  0  0  0  0
   22.0070   63.1160  -12.6560 C   0  0  0  0  0  0  0  0  0  0  0  0
   22.2180   62.8800  -13.8700 O   0  0  0  0  0  0  0  0  0  0  0  0
   20.6870   63.1390  -12.0350 C   0  0  0  0  0  0  0  0  0  0  0  0
   19.5830   62.9190  -12.6400 O   0  0  0  0  0  0  0  0  0  0  0  0
   20.5260   63.5370   -8.3440 O   0  0  0  0  0  1  0  0  0  0  0  0
   18.7780   62.6490   -9.8820 C   0  0  0  0  0  0  0  0  0  0  0  0
   17.7610   63.5660  -10.1440 C   0  0  0  0  0  3  0  0  0  0  0  0
   16.4920   63.1430  -10.4200 C   0  0  0  0  0  3  0  0  0  0  0  0
   16.2320   61.7910  -10.4360 C   0  0  0  0  0  0  0  0  0  0  0  0
   14.4350   61.2310  -10.8290 Br  0  0  0  0  0  0  0  0  0  0  0  0
   17.2340   60.8790  -10.1790 C   0  0  0  0  0  3  0  0  0  0  0  0
   18.5110   61.3200   -9.9010 C   0  0  0  0  0  3  0  0  0  0  0  0
   22.8540   63.9130   -9.2190 C   0  0  0  0  0  0  0  0  0  0  0  0
   22.7420   64.8340   -8.2120 C   0  0  0  0  0  3  0  0  0  0  0  0
   23.2870   64.6340   -6.9710 C   0  0  0  0  0  0  0  0  0  0  0  0
   23.9730   63.4780   -6.7140 C   0  0  0  0  0  3  0  0  0  0  0  0
   24.1210   62.5050   -7.6980 C   0  0  0  0  0  3  0  0  0  0  0  0
   23.5630   62.7370   -8.9290 C   0  0  0  0  0  3  0  0  0  0  0  0
   23.1310   65.6240   -5.9800 N   0  0  0  0  0  0  0  0  0  0  0  0
   22.7200   65.3570   -4.8220 O   0  0  0  0  0  0  0  0  0  0  0  0
   23.4420   66.9260   -6.3000 O   0  0  0  0  0  0  0  0  0  0  0  0
   24.3830   63.0870  -11.8730 C   0  0  0  0  0  2  0  0  0  0  0  0
   25.1170   64.0300  -12.7710 C   0  0  0  0  0  2  0  0  0  0  0  0
   25.5600   63.4040  -14.0070 N   0  0  0  0  0  4  0  0  0  0  0  0
   26.8970   63.8780  -14.3780 C   0  0  0  0  0  2  0  0  0  0  0  0
   27.2950   63.0260  -15.5910 C   0  0  0  0  0  2  0  0  0  0  0  0
   26.4260   63.1790  -16.6440 O   0  0  0  0  0  0  0  0  0  0  0  0
   25.0940   62.9810  -16.3150 C   0  0  0  0  0  2  0  0  0  0  0  0
   24.6870   63.7680  -15.0940 C   0  0  0  0  0  2  0  0  0  0  0  0
   25.6300   62.3840  -13.9620 H   0  0  0  0  0  0  0  0  0  0  0  0
  1  9  1  0  0  0  0
  2  3  1  0  0  0  0
  2  1  2  0  0  0  0
  3 17  1  1  0  0  0
  4  3  1  0  0  0  0
  5  7  1  0  0  0  0
  5  4  1  0  0  0  0
  6  5  2  0  0  0  0
  7  2  1  0  0  0  0
  8  7  2  0  0  0  0
 10  1  1  0  0  0  0
 11 10  2  0  0  0  0
 12 11  1  0  0  0  0
 13 12  2  0  0  0  0
 13 15  1  0  0  0  0
 14 13  1  0  0  0  0
 15 16  2  0  0  0  0
 16 10  1  0  0  0  0
 17 22  2  0  0  0  0
 17 18  1  0  0  0  0
 18 19  2  0  0  0  0
 19 20  1  0  0  0  0
 19 23  1  0  0  0  0
 21 20  2  0  0  0  0
 22 21  1  0  0  0  0
 23 24  2  0  0  0  0
 25 23  2  0  0  0  0
 26  4  1  0  0  0  0
 27 26  1  0  0  0  0
 28 34  1  0  0  0  0
 28 27  1  0  0  0  0
 29 28  1  0  0  0  0
 30 29  1  0  0  0  0
 31 32  1  0  0  0  0
 31 30  1  0  0  0  0
 32 33  1  0  0  0  0
 33 28  1  0  0  0  0
M  END
>  <Pose>
1

>  <Score>
-8.891

$$$$
