/Users/jonathanwahrer/Desktop/Msc/3_Semester/Drug_Design_Praktikum/waehrer_HTS_screening/HTS_experiment/out/docking_results/vina_output/3sx0/0289_docked.pdbqt
 OpenBabel03192221373D

 31 34  0  0  0  0  0  0  0  0999 V2000
   23.3700   63.8400   -7.5040 C   0  0  0  0  0  0  0  0  0  0  0  0
   22.7600   64.1150   -6.3390 N   0  0  0  0  0  0  0  0  0  0  0  0
   23.4990   63.6170   -5.3200 C   0  0  0  0  0  0  0  0  0  0  0  0
   24.6150   63.0020   -5.8460 C   0  0  0  0  0  0  0  0  0  0  0  0
   24.5120   63.1500   -7.1670 N   0  0  0  0  0  0  0  0  0  0  0  0
   25.5080   62.4280   -5.0190 N   0  0  0  0  0  0  0  0  0  0  0  0
   25.3460   62.4350   -3.6890 C   0  0  0  0  0  0  0  0  0  0  0  0
   26.2140   61.8840   -2.9380 O   0  0  0  0  0  0  0  0  0  0  0  0
   24.2650   63.0300   -3.1560 N   0  0  0  0  0  0  0  0  0  0  0  0
   23.3560   63.6100   -3.9510 C   0  0  0  0  0  0  0  0  0  0  0  0
   22.3470   64.1660   -3.4500 O   0  0  0  0  0  0  0  0  0  0  0  0
   26.6860   61.7880   -5.6140 C   0  0  0  0  0  1  0  0  0  0  0  0
   24.1310   63.0390   -2.1030 H   0  0  0  0  0  0  0  0  0  0  0  0
   22.9740   64.2080   -8.8010 N   0  0  0  0  0  0  0  0  0  0  0  0
   22.1710   65.3460   -9.0870 C   0  0  0  0  0  2  0  0  0  0  0  0
   20.8840   64.8380   -9.7290 C   0  0  0  0  0  2  0  0  0  0  0  0
   20.9070   63.4560   -9.9610 N   0  0  0  0  0  0  0  0  0  0  0  0
   22.0530   62.8210  -10.4680 C   0  0  0  0  0  2  0  0  0  0  0  0
   23.3670   63.4000   -9.9310 C   0  0  0  0  0  2  0  0  0  0  0  0
   19.9920   62.6740   -9.1990 C   0  0  0  0  0  2  0  0  0  0  0  0
   18.6190   62.6380   -9.7360 C   0  0  0  0  0  0  0  0  0  0  0  0
   18.0650   61.4140  -10.0180 C   0  0  0  0  0  3  0  0  0  0  0  0
   16.7730   61.3310  -10.5110 C   0  0  0  0  0  3  0  0  0  0  0  0
   16.0250   62.4700  -10.7280 C   0  0  0  0  0  0  0  0  0  0  0  0
   14.2320   62.3500  -11.4090 Br  0  0  0  0  0  0  0  0  0  0  0  0
   16.5990   63.6870  -10.4390 C   0  0  0  0  0  3  0  0  0  0  0  0
   17.8850   63.7860   -9.9470 C   0  0  0  0  0  3  0  0  0  0  0  0
   21.5040   64.7810   -6.1220 C   0  0  0  0  0  2  0  0  0  0  0  0
   21.6260   66.2830   -6.2410 C   0  0  0  0  0  2  0  0  0  0  0  0
   22.8920   66.7650   -5.9770 O   0  0  0  0  0  0  0  0  0  0  0  0
   22.8700   68.1290   -6.3530 C   0  0  0  0  0  1  0  0  0  0  0  0
  1  5  2  0  0  0  0
  1  2  1  0  0  0  0
  2 28  1  0  0  0  0
  2  3  1  0  0  0  0
  3 10  1  0  0  0  0
  4  3  2  0  0  0  0
  4  6  1  0  0  0  0
  5  4  1  0  0  0  0
  6  7  1  0  0  0  0
  7  9  1  0  0  0  0
  7  8  2  0  0  0  0
  9 13  1  0  0  0  0
 10 11  2  0  0  0  0
 10  9  1  0  0  0  0
 12  6  1  0  0  0  0
 14  1  1  0  0  0  0
 15 14  1  0  0  0  0
 16 15  1  0  0  0  0
 17 16  1  0  0  0  0
 17 20  1  0  0  0  0
 18 17  1  0  0  0  0
 18 19  1  0  0  0  0
 19 14  1  0  0  0  0
 21 20  1  0  0  0  0
 22 21  2  0  0  0  0
 23 22  1  0  0  0  0
 24 23  2  0  0  0  0
 24 26  1  0  0  0  0
 25 24  1  0  0  0  0
 26 27  2  0  0  0  0
 27 21  1  0  0  0  0
 29 28  1  0  0  0  0
 29 30  1  0  0  0  0
 31 30  1  0  0  0  0
M  END
>  <Pose>
1

>  <Score>
-7.184

$$$$
