/Users/jonathanwahrer/Desktop/Msc/3_Semester/Drug_Design_Praktikum/waehrer_HTS_screening/HTS_experiment/out/docking_results/vina_output/3sx0/0294_docked.pdbqt
 OpenBabel03192221383D

 35 38  0  0  0  0  0  0  0  0999 V2000
   23.3620   64.1940   -7.0540 N   0  0  0  0  0  0  0  0  0  0  0  0
   22.9610   65.4630   -7.3730 N   0  0  0  0  0  0  0  0  0  0  0  0
   23.2680   66.2810   -6.3570 C   0  0  0  0  0  0  0  0  0  0  0  0
   23.8470   65.5100   -5.4380 N   0  0  0  0  0  0  0  0  0  0  0  0
   23.9100   64.1940   -5.8680 C   0  0  0  0  0  0  0  0  0  0  0  0
   23.1590   63.1190   -8.0050 C   0  0  0  0  0  2  0  0  0  0  0  0
   21.9140   63.3200   -8.7920 C   0  0  0  0  0  0  0  0  0  0  0  0
   20.6540   63.4050   -8.1520 N   0  0  0  0  0  0  0  0  0  0  0  0
   20.5710   63.3280   -7.0920 H   0  0  0  0  0  0  0  0  0  0  0  0
   21.9740   63.4160  -10.0380 O   0  0  0  0  0  0  0  0  0  0  0  0
   19.5190   63.5930   -8.9100 N   0  0  0  0  0  0  0  0  0  0  0  0
   18.5630   62.7590   -9.0390 C   0  0  0  0  0  3  0  0  0  0  0  0
   17.3830   63.0110   -9.8570 C   0  0  0  0  0  0  0  0  0  0  0  0
   16.6410   61.9790  -10.3930 C   0  0  0  0  0  3  0  0  0  0  0  0
   15.5250   62.2420  -11.1660 C   0  0  0  0  0  3  0  0  0  0  0  0
   15.1060   63.5370  -11.4340 C   0  0  0  0  0  0  0  0  0  0  0  0
   13.5610   63.8670  -12.5050 Br  0  0  0  0  0  0  0  0  0  0  0  0
   15.8470   64.5700  -10.9000 C   0  0  0  0  0  3  0  0  0  0  0  0
   16.9580   64.2940  -10.1290 C   0  0  0  0  0  3  0  0  0  0  0  0
   24.4920   63.1420   -5.0600 C   0  0  0  0  0  0  0  0  0  0  0  0
   25.7410   62.5990   -5.3490 N   0  0  0  0  0  0  0  0  0  0  0  0
   26.0320   61.7070   -4.4850 O   0  0  0  0  0  0  0  0  0  0  0  0
   25.0890   61.5980   -3.6340 N   0  0  0  0  0  0  0  0  0  0  0  0
   24.1020   62.4860   -3.9650 C   0  0  0  0  0  0  0  0  0  0  0  0
   22.9440   62.5850   -3.1830 N   0  0  0  0  0  0  0  0  0  0  0  0
   22.4620   61.7110   -2.8700 H   0  0  0  0  0  0  0  0  0  0  0  0
   22.5200   63.4840   -2.8730 H   0  0  0  0  0  0  0  0  0  0  0  0
   23.0240   67.7150   -6.2670 C   0  0  0  0  0  0  0  0  0  0  0  0
   23.8110   68.6350   -5.7000 N   0  0  0  0  0  0  0  0  0  0  0  0
   23.2460   69.8230   -5.8210 O   0  0  0  0  0  0  0  0  0  0  0  0
   22.1090   69.7230   -6.4490 N   0  0  0  0  0  0  0  0  0  0  0  0
   21.9360   68.3990   -6.7470 C   0  0  0  0  0  0  0  0  0  0  0  0
   20.8050   67.8880   -7.4350 N   0  0  0  0  0  0  0  0  0  0  0  0
   19.8480   67.9460   -6.9870 H   0  0  0  0  0  0  0  0  0  0  0  0
   20.8500   67.4480   -8.3740 H   0  0  0  0  0  0  0  0  0  0  0  0
  1  5  1  0  0  0  0
  2  1  1  0  0  0  0
  2  3  2  0  0  0  0
  3 28  1  0  0  0  0
  3  4  1  0  0  0  0
  5  4  2  0  0  0  0
  5 20  1  0  0  0  0
  6  1  1  0  0  0  0
  7  8  1  0  0  0  0
  7  6  1  0  0  0  0
  8  9  1  0  0  0  0
 10  7  2  0  0  0  0
 11  8  1  0  0  0  0
 12 11  2  0  0  0  0
 13 12  1  0  0  0  0
 14 13  2  0  0  0  0
 15 14  1  0  0  0  0
 16 15  2  0  0  0  0
 16 18  1  0  0  0  0
 17 16  1  0  0  0  0
 18 19  2  0  0  0  0
 19 13  1  0  0  0  0
 20 24  1  0  0  0  0
 21 20  2  0  0  0  0
 21 22  1  0  0  0  0
 22 23  1  0  0  0  0
 24 23  2  0  0  0  0
 24 25  1  0  0  0  0
 25 27  1  0  0  0  0
 25 26  1  0  0  0  0
 28 29  2  0  0  0  0
 30 29  1  0  0  0  0
 31 30  1  0  0  0  0
 32 31  2  0  0  0  0
 32 28  1  0  0  0  0
 33 34  1  0  0  0  0
 33 32  1  0  0  0  0
 35 33  1  0  0  0  0
M  END
>  <Pose>
1

>  <Score>
-9.633

$$$$
