/Users/jonathanwahrer/Desktop/Msc/3_Semester/Drug_Design_Praktikum/waehrer_HTS_screening/HTS_experiment/out/docking_results/vina_output/3sx0/0305_docked.pdbqt
 OpenBabel03192221383D

 27 30  0  0  0  0  0  0  0  0999 V2000
   19.1670   63.1160   -9.1580 C   0  0  0  0  0  0  0  0  0  0  0  0
   20.4010   63.2160   -9.6360 N   0  0  0  0  0  0  0  0  0  0  0  0
   21.2910   63.4020   -8.6300 C   0  0  0  0  0  0  0  0  0  0  0  0
   20.5740   63.4080   -7.4900 N   0  0  0  0  0  0  0  0  0  0  0  0
   19.3240   63.2390   -7.7750 N   0  0  0  0  0  0  0  0  0  0  0  0
   22.5460   63.5020   -9.0830 N   0  0  0  0  0  0  0  0  0  0  0  0
   22.4530   63.3680  -10.4100 C   0  0  0  0  0  0  0  0  0  0  0  0
   21.1170   63.1810  -10.7930 C   0  0  0  0  0  0  0  0  0  0  0  0
   20.7900   62.9870  -12.0610 N   0  0  0  0  0  0  0  0  0  0  0  0
   21.8030   62.9890  -12.9820 C   0  0  0  0  0  0  0  0  0  0  0  0
   21.5350   62.8130  -14.1940 O   0  0  0  0  0  0  0  0  0  0  0  0
   23.0860   63.1730  -12.6490 N   0  0  0  0  0  0  0  0  0  0  0  0
   23.4400   63.3640  -11.3670 C   0  0  0  0  0  0  0  0  0  0  0  0
   24.6360   63.5390  -11.0150 O   0  0  0  0  0  0  0  0  0  0  0  0
   19.4870   62.6590  -12.5800 C   0  0  0  0  0  1  0  0  0  0  0  0
   23.8560   63.1770  -13.3490 H   0  0  0  0  0  0  0  0  0  0  0  0
   17.8360   62.9250   -9.7000 C   0  0  0  0  0  0  0  0  0  0  0  0
   17.0930   64.0670  -10.0070 C   0  0  0  0  0  3  0  0  0  0  0  0
   15.8980   64.0060  -10.6540 C   0  0  0  0  0  3  0  0  0  0  0  0
   15.3830   62.7830  -11.0300 C   0  0  0  0  0  0  0  0  0  0  0  0
   13.7190   62.7020  -11.9300 Br  0  0  0  0  0  0  0  0  0  0  0  0
   16.0700   61.6210  -10.7580 C   0  0  0  0  0  3  0  0  0  0  0  0
   17.2700   61.7430  -10.1040 C   0  0  0  0  0  3  0  0  0  0  0  0
   23.7480   63.7140   -8.3080 C   0  0  0  0  0  2  0  0  0  0  0  0
   23.4820   64.4460   -7.0100 C   0  0  0  0  0  2  0  0  0  0  0  0
   23.7170   65.8110   -7.1260 O   0  0  0  0  0  0  0  0  0  0  0  0
   22.7550   66.4650   -6.3570 C   0  0  0  0  0  1  0  0  0  0  0  0
  1  5  2  0  0  0  0
  2  1  1  0  0  0  0
  2  3  1  0  0  0  0
  3  4  2  0  0  0  0
  5  4  1  0  0  0  0
  6  3  1  0  0  0  0
  6 24  1  0  0  0  0
  7  6  1  0  0  0  0
  8  7  2  0  0  0  0
  8  2  1  0  0  0  0
  9  8  1  0  0  0  0
 10 12  1  0  0  0  0
 10  9  1  0  0  0  0
 11 10  2  0  0  0  0
 12 13  1  0  0  0  0
 13 14  2  0  0  0  0
 13  7  1  0  0  0  0
 15  9  1  0  0  0  0
 16 12  1  0  0  0  0
 17  1  1  0  0  0  0
 18 17  1  0  0  0  0
 19 18  2  0  0  0  0
 20 22  2  0  0  0  0
 20 19  1  0  0  0  0
 21 20  1  0  0  0  0
 22 23  1  0  0  0  0
 23 17  2  0  0  0  0
 24 25  1  0  0  0  0
 26 25  1  0  0  0  0
 26 27  1  0  0  0  0
M  END
>  <Pose>
1

>  <Score>
-6.963

$$$$
