/Users/jonathanwahrer/Desktop/Msc/3_Semester/Drug_Design_Praktikum/waehrer_HTS_screening/HTS_experiment/out/docking_results/vina_output/3sx0/0320_docked.pdbqt
 OpenBabel03192221393D

 32 36  0  0  1  0  0  0  0  0999 V2000
   20.4120   63.0380  -11.2240 C   0  0  0  0  0  0  0  0  0  0  0  0
   21.0350   63.1130  -12.4810 C   0  0  0  0  0  3  0  0  0  0  0  0
   22.3380   63.2160  -12.2550 N   0  0  0  0  0  0  0  0  0  0  0  0
   23.5050   63.3330  -12.9590 C   0  0  0  0  0  0  0  0  0  0  0  0
   24.4950   63.4030  -12.0110 C   0  0  0  0  0  0  0  0  0  0  0  0
   23.9110   63.3290  -10.8240 N   0  0  0  0  0  0  0  0  0  0  0  0
   22.5590   63.2110  -10.9620 C   0  0  1  0  0  3  0  0  0  0  0  0
   21.3720   63.1000  -10.2950 N   0  0  0  0  0  0  0  0  0  0  0  0
   25.8400   63.5300  -12.3690 C   0  0  0  0  0  3  0  0  0  0  0  0
   26.1880   63.5850  -13.7020 C   0  0  0  0  0  3  0  0  0  0  0  0
   25.1770   63.5130  -14.6330 C   0  0  0  0  0  3  0  0  0  0  0  0
   23.8370   63.3870  -14.2850 C   0  0  0  0  0  3  0  0  0  0  0  0
   24.4400   63.3710   -9.9330 H   0  0  0  0  0  0  0  0  0  0  0  0
   21.3210   63.0850   -8.8650 C   0  0  0  0  0  2  0  0  0  0  0  0
   21.5810   64.3560   -8.1620 C   0  0  0  0  0  2  0  0  0  0  0  0
   22.8440   64.5050   -7.3940 C   0  0  0  0  0  2  0  0  0  0  0  0
   22.6180   64.4660   -5.9660 N   0  0  0  0  0  4  0  0  0  0  0  0
   22.2080   65.2980   -5.5480 H   0  0  0  0  0  0  0  0  0  0  0  0
   21.8540   63.7090   -5.8240 H   0  0  0  0  0  0  0  0  0  0  0  0
   23.7470   63.9850   -5.2260 C   0  0  0  0  0  3  0  0  0  0  0  0
   23.4260   63.4200   -3.8710 C   0  0  0  0  0  2  0  0  0  0  0  0
   24.7440   63.4310   -3.0820 C   0  0  0  0  0  2  0  0  0  0  0  0
   25.7180   62.5410   -3.7750 C   0  0  0  0  0  2  0  0  0  0  0  0
   25.8980   62.8590   -5.2410 C   0  0  0  0  0  2  0  0  0  0  0  0
   24.5410   62.9060   -5.9520 C   0  0  0  0  0  2  0  0  0  0  0  0
   18.9780   62.9320  -11.0650 C   0  0  0  0  0  0  0  0  0  0  0  0
   18.1940   64.0170  -11.4020 C   0  0  0  0  0  3  0  0  0  0  0  0
   16.8330   63.9900  -11.2900 C   0  0  0  0  0  3  0  0  0  0  0  0
   16.1800   62.8860  -10.8350 C   0  0  0  0  0  0  0  0  0  0  0  0
   14.2620   62.8410  -10.6740 Br  0  0  0  0  0  0  0  0  0  0  0  0
   16.9200   61.7900  -10.4910 C   0  0  0  0  0  3  0  0  0  0  0  0
   18.3310   61.8330  -10.6130 C   0  0  0  0  0  3  0  0  0  0  0  0
  1 26  1  0  0  0  0
  1  8  1  0  0  0  0
  2  3  1  0  0  0  0
  2  1  2  0  0  0  0
  4  3  1  0  0  0  0
  4  5  1  0  0  0  0
  5  6  1  0  0  0  0
  6 13  1  0  0  0  0
  7  3  1  1  0  0  0
  7  6  1  0  0  0  0
  7  8  1  0  0  0  0
  8 14  1  0  0  0  0
  9  5  2  0  0  0  0
 10  9  1  0  0  0  0
 11 12  1  0  0  0  0
 11 10  2  0  0  0  0
 12  4  2  0  0  0  0
 14 15  1  0  0  0  0
 15 16  1  0  0  0  0
 16 17  1  0  0  0  0
 17 19  1  0  0  0  0
 17 18  1  0  0  0  0
 17 20  1  0  0  0  0
 20 21  1  0  0  0  0
 21 22  1  0  0  0  0
 23 22  1  0  0  0  0
 24 23  1  0  0  0  0
 25 24  1  0  0  0  0
 25 20  1  0  0  0  0
 26 32  1  0  0  0  0
 27 28  1  0  0  0  0
 27 26  2  0  0  0  0
 28 29  2  0  0  0  0
 29 30  1  0  0  0  0
 29 31  1  0  0  0  0
 32 31  2  0  0  0  0
M  END
>  <Pose>
1

>  <Score>
-9.665

$$$$
