/Users/jonathanwahrer/Desktop/Msc/3_Semester/Drug_Design_Praktikum/waehrer_HTS_screening/HTS_experiment/out/docking_results/vina_output/3sx0/0324_docked.pdbqt
 OpenBabel03192221393D

 34 38  0  0  1  0  0  0  0  0999 V2000
   20.1610   63.0040  -11.3230 C   0  0  0  0  0  0  0  0  0  0  0  0
   20.8250   63.1240  -12.5580 C   0  0  0  0  0  3  0  0  0  0  0  0
   22.1470   63.2160  -12.3800 N   0  0  0  0  0  0  0  0  0  0  0  0
   23.3350   63.3450  -13.0210 C   0  0  0  0  0  0  0  0  0  0  0  0
   24.2980   63.3650  -12.0420 C   0  0  0  0  0  0  0  0  0  0  0  0
   23.6740   63.2470  -10.8370 N   0  0  0  0  0  0  0  0  0  0  0  0
   22.3510   63.1560  -11.0670 C   0  0  1  0  0  3  0  0  0  0  0  0
   21.1400   63.0270  -10.4170 N   0  0  0  0  0  0  0  0  0  0  0  0
   25.6150   63.4900  -12.4310 C   0  0  0  0  0  3  0  0  0  0  0  0
   25.9760   63.5960  -13.7680 C   0  0  0  0  0  3  0  0  0  0  0  0
   25.0130   63.5770  -14.7450 C   0  0  0  0  0  3  0  0  0  0  0  0
   23.6760   63.4490  -14.3490 C   0  0  0  0  0  3  0  0  0  0  0  0
   24.1650   63.2330   -9.9170 H   0  0  0  0  0  0  0  0  0  0  0  0
   21.0310   62.9590   -8.9750 C   0  0  0  0  0  2  0  0  0  0  0  0
   20.9660   64.3080   -8.2990 C   0  0  0  0  0  2  0  0  0  0  0  0
   21.5820   64.2600   -6.9230 C   0  0  0  0  0  2  0  0  0  0  0  0
   22.9660   64.6440   -6.8670 N   0  0  0  0  0  0  0  0  0  0  0  0
   23.7260   63.4270   -7.1030 C   0  0  0  0  0  2  0  0  0  0  0  0
   24.8660   63.2170   -6.1780 C   0  0  0  0  0  2  0  0  0  0  0  0
   24.6030   63.4590   -4.7860 N   0  0  0  0  0  4  0  0  0  0  0  0
   23.4620   64.3200   -4.5540 C   0  0  0  0  0  2  0  0  0  0  0  0
   25.4360   64.0250   -4.4310 H   0  0  0  0  0  0  0  0  0  0  0  0
   23.3840   65.3240   -5.6860 C   0  0  0  0  0  2  0  0  0  0  0  0
   24.6110   62.2540   -4.0200 C   0  0  0  0  0  2  0  0  0  0  0  0
   25.1930   62.3520   -2.6510 C   0  0  0  0  0  2  0  0  0  0  0  0
   26.0920   63.4060   -2.4970 O   0  0  0  0  0  0  0  0  0  0  0  0
   26.1560   63.6520   -1.5580 H   0  0  0  0  0  0  0  0  0  0  0  0
   18.7060   62.9200  -11.1930 C   0  0  0  0  0  0  0  0  0  0  0  0
   18.0020   61.8480  -10.7490 C   0  0  0  0  0  3  0  0  0  0  0  0
   16.6040   61.8580  -10.6080 C   0  0  0  0  0  3  0  0  0  0  0  0
   15.8740   62.9750  -10.9210 C   0  0  0  0  0  0  0  0  0  0  0  0
   13.9660   62.9920  -10.7300 Br  0  0  0  0  0  0  0  0  0  0  0  0
   16.5640   64.0650  -11.3720 C   0  0  0  0  0  3  0  0  0  0  0  0
   17.9440   64.0460  -11.5070 C   0  0  0  0  0  3  0  0  0  0  0  0
  1 28  1  0  0  0  0
  1  8  1  0  0  0  0
  2  3  1  0  0  0  0
  2  1  2  0  0  0  0
  4  3  1  0  0  0  0
  4  5  1  0  0  0  0
  5  6  1  0  0  0  0
  6 13  1  0  0  0  0
  7  3  1  1  0  0  0
  7  6  1  0  0  0  0
  7  8  1  0  0  0  0
  8 14  1  0  0  0  0
  9  5  2  0  0  0  0
 10  9  1  0  0  0  0
 11 12  1  0  0  0  0
 11 10  2  0  0  0  0
 12  4  2  0  0  0  0
 14 15  1  0  0  0  0
 15 16  1  0  0  0  0
 16 17  1  0  0  0  0
 17 23  1  0  0  0  0
 18 17  1  0  0  0  0
 18 19  1  0  0  0  0
 19 20  1  0  0  0  0
 20 21  1  0  0  0  0
 20 22  1  0  0  0  0
 20 24  1  0  0  0  0
 23 21  1  0  0  0  0
 24 25  1  0  0  0  0
 25 26  1  0  0  0  0
 26 27  1  0  0  0  0
 28 29  1  0  0  0  0
 29 30  2  0  0  0  0
 31 32  1  0  0  0  0
 31 30  1  0  0  0  0
 33 31  2  0  0  0  0
 34 33  1  0  0  0  0
 34 28  2  0  0  0  0
M  END
>  <Pose>
1

>  <Score>
-9.153

$$$$
