/Users/jonathanwahrer/Desktop/Msc/3_Semester/Drug_Design_Praktikum/waehrer_HTS_screening/HTS_experiment/out/docking_results/vina_output/3sx0/0346_docked.pdbqt
 OpenBabel03192221393D

 35 38  0  0  1  0  0  0  0  0999 V2000
   21.3340   63.2800   -9.6240 C   0  0  2  0  0  3  0  0  0  0  0  0
   22.1880   63.3210  -10.7800 N   0  0  0  0  0  0  0  0  0  0  0  0
   21.4480   63.1190  -11.9690 C   0  0  0  0  0  0  0  0  0  0  0  0
   21.8760   63.0700  -13.1630 O   0  0  0  0  0  0  0  0  0  0  0  0
   20.0170   62.9640  -11.6230 C   0  0  0  0  0  0  0  0  0  0  0  0
   19.0940   62.7680  -12.4450 O   0  0  0  0  0  0  0  0  0  0  0  0
   19.9550   63.0850  -10.1820 C   0  0  1  0  0  3  0  0  0  0  0  0
   18.8330   62.9800   -9.5040 C   0  0  1  0  0  3  0  0  0  0  0  0
   18.9250   62.6680   -8.1310 O   0  0  0  0  0  1  0  0  0  0  0  0
   17.5030   63.1620  -10.0270 C   0  0  0  0  0  0  0  0  0  0  0  0
   16.6350   62.1920  -10.3880 C   0  0  0  0  0  3  0  0  0  0  0  0
   15.3720   62.5060  -10.8440 C   0  0  0  0  0  0  0  0  0  0  0  0
   14.9120   63.8000  -10.9620 C   0  0  0  0  0  0  0  0  0  0  0  0
   14.4450   61.3920  -11.2320 C   0  0  0  0  0  1  0  0  0  0  0  0
   15.8180   64.7730  -10.5870 C   0  0  0  0  0  3  0  0  0  0  0  0
   17.0780   64.4950  -10.1320 C   0  0  0  0  0  3  0  0  0  0  0  0
   13.6380   64.1090  -11.4220 O   0  0  0  0  0  0  0  0  0  0  0  0
   13.4370   64.4430  -12.7880 C   0  0  0  0  0  1  0  0  0  0  0  0
   21.4290   64.4810   -8.7910 C   0  0  0  0  0  0  0  0  0  0  0  0
   20.8560   65.6680   -9.1930 C   0  0  0  0  0  3  0  0  0  0  0  0
   20.9460   66.8170   -8.4000 C   0  0  0  0  0  3  0  0  0  0  0  0
   21.6120   66.7890   -7.1950 C   0  0  0  0  0  0  0  0  0  0  0  0
   21.7190   68.3860   -6.1330 Br  0  0  0  0  0  0  0  0  0  0  0  0
   22.1830   65.6150   -6.7890 C   0  0  0  0  0  3  0  0  0  0  0  0
   22.0850   64.4950   -7.5810 C   0  0  0  0  0  3  0  0  0  0  0  0
   23.6220   63.5340  -10.7100 C   0  0  0  0  0  2  0  0  0  0  0  0
   24.3780   62.8870  -11.8380 C   0  0  0  0  0  2  0  0  0  0  0  0
   25.1520   63.8910  -12.6360 C   0  0  0  0  0  2  0  0  0  0  0  0
   25.5110   63.4230  -13.9420 N   0  0  0  0  0  4  0  0  0  0  0  0
   26.8140   63.8790  -14.3790 C   0  0  0  0  0  2  0  0  0  0  0  0
   27.1480   63.1040  -15.6580 C   0  0  0  0  0  2  0  0  0  0  0  0
   26.0330   62.4230  -16.1230 O   0  0  0  0  0  0  0  0  0  0  0  0
   24.9410   63.3080  -16.2590 C   0  0  0  0  0  2  0  0  0  0  0  0
   24.4760   63.7600  -14.8790 C   0  0  0  0  0  2  0  0  0  0  0  0
   25.5690   62.3610  -13.9130 H   0  0  0  0  0  0  0  0  0  0  0  0
  1 19  1  6  0  0  0
  2 26  1  0  0  0  0
  2  1  1  0  0  0  0
  3  5  1  0  0  0  0
  3  2  1  0  0  0  0
  4  3  2  0  0  0  0
  5  7  1  0  0  0  0
  6  5  2  0  0  0  0
  7  1  1  0  0  0  0
  7  8  1  1  0  0  0
  8  9  1  1  0  0  0
 10  8  1  0  0  0  0
 11 10  2  0  0  0  0
 12 11  1  0  0  0  0
 13 12  2  0  0  0  0
 13 15  1  0  0  0  0
 14 12  1  0  0  0  0
 15 16  2  0  0  0  0
 16 10  1  0  0  0  0
 17 13  1  0  0  0  0
 18 17  1  0  0  0  0
 19 25  1  0  0  0  0
 20 19  2  0  0  0  0
 20 21  1  0  0  0  0
 21 22  2  0  0  0  0
 22 24  1  0  0  0  0
 22 23  1  0  0  0  0
 25 24  2  0  0  0  0
 27 26  1  0  0  0  0
 28 27  1  0  0  0  0
 29 35  1  0  0  0  0
 29 28  1  0  0  0  0
 30 29  1  0  0  0  0
 31 30  1  0  0  0  0
 32 31  1  0  0  0  0
 33 32  1  0  0  0  0
 33 34  1  0  0  0  0
 34 29  1  0  0  0  0
M  END
>  <Pose>
1

>  <Score>
-8.510

$$$$
