/Users/jonathanwahrer/Desktop/Msc/3_Semester/Drug_Design_Praktikum/waehrer_HTS_screening/HTS_experiment/out/docking_results/vina_output/3sx0/0347_docked.pdbqt
 OpenBabel03192221403D

 34 37  0  0  1  0  0  0  0  0999 V2000
   21.9070   63.9200   -7.3660 C   0  0  2  0  0  3  0  0  0  0  0  0
   23.0460   63.4040   -8.0980 N   0  0  0  0  0  0  0  0  0  0  0  0
   22.8240   63.7340   -9.4710 C   0  0  0  0  0  0  0  0  0  0  0  0
   23.6980   63.8860  -10.3600 O   0  0  0  0  0  0  0  0  0  0  0  0
   21.3780   63.8560   -9.6220 C   0  0  0  0  0  0  0  0  0  0  0  0
   20.7040   64.1340  -10.6450 O   0  0  0  0  0  0  0  0  0  0  0  0
   20.7810   63.5920   -8.3170 C   0  0  0  0  0  0  0  0  0  0  0  0
   19.5530   63.2060   -8.0720 C   0  0  0  0  0  0  0  0  0  0  0  0
   19.2050   63.0730   -6.7160 O   0  0  0  0  0  1  0  0  0  0  0  0
   24.2100   62.6820   -7.5580 C   0  0  0  0  0  2  0  0  0  0  0  0
   24.7160   63.3680   -6.2800 C   0  0  0  0  0  2  0  0  0  0  0  0
   25.4800   62.3710   -5.4550 C   0  0  0  0  0  2  0  0  0  0  0  0
   24.6390   61.9090   -4.3770 N   0  0  0  0  0  4  0  0  0  0  0  0
   23.6400   62.8470   -3.9720 C   0  0  0  0  0  2  0  0  0  0  0  0
   24.1950   64.0090   -3.2220 C   0  0  0  0  0  2  0  0  0  0  0  0
   24.9230   63.5870   -2.1230 O   0  0  0  0  0  0  0  0  0  0  0  0
   25.9870   62.8160   -2.5910 C   0  0  0  0  0  2  0  0  0  0  0  0
   25.4090   61.5530   -3.1990 C   0  0  0  0  0  2  0  0  0  0  0  0
   24.1630   61.0300   -4.6900 H   0  0  0  0  0  0  0  0  0  0  0  0
   22.0230   65.3540   -7.1450 C   0  0  0  0  0  0  0  0  0  0  0  0
   23.0970   65.8730   -6.4650 C   0  0  0  0  0  3  0  0  0  0  0  0
   23.2160   67.2460   -6.2340 C   0  0  0  0  0  3  0  0  0  0  0  0
   22.2480   68.1100   -6.6900 C   0  0  0  0  0  0  0  0  0  0  0  0
   22.4130   69.9830   -6.3710 Br  0  0  0  0  0  0  0  0  0  0  0  0
   21.1720   67.6060   -7.3700 C   0  0  0  0  0  3  0  0  0  0  0  0
   21.0700   66.2440   -7.5900 C   0  0  0  0  0  3  0  0  0  0  0  0
   18.5770   62.9160   -9.1180 C   0  0  0  0  0  0  0  0  0  0  0  0
   17.7250   63.8500   -9.6610 C   0  0  0  0  0  3  0  0  0  0  0  0
   16.7840   63.5780  -10.6380 C   0  0  0  0  0  0  0  0  0  0  0  0
   16.6830   62.2980  -11.1040 C   0  0  0  0  0  3  0  0  0  0  0  0
   17.5250   61.3200  -10.5840 C   0  0  0  0  0  3  0  0  0  0  0  0
   18.4520   61.6290   -9.6100 C   0  0  0  0  0  3  0  0  0  0  0  0
   16.0150   64.6360  -11.0670 O   0  0  0  0  0  0  0  0  0  0  0  0
   14.8250   64.5900  -11.7750 C   0  0  0  0  0  1  0  0  0  0  0  0
  1 20  1  6  0  0  0
  2 10  1  0  0  0  0
  2  1  1  0  0  0  0
  3  2  1  0  0  0  0
  4  3  2  0  0  0  0
  5  3  1  0  0  0  0
  5  7  1  0  0  0  0
  6  5  2  0  0  0  0
  7  8  2  0  0  0  0
  7  1  1  0  0  0  0
  8  9  1  0  0  0  0
 10 11  1  0  0  0  0
 11 12  1  0  0  0  0
 12 13  1  0  0  0  0
 13 14  1  0  0  0  0
 13 18  1  0  0  0  0
 14 15  1  0  0  0  0
 15 16  1  0  0  0  0
 17 16  1  0  0  0  0
 18 17  1  0  0  0  0
 19 13  1  0  0  0  0
 20 21  1  0  0  0  0
 21 22  2  0  0  0  0
 23 24  1  0  0  0  0
 23 22  1  0  0  0  0
 25 23  2  0  0  0  0
 26 25  1  0  0  0  0
 26 20  2  0  0  0  0
 27  8  1  0  0  0  0
 28 27  2  0  0  0  0
 29 28  1  0  0  0  0
 30 29  2  0  0  0  0
 30 31  1  0  0  0  0
 31 32  2  0  0  0  0
 32 27  1  0  0  0  0
 33 29  1  0  0  0  0
 34 33  1  0  0  0  0
M  END
>  <Pose>
1

>  <Score>
-6.873

$$$$
