/Users/jonathanwahrer/Desktop/Msc/3_Semester/Drug_Design_Praktikum/waehrer_HTS_screening/HTS_experiment/out/docking_results/vina_output/3sx0/0349_docked.pdbqt
 OpenBabel03192221403D

 32 35  0  0  1  0  0  0  0  0999 V2000
   21.8610   63.6760  -10.1600 C   0  0  1  0  0  3  0  0  0  0  0  0
   22.5420   63.1150  -11.2460 N   0  0  0  0  0  0  0  0  0  0  0  0
   21.6450   63.3820  -12.3900 C   0  0  0  0  0  0  0  0  0  0  0  0
   21.9800   63.5650  -13.5930 O   0  0  0  0  0  0  0  0  0  0  0  0
   20.3000   63.3820  -11.8050 C   0  0  0  0  0  0  0  0  0  0  0  0
   19.1890   63.5560  -12.3920 O   0  0  0  0  0  0  0  0  0  0  0  0
   20.4910   63.1260  -10.3650 C   0  0  0  0  0  0  0  0  0  0  0  0
   19.6670   62.5220   -9.5390 C   0  0  0  0  0  0  0  0  0  0  0  0
   20.0330   62.2980   -8.2170 O   0  0  0  0  0  1  0  0  0  0  0  0
   23.8020   62.4370  -11.5090 C   0  0  0  0  0  2  0  0  0  0  0  0
   24.9100   63.3540  -11.9590 C   0  0  0  0  0  2  0  0  0  0  0  0
   25.4960   62.9840  -13.2050 N   0  0  0  0  0  4  0  0  0  0  0  0
   26.8840   63.4030  -13.2510 C   0  0  0  0  0  2  0  0  0  0  0  0
   27.4790   62.9580  -14.5600 C   0  0  0  0  0  2  0  0  0  0  0  0
   26.8720   63.7410  -15.5560 O   0  0  0  0  0  0  0  0  0  0  0  0
   25.5330   63.4280  -15.5760 C   0  0  0  0  0  2  0  0  0  0  0  0
   24.8340   63.7500  -14.2800 C   0  0  0  0  0  2  0  0  0  0  0  0
   25.4040   61.9800  -13.4180 H   0  0  0  0  0  0  0  0  0  0  0  0
   22.3310   63.8870   -8.8450 C   0  0  0  0  0  0  0  0  0  0  0  0
   23.3430   63.0350   -8.3780 C   0  0  0  0  0  3  0  0  0  0  0  0
   23.8640   63.1400   -7.1200 C   0  0  0  0  0  3  0  0  0  0  0  0
   23.4080   64.1040   -6.2480 C   0  0  0  0  0  0  0  0  0  0  0  0
   24.1190   64.2790   -4.4780 Br  0  0  0  0  0  0  0  0  0  0  0  0
   22.4160   64.9410   -6.7000 C   0  0  0  0  0  3  0  0  0  0  0  0
   21.8870   64.8290   -7.9860 C   0  0  0  0  0  3  0  0  0  0  0  0
   18.3430   62.0660   -9.9330 C   0  0  0  0  0  0  0  0  0  0  0  0
   17.9550   60.7720  -10.0890 C   0  0  0  0  0  3  0  0  0  0  0  0
   16.6430   60.4690  -10.4250 C   0  0  0  0  0  3  0  0  0  0  0  0
   15.7180   61.4720  -10.6060 C   0  0  0  0  0  0  0  0  0  0  0  0
   16.0710   62.7930  -10.4570 C   0  0  0  0  0  3  0  0  0  0  0  0
   14.2980   61.1840  -10.9680 C   0  0  0  0  0  1  0  0  0  0  0  0
   17.3880   63.0720  -10.1200 C   0  0  0  0  0  3  0  0  0  0  0  0
  1 19  1  1  0  0  0
  2  1  1  0  0  0  0
  3  5  1  0  0  0  0
  3  2  1  0  0  0  0
  4  3  2  0  0  0  0
  5  7  1  0  0  0  0
  6  5  2  0  0  0  0
  7  1  1  0  0  0  0
  7  8  2  0  0  0  0
  8  9  1  0  0  0  0
 10  2  1  0  0  0  0
 11 10  1  0  0  0  0
 12 11  1  0  0  0  0
 13 12  1  0  0  0  0
 14 13  1  0  0  0  0
 15 14  1  0  0  0  0
 16 15  1  0  0  0  0
 16 17  1  0  0  0  0
 17 12  1  0  0  0  0
 18 12  1  0  0  0  0
 19 20  2  0  0  0  0
 19 25  1  0  0  0  0
 20 21  1  0  0  0  0
 21 22  2  0  0  0  0
 22 23  1  0  0  0  0
 24 22  1  0  0  0  0
 25 24  2  0  0  0  0
 26  8  1  0  0  0  0
 27 26  1  0  0  0  0
 28 27  2  0  0  0  0
 29 30  2  0  0  0  0
 29 28  1  0  0  0  0
 30 32  1  0  0  0  0
 31 29  1  0  0  0  0
 32 26  2  0  0  0  0
M  END
>  <Pose>
1

>  <Score>
-7.821

$$$$
