/Users/jonathanwahrer/Desktop/Msc/3_Semester/Drug_Design_Praktikum/waehrer_HTS_screening/HTS_experiment/out/docking_results/vina_output/3sx0/0354_docked.pdbqt
 OpenBabel03192221413D

 32 35  0  0  1  0  0  0  0  0999 V2000
   21.8510   64.0690  -10.1530 C   0  0  1  0  0  3  0  0  0  0  0  0
   22.7370   63.5420  -11.1410 N   0  0  0  0  0  0  0  0  0  0  0  0
   21.8960   63.1910  -12.2700 C   0  0  0  0  0  0  0  0  0  0  0  0
   22.3100   63.0410  -13.4490 O   0  0  0  0  0  0  0  0  0  0  0  0
   20.5360   63.0510  -11.7850 C   0  0  0  0  0  0  0  0  0  0  0  0
   19.5010   62.7480  -12.4540 O   0  0  0  0  0  0  0  0  0  0  0  0
   20.5800   63.3270  -10.3640 C   0  0  0  0  0  0  0  0  0  0  0  0
   19.6790   62.9530   -9.4730 C   0  0  0  0  0  0  0  0  0  0  0  0
   19.9550   63.2950   -8.1270 O   0  0  0  0  0  1  0  0  0  0  0  0
   24.1940   63.4070  -11.1800 C   0  0  0  0  0  2  0  0  0  0  0  0
   24.8690   64.1370  -12.2910 C   0  0  0  0  0  2  0  0  0  0  0  0
   26.1000   63.3990  -12.7920 C   0  0  0  0  0  2  0  0  0  0  0  0
   26.4730   63.8390  -14.1160 N   0  0  0  0  0  4  0  0  0  0  0  0
   27.4950   63.0070  -14.7110 C   0  0  0  0  0  2  0  0  0  0  0  0
   27.4810   63.3020  -16.2130 C   0  0  0  0  0  2  0  0  0  0  0  0
   26.3730   62.6690  -16.7750 O   0  0  0  0  0  0  0  0  0  0  0  0
   25.2520   62.7700  -15.9520 C   0  0  0  0  0  2  0  0  0  0  0  0
   25.3600   63.9500  -15.0080 C   0  0  0  0  0  2  0  0  0  0  0  0
   26.8880   64.7950  -14.0050 H   0  0  0  0  0  0  0  0  0  0  0  0
   22.2890   64.0880   -8.7710 C   0  0  0  0  0  0  0  0  0  0  0  0
   21.8920   64.9400   -7.7960 C   0  0  0  0  0  3  0  0  0  0  0  0
   22.3610   64.8510   -6.4990 C   0  0  0  0  0  3  0  0  0  0  0  0
   23.2670   63.8820   -6.1260 C   0  0  0  0  0  0  0  0  0  0  0  0
   23.9280   63.7410   -4.3400 Br  0  0  0  0  0  0  0  0  0  0  0  0
   23.6930   62.9990   -7.0940 C   0  0  0  0  0  3  0  0  0  0  0  0
   23.2130   63.1050   -8.3780 C   0  0  0  0  0  3  0  0  0  0  0  0
   18.4570   62.2400   -9.7900 C   0  0  0  0  0  0  0  0  0  0  0  0
   17.3660   63.0300  -10.1730 C   0  0  0  0  0  3  0  0  0  0  0  0
   16.1550   62.4820  -10.5430 C   0  0  0  0  0  3  0  0  0  0  0  0
   16.0030   61.1450  -10.5400 N   0  0  0  0  0  0  0  0  0  0  0  0
   17.0380   60.3600  -10.1750 C   0  0  0  0  0  3  0  0  0  0  0  0
   18.2660   60.9020   -9.8000 C   0  0  0  0  0  3  0  0  0  0  0  0
  1 20  1  1  0  0  0
  2  1  1  0  0  0  0
  3  5  1  0  0  0  0
  3  2  1  0  0  0  0
  4  3  2  0  0  0  0
  5  7  1  0  0  0  0
  6  5  2  0  0  0  0
  7  1  1  0  0  0  0
  7  8  2  0  0  0  0
  8  9  1  0  0  0  0
 10  2  1  0  0  0  0
 11 10  1  0  0  0  0
 12 11  1  0  0  0  0
 13 19  1  0  0  0  0
 13 12  1  0  0  0  0
 14 13  1  0  0  0  0
 15 14  1  0  0  0  0
 16 15  1  0  0  0  0
 16 17  1  0  0  0  0
 17 18  1  0  0  0  0
 18 13  1  0  0  0  0
 20 26  2  0  0  0  0
 20 21  1  0  0  0  0
 21 22  2  0  0  0  0
 22 23  1  0  0  0  0
 23 24  1  0  0  0  0
 25 23  2  0  0  0  0
 26 25  1  0  0  0  0
 27  8  1  0  0  0  0
 28 27  2  0  0  0  0
 29 30  2  0  0  0  0
 29 28  1  0  0  0  0
 30 31  1  0  0  0  0
 31 32  2  0  0  0  0
 32 27  1  0  0  0  0
M  END
>  <Pose>
1

>  <Score>
-8.445

$$$$
