/Users/jonathanwahrer/Desktop/Msc/3_Semester/Drug_Design_Praktikum/waehrer_HTS_screening/HTS_experiment/out/docking_results/vina_output/3sx0/0361_docked.pdbqt
 OpenBabel03192221413D

 33 36  0  0  1  0  0  0  0  0999 V2000
   10.9190   66.1260  -14.7120 C   0  0  1  0  0  3  0  0  0  0  0  0
   10.6780   65.4490  -15.9990 N   0  0  0  0  0  0  0  0  0  0  0  0
   11.9650   65.0040  -16.4130 C   0  0  0  0  0  0  0  0  0  0  0  0
   12.2890   64.7880  -17.6170 O   0  0  0  0  0  0  0  0  0  0  0  0
   12.8100   64.8460  -15.2350 C   0  0  0  0  0  0  0  0  0  0  0  0
   13.9990   64.4660  -15.2080 O   0  0  0  0  0  0  0  0  0  0  0  0
   11.9680   65.2210  -14.1130 C   0  0  0  0  0  0  0  0  0  0  0  0
   12.0620   64.8360  -12.8660 C   0  0  0  0  0  0  0  0  0  0  0  0
   11.1370   65.2510  -11.9180 O   0  0  0  0  0  1  0  0  0  0  0  0
   11.5600   67.4430  -14.9240 C   0  0  0  0  0  0  0  0  0  0  0  0
   11.5480   68.4100  -13.9470 C   0  0  0  0  0  3  0  0  0  0  0  0
   12.1570   69.6520  -14.1240 C   0  0  0  0  0  3  0  0  0  0  0  0
   12.8030   69.9440  -15.3110 C   0  0  0  0  0  0  0  0  0  0  0  0
   13.6490   71.6490  -15.5740 Br  0  0  0  0  0  0  0  0  0  0  0  0
   12.8130   68.9760  -16.2830 C   0  0  0  0  0  3  0  0  0  0  0  0
   12.2080   67.7550  -16.0990 C   0  0  0  0  0  3  0  0  0  0  0  0
   13.1300   63.9660  -12.4130 C   0  0  0  0  0  0  0  0  0  0  0  0
   14.2220   64.2070  -11.6580 N   0  0  0  0  0  0  0  0  0  0  0  0
   14.9620   63.0980  -11.5210 C   0  0  0  0  0  0  0  0  0  0  0  0
   14.6590   65.3270  -11.0270 C   0  0  0  0  0  3  0  0  0  0  0  0
   14.3170   62.1320  -12.2100 N   0  0  0  0  0  0  0  0  0  0  0  0
   16.1390   63.0560  -10.7730 C   0  0  0  0  0  3  0  0  0  0  0  0
   13.2150   62.6010  -12.7620 C   0  0  0  0  0  0  0  0  0  0  0  0
   12.1960   61.8980  -13.6050 C   0  0  0  0  0  1  0  0  0  0  0  0
   16.5880   64.1880  -10.1330 C   0  0  0  0  0  3  0  0  0  0  0  0
   15.8150   65.3160  -10.2830 C   0  0  0  0  0  3  0  0  0  0  0  0
    9.4090   65.3070  -16.6640 C   0  0  0  0  0  2  0  0  0  0  0  0
    8.5000   64.2120  -16.2670 C   0  0  0  0  0  3  0  0  0  0  0  0
    8.9890   63.0860  -15.4440 C   0  0  0  0  0  3  0  0  0  0  0  0
    8.0830   62.0130  -15.1640 N   0  0  0  0  0  4  0  0  0  0  0  0
    8.5200   60.8590  -16.0000 C   0  0  0  0  0  1  0  0  0  0  0  0
    8.2680   61.5540  -13.8030 C   0  0  0  0  0  1  0  0  0  0  0  0
    7.0940   62.1840  -15.3450 H   0  0  0  0  0  0  0  0  0  0  0  0
  1 10  1  6  0  0  0
  1  7  1  0  0  0  0
  2  1  1  0  0  0  0
  3  2  1  0  0  0  0
  3  5  1  0  0  0  0
  4  3  2  0  0  0  0
  5  6  2  0  0  0  0
  5  7  1  0  0  0  0
  7  8  2  0  0  0  0
  8 17  1  0  0  0  0
  8  9  1  0  0  0  0
 10 11  1  0  0  0  0
 12 11  2  0  0  0  0
 13 12  1  0  0  0  0
 14 13  1  0  0  0  0
 15 16  1  0  0  0  0
 15 13  2  0  0  0  0
 16 10  2  0  0  0  0
 17 18  1  0  0  0  0
 18 19  1  0  0  0  0
 18 20  1  0  0  0  0
 19 22  1  0  0  0  0
 20 26  2  0  0  0  0
 21 19  2  0  0  0  0
 22 25  2  0  0  0  0
 23 17  2  0  0  0  0
 23 21  1  0  0  0  0
 24 23  1  0  0  0  0
 26 25  1  0  0  0  0
 27 28  1  0  0  0  0
 27  2  1  0  0  0  0
 28 29  2  0  0  0  0
 29 30  1  0  0  0  0
 30 32  1  0  0  0  0
 31 30  1  0  0  0  0
 33 30  1  0  0  0  0
M  END
>  <Pose>
1

>  <Score>
-3.405

$$$$
