/Users/jonathanwahrer/Desktop/Msc/3_Semester/Drug_Design_Praktikum/waehrer_HTS_screening/HTS_experiment/out/docking_results/vina_output/3sx0/0364_docked.pdbqt
 OpenBabel03192221423D

 32 35  0  0  1  0  0  0  0  0999 V2000
   11.5900   64.4040  -13.7910 C   0  0  1  0  0  3  0  0  0  0  0  0
   12.9540   64.2750  -13.3570 N   0  0  0  0  0  0  0  0  0  0  0  0
   13.7190   65.2320  -14.0690 C   0  0  0  0  0  0  0  0  0  0  0  0
   14.9810   65.2860  -14.1050 O   0  0  0  0  0  0  0  0  0  0  0  0
   12.8130   66.1520  -14.7610 C   0  0  0  0  0  0  0  0  0  0  0  0
   13.1220   67.1310  -15.4850 O   0  0  0  0  0  0  0  0  0  0  0  0
   11.4620   65.7220  -14.4490 C   0  0  0  0  0  0  0  0  0  0  0  0
   10.3600   66.4200  -14.6680 C   0  0  0  0  0  0  0  0  0  0  0  0
    9.1460   65.8610  -14.2220 O   0  0  0  0  0  1  0  0  0  0  0  0
   11.1800   63.2930  -14.6920 C   0  0  0  0  0  0  0  0  0  0  0  0
   11.8030   63.0420  -15.8930 C   0  0  0  0  0  3  0  0  0  0  0  0
   11.4500   62.0250  -16.7490 C   0  0  0  0  0  3  0  0  0  0  0  0
   10.4210   61.1930  -16.4150 C   0  0  0  0  0  0  0  0  0  0  0  0
    9.9460   59.7850  -17.6160 Br  0  0  0  0  0  0  0  0  0  0  0  0
    9.7670   61.4030  -15.2240 C   0  0  0  0  0  3  0  0  0  0  0  0
   10.1320   62.4250  -14.3800 C   0  0  0  0  0  3  0  0  0  0  0  0
   10.2750   67.6980  -15.3300 C   0  0  0  0  0  0  0  0  0  0  0  0
   10.6800   68.9300  -14.9970 N   0  0  0  0  0  0  0  0  0  0  0  0
   10.3290   69.8220  -15.9390 C   0  0  0  0  0  0  0  0  0  0  0  0
   11.3670   69.3800  -13.9250 C   0  0  0  0  0  3  0  0  0  0  0  0
    9.6840   69.1420  -16.9020 N   0  0  0  0  0  0  0  0  0  0  0  0
   10.6350   71.1760  -15.8670 C   0  0  0  0  0  3  0  0  0  0  0  0
    9.6320   67.8520  -16.5650 C   0  0  0  0  0  0  0  0  0  0  0  0
    8.9970   66.7770  -17.3790 C   0  0  0  0  0  1  0  0  0  0  0  0
   11.3300   71.6260  -14.7790 C   0  0  0  0  0  3  0  0  0  0  0  0
   11.6940   70.7110  -13.8080 C   0  0  0  0  0  3  0  0  0  0  0  0
   13.4750   63.3230  -12.3510 C   0  0  0  0  0  2  0  0  0  0  0  0
   14.0350   64.0800  -11.1660 C   0  0  0  0  0  2  0  0  0  0  0  0
   15.4550   64.0800  -11.1150 N   0  0  0  0  0  4  0  0  0  0  0  0
   15.8630   65.0470  -10.0950 C   0  0  0  0  0  1  0  0  0  0  0  0
   16.0550   62.8170  -10.8140 C   0  0  0  0  0  1  0  0  0  0  0  0
   15.8840   64.4210  -12.0210 H   0  0  0  0  0  0  0  0  0  0  0  0
  1 10  1  6  0  0  0
  1  2  1  0  0  0  0
  2 27  1  0  0  0  0
  3  2  1  0  0  0  0
  4  3  2  0  0  0  0
  5  7  1  0  0  0  0
  5  3  1  0  0  0  0
  6  5  2  0  0  0  0
  7  1  1  0  0  0  0
  8  7  2  0  0  0  0
  8  9  1  0  0  0  0
 10 16  1  0  0  0  0
 11 10  2  0  0  0  0
 12 13  2  0  0  0  0
 12 11  1  0  0  0  0
 13 15  1  0  0  0  0
 14 13  1  0  0  0  0
 15 16  2  0  0  0  0
 17 18  1  0  0  0  0
 17  8  1  0  0  0  0
 18 20  1  0  0  0  0
 19 22  1  0  0  0  0
 19 18  1  0  0  0  0
 20 26  2  0  0  0  0
 21 23  1  0  0  0  0
 21 19  2  0  0  0  0
 22 25  2  0  0  0  0
 23 17  2  0  0  0  0
 24 23  1  0  0  0  0
 25 26  1  0  0  0  0
 27 28  1  0  0  0  0
 28 29  1  0  0  0  0
 29 31  1  0  0  0  0
 29 30  1  0  0  0  0
 32 29  1  0  0  0  0
M  END
>  <Pose>
1

>  <Score>
-4.931

$$$$
