/Users/jonathanwahrer/Desktop/Msc/3_Semester/Drug_Design_Praktikum/waehrer_HTS_screening/HTS_experiment/out/docking_results/vina_output/3sx0/0382_docked.pdbqt
 OpenBabel03192221423D

 31 34  0  0  0  0  0  0  0  0999 V2000
   14.7290   62.8010  -11.2600 N   0  0  0  0  0  0  0  0  0  0  0  0
   14.2250   61.5700  -11.1700 N   0  0  0  0  0  0  0  0  0  0  0  0
   15.1530   60.7480  -10.7380 N   0  0  0  0  0  0  0  0  0  0  0  0
   16.2920   61.4540  -10.5390 C   0  0  0  0  0  0  0  0  0  0  0  0
   16.0120   62.7210  -10.8660 C   0  0  0  0  0  0  0  0  0  0  0  0
   17.1900   63.4040  -10.6500 C   0  0  0  0  0  0  0  0  0  0  0  0
   17.3040   64.6490  -10.8560 O   0  0  0  0  0  0  0  0  0  0  0  0
   18.1660   62.5970  -10.2060 N   0  0  0  0  0  0  0  0  0  0  0  0
   17.6020   61.3580  -10.1340 C   0  0  0  0  0  0  0  0  0  0  0  0
   18.2390   60.3390   -9.7500 O   0  0  0  0  0  0  0  0  0  0  0  0
   13.2390   61.3400  -11.4150 H   0  0  0  0  0  0  0  0  0  0  0  0
   15.0820   59.7150  -10.5600 H   0  0  0  0  0  0  0  0  0  0  0  0
   13.9840   63.9620  -11.7050 C   0  0  0  0  0  2  0  0  0  0  0  0
   13.0700   63.5410  -12.8440 C   0  0  0  0  0  0  0  0  0  0  0  0
   12.0470   64.3980  -13.2730 N   0  0  0  0  0  0  0  0  0  0  0  0
   11.9310   65.3380  -12.7780 H   0  0  0  0  0  0  0  0  0  0  0  0
   13.2470   62.4280  -13.3820 O   0  0  0  0  0  0  0  0  0  0  0  0
   11.1320   64.1420  -14.3190 C   0  0  0  0  0  0  0  0  0  0  0  0
   11.4570   64.0180  -15.6530 C   0  0  0  0  0  3  0  0  0  0  0  0
   10.5220   63.7410  -16.6410 C   0  0  0  0  0  3  0  0  0  0  0  0
    9.1990   63.5740  -16.3170 C   0  0  0  0  0  0  0  0  0  0  0  0
    7.8660   63.1900  -17.6160 Br  0  0  0  0  0  0  0  0  0  0  0  0
    8.8500   63.6930  -14.9900 C   0  0  0  0  0  3  0  0  0  0  0  0
    9.7670   63.9650  -14.0250 C   0  0  0  0  0  3  0  0  0  0  0  0
   19.5220   62.9250   -9.8680 C   0  0  0  0  0  0  0  0  0  0  0  0
   20.4720   63.1130  -10.8490 C   0  0  0  0  0  3  0  0  0  0  0  0
   21.7760   63.4380  -10.5320 C   0  0  0  0  0  3  0  0  0  0  0  0
   22.1960   63.5910   -9.2230 C   0  0  0  0  0  0  0  0  0  0  0  0
   21.2470   63.4040   -8.2390 C   0  0  0  0  0  3  0  0  0  0  0  0
   23.6070   63.9480   -8.9160 C   0  0  0  0  0  1  0  0  0  0  0  0
   19.9400   63.0780   -8.5630 C   0  0  0  0  0  3  0  0  0  0  0  0
  1  2  1  0  0  0  0
  1  5  1  0  0  0  0
  2  3  1  0  0  0  0
  3 12  1  0  0  0  0
  3  4  1  0  0  0  0
  4  9  1  0  0  0  0
  5  6  1  0  0  0  0
  5  4  2  0  0  0  0
  6  8  1  0  0  0  0
  7  6  2  0  0  0  0
  8  9  1  0  0  0  0
  8 25  1  0  0  0  0
  9 10  2  0  0  0  0
 11  2  1  0  0  0  0
 13  1  1  0  0  0  0
 14 13  1  0  0  0  0
 15 14  1  0  0  0  0
 15 16  1  0  0  0  0
 17 14  2  0  0  0  0
 18 24  1  0  0  0  0
 18 15  1  0  0  0  0
 19 18  2  0  0  0  0
 20 21  2  0  0  0  0
 20 19  1  0  0  0  0
 21 23  1  0  0  0  0
 22 21  1  0  0  0  0
 23 24  2  0  0  0  0
 25 31  1  0  0  0  0
 26 27  1  0  0  0  0
 26 25  2  0  0  0  0
 27 28  2  0  0  0  0
 28 30  1  0  0  0  0
 28 29  1  0  0  0  0
 31 29  2  0  0  0  0
M  END
>  <Pose>
1

>  <Score>
-8.416

$$$$
