/Users/jonathanwahrer/Desktop/Msc/3_Semester/Drug_Design_Praktikum/waehrer_HTS_screening/HTS_experiment/out/docking_results/vina_output/3sx0/0385_docked.pdbqt
 OpenBabel03192221433D

 32 35  0  0  1  0  0  0  0  0999 V2000
   20.7640   64.2960   -8.9990 C   0  0  2  0  0  3  0  0  0  0  0  0
   21.2150   64.3370  -10.4290 C   0  0  0  0  0  2  0  0  0  0  0  0
   22.3840   63.4990  -10.7250 C   0  0  0  0  0  0  0  0  0  0  0  0
   22.4790   63.0070  -11.8820 O   0  0  0  0  0  0  0  0  0  0  0  0
   23.3620   63.2620   -9.7290 N   0  0  0  0  0  0  0  0  0  0  0  0
   23.0730   63.5380   -8.3750 C   0  0  0  0  0  0  0  0  0  0  0  0
   24.0390   63.3130   -7.4300 N   0  0  0  0  0  0  0  0  0  0  0  0
   23.8390   63.5650   -6.1350 C   0  0  0  0  0  0  0  0  0  0  0  0
   22.6450   64.0520   -5.7740 N   0  0  0  0  0  0  0  0  0  0  0  0
   21.6470   64.2920   -6.6740 C   0  0  0  0  0  0  0  0  0  0  0  0
   21.8290   64.0410   -8.0200 C   0  0  0  0  0  0  0  0  0  0  0  0
   24.3210   62.8770   -9.9690 H   0  0  0  0  0  0  0  0  0  0  0  0
   19.6680   63.2100   -8.9510 C   0  0  0  0  0  0  0  0  0  0  0  0
   18.5120   63.4160   -9.5590 N   0  0  0  0  0  0  0  0  0  0  0  0
   18.0130   62.2770   -9.0030 H   0  0  0  0  0  0  0  0  0  0  0  0
   20.0950   62.1960   -8.2680 O   0  0  0  0  0  0  0  0  0  0  0  0
   17.3120   63.6290  -10.1890 C   0  0  0  0  0  0  0  0  0  0  0  0
   16.5910   62.4600  -10.5930 C   0  0  0  0  0  3  0  0  0  0  0  0
   15.3690   62.5440  -11.1540 C   0  0  0  0  0  3  0  0  0  0  0  0
   14.7560   63.7530  -11.3680 C   0  0  0  0  0  0  0  0  0  0  0  0
   13.0120   63.8530  -12.1630 Br  0  0  0  0  0  0  0  0  0  0  0  0
   15.4180   64.9030  -10.9950 C   0  0  0  0  0  3  0  0  0  0  0  0
   16.6620   64.8210  -10.4210 C   0  0  0  0  0  3  0  0  0  0  0  0
   20.3900   64.7990   -6.2380 N   0  0  0  0  0  0  0  0  0  0  0  0
   19.5830   64.9090   -6.8590 H   0  0  0  0  0  0  0  0  0  0  0  0
   20.2870   65.0810   -5.2300 H   0  0  0  0  0  0  0  0  0  0  0  0
   24.8730   63.3170   -5.1560 N   0  0  0  0  0  0  0  0  0  0  0  0
   24.5930   63.6810   -3.8110 C   0  0  0  0  0  2  0  0  0  0  0  0
   25.4730   63.0150   -2.7930 C   0  0  0  0  0  2  0  0  0  0  0  0
   26.3430   62.0920   -3.3650 O   0  0  0  0  0  0  0  0  0  0  0  0
   27.0480   62.6350   -4.4300 C   0  0  0  0  0  2  0  0  0  0  0  0
   26.1110   62.7150   -5.6080 C   0  0  0  0  0  2  0  0  0  0  0  0
  1 13  1  6  0  0  0
  1 11  1  0  0  0  0
  2  1  1  0  0  0  0
  3  2  1  0  0  0  0
  3  5  1  0  0  0  0
  4  3  2  0  0  0  0
  5  6  1  0  0  0  0
  6 11  2  0  0  0  0
  6  7  1  0  0  0  0
  7  8  2  0  0  0  0
  8  9  1  0  0  0  0
  8 27  1  0  0  0  0
 10 24  1  0  0  0  0
 10  9  2  0  0  0  0
 11 10  1  0  0  0  0
 12  5  1  0  0  0  0
 13 16  2  0  0  0  0
 14 15  1  0  0  0  0
 14 13  1  0  0  0  0
 17 14  1  0  0  0  0
 18 17  2  0  0  0  0
 19 18  1  0  0  0  0
 20 19  2  0  0  0  0
 20 22  1  0  0  0  0
 21 20  1  0  0  0  0
 22 23  2  0  0  0  0
 23 17  1  0  0  0  0
 24 26  1  0  0  0  0
 25 24  1  0  0  0  0
 27 28  1  0  0  0  0
 28 29  1  0  0  0  0
 30 29  1  0  0  0  0
 31 30  1  0  0  0  0
 32 27  1  0  0  0  0
 32 31  1  0  0  0  0
M  END
>  <Pose>
1

>  <Score>
-8.307

$$$$
