/Users/jonathanwahrer/Desktop/Msc/3_Semester/Drug_Design_Praktikum/waehrer_HTS_screening/HTS_experiment/out/docking_results/vina_output/3sx0/0386_docked.pdbqt
 OpenBabel03192221433D

 36 39  0  0  1  0  0  0  0  0999 V2000
   16.6270   62.6200  -10.3420 C   0  0  2  0  0  3  0  0  0  0  0  0
   17.1320   61.2100  -10.5880 C   0  0  0  0  0  2  0  0  0  0  0  0
   15.9590   60.2870  -10.5220 C   0  0  0  0  0  0  0  0  0  0  0  0
   16.0000   59.2740   -9.8470 O   0  0  0  0  0  0  0  0  0  0  0  0
   14.8320   60.6520  -11.2730 N   0  0  0  0  0  0  0  0  0  0  0  0
   14.6290   61.9950  -11.6670 C   0  0  0  0  0  0  0  0  0  0  0  0
   13.6040   62.3430  -12.4710 N   0  0  0  0  0  0  0  0  0  0  0  0
   13.3900   63.5630  -12.9650 C   0  0  0  0  0  0  0  0  0  0  0  0
   14.3060   64.4980  -12.6030 N   0  0  0  0  0  0  0  0  0  0  0  0
   15.3620   64.2200  -11.7950 C   0  0  0  0  0  0  0  0  0  0  0  0
   15.5760   62.9750  -11.2870 C   0  0  0  0  0  0  0  0  0  0  0  0
   14.0980   59.9590  -11.5780 H   0  0  0  0  0  0  0  0  0  0  0  0
   17.6980   63.6020  -10.0260 C   0  0  0  0  0  0  0  0  0  0  0  0
   18.9520   63.4810  -10.5020 N   0  0  0  0  0  0  0  0  0  0  0  0
   19.2750   64.6820   -9.9850 H   0  0  0  0  0  0  0  0  0  0  0  0
   17.2170   64.5420   -9.2570 O   0  0  0  0  0  0  0  0  0  0  0  0
   20.2310   63.3570  -10.9860 C   0  0  0  0  0  0  0  0  0  0  0  0
   21.2500   63.7320  -10.0520 C   0  0  0  0  0  3  0  0  0  0  0  0
   22.5350   63.7020  -10.4800 C   0  0  0  0  0  3  0  0  0  0  0  0
   22.9030   63.3310  -11.7620 C   0  0  0  0  0  0  0  0  0  0  0  0
   24.7310   63.3260  -12.2520 Br  0  0  0  0  0  0  0  0  0  0  0  0
   21.9430   62.9720  -12.6640 C   0  0  0  0  0  3  0  0  0  0  0  0
   20.6290   62.9940  -12.2510 C   0  0  0  0  0  3  0  0  0  0  0  0
   16.2560   65.2390  -11.4750 O   0  0  0  0  0  0  0  0  0  0  0  0
   15.9610   66.2060  -11.3580 H   0  0  0  0  0  0  0  0  0  0  0  0
   12.2780   63.9130  -13.7650 N   0  0  0  0  0  0  0  0  0  0  0  0
   11.3240   64.9590  -13.5000 C   0  0  0  0  0  2  0  0  0  0  0  0
   10.9660   65.6270  -14.8240 C   0  0  0  0  0  2  0  0  0  0  0  0
   12.0930   65.5670  -15.8130 C   0  0  2  0  0  3  0  0  0  0  0  0
   12.4760   64.1630  -16.1220 C   0  0  0  0  0  2  0  0  0  0  0  0
   12.0430   63.1770  -15.0120 C   0  0  0  0  0  2  0  0  0  0  0  0
   13.2430   66.4030  -15.3960 C   0  0  0  0  0  0  0  0  0  0  0  0
   13.0050   67.5690  -15.0180 O   0  0  0  0  0  0  0  0  0  0  0  0
   14.5840   65.9590  -15.4060 N   0  0  0  0  0  0  0  0  0  0  0  0
   14.8530   64.9850  -15.1750 H   0  0  0  0  0  0  0  0  0  0  0  0
   15.3320   66.6380  -15.6580 H   0  0  0  0  0  0  0  0  0  0  0  0
  1 13  1  6  0  0  0
  2  3  1  0  0  0  0
  2  1  1  0  0  0  0
  3  4  2  0  0  0  0
  5  3  1  0  0  0  0
  6 11  2  0  0  0  0
  6  5  1  0  0  0  0
  7  6  1  0  0  0  0
  8  9  1  0  0  0  0
  8  7  2  0  0  0  0
  9 10  2  0  0  0  0
 10 24  1  0  0  0  0
 10 11  1  0  0  0  0
 11  1  1  0  0  0  0
 12  5  1  0  0  0  0
 13 16  2  0  0  0  0
 14 13  1  0  0  0  0
 14 15  1  0  0  0  0
 17 14  1  0  0  0  0
 17 18  1  0  0  0  0
 19 18  2  0  0  0  0
 20 19  1  0  0  0  0
 21 20  1  0  0  0  0
 22 23  1  0  0  0  0
 22 20  2  0  0  0  0
 23 17  2  0  0  0  0
 24 25  1  0  0  0  0
 26 27  1  0  0  0  0
 26  8  1  0  0  0  0
 28 27  1  0  0  0  0
 29 32  1  1  0  0  0
 29 28  1  0  0  0  0
 30 29  1  0  0  0  0
 30 31  1  0  0  0  0
 31 26  1  0  0  0  0
 32 33  2  0  0  0  0
 34 32  1  0  0  0  0
 34 35  1  0  0  0  0
 36 34  1  0  0  0  0
M  END
>  <Pose>
1

>  <Score>
-8.070

$$$$
