/Users/jonathanwahrer/Desktop/Msc/3_Semester/Drug_Design_Praktikum/waehrer_HTS_screening/HTS_experiment/out/docking_results/vina_output/3sx0/0399_docked.pdbqt
 OpenBabel03192221433D

 28 31  0  0  1  0  0  0  0  0999 V2000
   16.2020   63.3610  -10.8060 N   0  0  0  0  0  0  0  0  0  0  0  0
   15.3320   64.4650  -11.0290 C   0  0  0  0  0  0  0  0  0  0  0  0
   15.6500   65.6660  -10.8960 O   0  0  0  0  0  0  0  0  0  0  0  0
   13.9930   64.0150  -11.4380 C   0  0  2  0  0  3  0  0  0  0  0  0
   13.9470   62.6000  -10.8740 C   0  0  0  0  0  2  0  0  0  0  0  0
   15.3830   62.1820  -10.9340 C   0  0  0  0  0  0  0  0  0  0  0  0
   15.6990   60.9860  -11.0740 O   0  0  0  0  0  0  0  0  0  0  0  0
   13.7590   63.9950  -12.8640 N   0  0  1  0  0  4  0  0  0  0  0  0
   12.3560   63.9050  -13.1910 C   0  0  0  0  0  2  0  0  0  0  0  0
   11.7060   65.2300  -13.5200 C   0  0  0  0  0  2  0  0  0  0  0  0
   12.5690   66.0540  -14.3270 N   0  0  0  0  0  0  0  0  0  0  0  0
   13.7320   65.3710  -14.8440 C   0  0  0  0  0  2  0  0  0  0  0  0
   14.5130   64.9570  -13.5830 C   0  0  0  0  0  2  0  0  0  0  0  0
   14.1470   63.0380  -13.1660 H   0  0  0  0  0  0  0  0  0  0  0  0
   12.3370   67.4080  -14.5890 C   0  0  0  0  0  0  0  0  0  0  0  0
   11.5370   68.2430  -13.8360 C   0  0  0  0  0  3  0  0  0  0  0  0
   11.3210   69.5740  -14.1540 C   0  0  0  0  0  3  0  0  0  0  0  0
   11.9130   70.1190  -15.2620 C   0  0  0  0  0  0  0  0  0  0  0  0
   12.7230   69.3290  -16.0520 C   0  0  0  0  0  3  0  0  0  0  0  0
   11.7380   71.4510  -15.6380 O   0  0  0  0  0  1  0  0  0  0  0  0
   12.9230   68.0030  -15.7130 C   0  0  0  0  0  3  0  0  0  0  0  0
   17.6020   63.3610  -10.5190 C   0  0  0  0  0  0  0  0  0  0  0  0
   18.0780   63.0570   -9.2760 C   0  0  0  0  0  3  0  0  0  0  0  0
   19.4490   63.0600   -8.9990 C   0  0  0  0  0  3  0  0  0  0  0  0
   20.3700   63.3660   -9.9630 C   0  0  0  0  0  0  0  0  0  0  0  0
   22.2490   63.3710   -9.5940 Br  0  0  0  0  0  0  0  0  0  0  0  0
   19.8950   63.6710  -11.2180 C   0  0  0  0  0  3  0  0  0  0  0  0
   18.5170   63.6660  -11.4850 C   0  0  0  0  0  3  0  0  0  0  0  0
  1 22  1  0  0  0  0
  2  3  2  0  0  0  0
  2  1  1  0  0  0  0
  4  2  1  0  0  0  0
  4  5  1  6  0  0  0
  6  5  1  0  0  0  0
  6  1  1  0  0  0  0
  7  6  2  0  0  0  0
  8 14  1  6  0  0  0
  8  4  1  0  0  0  0
  9  8  1  0  0  0  0
 10  9  1  0  0  0  0
 11 10  1  0  0  0  0
 12 11  1  0  0  0  0
 12 13  1  0  0  0  0
 13  8  1  0  0  0  0
 15 11  1  0  0  0  0
 15 16  1  0  0  0  0
 17 16  2  0  0  0  0
 18 17  1  0  0  0  0
 19 21  1  0  0  0  0
 19 18  2  0  0  0  0
 20 18  1  0  0  0  0
 21 15  2  0  0  0  0
 22 23  1  0  0  0  0
 23 24  2  0  0  0  0
 25 26  1  0  0  0  0
 25 24  1  0  0  0  0
 27 25  2  0  0  0  0
 28 27  1  0  0  0  0
 28 22  2  0  0  0  0
M  END
>  <Pose>
1

>  <Score>
-6.979

$$$$
