/Users/jonathanwahrer/Desktop/Msc/3_Semester/Drug_Design_Praktikum/waehrer_HTS_screening/HTS_experiment/out/docking_results/vina_output/3sx0/0400_docked.pdbqt
 OpenBabel03192221443D

 31 34  0  0  1  0  0  0  0  0999 V2000
   20.5650   63.3960  -10.1990 N   0  0  2  0  0  0  0  0  0  0  0  0
   19.7450   63.3660  -11.3420 C   0  0  0  0  0  2  0  0  0  0  0  0
   18.9440   62.0570  -11.3360 C   0  0  0  0  0  2  0  0  0  0  0  0
   17.9450   62.0330  -10.2000 C   0  0  1  0  0  0  0  0  0  0  0  0
   18.5630   62.6000   -8.9860 C   0  0  0  0  0  2  0  0  0  0  0  0
   20.0650   62.6710   -9.0940 C   0  0  0  0  0  2  0  0  0  0  0  0
   21.3130   64.5530   -9.9160 C   0  0  2  0  0  3  0  0  0  0  0  0
   22.5850   64.1760   -9.2480 C   0  0  0  0  0  0  0  0  0  0  0  0
   22.5170   64.6330   -7.8930 N   0  0  0  0  0  0  0  0  0  0  0  0
   23.5300   63.5640   -9.8040 O   0  0  0  0  0  0  0  0  0  0  0  0
   21.6170   65.7340   -7.9170 C   0  0  0  0  0  0  0  0  0  0  0  0
   20.6160   65.5320   -8.9980 C   0  0  0  0  0  2  0  0  0  0  0  0
   21.6780   66.7350   -7.1190 O   0  0  0  0  0  0  0  0  0  0  0  0
   23.2130   64.0870   -6.7690 C   0  0  0  0  0  0  0  0  0  0  0  0
   22.8060   64.3940   -5.4980 C   0  0  0  0  0  3  0  0  0  0  0  0
   23.4750   63.8680   -4.3860 C   0  0  0  0  0  3  0  0  0  0  0  0
   24.5580   63.0310   -4.5200 C   0  0  0  0  0  0  0  0  0  0  0  0
   25.4790   62.3080   -3.0080 Br  0  0  0  0  0  0  0  0  0  0  0  0
   24.9670   62.7220   -5.7990 C   0  0  0  0  0  3  0  0  0  0  0  0
   24.2970   63.2470   -6.8930 C   0  0  0  0  0  3  0  0  0  0  0  0
   16.7540   62.6280  -10.6440 N   0  0  0  0  0  0  0  0  0  0  0  0
   16.7630   63.9880  -10.9860 C   0  0  0  0  0  2  0  0  0  0  0  0
   15.6650   64.6650  -10.1460 C   0  0  0  0  0  2  0  0  0  0  0  0
   14.3570   64.0770  -10.6320 C   0  0  0  0  0  2  0  0  0  0  0  0
   14.5250   62.8170  -11.4150 C   0  0  0  0  0  2  0  0  0  0  0  0
   15.6010   61.8900  -10.8290 C   0  0  0  0  0  2  0  0  0  0  0  0
   17.6630   60.5750   -9.9490 C   0  0  0  0  0  0  0  0  0  0  0  0
   18.5060   59.8680   -9.3190 O   0  0  0  0  0  0  0  0  0  0  0  0
   16.4790   59.9350  -10.3880 N   0  0  0  0  0  0  0  0  0  0  0  0
   16.5380   59.1650  -11.0650 H   0  0  0  0  0  0  0  0  0  0  0  0
   15.5500   60.2310  -10.0340 H   0  0  0  0  0  0  0  0  0  0  0  0
  1  2  1  6  0  0  0
  1  7  1  0  0  0  0
  1  6  1  0  0  0  0
  2  3  1  0  0  0  0
  3  4  1  0  0  0  0
  4 27  1  1  0  0  0
  4  5  1  0  0  0  0
  6  5  1  0  0  0  0
  7  8  1  0  0  0  0
  7 12  1  1  0  0  0
  8  9  1  0  0  0  0
  9 14  1  0  0  0  0
 10  8  2  0  0  0  0
 11  9  1  0  0  0  0
 11 13  2  0  0  0  0
 12 11  1  0  0  0  0
 14 15  1  0  0  0  0
 15 16  2  0  0  0  0
 17 16  1  0  0  0  0
 17 18  1  0  0  0  0
 19 17  2  0  0  0  0
 20 14  2  0  0  0  0
 20 19  1  0  0  0  0
 21  4  1  0  0  0  0
 22 21  1  0  0  0  0
 22 23  1  0  0  0  0
 24 23  1  0  0  0  0
 25 26  1  0  0  0  0
 25 24  1  0  0  0  0
 26 21  1  0  0  0  0
 27 28  2  0  0  0  0
 29 31  1  0  0  0  0
 29 27  1  0  0  0  0
 30 29  1  0  0  0  0
M  END
>  <Pose>
1

>  <Score>
-10.414

$$$$
