/Users/jonathanwahrer/Desktop/Msc/3_Semester/Drug_Design_Praktikum/waehrer_HTS_screening/HTS_experiment/out/docking_results/vina_output/3sx0/0408_docked.pdbqt
 OpenBabel03192221443D

 31 34  0  0  0  0  0  0  0  0999 V2000
   19.6490   63.1390  -10.7590 N   0  0  0  0  0  0  0  0  0  0  0  0
   20.3430   63.6750   -9.7410 C   0  0  0  0  0  0  0  0  0  0  0  0
   19.8250   64.0050   -8.6310 O   0  0  0  0  0  0  0  0  0  0  0  0
   21.6910   63.8160  -10.0750 C   0  0  0  0  0  0  0  0  0  0  0  0
   21.7980   63.3530  -11.3170 C   0  0  0  0  0  0  0  0  0  0  0  0
   23.1010   63.4970  -11.6160 N   0  0  0  0  0  0  0  0  0  0  0  0
   23.7520   64.0260  -10.5940 N   0  0  0  0  0  0  0  0  0  0  0  0
   22.8850   64.2280   -9.6310 N   0  0  0  0  0  0  0  0  0  0  0  0
   20.5530   62.9370  -11.7440 C   0  0  0  0  0  0  0  0  0  0  0  0
   20.2620   62.4450  -12.8560 O   0  0  0  0  0  0  0  0  0  0  0  0
   23.4810   63.2080  -12.5530 H   0  0  0  0  0  0  0  0  0  0  0  0
   24.7790   64.2250  -10.6120 H   0  0  0  0  0  0  0  0  0  0  0  0
   23.1410   64.7870   -8.3280 C   0  0  0  0  0  2  0  0  0  0  0  0
   23.6980   63.7650   -7.3800 C   0  0  0  0  0  0  0  0  0  0  0  0
   23.7190   62.5950   -7.8330 O   0  0  0  0  0  0  0  0  0  0  0  0
   24.1540   64.0940   -6.1010 N   0  0  0  0  0  0  0  0  0  0  0  0
   24.0710   65.1380   -5.8570 H   0  0  0  0  0  0  0  0  0  0  0  0
   24.6890   63.2260   -5.1420 C   0  0  0  0  0  0  0  0  0  0  0  0
   23.9510   63.0420   -3.9610 C   0  0  0  0  0  0  0  0  0  0  0  0
   24.4370   62.2000   -2.9940 C   0  0  0  0  0  3  0  0  0  0  0  0
   22.6660   63.7340   -3.7410 C   0  0  0  0  0  1  0  0  0  0  0  0
   25.6280   61.5170   -3.1250 C   0  0  0  0  0  3  0  0  0  0  0  0
   26.3500   61.6920   -4.2680 C   0  0  0  0  0  3  0  0  0  0  0  0
   25.8710   62.5360   -5.2470 C   0  0  0  0  0  3  0  0  0  0  0  0
   18.2550   62.8460  -10.7970 C   0  0  0  0  0  0  0  0  0  0  0  0
   17.3370   63.8300  -11.1220 C   0  0  0  0  0  3  0  0  0  0  0  0
   15.9810   63.5680  -11.1640 C   0  0  0  0  0  3  0  0  0  0  0  0
   15.4870   62.3120  -10.8820 C   0  0  0  0  0  0  0  0  0  0  0  0
   13.6030   61.9520  -10.9420 Br  0  0  0  0  0  0  0  0  0  0  0  0
   16.3910   61.3260  -10.5580 C   0  0  0  0  0  3  0  0  0  0  0  0
   17.7400   61.5960  -10.5180 C   0  0  0  0  0  3  0  0  0  0  0  0
  1  2  1  0  0  0  0
  2  3  2  0  0  0  0
  4  2  1  0  0  0  0
  4  8  1  0  0  0  0
  5  4  2  0  0  0  0
  6  5  1  0  0  0  0
  6  7  1  0  0  0  0
  7  8  1  0  0  0  0
  8 13  1  0  0  0  0
  9  5  1  0  0  0  0
  9  1  1  0  0  0  0
 10  9  2  0  0  0  0
 11  6  1  0  0  0  0
 12  7  1  0  0  0  0
 13 14  1  0  0  0  0
 14 16  1  0  0  0  0
 15 14  2  0  0  0  0
 16 17  1  0  0  0  0
 16 18  1  0  0  0  0
 18 19  1  0  0  0  0
 19 21  1  0  0  0  0
 19 20  2  0  0  0  0
 22 20  1  0  0  0  0
 23 22  2  0  0  0  0
 24 18  2  0  0  0  0
 24 23  1  0  0  0  0
 25  1  1  0  0  0  0
 25 31  1  0  0  0  0
 26 25  2  0  0  0  0
 27 26  1  0  0  0  0
 27 28  2  0  0  0  0
 28 30  1  0  0  0  0
 29 28  1  0  0  0  0
 30 31  2  0  0  0  0
M  END
>  <Pose>
1

>  <Score>
-9.431

$$$$
