/Users/jonathanwahrer/Desktop/Msc/3_Semester/Drug_Design_Praktikum/waehrer_HTS_screening/HTS_experiment/out/docking_results/vina_output/3sx0/0411_docked.pdbqt
 OpenBabel03192221443D

 34 37  0  0  0  0  0  0  0  0999 V2000
   13.2820   64.0050  -12.9720 N   0  0  0  0  0  0  0  0  0  0  0  0
   14.2240   64.3810  -12.0920 C   0  0  0  0  0  0  0  0  0  0  0  0
   14.5290   65.5860  -11.9030 O   0  0  0  0  0  0  0  0  0  0  0  0
   14.7800   63.2840  -11.4550 C   0  0  0  0  0  0  0  0  0  0  0  0
   14.1630   62.2220  -11.9580 C   0  0  0  0  0  0  0  0  0  0  0  0
   14.7030   61.1600  -11.3410 N   0  0  0  0  0  0  0  0  0  0  0  0
   15.6240   61.5620  -10.4840 N   0  0  0  0  0  0  0  0  0  0  0  0
   15.6870   62.8650  -10.5390 N   0  0  0  0  0  0  0  0  0  0  0  0
   13.2430   62.6560  -12.8900 C   0  0  0  0  0  0  0  0  0  0  0  0
   12.4710   61.9030  -13.5710 O   0  0  0  0  0  0  0  0  0  0  0  0
   14.4600   60.1600  -11.4880 H   0  0  0  0  0  0  0  0  0  0  0  0
   16.2230   60.9540   -9.8500 H   0  0  0  0  0  0  0  0  0  0  0  0
   16.5500   63.7400   -9.7810 C   0  0  0  0  0  2  0  0  0  0  0  0
   17.9810   63.2820   -9.9410 C   0  0  0  0  0  0  0  0  0  0  0  0
   18.2850   62.1090   -9.6300 O   0  0  0  0  0  0  0  0  0  0  0  0
   18.9520   64.1670  -10.4330 N   0  0  0  0  0  0  0  0  0  0  0  0
   18.6190   65.1550  -10.6790 H   0  0  0  0  0  0  0  0  0  0  0  0
   20.3140   63.8690  -10.6350 C   0  0  0  0  0  0  0  0  0  0  0  0
   21.3220   64.0450   -9.7220 C   0  0  0  0  0  3  0  0  0  0  0  0
   22.6420   63.7490   -9.9890 C   0  0  0  0  0  0  0  0  0  0  0  0
   22.9560   63.2510  -11.2360 C   0  0  0  0  0  0  0  0  0  0  0  0
   21.9670   63.0570  -12.1870 C   0  0  0  0  0  3  0  0  0  0  0  0
   20.6640   63.3590  -11.9010 C   0  0  0  0  0  3  0  0  0  0  0  0
   23.6450   63.9390   -9.0400 O   0  0  0  0  0  0  0  0  0  0  0  0
   23.3470   63.5900   -7.6820 C   0  0  0  0  0  1  0  0  0  0  0  0
   24.2820   62.9450  -11.5260 O   0  0  0  0  0  0  0  0  0  0  0  0
   24.8600   63.4400  -12.7180 C   0  0  0  0  0  1  0  0  0  0  0  0
   12.4670   64.7920  -13.8330 C   0  0  0  0  0  0  0  0  0  0  0  0
   11.1930   65.2000  -13.4940 C   0  0  0  0  0  3  0  0  0  0  0  0
   10.4230   65.9690  -14.3610 C   0  0  0  0  0  3  0  0  0  0  0  0
   10.9080   66.3510  -15.5960 C   0  0  0  0  0  0  0  0  0  0  0  0
    9.8540   67.4090  -16.7950 Br  0  0  0  0  0  0  0  0  0  0  0  0
   12.1830   65.9380  -15.9280 C   0  0  0  0  0  3  0  0  0  0  0  0
   12.9450   65.1760  -15.0660 C   0  0  0  0  0  3  0  0  0  0  0  0
  1  9  1  0  0  0  0
  1  2  1  0  0  0  0
  2  3  2  0  0  0  0
  2  4  1  0  0  0  0
  4  8  1  0  0  0  0
  5  4  2  0  0  0  0
  5  6  1  0  0  0  0
  6  7  1  0  0  0  0
  7 12  1  0  0  0  0
  8  7  1  0  0  0  0
  8 13  1  0  0  0  0
  9  5  1  0  0  0  0
 10  9  2  0  0  0  0
 11  6  1  0  0  0  0
 14 13  1  0  0  0  0
 14 15  2  0  0  0  0
 16 14  1  0  0  0  0
 17 16  1  0  0  0  0
 18 16  1  0  0  0  0
 18 19  1  0  0  0  0
 20 19  2  0  0  0  0
 20 24  1  0  0  0  0
 21 20  1  0  0  0  0
 22 23  1  0  0  0  0
 22 21  2  0  0  0  0
 23 18  2  0  0  0  0
 24 25  1  0  0  0  0
 26 21  1  0  0  0  0
 27 26  1  0  0  0  0
 28 29  1  0  0  0  0
 28  1  1  0  0  0  0
 30 29  2  0  0  0  0
 31 30  1  0  0  0  0
 32 31  1  0  0  0  0
 33 31  2  0  0  0  0
 33 34  1  0  0  0  0
 34 28  2  0  0  0  0
M  END
>  <Pose>
1

>  <Score>
-7.815

$$$$
