/Users/jonathanwahrer/Desktop/Msc/3_Semester/Drug_Design_Praktikum/waehrer_HTS_screening/HTS_experiment/out/docking_results/vina_output/3sx0/0412_docked.pdbqt
 OpenBabel03192221453D

 34 37  0  0  0  0  0  0  0  0999 V2000
   18.2710   62.5770   -9.8680 N   0  0  0  0  0  0  0  0  0  0  0  0
   17.1910   63.2940  -10.1910 C   0  0  0  0  0  0  0  0  0  0  0  0
   17.1410   64.5680  -10.1470 O   0  0  0  0  0  0  0  0  0  0  0  0
   16.1190   62.5250  -10.5790 C   0  0  0  0  0  0  0  0  0  0  0  0
   16.5730   61.2600  -10.4880 C   0  0  0  0  0  0  0  0  0  0  0  0
   15.5330   60.4790  -10.8670 N   0  0  0  0  0  0  0  0  0  0  0  0
   14.4910   61.2300  -11.1770 N   0  0  0  0  0  0  0  0  0  0  0  0
   14.8460   62.4870  -11.0030 N   0  0  0  0  0  0  0  0  0  0  0  0
   17.8790   61.2780  -10.0570 C   0  0  0  0  0  0  0  0  0  0  0  0
   18.6460   60.3070   -9.8480 O   0  0  0  0  0  0  0  0  0  0  0  0
   15.5750   59.4340  -10.8980 H   0  0  0  0  0  0  0  0  0  0  0  0
   13.5690   60.8300  -11.4980 H   0  0  0  0  0  0  0  0  0  0  0  0
   13.9930   63.6160  -11.2370 C   0  0  0  0  0  2  0  0  0  0  0  0
   13.6240   63.7960  -12.6390 C   0  0  0  0  0  0  0  0  0  0  0  0
   13.4300   62.8210  -13.4230 O   0  0  0  0  0  0  0  0  0  0  0  0
   13.4860   65.1140  -13.1290 N   0  0  0  0  0  0  0  0  0  0  0  0
   13.6510   65.9510  -12.4880 H   0  0  0  0  0  0  0  0  0  0  0  0
   13.1280   65.3080  -14.4870 C   0  0  0  0  0  0  0  0  0  0  0  0
   14.1130   65.7810  -15.3190 C   0  0  0  0  0  3  0  0  0  0  0  0
   13.8310   66.0270  -16.6690 C   0  0  0  0  0  0  0  0  0  0  0  0
   12.5720   65.7970  -17.1550 C   0  0  0  0  0  3  0  0  0  0  0  0
   11.5630   65.3180  -16.3230 C   0  0  0  0  0  0  0  0  0  0  0  0
   11.8740   65.0830  -14.9930 C   0  0  0  0  0  3  0  0  0  0  0  0
   14.8910   66.4950  -17.4090 O   0  0  0  0  0  0  0  0  0  0  0  0
   15.2540   67.8230  -17.5050 C   0  0  0  0  0  1  0  0  0  0  0  0
   10.3180   65.1150  -16.8820 O   0  0  0  0  0  0  0  0  0  0  0  0
    9.1010   65.0130  -16.2110 C   0  0  0  0  0  1  0  0  0  0  0  0
   19.5620   63.0070   -9.4270 C   0  0  0  0  0  0  0  0  0  0  0  0
   20.5990   63.1450  -10.3160 C   0  0  0  0  0  3  0  0  0  0  0  0
   21.8630   63.5700   -9.8760 C   0  0  0  0  0  3  0  0  0  0  0  0
   22.0930   63.8570   -8.5520 C   0  0  0  0  0  0  0  0  0  0  0  0
   23.8270   64.4440   -7.9460 Br  0  0  0  0  0  0  0  0  0  0  0  0
   21.0510   63.7170   -7.6640 C   0  0  0  0  0  3  0  0  0  0  0  0
   19.8170   63.2990   -8.1040 C   0  0  0  0  0  3  0  0  0  0  0  0
  1 28  1  0  0  0  0
  2  3  2  0  0  0  0
  2  1  1  0  0  0  0
  4  5  2  0  0  0  0
  4  2  1  0  0  0  0
  5  9  1  0  0  0  0
  6  5  1  0  0  0  0
  7  8  1  0  0  0  0
  7  6  1  0  0  0  0
  8  4  1  0  0  0  0
  9  1  1  0  0  0  0
  9 10  2  0  0  0  0
 11  6  1  0  0  0  0
 12  7  1  0  0  0  0
 13  8  1  0  0  0  0
 14 13  1  0  0  0  0
 15 14  2  0  0  0  0
 16 14  1  0  0  0  0
 16 17  1  0  0  0  0
 18 16  1  0  0  0  0
 19 18  2  0  0  0  0
 20 19  1  0  0  0  0
 21 20  2  0  0  0  0
 21 22  1  0  0  0  0
 22 23  2  0  0  0  0
 23 18  1  0  0  0  0
 24 20  1  0  0  0  0
 25 24  1  0  0  0  0
 26 22  1  0  0  0  0
 26 27  1  0  0  0  0
 28 34  1  0  0  0  0
 29 30  1  0  0  0  0
 29 28  2  0  0  0  0
 30 31  2  0  0  0  0
 31 32  1  0  0  0  0
 31 33  1  0  0  0  0
 34 33  2  0  0  0  0
M  END
>  <Pose>
1

>  <Score>
-8.225

$$$$
