/Users/jonathanwahrer/Desktop/Msc/3_Semester/Drug_Design_Praktikum/waehrer_HTS_screening/HTS_experiment/out/docking_results/vina_output/3sx0/0414_docked.pdbqt
 OpenBabel03192221453D

 35 38  0  0  0  0  0  0  0  0999 V2000
   13.5040   64.1270  -12.9910 N   0  0  0  0  0  0  0  0  0  0  0  0
   14.4960   64.4000  -12.1060 C   0  0  0  0  0  0  0  0  0  0  0  0
   15.0020   65.5420  -11.8760 O   0  0  0  0  0  0  0  0  0  0  0  0
   14.8890   63.2310  -11.4760 C   0  0  0  0  0  0  0  0  0  0  0  0
   14.1240   62.2720  -11.9930 C   0  0  0  0  0  0  0  0  0  0  0  0
   14.4900   61.1150  -11.3910 N   0  0  0  0  0  0  0  0  0  0  0  0
   15.4610   61.4040  -10.5290 N   0  0  0  0  0  0  0  0  0  0  0  0
   15.7330   62.6940  -10.5550 N   0  0  0  0  0  0  0  0  0  0  0  0
   13.2690   62.8090  -12.9250 C   0  0  0  0  0  0  0  0  0  0  0  0
   12.4140   62.2000  -13.6050 O   0  0  0  0  0  0  0  0  0  0  0  0
   14.0770   60.1790  -11.5780 H   0  0  0  0  0  0  0  0  0  0  0  0
   15.9330   60.7070   -9.9270 H   0  0  0  0  0  0  0  0  0  0  0  0
   16.7150   63.4460   -9.7830 C   0  0  0  0  0  2  0  0  0  0  0  0
   18.1010   63.0460  -10.2270 C   0  0  0  0  0  0  0  0  0  0  0  0
   18.1960   61.8160  -10.4620 O   0  0  0  0  0  0  0  0  0  0  0  0
   19.1020   64.0100  -10.3360 N   0  0  0  0  0  0  0  0  0  0  0  0
   18.8100   65.0080  -10.0870 H   0  0  0  0  0  0  0  0  0  0  0  0
   20.4470   63.8090  -10.7340 C   0  0  0  0  0  0  0  0  0  0  0  0
   21.5520   64.0980   -9.9700 C   0  0  0  0  0  3  0  0  0  0  0  0
   22.8530   63.8700  -10.4370 C   0  0  0  0  0  3  0  0  0  0  0  0
   23.0830   63.3450  -11.6860 C   0  0  0  0  0  0  0  0  0  0  0  0
   21.9860   63.0510  -12.4590 C   0  0  0  0  0  3  0  0  0  0  0  0
   20.7040   63.2770  -11.9960 C   0  0  0  0  0  3  0  0  0  0  0  0
   24.4550   63.1240  -12.1310 C   0  0  0  0  0  0  0  0  0  0  0  0
   25.2680   62.6230  -11.3150 O   0  0  0  0  0  0  0  0  0  0  0  0
   24.9200   63.4270  -13.3800 O   0  0  0  0  0  0  0  0  0  0  0  0
   26.2200   63.8290  -13.7050 C   0  0  0  0  0  2  0  0  0  0  0  0
   26.4320   63.4660  -15.1810 C   0  0  0  0  0  1  0  0  0  0  0  0
   12.8780   65.1160  -13.8050 C   0  0  0  0  0  0  0  0  0  0  0  0
   13.5880   65.6950  -14.8460 C   0  0  0  0  0  3  0  0  0  0  0  0
   13.0220   66.6420  -15.6420 C   0  0  0  0  0  3  0  0  0  0  0  0
   11.7240   67.0670  -15.4540 C   0  0  0  0  0  0  0  0  0  0  0  0
   10.8940   68.3870  -16.5430 Br  0  0  0  0  0  0  0  0  0  0  0  0
   11.0300   66.4840  -14.4170 C   0  0  0  0  0  3  0  0  0  0  0  0
   11.5860   65.5300  -13.6070 C   0  0  0  0  0  3  0  0  0  0  0  0
  1  9  1  0  0  0  0
  1  2  1  0  0  0  0
  2  3  2  0  0  0  0
  2  4  1  0  0  0  0
  4  8  1  0  0  0  0
  5  4  2  0  0  0  0
  5  6  1  0  0  0  0
  6  7  1  0  0  0  0
  7 12  1  0  0  0  0
  8  7  1  0  0  0  0
  8 13  1  0  0  0  0
  9  5  1  0  0  0  0
 10  9  2  0  0  0  0
 11  6  1  0  0  0  0
 14 13  1  0  0  0  0
 15 14  2  0  0  0  0
 16 14  1  0  0  0  0
 16 17  1  0  0  0  0
 18 16  1  0  0  0  0
 18 19  1  0  0  0  0
 20 19  2  0  0  0  0
 21 20  1  0  0  0  0
 22 23  1  0  0  0  0
 22 21  2  0  0  0  0
 23 18  2  0  0  0  0
 24 21  1  0  0  0  0
 24 25  2  0  0  0  0
 26 24  1  0  0  0  0
 27 26  1  0  0  0  0
 28 27  1  0  0  0  0
 29 35  1  0  0  0  0
 29  1  1  0  0  0  0
 30 29  2  0  0  0  0
 31 32  2  0  0  0  0
 31 30  1  0  0  0  0
 32 34  1  0  0  0  0
 33 32  1  0  0  0  0
 34 35  2  0  0  0  0
M  END
>  <Pose>
1

>  <Score>
-7.929

$$$$
