/Users/jonathanwahrer/Desktop/Msc/3_Semester/Drug_Design_Praktikum/waehrer_HTS_screening/HTS_experiment/out/docking_results/vina_output/3sx0/0416_docked.pdbqt
 OpenBabel03192221453D

 33 36  0  0  0  0  0  0  0  0999 V2000
   13.6160   64.0010  -12.7740 N   0  0  0  0  0  0  0  0  0  0  0  0
   14.6620   64.2680  -11.9430 C   0  0  0  0  0  0  0  0  0  0  0  0
   15.1290   65.4180  -11.7590 O   0  0  0  0  0  0  0  0  0  0  0  0
   15.1240   63.1150  -11.3470 C   0  0  0  0  0  0  0  0  0  0  0  0
   14.3610   62.1360  -11.8120 C   0  0  0  0  0  0  0  0  0  0  0  0
   14.7910   60.9940  -11.2460 N   0  0  0  0  0  0  0  0  0  0  0  0
   15.8060   61.2890  -10.4470 N   0  0  0  0  0  0  0  0  0  0  0  0
   16.0380   62.5870  -10.4860 N   0  0  0  0  0  0  0  0  0  0  0  0
   13.4400   62.6750  -12.6820 C   0  0  0  0  0  0  0  0  0  0  0  0
   12.5410   62.0440  -13.3220 O   0  0  0  0  0  0  0  0  0  0  0  0
   14.4190   60.0380  -11.3830 H   0  0  0  0  0  0  0  0  0  0  0  0
   16.3430   60.5790   -9.8680 H   0  0  0  0  0  0  0  0  0  0  0  0
   17.0480   63.3280   -9.7880 C   0  0  0  0  0  2  0  0  0  0  0  0
   18.4550   62.9400  -10.1780 C   0  0  0  0  0  0  0  0  0  0  0  0
   18.6600   61.7150  -10.3120 O   0  0  0  0  0  0  0  0  0  0  0  0
   19.4520   63.8920  -10.3790 N   0  0  0  0  0  0  0  0  0  0  0  0
   19.1470   64.9170  -10.2250 H   0  0  0  0  0  0  0  0  0  0  0  0
   20.7980   63.7290  -10.7490 C   0  0  0  0  0  0  0  0  0  0  0  0
   21.1200   63.2440  -12.0170 C   0  0  0  0  0  3  0  0  0  0  0  0
   22.4170   63.0530  -12.4130 C   0  0  0  0  0  3  0  0  0  0  0  0
   23.4690   63.3430  -11.5420 C   0  0  0  0  0  0  0  0  0  0  0  0
   23.1190   63.8200  -10.3030 C   0  0  0  0  0  3  0  0  0  0  0  0
   21.8190   64.0150   -9.9000 C   0  0  0  0  0  3  0  0  0  0  0  0
   24.7560   63.1320  -11.9800 O   0  0  0  0  0  0  0  0  0  0  0  0
   25.2950   63.5180  -13.2020 C   0  0  0  0  0  2  0  0  0  0  0  0
   26.7820   63.4340  -13.2740 C   0  0  0  0  0  1  0  0  0  0  0  0
   12.8750   64.9220  -13.5700 C   0  0  0  0  0  0  0  0  0  0  0  0
   11.5110   65.0990  -13.4640 C   0  0  0  0  0  3  0  0  0  0  0  0
   10.8250   66.0030  -14.2610 C   0  0  0  0  0  3  0  0  0  0  0  0
   11.4770   66.7720  -15.2020 C   0  0  0  0  0  0  0  0  0  0  0  0
   10.5530   68.0190  -16.3130 Br  0  0  0  0  0  0  0  0  0  0  0  0
   12.8510   66.5920  -15.3050 C   0  0  0  0  0  3  0  0  0  0  0  0
   13.5320   65.6920  -14.5120 C   0  0  0  0  0  3  0  0  0  0  0  0
  1  9  1  0  0  0  0
  1  2  1  0  0  0  0
  2  3  2  0  0  0  0
  2  4  1  0  0  0  0
  4  8  1  0  0  0  0
  5  4  2  0  0  0  0
  5  6  1  0  0  0  0
  6  7  1  0  0  0  0
  7 12  1  0  0  0  0
  8  7  1  0  0  0  0
  8 13  1  0  0  0  0
  9  5  1  0  0  0  0
 10  9  2  0  0  0  0
 11  6  1  0  0  0  0
 14 13  1  0  0  0  0
 15 14  2  0  0  0  0
 16 17  1  0  0  0  0
 16 14  1  0  0  0  0
 18 16  1  0  0  0  0
 18 23  1  0  0  0  0
 19 18  2  0  0  0  0
 20 19  1  0  0  0  0
 20 21  2  0  0  0  0
 21 22  1  0  0  0  0
 22 23  2  0  0  0  0
 24 21  1  0  0  0  0
 25 24  1  0  0  0  0
 26 25  1  0  0  0  0
 27 28  1  0  0  0  0
 27  1  1  0  0  0  0
 29 28  2  0  0  0  0
 30 29  1  0  0  0  0
 31 30  1  0  0  0  0
 32 30  2  0  0  0  0
 32 33  1  0  0  0  0
 33 27  2  0  0  0  0
M  END
>  <Pose>
1

>  <Score>
-8.460

$$$$
