/Users/jonathanwahrer/Desktop/Msc/3_Semester/Drug_Design_Praktikum/waehrer_HTS_screening/HTS_experiment/out/docking_results/vina_output/3sx0/0421_docked.pdbqt
 OpenBabel03192221453D

 28 31  0  0  0  0  0  0  0  0999 V2000
   19.7880   63.0390  -10.4010 N   0  0  0  0  0  0  0  0  0  0  0  0
   20.4720   63.1580   -9.2420 C   0  0  0  0  0  0  0  0  0  0  0  0
   20.0160   63.0520   -8.0580 O   0  0  0  0  0  0  0  0  0  0  0  0
   21.8070   63.4240   -9.4830 C   0  0  0  0  0  0  0  0  0  0  0  0
   21.9170   63.4640  -10.8130 C   0  0  0  0  0  0  0  0  0  0  0  0
   23.2250   63.7240  -11.0530 N   0  0  0  0  0  0  0  0  0  0  0  0
   23.8520   63.8320   -9.8940 N   0  0  0  0  0  0  0  0  0  0  0  0
   22.9980   63.6500   -8.9010 N   0  0  0  0  0  0  0  0  0  0  0  0
   20.6850   63.2300  -11.3840 C   0  0  0  0  0  0  0  0  0  0  0  0
   20.3900   63.1880  -12.6050 O   0  0  0  0  0  0  0  0  0  0  0  0
   23.6450   63.8200  -12.0140 H   0  0  0  0  0  0  0  0  0  0  0  0
   24.8740   64.0310   -9.7350 H   0  0  0  0  0  0  0  0  0  0  0  0
   23.2900   63.6880   -7.4980 C   0  0  0  0  0  0  0  0  0  0  0  0
   24.2930   62.9090   -6.9590 C   0  0  0  0  0  3  0  0  0  0  0  0
   24.6000   62.9250   -5.6040 C   0  0  0  0  0  3  0  0  0  0  0  0
   23.8930   63.7390   -4.7460 C   0  0  0  0  0  0  0  0  0  0  0  0
   22.8910   64.5190   -5.2820 C   0  0  0  0  0  3  0  0  0  0  0  0
   22.5870   64.5010   -6.6340 C   0  0  0  0  0  3  0  0  0  0  0  0
   24.1850   63.7770   -3.3520 N   0  0  0  0  0  0  0  0  0  0  0  0
   25.0890   64.4930   -2.8820 O   0  0  0  0  0  0  0  0  0  0  0  0
   23.4570   63.0090   -2.5000 O   0  0  0  0  0  0  0  0  0  0  0  0
   18.3870   62.7660  -10.5290 C   0  0  0  0  0  0  0  0  0  0  0  0
   17.8680   61.4920  -10.4220 C   0  0  0  0  0  3  0  0  0  0  0  0
   16.5020   61.2590  -10.5520 C   0  0  0  0  0  3  0  0  0  0  0  0
   15.6230   62.2950  -10.7910 C   0  0  0  0  0  0  0  0  0  0  0  0
   13.7400   61.9940  -10.9730 Br  0  0  0  0  0  0  0  0  0  0  0  0
   16.1380   63.5700  -10.8990 C   0  0  0  0  0  3  0  0  0  0  0  0
   17.4960   63.7920  -10.7690 C   0  0  0  0  0  3  0  0  0  0  0  0
  1  2  1  0  0  0  0
  2  3  2  0  0  0  0
  4  2  1  0  0  0  0
  4  8  1  0  0  0  0
  5  4  2  0  0  0  0
  6  5  1  0  0  0  0
  6  7  1  0  0  0  0
  7 12  1  0  0  0  0
  7  8  1  0  0  0  0
  8 13  1  0  0  0  0
  9  5  1  0  0  0  0
  9  1  1  0  0  0  0
 10  9  2  0  0  0  0
 11  6  1  0  0  0  0
 13 14  2  0  0  0  0
 13 18  1  0  0  0  0
 14 15  1  0  0  0  0
 15 16  2  0  0  0  0
 16 19  1  0  0  0  0
 17 16  1  0  0  0  0
 18 17  2  0  0  0  0
 19 20  2  0  0  0  0
 19 21  2  0  0  0  0
 22 23  1  0  0  0  0
 22  1  1  0  0  0  0
 24 23  2  0  0  0  0
 25 24  1  0  0  0  0
 26 25  1  0  0  0  0
 27 25  2  0  0  0  0
 27 28  1  0  0  0  0
 28 22  2  0  0  0  0
M  END
>  <Pose>
1

>  <Score>
-10.246

$$$$
