/Users/jonathanwahrer/Desktop/Msc/3_Semester/Drug_Design_Praktikum/waehrer_HTS_screening/HTS_experiment/out/docking_results/vina_output/3sx0/0426_docked.pdbqt
 OpenBabel03192221463D

 29 32  0  0  1  0  0  0  0  0999 V2000
   19.6100   63.2740  -10.0710 N   0  0  0  0  0  0  0  0  0  0  0  0
   20.1990   63.6540   -8.8120 C   0  0  0  0  0  0  0  0  0  0  0  0
   19.7730   63.3400   -7.6640 O   0  0  0  0  0  0  0  0  0  0  0  0
   21.3900   64.4760   -9.1250 C   0  0  1  0  0  3  0  0  0  0  0  0
   22.4890   64.3190   -8.1930 N   0  0  0  0  0  0  0  0  0  0  0  0
   23.5730   64.4250   -9.1190 N   0  0  0  0  0  0  0  0  0  0  0  0
   23.2300   63.7080  -10.3040 C   0  0  0  0  0  0  0  0  0  0  0  0
   21.9020   63.7230  -10.3320 C   0  0  0  0  0  0  0  0  0  0  0  0
   20.6820   63.3190  -11.0200 C   0  0  0  0  0  0  0  0  0  0  0  0
   20.6730   63.0690  -12.2570 O   0  0  0  0  0  0  0  0  0  0  0  0
   22.4730   63.2960   -7.9210 H   0  0  0  0  0  0  0  0  0  0  0  0
   24.4650   64.9350   -8.9650 H   0  0  0  0  0  0  0  0  0  0  0  0
   24.1240   63.0950  -11.2810 C   0  0  0  0  0  0  0  0  0  0  0  0
   24.9820   62.2440  -10.9470 O   0  0  0  0  0  0  0  0  0  0  0  0
   24.0770   63.4160  -12.6290 O   0  0  0  0  0  0  0  0  0  0  0  0
   25.2540   63.7170  -13.3670 C   0  0  0  0  0  2  0  0  0  0  0  0
   24.9870   63.5090  -14.8290 C   0  0  0  0  0  0  0  0  0  0  0  0
   23.7770   63.9130  -15.3890 C   0  0  0  0  0  3  0  0  0  0  0  0
   23.4960   63.7470  -16.7180 C   0  0  0  0  0  3  0  0  0  0  0  0
   24.4500   63.1530  -17.5400 C   0  0  0  0  0  3  0  0  0  0  0  0
   25.6450   62.7540  -16.9820 C   0  0  0  0  0  3  0  0  0  0  0  0
   25.9220   62.9300  -15.6250 C   0  0  0  0  0  3  0  0  0  0  0  0
   18.2700   62.9220  -10.3440 C   0  0  0  0  0  0  0  0  0  0  0  0
   17.3380   63.9090  -10.6900 C   0  0  0  0  0  3  0  0  0  0  0  0
   16.0330   63.6580  -10.9670 C   0  0  0  0  0  3  0  0  0  0  0  0
   15.5840   62.3630  -10.9090 C   0  0  0  0  0  0  0  0  0  0  0  0
   13.7360   61.9790  -11.3000 Br  0  0  0  0  0  0  0  0  0  0  0  0
   16.4720   61.3600  -10.5720 C   0  0  0  0  0  3  0  0  0  0  0  0
   17.7970   61.6390  -10.2930 C   0  0  0  0  0  3  0  0  0  0  0  0
  1  2  1  0  0  0  0
  2  3  2  0  0  0  0
  4  8  1  6  0  0  0
  4  2  1  0  0  0  0
  4  5  1  0  0  0  0
  5 11  1  0  0  0  0
  6 12  1  0  0  0  0
  6  5  1  0  0  0  0
  7  6  1  0  0  0  0
  8  7  2  0  0  0  0
  9  8  1  0  0  0  0
  9  1  1  0  0  0  0
 10  9  2  0  0  0  0
 13 14  2  0  0  0  0
 13  7  1  0  0  0  0
 15 13  1  0  0  0  0
 16 15  1  0  0  0  0
 17 16  1  0  0  0  0
 18 17  1  0  0  0  0
 19 18  2  0  0  0  0
 20 21  2  0  0  0  0
 20 19  1  0  0  0  0
 21 22  1  0  0  0  0
 22 17  2  0  0  0  0
 23 29  1  0  0  0  0
 23  1  1  0  0  0  0
 24 23  2  0  0  0  0
 25 26  2  0  0  0  0
 25 24  1  0  0  0  0
 26 28  1  0  0  0  0
 27 26  1  0  0  0  0
 28 29  2  0  0  0  0
M  END
>  <Pose>
1

>  <Score>
-9.440

$$$$
