/Users/jonathanwahrer/Desktop/Msc/3_Semester/Drug_Design_Praktikum/waehrer_HTS_screening/HTS_experiment/out/docking_results/vina_output/3sx0/0428_docked.pdbqt
 OpenBabel03192221463D

 28 31  0  0  1  0  0  0  0  0999 V2000
   20.4670   63.0350  -10.8930 N   0  0  0  0  0  0  0  0  0  0  0  0
   21.1870   62.6250  -12.0700 C   0  0  0  0  0  0  0  0  0  0  0  0
   20.5470   62.3010  -13.1080 O   0  0  0  0  0  0  0  0  0  0  0  0
   22.5940   62.6100  -11.9900 N   0  0  0  0  0  2  0  0  0  0  0  0
   23.2580   62.9310  -10.9590 C   0  0  0  0  0  0  0  0  0  0  0  0
   22.6920   63.3770   -9.6610 C   0  0  1  0  0  0  0  0  0  0  0  0
   23.2330   62.4940   -8.5900 C   0  0  0  0  0  2  0  0  0  0  0  0
   23.3500   63.0500   -7.2920 N   0  0  0  0  0  4  0  0  0  0  0  0
   22.7170   64.2940   -7.0940 C   0  0  0  0  0  0  0  0  0  0  0  0
   22.6330   65.2220   -8.1400 C   0  0  0  0  0  0  0  0  0  0  0  0
   22.0160   66.4220   -7.9290 C   0  0  0  0  0  3  0  0  0  0  0  0
   21.4560   66.7920   -6.7270 C   0  0  0  0  0  0  0  0  0  0  0  0
   21.5410   65.8750   -5.7000 C   0  0  0  0  0  3  0  0  0  0  0  0
   22.1620   64.6470   -5.8830 C   0  0  0  0  0  3  0  0  0  0  0  0
   20.7930   68.1040   -6.5370 C   0  0  0  0  0  1  0  0  0  0  0  0
   23.2490   64.7830   -9.4190 C   0  0  0  0  0  2  0  0  0  0  0  0
   24.7480   63.1070   -6.8320 C   0  0  0  0  0  1  0  0  0  0  0  0
   21.2160   63.3950   -9.7370 C   0  0  0  0  0  0  0  0  0  0  0  0
   20.5180   63.7460   -8.7290 O   0  0  0  0  0  0  0  0  0  0  0  0
   24.6660   62.8710  -11.0190 O   0  0  0  0  0  0  0  0  0  0  0  0
   22.8880   62.3740   -6.6130 H   0  0  0  0  0  0  0  0  0  0  0  0
   19.0480   63.0770  -10.8970 C   0  0  0  0  0  0  0  0  0  0  0  0
   18.3680   61.9540  -10.4840 C   0  0  0  0  0  3  0  0  0  0  0  0
   16.9790   61.9060  -10.4580 C   0  0  0  0  0  3  0  0  0  0  0  0
   16.2610   63.0020  -10.8510 C   0  0  0  0  0  0  0  0  0  0  0  0
   14.3550   62.9270  -10.8110 Br  0  0  0  0  0  0  0  0  0  0  0  0
   16.9200   64.1460  -11.2710 C   0  0  0  0  0  3  0  0  0  0  0  0
   18.3050   64.1690  -11.2880 C   0  0  0  0  0  3  0  0  0  0  0  0
  1 18  1  0  0  0  0
  2  4  1  0  0  0  0
  2  1  1  0  0  0  0
  3  2  2  0  0  0  0
  4  5  1  0  0  0  0
  5  6  1  0  0  0  0
  6 16  1  1  0  0  0
  6  7  1  0  0  0  0
  7  8  1  0  0  0  0
  8  9  1  0  0  0  0
  8 17  1  0  0  0  0
  8 21  1  0  0  0  0
  9 14  1  0  0  0  0
 10 11  1  0  0  0  0
 10  9  2  0  0  0  0
 11 12  2  0  0  0  0
 12 15  1  0  0  0  0
 12 13  1  0  0  0  0
 14 13  2  0  0  0  0
 16 10  1  0  0  0  0
 18  6  1  0  0  0  0
 18 19  2  0  0  0  0
 20  5  2  0  0  0  0
 22  1  1  0  0  0  0
 22 23  1  0  0  0  0
 23 24  2  0  0  0  0
 25 26  1  0  0  0  0
 25 24  1  0  0  0  0
 27 25  2  0  0  0  0
 28 27  1  0  0  0  0
 28 22  2  0  0  0  0
M  END
>  <Pose>
1

>  <Score>
-4.265

$$$$
