/Users/jonathanwahrer/Desktop/Msc/3_Semester/Drug_Design_Praktikum/waehrer_HTS_screening/HTS_experiment/out/docking_results/vina_output/3sx0/0429_docked.pdbqt
 OpenBabel03192221463D

 36 39  0  0  0  0  0  0  0  0999 V2000
   17.6050   62.0850  -10.5650 N   0  0  0  0  0  0  0  0  0  0  0  0
   17.3020   60.7520  -10.1500 C   0  0  0  0  0  0  0  0  0  0  0  0
   18.2730   60.0190   -9.7770 O   0  0  0  0  0  0  0  0  0  0  0  0
   15.9610   60.2980  -10.1670 N   0  0  0  0  0  0  0  0  0  0  0  0
   14.8590   61.1000  -10.5810 C   0  0  0  0  0  0  0  0  0  0  0  0
   13.6730   60.6670  -10.5850 O   0  0  0  0  0  0  0  0  0  0  0  0
   15.1350   62.4810  -11.0150 C   0  0  0  0  0  0  0  0  0  0  0  0
   14.1530   63.2760  -11.4120 C   0  0  0  0  0  3  0  0  0  0  0  0
   16.5260   62.9180  -10.9850 C   0  0  0  0  0  0  0  0  0  0  0  0
   16.8100   64.0890  -11.3470 O   0  0  0  0  0  0  0  0  0  0  0  0
   15.7820   59.3150   -9.8550 H   0  0  0  0  0  0  0  0  0  0  0  0
   14.4510   64.6020  -11.8250 N   0  0  0  0  0  0  0  0  0  0  0  0
   14.6610   65.2820  -11.0450 H   0  0  0  0  0  0  0  0  0  0  0  0
   14.4810   65.0450  -13.1370 N   0  0  0  0  0  0  0  0  0  0  0  0
   15.4510   65.1120  -13.5630 H   0  0  0  0  0  0  0  0  0  0  0  0
   13.3310   65.3970  -13.8980 C   0  0  0  0  0  0  0  0  0  0  0  0
   12.4830   64.5280  -14.4580 N   0  0  0  0  0  0  0  0  0  0  0  0
   11.5110   65.1990  -15.0980 C   0  0  0  0  0  0  0  0  0  0  0  0
   12.5110   63.0610  -14.4380 C   0  0  0  0  0  1  0  0  0  0  0  0
   11.7670   66.5540  -14.9290 C   0  0  0  0  0  0  0  0  0  0  0  0
   10.4030   64.8640  -15.8290 C   0  0  0  0  0  0  0  0  0  0  0  0
   12.8780   66.6150  -14.1970 N   0  0  0  0  0  0  0  0  0  0  0  0
   10.9650   67.4950  -15.4580 N   0  0  0  0  0  0  0  0  0  0  0  0
    9.8990   67.1120  -16.1620 C   0  0  0  0  0  0  0  0  0  0  0  0
   11.2940   68.8730  -15.2420 C   0  0  0  0  0  1  0  0  0  0  0  0
    9.1170   67.9680  -16.6770 O   0  0  0  0  0  0  0  0  0  0  0  0
    9.5890   65.8040  -16.3650 N   0  0  0  0  0  0  0  0  0  0  0  0
    8.4250   65.4410  -17.1320 C   0  0  0  0  0  1  0  0  0  0  0  0
   10.1230   63.6620  -16.0150 O   0  0  0  0  0  0  0  0  0  0  0  0
   18.9310   62.5310  -10.5490 C   0  0  0  0  0  0  0  0  0  0  0  0
   19.5170   62.9110   -9.3580 C   0  0  0  0  0  3  0  0  0  0  0  0
   20.8230   63.3560   -9.2930 C   0  0  0  0  0  3  0  0  0  0  0  0
   21.5930   63.4360  -10.4410 C   0  0  0  0  0  0  0  0  0  0  0  0
   23.4040   64.0520  -10.3650 Br  0  0  0  0  0  0  0  0  0  0  0  0
   20.9880   63.0530  -11.6190 C   0  0  0  0  0  3  0  0  0  0  0  0
   19.6850   62.6050  -11.7010 C   0  0  0  0  0  3  0  0  0  0  0  0
  1 30  1  0  0  0  0
  1  2  1  0  0  0  0
  2  3  2  0  0  0  0
  4  2  1  0  0  0  0
  4 11  1  0  0  0  0
  5  4  1  0  0  0  0
  6  5  2  0  0  0  0
  7  9  1  0  0  0  0
  7  5  1  0  0  0  0
  8  7  2  0  0  0  0
  9  1  1  0  0  0  0
 10  9  2  0  0  0  0
 12  8  1  0  0  0  0
 12 13  1  0  0  0  0
 14 12  1  0  0  0  0
 15 14  1  0  0  0  0
 16 14  1  0  0  0  0
 17 19  1  0  0  0  0
 17 16  1  0  0  0  0
 18 20  2  0  0  0  0
 18 17  1  0  0  0  0
 20 22  1  0  0  0  0
 21 18  1  0  0  0  0
 22 16  2  0  0  0  0
 23 25  1  0  0  0  0
 23 20  1  0  0  0  0
 24 23  1  0  0  0  0
 26 24  2  0  0  0  0
 27 24  1  0  0  0  0
 27 21  1  0  0  0  0
 28 27  1  0  0  0  0
 29 21  2  0  0  0  0
 30 31  1  0  0  0  0
 31 32  2  0  0  0  0
 33 34  1  0  0  0  0
 33 32  1  0  0  0  0
 35 33  2  0  0  0  0
 36 35  1  0  0  0  0
 36 30  2  0  0  0  0
M  END
>  <Pose>
1

>  <Score>
-8.147

$$$$
