/Users/jonathanwahrer/Desktop/Msc/3_Semester/Drug_Design_Praktikum/waehrer_HTS_screening/HTS_experiment/out/docking_results/vina_output/3sx0/0441_docked.pdbqt
 OpenBabel03192221473D

 36 39  0  0  1  0  0  0  0  0999 V2000
   19.2680   63.3530  -10.7930 C   0  0  0  0  0  0  0  0  0  0  0  0
   19.8990   63.7980   -9.6900 N   0  0  0  0  0  0  0  0  0  0  0  0
   21.2190   63.8890   -9.6830 C   0  0  0  0  0  0  0  0  0  0  0  0
   22.0590   64.2950   -8.7220 N   0  0  0  0  0  0  0  0  0  0  0  0
   23.2990   64.1850   -9.2510 C   0  0  0  0  0  3  0  0  0  0  0  0
   23.2260   63.7240  -10.5030 N   0  0  0  0  0  0  0  0  0  0  0  0
   21.9460   63.5240  -10.8220 C   0  0  0  0  0  0  0  0  0  0  0  0
   21.3050   63.0660  -11.9580 C   0  0  0  0  0  0  0  0  0  0  0  0
   19.9720   62.9960  -11.9070 N   0  0  0  0  0  0  0  0  0  0  0  0
   17.8480   63.2370  -10.8370 N   0  0  0  0  0  0  0  0  0  0  0  0
   17.1700   62.0490  -10.4960 C   0  0  0  0  0  0  0  0  0  0  0  0
   17.8080   61.0430  -10.1390 O   0  0  0  0  0  0  0  0  0  0  0  0
   17.3050   64.0950  -11.1420 H   0  0  0  0  0  0  0  0  0  0  0  0
   15.6980   62.0030  -10.5650 C   0  0  0  0  0  2  0  0  0  0  0  0
   15.1200   63.2460  -10.8430 O   0  0  0  0  0  0  0  0  0  0  0  0
   14.2440   63.3690  -11.9000 C   0  0  0  0  0  0  0  0  0  0  0  0
   13.6040   62.2640  -12.4090 C   0  0  0  0  0  3  0  0  0  0  0  0
   12.7150   62.3780  -13.4820 C   0  0  0  0  0  3  0  0  0  0  0  0
   12.4740   63.6150  -14.0380 C   0  0  0  0  0  0  0  0  0  0  0  0
   11.2530   63.7730  -15.5110 Br  0  0  0  0  0  0  0  0  0  0  0  0
   13.1180   64.7210  -13.5240 C   0  0  0  0  0  3  0  0  0  0  0  0
   13.9910   64.5920  -12.4680 C   0  0  0  0  0  3  0  0  0  0  0  0
   22.0750   62.7180  -13.0580 O   0  0  0  0  0  0  0  0  0  0  0  0
   21.5520   62.4480  -13.8990 H   0  0  0  0  0  0  0  0  0  0  0  0
   21.8200   64.7580   -7.4090 C   0  0  2  0  0  3  0  0  0  0  0  0
   20.9250   65.8350   -7.3890 O   0  0  0  0  0  0  0  0  0  0  0  0
   21.7740   66.9350   -7.3000 C   0  0  2  0  0  3  0  0  0  0  0  0
   22.6420   66.5140   -6.1240 C   0  0  1  0  0  3  0  0  0  0  0  0
   22.9850   65.0980   -6.5790 C   0  0  1  0  0  3  0  0  0  0  0  0
   21.0340   68.2130   -7.0300 C   0  0  0  0  0  2  0  0  0  0  0  0
   21.4560   68.8730   -5.9080 O   0  0  0  0  0  0  0  0  0  0  0  0
   21.0780   69.7900   -5.9210 H   0  0  0  0  0  0  0  0  0  0  0  0
   23.7380   67.3080   -5.9390 O   0  0  0  0  0  0  0  0  0  0  0  0
   23.5050   68.2550   -5.6770 H   0  0  0  0  0  0  0  0  0  0  0  0
   23.1060   64.2490   -5.4570 O   0  0  0  0  0  0  0  0  0  0  0  0
   23.1520   63.3320   -5.8250 H   0  0  0  0  0  0  0  0  0  0  0  0
  1  2  2  0  0  0  0
  2  3  1  0  0  0  0
  3  4  1  0  0  0  0
  5  4  1  0  0  0  0
  6  5  2  0  0  0  0
  7  6  1  0  0  0  0
  7  3  2  0  0  0  0
  8  9  2  0  0  0  0
  8  7  1  0  0  0  0
  9  1  1  0  0  0  0
 10  1  1  0  0  0  0
 10 11  1  0  0  0  0
 11 12  2  0  0  0  0
 13 10  1  0  0  0  0
 14 11  1  0  0  0  0
 15 14  1  0  0  0  0
 16 15  1  0  0  0  0
 17 16  1  0  0  0  0
 18 17  2  0  0  0  0
 19 21  2  0  0  0  0
 19 18  1  0  0  0  0
 20 19  1  0  0  0  0
 21 22  1  0  0  0  0
 22 16  2  0  0  0  0
 23  8  1  0  0  0  0
 24 23  1  0  0  0  0
 25  4  1  6  0  0  0
 25 26  1  0  0  0  0
 25 29  1  0  0  0  0
 26 27  1  0  0  0  0
 27 30  1  1  0  0  0
 27 28  1  0  0  0  0
 28 33  1  6  0  0  0
 29 28  1  0  0  0  0
 29 35  1  1  0  0  0
 30 31  1  0  0  0  0
 32 31  1  0  0  0  0
 33 34  1  0  0  0  0
 36 35  1  0  0  0  0
M  END
>  <Pose>
1

>  <Score>
-8.484

$$$$
