/Users/jonathanwahrer/Desktop/Msc/3_Semester/Drug_Design_Praktikum/waehrer_HTS_screening/HTS_experiment/out/docking_results/vina_output/3sx0/0444_docked.pdbqt
 OpenBabel03192221473D

 33 36  0  0  1  0  0  0  0  0999 V2000
   21.6170   63.7020  -10.4770 N   0  0  0  0  0  0  0  0  0  0  0  0
   22.1710   63.4500  -11.6860 C   0  0  0  0  0  0  0  0  0  0  0  0
   23.5370   63.5640  -11.5690 C   0  0  0  0  0  0  0  0  0  0  0  0
   23.7540   63.8810  -10.3090 N   0  0  0  0  0  0  0  0  0  0  0  0
   22.5890   63.9800   -9.5940 C   0  0  0  0  0  0  0  0  0  0  0  0
   24.4100   63.3740  -12.6010 N   0  0  0  0  0  0  0  0  0  0  0  0
   23.8930   63.0600  -13.7910 C   0  0  0  0  0  0  0  0  0  0  0  0
   24.6850   62.8800  -14.7560 O   0  0  0  0  0  0  0  0  0  0  0  0
   22.5670   62.9430  -13.9350 N   0  0  0  0  0  0  0  0  0  0  0  0
   21.6780   63.1250  -12.9310 C   0  0  0  0  0  0  0  0  0  0  0  0
   20.4540   63.0110  -13.0950 O   0  0  0  0  0  0  0  0  0  0  0  0
   25.8490   63.5090  -12.3750 C   0  0  0  0  0  1  0  0  0  0  0  0
   22.2010   62.6970  -14.8780 H   0  0  0  0  0  0  0  0  0  0  0  0
   20.2080   63.6290  -10.1560 C   0  0  0  0  0  2  0  0  0  0  0  0
   19.7050   62.2720   -9.7580 C   0  0  1  0  0  3  0  0  0  0  0  0
   18.3940   62.2210   -9.0410 C   0  0  0  0  0  2  0  0  0  0  0  0
   17.3270   62.1540   -9.8090 O   0  0  0  0  0  0  0  0  0  0  0  0
   16.3270   62.6200  -10.5170 C   0  0  0  0  0  0  0  0  0  0  0  0
   15.2150   61.8910  -10.8900 C   0  0  0  0  0  3  0  0  0  0  0  0
   14.1940   62.4350  -11.6380 C   0  0  0  0  0  3  0  0  0  0  0  0
   14.2790   63.7440  -12.0300 C   0  0  0  0  0  0  0  0  0  0  0  0
   12.8690   64.4890  -13.0620 Br  0  0  0  0  0  0  0  0  0  0  0  0
   15.3780   64.4990  -11.6720 C   0  0  0  0  0  3  0  0  0  0  0  0
   16.3840   63.9680  -10.9360 C   0  0  0  0  0  3  0  0  0  0  0  0
   19.6210   61.3970  -10.8500 O   0  0  0  0  0  0  0  0  0  0  0  0
   20.4680   61.4790  -11.3970 H   0  0  0  0  0  0  0  0  0  0  0  0
   22.5330   64.3820   -8.2120 N   0  0  0  0  0  0  0  0  0  0  0  0
   23.2790   63.4810   -7.3070 C   0  0  0  0  0  2  0  0  0  0  0  0
   23.4980   64.0160   -5.9500 C   0  0  0  0  0  2  0  0  0  0  0  0
   22.4070   64.8260   -5.4680 N   0  0  0  0  0  0  0  0  0  0  0  0
   22.3380   65.9550   -6.3390 C   0  0  0  0  0  2  0  0  0  0  0  0
   21.1960   64.0880   -5.3200 C   0  0  0  0  0  1  0  0  0  0  0  0
   21.8840   65.5550   -7.7430 C   0  0  0  0  0  2  0  0  0  0  0  0
  1 14  1  0  0  0  0
  1  5  1  0  0  0  0
  2  3  2  0  0  0  0
  2  1  1  0  0  0  0
  3  4  1  0  0  0  0
  4  5  2  0  0  0  0
  5 27  1  0  0  0  0
  6 12  1  0  0  0  0
  6  3  1  0  0  0  0
  7  6  1  0  0  0  0
  8  7  2  0  0  0  0
  9  7  1  0  0  0  0
  9 10  1  0  0  0  0
 10  2  1  0  0  0  0
 11 10  2  0  0  0  0
 13  9  1  0  0  0  0
 15 14  1  6  0  0  0
 15 16  1  0  0  0  0
 17 16  1  0  0  0  0
 18 17  1  0  0  0  0
 19 18  1  0  0  0  0
 20 19  2  0  0  0  0
 21 23  2  0  0  0  0
 21 20  1  0  0  0  0
 22 21  1  0  0  0  0
 23 24  1  0  0  0  0
 24 18  2  0  0  0  0
 25 15  1  0  0  0  0
 26 25  1  0  0  0  0
 27 33  1  0  0  0  0
 27 28  1  0  0  0  0
 28 29  1  0  0  0  0
 29 30  1  0  0  0  0
 30 32  1  0  0  0  0
 31 30  1  0  0  0  0
 33 31  1  0  0  0  0
M  END
>  <Pose>
1

>  <Score>
-6.268

$$$$
