/Users/jonathanwahrer/Desktop/Msc/3_Semester/Drug_Design_Praktikum/waehrer_HTS_screening/HTS_experiment/out/docking_results/vina_output/3sx0/0454_docked.pdbqt
 OpenBabel03192221483D

 21 25  0  0  1  0  0  0  0  0999 V2000
   21.0200   64.7490   -9.5090 C   0  0  0  0  0  2  0  0  0  0  0  0
   22.0490   64.4940   -8.5010 C   0  0  0  0  0  0  0  0  0  0  0  0
   23.1810   63.7630   -8.8980 C   0  0  0  0  0  0  0  0  0  0  0  0
   23.5100   63.2420  -10.7100 Br  0  0  0  0  0  0  0  0  0  0  0  0
   24.0700   63.4120   -7.8990 C   0  0  0  0  0  3  0  0  0  0  0  0
   23.8430   63.7750   -6.5870 C   0  0  0  0  0  0  0  0  0  0  0  0
   22.7470   64.4890   -6.1630 C   0  0  0  0  0  0  0  0  0  0  0  0
   24.6440   63.4990   -5.4370 O   0  0  0  0  0  0  0  0  0  0  0  0
   21.8710   64.8320   -7.1570 C   0  0  0  0  0  3  0  0  0  0  0  0
   22.9080   64.6200   -4.7940 O   0  0  0  0  0  0  0  0  0  0  0  0
   23.6930   63.4860   -4.3310 C   0  0  0  0  0  2  0  0  0  0  0  0
   20.0520   63.7750   -9.7970 N   0  0  2  0  0  4  0  0  0  0  0  0
   20.1380   63.7300  -11.3010 C   0  0  0  0  0  2  0  0  0  0  0  0
   19.0800   63.0580  -11.9290 N   0  0  2  0  0  0  0  0  0  0  0  0
   17.8480   63.6980  -11.5040 C   0  0  0  0  0  2  0  0  0  0  0  0
   19.1770   61.6580  -11.5020 C   0  0  0  0  0  2  0  0  0  0  0  0
   17.7190   63.4760  -10.0850 N   0  0  2  0  0  0  0  0  0  0  0  0
   18.7200   64.1850   -9.3550 C   0  0  0  0  0  2  0  0  0  0  0  0
   17.7850   62.0610   -9.7020 C   0  0  0  0  0  2  0  0  0  0  0  0
   19.1110   61.5860  -10.0620 N   0  0  2  0  0  0  0  0  0  0  0  0
   20.1670   62.4000   -9.4240 C   0  0  0  0  0  2  0  0  0  0  0  0
  1  2  1  0  0  0  0
  2  9  1  0  0  0  0
  3  2  2  0  0  0  0
  3  5  1  0  0  0  0
  4  3  1  0  0  0  0
  5  6  2  0  0  0  0
  6  7  1  0  0  0  0
  6  8  1  0  0  0  0
  7 10  1  0  0  0  0
  8 11  1  0  0  0  0
  9  7  2  0  0  0  0
 10 11  1  0  0  0  0
 12  1  1  1  0  0  0
 12 21  1  0  0  0  0
 12 18  1  0  0  0  0
 13 12  1  0  0  0  0
 14 15  1  1  0  0  0
 14 16  1  0  0  0  0
 14 13  1  0  0  0  0
 17 15  1  6  0  0  0
 17 19  1  0  0  0  0
 17 18  1  0  0  0  0
 20 16  1  6  0  0  0
 20 19  1  0  0  0  0
 20 21  1  0  0  0  0
M  END
>  <Pose>
1

>  <Score>
-6.583

$$$$
