/Users/jonathanwahrer/Desktop/Msc/3_Semester/Drug_Design_Praktikum/waehrer_HTS_screening/HTS_experiment/out/docking_results/vina_output/3sx0/0459_docked.pdbqt
 OpenBabel03192221483D

 29 32  0  0  0  0  0  0  0  0999 V2000
   21.5480   63.3050   -9.6950 C   0  0  0  0  0  0  0  0  0  0  0  0
   20.6070   63.0290   -8.6930 C   0  0  0  0  0  3  0  0  0  0  0  0
   19.2630   62.8860   -8.9490 C   0  0  0  0  0  3  0  0  0  0  0  0
   18.7780   63.0130  -10.2320 C   0  0  0  0  0  0  0  0  0  0  0  0
   19.6890   63.2860  -11.2310 C   0  0  0  0  0  3  0  0  0  0  0  0
   21.0530   63.4310  -10.9730 C   0  0  0  0  0  3  0  0  0  0  0  0
   22.8890   63.4420   -9.3810 O   0  0  0  0  0  0  0  0  0  0  0  0
   23.4120   64.5050   -8.6420 C   0  0  0  0  0  2  0  0  0  0  0  0
   23.6170   64.2060   -7.2140 C   0  0  0  0  0  0  0  0  0  0  0  0
   22.8490   64.8540   -6.2370 C   0  0  0  0  0  0  0  0  0  0  0  0
   21.5870   66.1610   -6.8440 Br  0  0  0  0  0  0  0  0  0  0  0  0
   22.9990   64.5630   -4.9050 C   0  0  0  0  0  3  0  0  0  0  0  0
   23.9140   63.6180   -4.4860 C   0  0  0  0  0  0  0  0  0  0  0  0
   24.6820   62.9650   -5.4260 C   0  0  0  0  0  0  0  0  0  0  0  0
   24.2850   63.1170   -3.2360 O   0  0  0  0  0  0  0  0  0  0  0  0
   24.5230   63.2660   -6.7780 C   0  0  0  0  0  3  0  0  0  0  0  0
   25.4990   62.0880   -4.7400 O   0  0  0  0  0  0  0  0  0  0  0  0
   25.0590   61.9480   -3.4000 C   0  0  0  0  0  2  0  0  0  0  0  0
   17.3500   62.8640  -10.5210 C   0  0  0  0  0  0  0  0  0  0  0  0
   16.4510   63.8120  -10.8350 N   0  0  0  0  0  0  0  0  0  0  0  0
   15.2610   63.2300  -11.0170 N   0  0  0  0  0  0  0  0  0  0  0  0
   15.3980   61.9270  -10.8200 N   0  0  0  0  0  0  0  0  0  0  0  0
   16.6670   61.7080  -10.5190 N   0  0  0  0  0  0  0  0  0  0  0  0
   14.0030   63.8560  -11.3680 C   0  0  0  0  0  2  0  0  0  0  0  0
   13.5590   63.3970  -12.7020 C   0  0  0  0  0  0  0  0  0  0  0  0
   13.4910   64.2080  -13.6400 O   0  0  0  0  0  0  0  0  0  0  0  0
   13.2180   62.0400  -12.8880 N   0  0  0  0  0  0  0  0  0  0  0  0
   12.8160   61.4410  -12.1140 H   0  0  0  0  0  0  0  0  0  0  0  0
   13.3580   61.5900  -13.8170 H   0  0  0  0  0  0  0  0  0  0  0  0
  1  7  1  0  0  0  0
  1  2  1  0  0  0  0
  3  2  2  0  0  0  0
  4  3  1  0  0  0  0
  5  6  1  0  0  0  0
  5  4  2  0  0  0  0
  6  1  2  0  0  0  0
  7  8  1  0  0  0  0
  8  9  1  0  0  0  0
  9 16  2  0  0  0  0
  9 10  1  0  0  0  0
 10 12  2  0  0  0  0
 11 10  1  0  0  0  0
 12 13  1  0  0  0  0
 13 15  1  0  0  0  0
 14 17  1  0  0  0  0
 14 13  2  0  0  0  0
 16 14  1  0  0  0  0
 17 18  1  0  0  0  0
 18 15  1  0  0  0  0
 19 23  1  0  0  0  0
 19  4  1  0  0  0  0
 20 19  2  0  0  0  0
 21 20  1  0  0  0  0
 21 22  1  0  0  0  0
 22 23  2  0  0  0  0
 24 21  1  0  0  0  0
 25 24  1  0  0  0  0
 26 25  2  0  0  0  0
 27 25  1  0  0  0  0
 27 28  1  0  0  0  0
 29 27  1  0  0  0  0
M  END
>  <Pose>
1

>  <Score>
-8.857

$$$$
