/Users/jonathanwahrer/Desktop/Msc/3_Semester/Drug_Design_Praktikum/waehrer_HTS_screening/HTS_experiment/out/docking_results/vina_output/3sx0/0469_docked.pdbqt
 OpenBabel03192221483D

 32 36  0  0  0  0  0  0  0  0999 V2000
   16.3780   63.1240  -10.7570 N   0  0  0  0  0  0  0  0  0  0  0  0
   16.0620   64.4390  -11.0550 C   0  0  0  0  0  2  0  0  0  0  0  0
   14.6990   64.8080  -11.4980 C   0  0  0  0  0  2  0  0  0  0  0  0
   14.0250   63.6280  -11.9580 N   0  0  0  0  0  0  0  0  0  0  0  0
   13.9930   62.5560  -10.9960 C   0  0  0  0  0  2  0  0  0  0  0  0
   15.4160   62.0930  -10.8210 C   0  0  0  0  0  2  0  0  0  0  0  0
   17.4000   62.9250   -9.7560 C   0  0  0  0  0  2  0  0  0  0  0  0
   18.7450   62.6390  -10.3850 C   0  0  0  0  0  0  0  0  0  0  0  0
   19.7610   63.6020  -10.2140 N   0  0  0  0  0  0  0  0  0  0  0  0
   19.5170   64.4750   -9.6480 H   0  0  0  0  0  0  0  0  0  0  0  0
   18.8550   61.5710  -11.0090 O   0  0  0  0  0  0  0  0  0  0  0  0
   21.0760   63.5060  -10.7300 C   0  0  0  0  0  0  0  0  0  0  0  0
   22.1420   63.5430   -9.8190 C   0  0  0  0  0  0  0  0  0  0  0  0
   21.7500   63.7160   -7.9700 Br  0  0  0  0  0  0  0  0  0  0  0  0
   23.4340   63.4550  -10.2800 C   0  0  0  0  0  3  0  0  0  0  0  0
   23.7260   63.3310  -11.6020 C   0  0  0  0  0  0  0  0  0  0  0  0
   22.7000   63.2910  -12.5210 C   0  0  0  0  0  0  0  0  0  0  0  0
   25.0140   63.2390  -12.1110 O   0  0  0  0  0  0  0  0  0  0  0  0
   21.3760   63.3790  -12.0750 C   0  0  0  0  0  3  0  0  0  0  0  0
   23.0180   63.1650  -13.8490 O   0  0  0  0  0  0  0  0  0  0  0  0
   24.2510   63.5480  -14.4070 C   0  0  0  0  0  2  0  0  0  0  0  0
   25.3000   63.8390  -13.3810 C   0  0  0  0  0  2  0  0  0  0  0  0
   13.4230   63.4440  -13.2140 C   0  0  0  0  0  0  0  0  0  0  0  0
   13.0890   62.2300  -13.7210 N   0  0  0  0  0  0  0  0  0  0  0  0
   12.5120   62.0850  -14.9280 C   0  0  0  0  0  3  0  0  0  0  0  0
   12.2350   63.1530  -15.6970 N   0  0  0  0  0  0  0  0  0  0  0  0
   12.5320   64.3980  -15.2740 C   0  0  0  0  0  0  0  0  0  0  0  0
   12.3710   65.6290  -15.8240 N   0  0  0  0  0  0  0  0  0  0  0  0
   13.1200   64.5290  -14.0420 C   0  0  0  0  0  0  0  0  0  0  0  0
   12.8510   66.4900  -14.9460 N   0  0  0  0  0  0  0  0  0  0  0  0
   11.7800   65.9110  -17.1330 C   0  0  0  0  0  1  0  0  0  0  0  0
   13.3160   65.8800  -13.8530 C   0  0  0  0  0  3  0  0  0  0  0  0
  1  7  1  0  0  0  0
  2  1  1  0  0  0  0
  3  2  1  0  0  0  0
  4  3  1  0  0  0  0
  4  5  1  0  0  0  0
  5  6  1  0  0  0  0
  6  1  1  0  0  0  0
  8  9  1  0  0  0  0
  8  7  1  0  0  0  0
  9 10  1  0  0  0  0
 11  8  2  0  0  0  0
 12  9  1  0  0  0  0
 12 13  1  0  0  0  0
 13 14  1  0  0  0  0
 15 13  2  0  0  0  0
 16 15  1  0  0  0  0
 17 19  1  0  0  0  0
 17 16  2  0  0  0  0
 18 16  1  0  0  0  0
 19 12  2  0  0  0  0
 20 17  1  0  0  0  0
 21 20  1  0  0  0  0
 21 22  1  0  0  0  0
 22 18  1  0  0  0  0
 23  4  1  0  0  0  0
 24 23  1  0  0  0  0
 25 24  2  0  0  0  0
 26 27  2  0  0  0  0
 26 25  1  0  0  0  0
 27 29  1  0  0  0  0
 28 27  1  0  0  0  0
 28 30  1  0  0  0  0
 29 32  1  0  0  0  0
 29 23  2  0  0  0  0
 30 32  2  0  0  0  0
 31 28  1  0  0  0  0
M  END
>  <Pose>
1

>  <Score>
-8.185

$$$$
