/Users/jonathanwahrer/Desktop/Msc/3_Semester/Drug_Design_Praktikum/waehrer_HTS_screening/HTS_experiment/out/docking_results/vina_output/3sx0/0473_docked.pdbqt
 OpenBabel03192221493D

 29 32  0  0  0  0  0  0  0  0999 V2000
   20.1550   63.5590  -10.3580 C   0  0  0  0  0  2  0  0  0  0  0  0
   19.6060   62.1860  -10.0900 C   0  0  0  0  0  2  0  0  0  0  0  0
   18.3670   62.2890   -9.2800 C   0  0  0  0  0  2  0  0  0  0  0  0
   17.1820   62.5600  -10.0650 N   0  0  0  0  0  0  0  0  0  0  0  0
   16.3050   61.5410  -10.5220 C   0  0  0  0  0  0  0  0  0  0  0  0
   15.2320   62.1680  -11.2720 C   0  0  0  0  0  0  0  0  0  0  0  0
   16.3970   60.2850  -10.3340 O   0  0  0  0  0  0  0  0  0  0  0  0
   15.4680   63.5290  -11.2600 C   0  0  0  0  0  0  0  0  0  0  0  0
   14.1290   61.6540  -11.9240 C   0  0  0  0  0  3  0  0  0  0  0  0
   14.5670   64.3440  -11.9200 C   0  0  0  0  0  3  0  0  0  0  0  0
   16.6990   63.8050  -10.5020 C   0  0  0  0  0  0  0  0  0  0  0  0
   13.4680   63.8180  -12.5690 C   0  0  0  0  0  0  0  0  0  0  0  0
   12.2660   65.0020  -13.4580 Br  0  0  0  0  0  0  0  0  0  0  0  0
   13.2250   62.4600  -12.5850 C   0  0  0  0  0  3  0  0  0  0  0  0
   17.1950   64.9470  -10.3010 O   0  0  0  0  0  0  0  0  0  0  0  0
   21.5830   63.7250  -10.0040 C   0  0  0  0  0  0  0  0  0  0  0  0
   22.5170   63.7050  -10.8480 O   0  0  0  0  0  0  0  0  0  0  0  0
   21.9770   63.9250   -8.6330 N   0  0  0  0  0  0  0  0  0  0  0  0
   23.3680   64.0900   -8.2770 C   0  0  0  0  0  2  0  0  0  0  0  0
   21.0110   63.9690   -7.5510 C   0  0  0  0  0  2  0  0  0  0  0  0
   23.6060   65.1880   -7.2950 C   0  0  0  0  0  2  0  0  0  0  0  0
   22.4100   65.8760   -6.8710 N   0  0  0  0  0  0  0  0  0  0  0  0
   21.1020   65.2810   -6.8100 C   0  0  0  0  0  2  0  0  0  0  0  0
   22.5350   67.2480   -6.4820 C   0  0  0  0  0  0  0  0  0  0  0  0
   23.7480   67.8110   -6.2360 N   0  0  0  0  0  0  0  0  0  0  0  0
   23.9080   69.0830   -5.8720 C   0  0  0  0  0  3  0  0  0  0  0  0
   22.7840   69.8850   -5.7340 C   0  0  0  0  0  3  0  0  0  0  0  0
   21.5600   69.3550   -5.9720 N   0  0  0  0  0  0  0  0  0  0  0  0
   21.4400   68.0680   -6.3360 C   0  0  0  0  0  3  0  0  0  0  0  0
  1  2  1  0  0  0  0
  1 16  1  0  0  0  0
  2  3  1  0  0  0  0
  4  3  1  0  0  0  0
  5  7  2  0  0  0  0
  5  4  1  0  0  0  0
  6  8  1  0  0  0  0
  6  5  1  0  0  0  0
  8 11  1  0  0  0  0
  9  6  2  0  0  0  0
 10  8  2  0  0  0  0
 11 15  2  0  0  0  0
 11  4  1  0  0  0  0
 12 10  1  0  0  0  0
 13 12  1  0  0  0  0
 14 12  2  0  0  0  0
 14  9  1  0  0  0  0
 16 18  1  0  0  0  0
 17 16  2  0  0  0  0
 18 19  1  0  0  0  0
 18 20  1  0  0  0  0
 19 21  1  0  0  0  0
 20 23  1  0  0  0  0
 21 22  1  0  0  0  0
 22 23  1  0  0  0  0
 22 24  1  0  0  0  0
 24 29  2  0  0  0  0
 24 25  1  0  0  0  0
 25 26  2  0  0  0  0
 26 27  1  0  0  0  0
 28 27  2  0  0  0  0
 29 28  1  0  0  0  0
M  END
>  <Pose>
1

>  <Score>
-8.488

$$$$
