/Users/jonathanwahrer/Desktop/Msc/3_Semester/Drug_Design_Praktikum/waehrer_HTS_screening/HTS_experiment/out/docking_results/vina_output/3sx0/0483_docked.pdbqt
 OpenBabel03192221493D

 31 34  0  0  0  0  0  0  0  0999 V2000
   25.1830   62.8000  -11.6160 C   0  0  0  0  0  2  0  0  0  0  0  0
   25.5540   63.5460  -12.8080 C   0  0  0  0  0  0  0  0  0  0  0  0
   25.8780   64.1650  -13.7880 C   0  0  0  0  0  3  0  0  0  0  0  0
   23.8110   63.0860  -11.2470 N   0  0  0  0  0  0  0  0  0  0  0  0
   23.2600   63.4020   -9.9730 C   0  0  0  0  0  0  0  0  0  0  0  0
   21.8790   63.6060  -10.0740 C   0  0  0  0  0  0  0  0  0  0  0  0
   23.8570   63.5310   -8.7270 C   0  0  0  0  0  3  0  0  0  0  0  0
   21.1630   63.9240   -8.9390 C   0  0  0  0  0  3  0  0  0  0  0  0
   21.4820   63.4200  -11.4620 C   0  0  0  0  0  0  0  0  0  0  0  0
   21.7760   64.0510   -7.6870 C   0  0  0  0  0  0  0  0  0  0  0  0
   20.7830   64.4900   -6.1270 Br  0  0  0  0  0  0  0  0  0  0  0  0
   23.1260   63.8490   -7.6070 C   0  0  0  0  0  3  0  0  0  0  0  0
   22.7360   63.0910  -12.1730 C   0  0  0  0  0  0  0  0  0  0  0  0
   20.3020   63.5180  -11.9720 N   0  0  0  0  0  0  0  0  0  0  0  0
   22.7380   62.8690  -13.4150 O   0  0  0  0  0  0  0  0  0  0  0  0
   19.1810   63.8360  -11.2020 N   0  0  0  0  0  0  0  0  0  0  0  0
   18.2650   62.8550  -10.7480 C   0  0  0  0  0  0  0  0  0  0  0  0
   18.4610   61.6540  -11.0440 O   0  0  0  0  0  0  0  0  0  0  0  0
   19.0150   64.8340  -10.9650 H   0  0  0  0  0  0  0  0  0  0  0  0
   17.1120   63.2410   -9.9480 C   0  0  0  0  0  2  0  0  0  0  0  0
   15.8720   63.2400  -10.7000 N   0  0  0  0  0  0  0  0  0  0  0  0
   14.9600   62.2840  -10.7350 N   0  0  0  0  0  2  0  0  0  0  0  0
   13.9600   62.6300  -11.5290 N   0  0  0  0  0  0  0  0  0  0  0  0
   14.2290   63.8490  -12.0270 C   0  0  0  0  0  0  0  0  0  0  0  0
   15.4100   64.1930  -11.4970 N   0  0  0  0  0  2  0  0  0  0  0  0
   13.3780   64.5950  -12.9490 C   0  0  0  0  0  0  0  0  0  0  0  0
   13.9330   65.5190  -13.8070 C   0  0  0  0  0  3  0  0  0  0  0  0
   13.1220   66.2350  -14.6910 C   0  0  0  0  0  3  0  0  0  0  0  0
   11.7600   66.0440  -14.7360 C   0  0  0  0  0  3  0  0  0  0  0  0
   11.2000   65.1160  -13.8750 C   0  0  0  0  0  3  0  0  0  0  0  0
   12.0140   64.4090  -13.0000 C   0  0  0  0  0  3  0  0  0  0  0  0
  1  4  1  0  0  0  0
  2  1  1  0  0  0  0
  3  2  3  0  0  0  0
  4  5  1  0  0  0  0
  5  7  1  0  0  0  0
  6  5  2  0  0  0  0
  6  8  1  0  0  0  0
  7 12  2  0  0  0  0
  8 10  2  0  0  0  0
  9  6  1  0  0  0  0
 10 12  1  0  0  0  0
 10 11  1  0  0  0  0
 13  9  1  0  0  0  0
 13  4  1  0  0  0  0
 14  9  2  0  0  0  0
 14 16  1  0  0  0  0
 15 13  2  0  0  0  0
 16 19  1  0  0  0  0
 16 17  1  0  0  0  0
 17 20  1  0  0  0  0
 18 17  2  0  0  0  0
 21 20  1  0  0  0  0
 22 21  1  0  0  0  0
 23 22  1  0  0  0  0
 24 23  2  0  0  0  0
 24 25  1  0  0  0  0
 25 21  1  0  0  0  0
 26 24  1  0  0  0  0
 27 26  2  0  0  0  0
 28 27  1  0  0  0  0
 29 28  2  0  0  0  0
 29 30  1  0  0  0  0
 30 31  2  0  0  0  0
 31 26  1  0  0  0  0
M  END
>  <Pose>
1

>  <Score>
-7.862

$$$$
