/Users/jonathanwahrer/Desktop/Msc/3_Semester/Drug_Design_Praktikum/waehrer_HTS_screening/HTS_experiment/out/docking_results/vina_output/3sx0/0484_docked.pdbqt
 OpenBabel03192221503D

 35 38  0  0  1  0  0  0  0  0999 V2000
   21.7200   65.0800   -6.2350 Br  0  0  0  0  0  0  0  0  0  0  0  0
   22.0880   64.4140   -7.9860 C   0  0  0  0  0  0  0  0  0  0  0  0
   21.0750   64.2760   -8.9470 C   0  0  0  0  0  3  0  0  0  0  0  0
   21.4560   63.7980  -10.1680 C   0  0  0  0  0  0  0  0  0  0  0  0
   22.7500   63.4490  -10.4950 C   0  0  0  0  0  0  0  0  0  0  0  0
   23.7400   63.5800   -9.5480 C   0  0  0  0  0  3  0  0  0  0  0  0
   23.3900   64.0750   -8.2830 C   0  0  0  0  0  3  0  0  0  0  0  0
   22.8520   62.9830  -11.8340 N   0  0  0  0  0  0  0  0  0  0  0  0
   21.5090   63.0380  -12.3810 C   0  0  0  0  0  0  0  0  0  0  0  0
   21.1940   62.7200  -13.5470 O   0  0  0  0  0  0  0  0  0  0  0  0
   20.6570   63.5340  -11.3230 C   0  0  1  0  0  3  0  0  0  0  0  0
   19.3820   63.5970  -11.2940 N   0  0  0  0  0  2  0  0  0  0  0  0
   18.3810   63.1070  -10.9480 N   0  0  0  0  0  0  0  0  0  0  0  0
   17.1770   62.4940  -10.5340 C   0  0  0  0  0  0  0  0  0  0  0  0
   18.7900   61.8380  -11.3380 H   0  0  0  0  0  0  0  0  0  0  0  0
   16.8240   61.3370  -10.4760 O   0  0  0  0  0  0  0  0  0  0  0  0
   16.1730   63.5870  -10.1040 C   0  0  0  0  0  2  0  0  0  0  0  0
   16.2590   64.5710  -11.1580 O   0  0  0  0  0  0  0  0  0  0  0  0
   15.2630   64.4390  -12.1670 N   0  0  0  0  0  0  0  0  0  0  0  0
   14.1080   63.9640  -11.9060 C   0  0  0  0  0  3  0  0  0  0  0  0
   13.1200   63.8270  -12.9510 C   0  0  0  0  0  0  0  0  0  0  0  0
   12.3990   64.8380  -13.4910 C   0  0  0  0  0  3  0  0  0  0  0  0
   11.4240   64.4760  -14.4550 C   0  0  0  0  0  3  0  0  0  0  0  0
   11.1510   63.2500  -14.8960 C   0  0  0  0  0  0  0  0  0  0  0  0
   11.9000   62.2750  -14.3300 C   0  0  0  0  0  3  0  0  0  0  0  0
   12.8560   62.4160  -13.3980 C   0  0  0  0  0  3  0  0  0  0  0  0
   10.1610   63.0370  -15.8620 O   0  0  0  0  0  0  0  0  0  0  0  0
    8.8030   62.8480  -15.4810 C   0  0  0  0  0  1  0  0  0  0  0  0
   23.9900   62.5670  -12.6380 C   0  0  0  0  0  2  0  0  0  0  0  0
   24.5350   63.6170  -13.3470 N   0  0  0  0  0  0  0  0  0  0  0  0
   25.9040   63.7990  -13.0800 C   0  0  0  0  0  2  0  0  0  0  0  0
   26.6570   64.0270  -14.3930 C   0  0  0  0  0  2  0  0  0  0  0  0
   26.2440   62.9300  -15.1970 O   0  0  0  0  0  0  0  0  0  0  0  0
   24.9450   63.1700  -15.6650 C   0  0  0  0  0  2  0  0  0  0  0  0
   24.0580   63.8280  -14.6540 C   0  0  0  0  0  2  0  0  0  0  0  0
  2  1  1  0  0  0  0
  3  2  2  0  0  0  0
  4  3  1  0  0  0  0
  5  4  2  0  0  0  0
  5  6  1  0  0  0  0
  6  7  2  0  0  0  0
  7  2  1  0  0  0  0
  8  5  1  0  0  0  0
  9  8  1  0  0  0  0
  9 11  1  0  0  0  0
 10  9  2  0  0  0  0
 11 12  1  1  0  0  0
 11  4  1  0  0  0  0
 12 13  1  0  0  0  0
 13 14  1  0  0  0  0
 14 16  2  0  0  0  0
 14 17  1  0  0  0  0
 15 13  1  0  0  0  0
 18 17  1  0  0  0  0
 19 20  2  0  0  0  0
 19 18  1  0  0  0  0
 21 20  1  0  0  0  0
 22 21  2  0  0  0  0
 23 22  1  0  0  0  0
 24 23  2  0  0  0  0
 24 25  1  0  0  0  0
 25 26  2  0  0  0  0
 26 21  1  0  0  0  0
 27 28  1  0  0  0  0
 27 24  1  0  0  0  0
 29  8  1  0  0  0  0
 30 31  1  0  0  0  0
 30 29  1  0  0  0  0
 32 31  1  0  0  0  0
 33 32  1  0  0  0  0
 34 33  1  0  0  0  0
 34 35  1  0  0  0  0
 35 30  1  0  0  0  0
M  END
>  <Pose>
1

>  <Score>
-8.110

$$$$
