/Users/jonathanwahrer/Desktop/Msc/3_Semester/Drug_Design_Praktikum/waehrer_HTS_screening/HTS_experiment/out/docking_results/vina_output/3sx0/0485_docked.pdbqt
 OpenBabel03192221503D

 34 37  0  0  0  0  0  0  0  0999 V2000
    9.1100   60.2830  -14.3050 Br  0  0  0  0  0  0  0  0  0  0  0  0
   10.1370   61.8530  -14.7210 C   0  0  0  0  0  0  0  0  0  0  0  0
   11.1900   62.2530  -13.9310 C   0  0  0  0  0  3  0  0  0  0  0  0
   11.9610   63.3810  -14.1900 C   0  0  0  0  0  0  0  0  0  0  0  0
   11.6480   64.1490  -15.3160 C   0  0  0  0  0  0  0  0  0  0  0  0
   10.5920   63.7480  -16.1090 C   0  0  0  0  0  3  0  0  0  0  0  0
    9.8340   62.6140  -15.8300 C   0  0  0  0  0  3  0  0  0  0  0  0
   12.5490   65.2610  -15.4160 N   0  0  0  0  0  0  0  0  0  0  0  0
   13.4390   65.1650  -14.3120 C   0  0  0  0  0  0  0  0  0  0  0  0
   14.3700   65.9620  -14.0620 O   0  0  0  0  0  0  0  0  0  0  0  0
   13.0950   63.9960  -13.5260 C   0  0  0  0  0  0  0  0  0  0  0  0
   13.6720   63.5790  -12.4550 N   0  0  0  0  0  0  0  0  0  0  0  0
   14.7580   64.2250  -11.8760 N   0  0  0  0  0  0  0  0  0  0  0  0
   15.6700   63.4920  -11.0880 C   0  0  0  0  0  0  0  0  0  0  0  0
   15.5250   62.2360  -10.8890 O   0  0  0  0  0  0  0  0  0  0  0  0
   14.8880   65.2350  -12.0260 H   0  0  0  0  0  0  0  0  0  0  0  0
   16.8550   64.1000  -10.4330 C   0  0  0  0  0  2  0  0  0  0  0  0
   17.8180   63.0920  -10.1270 O   0  0  0  0  0  0  0  0  0  0  0  0
   19.0470   63.0950  -10.7650 C   0  0  0  0  0  0  0  0  0  0  0  0
   20.1740   63.5210  -10.0950 C   0  0  0  0  0  0  0  0  0  0  0  0
   21.4050   63.5210  -10.7430 C   0  0  0  0  0  3  0  0  0  0  0  0
   21.5080   63.0980  -12.0540 C   0  0  0  0  0  3  0  0  0  0  0  0
   20.3850   62.6800  -12.7040 C   0  0  0  0  0  3  0  0  0  0  0  0
   19.1590   62.6800  -12.0580 C   0  0  0  0  0  3  0  0  0  0  0  0
   20.1060   63.9470   -8.7930 O   0  0  0  0  0  0  0  0  0  0  0  0
   21.1930   63.7630   -7.9230 C   0  0  0  0  0  1  0  0  0  0  0  0
   12.5170   66.2640  -16.4670 C   0  0  0  0  0  2  0  0  0  0  0  0
   12.2690   67.5880  -16.0230 N   0  0  0  0  0  0  0  0  0  0  0  0
   13.0530   68.6060  -16.6330 C   0  0  0  0  0  2  0  0  0  0  0  0
   12.7680   69.9860  -16.0330 C   0  0  0  0  0  2  0  0  0  0  0  0
   12.0220   69.7680  -14.8270 N   0  0  0  0  0  0  0  0  0  0  0  0
   10.7190   69.2270  -15.0630 C   0  0  0  0  0  2  0  0  0  0  0  0
   12.0500   70.8760  -13.9160 C   0  0  0  0  0  1  0  0  0  0  0  0
   10.8880   67.9280  -15.8300 C   0  0  0  0  0  2  0  0  0  0  0  0
  2  1  1  0  0  0  0
  2  3  1  0  0  0  0
  4  3  2  0  0  0  0
  4 11  1  0  0  0  0
  5  4  1  0  0  0  0
  6  7  1  0  0  0  0
  6  5  2  0  0  0  0
  7  2  2  0  0  0  0
  8  5  1  0  0  0  0
  8  9  1  0  0  0  0
  9 10  2  0  0  0  0
  9 11  1  0  0  0  0
 11 12  2  0  0  0  0
 12 13  1  0  0  0  0
 13 14  1  0  0  0  0
 14 15  2  0  0  0  0
 14 17  1  0  0  0  0
 16 13  1  0  0  0  0
 17 18  1  0  0  0  0
 19 18  1  0  0  0  0
 19 20  1  0  0  0  0
 20 25  1  0  0  0  0
 21 20  2  0  0  0  0
 22 21  1  0  0  0  0
 23 24  1  0  0  0  0
 23 22  2  0  0  0  0
 24 19  2  0  0  0  0
 25 26  1  0  0  0  0
 27 28  1  0  0  0  0
 27  8  1  0  0  0  0
 28 34  1  0  0  0  0
 29 30  1  0  0  0  0
 29 28  1  0  0  0  0
 30 31  1  0  0  0  0
 31 33  1  0  0  0  0
 32 31  1  0  0  0  0
 34 32  1  0  0  0  0
M  END
>  <Pose>
1

>  <Score>
-7.023

$$$$
