/Users/jonathanwahrer/Desktop/Msc/3_Semester/Drug_Design_Praktikum/waehrer_HTS_screening/HTS_experiment/out/docking_results/vina_output/3sx0/0504_docked.pdbqt
 OpenBabel03192221513D

 29 32  0  0  1  0  0  0  0  0999 V2000
   15.4070   64.6980  -10.9150 Br  0  0  0  0  0  0  0  0  0  0  0  0
   14.2430   64.3170  -12.3670 C   0  0  0  0  0  0  0  0  0  0  0  0
   13.9620   65.2240  -13.3600 C   0  0  0  0  0  3  0  0  0  0  0  0
   13.0950   64.8670  -14.3930 C   0  0  0  0  0  0  0  0  0  0  0  0
   12.5020   63.6520  -14.4770 C   0  0  0  0  0  0  0  0  0  0  0  0
   12.7890   62.7300  -13.4670 C   0  0  0  0  0  3  0  0  0  0  0  0
   13.6420   63.0650  -12.4390 C   0  0  0  0  0  3  0  0  0  0  0  0
   11.6720   63.5410  -15.6170 N   0  0  0  0  0  0  0  0  0  0  0  0
   11.7360   64.7650  -16.3090 C   0  0  0  0  0  0  0  0  0  0  0  0
   11.1280   65.0480  -17.3780 O   0  0  0  0  0  0  0  0  0  0  0  0
   12.6480   65.6810  -15.5690 C   0  0  1  0  0  0  0  0  0  0  0  0
   11.9080   66.8780  -15.0950 C   0  0  0  0  0  0  0  0  0  0  0  0
   12.3000   68.0760  -15.3400 C   0  0  0  0  0  0  0  0  0  0  0  0
   13.5030   68.3690  -16.1030 N   0  0  0  0  0  0  0  0  0  0  0  0
   14.2170   67.2390  -16.5590 C   0  0  0  0  0  0  0  0  0  0  0  0
   13.8370   66.0140  -16.3230 C   0  0  0  0  0  0  0  0  0  0  0  0
   14.6750   64.9480  -16.8580 C   0  0  0  0  0  0  0  0  0  0  0  0
   15.3280   64.0870  -17.2760 N   0  0  0  0  0  0  0  0  0  0  0  0
   11.3310   69.0330  -14.7220 C   0  0  0  0  0  0  0  0  0  0  0  0
   10.3730   68.2460  -14.1170 O   0  0  0  0  0  0  0  0  0  0  0  0
   10.6430   66.9230  -14.2920 C   0  0  0  0  0  0  0  0  0  0  0  0
   10.0080   65.9000  -13.8930 O   0  0  0  0  0  0  0  0  0  0  0  0
   10.7700   69.9600  -15.7840 C   0  0  0  0  0  1  0  0  0  0  0  0
   12.0090   69.8610  -13.6460 C   0  0  0  0  0  1  0  0  0  0  0  0
   10.8710   62.3800  -16.0370 C   0  0  0  0  0  1  0  0  0  0  0  0
   13.7730   69.3540  -16.2700 H   0  0  0  0  0  0  0  0  0  0  0  0
   15.4290   67.4720  -17.3280 N   0  0  0  0  0  0  0  0  0  0  0  0
   15.4450   68.3170  -17.9350 H   0  0  0  0  0  0  0  0  0  0  0  0
   16.2320   66.8300  -17.2760 H   0  0  0  0  0  0  0  0  0  0  0  0
  2  1  1  0  0  0  0
  3  2  2  0  0  0  0
  4  3  1  0  0  0  0
  5  4  2  0  0  0  0
  5  6  1  0  0  0  0
  6  7  2  0  0  0  0
  7  2  1  0  0  0  0
  8  5  1  0  0  0  0
  9  8  1  0  0  0  0
  9 11  1  0  0  0  0
 10  9  2  0  0  0  0
 11 16  1  6  0  0  0
 11 12  1  0  0  0  0
 11  4  1  0  0  0  0
 12 21  1  0  0  0  0
 13 12  2  0  0  0  0
 13 19  1  0  0  0  0
 14 13  1  0  0  0  0
 15 16  2  0  0  0  0
 15 14  1  0  0  0  0
 17 16  1  0  0  0  0
 18 17  3  0  0  0  0
 19 20  1  0  0  0  0
 19 24  1  0  0  0  0
 21 20  1  0  0  0  0
 21 22  2  0  0  0  0
 23 19  1  0  0  0  0
 25  8  1  0  0  0  0
 26 14  1  0  0  0  0
 27 29  1  0  0  0  0
 27 15  1  0  0  0  0
 28 27  1  0  0  0  0
M  END
>  <Pose>
1

>  <Score>
-6.126

$$$$
