/Users/jonathanwahrer/Desktop/Msc/3_Semester/Drug_Design_Praktikum/waehrer_HTS_screening/HTS_experiment/out/docking_results/vina_output/3sx0/0505_docked.pdbqt
 OpenBabel03192221513D

 30 33  0  0  1  0  0  0  0  0999 V2000
   13.9970   62.8220  -10.5210 Br  0  0  0  0  0  0  0  0  0  0  0  0
   13.7780   63.7580  -12.1640 C   0  0  0  0  0  0  0  0  0  0  0  0
   12.8870   63.2900  -13.1060 C   0  0  0  0  0  3  0  0  0  0  0  0
   12.7080   63.9590  -14.3210 C   0  0  0  0  0  0  0  0  0  0  0  0
   13.4410   65.0820  -14.5360 C   0  0  0  0  0  0  0  0  0  0  0  0
   14.3520   65.5590  -13.5720 C   0  0  0  0  0  3  0  0  0  0  0  0
   14.5220   64.8950  -12.3790 C   0  0  0  0  0  3  0  0  0  0  0  0
   13.1140   65.6060  -15.8170 N   0  0  0  0  0  0  0  0  0  0  0  0
   12.1450   64.7920  -16.4310 C   0  0  0  0  0  0  0  0  0  0  0  0
   11.6200   64.9440  -17.5620 O   0  0  0  0  0  0  0  0  0  0  0  0
   11.8270   63.6750  -15.4920 C   0  0  1  0  0  0  0  0  0  0  0  0
   12.1480   62.3760  -16.0940 C   0  0  0  0  0  0  0  0  0  0  0  0
   11.2240   61.3870  -16.1900 C   0  0  0  0  0  0  0  0  0  0  0  0
    9.9250   61.5890  -15.7120 O   0  0  0  0  0  0  0  0  0  0  0  0
    9.5720   62.7930  -15.1380 C   0  0  0  0  0  0  0  0  0  0  0  0
   10.4370   63.7560  -15.0340 C   0  0  0  0  0  0  0  0  0  0  0  0
    9.9740   65.0030  -14.4090 C   0  0  0  0  0  0  0  0  0  0  0  0
    9.6180   65.9680  -13.9180 N   0  0  0  0  0  0  0  0  0  0  0  0
   11.5750   60.1650  -16.7700 C   0  0  0  0  0  0  0  0  0  0  0  0
   10.7150   59.2640  -16.8530 O   0  0  0  0  0  0  0  0  0  0  0  0
   12.8560   59.9830  -17.2360 C   0  0  0  0  0  3  0  0  0  0  0  0
   13.7530   61.0220  -17.1110 C   0  0  0  0  0  0  0  0  0  0  0  0
   13.3720   62.1280  -16.5660 O   0  0  0  0  0  0  0  0  0  0  0  0
   13.7330   66.8270  -16.3680 C   0  0  0  0  0  1  0  0  0  0  0  0
    8.2190   62.9270  -14.6700 N   0  0  0  0  0  0  0  0  0  0  0  0
    7.4650   62.5580  -15.2450 H   0  0  0  0  0  0  0  0  0  0  0  0
    8.0600   63.3890  -13.7750 H   0  0  0  0  0  0  0  0  0  0  0  0
   15.1700   60.8450  -17.6160 C   0  0  0  0  0  2  0  0  0  0  0  0
   15.8120   62.0830  -17.6140 O   0  0  0  0  0  0  0  0  0  0  0  0
   16.0830   62.3090  -16.6750 H   0  0  0  0  0  0  0  0  0  0  0  0
  2  1  1  0  0  0  0
  3  2  2  0  0  0  0
  4  3  1  0  0  0  0
  5  4  2  0  0  0  0
  5  6  1  0  0  0  0
  6  7  2  0  0  0  0
  7  2  1  0  0  0  0
  8  5  1  0  0  0  0
  9  8  1  0  0  0  0
 10  9  2  0  0  0  0
 11  9  1  6  0  0  0
 11 16  1  0  0  0  0
 11  4  1  0  0  0  0
 12 11  1  0  0  0  0
 13 12  2  0  0  0  0
 13 14  1  0  0  0  0
 14 15  1  0  0  0  0
 15 16  2  0  0  0  0
 15 25  1  0  0  0  0
 16 17  1  0  0  0  0
 17 18  3  0  0  0  0
 19 13  1  0  0  0  0
 20 19  2  0  0  0  0
 21 22  2  0  0  0  0
 21 19  1  0  0  0  0
 22 23  1  0  0  0  0
 23 12  1  0  0  0  0
 24  8  1  0  0  0  0
 25 27  1  0  0  0  0
 26 25  1  0  0  0  0
 28 29  1  0  0  0  0
 28 22  1  0  0  0  0
 29 30  1  0  0  0  0
M  END
>  <Pose>
1

>  <Score>
-4.095

$$$$
