/Users/jonathanwahrer/Desktop/Msc/3_Semester/Drug_Design_Praktikum/waehrer_HTS_screening/HTS_experiment/out/docking_results/vina_output/3sx0/0526_docked.pdbqt
 OpenBabel03192221523D

 31 34  0  0  0  0  0  0  0  0999 V2000
   20.2060   63.1860   -9.8260 N   0  0  0  0  0  0  0  0  0  0  0  0
   21.2160   63.2800  -10.8010 C   0  0  0  0  0  0  0  0  0  0  0  0
   20.8700   63.2430  -12.0350 O   0  0  0  0  0  0  0  0  0  0  0  0
   20.4760   63.2020   -8.8050 H   0  0  0  0  0  0  0  0  0  0  0  0
   22.6580   63.4270  -10.5810 C   0  0  0  0  0  2  0  0  0  0  0  0
   23.1370   63.0980   -9.2680 N   0  0  0  0  0  0  0  0  0  0  0  0
   22.9900   63.9950   -8.1730 C   0  0  0  0  0  0  0  0  0  0  0  0
   22.4050   65.1150   -8.4420 O   0  0  0  0  0  0  0  0  0  0  0  0
   23.6230   62.2110   -9.0670 H   0  0  0  0  0  0  0  0  0  0  0  0
   23.4260   63.7730   -6.8280 C   0  0  0  0  0  0  0  0  0  0  0  0
   24.5300   63.0220   -6.4540 C   0  0  0  0  0  3  0  0  0  0  0  0
   24.8930   62.8580   -5.1610 C   0  0  0  0  0  0  0  0  0  0  0  0
   24.1710   63.4400   -4.1380 C   0  0  0  0  0  0  0  0  0  0  0  0
   25.9640   62.1620   -4.4860 O   0  0  0  0  0  0  0  0  0  0  0  0
   23.0780   64.1820   -4.4570 C   0  0  0  0  0  3  0  0  0  0  0  0
   24.7810   63.1070   -2.9170 O   0  0  0  0  0  0  0  0  0  0  0  0
   22.6880   64.3660   -5.7920 C   0  0  0  0  0  3  0  0  0  0  0  0
   26.1750   63.0020   -3.2960 C   0  0  0  0  0  2  0  0  0  0  0  0
   18.9120   63.0760  -10.1910 N   0  0  0  0  0  0  0  0  0  0  0  0
   18.0220   62.2890  -10.2790 C   0  0  0  0  0  0  0  0  0  0  0  0
   16.6310   62.4240  -10.7300 C   0  0  0  0  0  0  0  0  0  0  0  0
   18.2190   60.8680   -9.8660 C   0  0  0  0  0  0  0  0  0  0  0  0
   15.9460   63.5180  -11.2110 C   0  0  0  0  0  3  0  0  0  0  0  0
   16.0520   61.2010  -10.6040 C   0  0  0  0  0  0  0  0  0  0  0  0
   14.6370   63.4300  -11.5910 C   0  0  0  0  0  0  0  0  0  0  0  0
   13.6800   64.9260  -12.2600 Br  0  0  0  0  0  0  0  0  0  0  0  0
   14.0250   62.1880  -11.4700 C   0  0  0  0  0  3  0  0  0  0  0  0
   14.7110   61.1010  -10.9900 C   0  0  0  0  0  3  0  0  0  0  0  0
   16.9530   60.2430  -10.0920 N   0  0  0  0  0  0  0  0  0  0  0  0
   16.7680   59.2290   -9.9010 H   0  0  0  0  0  0  0  0  0  0  0  0
   19.2790   60.4110   -9.4330 O   0  0  0  0  0  0  0  0  0  0  0  0
  1  4  1  0  0  0  0
  2  5  1  0  0  0  0
  2  1  1  0  0  0  0
  3  2  2  0  0  0  0
  5  6  1  0  0  0  0
  6  9  1  0  0  0  0
  6  7  1  0  0  0  0
  7 10  1  0  0  0  0
  8  7  2  0  0  0  0
 10 11  2  0  0  0  0
 10 17  1  0  0  0  0
 11 12  1  0  0  0  0
 12 14  1  0  0  0  0
 12 13  2  0  0  0  0
 13 16  1  0  0  0  0
 14 18  1  0  0  0  0
 15 13  1  0  0  0  0
 17 15  2  0  0  0  0
 18 16  1  0  0  0  0
 19  1  1  0  0  0  0
 20 19  2  0  0  0  0
 20 22  1  0  0  0  0
 21 24  1  0  0  0  0
 21 20  1  0  0  0  0
 22 31  2  0  0  0  0
 23 21  2  0  0  0  0
 24 29  1  0  0  0  0
 25 27  2  0  0  0  0
 25 23  1  0  0  0  0
 26 25  1  0  0  0  0
 27 28  1  0  0  0  0
 28 24  2  0  0  0  0
 29 30  1  0  0  0  0
 29 22  1  0  0  0  0
M  END
>  <Pose>
1

>  <Score>
-9.767

$$$$
