/Users/jonathanwahrer/Desktop/Msc/3_Semester/Drug_Design_Praktikum/waehrer_HTS_screening/HTS_experiment/out/docking_results/vina_output/3sx0/0550_docked.pdbqt
 OpenBabel03192221523D

 30 35  0  0  1  0  0  0  0  0999 V2000
   14.3740   61.2990  -10.5080 Br  0  0  0  0  0  0  0  0  0  0  0  0
   14.1640   62.7430  -11.7360 C   0  0  0  0  0  0  0  0  0  0  0  0
   13.3250   62.6580  -12.8410 C   0  0  0  0  0  3  0  0  0  0  0  0
   13.1790   63.6980  -13.7180 C   0  0  0  0  0  0  0  0  0  0  0  0
   13.9050   64.8520  -13.4620 C   0  0  0  0  0  0  0  0  0  0  0  0
   14.7390   64.9440  -12.3670 C   0  0  0  0  0  3  0  0  0  0  0  0
   14.8780   63.8910  -11.4930 C   0  0  0  0  0  3  0  0  0  0  0  0
   13.6360   65.8350  -14.4640 N   0  0  0  0  0  0  0  0  0  0  0  0
   12.7140   65.2980  -15.3880 C   0  0  0  0  0  0  0  0  0  0  0  0
   12.2760   65.9090  -16.3740 O   0  0  0  0  0  0  0  0  0  0  0  0
   12.4070   63.9240  -14.9380 C   0  0  1  0  0  0  0  0  0  0  0  0
   12.6890   63.0460  -16.0330 N   0  0  2  0  0  0  0  0  0  0  0  0
   11.5650   63.2450  -16.9460 C   0  0  2  0  0  3  0  0  0  0  0  0
   10.3770   63.5410  -16.0910 C   0  0  1  0  0  3  0  0  0  0  0  0
   10.9310   63.7040  -14.7180 C   0  0  2  0  0  3  0  0  0  0  0  0
   10.2430   64.8680  -14.1690 C   0  0  0  0  0  0  0  0  0  0  0  0
   10.3000   65.2730  -12.9860 O   0  0  0  0  0  0  0  0  0  0  0  0
    9.4890   65.4850  -15.1820 N   0  0  0  0  0  0  0  0  0  0  0  0
    9.7300   64.8450  -16.4450 C   0  0  0  0  0  0  0  0  0  0  0  0
    9.4730   65.2580  -17.6030 O   0  0  0  0  0  0  0  0  0  0  0  0
   11.3430   61.8970  -17.6160 C   0  0  0  0  0  2  0  0  0  0  0  0
   12.4120   60.9760  -17.0660 C   0  0  0  0  0  2  0  0  0  0  0  0
   12.6650   61.6370  -15.7030 C   0  0  0  0  0  2  0  0  0  0  0  0
   14.0720   66.8040  -14.4900 H   0  0  0  0  0  0  0  0  0  0  0  0
    8.6000   66.5920  -15.0150 C   0  0  0  0  0  2  0  0  0  0  0  0
    8.9020   67.7810  -15.8520 C   0  0  2  0  0  3  0  0  0  0  0  0
    9.9460   68.5590  -15.3670 O   0  0  0  0  0  0  0  0  0  0  0  0
    9.8890   69.7070  -16.1460 C   0  0  0  0  0  2  0  0  0  0  0  0
    8.4500   70.0190  -16.4130 C   0  0  0  0  0  2  0  0  0  0  0  0
    7.7520   68.6930  -16.1140 C   0  0  0  0  0  2  0  0  0  0  0  0
  2  7  1  0  0  0  0
  2  1  1  0  0  0  0
  3  2  2  0  0  0  0
  4  5  2  0  0  0  0
  4  3  1  0  0  0  0
  5  6  1  0  0  0  0
  6  7  2  0  0  0  0
  8  5  1  0  0  0  0
  9  8  1  0  0  0  0
 10  9  2  0  0  0  0
 11  9  1  6  0  0  0
 11 15  1  0  0  0  0
 11  4  1  0  0  0  0
 12 23  1  1  0  0  0
 12 11  1  0  0  0  0
 13 21  1  1  0  0  0
 13 14  1  0  0  0  0
 13 12  1  0  0  0  0
 14 19  1  6  0  0  0
 14 15  1  0  0  0  0
 15 16  1  6  0  0  0
 16 17  2  0  0  0  0
 18 25  1  0  0  0  0
 18 16  1  0  0  0  0
 19 18  1  0  0  0  0
 20 19  2  0  0  0  0
 21 22  1  0  0  0  0
 22 23  1  0  0  0  0
 24  8  1  0  0  0  0
 26 27  1  0  0  0  0
 26 25  1  1  0  0  0
 28 27  1  0  0  0  0
 29 28  1  0  0  0  0
 29 30  1  0  0  0  0
 30 26  1  0  0  0  0
M  END
>  <Pose>
1

>  <Score>
-4.436

$$$$
