/Users/jonathanwahrer/Desktop/Msc/3_Semester/Drug_Design_Praktikum/waehrer_HTS_screening/HTS_experiment/out/docking_results/vina_output/3sx0/0556_docked.pdbqt
 OpenBabel03192221523D

 30 33  0  0  1  0  0  0  0  0999 V2000
   14.7100   63.9760  -11.1760 Br  0  0  0  0  0  0  0  0  0  0  0  0
   13.6240   63.9090  -12.7420 C   0  0  0  0  0  0  0  0  0  0  0  0
   13.5180   65.0610  -13.4820 C   0  0  0  0  0  3  0  0  0  0  0  0
   12.7330   65.0610  -14.6400 C   0  0  0  0  0  0  0  0  0  0  0  0
   12.0920   63.9230  -15.0060 C   0  0  0  0  0  0  0  0  0  0  0  0
   12.1870   62.7310  -14.2620 C   0  0  0  0  0  3  0  0  0  0  0  0
   12.9650   62.7610  -13.1290 C   0  0  0  0  0  3  0  0  0  0  0  0
   11.3490   64.1260  -16.1930 N   0  0  0  0  0  0  0  0  0  0  0  0
   11.5340   65.4540  -16.5840 C   0  0  0  0  0  0  0  0  0  0  0  0
   11.0210   66.0420  -17.6130 O   0  0  0  0  0  0  0  0  0  0  0  0
   12.4470   66.1120  -15.6030 C   0  0  2  0  0  0  0  0  0  0  0  0
   13.5570   66.6180  -16.3680 C   0  0  0  0  0  0  0  0  0  0  0  0
   13.7650   67.9380  -16.5120 C   0  0  0  0  0  0  0  0  0  0  0  0
   14.8900   68.0830  -17.2870 N   0  0  0  0  0  0  0  0  0  0  0  0
   15.3400   66.8860  -17.5970 N   0  0  0  0  0  0  0  0  0  0  0  0
   14.5710   65.9330  -17.0680 C   0  0  0  0  0  0  0  0  0  0  0  0
   14.7200   64.4530  -17.1710 C   0  0  0  0  0  1  0  0  0  0  0  0
   12.9350   68.9200  -15.9390 O   0  0  0  0  0  0  0  0  0  0  0  0
   11.8590   68.4520  -15.1960 C   0  0  0  0  0  0  0  0  0  0  0  0
   11.6080   67.1900  -15.0240 C   0  0  0  0  0  0  0  0  0  0  0  0
   10.7500   63.4260  -16.7180 H   0  0  0  0  0  0  0  0  0  0  0  0
   15.3140   68.9920  -17.5800 H   0  0  0  0  0  0  0  0  0  0  0  0
   10.4240   66.7940  -14.2070 C   0  0  0  0  0  0  0  0  0  0  0  0
   10.6000   66.5820  -12.9940 O   0  0  0  0  0  0  0  0  0  0  0  0
    9.1660   66.6560  -14.7270 O   0  0  0  0  0  0  0  0  0  0  0  0
    8.3810   65.4920  -14.6340 C   0  0  0  0  0  2  0  0  0  0  0  0
    7.8320   65.2010  -16.0350 C   0  0  0  0  0  1  0  0  0  0  0  0
   10.9600   69.3990  -14.5760 N   0  0  0  0  0  0  0  0  0  0  0  0
   10.5890   70.1580  -15.1520 H   0  0  0  0  0  0  0  0  0  0  0  0
   10.7200   69.2880  -13.5910 H   0  0  0  0  0  0  0  0  0  0  0  0
  2  1  1  0  0  0  0
  3  2  2  0  0  0  0
  4  3  1  0  0  0  0
  5  4  2  0  0  0  0
  5  6  1  0  0  0  0
  6  7  2  0  0  0  0
  7  2  1  0  0  0  0
  8  5  1  0  0  0  0
  9  8  1  0  0  0  0
 10  9  2  0  0  0  0
 11  9  1  6  0  0  0
 11 20  1  0  0  0  0
 11  4  1  0  0  0  0
 12 11  1  0  0  0  0
 13 12  2  0  0  0  0
 13 18  1  0  0  0  0
 14 13  1  0  0  0  0
 15 14  1  0  0  0  0
 15 16  2  0  0  0  0
 16 12  1  0  0  0  0
 17 16  1  0  0  0  0
 18 19  1  0  0  0  0
 19 20  2  0  0  0  0
 19 28  1  0  0  0  0
 20 23  1  0  0  0  0
 21  8  1  0  0  0  0
 22 14  1  0  0  0  0
 23 24  2  0  0  0  0
 25 26  1  0  0  0  0
 25 23  1  0  0  0  0
 27 26  1  0  0  0  0
 28 30  1  0  0  0  0
 29 28  1  0  0  0  0
M  END
>  <Pose>
1

>  <Score>
-4.503

$$$$
