/Users/jonathanwahrer/Desktop/Msc/3_Semester/Drug_Design_Praktikum/waehrer_HTS_screening/HTS_experiment/out/docking_results/vina_output/3sx0/0558_docked.pdbqt
 OpenBabel03192221523D

 29 32  0  0  1  0  0  0  0  0999 V2000
   15.3870   64.5380  -10.8830 Br  0  0  0  0  0  0  0  0  0  0  0  0
   14.2280   64.1880  -12.3460 C   0  0  0  0  0  0  0  0  0  0  0  0
   13.9730   65.1410  -13.3380 C   0  0  0  0  0  3  0  0  0  0  0  0
   13.1360   64.8800  -14.3900 C   0  0  0  0  0  0  0  0  0  0  0  0
   12.5310   63.6600  -14.4760 C   0  0  0  0  0  0  0  0  0  0  0  0
   12.7530   62.6720  -13.5070 C   0  0  0  0  0  3  0  0  0  0  0  0
   13.5990   62.9620  -12.4630 C   0  0  0  0  0  3  0  0  0  0  0  0
   11.7080   63.5850  -15.6270 N   0  0  0  0  0  0  0  0  0  0  0  0
   11.8040   64.8190  -16.2940 C   0  0  0  0  0  0  0  0  0  0  0  0
   11.2300   65.1710  -17.3590 O   0  0  0  0  0  0  0  0  0  0  0  0
   12.7170   65.7040  -15.5380 C   0  0  1  0  0  0  0  0  0  0  0  0
   11.9690   66.9180  -15.0770 C   0  0  0  0  0  0  0  0  0  0  0  0
   12.3020   68.1560  -15.3310 C   0  0  0  0  0  0  0  0  0  0  0  0
   13.4640   68.3900  -16.1050 N   0  0  0  0  0  0  0  0  0  0  0  0
   14.2370   67.3020  -16.5860 C   0  0  0  0  0  0  0  0  0  0  0  0
   13.9050   66.0600  -16.3330 C   0  0  0  0  0  0  0  0  0  0  0  0
   14.7580   64.9940  -16.8670 C   0  0  0  0  0  0  0  0  0  0  0  0
   15.4160   64.1400  -17.2860 N   0  0  0  0  0  0  0  0  0  0  0  0
   11.3050   69.0520  -14.6970 C   0  0  0  0  0  0  0  0  0  0  0  0
   10.3650   68.2320  -14.0530 O   0  0  0  0  0  0  0  0  0  0  0  0
   10.7390   66.9200  -14.2650 C   0  0  0  0  0  0  0  0  0  0  0  0
   10.1140   65.8960  -13.8230 O   0  0  0  0  0  0  0  0  0  0  0  0
   10.5320   69.8400  -15.7570 C   0  0  0  0  0  1  0  0  0  0  0  0
   11.9730   70.0110  -13.7220 C   0  0  0  0  0  1  0  0  0  0  0  0
   11.1300   62.7350  -15.9180 H   0  0  0  0  0  0  0  0  0  0  0  0
   13.7810   69.3660  -16.3410 H   0  0  0  0  0  0  0  0  0  0  0  0
   15.4260   67.5680  -17.3790 N   0  0  0  0  0  0  0  0  0  0  0  0
   15.5700   67.1940  -18.3310 H   0  0  0  0  0  0  0  0  0  0  0  0
   16.1590   68.1630  -16.9590 H   0  0  0  0  0  0  0  0  0  0  0  0
  2  1  1  0  0  0  0
  3  2  2  0  0  0  0
  4  3  1  0  0  0  0
  5  4  2  0  0  0  0
  5  6  1  0  0  0  0
  6  7  2  0  0  0  0
  7  2  1  0  0  0  0
  8  5  1  0  0  0  0
  9  8  1  0  0  0  0
  9 11  1  0  0  0  0
 10  9  2  0  0  0  0
 11 16  1  6  0  0  0
 11 12  1  0  0  0  0
 11  4  1  0  0  0  0
 12 21  1  0  0  0  0
 13 12  2  0  0  0  0
 13 19  1  0  0  0  0
 14 13  1  0  0  0  0
 15 16  2  0  0  0  0
 15 14  1  0  0  0  0
 17 16  1  0  0  0  0
 18 17  3  0  0  0  0
 19 20  1  0  0  0  0
 19 24  1  0  0  0  0
 21 20  1  0  0  0  0
 21 22  2  0  0  0  0
 23 19  1  0  0  0  0
 25  8  1  0  0  0  0
 26 14  1  0  0  0  0
 27 29  1  0  0  0  0
 27 15  1  0  0  0  0
 28 27  1  0  0  0  0
M  END
>  <Pose>
1

>  <Score>
-6.112

$$$$
