/Users/jonathanwahrer/Desktop/Msc/3_Semester/Drug_Design_Praktikum/waehrer_HTS_screening/HTS_experiment/out/docking_results/vina_output/3sx0/0559_docked.pdbqt
 OpenBabel03192221523D

 32 35  0  0  1  0  0  0  0  0999 V2000
   12.1350   69.2360  -15.7500 Br  0  0  0  0  0  0  0  0  0  0  0  0
   10.6880   68.0450  -16.1620 C   0  0  0  0  0  0  0  0  0  0  0  0
   10.8320   66.6720  -16.0880 C   0  0  0  0  0  3  0  0  0  0  0  0
    9.7970   65.8080  -16.3830 C   0  0  0  0  0  0  0  0  0  0  0  0
    8.6030   66.3870  -16.7590 C   0  0  0  0  0  0  0  0  0  0  0  0
    8.4540   67.7680  -16.8350 C   0  0  0  0  0  3  0  0  0  0  0  0
    9.4910   68.5980  -16.5380 C   0  0  0  0  0  3  0  0  0  0  0  0
    7.6510   65.3460  -17.0320 N   0  0  0  0  0  0  0  0  0  0  0  0
    8.2670   64.0880  -16.8220 C   0  0  0  0  0  0  0  0  0  0  0  0
    7.6930   62.9870  -16.9880 O   0  0  0  0  0  0  0  0  0  0  0  0
    9.6580   64.3330  -16.3870 C   0  0  1  0  0  0  0  0  0  0  0  0
   10.5970   63.6930  -17.2690 N   0  0  0  0  0  0  0  0  0  0  0  0
   10.6090   62.3160  -16.8240 C   0  0  2  0  0  3  0  0  0  0  0  0
   10.6180   62.4290  -15.3230 C   0  0  2  0  0  3  0  0  0  0  0  0
    9.8690   63.7120  -15.0530 C   0  0  1  0  0  3  0  0  0  0  0  0
   10.7190   64.4700  -14.1250 C   0  0  0  0  0  0  0  0  0  0  0  0
   10.4260   65.5450  -13.5420 O   0  0  0  0  0  0  0  0  0  0  0  0
   11.9870   63.7940  -13.9610 N   0  0  0  0  0  0  0  0  0  0  0  0
   11.9740   62.6260  -14.7640 C   0  0  0  0  0  0  0  0  0  0  0  0
   12.9730   61.8920  -14.9550 O   0  0  0  0  0  0  0  0  0  0  0  0
    6.6710   65.5370  -17.3350 H   0  0  0  0  0  0  0  0  0  0  0  0
   11.5340   64.0970  -17.1120 H   0  0  0  0  0  0  0  0  0  0  0  0
   11.8050   61.5940  -17.3830 C   0  0  0  0  0  2  0  0  0  0  0  0
   11.6260   60.1350  -17.3050 C   0  0  0  0  0  0  0  0  0  0  0  0
   10.5050   59.6450  -17.6110 O   0  0  0  0  0  0  0  0  0  0  0  0
   12.6330   59.2180  -16.9080 N   0  0  0  0  0  0  0  0  0  0  0  0
   13.2380   59.3200  -16.0800 H   0  0  0  0  0  0  0  0  0  0  0  0
   12.7670   58.3670  -17.5140 H   0  0  0  0  0  0  0  0  0  0  0  0
   13.0880   64.2160  -13.1300 C   0  0  0  0  0  0  0  0  0  0  0  0
   13.9530   63.0530  -12.7080 C   0  0  0  0  0  1  0  0  0  0  0  0
   13.9330   65.2300  -13.9070 C   0  0  0  0  0  1  0  0  0  0  0  0
   12.5860   64.8820  -11.8680 C   0  0  0  0  0  1  0  0  0  0  0  0
  2  3  1  0  0  0  0
  2  1  1  0  0  0  0
  4  3  2  0  0  0  0
  5  4  1  0  0  0  0
  6  5  2  0  0  0  0
  6  7  1  0  0  0  0
  7  2  2  0  0  0  0
  8  9  1  0  0  0  0
  8  5  1  0  0  0  0
 10  9  2  0  0  0  0
 11  9  1  6  0  0  0
 11  4  1  0  0  0  0
 11 15  1  0  0  0  0
 12 22  1  0  0  0  0
 12 13  1  0  0  0  0
 12 11  1  0  0  0  0
 13 23  1  6  0  0  0
 13 14  1  0  0  0  0
 14 15  1  0  0  0  0
 14 19  1  6  0  0  0
 15 16  1  1  0  0  0
 16 18  1  0  0  0  0
 16 17  2  0  0  0  0
 18 29  1  0  0  0  0
 19 18  1  0  0  0  0
 20 19  2  0  0  0  0
 21  8  1  0  0  0  0
 23 24  1  0  0  0  0
 24 26  1  0  0  0  0
 25 24  2  0  0  0  0
 26 27  1  0  0  0  0
 28 26  1  0  0  0  0
 29 30  1  0  0  0  0
 29 32  1  0  0  0  0
 31 29  1  0  0  0  0
M  END
>  <Pose>
1

>  <Score>
-2.503

$$$$
