/Users/jonathanwahrer/Desktop/Msc/3_Semester/Drug_Design_Praktikum/waehrer_HTS_screening/HTS_experiment/out/docking_results/vina_output/3sx0/0571_docked.pdbqt
 OpenBabel03192221533D

 34 38  0  0  1  0  0  0  0  0999 V2000
   21.4940   64.8330   -6.5980 Br  0  0  0  0  0  0  0  0  0  0  0  0
   21.5840   64.2270   -8.4060 C   0  0  0  0  0  0  0  0  0  0  0  0
   20.5950   63.4610   -8.9820 C   0  0  0  0  0  3  0  0  0  0  0  0
   20.6690   63.0130  -10.3090 C   0  0  0  0  0  0  0  0  0  0  0  0
   21.7800   63.3700  -11.0330 C   0  0  0  0  0  0  0  0  0  0  0  0
   22.7800   64.1430  -10.4600 C   0  0  0  0  0  3  0  0  0  0  0  0
   22.6970   64.5760   -9.1560 C   0  0  0  0  0  3  0  0  0  0  0  0
   21.7240   62.8380  -12.3430 N   0  0  0  0  0  0  0  0  0  0  0  0
   20.5220   62.1090  -12.4520 C   0  0  0  0  0  0  0  0  0  0  0  0
   20.1850   61.5090  -13.5120 O   0  0  0  0  0  0  0  0  0  0  0  0
   19.8070   62.1950  -11.1620 C   0  0  1  0  0  0  0  0  0  0  0  0
   19.6210   60.8570  -10.5900 N   0  0  0  0  0  0  0  0  0  0  0  0
   18.3660   60.9120   -9.8750 C   0  0  1  0  0  3  0  0  0  0  0  0
   17.5320   61.9660  -10.4880 C   0  0  2  0  0  3  0  0  0  0  0  0
   18.4470   62.7190  -11.4360 C   0  0  1  0  0  3  0  0  0  0  0  0
   18.1970   64.1330  -11.1810 C   0  0  0  0  0  0  0  0  0  0  0  0
   18.8340   65.1030  -11.6620 O   0  0  0  0  0  0  0  0  0  0  0  0
   17.0840   64.2850  -10.2740 N   0  0  0  0  0  0  0  0  0  0  0  0
   17.0370   63.0210   -9.5800 C   0  0  0  0  0  0  0  0  0  0  0  0
   16.6410   62.8670   -8.4150 O   0  0  0  0  0  0  0  0  0  0  0  0
   22.4530   62.9660  -13.0980 H   0  0  0  0  0  0  0  0  0  0  0  0
   20.4110   60.6000   -9.9550 H   0  0  0  0  0  0  0  0  0  0  0  0
   17.7140   59.5490   -9.8580 C   0  0  2  0  0  3  0  0  0  0  0  0
   16.2850   59.5900  -10.3410 C   0  0  0  0  0  1  0  0  0  0  0  0
   17.8330   58.9860   -8.6020 O   0  0  0  0  0  0  0  0  0  0  0  0
   16.9960   59.0090   -8.1000 H   0  0  0  0  0  0  0  0  0  0  0  0
   16.2010   65.3940  -10.1020 C   0  0  0  0  0  2  0  0  0  0  0  0
   14.7370   65.0680  -10.0400 C   0  0  0  0  0  2  0  0  0  0  0  0
   14.2340   64.2500  -11.1560 C   0  0  0  0  0  0  0  0  0  0  0  0
   14.1040   62.8760  -10.9900 C   0  0  0  0  0  3  0  0  0  0  0  0
   13.6180   62.1160  -12.0000 C   0  0  0  0  0  3  0  0  0  0  0  0
   13.2390   62.6420  -13.2010 C   0  0  0  0  0  3  0  0  0  0  0  0
   13.3710   64.0140  -13.3560 C   0  0  0  0  0  3  0  0  0  0  0  0
   13.8600   64.8010  -12.3540 C   0  0  0  0  0  3  0  0  0  0  0  0
  2  1  1  0  0  0  0
  3  2  1  0  0  0  0
  4  3  2  0  0  0  0
  5  6  2  0  0  0  0
  5  4  1  0  0  0  0
  6  7  1  0  0  0  0
  7  2  2  0  0  0  0
  8  5  1  0  0  0  0
  9  8  1  0  0  0  0
 10  9  2  0  0  0  0
 11  9  1  6  0  0  0
 11 12  1  0  0  0  0
 11  4  1  0  0  0  0
 12 22  1  0  0  0  0
 12 13  1  0  0  0  0
 13 23  1  6  0  0  0
 14 13  1  0  0  0  0
 14 19  1  1  0  0  0
 15 16  1  1  0  0  0
 15 11  1  0  0  0  0
 15 14  1  0  0  0  0
 16 18  1  0  0  0  0
 17 16  2  0  0  0  0
 18 27  1  0  0  0  0
 18 19  1  0  0  0  0
 19 20  2  0  0  0  0
 21  8  1  0  0  0  0
 23 24  1  1  0  0  0
 23 25  1  0  0  0  0
 25 26  1  0  0  0  0
 27 28  1  0  0  0  0
 29 30  1  0  0  0  0
 29 28  1  0  0  0  0
 31 30  2  0  0  0  0
 32 31  1  0  0  0  0
 33 32  2  0  0  0  0
 33 34  1  0  0  0  0
 34 29  2  0  0  0  0
M  END
>  <Pose>
1

>  <Score>
-2.162

$$$$
