/Users/jonathanwahrer/Desktop/Msc/3_Semester/Drug_Design_Praktikum/waehrer_HTS_screening/HTS_experiment/out/docking_results/vina_output/3sx0/0578_docked.pdbqt
 OpenBabel03192221533D

 27 30  0  0  1  0  0  0  0  0999 V2000
   15.8120   65.6860  -10.5300 Br  0  0  0  0  0  0  0  0  0  0  0  0
   14.7350   64.3560  -11.3770 C   0  0  0  0  0  0  0  0  0  0  0  0
   14.0560   64.5980  -12.5450 C   0  0  0  0  0  3  0  0  0  0  0  0
   13.2540   63.6430  -13.1960 C   0  0  0  0  0  0  0  0  0  0  0  0
   13.1660   62.4160  -12.6110 C   0  0  0  0  0  0  0  0  0  0  0  0
   13.8550   62.1500  -11.4130 C   0  0  0  0  0  3  0  0  0  0  0  0
   14.6310   63.1050  -10.8000 C   0  0  0  0  0  3  0  0  0  0  0  0
   12.3370   61.5510  -13.3750 N   0  0  0  0  0  0  0  0  0  0  0  0
   11.8890   62.2820  -14.4930 C   0  0  0  0  0  0  0  0  0  0  0  0
   11.1270   61.8320  -15.4250 O   0  0  0  0  0  0  0  0  0  0  0  0
   12.4500   63.6420  -14.4000 C   0  0  2  0  0  0  0  0  0  0  0  0
   13.3130   63.7410  -15.5900 N   0  0  0  0  0  0  0  0  0  0  0  0
   12.6200   64.4890  -16.5930 C   0  0  2  0  0  3  0  0  0  0  0  0
   11.7230   65.3910  -15.8280 C   0  0  1  0  0  3  0  0  0  0  0  0
   11.4240   64.7080  -14.5210 C   0  0  2  0  0  3  0  0  0  0  0  0
   11.4360   65.7870  -13.5600 C   0  0  0  0  0  0  0  0  0  0  0  0
   10.9760   65.7170  -12.3830 O   0  0  0  0  0  0  0  0  0  0  0  0
   12.0420   66.9280  -14.1500 N   0  0  0  0  0  0  0  0  0  0  0  0
   12.5030   66.6130  -15.4550 C   0  0  0  0  0  0  0  0  0  0  0  0
   13.3660   67.2550  -16.0860 O   0  0  0  0  0  0  0  0  0  0  0  0
   11.8910   63.6510  -17.6160 C   0  0  0  0  0  1  0  0  0  0  0  0
   12.0890   60.5410  -13.1620 H   0  0  0  0  0  0  0  0  0  0  0  0
   14.2330   64.1700  -15.3480 H   0  0  0  0  0  0  0  0  0  0  0  0
   12.1460   68.2090  -13.4640 C   0  0  0  0  0  2  0  0  0  0  0  0
   11.3890   69.2900  -14.1740 C   0  0  0  0  0  2  0  0  0  0  0  0
   12.0510   70.6390  -14.0780 C   0  0  0  0  0  2  0  0  0  0  0  0
   12.1510   70.9670  -12.5840 C   0  0  0  0  0  1  0  0  0  0  0  0
  2  7  1  0  0  0  0
  2  1  1  0  0  0  0
  3  2  2  0  0  0  0
  4  5  2  0  0  0  0
  4  3  1  0  0  0  0
  5  6  1  0  0  0  0
  6  7  2  0  0  0  0
  8 22  1  0  0  0  0
  8  5  1  0  0  0  0
  9  8  1  0  0  0  0
 10  9  2  0  0  0  0
 11  9  1  6  0  0  0
 11  4  1  0  0  0  0
 12 23  1  0  0  0  0
 12 11  1  0  0  0  0
 13 21  1  6  0  0  0
 13 14  1  0  0  0  0
 13 12  1  0  0  0  0
 14 19  1  1  0  0  0
 14 15  1  0  0  0  0
 15 11  1  0  0  0  0
 15 16  1  1  0  0  0
 16 17  2  0  0  0  0
 18 16  1  0  0  0  0
 18 24  1  0  0  0  0
 19 18  1  0  0  0  0
 20 19  2  0  0  0  0
 25 26  1  0  0  0  0
 25 24  1  0  0  0  0
 26 27  1  0  0  0  0
M  END
>  <Pose>
1

>  <Score>
-3.671

$$$$
