/Users/jonathanwahrer/Desktop/Msc/3_Semester/Drug_Design_Praktikum/waehrer_HTS_screening/HTS_experiment/out/docking_results/vina_output/3sx0/0588_docked.pdbqt
 OpenBabel03192221533D

 24 27  0  0  1  0  0  0  0  0999 V2000
   15.2720   63.9070  -10.7200 Br  0  0  0  0  0  0  0  0  0  0  0  0
   17.1660   63.7170  -10.8050 C   0  0  0  0  0  0  0  0  0  0  0  0
   17.8340   63.3710   -9.6660 C   0  0  0  0  0  3  0  0  0  0  0  0
   19.2110   63.2260   -9.6990 C   0  0  0  0  0  0  0  0  0  0  0  0
   19.9100   63.4320  -10.8820 C   0  0  0  0  0  0  0  0  0  0  0  0
   19.2490   63.7820  -12.0420 C   0  0  0  0  0  3  0  0  0  0  0  0
   17.8800   63.9150  -11.9620 C   0  0  0  0  0  3  0  0  0  0  0  0
   21.3100   63.3120  -11.0350 N   0  0  0  0  0  0  0  0  0  0  0  0
   21.8560   63.0820  -12.2350 N   0  0  0  0  0  0  0  0  0  0  0  0
   23.1450   63.0270  -12.0370 N   0  0  0  0  0  0  0  0  0  0  0  0
   23.4250   63.2150  -10.7580 N   0  0  0  0  0  0  0  0  0  0  0  0
   22.2430   63.4000  -10.1030 C   0  0  0  0  0  0  0  0  0  0  0  0
   22.1910   63.6430   -8.6190 C   0  0  2  0  0  0  0  0  0  0  0  0
   21.1010   62.8860   -8.0090 N   0  0  0  0  0  0  0  0  0  0  0  0
   19.7270   62.8520   -8.3760 C   0  0  0  0  0  0  0  0  0  0  0  0
   18.8900   62.4760   -7.5090 O   0  0  0  0  0  0  0  0  0  0  0  0
   21.8400   65.0960   -8.4480 C   0  0  0  0  0  2  0  0  0  0  0  0
   22.2420   65.5550   -7.0850 C   0  0  0  0  0  0  0  0  0  0  0  0
   23.6040   65.4430   -7.0030 O   0  0  0  0  0  0  0  0  0  0  0  0
   24.0960   64.1660   -7.0440 C   0  0  0  0  0  3  0  0  0  0  0  0
   23.4850   63.2440   -8.0090 C   0  0  0  0  0  3  0  0  0  0  0  0
   21.9100   67.0460   -6.9340 C   0  0  0  0  0  1  0  0  0  0  0  0
   21.5120   64.8480   -5.9740 C   0  0  0  0  0  1  0  0  0  0  0  0
   21.3480   62.2710   -7.1760 H   0  0  0  0  0  0  0  0  0  0  0  0
  2  1  1  0  0  0  0
  2  3  1  0  0  0  0
  4  3  2  0  0  0  0
  4 15  1  0  0  0  0
  5  4  1  0  0  0  0
  6  7  1  0  0  0  0
  6  5  2  0  0  0  0
  7  2  2  0  0  0  0
  8  5  1  0  0  0  0
  8 12  1  0  0  0  0
  9 10  2  0  0  0  0
  9  8  1  0  0  0  0
 10 11  1  0  0  0  0
 11 12  2  0  0  0  0
 12 13  1  0  0  0  0
 13 17  1  1  0  0  0
 13 14  1  0  0  0  0
 13 21  1  0  0  0  0
 14 24  1  0  0  0  0
 15 14  1  0  0  0  0
 15 16  2  0  0  0  0
 17 18  1  0  0  0  0
 18 19  1  0  0  0  0
 18 22  1  0  0  0  0
 18 23  1  0  0  0  0
 20 19  1  0  0  0  0
 21 20  2  0  0  0  0
M  END
>  <Pose>
1

>  <Score>
-8.174

$$$$
