/Users/jonathanwahrer/Desktop/Msc/3_Semester/Drug_Design_Praktikum/waehrer_HTS_screening/HTS_experiment/out/docking_results/vina_output/3sx0/0591_docked.pdbqt
 OpenBabel03192221533D

 23 26  0  0  0  0  0  0  0  0999 V2000
   24.3840   64.6660   -6.7690 Br  0  0  0  0  0  0  0  0  0  0  0  0
   23.1030   64.1370   -8.0980 C   0  0  0  0  0  0  0  0  0  0  0  0
   21.8210   63.7890   -7.7320 C   0  0  0  0  0  3  0  0  0  0  0  0
   20.9040   63.4100   -8.6910 C   0  0  0  0  0  0  0  0  0  0  0  0
   21.2090   63.3580  -10.0380 C   0  0  0  0  0  0  0  0  0  0  0  0
   22.5090   63.7110  -10.3900 C   0  0  0  0  0  3  0  0  0  0  0  0
   23.4300   64.0930   -9.4370 C   0  0  0  0  0  3  0  0  0  0  0  0
   20.4010   62.9960  -11.1340 N   0  0  0  0  0  0  0  0  0  0  0  0
   20.8800   62.7370  -12.3400 N   0  0  0  0  0  0  0  0  0  0  0  0
   19.8570   62.4350  -13.1230 N   0  0  0  0  0  0  0  0  0  0  0  0
   18.7540   62.5040  -12.4180 N   0  0  0  0  0  0  0  0  0  0  0  0
   19.0590   62.8590  -11.1450 C   0  0  0  0  0  0  0  0  0  0  0  0
   18.0060   63.0110  -10.1390 C   0  0  0  0  0  0  0  0  0  0  0  0
   18.3740   62.7710   -8.7870 N   0  0  0  0  0  0  0  0  0  0  0  0
   19.5940   63.0740   -8.1300 C   0  0  0  0  0  0  0  0  0  0  0  0
   19.6170   63.0690   -6.8700 O   0  0  0  0  0  0  0  0  0  0  0  0
   17.3910   64.4190  -10.1770 C   0  0  0  0  0  2  0  0  0  0  0  0
   15.9290   64.3180   -9.8210 C   0  0  0  0  0  2  0  0  0  0  0  0
   15.2320   63.8260  -10.9870 N   0  0  0  0  0  0  0  0  0  0  0  0
   15.9290   62.6770  -11.5020 C   0  0  0  0  0  2  0  0  0  0  0  0
   16.8720   62.0580  -10.5010 C   0  0  0  0  0  2  0  0  0  0  0  0
   15.1830   64.9120  -11.9650 C   0  0  0  0  0  1  0  0  0  0  0  0
   17.6460   62.3110   -8.2020 H   0  0  0  0  0  0  0  0  0  0  0  0
  2  3  1  0  0  0  0
  2  1  1  0  0  0  0
  4 15  1  0  0  0  0
  4  3  2  0  0  0  0
  5  4  1  0  0  0  0
  6  5  2  0  0  0  0
  6  7  1  0  0  0  0
  7  2  2  0  0  0  0
  8  5  1  0  0  0  0
  9  8  1  0  0  0  0
 10 11  1  0  0  0  0
 10  9  2  0  0  0  0
 11 12  2  0  0  0  0
 12  8  1  0  0  0  0
 12 13  1  0  0  0  0
 13 14  1  0  0  0  0
 14 23  1  0  0  0  0
 14 15  1  0  0  0  0
 15 16  2  0  0  0  0
 17 13  1  0  0  0  0
 17 18  1  0  0  0  0
 19 18  1  0  0  0  0
 20 19  1  0  0  0  0
 20 21  1  0  0  0  0
 21 13  1  0  0  0  0
 22 19  1  0  0  0  0
M  END
>  <Pose>
1

>  <Score>
-4.805

$$$$
