/Users/jonathanwahrer/Desktop/Msc/3_Semester/Drug_Design_Praktikum/waehrer_HTS_screening/HTS_experiment/out/docking_results/vina_output/3sx0/0596_docked.pdbqt
 OpenBabel03192221543D

 29 32  0  0  0  0  0  0  0  0999 V2000
   17.7610   62.2200  -10.5700 C   0  0  0  0  0  0  0  0  0  0  0  0
   17.4090   60.9060  -10.3060 C   0  0  0  0  0  3  0  0  0  0  0  0
   16.1230   60.4690  -10.5440 C   0  0  0  0  0  0  0  0  0  0  0  0
   15.8750   59.2510  -10.2740 O   0  0  0  0  0  0  0  0  0  0  0  0
   15.2240   61.2750  -11.0200 O   0  0  0  0  0  0  0  0  0  0  0  0
   15.4840   62.4970  -11.2860 C   0  0  0  0  0  0  0  0  0  0  0  0
   16.7710   63.0270  -11.0730 C   0  0  0  0  0  0  0  0  0  0  0  0
   17.0220   64.3330  -11.3780 C   0  0  0  0  0  3  0  0  0  0  0  0
   15.9700   65.0990  -11.8930 C   0  0  0  0  0  3  0  0  0  0  0  0
   14.7180   64.5500  -12.0860 C   0  0  0  0  0  0  0  0  0  0  0  0
   14.4310   63.2360  -11.7920 C   0  0  0  0  0  0  0  0  0  0  0  0
   13.7260   65.4100  -12.6050 O   0  0  0  0  0  1  0  0  0  0  0  0
   19.1030   62.7160  -10.2680 C   0  0  0  0  0  0  0  0  0  0  0  0
   20.0590   62.8180  -11.2560 C   0  0  0  0  0  0  0  0  0  0  0  0
   21.2470   63.2260  -10.9820 O   0  0  0  0  0  0  0  0  0  0  0  0
   19.6800   62.4880  -12.4230 O   0  0  0  0  0  0  0  0  0  0  0  0
   21.6360   63.5740   -9.7540 C   0  0  0  0  0  0  0  0  0  0  0  0
   20.7260   63.4950   -8.7200 C   0  0  0  0  0  0  0  0  0  0  0  0
   22.9390   64.0010   -9.5420 C   0  0  0  0  0  3  0  0  0  0  0  0
   21.1560   63.8600   -7.4580 C   0  0  0  0  0  3  0  0  0  0  0  0
   19.4500   63.0610   -8.9810 C   0  0  0  0  0  3  0  0  0  0  0  0
   22.4410   64.2950   -7.1850 C   0  0  0  0  0  0  0  0  0  0  0  0
   22.9660   64.7980   -5.4360 Br  0  0  0  0  0  0  0  0  0  0  0  0
   23.3270   64.3540   -8.2710 C   0  0  0  0  0  3  0  0  0  0  0  0
   13.0790   62.7650  -11.9260 C   0  0  0  0  0  2  0  0  0  0  0  0
   12.4250   62.5800  -13.1570 N   0  0  0  0  0  4  0  0  0  0  0  0
   11.6870   63.6900  -13.6910 C   0  0  0  0  0  1  0  0  0  0  0  0
   13.3020   61.9380  -14.1700 C   0  0  0  0  0  1  0  0  0  0  0  0
   11.6770   61.8450  -13.0010 H   0  0  0  0  0  0  0  0  0  0  0  0
  1  2  2  0  0  0  0
  1 13  1  0  0  0  0
  3  2  1  0  0  0  0
  3  4  2  0  0  0  0
  5  3  1  0  0  0  0
  6  7  1  0  0  0  0
  6  5  1  0  0  0  0
  7  1  1  0  0  0  0
  8  7  2  0  0  0  0
  9  8  1  0  0  0  0
 10  9  2  0  0  0  0
 10 11  1  0  0  0  0
 11  6  2  0  0  0  0
 12 10  1  0  0  0  0
 13 21  2  0  0  0  0
 14 15  1  0  0  0  0
 14 13  1  0  0  0  0
 15 17  1  0  0  0  0
 16 14  2  0  0  0  0
 17 19  2  0  0  0  0
 17 18  1  0  0  0  0
 18 20  2  0  0  0  0
 19 24  1  0  0  0  0
 20 22  1  0  0  0  0
 21 18  1  0  0  0  0
 22 23  1  0  0  0  0
 24 22  2  0  0  0  0
 25 11  1  0  0  0  0
 26 29  1  0  0  0  0
 26 25  1  0  0  0  0
 27 26  1  0  0  0  0
 28 26  1  0  0  0  0
M  END
>  <Pose>
1

>  <Score>
-7.177

$$$$
