/Users/jonathanwahrer/Desktop/Msc/3_Semester/Drug_Design_Praktikum/waehrer_HTS_screening/HTS_experiment/out/docking_results/vina_output/3sx0/0610_docked.pdbqt
 OpenBabel03192221543D

 32 35  0  0  0  0  0  0  0  0999 V2000
   22.3040   62.3870  -13.7740 Br  0  0  0  0  0  0  0  0  0  0  0  0
   22.1730   63.0850  -12.0030 C   0  0  0  0  0  0  0  0  0  0  0  0
   21.0580   62.8160  -11.2140 C   0  0  0  0  0  3  0  0  0  0  0  0
   20.9620   63.3220   -9.9250 C   0  0  0  0  0  0  0  0  0  0  0  0
   21.9770   64.1010   -9.4130 C   0  0  0  0  0  0  0  0  0  0  0  0
   21.8870   64.5940   -8.1520 N   0  0  0  0  0  0  0  0  0  0  0  0
   20.8220   64.3440   -7.3690 C   0  0  0  0  0  0  0  0  0  0  0  0
   19.8460   63.5860   -7.8820 N   0  0  0  0  0  0  0  0  0  0  0  0
   19.8690   63.0660   -9.1230 C   0  0  0  0  0  0  0  0  0  0  0  0
   23.0790   64.3570  -10.2200 C   0  0  0  0  0  3  0  0  0  0  0  0
   23.1950   63.8640  -11.5020 C   0  0  0  0  0  3  0  0  0  0  0  0
   20.7640   64.8800   -6.0410 N   0  0  0  0  0  4  0  0  0  0  0  0
   21.5280   66.0950   -5.9650 C   0  0  0  0  0  2  0  0  0  0  0  0
   23.0050   65.8940   -5.9410 C   0  0  0  0  0  2  0  0  0  0  0  0
   23.3740   64.5190   -5.6860 N   0  0  0  0  0  0  0  0  0  0  0  0
   22.5560   63.7910   -4.7400 C   0  0  0  0  0  2  0  0  0  0  0  0
   24.4930   63.9770   -6.3630 C   0  0  0  0  0  0  0  0  0  0  0  0
   21.0930   63.9230   -5.0300 C   0  0  0  0  0  2  0  0  0  0  0  0
   25.1530   64.6690   -7.1690 O   0  0  0  0  0  0  0  0  0  0  0  0
   19.7480   65.1730   -5.9210 H   0  0  0  0  0  0  0  0  0  0  0  0
   24.8300   62.5560   -6.0610 C   0  0  0  0  0  2  0  0  0  0  0  0
   26.0490   62.4520   -5.1940 C   0  0  0  0  0  2  0  0  0  0  0  0
   25.7380   62.4040   -3.7570 C   0  0  0  0  0  0  0  0  0  0  0  0
   24.9260   61.5780   -3.2920 O   0  0  0  0  0  0  0  0  0  0  0  0
   26.3590   63.2900   -2.9010 O   0  0  0  0  0  1  0  0  0  0  0  0
   18.7560   62.2530   -9.5850 C   0  0  0  0  0  0  0  0  0  0  0  0
   17.6290   62.8510  -10.1330 C   0  0  0  0  0  0  0  0  0  0  0  0
   16.5600   62.1130  -10.5950 C   0  0  0  0  0  3  0  0  0  0  0  0
   17.5910   64.6130  -10.2280 Cl  0  0  0  0  0  0  0  0  0  0  0  0
   16.5670   60.7350  -10.5300 C   0  0  0  0  0  3  0  0  0  0  0  0
   17.6960   60.1380   -9.9820 C   0  0  0  0  0  3  0  0  0  0  0  0
   18.7590   60.8830   -9.5230 C   0  0  0  0  0  3  0  0  0  0  0  0
  1  2  1  0  0  0  0
  2 11  2  0  0  0  0
  2  3  1  0  0  0  0
  3  4  2  0  0  0  0
  4  5  1  0  0  0  0
  4  9  1  0  0  0  0
  5  6  1  0  0  0  0
  6  7  2  0  0  0  0
  7 12  1  0  0  0  0
  8  7  1  0  0  0  0
  9  8  2  0  0  0  0
 10  5  2  0  0  0  0
 11 10  1  0  0  0  0
 12 13  1  0  0  0  0
 12 20  1  0  0  0  0
 12 18  1  0  0  0  0
 13 14  1  0  0  0  0
 14 15  1  0  0  0  0
 15 16  1  0  0  0  0
 17 21  1  0  0  0  0
 17 15  1  0  0  0  0
 18 16  1  0  0  0  0
 19 17  2  0  0  0  0
 21 22  1  0  0  0  0
 22 23  1  0  0  0  0
 23 24  2  0  0  0  0
 23 25  1  0  0  0  0
 26 32  1  0  0  0  0
 26  9  1  0  0  0  0
 27 26  2  0  0  0  0
 28 30  2  0  0  0  0
 28 27  1  0  0  0  0
 29 27  1  0  0  0  0
 30 31  1  0  0  0  0
 31 32  2  0  0  0  0
M  END
>  <Pose>
1

>  <Score>
-4.558

$$$$
