/Users/jonathanwahrer/Desktop/Msc/3_Semester/Drug_Design_Praktikum/waehrer_HTS_screening/HTS_experiment/out/docking_results/vina_output/3sx0/0611_docked.pdbqt
 OpenBabel03192221543D

 33 36  0  0  0  0  0  0  0  0999 V2000
   14.2980   61.1260  -10.7610 Br  0  0  0  0  0  0  0  0  0  0  0  0
   14.1130   62.7000  -11.8290 C   0  0  0  0  0  0  0  0  0  0  0  0
   13.1940   62.7840  -12.8600 C   0  0  0  0  0  3  0  0  0  0  0  0
   13.0360   63.9040  -13.6470 C   0  0  0  0  0  0  0  0  0  0  0  0
   13.8240   65.0170  -13.4190 C   0  0  0  0  0  0  0  0  0  0  0  0
   13.6900   66.1270  -14.1880 N   0  0  0  0  0  0  0  0  0  0  0  0
   12.8020   66.2040  -15.1930 C   0  0  0  0  0  0  0  0  0  0  0  0
   12.0340   65.1220  -15.4150 N   0  0  0  0  0  0  0  0  0  0  0  0
   12.1280   63.9910  -14.6780 C   0  0  0  0  0  0  0  0  0  0  0  0
   14.7410   64.9440  -12.3950 C   0  0  0  0  0  3  0  0  0  0  0  0
   14.8960   63.8110  -11.6040 C   0  0  0  0  0  3  0  0  0  0  0  0
   12.6900   67.3860  -15.9780 N   0  0  0  0  0  4  0  0  0  0  0  0
   11.5210   67.3340  -16.8280 C   0  0  0  0  0  2  0  0  0  0  0  0
   11.1960   68.7250  -17.2740 C   0  0  0  0  0  2  0  0  0  0  0  0
   12.3410   69.5740  -17.0160 N   0  0  0  0  0  0  0  0  0  0  0  0
   13.6480   69.0530  -17.3750 C   0  0  0  0  0  2  0  0  0  0  0  0
   12.1370   70.8390  -16.4410 C   0  0  0  0  0  0  0  0  0  0  0  0
   13.8320   67.6360  -16.8190 C   0  0  0  0  0  2  0  0  0  0  0  0
   13.1460   71.5540  -16.2230 O   0  0  0  0  0  0  0  0  0  0  0  0
   12.6010   68.1860  -15.3170 H   0  0  0  0  0  0  0  0  0  0  0  0
   10.8060   71.3390  -16.0920 C   0  0  0  0  0  2  0  0  0  0  0  0
   10.6620   71.4100  -14.5990 C   0  0  0  0  0  2  0  0  0  0  0  0
   11.4160   70.3090  -13.8880 C   0  0  0  0  0  2  0  0  0  0  0  0
   12.1700   70.7880  -12.7130 C   0  0  0  0  0  0  0  0  0  0  0  0
   11.7990   70.3850  -11.5850 O   0  0  0  0  0  1  0  0  0  0  0  0
   13.2440   71.6490  -12.8790 O   0  0  0  0  0  0  0  0  0  0  0  0
   11.2740   62.8490  -14.9630 C   0  0  0  0  0  0  0  0  0  0  0  0
   11.5920   61.9240  -15.9460 C   0  0  0  0  0  0  0  0  0  0  0  0
   10.7790   60.8450  -16.2410 C   0  0  0  0  0  3  0  0  0  0  0  0
   13.0800   62.1220  -16.8580 Cl  0  0  0  0  0  0  0  0  0  0  0  0
    9.5980   60.7060  -15.5020 C   0  0  0  0  0  3  0  0  0  0  0  0
    9.2520   61.6080  -14.5170 C   0  0  0  0  0  3  0  0  0  0  0  0
   10.0810   62.6530  -14.2630 C   0  0  0  0  0  3  0  0  0  0  0  0
  2 11  1  0  0  0  0
  2  1  1  0  0  0  0
  3  2  2  0  0  0  0
  4  5  2  0  0  0  0
  4  3  1  0  0  0  0
  5 10  1  0  0  0  0
  6  5  1  0  0  0  0
  7  6  2  0  0  0  0
  8  7  1  0  0  0  0
  8  9  2  0  0  0  0
  9  4  1  0  0  0  0
 10 11  2  0  0  0  0
 12 20  1  0  0  0  0
 12  7  1  0  0  0  0
 13 12  1  0  0  0  0
 14 15  1  0  0  0  0
 14 13  1  0  0  0  0
 15 17  1  0  0  0  0
 16 15  1  0  0  0  0
 16 18  1  0  0  0  0
 17 19  2  0  0  0  0
 17 21  1  0  0  0  0
 18 12  1  0  0  0  0
 21 22  1  0  0  0  0
 22 23  1  0  0  0  0
 23 24  1  0  0  0  0
 24 25  1  0  0  0  0
 26 24  2  0  0  0  0
 27  9  1  0  0  0  0
 27 33  1  0  0  0  0
 28 27  2  0  0  0  0
 29 28  1  0  0  0  0
 29 31  2  0  0  0  0
 30 28  1  0  0  0  0
 31 32  1  0  0  0  0
 32 33  2  0  0  0  0
M  END
>  <Pose>
1

>  <Score>
-5.592

$$$$
