/Users/jonathanwahrer/Desktop/Msc/3_Semester/Drug_Design_Praktikum/waehrer_HTS_screening/HTS_experiment/out/docking_results/vina_output/3sx0/0616_docked.pdbqt
 OpenBabel03192221553D

 28 31  0  0  0  0  0  0  0  0999 V2000
   21.1490   63.1690  -10.3640 C   0  0  0  0  0  0  0  0  0  0  0  0
   21.9550   62.7130  -11.2620 O   0  0  0  0  0  0  0  0  0  0  0  0
   21.7390   63.9220   -9.3480 N   0  0  0  0  0  0  0  0  0  0  0  0
   21.0650   64.5240   -8.2290 C   0  0  0  0  0  2  0  0  0  0  0  0
   22.0400   65.2290   -7.2770 C   0  0  0  0  0  2  0  0  0  0  0  0
   23.1480   64.3280   -6.9990 N   0  0  0  0  0  0  0  0  0  0  0  0
   23.7540   63.5630   -8.0890 C   0  0  0  0  0  2  0  0  0  0  0  0
   23.2060   64.1670   -9.3840 C   0  0  0  0  0  2  0  0  0  0  0  0
   23.6520   64.1720   -5.6890 C   0  0  0  0  0  0  0  0  0  0  0  0
   23.1020   64.8390   -4.7800 O   0  0  0  0  0  0  0  0  0  0  0  0
   19.7370   62.8650  -10.4870 C   0  0  0  0  0  0  0  0  0  0  0  0
   19.0460   61.7350  -10.3140 N   0  0  0  0  0  0  0  0  0  0  0  0
   17.7130   61.9290  -10.5570 C   0  0  0  0  0  0  0  0  0  0  0  0
   19.4030   60.8110  -10.0320 H   0  0  0  0  0  0  0  0  0  0  0  0
   17.5240   63.2380  -10.9030 C   0  0  0  0  0  0  0  0  0  0  0  0
   16.6220   61.0820  -10.5120 C   0  0  0  0  0  3  0  0  0  0  0  0
   16.2390   63.6980  -11.2050 C   0  0  0  0  0  3  0  0  0  0  0  0
   18.7590   63.8200  -10.8630 C   0  0  0  0  0  3  0  0  0  0  0  0
   15.1510   62.8650  -11.1630 C   0  0  0  0  0  0  0  0  0  0  0  0
   13.3830   63.4840  -11.5760 Br  0  0  0  0  0  0  0  0  0  0  0  0
   15.3490   61.5470  -10.8140 C   0  0  0  0  0  3  0  0  0  0  0  0
   24.7610   63.2610   -5.4550 C   0  0  0  0  0  2  0  0  0  0  0  0
   24.5130   62.2360   -4.4650 N   0  0  0  0  0  0  0  0  0  0  0  0
   23.5710   62.7540   -3.4700 C   0  0  0  0  0  2  0  0  0  0  0  0
   24.2870   63.2710   -2.2710 C   0  0  0  0  0  2  0  0  0  0  0  0
   25.4930   63.8650   -2.6340 O   0  0  0  0  0  0  0  0  0  0  0  0
   26.4140   62.9110   -3.0740 C   0  0  0  0  0  2  0  0  0  0  0  0
   25.7250   61.7820   -3.8050 C   0  0  0  0  0  2  0  0  0  0  0  0
  1  3  1  0  0  0  0
  2  1  2  0  0  0  0
  3  4  1  0  0  0  0
  4  5  1  0  0  0  0
  5  6  1  0  0  0  0
  6  9  1  0  0  0  0
  7  6  1  0  0  0  0
  8  3  1  0  0  0  0
  8  7  1  0  0  0  0
  9 22  1  0  0  0  0
  9 10  2  0  0  0  0
 11  1  1  0  0  0  0
 11 12  1  0  0  0  0
 12 14  1  0  0  0  0
 13 16  1  0  0  0  0
 13 12  1  0  0  0  0
 15 18  1  0  0  0  0
 15 13  2  0  0  0  0
 17 19  2  0  0  0  0
 17 15  1  0  0  0  0
 18 11  2  0  0  0  0
 19 21  1  0  0  0  0
 20 19  1  0  0  0  0
 21 16  2  0  0  0  0
 22 23  1  0  0  0  0
 23 28  1  0  0  0  0
 23 24  1  0  0  0  0
 24 25  1  0  0  0  0
 26 25  1  0  0  0  0
 27 26  1  0  0  0  0
 28 27  1  0  0  0  0
M  END
>  <Pose>
1

>  <Score>
-9.624

$$$$
