/Users/jonathanwahrer/Desktop/Msc/3_Semester/Drug_Design_Praktikum/waehrer_HTS_screening/HTS_experiment/out/docking_results/vina_output/3sx0/0617_docked.pdbqt
 OpenBabel03192221553D

 25 28  0  0  0  0  0  0  0  0999 V2000
   15.5440   64.1650  -10.5050 Br  0  0  0  0  0  0  0  0  0  0  0  0
   17.3920   63.7540  -10.6910 C   0  0  0  0  0  0  0  0  0  0  0  0
   18.2950   64.0410   -9.6880 C   0  0  0  0  0  3  0  0  0  0  0  0
   19.6390   63.7490   -9.8080 C   0  0  0  0  0  0  0  0  0  0  0  0
   20.0740   63.1530  -10.9760 C   0  0  0  0  0  0  0  0  0  0  0  0
   21.4000   62.9870  -10.8220 N   0  0  0  0  0  0  0  0  0  0  0  0
   21.8130   63.4490   -9.6160 C   0  0  0  0  0  0  0  0  0  0  0  0
   20.7060   63.9380   -8.9560 C   0  0  0  0  0  0  0  0  0  0  0  0
   20.8720   64.4570   -7.7230 N   0  0  0  0  0  0  0  0  0  0  0  0
   22.0770   64.5090   -7.1260 C   0  0  0  0  0  3  0  0  0  0  0  0
   23.1700   64.0410   -7.7430 N   0  0  0  0  0  0  0  0  0  0  0  0
   23.0270   63.5210   -8.9710 C   0  0  0  0  0  0  0  0  0  0  0  0
   24.0410   63.0770   -9.5660 O   0  0  0  0  0  0  0  0  0  0  0  0
   19.1580   62.8720  -11.9720 C   0  0  0  0  0  3  0  0  0  0  0  0
   17.8130   63.1600  -11.8620 C   0  0  0  0  0  3  0  0  0  0  0  0
   22.0440   62.5650  -11.5170 H   0  0  0  0  0  0  0  0  0  0  0  0
   24.4930   64.0970   -7.0960 C   0  0  0  0  0  2  0  0  0  0  0  0
   24.6300   63.0060   -6.1060 C   0  0  0  0  0  2  0  0  0  0  0  0
   24.9630   63.3830   -4.7800 N   0  0  0  0  0  0  0  0  0  0  0  0
   26.0450   62.6700   -4.1950 C   0  0  0  0  0  2  0  0  0  0  0  0
   25.6100   61.5210   -3.3310 C   0  0  0  0  0  2  0  0  0  0  0  0
   24.4030   61.8120   -2.5870 N   0  0  0  0  0  0  0  0  0  0  0  0
   24.1450   63.2410   -2.5400 C   0  0  0  0  0  2  0  0  0  0  0  0
   23.5740   61.2950   -2.9570 H   0  0  0  0  0  0  0  0  0  0  0  0
   23.8430   63.6660   -3.9560 C   0  0  0  0  0  2  0  0  0  0  0  0
  2  1  1  0  0  0  0
  2  3  1  0  0  0  0
  4  3  2  0  0  0  0
  4  8  1  0  0  0  0
  5  6  1  0  0  0  0
  5  4  1  0  0  0  0
  6  7  1  0  0  0  0
  7 12  1  0  0  0  0
  7  8  2  0  0  0  0
  8  9  1  0  0  0  0
  9 10  2  0  0  0  0
 11 10  1  0  0  0  0
 11 17  1  0  0  0  0
 12 11  1  0  0  0  0
 13 12  2  0  0  0  0
 14 15  1  0  0  0  0
 14  5  2  0  0  0  0
 15  2  2  0  0  0  0
 16  6  1  0  0  0  0
 17 18  1  0  0  0  0
 18 19  1  0  0  0  0
 19 20  1  0  0  0  0
 19 25  1  0  0  0  0
 20 21  1  0  0  0  0
 21 22  1  0  0  0  0
 22 23  1  0  0  0  0
 24 22  1  0  0  0  0
 25 23  1  0  0  0  0
M  END
>  <Pose>
1

>  <Score>
-8.030

$$$$
