/Users/jonathanwahrer/Desktop/Msc/3_Semester/Drug_Design_Praktikum/waehrer_HTS_screening/HTS_experiment/out/docking_results/vina_output/3sx0/0624_docked.pdbqt
 OpenBabel03192221553D

 22 25  0  0  0  0  0  0  0  0999 V2000
   22.9120   64.7860   -6.2800 Br  0  0  0  0  0  0  0  0  0  0  0  0
   22.1110   64.1600   -7.8910 C   0  0  0  0  0  0  0  0  0  0  0  0
   22.8510   64.1790   -9.0540 C   0  0  0  0  0  3  0  0  0  0  0  0
   22.2910   63.7260  -10.2550 C   0  0  0  0  0  0  0  0  0  0  0  0
   21.0120   63.2720  -10.2350 C   0  0  0  0  0  0  0  0  0  0  0  0
   20.2340   63.2330   -9.0980 C   0  0  0  0  0  0  0  0  0  0  0  0
   20.8040   63.6820   -7.9350 C   0  0  0  0  0  3  0  0  0  0  0  0
   18.9580   62.7510   -9.2210 C   0  0  0  0  0  0  0  0  0  0  0  0
   18.2460   62.7090   -8.2040 O   0  0  0  0  0  0  0  0  0  0  0  0
   18.4370   62.3090  -10.4280 C   0  0  0  0  0  0  0  0  0  0  0  0
   19.2670   62.3750  -11.5260 C   0  0  0  0  0  3  0  0  0  0  0  0
   20.5460   62.8570  -11.4140 N   0  0  0  0  0  0  0  0  0  0  0  0
   21.6060   63.0330  -12.3810 C   0  0  0  0  0  3  0  0  0  0  0  0
   22.7810   63.6110  -11.6390 C   0  0  0  0  0  3  0  0  0  0  0  0
   17.0750   61.7970  -10.5410 C   0  0  0  0  0  0  0  0  0  0  0  0
   16.8870   60.5590  -10.5480 O   0  0  0  0  0  0  0  0  0  0  0  0
   15.9600   62.6930  -10.6450 N   0  0  0  0  0  0  0  0  0  0  0  0
   14.6000   62.2110  -10.7590 C   0  0  0  0  0  2  0  0  0  0  0  0
   16.1530   64.1300  -10.6400 C   0  0  0  0  0  2  0  0  0  0  0  0
   14.0170   62.8800  -12.0100 C   0  0  0  0  0  2  0  0  0  0  0  0
   14.1880   64.2410  -11.9200 O   0  0  0  0  0  0  0  0  0  0  0  0
   15.5050   64.6470  -11.9270 C   0  0  0  0  0  2  0  0  0  0  0  0
  2  1  1  0  0  0  0
  3  2  2  0  0  0  0
  4  5  2  0  0  0  0
  4  3  1  0  0  0  0
  5  6  1  0  0  0  0
  6  7  2  0  0  0  0
  7  2  1  0  0  0  0
  8  6  1  0  0  0  0
  8  9  2  0  0  0  0
 10  8  1  0  0  0  0
 11 12  1  0  0  0  0
 11 10  2  0  0  0  0
 12  5  1  0  0  0  0
 13 14  2  0  0  0  0
 13 12  1  0  0  0  0
 14  4  1  0  0  0  0
 15 10  1  0  0  0  0
 16 15  2  0  0  0  0
 17 19  1  0  0  0  0
 17 15  1  0  0  0  0
 18 17  1  0  0  0  0
 20 21  1  0  0  0  0
 20 18  1  0  0  0  0
 22 21  1  0  0  0  0
 22 19  1  0  0  0  0
M  END
>  <Pose>
1

>  <Score>
-8.365

$$$$
