/Users/jonathanwahrer/Desktop/Msc/3_Semester/Drug_Design_Praktikum/waehrer_HTS_screening/HTS_experiment/out/docking_results/vina_output/3sx0/0625_docked.pdbqt
 OpenBabel03192221553D

 31 34  0  0  0  0  0  0  0  0999 V2000
   15.5120   64.3470  -10.4210 Br  0  0  0  0  0  0  0  0  0  0  0  0
   14.3320   63.8630  -11.8090 C   0  0  0  0  0  0  0  0  0  0  0  0
   13.7900   64.8140  -12.6580 C   0  0  0  0  0  3  0  0  0  0  0  0
   12.9210   64.4920  -13.6590 C   0  0  0  0  0  0  0  0  0  0  0  0
   12.3410   65.2760  -14.6160 N   0  0  0  0  0  0  0  0  0  0  0  0
   11.6270   64.4650  -15.4160 C   0  0  0  0  0  0  0  0  0  0  0  0
   11.7310   63.1310  -14.9370 C   0  0  0  0  0  0  0  0  0  0  0  0
   12.5580   63.2040  -13.8450 C   0  0  0  0  0  0  0  0  0  0  0  0
   13.0920   62.2250  -13.0040 C   0  0  0  0  0  3  0  0  0  0  0  0
   13.9790   62.5380  -11.9830 C   0  0  0  0  0  0  0  0  0  0  0  0
   12.3040   66.7450  -14.4790 C   0  0  0  0  0  2  0  0  0  0  0  0
   13.2260   67.2780  -15.6000 C   0  0  0  0  0  0  0  0  0  0  0  0
   12.8770   68.4920  -16.1160 C   0  0  0  0  0  3  0  0  0  0  0  0
   13.6750   69.0470  -17.1300 C   0  0  0  0  0  3  0  0  0  0  0  0
   14.7870   68.4260  -17.6160 C   0  0  0  0  0  3  0  0  0  0  0  0
   15.1040   67.1900  -17.0540 C   0  0  0  0  0  3  0  0  0  0  0  0
   14.3150   66.6230  -16.0460 C   0  0  0  0  0  3  0  0  0  0  0  0
   10.8930   64.7750  -16.6420 C   0  0  0  0  0  2  0  0  0  0  0  0
    9.7430   65.6210  -16.5660 N   0  0  0  0  0  4  0  0  0  0  0  0
    9.5880   66.9320  -16.8720 C   0  0  0  0  0  2  0  0  0  0  0  0
    8.5450   67.5240  -15.8930 C   0  0  0  0  0  2  0  0  0  0  0  0
    7.7550   66.2620  -15.5530 C   0  0  0  0  0  2  0  0  0  0  0  0
    8.9240   65.3010  -15.3840 C   0  0  0  0  0  2  0  0  0  0  0  0
    9.0620   65.0490  -17.3430 H   0  0  0  0  0  0  0  0  0  0  0  0
   10.9750   61.9500  -15.3750 C   0  0  0  0  0  0  0  0  0  0  0  0
   11.3430   61.3940  -16.4450 O   0  0  0  0  0  0  0  0  0  0  0  0
    9.9240   61.3980  -14.7230 O   0  0  0  0  0  0  0  0  0  0  0  0
    8.8800   61.9580  -14.0100 C   0  0  0  0  0  2  0  0  0  0  0  0
    7.7810   60.9790  -13.6190 C   0  0  0  0  0  1  0  0  0  0  0  0
   14.5410   61.5750  -11.1260 O   0  0  0  0  0  0  0  0  0  0  0  0
   15.5360   61.6540  -10.8700 H   0  0  0  0  0  0  0  0  0  0  0  0
  2  1  1  0  0  0  0
  3  2  2  0  0  0  0
  4  3  1  0  0  0  0
  5 11  1  0  0  0  0
  5  4  1  0  0  0  0
  6  7  2  0  0  0  0
  6  5  1  0  0  0  0
  7  8  1  0  0  0  0
  8  4  2  0  0  0  0
  8  9  1  0  0  0  0
  9 10  2  0  0  0  0
 10  2  1  0  0  0  0
 10 30  1  0  0  0  0
 12 11  1  0  0  0  0
 13 12  2  0  0  0  0
 14 13  1  0  0  0  0
 15 14  2  0  0  0  0
 15 16  1  0  0  0  0
 16 17  2  0  0  0  0
 17 12  1  0  0  0  0
 18 19  1  0  0  0  0
 18  6  1  0  0  0  0
 19 23  1  0  0  0  0
 20 19  1  0  0  0  0
 20 21  1  0  0  0  0
 21 22  1  0  0  0  0
 22 23  1  0  0  0  0
 24 19  1  0  0  0  0
 25  7  1  0  0  0  0
 25 27  1  0  0  0  0
 26 25  2  0  0  0  0
 27 28  1  0  0  0  0
 28 29  1  0  0  0  0
 30 31  1  0  0  0  0
M  END
>  <Pose>
1

>  <Score>
-5.355

$$$$
