/Users/jonathanwahrer/Desktop/Msc/3_Semester/Drug_Design_Praktikum/waehrer_HTS_screening/HTS_experiment/out/docking_results/vina_output/3sx0/0626_docked.pdbqt
 OpenBabel03192221553D

 32 35  0  0  0  0  0  0  0  0999 V2000
   19.0600   63.5960  -10.6190 N   0  0  0  0  0  0  0  0  0  0  0  0
   20.1620   63.2040  -11.3910 C   0  0  0  0  0  0  0  0  0  0  0  0
   19.9880   62.6350  -12.4990 O   0  0  0  0  0  0  0  0  0  0  0  0
   19.3080   64.0870   -9.7070 H   0  0  0  0  0  0  0  0  0  0  0  0
   21.5580   63.4170  -10.9930 C   0  0  0  0  0  2  0  0  0  0  0  0
   21.8170   63.8340   -9.6730 N   0  0  0  0  0  0  0  0  0  0  0  0
   21.1210   63.1940   -8.6170 C   0  0  0  0  0  2  0  0  0  0  0  0
   21.1330   64.0240   -7.3320 C   0  0  0  0  0  2  0  0  0  0  0  0
   22.4650   64.3260   -7.0240 N   0  0  0  0  0  0  0  0  0  0  0  0
   23.4720   63.9800   -7.9480 C   0  0  0  0  0  2  0  0  0  0  0  0
   23.1620   64.2100   -9.3960 C   0  0  0  0  0  2  0  0  0  0  0  0
   22.6790   65.3400   -6.0940 C   0  0  0  0  0  2  0  0  0  0  0  0
   22.5110   66.7300   -6.5190 C   0  0  0  0  0  0  0  0  0  0  0  0
   21.4070   66.9830   -7.1410 O   0  0  0  0  0  0  0  0  0  0  0  0
   23.3830   67.7970   -6.3340 N   0  0  0  0  0  0  0  0  0  0  0  0
   24.2840   67.6590   -5.8320 H   0  0  0  0  0  0  0  0  0  0  0  0
   23.1060   69.1500   -6.8050 C   0  0  0  0  0  3  0  0  0  0  0  0
   22.9870   70.2710   -5.8590 C   0  0  0  0  0  2  0  0  0  0  0  0
   24.2270   70.1640   -6.7270 C   0  0  0  0  0  2  0  0  0  0  0  0
   17.6920   63.4290  -10.9250 C   0  0  0  0  0  0  0  0  0  0  0  0
   17.0600   62.2500  -10.5600 C   0  0  0  0  0  0  0  0  0  0  0  0
   18.1170   60.9130   -9.6820 Br  0  0  0  0  0  0  0  0  0  0  0  0
   15.7290   61.9940  -10.8000 C   0  0  0  0  0  3  0  0  0  0  0  0
   14.9430   62.9240  -11.4350 C   0  0  0  0  0  0  0  0  0  0  0  0
   13.6540   63.0030  -11.8150 N   0  0  0  0  0  0  0  0  0  0  0  0
   15.5470   64.0930  -11.8040 C   0  0  0  0  0  0  0  0  0  0  0  0
   13.4130   64.1830  -12.4160 C   0  0  0  0  0  0  0  0  0  0  0  0
   14.5890   64.8350  -12.3970 N   0  0  0  0  0  0  0  0  0  0  0  0
   14.7540   65.8020  -12.7920 H   0  0  0  0  0  0  0  0  0  0  0  0
   16.9020   64.3590  -11.5610 C   0  0  0  0  0  3  0  0  0  0  0  0
   12.1840   64.6250  -12.9440 O   0  0  0  0  0  0  0  0  0  0  0  0
   11.7250   65.3750  -12.4110 H   0  0  0  0  0  0  0  0  0  0  0  0
  1  4  1  0  0  0  0
  2  5  1  0  0  0  0
  2  1  1  0  0  0  0
  3  2  2  0  0  0  0
  5  6  1  0  0  0  0
  6 11  1  0  0  0  0
  6  7  1  0  0  0  0
  7  8  1  0  0  0  0
  8  9  1  0  0  0  0
  9 12  1  0  0  0  0
 10  9  1  0  0  0  0
 11 10  1  0  0  0  0
 13 15  1  0  0  0  0
 13 12  1  0  0  0  0
 14 13  2  0  0  0  0
 15 16  1  0  0  0  0
 17 19  1  0  0  0  0
 17 15  1  0  0  0  0
 17 18  1  0  0  0  0
 19 18  1  0  0  0  0
 20  1  1  0  0  0  0
 20 21  1  0  0  0  0
 21 22  1  0  0  0  0
 23 21  2  0  0  0  0
 24 23  1  0  0  0  0
 25 24  1  0  0  0  0
 26 30  1  0  0  0  0
 26 24  2  0  0  0  0
 27 28  1  0  0  0  0
 27 25  2  0  0  0  0
 28 26  1  0  0  0  0
 29 28  1  0  0  0  0
 30 20  2  0  0  0  0
 31 27  1  0  0  0  0
 31 32  1  0  0  0  0
M  END
>  <Pose>
1

>  <Score>
-8.415

$$$$
