/Users/jonathanwahrer/Desktop/Msc/3_Semester/Drug_Design_Praktikum/waehrer_HTS_screening/HTS_experiment/out/docking_results/vina_output/3sx0/0648_docked.pdbqt
 OpenBabel03192221563D

 32 35  0  0  0  0  0  0  0  0999 V2000
   13.7220   64.5390  -13.6710 C   0  0  0  0  0  0  0  0  0  0  0  0
   14.5970   65.2600  -14.2740 O   0  0  0  0  0  0  0  0  0  0  0  0
   13.7610   64.5050  -12.3020 N   0  0  0  0  0  0  0  0  0  0  0  0
   12.8870   63.7530  -11.4580 C   0  0  0  0  0  2  0  0  0  0  0  0
   13.6520   62.6150  -10.8660 C   0  0  0  0  0  2  0  0  0  0  0  0
   15.0720   62.9210  -10.7640 N   0  0  0  0  0  0  0  0  0  0  0  0
   15.5880   64.2490  -10.7440 C   0  0  0  0  0  2  0  0  0  0  0  0
   14.7720   65.2640  -11.5370 C   0  0  0  0  0  2  0  0  0  0  0  0
   15.9100   61.7550  -10.7490 C   0  0  0  0  0  0  0  0  0  0  0  0
   15.3180   60.6080  -10.9160 O   0  0  0  0  0  0  0  0  0  0  0  0
   17.3200   61.7680  -10.5690 C   0  0  0  0  0  0  0  0  0  0  0  0
   18.0200   60.7160   -9.9910 N   0  0  0  0  0  0  0  0  0  0  0  0
   19.2720   61.0220   -9.8980 N   0  0  0  0  0  0  0  0  0  0  0  0
   17.4460   59.4630   -9.5590 C   0  0  0  0  0  1  0  0  0  0  0  0
   19.5100   62.2400  -10.3780 C   0  0  0  0  0  0  0  0  0  0  0  0
   18.2540   62.7140  -10.8060 C   0  0  0  0  0  3  0  0  0  0  0  0
   20.7640   62.9630  -10.4880 C   0  0  0  0  0  0  0  0  0  0  0  0
   21.3790   62.8670  -11.6090 O   0  0  0  0  0  0  0  0  0  0  0  0
   21.3390   63.7360   -9.4910 N   0  0  0  0  0  0  0  0  0  0  0  0
   22.6030   64.4170   -9.7890 C   0  0  0  0  0  2  0  0  0  0  0  0
   20.8010   63.9060   -8.1770 C   0  0  0  0  0  2  0  0  0  0  0  0
   23.5570   64.0150   -8.6850 C   0  0  0  0  0  2  0  0  0  0  0  0
   23.0370   64.5960   -7.5140 O   0  0  0  0  0  0  0  0  0  0  0  0
   21.9050   63.9330   -7.1280 C   0  0  0  0  0  2  0  0  0  0  0  0
   12.7940   63.8440  -14.5260 C   0  0  0  0  0  0  0  0  0  0  0  0
   11.4750   64.2020  -14.8240 C   0  0  0  0  0  0  0  0  0  0  0  0
   10.5950   65.7620  -14.1250 Br  0  0  0  0  0  0  0  0  0  0  0  0
   10.9480   63.2690  -15.6760 C   0  0  0  0  0  3  0  0  0  0  0  0
   11.9020   62.3600  -15.9030 N   0  0  0  0  0  0  0  0  0  0  0  0
   12.9750   62.6920  -15.2360 N   0  0  0  0  0  0  0  0  0  0  0  0
   11.6760   61.2100  -16.7700 C   0  0  0  0  0  2  0  0  0  0  0  0
   12.9550   60.5530  -17.2170 C   0  0  0  0  0  1  0  0  0  0  0  0
  1  3  1  0  0  0  0
  2  1  2  0  0  0  0
  3  8  1  0  0  0  0
  3  4  1  0  0  0  0
  4  5  1  0  0  0  0
  5  6  1  0  0  0  0
  6  9  1  0  0  0  0
  6  7  1  0  0  0  0
  8  7  1  0  0  0  0
  9 11  1  0  0  0  0
 10  9  2  0  0  0  0
 11 12  1  0  0  0  0
 12 13  1  0  0  0  0
 12 14  1  0  0  0  0
 15 13  2  0  0  0  0
 16 11  2  0  0  0  0
 16 15  1  0  0  0  0
 17 15  1  0  0  0  0
 17 19  1  0  0  0  0
 18 17  2  0  0  0  0
 19 21  1  0  0  0  0
 20 19  1  0  0  0  0
 20 22  1  0  0  0  0
 21 24  1  0  0  0  0
 22 23  1  0  0  0  0
 23 24  1  0  0  0  0
 25  1  1  0  0  0  0
 26 25  1  0  0  0  0
 26 27  1  0  0  0  0
 28 26  2  0  0  0  0
 29 28  1  0  0  0  0
 29 30  1  0  0  0  0
 30 25  2  0  0  0  0
 31 29  1  0  0  0  0
 32 31  1  0  0  0  0
M  END
>  <Pose>
1

>  <Score>
-6.099

$$$$
