/Users/jonathanwahrer/Desktop/Msc/3_Semester/Drug_Design_Praktikum/waehrer_HTS_screening/HTS_experiment/out/docking_results/vina_output/3sx0/0670_docked.pdbqt
 OpenBabel03192221573D

 23 27  0  0  1  0  0  0  0  0999 V2000
   23.0070   63.9860   -9.1660 C   0  0  0  0  0  2  0  0  0  0  0  0
   21.5330   63.9860   -9.4220 C   0  0  1  0  0  3  0  0  0  0  0  0
   21.0950   63.4110  -10.7550 C   0  0  2  0  0  3  0  0  0  0  0  0
   19.9260   62.9660  -10.0520 N   0  0  0  0  0  0  0  0  0  0  0  0
   20.7920   62.7490   -8.9280 C   0  0  2  0  0  3  0  0  0  0  0  0
   18.5670   62.8170  -10.3470 C   0  0  0  0  0  0  0  0  0  0  0  0
   17.7590   63.8330  -10.7190 N   0  0  0  0  0  0  0  0  0  0  0  0
   16.4690   63.7140  -11.0040 C   0  0  0  0  0  3  0  0  0  0  0  0
   15.8690   62.4770  -10.9260 C   0  0  0  0  0  0  0  0  0  0  0  0
   14.0100   62.2740  -11.3300 Br  0  0  0  0  0  0  0  0  0  0  0  0
   16.6610   61.4140  -10.5490 C   0  0  0  0  0  3  0  0  0  0  0  0
   17.9650   61.5930  -10.2730 N   0  0  0  0  0  0  0  0  0  0  0  0
   23.2090   64.0730   -7.7430 N   0  0  0  0  0  0  0  0  0  0  0  0
   24.2230   63.3380   -7.1300 N   0  0  0  0  0  0  0  0  0  0  0  0
   24.4620   63.3910   -5.7300 C   0  0  0  0  0  0  0  0  0  0  0  0
   24.8210   62.7270   -7.7590 H   0  0  0  0  0  0  0  0  0  0  0  0
   25.4350   62.6750   -5.2000 C   0  0  0  0  0  0  0  0  0  0  0  0
   23.6390   64.2290   -4.8790 C   0  0  0  0  0  3  0  0  0  0  0  0
   26.5690   61.7290   -5.2020 C   0  0  0  0  0  2  0  0  0  0  0  0
   26.1630   62.2970   -3.9260 C   0  0  0  0  0  2  0  0  0  0  0  0
   22.6710   64.9350   -5.4400 C   0  0  0  0  0  3  0  0  0  0  0  0
   22.4160   64.8880   -6.8940 C   0  0  0  0  0  0  0  0  0  0  0  0
   21.4870   65.5700   -7.4030 O   0  0  0  0  0  0  0  0  0  0  0  0
  1 13  1  0  0  0  0
  2  1  1  6  0  0  0
  2  5  1  0  0  0  0
  3  4  1  1  0  0  0
  3  2  1  0  0  0  0
  3  5  1  0  0  0  0
  5  4  1  1  0  0  0
  6 12  1  0  0  0  0
  6  4  1  0  0  0  0
  7  6  2  0  0  0  0
  8  9  2  0  0  0  0
  8  7  1  0  0  0  0
  9 11  1  0  0  0  0
 10  9  1  0  0  0  0
 11 12  2  0  0  0  0
 13 14  1  0  0  0  0
 13 22  1  0  0  0  0
 14 15  1  0  0  0  0
 15 17  2  0  0  0  0
 15 18  1  0  0  0  0
 16 14  1  0  0  0  0
 17 20  1  0  0  0  0
 19 17  1  0  0  0  0
 19 20  1  0  0  0  0
 21 18  2  0  0  0  0
 22 21  1  0  0  0  0
 23 22  2  0  0  0  0
M  END
>  <Pose>
1

>  <Score>
-8.369

$$$$
