/Users/jonathanwahrer/Desktop/Msc/3_Semester/Drug_Design_Praktikum/waehrer_HTS_screening/HTS_experiment/out/docking_results/vina_output/3sx0/0680_docked.pdbqt
 OpenBabel03192221573D

 24 27  0  0  1  0  0  0  0  0999 V2000
   23.2840   64.7220   -6.9200 C   0  0  0  0  0  0  0  0  0  0  0  0
   23.6590   65.9350   -7.1200 O   0  0  0  0  0  0  0  0  0  0  0  0
   22.2800   64.2090   -7.7630 N   0  0  0  0  0  0  0  0  0  0  0  0
   21.5270   63.0100   -7.9560 C   0  0  0  0  0  2  0  0  0  0  0  0
   20.4150   63.8880   -8.5580 C   0  0  1  0  0  3  0  0  0  0  0  0
   21.5550   64.7600   -8.9260 C   0  0  0  0  0  2  0  0  0  0  0  0
   19.7210   63.2160   -9.6220 N   0  0  0  0  0  0  0  0  0  0  0  0
   19.9590   63.3030  -11.0390 C   0  0  0  0  0  0  0  0  0  0  0  0
   21.0450   63.6150  -11.5590 O   0  0  0  0  0  0  0  0  0  0  0  0
   18.6510   62.9450  -11.6890 C   0  0  1  0  0  3  0  0  0  0  0  0
   18.1970   61.8330  -10.7740 C   0  0  2  0  0  3  0  0  0  0  0  0
   17.7930   64.1630  -11.6430 C   0  0  0  0  0  2  0  0  0  0  0  0
   16.7120   61.6180  -10.8710 C   0  0  0  0  0  2  0  0  0  0  0  0
   18.6350   62.3120   -9.4490 C   0  0  0  0  0  0  0  0  0  0  0  0
   16.0020   62.8730  -10.5090 C   0  0  0  0  0  3  0  0  0  0  0  0
   16.5410   64.0140  -10.8880 C   0  0  0  0  0  3  0  0  0  0  0  0
   18.0990   61.9480   -8.3740 O   0  0  0  0  0  0  0  0  0  0  0  0
   23.9550   64.0410   -5.8380 C   0  0  0  0  0  0  0  0  0  0  0  0
   23.4950   64.1750   -4.5210 C   0  0  0  0  0  3  0  0  0  0  0  0
   24.0890   63.5770   -3.4830 N   0  0  0  0  0  0  0  0  0  0  0  0
   25.1850   62.7950   -3.6570 C   0  0  0  0  0  3  0  0  0  0  0  0
   25.7030   62.6090   -4.9160 C   0  0  0  0  0  0  0  0  0  0  0  0
   27.2410   61.5090   -5.1350 Br  0  0  0  0  0  0  0  0  0  0  0  0
   25.0670   63.2420   -5.9730 C   0  0  0  0  0  3  0  0  0  0  0  0
  1 18  1  0  0  0  0
  2  1  2  0  0  0  0
  3  1  1  0  0  0  0
  4  3  1  0  0  0  0
  5  7  1  6  0  0  0
  5  4  1  0  0  0  0
  6  5  1  0  0  0  0
  6  3  1  0  0  0  0
  7 14  1  0  0  0  0
  8  7  1  0  0  0  0
  9  8  2  0  0  0  0
 10 12  1  1  0  0  0
 10  8  1  0  0  0  0
 10 11  1  0  0  0  0
 11 13  1  1  0  0  0
 11 14  1  0  0  0  0
 12 16  1  0  0  0  0
 13 15  1  0  0  0  0
 14 17  2  0  0  0  0
 16 15  2  0  0  0  0
 18 19  1  0  0  0  0
 19 20  2  0  0  0  0
 21 20  1  0  0  0  0
 22 21  2  0  0  0  0
 23 22  1  0  0  0  0
 24 18  2  0  0  0  0
 24 22  1  0  0  0  0
M  END
>  <Pose>
1

>  <Score>
-7.239

$$$$
