/Users/jonathanwahrer/Desktop/Msc/3_Semester/Drug_Design_Praktikum/waehrer_HTS_screening/HTS_experiment/out/docking_results/vina_output/3sx0/0693_docked.pdbqt
 OpenBabel03192221583D

 33 36  0  0  0  0  0  0  0  0999 V2000
   16.9610   63.4780  -10.0700 N   0  0  0  0  0  0  0  0  0  0  0  0
   18.3040   63.2350  -10.4340 C   0  0  0  0  0  0  0  0  0  0  0  0
   18.7310   63.5920  -11.5510 O   0  0  0  0  0  0  0  0  0  0  0  0
   16.5370   63.2080   -9.1570 H   0  0  0  0  0  0  0  0  0  0  0  0
   19.2700   62.5510   -9.5180 C   0  0  0  0  0  2  0  0  0  0  0  0
   20.0000   63.4880   -8.7090 N   0  0  0  0  0  0  0  0  0  0  0  0
   21.4010   63.6910   -8.8350 C   0  0  0  0  0  0  0  0  0  0  0  0
   22.0220   63.0220   -9.6900 O   0  0  0  0  0  0  0  0  0  0  0  0
   19.5190   64.0690   -7.9830 H   0  0  0  0  0  0  0  0  0  0  0  0
   22.1730   64.6580   -8.0000 C   0  0  0  0  0  0  0  0  0  0  0  0
   23.4610   64.1950   -7.7200 O   0  0  0  0  0  0  0  0  0  0  0  0
   23.9020   63.7780   -6.4670 C   0  0  0  0  0  0  0  0  0  0  0  0
   23.1680   64.1820   -5.3830 C   0  0  0  0  0  0  0  0  0  0  0  0
   25.0110   63.0050   -6.2880 C   0  0  0  0  0  3  0  0  0  0  0  0
   23.5870   63.7790   -4.1150 C   0  0  0  0  0  3  0  0  0  0  0  0
   22.0570   64.9570   -5.5670 O   0  0  0  0  0  0  0  0  0  0  0  0
   24.7040   62.9990   -3.9190 C   0  0  0  0  0  3  0  0  0  0  0  0
   25.4200   62.6110   -5.0350 C   0  0  0  0  0  3  0  0  0  0  0  0
   21.4140   65.1120   -6.8020 C   0  0  0  0  0  3  0  0  0  0  0  0
   16.1350   64.1210  -10.9970 N   0  0  0  0  0  0  0  0  0  0  0  0
   15.1530   63.5380  -11.5740 C   0  0  0  0  0  0  0  0  0  0  0  0
   14.2010   64.0440  -12.5520 C   0  0  0  0  0  0  0  0  0  0  0  0
   14.7740   62.1400  -11.3410 C   0  0  0  0  0  0  0  0  0  0  0  0
   13.2920   63.0660  -12.9160 C   0  0  0  0  0  0  0  0  0  0  0  0
   14.0540   65.2750  -13.1540 C   0  0  0  0  0  3  0  0  0  0  0  0
   12.2880   63.2990  -13.8330 C   0  0  0  0  0  0  0  0  0  0  0  0
   13.6520   61.9080  -12.1700 N   0  0  0  0  0  0  0  0  0  0  0  0
   11.0410   61.9340  -14.3280 Br  0  0  0  0  0  0  0  0  0  0  0  0
   12.1630   64.5550  -14.4270 C   0  0  0  0  0  3  0  0  0  0  0  0
   13.0650   65.5450  -14.0730 C   0  0  0  0  0  0  0  0  0  0  0  0
   12.9160   67.2750  -14.8740 Br  0  0  0  0  0  0  0  0  0  0  0  0
   13.1510   61.0050  -12.2300 H   0  0  0  0  0  0  0  0  0  0  0  0
   15.3790   61.3710  -10.5460 O   0  0  0  0  0  0  0  0  0  0  0  0
  1  4  1  0  0  0  0
  2  1  1  0  0  0  0
  2  5  1  0  0  0  0
  3  2  2  0  0  0  0
  5  6  1  0  0  0  0
  6  9  1  0  0  0  0
  7  6  1  0  0  0  0
  7 10  1  0  0  0  0
  8  7  2  0  0  0  0
 10 11  1  0  0  0  0
 10 19  2  0  0  0  0
 11 12  1  0  0  0  0
 12 14  2  0  0  0  0
 12 13  1  0  0  0  0
 13 15  2  0  0  0  0
 14 18  1  0  0  0  0
 15 17  1  0  0  0  0
 16 13  1  0  0  0  0
 18 17  2  0  0  0  0
 19 16  1  0  0  0  0
 20  1  1  0  0  0  0
 21 23  1  0  0  0  0
 21 20  2  0  0  0  0
 22 21  1  0  0  0  0
 23 33  2  0  0  0  0
 24 22  1  0  0  0  0
 24 27  1  0  0  0  0
 25 22  2  0  0  0  0
 26 24  2  0  0  0  0
 27 23  1  0  0  0  0
 28 26  1  0  0  0  0
 29 30  2  0  0  0  0
 29 26  1  0  0  0  0
 30 25  1  0  0  0  0
 31 30  1  0  0  0  0
 32 27  1  0  0  0  0
M  END
>  <Pose>
1

>  <Score>
-9.332

$$$$
