/Users/jonathanwahrer/Desktop/Msc/3_Semester/Drug_Design_Praktikum/waehrer_HTS_screening/HTS_experiment/out/docking_results/vina_output/3sx0/0695_docked.pdbqt
 OpenBabel03192221583D

 22 25  0  0  0  0  0  0  0  0999 V2000
   24.3910   63.0430  -11.6370 C   0  0  0  0  0  2  0  0  0  0  0  0
   23.0360   63.2900  -11.0820 C   0  0  0  0  0  0  0  0  0  0  0  0
   21.8780   63.1730  -11.8160 C   0  0  0  0  0  3  0  0  0  0  0  0
   20.6160   63.4140  -11.2690 C   0  0  0  0  0  0  0  0  0  0  0  0
   20.4860   63.7810   -9.9530 C   0  0  0  0  0  0  0  0  0  0  0  0
   19.3230   63.3640  -11.7920 O   0  0  0  0  0  0  0  0  0  0  0  0
   21.6410   63.9020   -9.2090 C   0  0  0  0  0  0  0  0  0  0  0  0
   19.1220   63.9520   -9.6910 O   0  0  0  0  0  0  0  0  0  0  0  0
   21.4580   64.4170   -7.3670 Br  0  0  0  0  0  0  0  0  0  0  0  0
   22.8920   63.6650   -9.7430 C   0  0  0  0  0  3  0  0  0  0  0  0
   18.4250   63.1870  -10.6850 C   0  0  0  0  0  2  0  0  0  0  0  0
   24.7280   64.0970  -12.5640 N   0  0  0  0  0  0  0  0  0  0  0  0
   24.4850   65.0850  -12.3820 H   0  0  0  0  0  0  0  0  0  0  0  0
   25.4250   63.7450  -13.7740 C   0  0  0  0  0  0  0  0  0  0  0  0
   26.7370   63.4740  -13.7640 N   0  0  0  0  0  0  0  0  0  0  0  0
   27.3790   63.1460  -14.8990 C   0  0  0  0  0  3  0  0  0  0  0  0
   26.7070   63.0790  -16.1160 C   0  0  0  0  0  3  0  0  0  0  0  0
   25.4020   63.3500  -16.1180 N   0  0  0  0  0  0  0  0  0  0  0  0
   24.7510   63.6810  -14.9740 C   0  0  0  0  0  0  0  0  0  0  0  0
   24.4690   63.3790  -17.0870 C   0  0  0  0  0  3  0  0  0  0  0  0
   23.4620   63.8960  -15.2850 N   0  0  0  0  0  0  0  0  0  0  0  0
   23.2780   63.7130  -16.5820 N   0  0  0  0  0  0  0  0  0  0  0  0
  1  2  1  0  0  0  0
  2 10  1  0  0  0  0
  3  4  1  0  0  0  0
  3  2  2  0  0  0  0
  4  5  2  0  0  0  0
  5  8  1  0  0  0  0
  5  7  1  0  0  0  0
  6  4  1  0  0  0  0
  6 11  1  0  0  0  0
  7  9  1  0  0  0  0
 10  7  2  0  0  0  0
 11  8  1  0  0  0  0
 12 13  1  0  0  0  0
 12  1  1  0  0  0  0
 14 15  2  0  0  0  0
 14 12  1  0  0  0  0
 16 15  1  0  0  0  0
 17 16  2  0  0  0  0
 18 17  1  0  0  0  0
 18 19  1  0  0  0  0
 19 14  1  0  0  0  0
 20 22  2  0  0  0  0
 20 18  1  0  0  0  0
 21 19  2  0  0  0  0
 22 21  1  0  0  0  0
M  END
>  <Pose>
1

>  <Score>
-8.538

$$$$
