/Users/jonathanwahrer/Desktop/Msc/3_Semester/Drug_Design_Praktikum/waehrer_HTS_screening/HTS_experiment/out/docking_results/vina_output/3sx0/0706_docked.pdbqt
 OpenBabel03192221583D

 30 33  0  0  0  0  0  0  0  0999 V2000
   10.9060   65.4970  -13.7740 C   0  0  0  0  0  2  0  0  0  0  0  0
   10.0820   66.2860  -14.6250 N   0  0  0  0  0  0  0  0  0  0  0  0
    8.9540   65.8200  -15.1940 C   0  0  0  0  0  0  0  0  0  0  0  0
    8.2000   64.0550  -15.0030 Br  0  0  0  0  0  0  0  0  0  0  0  0
    8.4480   66.8260  -15.9280 N   0  0  0  0  0  0  0  0  0  0  0  0
    9.2320   67.9080  -15.8330 C   0  0  0  0  0  0  0  0  0  0  0  0
   10.2760   67.5610  -14.9980 C   0  0  0  0  0  0  0  0  0  0  0  0
    9.2010   69.1530  -16.3490 N   0  0  0  0  0  0  0  0  0  0  0  0
   11.2230   68.5350  -14.7570 C   0  0  0  0  0  0  0  0  0  0  0  0
   11.1830   69.7740  -15.2770 N   0  0  0  0  0  0  0  0  0  0  0  0
   12.1770   68.2410  -14.0080 O   0  0  0  0  0  0  0  0  0  0  0  0
   10.1510   70.0780  -16.0860 C   0  0  0  0  0  0  0  0  0  0  0  0
   12.1900   70.7820  -15.0100 C   0  0  0  0  0  1  0  0  0  0  0  0
   10.0840   71.2380  -16.5920 O   0  0  0  0  0  0  0  0  0  0  0  0
    8.1020   69.5080  -17.2230 C   0  0  0  0  0  1  0  0  0  0  0  0
   12.1100   64.8740  -14.3790 C   0  0  0  0  0  2  0  0  0  0  0  0
   12.6590   63.7320  -13.7270 N   0  0  0  0  0  0  0  0  0  0  0  0
   13.5990   63.7590  -12.7500 C   0  0  0  0  0  0  0  0  0  0  0  0
   13.8930   62.4740  -12.3650 C   0  0  0  0  0  0  0  0  0  0  0  0
   14.2880   64.7740  -12.0980 C   0  0  0  0  0  0  0  0  0  0  0  0
   13.1110   61.6920  -13.1280 N   0  0  0  0  0  0  0  0  0  0  0  0
   14.8020   62.1750  -11.4000 N   0  0  0  0  0  0  0  0  0  0  0  0
   12.3680   62.4470  -13.9490 C   0  0  0  0  0  0  0  0  0  0  0  0
   11.0830   61.8420  -15.2530 Br  0  0  0  0  0  0  0  0  0  0  0  0
   15.4270   63.2130  -10.8150 C   0  0  0  0  0  0  0  0  0  0  0  0
   15.0870   60.7990  -11.0160 C   0  0  0  0  0  1  0  0  0  0  0  0
   16.2730   62.9490   -9.9170 O   0  0  0  0  0  0  0  0  0  0  0  0
   15.1800   64.4910  -11.1510 N   0  0  0  0  0  0  0  0  0  0  0  0
   15.8800   65.5730  -10.4900 C   0  0  0  0  0  1  0  0  0  0  0  0
   14.0110   65.9490  -12.4600 O   0  0  0  0  0  0  0  0  0  0  0  0
  2  1  1  0  0  0  0
  3  4  1  0  0  0  0
  3  2  1  0  0  0  0
  5  6  1  0  0  0  0
  5  3  2  0  0  0  0
  6  7  2  0  0  0  0
  7  9  1  0  0  0  0
  7  2  1  0  0  0  0
  8 12  1  0  0  0  0
  8  6  1  0  0  0  0
  9 11  2  0  0  0  0
 10 13  1  0  0  0  0
 10  9  1  0  0  0  0
 12 10  1  0  0  0  0
 14 12  2  0  0  0  0
 15  8  1  0  0  0  0
 16  1  1  0  0  0  0
 16 17  1  0  0  0  0
 17 18  1  0  0  0  0
 18 19  2  0  0  0  0
 18 20  1  0  0  0  0
 19 22  1  0  0  0  0
 20 28  1  0  0  0  0
 21 19  1  0  0  0  0
 22 26  1  0  0  0  0
 22 25  1  0  0  0  0
 23 17  1  0  0  0  0
 23 21  2  0  0  0  0
 24 23  1  0  0  0  0
 25 27  2  0  0  0  0
 28 25  1  0  0  0  0
 28 29  1  0  0  0  0
 30 20  2  0  0  0  0
M  END
>  <Pose>
1

>  <Score>
-3.513

$$$$
