/Users/jonathanwahrer/Desktop/Msc/3_Semester/Drug_Design_Praktikum/waehrer_HTS_screening/HTS_experiment/out/docking_results/vina_output/3sx0/0708_docked.pdbqt
 OpenBabel03162215403D

 31 34  0  0  0  0  0  0  0  0999 V2000
   19.9970   63.3480  -10.0870 C   0  0  0  0  0  2  0  0  0  0  0  0
   18.7880   63.2440   -9.2040 C   0  0  0  0  0  2  0  0  0  0  0  0
   17.6200   62.7040   -9.8680 N   0  0  0  0  0  0  0  0  0  0  0  0
   17.3670   61.3710  -10.0420 C   0  0  0  0  0  0  0  0  0  0  0  0
   18.5310   60.0070   -9.4000 Br  0  0  0  0  0  0  0  0  0  0  0  0
   16.2160   61.2000  -10.7070 N   0  0  0  0  0  0  0  0  0  0  0  0
   15.6880   62.4110  -10.9860 C   0  0  0  0  0  0  0  0  0  0  0  0
   16.5800   63.3290  -10.4550 C   0  0  0  0  0  0  0  0  0  0  0  0
   14.5590   62.7430  -11.6360 N   0  0  0  0  0  0  0  0  0  0  0  0
   16.2900   64.6500  -10.6070 C   0  0  0  0  0  0  0  0  0  0  0  0
   15.1450   64.9830  -11.2670 N   0  0  0  0  0  0  0  0  0  0  0  0
   17.0590   65.5200  -10.1510 O   0  0  0  0  0  0  0  0  0  0  0  0
   14.3050   64.0570  -11.7660 C   0  0  0  0  0  0  0  0  0  0  0  0
   14.9620   66.0050  -11.3590 H   0  0  0  0  0  0  0  0  0  0  0  0
   13.2440   64.4240  -12.3750 O   0  0  0  0  0  0  0  0  0  0  0  0
   13.6330   61.7770  -12.1870 C   0  0  0  0  0  1  0  0  0  0  0  0
   20.9020   64.5060   -9.7770 C   0  0  0  0  0  2  0  0  0  0  0  0
   22.0730   64.0420   -9.0470 N   0  0  0  0  0  0  0  0  0  0  0  0
   22.3340   64.1470   -7.7240 C   0  0  0  0  0  0  0  0  0  0  0  0
   23.5520   63.5790   -7.4310 C   0  0  0  0  0  0  0  0  0  0  0  0
   21.6200   64.6960   -6.6910 C   0  0  0  0  0  0  0  0  0  0  0  0
   24.0310   63.1250   -8.6050 N   0  0  0  0  0  0  0  0  0  0  0  0
   24.0770   63.5350   -6.1930 N   0  0  0  0  0  0  0  0  0  0  0  0
   23.1330   63.4080   -9.5740 C   0  0  0  0  0  0  0  0  0  0  0  0
   23.2880   62.9950  -11.4320 Br  0  0  0  0  0  0  0  0  0  0  0  0
   23.3360   64.0900   -5.2020 C   0  0  0  0  0  0  0  0  0  0  0  0
   25.3760   62.9210   -5.9300 C   0  0  0  0  0  1  0  0  0  0  0  0
   23.8270   64.0490   -4.0330 O   0  0  0  0  0  0  0  0  0  0  0  0
   22.1360   64.6570   -5.4460 N   0  0  0  0  0  0  0  0  0  0  0  0
   21.6130   65.0670   -4.6470 H   0  0  0  0  0  0  0  0  0  0  0  0
   20.5080   65.2150   -6.9510 O   0  0  0  0  0  0  0  0  0  0  0  0
  1 17  1  0  0  0  0
  1  2  1  0  0  0  0
  3  2  1  0  0  0  0
  4  3  1  0  0  0  0
  4  5  1  0  0  0  0
  6  4  2  0  0  0  0
  7  6  1  0  0  0  0
  7  8  2  0  0  0  0
  8  3  1  0  0  0  0
  9  7  1  0  0  0  0
 10  8  1  0  0  0  0
 10 12  2  0  0  0  0
 11 10  1  0  0  0  0
 13  9  1  0  0  0  0
 13 11  1  0  0  0  0
 14 11  1  0  0  0  0
 15 13  2  0  0  0  0
 16  9  1  0  0  0  0
 17 18  1  0  0  0  0
 18 19  1  0  0  0  0
 19 20  2  0  0  0  0
 19 21  1  0  0  0  0
 20 23  1  0  0  0  0
 21 29  1  0  0  0  0
 22 20  1  0  0  0  0
 23 27  1  0  0  0  0
 23 26  1  0  0  0  0
 24 18  1  0  0  0  0
 24 22  2  0  0  0  0
 25 24  1  0  0  0  0
 26 28  2  0  0  0  0
 29 26  1  0  0  0  0
 29 30  1  0  0  0  0
 31 21  2  0  0  0  0
M  END
>  <Pose>
1

>  <Score>
-7.066

$$$$
