/Users/jonathanwahrer/Desktop/Msc/3_Semester/Drug_Design_Praktikum/waehrer_HTS_screening/HTS_experiment/out/docking_results/vina_output/3sx0/0723_docked.pdbqt
 OpenBabel03192221593D

 23 26  0  0  1  0  0  0  0  0999 V2000
   10.9760   64.8880  -16.0110 N   0  0  0  0  0  0  0  0  0  0  0  0
   10.7120   64.6180  -14.6330 C   0  0  1  0  0  3  0  0  0  0  0  0
    9.5340   63.7470  -14.4190 C   0  0  0  0  0  2  0  0  0  0  0  0
    8.7440   63.4810  -15.5040 O   0  0  0  0  0  0  0  0  0  0  0  0
    8.6180   64.5670  -16.3640 C   0  0  0  0  0  2  0  0  0  0  0  0
    9.9230   64.9630  -16.9760 C   0  0  0  0  0  2  0  0  0  0  0  0
   12.3070   65.1160  -16.5000 C   0  0  0  0  0  0  0  0  0  0  0  0
   13.0220   64.0530  -16.9820 N   0  0  0  0  0  0  0  0  0  0  0  0
   14.2510   64.2190  -17.5010 C   0  0  0  0  0  3  0  0  0  0  0  0
   14.8120   65.4400  -17.5610 N   0  0  0  0  0  0  0  0  0  0  0  0
   14.1740   66.5250  -17.1080 C   0  0  0  0  0  0  0  0  0  0  0  0
   14.5390   67.8180  -17.0510 N   0  0  0  0  0  0  0  0  0  0  0  0
   12.8950   66.3480  -16.5670 C   0  0  0  0  0  0  0  0  0  0  0  0
   13.5360   68.4570  -16.4940 N   0  0  0  0  0  0  0  0  0  0  0  0
   15.7830   68.4100  -17.5080 C   0  0  0  0  0  1  0  0  0  0  0  0
   12.5250   67.6150  -16.1850 C   0  0  0  0  0  0  0  0  0  0  0  0
   10.8800   68.0530  -15.3330 Br  0  0  0  0  0  0  0  0  0  0  0  0
   11.9260   64.1600  -13.9220 C   0  0  0  0  0  0  0  0  0  0  0  0
   12.7370   64.9200  -13.1840 N   0  0  0  0  0  0  0  0  0  0  0  0
   13.7200   64.0960  -12.7210 C   0  0  0  0  0  0  0  0  0  0  0  0
   13.4510   62.8700  -13.2070 N   0  0  0  0  0  0  0  0  0  0  0  0
   14.8630   64.4630  -11.8550 C   0  0  0  0  0  1  0  0  0  0  0  0
   12.3680   62.9360  -13.9250 O   0  0  0  0  0  0  0  0  0  0  0  0
  1  2  1  0  0  0  0
  2  3  1  0  0  0  0
  2 18  1  6  0  0  0
  4  3  1  0  0  0  0
  5  4  1  0  0  0  0
  6  5  1  0  0  0  0
  6  1  1  0  0  0  0
  7  1  1  0  0  0  0
  8  7  2  0  0  0  0
  9  8  1  0  0  0  0
 10  9  2  0  0  0  0
 10 11  1  0  0  0  0
 11 12  1  0  0  0  0
 11 13  2  0  0  0  0
 12 14  1  0  0  0  0
 13  7  1  0  0  0  0
 13 16  1  0  0  0  0
 14 16  2  0  0  0  0
 15 12  1  0  0  0  0
 16 17  1  0  0  0  0
 18 19  2  0  0  0  0
 19 20  1  0  0  0  0
 20 22  1  0  0  0  0
 21 20  2  0  0  0  0
 23 18  1  0  0  0  0
 23 21  1  0  0  0  0
M  END
>  <Pose>
1

>  <Score>
-4.141

$$$$
