/Users/jonathanwahrer/Desktop/Msc/3_Semester/Drug_Design_Praktikum/waehrer_HTS_screening/HTS_experiment/out/docking_results/vina_output/3sx0/0729_docked.pdbqt
 OpenBabel03192222003D

 27 30  0  0  1  0  0  0  0  0999 V2000
   18.7210   62.9060  -10.2930 N   0  0  0  0  0  0  0  0  0  0  0  0
   18.1050   61.6970   -9.8230 C   0  0  0  0  0  2  0  0  0  0  0  0
   16.7070   61.6950  -10.4480 C   0  0  0  0  0  2  0  0  0  0  0  0
   16.3180   63.0470  -10.8640 N   0  0  0  0  0  0  0  0  0  0  0  0
   16.6910   64.0050   -9.8200 C   0  0  0  0  0  2  0  0  0  0  0  0
   18.2010   64.1370   -9.7500 C   0  0  0  0  0  2  0  0  0  0  0  0
   19.7450   62.8870  -11.2460 C   0  0  0  0  0  0  0  0  0  0  0  0
   19.4950   62.5800  -12.5410 N   0  0  0  0  0  0  0  0  0  0  0  0
   20.4480   62.5220  -13.4630 C   0  0  0  0  0  3  0  0  0  0  0  0
   21.7120   62.7740  -13.1090 N   0  0  0  0  0  0  0  0  0  0  0  0
   22.0590   63.0870  -11.8490 C   0  0  0  0  0  0  0  0  0  0  0  0
   23.2360   63.3860  -11.2660 N   0  0  0  0  0  0  0  0  0  0  0  0
   21.0600   63.1490  -10.8820 C   0  0  0  0  0  0  0  0  0  0  0  0
   22.9970   63.6240  -10.0040 N   0  0  0  0  0  0  0  0  0  0  0  0
   24.4960   63.4120  -11.9950 C   0  0  0  0  0  1  0  0  0  0  0  0
   21.6910   63.4970   -9.7100 C   0  0  0  0  0  0  0  0  0  0  0  0
   20.8270   63.7550   -8.0420 Br  0  0  0  0  0  0  0  0  0  0  0  0
   14.8680   63.0400  -10.9790 C   0  0  2  0  0  3  0  0  0  0  0  0
   14.4650   61.6180  -11.4570 C   0  0  0  0  0  1  0  0  0  0  0  0
   14.4080   64.0170  -11.9800 C   0  0  0  0  0  0  0  0  0  0  0  0
   15.0450   65.1500  -11.9280 O   0  0  0  0  0  0  0  0  0  0  0  0
   13.3970   63.8780  -12.9450 N   0  0  0  0  0  0  0  0  0  0  0  0
   12.5350   62.7590  -13.1810 C   0  0  0  0  0  2  0  0  0  0  0  0
   13.1650   65.0340  -13.8410 C   0  0  0  0  0  2  0  0  0  0  0  0
   12.3810   62.3870  -14.6410 C   0  0  0  0  0  2  0  0  0  0  0  0
   12.3930   63.5450  -15.5780 C   0  0  0  0  0  2  0  0  0  0  0  0
   13.4690   64.5530  -15.2360 C   0  0  0  0  0  2  0  0  0  0  0  0
  1  2  1  0  0  0  0
  1  6  1  0  0  0  0
  3  2  1  0  0  0  0
  4  3  1  0  0  0  0
  4  5  1  0  0  0  0
  5  6  1  0  0  0  0
  7 13  1  0  0  0  0
  7  1  1  0  0  0  0
  8  7  2  0  0  0  0
  9 10  2  0  0  0  0
  9  8  1  0  0  0  0
 10 11  1  0  0  0  0
 11 12  1  0  0  0  0
 11 13  2  0  0  0  0
 12 14  1  0  0  0  0
 13 16  1  0  0  0  0
 14 16  2  0  0  0  0
 15 12  1  0  0  0  0
 16 17  1  0  0  0  0
 18 19  1  6  0  0  0
 18  4  1  0  0  0  0
 20 21  2  0  0  0  0
 20 18  1  0  0  0  0
 22 20  1  0  0  0  0
 23 22  1  0  0  0  0
 24 22  1  0  0  0  0
 25 23  1  0  0  0  0
 26 27  1  0  0  0  0
 26 25  1  0  0  0  0
 27 24  1  0  0  0  0
M  END
>  <Pose>
1

>  <Score>
-6.748

$$$$
