/Users/jonathanwahrer/Desktop/Msc/3_Semester/Drug_Design_Praktikum/waehrer_HTS_screening/HTS_experiment/out/docking_results/vina_output/3sx0/0743_docked.pdbqt
 OpenBabel03192222003D

 30 33  0  0  1  0  0  0  0  0999 V2000
   22.9290   62.9970   -9.1750 C   0  0  0  0  0  0  0  0  0  0  0  0
   23.9950   62.6290   -9.7720 O   0  0  0  0  0  0  0  0  0  0  0  0
   21.8130   63.4610   -9.9220 N   0  0  0  0  0  0  0  0  0  0  0  0
   21.8890   63.5130  -11.3560 C   0  0  0  0  0  2  0  0  0  0  0  0
   20.5870   63.2470  -12.0470 C   0  0  0  0  0  2  0  0  0  0  0  0
   19.3850   63.5440  -11.2000 C   0  0  1  0  0  0  0  0  0  0  0  0
   18.2720   63.9290  -12.0130 N   0  0  0  0  0  0  0  0  0  0  0  0
   17.0990   64.2710  -11.2830 C   0  0  0  0  0  2  0  0  0  0  0  0
   16.7550   63.3550  -10.1560 C   0  0  0  0  0  2  0  0  0  0  0  0
   17.7210   62.2370   -9.9970 C   0  0  0  0  0  0  0  0  0  0  0  0
   17.6070   61.0450   -9.4110 N   0  0  0  0  0  0  0  0  0  0  0  0
   18.7650   60.3800   -9.5280 C   0  0  0  0  0  3  0  0  0  0  0  0
   19.6370   61.1470  -10.1960 N   0  0  0  0  0  0  0  0  0  0  0  0
   19.0030   62.2900  -10.4870 C   0  0  0  0  0  0  0  0  0  0  0  0
   19.7340   64.5780  -10.1410 C   0  0  0  0  0  2  0  0  0  0  0  0
   20.6350   63.8610   -9.1580 C   0  0  0  0  0  2  0  0  0  0  0  0
   18.5600   64.7500  -12.5900 H   0  0  0  0  0  0  0  0  0  0  0  0
   20.6470   60.8990  -10.4500 H   0  0  0  0  0  0  0  0  0  0  0  0
   22.9340   62.9130   -7.7060 C   0  0  0  0  0  2  0  0  0  0  0  0
   24.1030   63.6090   -7.0800 C   0  0  0  0  0  2  0  0  0  0  0  0
   23.9860   65.0340   -7.0800 N   0  0  0  0  0  0  0  0  0  0  0  0
   23.0000   65.7190   -6.3200 C   0  0  0  0  0  0  0  0  0  0  0  0
   22.2050   65.0230   -5.6220 O   0  0  0  0  0  0  0  0  0  0  0  0
   24.6390   65.6010   -7.6530 H   0  0  0  0  0  0  0  0  0  0  0  0
   22.8630   67.1540   -6.3030 C   0  0  0  0  0  0  0  0  0  0  0  0
   23.7610   68.0140   -5.9530 O   0  0  0  0  0  0  0  0  0  0  0  0
   23.3390   69.2390   -6.0440 C   0  0  0  0  0  0  0  0  0  0  0  0
   24.2750   70.8720   -5.6450 Br  0  0  0  0  0  0  0  0  0  0  0  0
   22.0400   69.1870   -6.4970 C   0  0  0  0  0  3  0  0  0  0  0  0
   21.7110   67.8590   -6.6700 C   0  0  0  0  0  3  0  0  0  0  0  0
  1 19  1  0  0  0  0
  2  1  2  0  0  0  0
  3  1  1  0  0  0  0
  3 16  1  0  0  0  0
  4  3  1  0  0  0  0
  5  4  1  0  0  0  0
  6  5  1  6  0  0  0
  6 14  1  0  0  0  0
  6 15  1  0  0  0  0
  7  8  1  0  0  0  0
  7  6  1  0  0  0  0
  8  9  1  0  0  0  0
  9 10  1  0  0  0  0
 10 11  1  0  0  0  0
 12 11  2  0  0  0  0
 13 12  1  0  0  0  0
 14 13  1  0  0  0  0
 14 10  2  0  0  0  0
 15 16  1  0  0  0  0
 17  7  1  0  0  0  0
 18 13  1  0  0  0  0
 19 20  1  0  0  0  0
 20 21  1  0  0  0  0
 21 22  1  0  0  0  0
 22 25  1  0  0  0  0
 22 23  2  0  0  0  0
 24 21  1  0  0  0  0
 25 26  1  0  0  0  0
 27 26  1  0  0  0  0
 27 28  1  0  0  0  0
 29 27  2  0  0  0  0
 30 29  1  0  0  0  0
 30 25  2  0  0  0  0
M  END
>  <Pose>
1

>  <Score>
-8.847

$$$$
