/Users/jonathanwahrer/Desktop/Msc/3_Semester/Drug_Design_Praktikum/waehrer_HTS_screening/HTS_experiment/out/docking_results/vina_output/3sx0/0767_docked.pdbqt
 OpenBabel03192222013D

 32 35  0  0  0  0  0  0  0  0999 V2000
   22.0730   64.5290   -7.3040 C   0  0  0  0  0  2  0  0  0  0  0  0
   20.9900   63.7600   -7.8170 N   0  0  0  0  0  0  0  0  0  0  0  0
   20.3180   64.1170   -9.0190 C   0  0  0  0  0  0  0  0  0  0  0  0
   20.7120   65.1600   -9.6420 O   0  0  0  0  0  0  0  0  0  0  0  0
   20.6760   62.9140   -7.3060 H   0  0  0  0  0  0  0  0  0  0  0  0
   19.2080   63.3330   -9.5470 C   0  0  0  0  0  0  0  0  0  0  0  0
   19.2170   62.0260   -9.6260 O   0  0  0  0  0  0  0  0  0  0  0  0
   18.0970   61.5980  -10.1360 N   0  0  0  0  0  0  0  0  0  0  0  0
   17.2950   62.6510  -10.4150 C   0  0  0  0  0  0  0  0  0  0  0  0
   18.0220   63.7150  -10.0330 N   0  0  0  0  0  0  0  0  0  0  0  0
   15.9570   62.6240  -10.9930 C   0  0  0  0  0  0  0  0  0  0  0  0
   15.3800   63.5440  -11.7230 O   0  0  0  0  0  0  0  0  0  0  0  0
   14.1780   63.2090  -12.0830 C   0  0  0  0  0  0  0  0  0  0  0  0
   12.9340   64.1810  -13.1350 Br  0  0  0  0  0  0  0  0  0  0  0  0
   13.8950   61.9470  -11.5590 C   0  0  0  0  0  3  0  0  0  0  0  0
   15.0440   61.5930  -10.8670 C   0  0  0  0  0  3  0  0  0  0  0  0
   23.4060   64.1500   -7.9140 C   0  0  0  0  0  2  0  0  0  0  0  0
   23.4160   64.3820   -9.3510 N   0  0  0  0  0  0  0  0  0  0  0  0
   23.8430   63.3510  -10.2060 C   0  0  0  0  0  0  0  0  0  0  0  0
   24.1960   62.2660   -9.6210 O   0  0  0  0  0  0  0  0  0  0  0  0
   23.1130   65.2850   -9.7580 H   0  0  0  0  0  0  0  0  0  0  0  0
   23.9300   63.3700  -11.6440 C   0  0  0  0  0  0  0  0  0  0  0  0
   25.1920   63.4370  -12.2340 C   0  0  0  0  0  3  0  0  0  0  0  0
   25.3040   63.4460  -13.6020 C   0  0  0  0  0  0  0  0  0  0  0  0
   24.1910   63.3920  -14.3820 C   0  0  0  0  0  0  0  0  0  0  0  0
   26.5530   63.5110  -14.2270 C   0  0  0  0  0  3  0  0  0  0  0  0
   24.3110   63.4020  -15.7740 C   0  0  0  0  0  3  0  0  0  0  0  0
   23.0280   63.3310  -13.8010 O   0  0  0  0  0  0  0  0  0  0  0  0
   25.5350   63.4650  -16.3930 C   0  0  0  0  0  3  0  0  0  0  0  0
   26.6540   63.5200  -15.6010 C   0  0  0  0  0  3  0  0  0  0  0  0
   22.8480   63.3180  -12.4850 C   0  0  0  0  0  0  0  0  0  0  0  0
   21.6720   63.2570  -12.0550 O   0  0  0  0  0  0  0  0  0  0  0  0
  2  5  1  0  0  0  0
  2  1  1  0  0  0  0
  3  2  1  0  0  0  0
  4  3  2  0  0  0  0
  6  3  1  0  0  0  0
  7  6  1  0  0  0  0
  8  7  1  0  0  0  0
  9  8  2  0  0  0  0
  9 10  1  0  0  0  0
 10  6  2  0  0  0  0
 11 16  2  0  0  0  0
 11  9  1  0  0  0  0
 12 11  1  0  0  0  0
 13 12  1  0  0  0  0
 13 15  2  0  0  0  0
 14 13  1  0  0  0  0
 15 16  1  0  0  0  0
 17  1  1  0  0  0  0
 18 17  1  0  0  0  0
 19 20  2  0  0  0  0
 19 18  1  0  0  0  0
 21 18  1  0  0  0  0
 22 19  1  0  0  0  0
 23 22  2  0  0  0  0
 24 23  1  0  0  0  0
 25 28  1  0  0  0  0
 25 24  2  0  0  0  0
 26 24  1  0  0  0  0
 27 25  1  0  0  0  0
 28 31  1  0  0  0  0
 29 27  2  0  0  0  0
 29 30  1  0  0  0  0
 30 26  2  0  0  0  0
 31 32  2  0  0  0  0
 31 22  1  0  0  0  0
M  END
>  <Pose>
1

>  <Score>
-9.931

$$$$
