/Users/jonathanwahrer/Desktop/Msc/3_Semester/Drug_Design_Praktikum/waehrer_HTS_screening/HTS_experiment/out/docking_results/vina_output/3sx0/0776_docked.pdbqt
 OpenBabel03192222013D

 38 41  0  0  1  0  0  0  0  0999 V2000
   12.5490   65.5090  -15.2310 C   0  0  2  0  0  3  0  0  0  0  0  0
   11.7170   64.4940  -14.4390 C   0  0  1  0  0  0  0  0  0  0  0  0
   12.1040   64.5590  -13.0010 C   0  0  0  0  0  2  0  0  0  0  0  0
   13.5560   64.1560  -12.8740 C   0  0  1  0  0  0  0  0  0  0  0  0
   14.2430   64.2550  -14.0690 O   0  0  0  0  0  0  0  0  0  0  0  0
   13.9670   65.4170  -14.7750 C   0  0  0  0  0  2  0  0  0  0  0  0
   14.1500   64.9470  -11.7650 C   0  0  0  0  0  2  0  0  0  0  0  0
   15.6160   64.5200  -11.5990 C   0  0  0  0  0  2  0  0  0  0  0  0
   15.6250   63.1730  -11.1300 N   0  0  0  0  0  0  0  0  0  0  0  0
   14.2820   62.5000  -11.1450 C   0  0  0  0  0  2  0  0  0  0  0  0
   13.5900   62.7030  -12.4520 C   0  0  0  0  0  2  0  0  0  0  0  0
   16.7240   62.4650  -10.6870 C   0  0  0  0  0  0  0  0  0  0  0  0
   16.4760   61.2360  -10.2820 O   0  0  0  0  0  0  0  0  0  0  0  0
   10.2550   64.6800  -14.6870 C   0  0  0  0  0  1  0  0  0  0  0  0
   12.0750   63.2320  -14.9200 O   0  0  0  0  0  0  0  0  0  0  0  0
   11.8140   63.0920  -15.8650 H   0  0  0  0  0  0  0  0  0  0  0  0
   11.9750   66.8160  -15.2170 N   0  0  0  0  0  0  0  0  0  0  0  0
   12.1370   67.7050  -14.2210 C   0  0  0  0  0  3  0  0  0  0  0  0
   11.5710   68.9550  -14.2360 C   0  0  0  0  0  0  0  0  0  0  0  0
   11.8840   70.1080  -12.7560 Br  0  0  0  0  0  0  0  0  0  0  0  0
   10.8020   69.3370  -15.3070 C   0  0  0  0  0  0  0  0  0  0  0  0
   10.6410   68.4500  -16.3030 N   0  0  0  0  0  0  0  0  0  0  0  0
   10.2870   70.4830  -15.3130 O   0  0  0  0  0  0  0  0  0  0  0  0
   11.2000   67.2510  -16.2570 C   0  0  0  0  0  0  0  0  0  0  0  0
   10.0550   68.7540  -17.1090 H   0  0  0  0  0  0  0  0  0  0  0  0
   11.0010   66.4720  -17.2340 O   0  0  0  0  0  0  0  0  0  0  0  0
   18.0920   62.8330  -10.5910 C   0  0  0  0  0  0  0  0  0  0  0  0
   18.6810   63.0440   -9.3310 C   0  0  0  0  0  3  0  0  0  0  0  0
   19.9780   63.3810   -9.1080 C   0  0  0  0  0  0  0  0  0  0  0  0
   20.7940   63.5270  -10.2490 C   0  0  0  0  0  3  0  0  0  0  0  0
   20.2510   63.3290  -11.4720 C   0  0  0  0  0  3  0  0  0  0  0  0
   18.9030   62.9820  -11.6690 C   0  0  0  0  0  3  0  0  0  0  0  0
   20.5110   63.5810   -7.8700 O   0  0  0  0  0  0  0  0  0  0  0  0
   21.6940   64.1200   -7.4590 C   0  0  0  0  0  2  0  0  0  0  0  0
   21.5820   64.8540   -6.1660 C   0  0  0  0  0  2  0  0  0  0  0  0
   20.6910   64.1230   -5.2640 N   0  0  0  0  0  0  0  0  0  0  0  0
   21.1990   63.4340   -4.6890 H   0  0  0  0  0  0  0  0  0  0  0  0
   19.8520   63.7690   -5.7320 H   0  0  0  0  0  0  0  0  0  0  0  0
  1 17  1  1  0  0  0
  1  6  1  0  0  0  0
  1  2  1  0  0  0  0
  2 14  1  6  0  0  0
  2  3  1  0  0  0  0
  4  3  1  6  0  0  0
  4 11  1  0  0  0  0
  4  7  1  0  0  0  0
  5  4  1  0  0  0  0
  6  5  1  0  0  0  0
  7  8  1  0  0  0  0
  8  9  1  0  0  0  0
  9 12  1  0  0  0  0
 10  9  1  0  0  0  0
 11 10  1  0  0  0  0
 12 27  1  0  0  0  0
 12 13  2  0  0  0  0
 15  2  1  0  0  0  0
 16 15  1  0  0  0  0
 17 18  1  0  0  0  0
 19 18  2  0  0  0  0
 19 20  1  0  0  0  0
 21 19  1  0  0  0  0
 22 24  1  0  0  0  0
 22 21  1  0  0  0  0
 23 21  2  0  0  0  0
 24 17  1  0  0  0  0
 25 22  1  0  0  0  0
 26 24  2  0  0  0  0
 27 28  1  0  0  0  0
 28 29  2  0  0  0  0
 29 33  1  0  0  0  0
 30 29  1  0  0  0  0
 31 30  2  0  0  0  0
 32 31  1  0  0  0  0
 32 27  2  0  0  0  0
 33 34  1  0  0  0  0
 34 35  1  0  0  0  0
 35 36  1  0  0  0  0
 36 37  1  0  0  0  0
 38 36  1  0  0  0  0
M  END
>  <Pose>
1

>  <Score>
-8.159

$$$$
