/Users/jonathanwahrer/Desktop/Msc/3_Semester/Drug_Design_Praktikum/waehrer_HTS_screening/HTS_experiment/out/docking_results/vina_output/3sx0/0784_docked.pdbqt
 OpenBabel03192222023D

 39 42  0  0  1  0  0  0  0  0999 V2000
   11.4080   62.4640  -16.8030 C   0  0  1  0  0  3  0  0  0  0  0  0
   11.3790   63.0470  -15.3810 C   0  0  2  0  0  0  0  0  0  0  0  0
   11.8760   64.4880  -15.5640 C   0  0  0  0  0  2  0  0  0  0  0  0
   13.1800   64.5080  -16.3120 C   0  0  2  0  0  0  0  0  0  0  0  0
   13.6410   63.2210  -16.4510 O   0  0  0  0  0  0  0  0  0  0  0  0
   12.8230   62.3840  -17.2050 C   0  0  0  0  0  2  0  0  0  0  0  0
   14.1730   65.2350  -15.4140 C   0  0  0  0  0  2  0  0  0  0  0  0
   14.0510   66.7230  -15.6220 C   0  0  0  0  0  2  0  0  0  0  0  0
   12.7300   67.0560  -16.1800 N   0  0  0  0  0  0  0  0  0  0  0  0
   12.4990   66.6020  -17.5200 C   0  0  0  0  0  2  0  0  0  0  0  0
   13.1430   65.2220  -17.6160 C   0  0  0  0  0  2  0  0  0  0  0  0
   11.7550   67.7310  -15.4460 C   0  0  0  0  0  0  0  0  0  0  0  0
   11.9580   68.0510  -14.2110 O   0  0  0  0  0  0  0  0  0  0  0  0
   12.2530   62.2650  -14.4530 C   0  0  0  0  0  1  0  0  0  0  0  0
   10.1040   63.0850  -14.8610 O   0  0  0  0  0  0  0  0  0  0  0  0
    9.9240   63.9920  -14.5060 H   0  0  0  0  0  0  0  0  0  0  0  0
   10.5720   61.3420  -16.9510 N   0  0  0  0  0  0  0  0  0  0  0  0
   10.9190   60.0760  -16.7110 C   0  0  0  0  0  3  0  0  0  0  0  0
   10.0280   59.0160  -16.8810 C   0  0  0  0  0  0  0  0  0  0  0  0
   10.6250   57.2570  -16.5130 Br  0  0  0  0  0  0  0  0  0  0  0  0
    8.7440   59.2670  -17.3110 C   0  0  0  0  0  0  0  0  0  0  0  0
    8.4080   60.5480  -17.5500 N   0  0  0  0  0  0  0  0  0  0  0  0
    7.9100   58.3190  -17.4760 O   0  0  0  0  0  0  0  0  0  0  0  0
    9.2880   61.5470  -17.3760 C   0  0  0  0  0  0  0  0  0  0  0  0
    7.4370   60.7920  -17.8800 H   0  0  0  0  0  0  0  0  0  0  0  0
    8.9110   62.7260  -17.6170 O   0  0  0  0  0  0  0  0  0  0  0  0
   10.4660   68.1180  -15.9960 C   0  0  1  0  0  3  0  0  0  0  0  0
    9.3890   67.4270  -15.3280 N   0  0  0  0  0  0  0  0  0  0  0  0
    8.7290   66.2660  -15.7130 C   0  0  0  0  0  0  0  0  0  0  0  0
    8.9590   65.6090  -16.7490 O   0  0  0  0  0  0  0  0  0  0  0  0
    7.6220   65.6850  -14.8530 C   0  0  0  0  0  1  0  0  0  0  0  0
    9.0690   67.8870  -14.4210 H   0  0  0  0  0  0  0  0  0  0  0  0
   10.2260   69.6550  -15.8730 C   0  0  0  0  0  2  0  0  0  0  0  0
   11.4780   70.3820  -16.1470 C   0  0  0  0  0  0  0  0  0  0  0  0
   12.1930   71.1660  -15.3560 N   0  0  0  0  0  0  0  0  0  0  0  0
   13.2940   71.6490  -15.9950 C   0  0  0  0  0  3  0  0  0  0  0  0
   13.2570   71.1390  -17.2410 N   0  0  0  0  0  0  0  0  0  0  0  0
   12.1570   70.3640  -17.3530 C   0  0  0  0  0  3  0  0  0  0  0  0
   13.9870   71.3420  -17.9660 H   0  0  0  0  0  0  0  0  0  0  0  0
  1  6  1  1  0  0  0
  1  2  1  0  0  0  0
  2 15  1  0  0  0  0
  2 14  1  1  0  0  0
  3  2  1  0  0  0  0
  4 11  1  6  0  0  0
  4  3  1  0  0  0  0
  4  7  1  0  0  0  0
  5  4  1  0  0  0  0
  6  5  1  0  0  0  0
  8  7  1  0  0  0  0
  9  8  1  0  0  0  0
  9 12  1  0  0  0  0
 10  9  1  0  0  0  0
 11 10  1  0  0  0  0
 12 13  2  0  0  0  0
 15 16  1  0  0  0  0
 17  1  1  0  0  0  0
 17 18  1  0  0  0  0
 19 18  2  0  0  0  0
 19 20  1  0  0  0  0
 21 19  1  0  0  0  0
 22 24  1  0  0  0  0
 22 21  1  0  0  0  0
 23 21  2  0  0  0  0
 24 17  1  0  0  0  0
 25 22  1  0  0  0  0
 26 24  2  0  0  0  0
 27 33  1  1  0  0  0
 27 12  1  0  0  0  0
 27 28  1  0  0  0  0
 28 32  1  0  0  0  0
 29 28  1  0  0  0  0
 29 31  1  0  0  0  0
 30 29  2  0  0  0  0
 34 33  1  0  0  0  0
 34 35  1  0  0  0  0
 36 35  2  0  0  0  0
 37 36  1  0  0  0  0
 38 37  1  0  0  0  0
 38 34  2  0  0  0  0
 39 37  1  0  0  0  0
M  END
>  <Pose>
1

>  <Score>
22.169

$$$$
