/Users/jonathanwahrer/Desktop/Msc/3_Semester/Drug_Design_Praktikum/waehrer_HTS_screening/HTS_experiment/out/docking_results/vina_output/3sx0/0789_docked.pdbqt
 OpenBabel03192222033D

 21 24  0  0  1  0  0  0  0  0999 V2000
   22.1230   63.7770   -9.5560 C   0  0  0  0  0  0  0  0  0  0  0  0
   22.8220   64.1320  -10.5440 O   0  0  0  0  0  0  0  0  0  0  0  0
   20.7600   63.4580   -9.7820 N   0  0  0  0  0  0  0  0  0  0  0  0
   20.2180   63.5360  -11.0890 C   0  0  0  0  0  2  0  0  0  0  0  0
   18.7610   63.8080  -11.1210 C   0  0  2  0  0  3  0  0  0  0  0  0
   18.1150   63.9230   -9.8450 N   0  0  2  0  0  0  0  0  0  0  0  0
   18.5070   62.8490   -8.9520 C   0  0  0  0  0  2  0  0  0  0  0  0
   19.9770   63.0620   -8.6430 C   0  0  0  0  0  2  0  0  0  0  0  0
   16.7210   63.9420  -10.1720 C   0  0  0  0  0  2  0  0  0  0  0  0
   16.5650   62.9770  -11.3200 C   0  0  0  0  0  2  0  0  0  0  0  0
   17.9760   62.6900  -11.7860 C   0  0  0  0  0  2  0  0  0  0  0  0
   22.7460   63.7070   -8.2270 C   0  0  0  0  0  0  0  0  0  0  0  0
   23.7510   62.9390   -7.7850 N   0  0  0  0  0  0  0  0  0  0  0  0
   24.0250   63.1720   -6.5110 N   0  0  0  0  0  0  0  0  0  0  0  0
   24.9300   62.6650   -5.6350 C   0  0  0  0  0  3  0  0  0  0  0  0
   23.1940   64.1240   -6.0470 C   0  0  0  0  0  0  0  0  0  0  0  0
   25.0080   63.0940   -4.3280 C   0  0  0  0  0  0  0  0  0  0  0  0
   26.2960   62.3610   -3.1050 Br  0  0  0  0  0  0  0  0  0  0  0  0
   24.1460   64.0680   -3.8760 C   0  0  0  0  0  3  0  0  0  0  0  0
   23.2610   64.5540   -4.7600 N   0  0  0  0  0  0  0  0  0  0  0  0
   22.3870   64.4670   -7.1130 C   0  0  0  0  0  3  0  0  0  0  0  0
  1 12  1  0  0  0  0
  2  1  2  0  0  0  0
  3  1  1  0  0  0  0
  3  8  1  0  0  0  0
  4  3  1  0  0  0  0
  5 11  1  6  0  0  0
  5  4  1  0  0  0  0
  5  6  1  0  0  0  0
  6  9  1  6  0  0  0
  6  7  1  0  0  0  0
  7  8  1  0  0  0  0
 10  9  1  0  0  0  0
 11 10  1  0  0  0  0
 12 13  2  0  0  0  0
 12 21  1  0  0  0  0
 13 14  1  0  0  0  0
 14 16  1  0  0  0  0
 14 15  1  0  0  0  0
 15 17  2  0  0  0  0
 16 20  1  0  0  0  0
 17 19  1  0  0  0  0
 17 18  1  0  0  0  0
 20 19  2  0  0  0  0
 21 16  2  0  0  0  0
M  END
>  <Pose>
1

>  <Score>
-6.420

$$$$
