/Users/jonathanwahrer/Desktop/Msc/3_Semester/Drug_Design_Praktikum/waehrer_HTS_screening/HTS_experiment/out/docking_results/vina_output/3sx0/0790_docked.pdbqt
 OpenBabel03192222033D

 25 28  0  0  0  0  0  0  0  0999 V2000
    9.2650   62.9930  -15.9830 C   0  0  0  0  0  0  0  0  0  0  0  0
    9.2570   62.8150  -17.2350 O   0  0  0  0  0  0  0  0  0  0  0  0
    9.6280   64.2470  -15.4270 N   0  0  0  0  0  0  0  0  0  0  0  0
    9.6110   64.3670  -13.9610 C   0  0  0  0  0  2  0  0  0  0  0  0
   10.6190   65.4790  -13.6710 C   0  0  0  0  0  2  0  0  0  0  0  0
   11.6920   65.2870  -14.6000 N   0  0  0  0  0  0  0  0  0  0  0  0
   11.4050   65.9010  -15.9300 C   0  0  0  0  0  2  0  0  0  0  0  0
   10.0040   65.3790  -16.2610 C   0  0  0  0  0  2  0  0  0  0  0  0
   12.8780   64.5940  -14.4210 C   0  0  0  0  0  0  0  0  0  0  0  0
   13.7200   64.5990  -15.4120 O   0  0  0  0  0  0  0  0  0  0  0  0
    8.8950   61.8830  -15.1400 C   0  0  0  0  0  0  0  0  0  0  0  0
    8.1640   61.8830  -13.9750 C   0  0  0  0  0  3  0  0  0  0  0  0
    8.0560   60.6240  -13.5190 N   0  0  0  0  0  0  0  0  0  0  0  0
    8.7010   59.8200  -14.3650 N   0  0  0  0  0  0  0  0  0  0  0  0
    8.8880   58.5060  -14.3660 C   0  0  0  0  0  3  0  0  0  0  0  0
    9.2240   60.5510  -15.3640 C   0  0  0  0  0  0  0  0  0  0  0  0
    9.5940   57.8970  -15.3540 C   0  0  0  0  0  0  0  0  0  0  0  0
    9.8570   56.0110  -15.3470 Br  0  0  0  0  0  0  0  0  0  0  0  0
   10.1250   58.6450  -16.3690 C   0  0  0  0  0  3  0  0  0  0  0  0
    9.9240   59.9650  -16.3480 N   0  0  0  0  0  0  0  0  0  0  0  0
   13.3480   63.8370  -13.2730 C   0  0  0  0  0  0  0  0  0  0  0  0
   13.3210   62.5000  -13.1820 O   0  0  0  0  0  0  0  0  0  0  0  0
   13.7950   62.0810  -12.0590 C   0  0  0  0  0  3  0  0  0  0  0  0
   14.1820   63.1560  -11.2980 C   0  0  0  0  0  3  0  0  0  0  0  0
   13.8910   64.2600  -12.0840 C   0  0  0  0  0  3  0  0  0  0  0  0
  1  3  1  0  0  0  0
  1 11  1  0  0  0  0
  2  1  2  0  0  0  0
  3  4  1  0  0  0  0
  4  5  1  0  0  0  0
  6  9  1  0  0  0  0
  6  5  1  0  0  0  0
  7  6  1  0  0  0  0
  8  7  1  0  0  0  0
  8  3  1  0  0  0  0
  9 21  1  0  0  0  0
 10  9  2  0  0  0  0
 11 12  1  0  0  0  0
 12 13  2  0  0  0  0
 14 13  1  0  0  0  0
 15 14  1  0  0  0  0
 16 11  2  0  0  0  0
 16 14  1  0  0  0  0
 17 18  1  0  0  0  0
 17 15  2  0  0  0  0
 19 20  2  0  0  0  0
 19 17  1  0  0  0  0
 20 16  1  0  0  0  0
 21 22  1  0  0  0  0
 21 25  2  0  0  0  0
 22 23  1  0  0  0  0
 23 24  2  0  0  0  0
 25 24  1  0  0  0  0
M  END
>  <Pose>
1

>  <Score>
-5.272

$$$$
