/Users/jonathanwahrer/Desktop/Msc/3_Semester/Drug_Design_Praktikum/waehrer_HTS_screening/HTS_experiment/out/docking_results/vina_output/3sx0/0833_docked.pdbqt
 OpenBabel03192222043D

 28 31  0  0  1  0  0  0  0  0999 V2000
   19.6620   62.3960   -9.4000 C   0  0  1  0  0  0  0  0  0  0  0  0
   20.7170   62.9960  -10.2050 N   0  0  0  0  0  0  0  0  0  0  0  0
   20.5580   63.2740  -11.6280 C   0  0  0  0  0  2  0  0  0  0  0  0
   21.8380   63.5940  -12.3090 C   0  0  0  0  0  2  0  0  0  0  0  0
   22.9320   62.5860  -12.0690 C   0  0  0  0  0  2  0  0  0  0  0  0
   23.7730   63.1440  -10.9370 C   0  0  0  0  0  2  0  0  0  0  0  0
   23.1120   63.2690   -9.6710 C   0  0  0  0  0  3  0  0  0  0  0  0
   21.7990   63.2050   -9.3530 C   0  0  0  0  0  0  0  0  0  0  0  0
   21.3710   63.3740   -8.0210 N   0  0  0  0  0  4  0  0  0  0  0  0
   19.9970   62.9680   -8.0660 C   0  0  0  0  0  2  0  0  0  0  0  0
   21.8740   62.7770   -7.3250 H   0  0  0  0  0  0  0  0  0  0  0  0
   18.3330   62.7950   -9.9040 C   0  0  0  0  0  0  0  0  0  0  0  0
   17.9880   64.1490   -9.8580 C   0  0  0  0  0  3  0  0  0  0  0  0
   16.7120   64.4920  -10.3070 C   0  0  0  0  0  3  0  0  0  0  0  0
   15.8460   63.5280  -10.7680 C   0  0  0  0  0  0  0  0  0  0  0  0
   14.1050   64.0430  -11.3750 Br  0  0  0  0  0  0  0  0  0  0  0  0
   16.2240   62.1960  -10.8000 C   0  0  0  0  0  3  0  0  0  0  0  0
   17.4860   61.8350  -10.3590 C   0  0  0  0  0  3  0  0  0  0  0  0
   19.8080   61.0350   -9.4820 O   0  0  0  0  0  0  0  0  0  0  0  0
   20.5260   60.7430  -10.0820 H   0  0  0  0  0  0  0  0  0  0  0  0
   21.5190   64.7650   -7.7310 C   0  0  0  0  0  0  0  0  0  0  0  0
   22.2920   65.1880   -6.6630 C   0  0  0  0  0  0  0  0  0  0  0  0
   22.3080   66.5550   -6.4190 C   0  0  0  0  0  3  0  0  0  0  0  0
   21.6120   67.4860   -7.1670 C   0  0  0  0  0  3  0  0  0  0  0  0
   20.8390   67.0070   -8.2450 C   0  0  0  0  0  3  0  0  0  0  0  0
   20.8330   65.6780   -8.4720 C   0  0  0  0  0  3  0  0  0  0  0  0
   22.9840   64.2810   -5.9200 O   0  0  0  0  0  0  0  0  0  0  0  0
   24.2630   63.8420   -6.2970 C   0  0  0  0  0  1  0  0  0  0  0  0
  1 19  1  1  0  0  0
  1 10  1  0  0  0  0
  2  1  1  0  0  0  0
  2  8  1  0  0  0  0
  3  2  1  0  0  0  0
  4  5  1  0  0  0  0
  4  3  1  0  0  0  0
  5  6  1  0  0  0  0
  6  7  1  0  0  0  0
  7  8  2  0  0  0  0
  8  9  1  0  0  0  0
  9 21  1  0  0  0  0
  9 11  1  0  0  0  0
 10  9  1  0  0  0  0
 12 13  1  0  0  0  0
 12  1  1  0  0  0  0
 14 13  2  0  0  0  0
 15 14  1  0  0  0  0
 16 15  1  0  0  0  0
 17 15  2  0  0  0  0
 17 18  1  0  0  0  0
 18 12  2  0  0  0  0
 20 19  1  0  0  0  0
 21 22  1  0  0  0  0
 22 23  2  0  0  0  0
 22 27  1  0  0  0  0
 24 23  1  0  0  0  0
 25 24  2  0  0  0  0
 26 25  1  0  0  0  0
 26 21  2  0  0  0  0
 28 27  1  0  0  0  0
M  END
>  <Pose>
1

>  <Score>
-7.298

$$$$
