/Users/jonathanwahrer/Desktop/Msc/3_Semester/Drug_Design_Praktikum/waehrer_HTS_screening/HTS_experiment/out/docking_results/vina_output/3sx0/0834_docked.pdbqt
 OpenBabel03192222043D

 28 31  0  0  1  0  0  0  0  0999 V2000
   20.4890   63.4380  -10.9710 C   0  0  2  0  0  0  0  0  0  0  0  0
   20.3870   64.1310   -9.7270 N   0  0  0  0  0  0  0  0  0  0  0  0
   20.6590   65.5100   -9.4640 C   0  0  0  0  0  3  0  0  0  0  0  0
   21.4660   65.8290   -8.2650 C   0  0  0  0  0  3  0  0  0  0  0  0
   21.8880   64.6930   -7.4060 C   0  0  0  0  0  2  0  0  0  0  0  0
   20.7230   64.1130   -6.6030 C   0  0  0  0  0  2  0  0  0  0  0  0
   20.0570   63.1050   -7.4850 C   0  0  0  0  0  3  0  0  0  0  0  0
   19.9170   63.1160   -8.8000 C   0  0  0  0  0  0  0  0  0  0  0  0
   19.2750   62.0860   -9.5420 N   0  0  0  0  0  4  0  0  0  0  0  0
   20.1680   61.9730  -10.6560 C   0  0  0  0  0  2  0  0  0  0  0  0
   19.2630   61.2210   -8.9450 H   0  0  0  0  0  0  0  0  0  0  0  0
   21.7940   63.3990  -11.6280 C   0  0  0  0  0  0  0  0  0  0  0  0
   22.0620   63.3100  -12.9530 C   0  0  0  0  0  3  0  0  0  0  0  0
   23.3600   63.2850  -13.4470 C   0  0  0  0  0  3  0  0  0  0  0  0
   24.4330   63.3520  -12.5830 C   0  0  0  0  0  0  0  0  0  0  0  0
   26.2300   63.3240  -13.2360 Br  0  0  0  0  0  0  0  0  0  0  0  0
   24.1650   63.4420  -11.2380 C   0  0  0  0  0  3  0  0  0  0  0  0
   22.8880   63.4680  -10.7390 C   0  0  0  0  0  3  0  0  0  0  0  0
   19.5890   63.9300  -11.9350 O   0  0  0  0  0  0  0  0  0  0  0  0
   20.1610   64.2640  -12.6730 H   0  0  0  0  0  0  0  0  0  0  0  0
   17.9840   62.5100   -9.8950 C   0  0  0  0  0  0  0  0  0  0  0  0
   17.0690   61.6190  -10.4860 C   0  0  0  0  0  3  0  0  0  0  0  0
   15.8060   62.0030  -10.8450 C   0  0  0  0  0  3  0  0  0  0  0  0
   15.3720   63.2950  -10.6380 C   0  0  0  0  0  0  0  0  0  0  0  0
   16.2450   64.1820  -10.0630 C   0  0  0  0  0  3  0  0  0  0  0  0
   17.5190   63.7940   -9.7020 C   0  0  0  0  0  3  0  0  0  0  0  0
   14.0700   63.6800  -11.0110 O   0  0  0  0  0  0  0  0  0  0  0  0
   13.8180   64.1330  -12.3140 C   0  0  0  0  0  1  0  0  0  0  0  0
  1 19  1  6  0  0  0
  1 10  1  0  0  0  0
  1  2  1  0  0  0  0
  2  3  1  0  0  0  0
  2  8  1  0  0  0  0
  3  4  2  0  0  0  0
  4  5  1  0  0  0  0
  5  6  1  0  0  0  0
  7  6  1  0  0  0  0
  8  7  2  0  0  0  0
  9 11  1  0  0  0  0
  9  8  1  0  0  0  0
 10  9  1  0  0  0  0
 12  1  1  0  0  0  0
 12 18  1  0  0  0  0
 13 12  2  0  0  0  0
 14 13  1  0  0  0  0
 14 15  2  0  0  0  0
 15 17  1  0  0  0  0
 16 15  1  0  0  0  0
 17 18  2  0  0  0  0
 20 19  1  0  0  0  0
 21 26  1  0  0  0  0
 21  9  1  0  0  0  0
 22 21  2  0  0  0  0
 23 24  2  0  0  0  0
 23 22  1  0  0  0  0
 24 25  1  0  0  0  0
 25 26  2  0  0  0  0
 27 24  1  0  0  0  0
 28 27  1  0  0  0  0
M  END
>  <Pose>
1

>  <Score>
-6.430

$$$$
