/Users/jonathanwahrer/Desktop/Msc/3_Semester/Drug_Design_Praktikum/waehrer_HTS_screening/HTS_experiment/out/docking_results/vina_output/3sx0/0847_docked.pdbqt
 OpenBabel03192222053D

 31 34  0  0  1  0  0  0  0  0999 V2000
   22.1280   63.5000  -10.6340 C   0  0  0  0  0  0  0  0  0  0  0  0
   20.8060   63.2670  -10.6470 N   0  0  0  0  0  0  0  0  0  0  0  0
   20.2240   64.1210   -9.7840 C   0  0  1  0  0  3  0  0  0  0  0  0
   21.2080   64.9000   -9.2250 N   0  0  0  0  0  0  0  0  0  0  0  0
   22.3440   64.4940   -9.7640 N   0  0  0  0  0  0  0  0  0  0  0  0
   18.8290   64.3350   -9.3870 C   0  0  0  0  0  2  0  0  0  0  0  0
   17.9750   63.0960   -9.3730 C   0  0  0  0  0  2  0  0  0  0  0  0
   17.8500   62.4370  -10.7080 C   0  0  0  0  0  2  0  0  0  0  0  0
   19.0500   61.5340  -10.8720 C   0  0  0  0  0  2  0  0  0  0  0  0
   20.2250   62.2630  -11.4760 C   0  0  0  0  0  2  0  0  0  0  0  0
   21.0810   65.9620   -8.3070 C   0  0  0  0  0  3  0  0  0  0  0  0
   21.8090   65.8890   -7.0670 C   0  0  0  0  0  0  0  0  0  0  0  0
   21.5690   66.9340   -6.2730 O   0  0  0  0  0  1  0  0  0  0  0  0
   22.7300   64.9500   -6.4940 C   0  0  0  0  0  0  0  0  0  0  0  0
   22.5890   64.5370   -5.1500 C   0  0  0  0  0  3  0  0  0  0  0  0
   23.4420   63.6480   -4.5510 C   0  0  0  0  0  3  0  0  0  0  0  0
   24.4950   63.1070   -5.2450 C   0  0  0  0  0  0  0  0  0  0  0  0
   24.6680   63.4800   -6.5500 C   0  0  0  0  0  3  0  0  0  0  0  0
   23.7840   64.3940   -7.1530 C   0  0  0  0  0  3  0  0  0  0  0  0
   25.3620   62.2020   -4.6350 O   0  0  0  0  0  0  0  0  0  0  0  0
   26.7470   62.2000   -4.8790 C   0  0  0  0  0  1  0  0  0  0  0  0
   23.2280   62.8320  -11.4030 C   0  0  0  0  0  2  0  0  0  0  0  0
   24.1330   63.7810  -12.0180 N   0  0  0  0  0  0  0  0  0  0  0  0
   24.4260   64.6490  -11.5160 H   0  0  0  0  0  0  0  0  0  0  0  0
   24.6750   63.5950  -13.3310 C   0  0  0  0  0  0  0  0  0  0  0  0
   26.0250   63.3840  -13.5060 C   0  0  0  0  0  3  0  0  0  0  0  0
   26.5380   63.2020  -14.7620 C   0  0  0  0  0  3  0  0  0  0  0  0
   25.6990   63.2310  -15.8710 C   0  0  0  0  0  0  0  0  0  0  0  0
   26.4100   62.9770  -17.6160 Br  0  0  0  0  0  0  0  0  0  0  0  0
   24.3400   63.4410  -15.7170 C   0  0  0  0  0  3  0  0  0  0  0  0
   23.8580   63.6200  -14.4410 C   0  0  0  0  0  3  0  0  0  0  0  0
  1  5  2  0  0  0  0
  2  1  1  0  0  0  0
  2  3  1  0  0  0  0
  3  6  1  6  0  0  0
  3  4  1  0  0  0  0
  4 11  1  0  0  0  0
  5  4  1  0  0  0  0
  6  7  1  0  0  0  0
  8  7  1  0  0  0  0
  9  8  1  0  0  0  0
 10  9  1  0  0  0  0
 10  2  1  0  0  0  0
 11 12  2  0  0  0  0
 12 14  1  0  0  0  0
 12 13  1  0  0  0  0
 14 15  1  0  0  0  0
 15 16  2  0  0  0  0
 17 20  1  0  0  0  0
 17 16  1  0  0  0  0
 18 17  2  0  0  0  0
 19 18  1  0  0  0  0
 19 14  2  0  0  0  0
 21 20  1  0  0  0  0
 22  1  1  0  0  0  0
 23 24  1  0  0  0  0
 23 22  1  0  0  0  0
 25 23  1  0  0  0  0
 26 25  1  0  0  0  0
 27 26  2  0  0  0  0
 28 30  2  0  0  0  0
 28 27  1  0  0  0  0
 29 28  1  0  0  0  0
 30 31  1  0  0  0  0
 31 25  2  0  0  0  0
M  END
>  <Pose>
1

>  <Score>
-7.032

$$$$
