/Users/jonathanwahrer/Desktop/Msc/3_Semester/Drug_Design_Praktikum/waehrer_HTS_screening/HTS_experiment/out/docking_results/vina_output/3sx0/0850_docked.pdbqt
 OpenBabel03192222053D

 29 32  0  0  1  0  0  0  0  0999 V2000
   12.5970   63.2620  -13.3050 N   0  0  0  0  0  4  0  0  0  0  0  0
   12.7660   62.4050  -14.4410 C   0  0  1  0  0  0  0  0  0  0  0  0
   13.4260   63.3850  -15.4110 C   0  0  0  0  0  2  0  0  0  0  0  0
   12.7010   64.6390  -15.1560 N   0  0  0  0  0  0  0  0  0  0  0  0
   12.7150   65.6960  -16.1040 C   0  0  0  0  0  2  0  0  0  0  0  0
   11.8830   66.8880  -15.7360 C   0  0  0  0  0  2  0  0  0  0  0  0
   10.5080   66.4310  -15.3330 C   0  0  0  0  0  2  0  0  0  0  0  0
   10.5190   66.4380  -13.7970 C   0  0  0  0  0  2  0  0  0  0  0  0
   11.1500   65.1890  -13.3270 C   0  0  0  0  0  3  0  0  0  0  0  0
   12.0810   64.4490  -13.8850 C   0  0  0  0  0  0  0  0  0  0  0  0
   11.8970   62.7810  -12.6580 H   0  0  0  0  0  0  0  0  0  0  0  0
   13.4260   61.2330  -14.2540 O   0  0  0  0  0  0  0  0  0  0  0  0
   14.1400   61.2880  -13.5920 H   0  0  0  0  0  0  0  0  0  0  0  0
   11.4610   62.0560  -15.0730 C   0  0  0  0  0  0  0  0  0  0  0  0
   10.2850   61.8890  -14.4050 C   0  0  0  0  0  3  0  0  0  0  0  0
    9.0820   61.5650  -15.0650 C   0  0  0  0  0  3  0  0  0  0  0  0
    9.0490   61.4030  -16.4290 C   0  0  0  0  0  0  0  0  0  0  0  0
   10.2290   61.5670  -17.1140 C   0  0  0  0  0  3  0  0  0  0  0  0
   11.4010   61.8830  -16.4650 C   0  0  0  0  0  3  0  0  0  0  0  0
    7.8550   61.0840  -17.0980 O   0  0  0  0  0  0  0  0  0  0  0  0
    7.6220   59.7960  -17.6170 C   0  0  0  0  0  2  0  0  0  0  0  0
    8.1180   58.7130  -16.7110 C   0  0  0  0  0  1  0  0  0  0  0  0
   13.7000   63.5190  -12.5180 C   0  0  0  0  0  0  0  0  0  0  0  0
   14.1890   62.5180  -11.6810 C   0  0  0  0  0  3  0  0  0  0  0  0
   15.3090   62.7020  -10.8840 C   0  0  0  0  0  3  0  0  0  0  0  0
   15.9890   63.9000  -10.8910 C   0  0  0  0  0  0  0  0  0  0  0  0
   17.5500   64.1670   -9.8120 Br  0  0  0  0  0  0  0  0  0  0  0  0
   15.5340   64.8970  -11.6970 C   0  0  0  0  0  3  0  0  0  0  0  0
   14.4070   64.6840  -12.4870 C   0  0  0  0  0  3  0  0  0  0  0  0
  1 11  1  0  0  0  0
  1 23  1  0  0  0  0
  2 12  1  1  0  0  0
  2  1  1  0  0  0  0
  3  4  1  0  0  0  0
  3  2  1  0  0  0  0
  4 10  1  0  0  0  0
  5  6  1  0  0  0  0
  5  4  1  0  0  0  0
  6  7  1  0  0  0  0
  7  8  1  0  0  0  0
  8  9  1  0  0  0  0
 10  9  2  0  0  0  0
 10  1  1  0  0  0  0
 12 13  1  0  0  0  0
 14  2  1  0  0  0  0
 14 15  1  0  0  0  0
 16 15  2  0  0  0  0
 17 16  1  0  0  0  0
 18 19  1  0  0  0  0
 18 17  2  0  0  0  0
 19 14  2  0  0  0  0
 20 17  1  0  0  0  0
 21 20  1  0  0  0  0
 21 22  1  0  0  0  0
 23 29  2  0  0  0  0
 23 24  1  0  0  0  0
 24 25  2  0  0  0  0
 26 25  1  0  0  0  0
 26 27  1  0  0  0  0
 28 26  2  0  0  0  0
 29 28  1  0  0  0  0
M  END
>  <Pose>
1

>  <Score>
71.756

$$$$
