/Users/jonathanwahrer/Desktop/Msc/3_Semester/Drug_Design_Praktikum/waehrer_HTS_screening/HTS_experiment/out/docking_results/vina_output/3sx0/0860_docked.pdbqt
 OpenBabel03192222053D

 29 32  0  0  1  0  0  0  0  0999 V2000
   22.5310   63.0130  -12.4550 Br  0  0  0  0  0  0  0  0  0  0  0  0
   21.9820   63.3670  -10.6540 C   0  0  0  0  0  0  0  0  0  0  0  0
   22.8930   63.7010   -9.6720 C   0  0  0  0  0  3  0  0  0  0  0  0
   22.4940   63.9540   -8.3790 C   0  0  0  0  0  0  0  0  0  0  0  0
   21.1440   63.8560   -8.1150 C   0  0  0  0  0  0  0  0  0  0  0  0
   20.2280   63.5220   -9.0920 C   0  0  0  0  0  3  0  0  0  0  0  0
   20.6320   63.2690  -10.3850 C   0  0  0  0  0  0  0  0  0  0  0  0
   19.6340   62.9100  -11.4330 C   0  0  0  0  0  1  0  0  0  0  0  0
   20.7640   64.1160   -6.7990 O   0  0  0  0  0  0  0  0  0  0  0  0
   21.6450   64.1530   -5.7270 C   0  0  0  0  0  2  0  0  0  0  0  0
   23.0200   64.6400   -6.0390 C   0  0  2  0  0  0  0  0  0  0  0  0
   23.5250   64.3020   -7.3970 C   0  0  2  0  0  3  0  0  0  0  0  0
   23.9000   63.9620   -5.0820 N   0  0  0  0  0  4  0  0  0  0  0  0
   24.6690   62.9170   -5.6650 C   0  0  0  0  0  2  0  0  0  0  0  0
   25.7750   62.5830   -4.6530 C   0  0  0  0  0  2  0  0  0  0  0  0
   25.1360   62.0880   -3.5290 O   0  0  0  0  0  0  0  0  0  0  0  0
   24.2670   63.0020   -2.9430 C   0  0  0  0  0  2  0  0  0  0  0  0
   23.1950   63.4560   -3.9440 C   0  0  0  0  0  2  0  0  0  0  0  0
   24.5570   64.7010   -4.7420 H   0  0  0  0  0  0  0  0  0  0  0  0
   23.1840   66.1260   -5.7910 C   0  0  0  0  0  2  0  0  0  0  0  0
   22.6850   66.9490   -6.8500 N   0  0  0  0  0  4  0  0  0  0  0  0
   21.2560   67.1800   -6.7550 C   0  0  0  0  0  2  0  0  0  0  0  0
   20.9020   68.6380   -7.0070 C   0  0  0  0  0  2  0  0  0  0  0  0
   21.4450   69.4850   -6.0550 O   0  0  0  0  0  0  0  0  0  0  0  0
   22.6890   69.0320   -5.6250 C   0  0  0  0  0  2  0  0  0  0  0  0
   23.3070   68.2820   -6.7870 C   0  0  0  0  0  2  0  0  0  0  0  0
   22.8720   66.6050   -7.8040 H   0  0  0  0  0  0  0  0  0  0  0  0
   24.2600   65.3820   -7.9440 O   0  0  0  0  0  0  0  0  0  0  0  0
   25.1870   65.1350   -8.1450 H   0  0  0  0  0  0  0  0  0  0  0  0
  1  2  1  0  0  0  0
  2  7  2  0  0  0  0
  2  3  1  0  0  0  0
  3  4  2  0  0  0  0
  4  5  1  0  0  0  0
  4 12  1  0  0  0  0
  5  9  1  0  0  0  0
  6  5  2  0  0  0  0
  7  6  1  0  0  0  0
  8  7  1  0  0  0  0
  9 10  1  0  0  0  0
 11 20  1  1  0  0  0
 11 10  1  0  0  0  0
 11 13  1  0  0  0  0
 12 28  1  6  0  0  0
 12 11  1  0  0  0  0
 13 19  1  0  0  0  0
 13 18  1  0  0  0  0
 14 13  1  0  0  0  0
 14 15  1  0  0  0  0
 15 16  1  0  0  0  0
 16 17  1  0  0  0  0
 18 17  1  0  0  0  0
 21 26  1  0  0  0  0
 21 22  1  0  0  0  0
 21 20  1  0  0  0  0
 23 22  1  0  0  0  0
 23 24  1  0  0  0  0
 24 25  1  0  0  0  0
 26 25  1  0  0  0  0
 27 21  1  0  0  0  0
 29 28  1  0  0  0  0
M  END
>  <Pose>
1

>  <Score>
-7.524

$$$$
