/Users/jonathanwahrer/Desktop/Msc/3_Semester/Drug_Design_Praktikum/waehrer_HTS_screening/HTS_experiment/out/docking_results/vina_output/3sx0/0861_docked.pdbqt
 OpenBabel03192222063D

 32 35  0  0  1  0  0  0  0  0999 V2000
   18.7400   63.2650   -9.3790 Br  0  0  0  0  0  0  0  0  0  0  0  0
   20.6370   63.5130   -9.4920 C   0  0  0  0  0  0  0  0  0  0  0  0
   21.3590   63.7900   -8.3560 C   0  0  0  0  0  0  0  0  0  0  0  0
   22.7510   63.9790   -8.3950 C   0  0  0  0  0  0  0  0  0  0  0  0
   23.3510   63.8710   -9.6310 C   0  0  0  0  0  3  0  0  0  0  0  0
   22.6500   63.5960  -10.7850 C   0  0  0  0  0  0  0  0  0  0  0  0
   21.2870   63.4140  -10.7210 C   0  0  0  0  0  0  0  0  0  0  0  0
   20.4440   63.1130  -11.9070 C   0  0  0  0  0  1  0  0  0  0  0  0
   23.5080   63.4520  -12.4830 Br  0  0  0  0  0  0  0  0  0  0  0  0
   23.4720   64.2720   -7.1740 C   0  0  0  0  0  0  0  0  0  0  0  0
   24.7060   64.3370   -7.1810 O   0  0  0  0  0  0  0  0  0  0  0  0
   22.7230   64.4920   -5.9250 C   0  0  1  0  0  0  0  0  0  0  0  0
   21.4960   63.6080   -5.9780 C   0  0  0  0  0  2  0  0  0  0  0  0
   20.7180   63.8910   -7.1260 O   0  0  0  0  0  0  0  0  0  0  0  0
   23.5300   64.2440   -4.6870 C   0  0  0  0  0  2  0  0  0  0  0  0
   23.3770   62.9730   -4.0900 N   0  0  0  0  0  4  0  0  0  0  0  0
   24.4570   62.1160   -4.4800 C   0  0  0  0  0  2  0  0  0  0  0  0
   25.7780   62.4500   -3.8860 C   0  0  2  0  0  3  0  0  0  0  0  0
   25.7880   63.4690   -2.8140 C   0  0  0  0  0  2  0  0  0  0  0  0
   26.6800   62.9580   -5.0170 C   0  0  0  0  0  1  0  0  0  0  0  0
   24.5200   63.6780   -2.0830 C   0  0  0  0  0  2  0  0  0  0  0  0
   23.3340   62.9580   -2.6540 C   0  0  0  0  0  2  0  0  0  0  0  0
   22.4880   62.5230   -4.4260 H   0  0  0  0  0  0  0  0  0  0  0  0
   22.2630   65.9350   -5.9630 C   0  0  0  0  0  2  0  0  0  0  0  0
   22.7070   66.6860   -7.0880 N   0  0  0  0  0  4  0  0  0  0  0  0
   23.6890   67.6860   -6.6740 C   0  0  0  0  0  2  0  0  0  0  0  0
   23.0980   69.0600   -6.5550 C   0  0  1  0  0  3  0  0  0  0  0  0
   21.7380   68.9710   -5.9000 C   0  0  0  0  0  2  0  0  0  0  0  0
   23.9900   69.8500   -5.5880 C   0  0  0  0  0  1  0  0  0  0  0  0
   20.8230   68.2530   -6.8430 C   0  0  0  0  0  2  0  0  0  0  0  0
   21.6560   67.4070   -7.7730 C   0  0  0  0  0  2  0  0  0  0  0  0
   23.1790   66.0800   -7.7640 H   0  0  0  0  0  0  0  0  0  0  0  0
  2  1  1  0  0  0  0
  2  3  1  0  0  0  0
  3 14  1  0  0  0  0
  4  3  2  0  0  0  0
  4 10  1  0  0  0  0
  5  4  1  0  0  0  0
  6  7  1  0  0  0  0
  6  5  2  0  0  0  0
  7  2  2  0  0  0  0
  8  7  1  0  0  0  0
  9  6  1  0  0  0  0
 10 12  1  0  0  0  0
 11 10  2  0  0  0  0
 12 24  1  1  0  0  0
 12 15  1  0  0  0  0
 13 12  1  0  0  0  0
 14 13  1  0  0  0  0
 15 16  1  0  0  0  0
 16 22  1  0  0  0  0
 17 16  1  0  0  0  0
 17 18  1  0  0  0  0
 18 20  1  6  0  0  0
 18 19  1  0  0  0  0
 19 21  1  0  0  0  0
 22 21  1  0  0  0  0
 23 16  1  0  0  0  0
 25 26  1  0  0  0  0
 25 24  1  0  0  0  0
 26 27  1  0  0  0  0
 27 28  1  0  0  0  0
 27 29  1  1  0  0  0
 30 28  1  0  0  0  0
 31 25  1  0  0  0  0
 31 30  1  0  0  0  0
 32 25  1  0  0  0  0
M  END
>  <Pose>
1

>  <Score>
-7.154

$$$$
