/Users/jonathanwahrer/Desktop/Msc/3_Semester/Drug_Design_Praktikum/waehrer_HTS_screening/HTS_experiment/out/docking_results/vina_output/3sx0/0862_docked.pdbqt
 OpenBabel03192222063D

 30 33  0  0  0  0  0  0  0  0999 V2000
   23.1150   63.0450  -11.8210 Br  0  0  0  0  0  0  0  0  0  0  0  0
   21.6850   63.3120  -10.6190 C   0  0  0  0  0  0  0  0  0  0  0  0
   21.9870   63.5090   -9.2940 C   0  0  0  0  0  0  0  0  0  0  0  0
   21.0090   63.7190   -8.3070 C   0  0  0  0  0  0  0  0  0  0  0  0
   19.6630   63.7270   -8.6920 C   0  0  0  0  0  3  0  0  0  0  0  0
   19.3750   63.5280  -10.0230 C   0  0  0  0  0  0  0  0  0  0  0  0
   20.3530   63.3230  -10.9790 C   0  0  0  0  0  0  0  0  0  0  0  0
   20.0070   63.1080  -12.4250 C   0  0  0  0  0  1  0  0  0  0  0  0
   17.5420   63.5410  -10.5460 Br  0  0  0  0  0  0  0  0  0  0  0  0
   21.3880   63.9140   -6.9200 C   0  0  0  0  0  0  0  0  0  0  0  0
   20.5770   63.4950   -6.0570 O   0  0  0  0  0  0  0  0  0  0  0  0
   22.6780   64.5810   -6.6590 C   0  0  0  0  0  0  0  0  0  0  0  0
   23.6480   63.6100   -7.4720 C   0  0  0  0  0  2  0  0  0  0  0  0
   23.2790   63.5200   -8.8010 O   0  0  0  0  0  0  0  0  0  0  0  0
   23.1670   64.5630   -5.2950 C   0  0  0  0  0  2  0  0  0  0  0  0
   23.3690   63.4780   -4.4570 N   0  0  0  0  0  4  0  0  0  0  0  0
   23.1610   63.5340   -3.0630 C   0  0  0  0  0  2  0  0  0  0  0  0
   24.0250   62.5580   -2.2740 C   0  0  0  0  0  2  0  0  0  0  0  0
   25.4780   62.8980   -2.3710 C   0  0  0  0  0  2  0  0  0  0  0  0
   25.7390   63.4620   -3.7330 C   0  0  0  0  0  2  0  0  0  0  0  0
   24.7240   62.9330   -4.6920 C   0  0  0  0  0  2  0  0  0  0  0  0
   22.7800   62.6060   -4.7920 H   0  0  0  0  0  0  0  0  0  0  0  0
   22.7130   65.8980   -7.3360 C   0  0  0  0  0  2  0  0  0  0  0  0
   22.5030   67.0840   -6.6180 N   0  0  0  0  0  4  0  0  0  0  0  0
   23.7060   67.9180   -6.7460 C   0  0  0  0  0  2  0  0  0  0  0  0
   23.7000   69.0800   -5.7760 C   0  0  0  0  0  2  0  0  0  0  0  0
   22.5270   69.9740   -6.2100 C   0  0  0  0  0  2  0  0  0  0  0  0
   21.3100   69.0910   -6.0550 C   0  0  0  0  0  2  0  0  0  0  0  0
   21.4320   67.9510   -7.0810 C   0  0  0  0  0  2  0  0  0  0  0  0
   22.3600   67.0230   -5.5890 H   0  0  0  0  0  0  0  0  0  0  0  0
  1  2  1  0  0  0  0
  2  3  1  0  0  0  0
  3 14  1  0  0  0  0
  3  4  2  0  0  0  0
  4 10  1  0  0  0  0
  5  4  1  0  0  0  0
  6  5  2  0  0  0  0
  7  2  2  0  0  0  0
  7  6  1  0  0  0  0
  8  7  1  0  0  0  0
  9  6  1  0  0  0  0
 10 12  1  0  0  0  0
 10 11  2  0  0  0  0
 12 15  1  0  0  0  0
 13 12  1  0  0  0  0
 14 13  1  0  0  0  0
 15 16  1  0  0  0  0
 16 17  1  0  0  0  0
 17 18  1  0  0  0  0
 19 18  1  0  0  0  0
 20 19  1  0  0  0  0
 21 16  1  0  0  0  0
 21 20  1  0  0  0  0
 22 16  1  0  0  0  0
 23 12  1  0  0  0  0
 23 24  1  0  0  0  0
 24 30  1  0  0  0  0
 25 24  1  0  0  0  0
 25 26  1  0  0  0  0
 27 28  1  0  0  0  0
 27 26  1  0  0  0  0
 29 24  1  0  0  0  0
 29 28  1  0  0  0  0
M  END
>  <Pose>
1

>  <Score>
-7.294

$$$$
