/Users/jonathanwahrer/Desktop/Msc/3_Semester/Drug_Design_Praktikum/waehrer_HTS_screening/HTS_experiment/out/docking_results/vina_output/3sx0/0872_docked.pdbqt
 OpenBabel03192222063D

 32 35  0  0  0  0  0  0  0  0999 V2000
   22.9310   64.2230   -9.7840 N   0  0  0  0  0  0  0  0  0  0  0  0
   23.8110   63.9350  -10.7260 N   0  0  0  0  0  0  0  0  0  0  0  0
   23.1210   63.3820  -11.7090 N   0  0  0  0  0  0  0  0  0  0  0  0
   21.8090   63.3140  -11.4030 C   0  0  0  0  0  0  0  0  0  0  0  0
   21.7010   63.8520  -10.1770 C   0  0  0  0  0  0  0  0  0  0  0  0
   20.3600   63.7740   -9.8810 C   0  0  0  0  0  0  0  0  0  0  0  0
   19.8400   64.1770   -8.8070 O   0  0  0  0  0  0  0  0  0  0  0  0
   19.6570   63.2090  -10.8840 N   0  0  0  0  0  0  0  0  0  0  0  0
   20.5560   62.9190  -11.8380 C   0  0  0  0  0  0  0  0  0  0  0  0
   20.2920   62.3770  -12.9440 O   0  0  0  0  0  0  0  0  0  0  0  0
   24.8570   64.1060  -10.7130 H   0  0  0  0  0  0  0  0  0  0  0  0
   23.5740   63.0500  -12.6010 H   0  0  0  0  0  0  0  0  0  0  0  0
   23.2860   64.8520   -8.5310 C   0  0  0  0  0  2  0  0  0  0  0  0
   23.7330   63.7850   -7.5520 C   0  0  0  0  0  0  0  0  0  0  0  0
   24.2890   64.1670   -6.3340 N   0  0  0  0  0  0  0  0  0  0  0  0
   24.3620   65.2290   -6.1670 H   0  0  0  0  0  0  0  0  0  0  0  0
   23.5740   62.6110   -7.9020 O   0  0  0  0  0  0  0  0  0  0  0  0
   24.7440   63.2860   -5.3410 C   0  0  0  0  0  0  0  0  0  0  0  0
   23.9550   63.1080   -4.1930 C   0  0  0  0  0  0  0  0  0  0  0  0
   22.7880   63.8070   -4.1150 F   0  0  0  0  0  0  0  0  0  0  0  0
   24.3630   62.2560   -3.1990 C   0  0  0  0  0  3  0  0  0  0  0  0
   25.5500   61.5620   -3.3050 C   0  0  0  0  0  0  0  0  0  0  0  0
   26.3510   61.7080   -4.4140 C   0  0  0  0  0  3  0  0  0  0  0  0
   25.9170   60.7310   -2.3020 F   0  0  0  0  0  0  0  0  0  0  0  0
   25.9090   62.5900   -5.4240 C   0  0  0  0  0  3  0  0  0  0  0  0
   18.2370   62.9820  -10.8880 C   0  0  0  0  0  0  0  0  0  0  0  0
   17.3610   64.0000  -11.2120 C   0  0  0  0  0  3  0  0  0  0  0  0
   15.9930   63.8290  -11.2290 C   0  0  0  0  0  3  0  0  0  0  0  0
   15.5100   62.5760  -10.9040 C   0  0  0  0  0  0  0  0  0  0  0  0
   16.3400   61.5180  -10.5710 C   0  0  0  0  0  3  0  0  0  0  0  0
   13.6010   62.3610  -10.9340 Br  0  0  0  0  0  0  0  0  0  0  0  0
   17.7000   61.7570  -10.5720 C   0  0  0  0  0  3  0  0  0  0  0  0
  1 13  1  0  0  0  0
  2 11  1  0  0  0  0
  2  1  1  0  0  0  0
  3  4  1  0  0  0  0
  3  2  1  0  0  0  0
  4  5  2  0  0  0  0
  5  6  1  0  0  0  0
  5  1  1  0  0  0  0
  6  7  2  0  0  0  0
  8  6  1  0  0  0  0
  9  4  1  0  0  0  0
  9  8  1  0  0  0  0
 10  9  2  0  0  0  0
 12  3  1  0  0  0  0
 13 14  1  0  0  0  0
 14 15  1  0  0  0  0
 15 16  1  0  0  0  0
 15 18  1  0  0  0  0
 17 14  2  0  0  0  0
 18 19  1  0  0  0  0
 19 20  1  0  0  0  0
 19 21  2  0  0  0  0
 22 21  1  0  0  0  0
 22 24  1  0  0  0  0
 23 22  2  0  0  0  0
 25 18  2  0  0  0  0
 25 23  1  0  0  0  0
 26  8  1  0  0  0  0
 26 32  1  0  0  0  0
 27 26  2  0  0  0  0
 28 27  1  0  0  0  0
 28 29  2  0  0  0  0
 29 30  1  0  0  0  0
 31 29  1  0  0  0  0
 32 30  2  0  0  0  0
M  END
>  <Pose>
1

>  <Score>
-9.915

$$$$
