/Users/jonathanwahrer/Desktop/Msc/3_Semester/Drug_Design_Praktikum/waehrer_HTS_screening/HTS_experiment/out/docking_results/vina_output/3sx0/0873_docked.pdbqt
 OpenBabel03192222073D

 32 35  0  0  1  0  0  0  0  0999 V2000
   10.3110   66.5650  -16.4370 C   0  0  2  0  0  3  0  0  0  0  0  0
    9.0350   65.8720  -16.3480 N   0  0  0  0  0  0  0  0  0  0  0  0
    8.8330   65.8260  -14.9190 C   0  0  0  0  0  0  0  0  0  0  0  0
    7.7490   65.8440  -14.2780 O   0  0  0  0  0  0  0  0  0  0  0  0
   10.1640   65.7500  -14.2530 C   0  0  0  0  0  0  0  0  0  0  0  0
   10.4960   65.6920  -13.0700 O   0  0  0  0  0  0  0  0  0  0  0  0
   11.0930   65.7590  -15.4210 C   0  0  0  0  0  0  0  0  0  0  0  0
   12.2760   65.2010  -15.4920 C   0  0  0  0  0  0  0  0  0  0  0  0
   13.0230   65.3220  -16.6810 O   0  0  0  0  0  1  0  0  0  0  0  0
    8.1380   65.3390  -17.2810 C   0  0  0  0  0  2  0  0  0  0  0  0
    8.1670   63.8910  -17.6140 C   0  0  0  0  0  2  0  0  0  0  0  0
    8.9280   63.0890  -16.6990 N   0  0  0  0  0  4  0  0  0  0  0  0
    9.5550   62.0090  -17.4310 C   0  0  0  0  0  2  0  0  0  0  0  0
   10.4670   61.2030  -16.5240 C   0  0  0  0  0  2  0  0  0  0  0  0
    9.7230   60.6850  -15.4820 O   0  0  0  0  0  0  0  0  0  0  0  0
    9.0770   61.7040  -14.7880 C   0  0  0  0  0  2  0  0  0  0  0  0
    8.0700   62.4090  -15.7070 C   0  0  0  0  0  2  0  0  0  0  0  0
    9.5900   63.6300  -16.1060 H   0  0  0  0  0  0  0  0  0  0  0  0
   10.2840   67.9650  -15.9840 C   0  0  0  0  0  0  0  0  0  0  0  0
    9.3260   68.8700  -16.3940 C   0  0  0  0  0  0  0  0  0  0  0  0
    8.3410   68.5260  -17.2090 F   0  0  0  0  0  0  0  0  0  0  0  0
    9.3510   70.2000  -15.9640 C   0  0  0  0  0  3  0  0  0  0  0  0
   10.3180   70.6500  -15.1260 C   0  0  0  0  0  3  0  0  0  0  0  0
   11.2840   69.7850  -14.6990 C   0  0  0  0  0  3  0  0  0  0  0  0
   11.2400   68.4710  -15.1390 C   0  0  0  0  0  3  0  0  0  0  0  0
   12.8440   64.4560  -14.3780 C   0  0  0  0  0  0  0  0  0  0  0  0
   12.5410   63.1190  -14.2440 C   0  0  0  0  0  3  0  0  0  0  0  0
   13.0240   62.3570  -13.1930 C   0  0  0  0  0  3  0  0  0  0  0  0
   13.8360   62.9380  -12.2430 C   0  0  0  0  0  0  0  0  0  0  0  0
   14.1480   64.2580  -12.3540 C   0  0  0  0  0  3  0  0  0  0  0  0
   14.5230   61.9020  -10.7690 Br  0  0  0  0  0  0  0  0  0  0  0  0
   13.6510   65.0210  -13.4260 C   0  0  0  0  0  3  0  0  0  0  0  0
  1  2  1  0  0  0  0
  1 19  1  1  0  0  0
  1  7  1  0  0  0  0
  2  3  1  0  0  0  0
  3  4  2  0  0  0  0
  3  5  1  0  0  0  0
  5  6  2  0  0  0  0
  7  5  1  0  0  0  0
  8  7  2  0  0  0  0
  8 26  1  0  0  0  0
  9  8  1  0  0  0  0
 10  2  1  0  0  0  0
 11 10  1  0  0  0  0
 11 12  1  0  0  0  0
 12 18  1  0  0  0  0
 12 17  1  0  0  0  0
 13 12  1  0  0  0  0
 13 14  1  0  0  0  0
 14 15  1  0  0  0  0
 15 16  1  0  0  0  0
 17 16  1  0  0  0  0
 19 25  1  0  0  0  0
 20 19  2  0  0  0  0
 20 22  1  0  0  0  0
 21 20  1  0  0  0  0
 22 23  2  0  0  0  0
 23 24  1  0  0  0  0
 25 24  2  0  0  0  0
 26 27  2  0  0  0  0
 26 32  1  0  0  0  0
 27 28  1  0  0  0  0
 28 29  2  0  0  0  0
 29 31  1  0  0  0  0
 30 29  1  0  0  0  0
 32 30  2  0  0  0  0
M  END
>  <Pose>
1

>  <Score>
-4.874

$$$$
