/Users/jonathanwahrer/Desktop/Msc/3_Semester/Drug_Design_Praktikum/waehrer_HTS_screening/HTS_experiment/out/docking_results/vina_output/3sx0/0874_docked.pdbqt
 OpenBabel03192222073D

 31 34  0  0  0  0  0  0  0  0999 V2000
   23.0240   64.1280   -9.8810 N   0  0  0  0  0  0  0  0  0  0  0  0
   23.8520   63.7480  -10.8290 N   0  0  0  0  0  0  0  0  0  0  0  0
   23.1880   63.1610  -11.8130 N   0  0  0  0  0  0  0  0  0  0  0  0
   21.8760   63.1590  -11.4900 C   0  0  0  0  0  0  0  0  0  0  0  0
   21.7920   63.7490  -10.3150 C   0  0  0  0  0  0  0  0  0  0  0  0
   20.4470   63.7470   -9.9810 C   0  0  0  0  0  0  0  0  0  0  0  0
   19.9840   64.2290   -8.9250 O   0  0  0  0  0  0  0  0  0  0  0  0
   19.7120   63.1620  -10.9440 N   0  0  0  0  0  0  0  0  0  0  0  0
   20.6020   62.7950  -11.8850 C   0  0  0  0  0  0  0  0  0  0  0  0
   20.3320   62.2120  -12.9580 O   0  0  0  0  0  0  0  0  0  0  0  0
   24.8920   63.9050  -10.7830 H   0  0  0  0  0  0  0  0  0  0  0  0
   23.6040   62.7650  -12.6910 H   0  0  0  0  0  0  0  0  0  0  0  0
   23.3200   64.8030   -8.6310 C   0  0  0  0  0  2  0  0  0  0  0  0
   23.7360   63.8030   -7.6090 C   0  0  0  0  0  0  0  0  0  0  0  0
   24.1770   64.1960   -6.3490 N   0  0  0  0  0  0  0  0  0  0  0  0
   24.1930   65.2550   -6.1750 H   0  0  0  0  0  0  0  0  0  0  0  0
   23.6650   62.6110   -7.9490 O   0  0  0  0  0  0  0  0  0  0  0  0
   24.6040   63.3680   -5.2720 C   0  0  0  0  0  0  0  0  0  0  0  0
   23.8100   63.2740   -4.1180 C   0  0  0  0  0  0  0  0  0  0  0  0
   22.6480   63.9880   -4.0750 F   0  0  0  0  0  0  0  0  0  0  0  0
   24.1650   62.4950   -3.0460 C   0  0  0  0  0  3  0  0  0  0  0  0
   25.3290   61.7640   -3.0570 C   0  0  0  0  0  3  0  0  0  0  0  0
   26.1040   61.8520   -4.1760 C   0  0  0  0  0  3  0  0  0  0  0  0
   25.7610   62.6320   -5.2670 C   0  0  0  0  0  3  0  0  0  0  0  0
   18.2960   62.9810  -10.9470 C   0  0  0  0  0  0  0  0  0  0  0  0
   17.7300   61.7690  -10.6040 C   0  0  0  0  0  3  0  0  0  0  0  0
   16.3630   61.5760  -10.6000 C   0  0  0  0  0  3  0  0  0  0  0  0
   15.5000   62.5970  -10.9440 C   0  0  0  0  0  0  0  0  0  0  0  0
   16.0440   63.8160  -11.2910 C   0  0  0  0  0  3  0  0  0  0  0  0
   13.6030   62.3590  -10.9480 Br  0  0  0  0  0  0  0  0  0  0  0  0
   17.4140   63.9870  -11.2880 C   0  0  0  0  0  3  0  0  0  0  0  0
  1 13  1  0  0  0  0
  2 11  1  0  0  0  0
  2  1  1  0  0  0  0
  3  4  1  0  0  0  0
  3  2  1  0  0  0  0
  4  5  2  0  0  0  0
  5  6  1  0  0  0  0
  5  1  1  0  0  0  0
  6  7  2  0  0  0  0
  8  6  1  0  0  0  0
  9  4  1  0  0  0  0
  9  8  1  0  0  0  0
 10  9  2  0  0  0  0
 12  3  1  0  0  0  0
 13 14  1  0  0  0  0
 14 15  1  0  0  0  0
 15 16  1  0  0  0  0
 15 18  1  0  0  0  0
 17 14  2  0  0  0  0
 18 24  2  0  0  0  0
 18 19  1  0  0  0  0
 19 20  1  0  0  0  0
 19 21  2  0  0  0  0
 22 21  1  0  0  0  0
 23 22  2  0  0  0  0
 24 23  1  0  0  0  0
 25  8  1  0  0  0  0
 25 26  1  0  0  0  0
 26 27  2  0  0  0  0
 28 27  1  0  0  0  0
 29 31  1  0  0  0  0
 29 28  2  0  0  0  0
 30 28  1  0  0  0  0
 31 25  2  0  0  0  0
M  END
>  <Pose>
1

>  <Score>
-9.994

$$$$
