/Users/jonathanwahrer/Desktop/Msc/3_Semester/Drug_Design_Praktikum/waehrer_HTS_screening/HTS_experiment/out/docking_results/vina_output/3sx0/0886_docked.pdbqt
 OpenBabel03192222073D

 31 34  0  0  0  0  0  0  0  0999 V2000
   18.3970   62.5250  -10.2450 N   0  0  0  0  0  0  0  0  0  0  0  0
   17.3590   63.2630  -10.6720 C   0  0  0  0  0  0  0  0  0  0  0  0
   17.4750   64.5010  -10.8870 O   0  0  0  0  0  0  0  0  0  0  0  0
   16.2120   62.5090  -10.8330 C   0  0  0  0  0  0  0  0  0  0  0  0
   16.5670   61.2740  -10.4910 C   0  0  0  0  0  0  0  0  0  0  0  0
   15.4810   60.5070  -10.6280 N   0  0  0  0  0  0  0  0  0  0  0  0
   14.4850   61.2650  -11.0460 N   0  0  0  0  0  0  0  0  0  0  0  0
   14.9020   62.5190  -11.1850 N   0  0  0  0  0  0  0  0  0  0  0  0
   17.8970   61.2680  -10.1300 C   0  0  0  0  0  0  0  0  0  0  0  0
   18.6130   60.3000   -9.7450 O   0  0  0  0  0  0  0  0  0  0  0  0
   15.4660   59.4690  -10.4260 H   0  0  0  0  0  0  0  0  0  0  0  0
   13.5230   60.9530  -11.2410 H   0  0  0  0  0  0  0  0  0  0  0  0
   14.1730   63.6770  -11.6140 C   0  0  0  0  0  2  0  0  0  0  0  0
   13.2440   63.4630  -12.7300 C   0  0  0  0  0  0  0  0  0  0  0  0
   13.2660   62.3550  -13.2880 O   0  0  0  0  0  0  0  0  0  0  0  0
   12.3720   64.4770  -13.1360 N   0  0  0  0  0  0  0  0  0  0  0  0
   12.4070   65.4180  -12.6000 H   0  0  0  0  0  0  0  0  0  0  0  0
   11.4140   64.4680  -14.1760 C   0  0  0  0  0  0  0  0  0  0  0  0
   11.7700   64.5980  -15.4970 C   0  0  0  0  0  3  0  0  0  0  0  0
   10.8520   64.5950  -16.5520 C   0  0  0  0  0  3  0  0  0  0  0  0
    9.5300   64.4510  -16.2120 C   0  0  0  0  0  0  0  0  0  0  0  0
    9.1480   64.3190  -14.9010 C   0  0  0  0  0  3  0  0  0  0  0  0
    8.2090   64.4360  -17.6160 Br  0  0  0  0  0  0  0  0  0  0  0  0
   10.0680   64.3260  -13.8850 C   0  0  0  0  0  3  0  0  0  0  0  0
   19.7310   62.9440   -9.9600 C   0  0  0  0  0  0  0  0  0  0  0  0
   20.1870   63.2700   -8.7030 C   0  0  0  0  0  3  0  0  0  0  0  0
   21.5040   63.6810   -8.4830 C   0  0  0  0  0  3  0  0  0  0  0  0
   22.3810   63.7720   -9.5260 C   0  0  0  0  0  0  0  0  0  0  0  0
   23.6660   64.1770   -9.3000 F   0  0  0  0  0  0  0  0  0  0  0  0
   21.9460   63.4510  -10.7910 C   0  0  0  0  0  3  0  0  0  0  0  0
   20.6460   63.0460  -10.9960 C   0  0  0  0  0  3  0  0  0  0  0  0
  1  9  1  0  0  0  0
  1 25  1  0  0  0  0
  2  1  1  0  0  0  0
  3  2  2  0  0  0  0
  4  2  1  0  0  0  0
  4  5  2  0  0  0  0
  5  9  1  0  0  0  0
  6  5  1  0  0  0  0
  6 11  1  0  0  0  0
  7  6  1  0  0  0  0
  8  7  1  0  0  0  0
  8  4  1  0  0  0  0
  9 10  2  0  0  0  0
 12  7  1  0  0  0  0
 13  8  1  0  0  0  0
 14 13  1  0  0  0  0
 15 14  2  0  0  0  0
 16 14  1  0  0  0  0
 16 17  1  0  0  0  0
 18 24  1  0  0  0  0
 18 16  1  0  0  0  0
 19 18  2  0  0  0  0
 20 21  2  0  0  0  0
 20 19  1  0  0  0  0
 21 22  1  0  0  0  0
 22 24  2  0  0  0  0
 23 21  1  0  0  0  0
 25 26  1  0  0  0  0
 26 27  2  0  0  0  0
 28 29  1  0  0  0  0
 28 27  1  0  0  0  0
 30 28  2  0  0  0  0
 31 30  1  0  0  0  0
 31 25  2  0  0  0  0
M  END
>  <Pose>
1

>  <Score>
-8.905

$$$$
