/Users/jonathanwahrer/Desktop/Msc/3_Semester/Drug_Design_Praktikum/waehrer_HTS_screening/HTS_experiment/out/docking_results/vina_output/3sx0/0908_docked.pdbqt
 OpenBabel03192222083D

 25 28  0  0  0  0  0  0  0  0999 V2000
   19.1110   62.3580  -10.4820 N   0  0  0  0  0  0  0  0  0  0  0  0
   19.8410   62.7780   -9.4340 C   0  0  0  0  0  0  0  0  0  0  0  0
   19.4960   62.6830   -8.2180 O   0  0  0  0  0  0  0  0  0  0  0  0
   21.0350   63.3370   -9.8430 C   0  0  0  0  0  0  0  0  0  0  0  0
   21.0310   63.2540  -11.1630 C   0  0  0  0  0  0  0  0  0  0  0  0
   22.2060   63.8050  -11.5490 N   0  0  0  0  0  0  0  0  0  0  0  0
   22.8970   64.2060  -10.4990 N   0  0  0  0  0  0  0  0  0  0  0  0
   22.1920   63.9280   -9.4330 N   0  0  0  0  0  0  0  0  0  0  0  0
   19.8500   62.6520  -11.5670 C   0  0  0  0  0  0  0  0  0  0  0  0
   19.5360   62.4240  -12.7810 O   0  0  0  0  0  0  0  0  0  0  0  0
   22.5390   63.9070  -12.5310 H   0  0  0  0  0  0  0  0  0  0  0  0
   23.8320   64.6630  -10.5130 H   0  0  0  0  0  0  0  0  0  0  0  0
   17.8280   61.7300  -10.4840 C   0  0  0  0  0  0  0  0  0  0  0  0
   16.6690   62.4560  -10.6670 C   0  0  0  0  0  0  0  0  0  0  0  0
   16.8660   64.5450  -10.9470 I   0  0  0  0  0  0  0  0  0  0  0  0
   15.4190   61.8710  -10.6720 C   0  0  0  0  0  3  0  0  0  0  0  0
   15.2780   60.5100  -10.4910 C   0  0  0  0  0  3  0  0  0  0  0  0
   16.4300   59.7750  -10.3070 C   0  0  0  0  0  3  0  0  0  0  0  0
   17.6790   60.3700  -10.3040 C   0  0  0  0  0  3  0  0  0  0  0  0
   22.5190   64.1700   -8.0710 C   0  0  0  0  0  0  0  0  0  0  0  0
   21.7910   65.0380   -7.2870 C   0  0  0  0  0  3  0  0  0  0  0  0
   22.1350   65.2520   -5.9620 C   0  0  0  0  0  3  0  0  0  0  0  0
   23.2090   64.6150   -5.3760 C   0  0  0  0  0  3  0  0  0  0  0  0
   23.9380   63.7450   -6.1590 C   0  0  0  0  0  3  0  0  0  0  0  0
   23.6040   63.5270   -7.4740 C   0  0  0  0  0  3  0  0  0  0  0  0
  1  2  1  0  0  0  0
  2  3  2  0  0  0  0
  4  2  1  0  0  0  0
  4  8  1  0  0  0  0
  5  4  2  0  0  0  0
  6  5  1  0  0  0  0
  6  7  1  0  0  0  0
  7  8  1  0  0  0  0
  8 20  1  0  0  0  0
  9  5  1  0  0  0  0
  9  1  1  0  0  0  0
 10  9  2  0  0  0  0
 11  6  1  0  0  0  0
 12  7  1  0  0  0  0
 13  1  1  0  0  0  0
 13 19  1  0  0  0  0
 14 13  2  0  0  0  0
 15 14  1  0  0  0  0
 16 14  1  0  0  0  0
 16 17  2  0  0  0  0
 17 18  1  0  0  0  0
 18 19  2  0  0  0  0
 20 25  2  0  0  0  0
 20 21  1  0  0  0  0
 21 22  2  0  0  0  0
 22 23  1  0  0  0  0
 24 23  2  0  0  0  0
 25 24  1  0  0  0  0
M  END
>  <Pose>
1

>  <Score>
-9.344

$$$$
