/Users/jonathanwahrer/Desktop/Msc/3_Semester/Drug_Design_Praktikum/waehrer_HTS_screening/HTS_experiment/out/docking_results/vina_output/3sx0/0910_docked.pdbqt
 OpenBabel03192222083D

 26 29  0  0  0  0  0  0  0  0999 V2000
   17.7740   63.6320  -10.3160 C   0  0  0  0  0  0  0  0  0  0  0  0
   17.1020   62.3920  -10.4120 C   0  0  0  0  0  0  0  0  0  0  0  0
   17.4910   61.1580  -10.1110 N   0  0  0  0  0  0  0  0  0  0  0  0
   16.5140   60.3460  -10.3800 O   0  0  0  0  0  0  0  0  0  0  0  0
   15.5070   60.9940  -10.8440 N   0  0  0  0  0  0  0  0  0  0  0  0
   15.8340   62.2920  -10.8820 C   0  0  0  0  0  0  0  0  0  0  0  0
   15.1620   63.4260  -11.2830 C   0  0  0  0  0  0  0  0  0  0  0  0
   15.7860   64.6440  -11.2050 C   0  0  0  0  0  3  0  0  0  0  0  0
   17.0770   64.7590  -10.7280 C   0  0  0  0  0  3  0  0  0  0  0  0
   19.0270   63.5720   -9.7420 N   0  0  0  0  0  0  0  0  0  0  0  0
   20.2370   63.5140   -9.1870 C   0  0  0  0  0  0  0  0  0  0  0  0
   20.4470   63.4240   -7.9090 O   0  0  0  0  0  0  0  0  0  0  0  0
   18.4520   63.6970   -8.5140 H   0  0  0  0  0  0  0  0  0  0  0  0
   21.5360   63.5450   -9.9120 C   0  0  0  0  0  0  0  0  0  0  0  0
   22.7540   63.8420   -9.3410 C   0  0  0  0  0  0  0  0  0  0  0  0
   23.1000   64.3920   -7.3140 I   0  0  0  0  0  0  0  0  0  0  0  0
   23.7110   63.7140  -10.3170 C   0  0  0  0  0  3  0  0  0  0  0  0
   23.0650   63.3530  -11.4240 N   0  0  0  0  0  0  0  0  0  0  0  0
   21.7620   63.2470  -11.1940 N   0  0  0  0  0  0  0  0  0  0  0  0
   20.7960   62.8140  -12.2210 C   0  0  0  0  0  1  0  0  0  0  0  0
   13.8550   63.2800  -11.7700 N   0  0  0  0  0  0  0  0  0  0  0  0
   13.3310   62.0040  -12.2610 C   0  0  0  0  0  2  0  0  0  0  0  0
   13.0190   62.2560  -13.7220 C   0  0  0  0  0  2  0  0  0  0  0  0
   13.2690   63.5570  -14.1280 O   0  0  0  0  0  0  0  0  0  0  0  0
   12.6680   64.5380  -13.3680 C   0  0  0  0  0  2  0  0  0  0  0  0
   12.8430   64.3070  -11.8770 C   0  0  0  0  0  2  0  0  0  0  0  0
  1 10  1  0  0  0  0
  2  1  1  0  0  0  0
  2  3  2  0  0  0  0
  4  3  1  0  0  0  0
  5  4  1  0  0  0  0
  6  5  2  0  0  0  0
  6  2  1  0  0  0  0
  7  8  2  0  0  0  0
  7  6  1  0  0  0  0
  8  9  1  0  0  0  0
  9  1  2  0  0  0  0
 10 11  1  0  0  0  0
 10 13  1  0  0  0  0
 11 12  2  0  0  0  0
 14 15  2  0  0  0  0
 14 11  1  0  0  0  0
 15 16  1  0  0  0  0
 17 15  1  0  0  0  0
 18 19  1  0  0  0  0
 18 17  2  0  0  0  0
 19 14  1  0  0  0  0
 20 19  1  0  0  0  0
 21  7  1  0  0  0  0
 22 21  1  0  0  0  0
 23 22  1  0  0  0  0
 24 23  1  0  0  0  0
 24 25  1  0  0  0  0
 25 26  1  0  0  0  0
 26 21  1  0  0  0  0
M  END
>  <Pose>
1

>  <Score>
-7.600

$$$$
