/Users/jonathanwahrer/Desktop/Msc/3_Semester/Drug_Design_Praktikum/waehrer_HTS_screening/HTS_experiment/out/docking_results/vina_output/3sx0/0935_docked.pdbqt
 OpenBabel03192222093D

 34 38  0  0  1  0  0  0  0  0999 V2000
   11.3090   63.2160  -15.2320 N   0  0  0  0  0  0  0  0  0  0  0  0
   10.8570   64.2660  -15.9400 C   0  0  0  0  0  0  0  0  0  0  0  0
   11.4860   65.4910  -15.9310 C   0  0  2  0  0  3  0  0  0  0  0  0
   12.6200   65.5820  -15.1470 C   0  0  0  0  0  0  0  0  0  0  0  0
   13.3120   66.6380  -15.0300 O   0  0  0  0  0  0  0  0  0  0  0  0
   13.0910   64.5200  -14.4210 N   0  0  0  0  0  0  0  0  0  0  0  0
   12.4160   63.3600  -14.4850 C   0  0  0  0  0  0  0  0  0  0  0  0
   12.8100   62.3580  -13.8360 O   0  0  0  0  0  0  0  0  0  0  0  0
    9.7290   64.1340  -16.7090 O   0  0  0  0  0  0  0  0  0  0  0  0
   13.9420   64.5930  -13.8330 H   0  0  0  0  0  0  0  0  0  0  0  0
   11.0510   66.6720  -16.6540 C   0  0  1  0  0  3  0  0  0  0  0  0
    9.6510   66.8180  -16.8960 N   0  0  0  0  0  4  0  0  0  0  0  0
    8.8510   66.9710  -15.7120 C   0  0  0  0  0  2  0  0  0  0  0  0
    9.5180   68.1110  -17.6160 C   0  0  0  0  0  1  0  0  0  0  0  0
    9.2290   66.1650  -17.5770 H   0  0  0  0  0  0  0  0  0  0  0  0
    9.6710   67.1920  -14.4580 C   0  0  0  0  0  2  0  0  0  0  0  0
   10.7530   68.1980  -14.7690 C   0  0  0  0  0  0  0  0  0  0  0  0
   11.4470   67.9280  -15.9210 C   0  0  0  0  0  0  0  0  0  0  0  0
   11.0140   69.2940  -14.0140 C   0  0  0  0  0  3  0  0  0  0  0  0
   12.4410   68.7740  -16.3510 C   0  0  0  0  0  0  0  0  0  0  0  0
   12.7030   69.8940  -15.5750 C   0  0  0  0  0  0  0  0  0  0  0  0
   12.0150   70.1790  -14.4130 C   0  0  0  0  0  0  0  0  0  0  0  0
   13.6270   70.9400  -15.7190 O   0  0  0  0  0  0  0  0  0  0  0  0
   12.5160   71.3580  -13.8840 O   0  0  0  0  0  0  0  0  0  0  0  0
   13.7810   71.6460  -14.5020 C   0  0  0  0  0  2  0  0  0  0  0  0
   13.1260   68.4980  -17.5000 O   0  0  0  0  0  0  0  0  0  0  0  0
   14.4660   68.1420  -17.6160 C   0  0  0  0  0  1  0  0  0  0  0  0
   10.6430   61.9630  -15.2560 C   0  0  0  0  0  0  0  0  0  0  0  0
   10.7860   61.0640  -16.3010 C   0  0  0  0  0  3  0  0  0  0  0  0
   10.1470   59.8590  -16.3260 C   0  0  0  0  0  3  0  0  0  0  0  0
    9.3110   59.4840  -15.2800 C   0  0  0  0  0  0  0  0  0  0  0  0
    8.3330   57.6280  -15.3320 I   0  0  0  0  0  0  0  0  0  0  0  0
    9.1670   60.3740  -14.2410 C   0  0  0  0  0  3  0  0  0  0  0  0
    9.8090   61.5940  -14.2070 C   0  0  0  0  0  3  0  0  0  0  0  0
  1  7  1  0  0  0  0
  2  1  1  0  0  0  0
  3  2  1  1  0  0  0
  3  4  1  0  0  0  0
  4  5  2  0  0  0  0
  4  6  1  0  0  0  0
  6 10  1  0  0  0  0
  7  6  1  0  0  0  0
  7  8  2  0  0  0  0
  9  2  2  0  0  0  0
 11  3  1  0  0  0  0
 11 18  1  1  0  0  0
 12 11  1  0  0  0  0
 12 13  1  0  0  0  0
 13 16  1  0  0  0  0
 14 12  1  0  0  0  0
 15 12  1  0  0  0  0
 17 16  1  0  0  0  0
 17 19  1  0  0  0  0
 18 17  2  0  0  0  0
 20 18  1  0  0  0  0
 20 21  2  0  0  0  0
 21 22  1  0  0  0  0
 22 19  2  0  0  0  0
 22 24  1  0  0  0  0
 23 21  1  0  0  0  0
 23 25  1  0  0  0  0
 25 24  1  0  0  0  0
 26 20  1  0  0  0  0
 27 26  1  0  0  0  0
 28  1  1  0  0  0  0
 28 34  1  0  0  0  0
 29 28  2  0  0  0  0
 30 29  1  0  0  0  0
 30 31  2  0  0  0  0
 31 33  1  0  0  0  0
 32 31  1  0  0  0  0
 33 34  2  0  0  0  0
M  END
>  <Pose>
1

>  <Score>
-4.465

$$$$
