/Users/jonathanwahrer/Desktop/Msc/3_Semester/Drug_Design_Praktikum/waehrer_HTS_screening/HTS_experiment/out/docking_results/vina_output/3sx0/0937_docked.pdbqt
 OpenBabel03192222093D

 26 29  0  0  1  0  0  0  0  0999 V2000
   22.7540   63.9210   -8.5240 N   0  0  0  0  0  0  0  0  0  0  0  0
   21.5690   64.6140   -8.8800 C   0  0  0  0  0  0  0  0  0  0  0  0
   21.0360   65.4990   -8.1620 O   0  0  0  0  0  0  0  0  0  0  0  0
   21.0860   64.1310  -10.2030 C   0  0  1  0  0  3  0  0  0  0  0  0
   22.3870   63.7150  -10.8670 C   0  0  0  0  0  2  0  0  0  0  0  0
   23.2990   63.4220   -9.7440 C   0  0  0  0  0  0  0  0  0  0  0  0
   24.4100   62.8190   -9.8150 O   0  0  0  0  0  0  0  0  0  0  0  0
   20.1940   63.0670   -9.9880 N   0  0  1  0  0  0  0  0  0  0  0  0
   19.2560   63.1050   -8.9570 C   0  0  0  0  0  2  0  0  0  0  0  0
   18.0800   62.1860   -9.3810 C   0  0  0  0  0  2  0  0  0  0  0  0
   17.6940   62.5480  -10.7360 N   0  0  0  0  0  0  0  0  0  0  0  0
   18.7080   62.4080  -11.7510 C   0  0  0  0  0  2  0  0  0  0  0  0
   20.0300   62.1420  -11.0360 C   0  0  0  0  0  2  0  0  0  0  0  0
   16.3960   63.0150  -11.0270 C   0  0  0  0  0  0  0  0  0  0  0  0
   15.3130   62.2080  -10.8620 N   0  0  0  0  0  0  0  0  0  0  0  0
   14.0640   62.5950  -11.1100 C   0  0  0  0  0  3  0  0  0  0  0  0
   13.8100   63.8820  -11.5630 C   0  0  0  0  0  3  0  0  0  0  0  0
   14.9150   64.6990  -11.7290 C   0  0  0  0  0  3  0  0  0  0  0  0
   16.1560   64.2680  -11.4670 N   0  0  0  0  0  0  0  0  0  0  0  0
   23.3210   63.7390   -7.2130 C   0  0  0  0  0  0  0  0  0  0  0  0
   22.7990   64.4360   -6.1430 C   0  0  0  0  0  3  0  0  0  0  0  0
   23.3100   64.2960   -4.8690 C   0  0  0  0  0  3  0  0  0  0  0  0
   24.3680   63.4470   -4.6190 C   0  0  0  0  0  0  0  0  0  0  0  0
   25.1790   63.2010   -2.6840 I   0  0  0  0  0  0  0  0  0  0  0  0
   24.9010   62.7420   -5.6760 C   0  0  0  0  0  3  0  0  0  0  0  0
   24.3740   62.8980   -6.9430 C   0  0  0  0  0  3  0  0  0  0  0  0
  1 20  1  0  0  0  0
  2  1  1  0  0  0  0
  2  3  2  0  0  0  0
  4  5  1  6  0  0  0
  4  8  1  0  0  0  0
  4  2  1  0  0  0  0
  5  6  1  0  0  0  0
  6  1  1  0  0  0  0
  7  6  2  0  0  0  0
  8 13  1  6  0  0  0
  8  9  1  0  0  0  0
 10  9  1  0  0  0  0
 11 10  1  0  0  0  0
 12 13  1  0  0  0  0
 12 11  1  0  0  0  0
 14 15  2  0  0  0  0
 14 11  1  0  0  0  0
 16 15  1  0  0  0  0
 17 16  2  0  0  0  0
 18 17  1  0  0  0  0
 18 19  2  0  0  0  0
 19 14  1  0  0  0  0
 20 26  2  0  0  0  0
 20 21  1  0  0  0  0
 21 22  2  0  0  0  0
 22 23  1  0  0  0  0
 23 24  1  0  0  0  0
 25 23  2  0  0  0  0
 26 25  1  0  0  0  0
M  END
>  <Pose>
1

>  <Score>
-7.814

$$$$
