/Users/jonathanwahrer/Desktop/Msc/3_Semester/Drug_Design_Praktikum/waehrer_HTS_screening/HTS_experiment/out/docking_results/vina_output/3sx0/0956_docked.pdbqt
 OpenBabel03192222093D

 30 33  0  0  1  0  0  0  0  0999 V2000
   14.7500   65.3200  -11.7280 I   0  0  0  0  0  0  0  0  0  0  0  0
   16.1600   63.8900  -11.0860 C   0  0  0  0  0  0  0  0  0  0  0  0
   15.9400   62.5550  -10.9200 C   0  0  0  0  0  0  0  0  0  0  0  0
   17.1660   62.0490  -10.4880 C   0  0  0  0  0  0  0  0  0  0  0  0
   18.0900   63.0070  -10.3920 N   0  0  0  0  0  0  0  0  0  0  0  0
   17.4820   64.1360  -10.7560 C   0  0  0  0  0  3  0  0  0  0  0  0
   17.2440   60.7310  -10.2410 N   0  0  0  0  0  0  0  0  0  0  0  0
   16.1790   59.9310  -10.4050 C   0  0  0  0  0  3  0  0  0  0  0  0
   15.0050   60.4190  -10.8180 N   0  0  0  0  0  0  0  0  0  0  0  0
   14.8380   61.7500  -11.0920 C   0  0  0  0  0  0  0  0  0  0  0  0
   19.4590   62.8970   -9.9880 C   0  0  2  0  0  3  0  0  0  0  0  0
   19.6960   63.3360   -8.6910 O   0  0  0  0  0  0  0  0  0  0  0  0
   21.0820   63.2560   -8.5970 C   0  0  1  0  0  3  0  0  0  0  0  0
   21.6420   63.7300   -9.9180 C   0  0  2  0  0  3  0  0  0  0  0  0
   20.3770   63.8340  -10.7780 C   0  0  0  0  0  2  0  0  0  0  0  0
   21.5910   64.2420   -7.5360 C   0  0  0  0  0  2  0  0  0  0  0  0
   22.6920   64.9360   -8.0560 O   0  0  0  0  0  0  0  0  0  0  0  0
   23.5120   64.7780   -7.4910 H   0  0  0  0  0  0  0  0  0  0  0  0
   22.4420   62.7570  -10.5190 O   0  0  0  0  0  0  0  0  0  0  0  0
   21.8750   61.9260  -10.5440 H   0  0  0  0  0  0  0  0  0  0  0  0
   13.5650   62.2130  -11.5300 N   0  0  0  0  0  0  0  0  0  0  0  0
   13.2320   62.0900  -12.9100 C   0  0  0  0  0  0  0  0  0  0  0  0
   14.0920   61.5720  -13.6660 O   0  0  0  0  0  0  0  0  0  0  0  0
   12.8470   62.6370  -10.9360 H   0  0  0  0  0  0  0  0  0  0  0  0
   11.9850   62.5160  -13.4850 C   0  0  0  0  0  0  0  0  0  0  0  0
   11.7270   63.8380  -13.7210 C   0  0  0  0  0  3  0  0  0  0  0  0
   10.5220   64.2680  -14.2830 C   0  0  0  0  0  3  0  0  0  0  0  0
    9.5700   63.3480  -14.6080 C   0  0  0  0  0  3  0  0  0  0  0  0
    9.8010   62.0150  -14.3830 C   0  0  0  0  0  3  0  0  0  0  0  0
   11.0150   61.6070  -13.8190 C   0  0  0  0  0  3  0  0  0  0  0  0
  1  2  1  0  0  0  0
  2  3  1  0  0  0  0
  2  6  2  0  0  0  0
  3  4  1  0  0  0  0
  4  5  1  0  0  0  0
  4  7  2  0  0  0  0
  5 11  1  0  0  0  0
  6  5  1  0  0  0  0
  8  7  1  0  0  0  0
  9  8  2  0  0  0  0
 10  3  2  0  0  0  0
 10  9  1  0  0  0  0
 11 15  1  6  0  0  0
 11 12  1  0  0  0  0
 12 13  1  0  0  0  0
 13 16  1  1  0  0  0
 14 19  1  6  0  0  0
 14 13  1  0  0  0  0
 15 14  1  0  0  0  0
 17 16  1  0  0  0  0
 17 18  1  0  0  0  0
 20 19  1  0  0  0  0
 21 10  1  0  0  0  0
 21 24  1  0  0  0  0
 22 21  1  0  0  0  0
 23 22  2  0  0  0  0
 25 22  1  0  0  0  0
 26 25  1  0  0  0  0
 27 26  2  0  0  0  0
 28 29  2  0  0  0  0
 28 27  1  0  0  0  0
 29 30  1  0  0  0  0
 30 25  2  0  0  0  0
M  END
>  <Pose>
1

>  <Score>
-5.244

$$$$
