/Users/jonathanwahrer/Desktop/Msc/3_Semester/Drug_Design_Praktikum/waehrer_HTS_screening/HTS_experiment/out/docking_results/vina_output/3sx0/0969_docked.pdbqt
 OpenBabel03192222103D

 31 34  0  0  1  0  0  0  0  0999 V2000
   12.3520   68.6800  -14.2570 Br  0  0  0  0  0  0  0  0  0  0  0  0
   11.5700   67.0550  -14.8580 C   0  0  0  0  0  0  0  0  0  0  0  0
   11.9480   65.8030  -14.3810 C   0  0  0  0  0  0  0  0  0  0  0  0
   11.3470   64.6470  -14.8530 C   0  0  0  0  0  0  0  0  0  0  0  0
   10.3570   64.7230  -15.8100 C   0  0  0  0  0  2  0  0  0  0  0  0
    9.9790   65.9490  -16.2840 C   0  0  0  0  0  0  0  0  0  0  0  0
   10.5780   67.0890  -15.8120 C   0  0  0  0  0  0  0  0  0  0  0  0
   10.1360   68.3140  -16.3460 O   0  0  0  0  0  1  0  0  0  0  0  0
    8.5940   65.9840  -17.6130 Br  0  0  0  0  0  0  0  0  0  0  0  0
   11.7030   63.3950  -14.3980 C   0  0  0  0  0  0  0  0  0  0  0  0
   12.6930   63.3270  -13.4400 C   0  0  0  0  0  0  0  0  0  0  0  0
   13.2740   64.6020  -13.0000 C   0  0  0  0  0  0  0  0  0  0  0  0
   14.2760   64.5160  -12.0310 C   0  0  1  0  0  3  0  0  0  0  0  0
   14.6730   63.2950  -11.5380 C   0  0  0  0  0  0  0  0  0  0  0  0
   15.5780   63.2680  -10.6660 O   0  0  0  0  0  0  0  0  0  0  0  0
   14.1030   62.1050  -11.9770 C   0  0  0  0  0  0  0  0  0  0  0  0
   13.1180   62.1140  -12.9220 C   0  0  0  0  0  3  0  0  0  0  0  0
   14.7150   60.4510  -11.2380 Br  0  0  0  0  0  0  0  0  0  0  0  0
   15.0820   66.1450  -11.4090 Br  0  0  0  0  0  0  0  0  0  0  0  0
   12.8900   65.7630  -13.4740 O   0  0  0  0  0  0  0  0  0  0  0  0
   11.0730   62.1750  -14.9030 C   0  0  0  0  0  0  0  0  0  0  0  0
    9.8580   61.7490  -14.3990 C   0  0  0  0  0  0  0  0  0  0  0  0
    9.2470   60.6000  -14.8550 C   0  0  0  0  0  3  0  0  0  0  0  0
    9.0730   62.7080  -13.1390 Cl  0  0  0  0  0  0  0  0  0  0  0  0
    9.8740   59.8650  -15.8400 C   0  0  0  0  0  3  0  0  0  0  0  0
   11.0700   60.2480  -16.3640 C   0  0  0  0  0  0  0  0  0  0  0  0
   11.6670   61.3990  -15.8960 C   0  0  0  0  0  0  0  0  0  0  0  0
   11.7970   59.2540  -17.6160 Cl  0  0  0  0  0  0  0  0  0  0  0  0
   12.9380   61.8090  -16.4420 C   0  0  0  0  0  0  0  0  0  0  0  0
   14.0100   61.1920  -16.1940 O   0  0  0  0  0  1  0  0  0  0  0  0
   13.0200   62.9220  -17.2760 O   0  0  0  0  0  0  0  0  0  0  0  0
  2  3  2  0  0  0  0
  2  1  1  0  0  0  0
  3 20  1  0  0  0  0
  4 10  2  0  0  0  0
  4  3  1  0  0  0  0
  5  4  1  0  0  0  0
  6  7  2  0  0  0  0
  6  5  1  0  0  0  0
  7  2  1  0  0  0  0
  8  7  1  0  0  0  0
  9  6  1  0  0  0  0
 10 11  1  0  0  0  0
 11 12  2  0  0  0  0
 11 17  1  0  0  0  0
 12 13  1  0  0  0  0
 13 14  1  0  0  0  0
 13 19  1  6  0  0  0
 14 15  2  0  0  0  0
 16 14  1  0  0  0  0
 16 18  1  0  0  0  0
 17 16  2  0  0  0  0
 20 12  1  0  0  0  0
 21 22  1  0  0  0  0
 21 10  1  0  0  0  0
 22 24  1  0  0  0  0
 23 22  2  0  0  0  0
 25 23  1  0  0  0  0
 26 27  1  0  0  0  0
 26 25  2  0  0  0  0
 27 21  2  0  0  0  0
 28 26  1  0  0  0  0
 29 30  1  0  0  0  0
 29 27  1  0  0  0  0
 31 29  2  0  0  0  0
M  END
>  <Pose>
1

>  <Score>
-0.492

$$$$
