/Users/jonathanwahrer/Desktop/Msc/3_Semester/Drug_Design_Praktikum/waehrer_HTS_screening/HTS_experiment/out/docking_results/vina_output/3sx0/0978_docked.pdbqt
 OpenBabel03192222103D

 33 37  0  0  1  0  0  0  0  0999 V2000
   13.2960   60.8140  -10.5690 I   0  0  0  0  0  0  0  0  0  0  0  0
   14.0150   62.4510  -11.6930 C   0  0  0  0  0  0  0  0  0  0  0  0
   13.2030   62.9210  -12.7210 C   0  0  0  0  0  0  0  0  0  0  0  0
   13.6380   63.9710  -13.4600 C   0  0  0  0  0  0  0  0  0  0  0  0
   14.8790   64.5420  -13.1670 C   0  0  0  0  0  3  0  0  0  0  0  0
   15.6900   64.0830  -12.1520 C   0  0  0  0  0  0  0  0  0  0  0  0
   15.2400   63.0140  -11.4030 C   0  0  0  0  0  0  0  0  0  0  0  0
   16.0400   62.5360  -10.3760 O   0  0  0  0  0  1  0  0  0  0  0  0
   17.5660   64.9840  -11.7470 I   0  0  0  0  0  0  0  0  0  0  0  0
   12.8720   64.5390  -14.5540 C   0  0  2  0  0  0  0  0  0  0  0  0
   13.5960   64.4700  -15.7910 O   0  0  0  0  0  0  0  0  0  0  0  0
   13.7770   65.7060  -16.3550 C   0  0  0  0  0  0  0  0  0  0  0  0
   14.3610   66.0250  -17.4300 O   0  0  0  0  0  0  0  0  0  0  0  0
   13.1440   66.6600  -15.4550 C   0  0  0  0  0  0  0  0  0  0  0  0
   12.6140   65.9800  -14.4010 C   0  0  0  0  0  0  0  0  0  0  0  0
   11.9460   66.6650  -13.3850 C   0  0  0  0  0  0  0  0  0  0  0  0
   11.8060   68.0350  -13.4240 C   0  0  0  0  0  0  0  0  0  0  0  0
   12.3490   68.7280  -14.5030 C   0  0  0  0  0  0  0  0  0  0  0  0
   13.0060   68.0580  -15.5040 C   0  0  0  0  0  0  0  0  0  0  0  0
   13.6730   68.9290  -16.8320 Cl  0  0  0  0  0  0  0  0  0  0  0  0
   12.2060   70.4600  -14.6120 Cl  0  0  0  0  0  0  0  0  0  0  0  0
   10.9610   68.8610  -12.1340 Cl  0  0  0  0  0  0  0  0  0  0  0  0
   11.2950   65.7390  -12.0740 Cl  0  0  0  0  0  0  0  0  0  0  0  0
   11.5760   63.8350  -14.7530 C   0  0  0  0  0  0  0  0  0  0  0  0
   11.1730   62.7890  -13.9960 C   0  0  0  0  0  0  0  0  0  0  0  0
    9.9350   62.2210  -14.2900 C   0  0  0  0  0  0  0  0  0  0  0  0
    9.1250   62.6790  -15.3050 C   0  0  0  0  0  0  0  0  0  0  0  0
    9.5690   63.7480  -16.0560 C   0  0  0  0  0  0  0  0  0  0  0  0
   10.7820   64.3310  -15.7950 C   0  0  0  0  0  3  0  0  0  0  0  0
    8.3510   64.4720  -17.6160 I   0  0  0  0  0  0  0  0  0  0  0  0
    7.9070   62.1210  -15.5940 O   0  0  0  0  0  1  0  0  0  0  0  0
    9.2980   60.5980  -13.1230 I   0  0  0  0  0  0  0  0  0  0  0  0
   11.9610   62.3030  -12.9690 O   0  0  0  0  0  0  0  0  0  0  0  0
  2  7  1  0  0  0  0
  2  1  1  0  0  0  0
  3  2  2  0  0  0  0
  4  5  2  0  0  0  0
  4  3  1  0  0  0  0
  5  6  1  0  0  0  0
  6  9  1  0  0  0  0
  6  7  2  0  0  0  0
  7  8  1  0  0  0  0
 10 11  1  6  0  0  0
 10 15  1  0  0  0  0
 10  4  1  0  0  0  0
 12 11  1  0  0  0  0
 12 14  1  0  0  0  0
 13 12  2  0  0  0  0
 14 15  1  0  0  0  0
 15 16  2  0  0  0  0
 16 23  1  0  0  0  0
 17 16  1  0  0  0  0
 17 22  1  0  0  0  0
 18 17  2  0  0  0  0
 19 14  2  0  0  0  0
 19 18  1  0  0  0  0
 20 19  1  0  0  0  0
 21 18  1  0  0  0  0
 24 10  1  0  0  0  0
 24 25  1  0  0  0  0
 25 33  1  0  0  0  0
 26 25  2  0  0  0  0
 26 32  1  0  0  0  0
 27 26  1  0  0  0  0
 28 29  1  0  0  0  0
 28 27  2  0  0  0  0
 29 24  2  0  0  0  0
 30 28  1  0  0  0  0
 31 27  1  0  0  0  0
 33  3  1  0  0  0  0
M  END
>  <Pose>
1

>  <Score>
15.664

$$$$
