/Users/jonathanwahrer/Desktop/Msc/3_Semester/Drug_Design_Praktikum/waehrer_HTS_screening/HTS_experiment/out/docking_results/vina_output/3sx0/0979_docked.pdbqt
 OpenBabel03192222103D

 29 33  0  0  1  0  0  0  0  0999 V2000
   15.0540   66.4360  -11.2680 I   0  0  0  0  0  0  0  0  0  0  0  0
   14.3380   64.5320  -11.8650 C   0  0  0  0  0  0  0  0  0  0  0  0
   13.3100   64.5280  -12.8230 C   0  0  0  0  0  0  0  0  0  0  0  0
   12.8330   63.3200  -13.2220 C   0  0  0  0  0  0  0  0  0  0  0  0
   13.3800   62.1480  -12.6690 C   0  0  0  0  0  3  0  0  0  0  0  0
   14.3840   62.1540  -11.7360 C   0  0  0  0  0  0  0  0  0  0  0  0
   14.8670   63.3800  -11.3320 C   0  0  0  0  0  0  0  0  0  0  0  0
   15.8820   63.4230  -10.3880 O   0  0  0  0  0  1  0  0  0  0  0  0
   15.1640   60.3490  -10.9450 I   0  0  0  0  0  0  0  0  0  0  0  0
   11.7600   63.2110  -14.2170 C   0  0  2  0  0  0  0  0  0  0  0  0
   10.6900   62.4120  -13.7500 O   0  0  0  0  0  0  0  0  0  0  0  0
   10.4800   61.3080  -14.5340 C   0  0  0  0  0  0  0  0  0  0  0  0
    9.6180   60.3980  -14.4040 O   0  0  0  0  0  0  0  0  0  0  0  0
   11.4660   61.3500  -15.6040 C   0  0  0  0  0  0  0  0  0  0  0  0
   12.2230   62.4620  -15.4270 C   0  0  0  0  0  0  0  0  0  0  0  0
   13.2490   62.7200  -16.3430 C   0  0  0  0  0  3  0  0  0  0  0  0
   13.4740   61.8590  -17.3920 C   0  0  0  0  0  3  0  0  0  0  0  0
   12.7070   60.7270  -17.5740 C   0  0  0  0  0  3  0  0  0  0  0  0
   11.6970   60.4640  -16.6810 C   0  0  0  0  0  3  0  0  0  0  0  0
   11.2850   64.5160  -14.7070 C   0  0  0  0  0  0  0  0  0  0  0  0
   11.8010   65.6870  -14.2700 C   0  0  0  0  0  0  0  0  0  0  0  0
   11.3020   66.8830  -14.7760 C   0  0  0  0  0  0  0  0  0  0  0  0
   10.3020   66.8830  -15.7070 C   0  0  0  0  0  0  0  0  0  0  0  0
    9.7550   65.7110  -16.1750 C   0  0  0  0  0  0  0  0  0  0  0  0
   10.2600   64.5490  -15.6620 C   0  0  0  0  0  3  0  0  0  0  0  0
    8.2070   65.7190  -17.6160 I   0  0  0  0  0  0  0  0  0  0  0  0
    9.8240   68.0920  -16.1970 O   0  0  0  0  0  1  0  0  0  0  0  0
   12.1200   68.7190  -14.0830 I   0  0  0  0  0  0  0  0  0  0  0  0
   12.8290   65.7440  -13.3140 O   0  0  0  0  0  0  0  0  0  0  0  0
  2  7  1  0  0  0  0
  2  1  1  0  0  0  0
  3  2  2  0  0  0  0
  4  3  1  0  0  0  0
  4  5  2  0  0  0  0
  5  6  1  0  0  0  0
  6  7  2  0  0  0  0
  6  9  1  0  0  0  0
  7  8  1  0  0  0  0
 10 15  1  6  0  0  0
 10 11  1  0  0  0  0
 10  4  1  0  0  0  0
 12 13  2  0  0  0  0
 12 11  1  0  0  0  0
 14 15  1  0  0  0  0
 14 12  1  0  0  0  0
 16 15  2  0  0  0  0
 17 16  1  0  0  0  0
 18 17  2  0  0  0  0
 18 19  1  0  0  0  0
 19 14  2  0  0  0  0
 20 21  1  0  0  0  0
 20 10  1  0  0  0  0
 21 29  1  0  0  0  0
 22 21  2  0  0  0  0
 22 28  1  0  0  0  0
 23 22  1  0  0  0  0
 24 23  2  0  0  0  0
 24 25  1  0  0  0  0
 25 20  2  0  0  0  0
 26 24  1  0  0  0  0
 27 23  1  0  0  0  0
 29  3  1  0  0  0  0
M  END
>  <Pose>
1

>  <Score>
2.803

$$$$
