/Users/jonathanwahrer/Desktop/Msc/3_Semester/Drug_Design_Praktikum/waehrer_HTS_screening/HTS_experiment/out/docking_results/vina_output/3sx0/0985_docked.pdbqt
 OpenBabel03192222113D

 28 31  0  0  1  0  0  0  0  0999 V2000
   21.1110   63.5570   -9.7750 N   0  0  0  0  0  0  0  0  0  0  0  0
   21.4810   63.8120   -8.5140 C   0  0  0  0  0  0  0  0  0  0  0  0
   20.7620   63.9400   -7.3650 N   0  0  0  0  0  0  0  0  0  0  0  0
   21.3150   64.1990   -6.1840 C   0  0  0  0  0  0  0  0  0  0  0  0
   22.6510   64.3420   -6.1190 N   0  0  0  0  0  0  0  0  0  0  0  0
   23.4240   64.2270   -7.2190 C   0  0  0  0  0  0  0  0  0  0  0  0
   22.8520   63.9590   -8.4450 C   0  0  0  0  0  0  0  0  0  0  0  0
   23.3040   63.7870   -9.6960 N   0  0  0  0  0  0  0  0  0  0  0  0
   22.2430   63.5440  -10.5000 C   0  0  0  0  0  0  0  0  0  0  0  0
   22.3100   63.2240  -12.3880 Br  0  0  0  0  0  0  0  0  0  0  0  0
   19.7400   63.3540  -10.1740 C   0  0  2  0  0  3  0  0  0  0  0  0
   18.8990   64.3590   -9.6970 O   0  0  0  0  0  0  0  0  0  0  0  0
   17.6710   63.9020  -10.1070 C   0  0  1  0  0  3  0  0  0  0  0  0
   17.6580   62.4830   -9.5240 C   0  0  1  0  0  3  0  0  0  0  0  0
   16.5040   64.6350   -9.5630 C   0  0  0  0  0  2  0  0  0  0  0  0
   16.9420   61.7060  -10.4320 O   0  0  0  0  0  0  0  0  0  0  0  0
   19.1300   62.1270   -9.5000 C   0  0  1  0  0  3  0  0  0  0  0  0
   15.6350   62.6690  -10.9580 P   0  0  2  0  0  0  0  0  0  0  0  0
   15.8140   63.0830  -12.4020 O   0  0  0  0  0  0  0  0  0  0  0  0
   15.3410   63.9520   -9.9360 O   0  0  0  0  0  0  0  0  0  0  0  0
   14.2660   61.6410  -10.9300 O   0  0  0  0  0  1  0  0  0  0  0  0
   19.4190   60.9600  -10.1620 O   0  0  0  0  0  0  0  0  0  0  0  0
   20.2930   61.0560  -10.6580 H   0  0  0  0  0  0  0  0  0  0  0  0
   20.5190   64.3240   -5.0090 N   0  0  0  0  0  0  0  0  0  0  0  0
   19.4860   64.2650   -5.1370 H   0  0  0  0  0  0  0  0  0  0  0  0
   20.9390   64.4700   -4.0560 H   0  0  0  0  0  0  0  0  0  0  0  0
   24.8060   64.3740   -7.1560 O   0  0  0  0  0  0  0  0  0  0  0  0
   25.2830   64.5310   -8.0570 H   0  0  0  0  0  0  0  0  0  0  0  0
  1  2  1  0  0  0  0
  2  7  2  0  0  0  0
  2  3  1  0  0  0  0
  3  4  2  0  0  0  0
  4  5  1  0  0  0  0
  4 24  1  0  0  0  0
  6 27  1  0  0  0  0
  6  5  2  0  0  0  0
  7  6  1  0  0  0  0
  8  7  1  0  0  0  0
  9  1  1  0  0  0  0
  9  8  2  0  0  0  0
 10  9  1  0  0  0  0
 11  1  1  1  0  0  0
 11 12  1  0  0  0  0
 11 17  1  0  0  0  0
 13 12  1  0  0  0  0
 13 15  1  1  0  0  0
 13 14  1  0  0  0  0
 14 16  1  6  0  0  0
 14 17  1  0  0  0  0
 17 22  1  6  0  0  0
 18 19  2  6  0  0  0
 18 21  1  0  0  0  0
 18 16  1  0  0  0  0
 18 20  1  0  0  0  0
 20 15  1  0  0  0  0
 23 22  1  0  0  0  0
 24 26  1  0  0  0  0
 25 24  1  0  0  0  0
 28 27  1  0  0  0  0
M  END
>  <Pose>
1

>  <Score>
-6.728

$$$$
