/Users/jonathanwahrer/Desktop/Msc/3_Semester/Drug_Design_Praktikum/waehrer_HTS_screening/HTS_experiment/out/docking_results/vina_output/3sx0/0999_docked.pdbqt
 OpenBabel03192222123D

 35 39  0  0  1  0  0  0  0  0999 V2000
   11.6470   63.9890  -14.0770 N   0  0  0  0  0  0  0  0  0  0  0  0
   12.8270   64.6480  -13.6520 C   0  0  0  0  0  0  0  0  0  0  0  0
   13.1260   65.7450  -14.1950 O   0  0  0  0  0  0  0  0  0  0  0  0
   11.4180   63.0760  -13.6100 H   0  0  0  0  0  0  0  0  0  0  0  0
   10.8430   64.5820  -15.0960 C   0  0  1  0  0  3  0  0  0  0  0  0
   10.4420   63.7590  -16.2460 C   0  0  1  0  0  0  0  0  0  0  0  0
   11.5810   62.6130  -17.0190 S   0  0  0  0  0  0  0  0  0  0  0  0
    9.6320   63.0320  -15.3210 N   0  0  0  0  0  0  0  0  0  0  0  0
   10.3490   61.3610  -17.5330 C   0  0  0  0  0  2  0  0  0  0  0  0
    9.7060   60.8580  -16.2330 C   0  0  0  0  0  0  0  0  0  0  0  0
    9.3860   61.6260  -15.2390 C   0  0  0  0  0  0  0  0  0  0  0  0
    9.3890   64.3060  -14.7490 C   0  0  1  0  0  0  0  0  0  0  0  0
    8.5370   65.0180  -14.2060 O   0  0  0  0  0  1  0  0  0  0  0  0
    9.5260   59.4300  -16.2930 C   0  0  0  0  0  2  0  0  0  0  0  0
   10.5310   58.5600  -16.5550 O   0  0  0  0  0  0  0  0  0  0  0  0
   10.4700   57.1960  -16.2450 C   0  0  0  0  0  0  0  0  0  0  0  0
   11.4300   56.4900  -16.6060 O   0  0  0  0  0  0  0  0  0  0  0  0
    9.2770   56.7020  -15.5190 C   0  0  0  0  0  1  0  0  0  0  0  0
    8.7550   61.1500  -13.9730 C   0  0  0  0  0  0  0  0  0  0  0  0
    7.9520   61.7520  -13.2940 O   0  0  0  0  0  1  0  0  0  0  0  0
    9.1030   59.8760  -13.4870 O   0  0  0  0  0  0  0  0  0  0  0  0
   13.6970   64.0940  -12.6100 C   0  0  0  0  0  0  0  0  0  0  0  0
   14.6350   64.6710  -11.9260 O   0  0  0  0  0  0  0  0  0  0  0  0
   15.1990   63.8670  -11.0850 C   0  0  0  0  0  0  0  0  0  0  0  0
   14.5760   62.6210  -11.2180 C   0  0  0  0  0  3  0  0  0  0  0  0
   13.6260   62.7840  -12.1900 C   0  0  0  0  0  3  0  0  0  0  0  0
   16.3200   64.1600  -10.1180 C   0  0  0  0  0  2  0  0  0  0  0  0
   17.2310   63.0930  -10.0710 O   0  0  0  0  0  0  0  0  0  0  0  0
   18.5840   63.1820  -10.2350 C   0  0  0  0  0  0  0  0  0  0  0  0
   19.2250   63.2970  -11.4660 C   0  0  0  0  0  3  0  0  0  0  0  0
   20.5980   63.3820  -11.5150 C   0  0  0  0  0  3  0  0  0  0  0  0
   21.3980   63.3600  -10.3970 C   0  0  0  0  0  0  0  0  0  0  0  0
   20.7700   63.2460   -9.1680 C   0  0  0  0  0  3  0  0  0  0  0  0
   23.2980   63.4820  -10.5270 Br  0  0  0  0  0  0  0  0  0  0  0  0
   19.3850   63.1610   -9.1120 C   0  0  0  0  0  3  0  0  0  0  0  0
  1  2  1  0  0  0  0
  1  4  1  0  0  0  0
  2 22  1  0  0  0  0
  3  2  2  0  0  0  0
  5 12  1  0  0  0  0
  5  1  1  1  0  0  0
  6  7  1  6  0  0  0
  6  8  1  0  0  0  0
  6  5  1  0  0  0  0
  6 12  1  0  0  0  0
  8 11  1  0  0  0  0
  8 12  1  0  0  0  0
  9  7  1  0  0  0  0
  9 10  1  0  0  0  0
 10 11  2  0  0  0  0
 11 19  1  0  0  0  0
 12 13  1  1  0  0  0
 14 10  1  0  0  0  0
 15 14  1  0  0  0  0
 15 16  1  0  0  0  0
 16 18  1  0  0  0  0
 17 16  2  0  0  0  0
 19 21  2  0  0  0  0
 19 20  1  0  0  0  0
 22 26  2  0  0  0  0
 22 23  1  0  0  0  0
 23 24  1  0  0  0  0
 24 27  1  0  0  0  0
 25 24  2  0  0  0  0
 26 25  1  0  0  0  0
 27 28  1  0  0  0  0
 29 28  1  0  0  0  0
 29 35  1  0  0  0  0
 30 29  2  0  0  0  0
 31 30  1  0  0  0  0
 31 32  2  0  0  0  0
 32 33  1  0  0  0  0
 33 35  2  0  0  0  0
 34 32  1  0  0  0  0
M  END
>  <Pose>
1

>  <Score>
-7.169

$$$$
