/Users/jonathanwahrer/Desktop/Msc/3_Semester/Drug_Design_Praktikum/waehrer_HTS_screening/HTS_experiment/out/docking_results/vina_output/3sx0/1027_docked.pdbqt
 OpenBabel03192222133D

 32 35  0  0  0  0  0  0  0  0999 V2000
   13.2900   63.5130  -11.8190 N   0  0  0  0  0  0  0  0  0  0  0  0
   13.7330   64.4030  -10.8440 C   0  0  0  0  0  2  0  0  0  0  0  0
   15.1940   64.4140  -10.6070 C   0  0  0  0  0  0  0  0  0  0  0  0
   15.7700   65.4400  -10.1710 O   0  0  0  0  0  0  0  0  0  0  0  0
   15.8900   63.2070  -10.8980 N   0  0  0  0  0  0  0  0  0  0  0  0
   15.0960   62.0520  -11.1080 C   0  0  0  0  0  0  0  0  0  0  0  0
   15.6110   60.9240  -10.8660 O   0  0  0  0  0  0  0  0  0  0  0  0
   13.7040   62.1350  -11.5960 C   0  0  0  0  0  2  0  0  0  0  0  0
   13.2500   63.9370  -13.4400 S   0  0  0  0  0  0  0  0  0  0  0  0
   13.5680   62.6810  -14.2530 O   0  0  0  0  0  0  0  0  0  0  0  0
   14.3800   64.8850  -13.7690 O   0  0  0  0  0  0  0  0  0  0  0  0
   11.7420   64.5490  -14.0610 C   0  0  0  0  0  0  0  0  0  0  0  0
   11.6480   65.9180  -14.3450 C   0  0  0  0  0  3  0  0  0  0  0  0
   10.4950   66.5340  -14.7760 C   0  0  0  0  0  0  0  0  0  0  0  0
    9.3450   65.7950  -14.9500 C   0  0  0  0  0  0  0  0  0  0  0  0
   10.2020   67.8930  -15.1100 N   0  0  0  0  0  0  0  0  0  0  0  0
    9.4190   64.4520  -14.6780 C   0  0  0  0  0  3  0  0  0  0  0  0
    8.2360   66.6600  -15.4220 C   0  0  0  0  0  2  0  0  0  0  0  0
   10.5980   63.8280  -14.2400 C   0  0  0  0  0  0  0  0  0  0  0  0
   10.6030   61.9260  -13.9910 Br  0  0  0  0  0  0  0  0  0  0  0  0
    8.9960   67.8850  -15.9320 C   0  0  0  0  0  2  0  0  0  0  0  0
   10.9060   69.0490  -14.7320 C   0  0  0  0  0  0  0  0  0  0  0  0
   10.4930   70.1830  -15.1600 O   0  0  0  0  0  0  0  0  0  0  0  0
   12.1060   69.0890  -13.8630 C   0  0  0  0  0  1  0  0  0  0  0  0
   17.3360   63.1920  -10.9630 C   0  0  0  0  0  2  0  0  0  0  0  0
   18.0170   63.0220   -9.6490 C   0  0  0  0  0  2  0  0  0  0  0  0
   19.4580   63.2650   -9.6390 C   0  0  0  0  0  0  0  0  0  0  0  0
   20.1680   63.3950   -8.4770 C   0  0  0  0  0  3  0  0  0  0  0  0
   21.5130   63.6270   -8.5380 C   0  0  0  0  0  3  0  0  0  0  0  0
   22.1880   63.7350   -9.7490 C   0  0  0  0  0  3  0  0  0  0  0  0
   21.4560   63.6010  -10.8970 C   0  0  0  0  0  3  0  0  0  0  0  0
   20.1020   63.3680  -10.8720 C   0  0  0  0  0  3  0  0  0  0  0  0
  1  8  1  0  0  0  0
  1  2  1  0  0  0  0
  2  3  1  0  0  0  0
  3  4  2  0  0  0  0
  5  3  1  0  0  0  0
  6  5  1  0  0  0  0
  6  7  2  0  0  0  0
  8  6  1  0  0  0  0
  9  1  1  0  0  0  0
 10  9  2  0  0  0  0
 11  9  2  0  0  0  0
 12  9  1  0  0  0  0
 13 12  2  0  0  0  0
 14 13  1  0  0  0  0
 15 14  2  0  0  0  0
 15 17  1  0  0  0  0
 16 14  1  0  0  0  0
 16 22  1  0  0  0  0
 17 19  2  0  0  0  0
 18 15  1  0  0  0  0
 19 12  1  0  0  0  0
 19 20  1  0  0  0  0
 21 18  1  0  0  0  0
 21 16  1  0  0  0  0
 22 24  1  0  0  0  0
 23 22  2  0  0  0  0
 25  5  1  0  0  0  0
 25 26  1  0  0  0  0
 26 27  1  0  0  0  0
 27 28  1  0  0  0  0
 29 28  2  0  0  0  0
 30 29  1  0  0  0  0
 31 32  1  0  0  0  0
 31 30  2  0  0  0  0
 32 27  2  0  0  0  0
M  END
>  <Pose>
1

>  <Score>
-7.202

$$$$
