/Users/jonathanwahrer/Desktop/Msc/3_Semester/Drug_Design_Praktikum/waehrer_HTS_screening/HTS_experiment/out/docking_results/vina_output/3sx0/1028_docked.pdbqt
 OpenBabel03192222133D

 25 28  0  0  1  0  0  0  0  0999 V2000
   21.8620   64.4170   -7.3380 N   0  0  0  0  0  0  0  0  0  0  0  0
   21.3940   65.1220   -8.4770 C   0  0  0  0  0  2  0  0  0  0  0  0
   21.7640   63.9990   -9.3660 C   0  0  1  0  0  3  0  0  0  0  0  0
   22.0460   63.2430   -8.1150 C   0  0  0  0  0  2  0  0  0  0  0  0
   20.6930   63.4110  -10.1470 N   0  0  0  0  0  0  0  0  0  0  0  0
   20.6030   63.2960  -11.4460 N   0  0  0  0  0  0  0  0  0  0  0  0
   19.4540   62.6930  -11.7810 N   0  0  0  0  0  0  0  0  0  0  0  0
   18.7740   62.4080  -10.6570 C   0  0  0  0  0  0  0  0  0  0  0  0
   19.5780   62.8720   -9.6260 C   0  0  0  0  0  3  0  0  0  0  0  0
   17.4380   61.7340  -10.5330 C   0  0  0  0  0  2  0  0  0  0  0  0
   16.4210   62.7690  -10.5050 N   0  0  0  0  0  0  0  0  0  0  0  0
   16.6230   64.1280  -10.1010 C   0  0  0  0  0  2  0  0  0  0  0  0
   15.3110   64.8250  -10.3180 C   0  0  0  0  0  2  0  0  0  0  0  0
   14.4150   63.9160  -11.0950 C   0  0  0  0  0  2  0  0  0  0  0  0
   15.0610   62.5740  -10.8820 C   0  0  0  0  0  0  0  0  0  0  0  0
   14.4590   61.4950  -11.0250 O   0  0  0  0  0  0  0  0  0  0  0  0
   23.2320   64.9690   -6.5200 S   0  0  0  0  0  0  0  0  0  0  0  0
   22.9280   66.3080   -5.9110 O   0  0  0  0  0  0  0  0  0  0  0  0
   24.4030   65.1780   -7.4490 O   0  0  0  0  0  0  0  0  0  0  0  0
   23.7410   63.9150   -5.2030 C   0  0  0  0  0  0  0  0  0  0  0  0
   24.9750   62.7250   -5.2240 S   0  0  0  0  0  0  0  0  0  0  0  0
   24.8460   62.1670   -3.6150 C   0  0  0  0  0  0  0  0  0  0  0  0
   23.8300   62.9360   -3.1090 C   0  0  0  0  0  3  0  0  0  0  0  0
   25.8560   60.8000   -2.7070 Br  0  0  0  0  0  0  0  0  0  0  0  0
   23.2700   63.8290   -3.9260 C   0  0  0  0  0  3  0  0  0  0  0  0
  1 17  1  0  0  0  0
  2  1  1  0  0  0  0
  3  5  1  1  0  0  0
  3  2  1  0  0  0  0
  3  4  1  0  0  0  0
  4  1  1  0  0  0  0
  5  9  1  0  0  0  0
  6  5  1  0  0  0  0
  7  6  2  0  0  0  0
  7  8  1  0  0  0  0
  8 10  1  0  0  0  0
  8  9  2  0  0  0  0
 10 11  1  0  0  0  0
 11 12  1  0  0  0  0
 13 12  1  0  0  0  0
 14 15  1  0  0  0  0
 14 13  1  0  0  0  0
 15 11  1  0  0  0  0
 16 15  2  0  0  0  0
 17 18  2  0  0  0  0
 17 20  1  0  0  0  0
 19 17  2  0  0  0  0
 20 25  2  0  0  0  0
 21 20  1  0  0  0  0
 21 22  1  0  0  0  0
 22 23  2  0  0  0  0
 22 24  1  0  0  0  0
 25 23  1  0  0  0  0
M  END
>  <Pose>
1

>  <Score>
-8.089

$$$$
