/Users/jonathanwahrer/Desktop/Msc/3_Semester/Drug_Design_Praktikum/waehrer_HTS_screening/HTS_experiment/out/docking_results/vina_output/3sx0/1040_docked.pdbqt
 OpenBabel03192222143D

 34 38  0  0  0  0  0  0  0  0999 V2000
   13.2310   65.0630  -14.3310 S   0  0  0  0  0  0  0  0  0  0  0  0
   13.6170   63.9610  -15.2400 O   0  0  0  0  0  0  0  0  0  0  0  0
   14.2480   66.1760  -14.6110 O   0  0  0  0  0  0  0  0  0  0  0  0
   13.4460   64.6950  -12.6640 N   0  0  0  0  0  0  0  0  0  0  0  0
   14.7890   64.8110  -12.2080 C   0  0  0  0  0  2  0  0  0  0  0  0
   15.6200   63.5470  -12.3840 C   0  0  0  0  0  2  0  0  0  0  0  0
   14.9130   62.4490  -11.8150 N   0  0  0  0  0  0  0  0  0  0  0  0
   13.5820   62.2380  -12.4710 C   0  0  0  0  0  2  0  0  0  0  0  0
   15.2350   61.5770  -10.7940 C   0  0  0  0  0  0  0  0  0  0  0  0
   12.8040   63.4910  -12.2570 C   0  0  0  0  0  2  0  0  0  0  0  0
   14.3170   60.6690  -10.5310 O   0  0  0  0  0  0  0  0  0  0  0  0
   16.3990   61.4800   -9.9620 C   0  0  0  0  0  2  0  0  0  0  0  0
   17.4800   62.3770  -10.1500 N   0  0  0  0  0  0  0  0  0  0  0  0
   17.5830   63.6330   -9.7180 N   0  0  0  0  0  0  0  0  0  0  0  0
   18.7690   64.1570  -10.0530 C   0  0  0  0  0  3  0  0  0  0  0  0
   19.4400   63.1710  -10.7320 C   0  0  0  0  0  0  0  0  0  0  0  0
   18.6390   62.0700  -10.7910 C   0  0  0  0  0  3  0  0  0  0  0  0
   21.2080   63.3130  -11.4770 Br  0  0  0  0  0  0  0  0  0  0  0  0
   11.6780   65.7690  -14.6510 C   0  0  0  0  0  0  0  0  0  0  0  0
   11.5030   67.1520  -14.7950 C   0  0  0  0  0  0  0  0  0  0  0  0
   10.2640   67.7060  -15.0470 C   0  0  0  0  0  0  0  0  0  0  0  0
   12.4580   68.1610  -14.7210 O   0  0  0  0  0  0  0  0  0  0  0  0
    9.1400   66.9140  -15.1690 C   0  0  0  0  0  0  0  0  0  0  0  0
   10.4300   69.0710  -15.1330 O   0  0  0  0  0  0  0  0  0  0  0  0
    9.3030   65.5630  -15.0280 C   0  0  0  0  0  0  0  0  0  0  0  0
   10.5580   65.0180  -14.7750 C   0  0  0  0  0  0  0  0  0  0  0  0
    8.1990   64.5820  -15.1350 C   0  0  0  0  0  2  0  0  0  0  0  0
   10.5740   63.5520  -14.6370 C   0  0  0  0  0  2  0  0  0  0  0  0
    9.8280   62.8950  -15.7770 C   0  0  0  0  0  2  0  0  0  0  0  0
    8.6190   63.5730  -16.0540 N   0  0  0  0  0  0  0  0  0  0  0  0
    8.3190   63.8220  -17.4200 C   0  0  0  0  0  1  0  0  0  0  0  0
   11.7520   69.3890  -14.8000 C   0  0  0  0  0  2  0  0  0  0  0  0
    7.8710   67.4720  -15.4260 O   0  0  0  0  0  0  0  0  0  0  0  0
    7.6310   68.0650  -16.7110 C   0  0  0  0  0  1  0  0  0  0  0  0
  1  4  1  0  0  0  0
  2  1  2  0  0  0  0
  3  1  2  0  0  0  0
  4 10  1  0  0  0  0
  4  5  1  0  0  0  0
  6  5  1  0  0  0  0
  6  7  1  0  0  0  0
  7  9  1  0  0  0  0
  8 10  1  0  0  0  0
  8  7  1  0  0  0  0
  9 11  2  0  0  0  0
  9 12  1  0  0  0  0
 13 12  1  0  0  0  0
 13 14  1  0  0  0  0
 15 14  2  0  0  0  0
 16 15  1  0  0  0  0
 17 16  2  0  0  0  0
 17 13  1  0  0  0  0
 18 16  1  0  0  0  0
 19  1  1  0  0  0  0
 20 22  1  0  0  0  0
 20 19  2  0  0  0  0
 21 20  1  0  0  0  0
 23 21  2  0  0  0  0
 23 25  1  0  0  0  0
 24 21  1  0  0  0  0
 24 32  1  0  0  0  0
 25 26  2  0  0  0  0
 26 19  1  0  0  0  0
 26 28  1  0  0  0  0
 27 25  1  0  0  0  0
 29 28  1  0  0  0  0
 30 29  1  0  0  0  0
 30 27  1  0  0  0  0
 31 30  1  0  0  0  0
 32 22  1  0  0  0  0
 33 23  1  0  0  0  0
 34 33  1  0  0  0  0
M  END
>  <Pose>
1

>  <Score>
-3.060

$$$$
