/Users/jonathanwahrer/Desktop/Msc/3_Semester/Drug_Design_Praktikum/waehrer_HTS_screening/HTS_experiment/out/docking_results/vina_output/3sx0/1042_docked.pdbqt
 OpenBabel03192222143D

 31 34  0  0  0  0  0  0  0  0999 V2000
   13.4850   63.0810  -12.6580 N   0  0  0  0  0  0  0  0  0  0  0  0
   13.9510   61.8280  -12.2950 C   0  0  0  0  0  2  0  0  0  0  0  0
   14.5910   61.9410  -10.8850 C   0  0  0  0  0  2  0  0  0  0  0  0
   15.5470   63.0130  -10.8740 N   0  0  0  0  0  0  0  0  0  0  0  0
   15.0530   64.3290  -11.2080 C   0  0  0  0  0  2  0  0  0  0  0  0
   13.6370   64.1530  -11.7120 C   0  0  0  0  0  2  0  0  0  0  0  0
   16.9090   62.8430  -10.5590 C   0  0  0  0  0  0  0  0  0  0  0  0
   17.3300   61.7010  -10.2700 O   0  0  0  0  0  0  0  0  0  0  0  0
   17.8330   63.9780  -10.5650 C   0  0  0  0  0  2  0  0  0  0  0  0
   19.2150   63.5160  -10.4740 N   0  0  0  0  0  0  0  0  0  0  0  0
   20.0870   63.0680  -11.4910 C   0  0  0  0  0  0  0  0  0  0  0  0
   19.7900   62.9910  -12.7280 O   0  0  0  0  0  0  0  0  0  0  0  0
   21.3240   62.7300  -10.8750 N   0  0  0  0  0  0  0  0  0  0  0  0
   21.3630   63.4090   -9.6070 C   0  0  0  0  0  0  0  0  0  0  0  0
   22.0240   62.0950  -11.3340 H   0  0  0  0  0  0  0  0  0  0  0  0
   21.9880   64.7650   -9.6660 C   0  0  0  0  0  2  0  0  0  0  0  0
   22.1960   62.6680   -8.5870 C   0  0  0  0  0  2  0  0  0  0  0  0
   19.9310   63.4480   -9.2230 C   0  0  0  0  0  0  0  0  0  0  0  0
   22.2490   65.0500   -8.1820 C   0  0  0  0  0  2  0  0  0  0  0  0
   22.6490   63.7130   -7.6220 C   0  0  0  0  0  2  0  0  0  0  0  0
   19.4600   63.4280   -8.0640 O   0  0  0  0  0  0  0  0  0  0  0  0
   12.4820   63.3600  -13.9470 S   0  0  0  0  0  0  0  0  0  0  0  0
   13.2600   63.0530  -15.2340 O   0  0  0  0  0  0  0  0  0  0  0  0
   11.3240   62.3590  -14.0010 O   0  0  0  0  0  0  0  0  0  0  0  0
   11.8490   64.9620  -14.1640 C   0  0  0  0  0  0  0  0  0  0  0  0
   12.5500   66.0650  -14.5720 C   0  0  0  0  0  0  0  0  0  0  0  0
   11.9540   67.3270  -14.6670 C   0  0  0  0  0  3  0  0  0  0  0  0
   14.3650   65.8680  -15.0910 Br  0  0  0  0  0  0  0  0  0  0  0  0
   10.6450   67.5240  -14.3580 C   0  0  0  0  0  3  0  0  0  0  0  0
    9.9150   66.4410  -13.9490 C   0  0  0  0  0  3  0  0  0  0  0  0
   10.4970   65.1990  -13.8540 C   0  0  0  0  0  3  0  0  0  0  0  0
  1  2  1  0  0  0  0
  1  6  1  0  0  0  0
  2  3  1  0  0  0  0
  3  4  1  0  0  0  0
  4  7  1  0  0  0  0
  5  4  1  0  0  0  0
  6  5  1  0  0  0  0
  7  8  2  0  0  0  0
  9  7  1  0  0  0  0
  9 10  1  0  0  0  0
 10 18  1  0  0  0  0
 11 13  1  0  0  0  0
 11 10  1  0  0  0  0
 12 11  2  0  0  0  0
 13 14  1  0  0  0  0
 14 18  1  0  0  0  0
 14 17  1  0  0  0  0
 15 13  1  0  0  0  0
 16 14  1  0  0  0  0
 16 19  1  0  0  0  0
 17 20  1  0  0  0  0
 18 21  2  0  0  0  0
 19 20  1  0  0  0  0
 22  1  1  0  0  0  0
 23 22  2  0  0  0  0
 24 22  2  0  0  0  0
 25 22  1  0  0  0  0
 25 31  1  0  0  0  0
 26 25  2  0  0  0  0
 27 26  1  0  0  0  0
 27 29  2  0  0  0  0
 28 26  1  0  0  0  0
 29 30  1  0  0  0  0
 30 31  2  0  0  0  0
M  END
>  <Pose>
1

>  <Score>
-6.725

$$$$
