/Users/jonathanwahrer/Desktop/Msc/3_Semester/Drug_Design_Praktikum/waehrer_HTS_screening/HTS_experiment/out/docking_results/vina_output/3sx0/1043_docked.pdbqt
 OpenBabel03192222143D

 31 34  0  0  0  0  0  0  0  0999 V2000
   22.0050   64.7150   -8.0620 N   0  0  0  0  0  0  0  0  0  0  0  0
   22.8930   64.6860   -9.2040 C   0  0  0  0  0  2  0  0  0  0  0  0
   22.7840   63.3780   -9.9480 C   0  0  0  0  0  2  0  0  0  0  0  0
   21.3480   63.1620  -10.2240 N   0  0  0  0  0  0  0  0  0  0  0  0
   20.4960   63.1710   -9.0760 C   0  0  0  0  0  2  0  0  0  0  0  0
   21.3900   63.4520   -7.8460 C   0  0  0  0  0  2  0  0  0  0  0  0
   20.8950   62.9700  -11.5370 C   0  0  0  0  0  0  0  0  0  0  0  0
   21.8410   63.0110  -12.4540 O   0  0  0  0  0  0  0  0  0  0  0  0
   19.5880   62.7350  -12.0970 C   0  0  0  0  0  2  0  0  0  0  0  0
   18.4410   62.6510  -11.2490 N   0  0  0  0  0  0  0  0  0  0  0  0
   18.0780   61.5640  -10.3600 C   0  0  0  0  0  0  0  0  0  0  0  0
   18.7880   60.5290  -10.2230 O   0  0  0  0  0  0  0  0  0  0  0  0
   16.8510   61.9060   -9.7360 N   0  0  0  0  0  0  0  0  0  0  0  0
   16.2490   62.9310  -10.5180 C   0  0  0  0  0  0  0  0  0  0  0  0
   16.5150   61.4360   -8.8500 H   0  0  0  0  0  0  0  0  0  0  0  0
   15.2670   62.4080  -11.5400 C   0  0  0  0  0  2  0  0  0  0  0  0
   15.3710   63.8590   -9.6960 C   0  0  0  0  0  2  0  0  0  0  0  0
   17.3870   63.6260  -11.1170 C   0  0  0  0  0  0  0  0  0  0  0  0
   14.5660   63.6850  -11.9650 C   0  0  0  0  0  2  0  0  0  0  0  0
   14.6300   64.6120  -10.7750 C   0  0  0  0  0  2  0  0  0  0  0  0
   17.4710   64.8320  -11.4640 O   0  0  0  0  0  0  0  0  0  0  0  0
   22.7180   65.4050   -6.6730 S   0  0  0  0  0  0  0  0  0  0  0  0
   21.6100   66.1030   -5.9050 O   0  0  0  0  0  0  0  0  0  0  0  0
   23.6720   66.4950   -7.0940 O   0  0  0  0  0  0  0  0  0  0  0  0
   23.5380   64.2360   -5.6670 C   0  0  0  0  0  0  0  0  0  0  0  0
   24.5760   63.4580   -6.1400 C   0  0  0  0  0  3  0  0  0  0  0  0
   25.2230   62.5300   -5.3320 C   0  0  0  0  0  3  0  0  0  0  0  0
   24.8460   62.3570   -4.0250 C   0  0  0  0  0  0  0  0  0  0  0  0
   23.8100   63.1270   -3.5400 C   0  0  0  0  0  3  0  0  0  0  0  0
   25.7360   61.0740   -2.8980 Br  0  0  0  0  0  0  0  0  0  0  0  0
   23.1700   64.0520   -4.3520 C   0  0  0  0  0  3  0  0  0  0  0  0
  1  6  1  0  0  0  0
  1 22  1  0  0  0  0
  2  1  1  0  0  0  0
  3  2  1  0  0  0  0
  4  3  1  0  0  0  0
  4  5  1  0  0  0  0
  5  6  1  0  0  0  0
  7  4  1  0  0  0  0
  8  7  2  0  0  0  0
  9  7  1  0  0  0  0
  9 10  1  0  0  0  0
 10 18  1  0  0  0  0
 10 11  1  0  0  0  0
 11 12  2  0  0  0  0
 11 13  1  0  0  0  0
 13 15  1  0  0  0  0
 14 13  1  0  0  0  0
 14 17  1  0  0  0  0
 16 14  1  0  0  0  0
 18 14  1  0  0  0  0
 19 16  1  0  0  0  0
 19 20  1  0  0  0  0
 20 17  1  0  0  0  0
 21 18  2  0  0  0  0
 22 23  2  0  0  0  0
 22 25  1  0  0  0  0
 24 22  2  0  0  0  0
 25 31  1  0  0  0  0
 26 25  2  0  0  0  0
 26 27  1  0  0  0  0
 27 28  2  0  0  0  0
 28 29  1  0  0  0  0
 28 30  1  0  0  0  0
 31 29  2  0  0  0  0
M  END
>  <Pose>
1

>  <Score>
-7.340

$$$$
