/Users/jonathanwahrer/Desktop/Msc/3_Semester/Drug_Design_Praktikum/waehrer_HTS_screening/HTS_experiment/out/docking_results/vina_output/3sx0/1051_docked.pdbqt
 OpenBabel03192222153D

 27 30  0  0  0  0  0  0  0  0999 V2000
   13.4220   63.7680  -12.3330 N   0  0  0  0  0  0  0  0  0  0  0  0
   14.3180   64.5350  -11.5490 C   0  0  0  0  0  2  0  0  0  0  0  0
   15.5930   63.8740  -11.1510 C   0  0  0  0  0  2  0  0  0  0  0  0
   15.4700   62.4610  -10.9080 N   0  0  0  0  0  0  0  0  0  0  0  0
   14.1480   61.8940  -11.0570 C   0  0  0  0  0  2  0  0  0  0  0  0
   13.6730   62.3700  -12.4140 C   0  0  0  0  0  2  0  0  0  0  0  0
   16.5370   61.6200  -10.5410 C   0  0  0  0  0  0  0  0  0  0  0  0
   16.3320   60.4010  -10.3510 O   0  0  0  0  0  0  0  0  0  0  0  0
   17.8830   62.1580  -10.3800 C   0  0  0  0  0  0  0  0  0  0  0  0
   18.4680   62.4610   -9.2250 N   0  0  0  0  0  0  0  0  0  0  0  0
   19.6990   62.9300   -9.4360 N   0  0  0  0  0  0  0  0  0  0  0  0
   19.9520   62.9450  -10.7650 C   0  0  0  0  0  0  0  0  0  0  0  0
   20.6600   63.3600   -8.5910 C   0  0  0  0  0  3  0  0  0  0  0  0
   18.7890   62.4520  -11.3670 C   0  0  0  0  0  3  0  0  0  0  0  0
   21.1360   63.3790  -11.2660 N   0  0  0  0  0  0  0  0  0  0  0  0
   22.1050   63.8130  -10.4090 C   0  0  0  0  0  3  0  0  0  0  0  0
   21.8790   63.8090   -9.0500 C   0  0  0  0  0  0  0  0  0  0  0  0
   23.2470   64.4220   -7.8450 Br  0  0  0  0  0  0  0  0  0  0  0  0
   13.1870   64.3770  -13.9270 S   0  0  0  0  0  0  0  0  0  0  0  0
   13.2630   63.2630  -14.9200 O   0  0  0  0  0  0  0  0  0  0  0  0
   14.3390   65.3360  -14.1950 O   0  0  0  0  0  0  0  0  0  0  0  0
   11.6520   65.1890  -14.0970 C   0  0  0  0  0  0  0  0  0  0  0  0
   10.4280   64.6170  -14.3600 C   0  0  0  0  0  3  0  0  0  0  0  0
    9.4910   65.5640  -14.4170 N   0  0  0  0  0  0  0  0  0  0  0  0
   10.0630   66.7320  -14.1980 N   0  0  0  0  0  0  0  0  0  0  0  0
    8.0860   65.3870  -14.6690 C   0  0  0  0  0  1  0  0  0  0  0  0
   11.3940   66.5570  -13.9960 C   0  0  0  0  0  3  0  0  0  0  0  0
  1  2  1  0  0  0  0
  2  3  1  0  0  0  0
  3  4  1  0  0  0  0
  4  7  1  0  0  0  0
  5  4  1  0  0  0  0
  6  1  1  0  0  0  0
  6  5  1  0  0  0  0
  7  9  1  0  0  0  0
  7  8  2  0  0  0  0
  9 10  2  0  0  0  0
 11 10  1  0  0  0  0
 11 13  1  0  0  0  0
 12 11  1  0  0  0  0
 14 12  2  0  0  0  0
 14  9  1  0  0  0  0
 15 12  1  0  0  0  0
 15 16  2  0  0  0  0
 16 17  1  0  0  0  0
 17 13  2  0  0  0  0
 17 18  1  0  0  0  0
 19  1  1  0  0  0  0
 20 19  2  0  0  0  0
 21 19  2  0  0  0  0
 22 27  1  0  0  0  0
 22 19  1  0  0  0  0
 23 22  2  0  0  0  0
 24 23  1  0  0  0  0
 24 25  1  0  0  0  0
 25 27  2  0  0  0  0
 26 24  1  0  0  0  0
M  END
>  <Pose>
1

>  <Score>
-8.333

$$$$
