/Users/jonathanwahrer/Desktop/Msc/3_Semester/Drug_Design_Praktikum/waehrer_HTS_screening/HTS_experiment/out/docking_results/vina_output/3sx0/1076_docked.pdbqt
 OpenBabel03192222163D

 29 32  0  0  0  0  0  0  0  0999 V2000
   22.0370   64.6560   -7.8100 N   0  0  0  0  0  0  0  0  0  0  0  0
   21.5590   65.6370   -8.7330 C   0  0  0  0  0  2  0  0  0  0  0  0
   20.6980   64.8710   -9.7510 C   0  0  0  0  0  2  0  0  0  0  0  0
   21.1590   63.5650   -9.9410 N   0  0  0  0  0  0  0  0  0  0  0  0
   22.5750   63.3640   -9.7970 C   0  0  0  0  0  2  0  0  0  0  0  0
   23.1240   63.9560   -8.5180 C   0  0  0  0  0  2  0  0  0  0  0  0
   20.3560   62.4570   -9.6330 C   0  0  0  0  0  2  0  0  0  0  0  0
   18.9780   62.4900  -10.0030 N   0  0  0  0  0  0  0  0  0  0  0  0
   18.3610   63.6960  -10.4220 N   0  0  0  0  0  0  0  0  0  0  0  0
   17.0100   63.3550  -10.7200 C   0  0  0  0  0  0  0  0  0  0  0  0
   18.8050   64.6420  -10.4960 H   0  0  0  0  0  0  0  0  0  0  0  0
   16.1190   64.2410  -11.1480 C   0  0  0  0  0  3  0  0  0  0  0  0
   16.7700   61.9740  -10.5000 N   0  0  0  0  0  0  0  0  0  0  0  0
   14.6890   64.1680  -11.5240 C   0  0  0  0  0  2  0  0  0  0  0  0
   13.9960   63.0390  -10.8000 C   0  0  0  0  0  2  0  0  0  0  0  0
   14.5020   61.7570  -11.4370 C   0  0  0  0  0  2  0  0  0  0  0  0
   15.6140   61.1420  -10.6430 C   0  0  0  0  0  2  0  0  0  0  0  0
   18.0140   61.4480  -10.0500 C   0  0  0  0  0  0  0  0  0  0  0  0
   18.1880   60.2400   -9.7510 O   0  0  0  0  0  0  0  0  0  0  0  0
   22.7220   65.3140   -6.3860 S   0  0  0  0  0  0  0  0  0  0  0  0
   21.7110   66.0750   -5.5710 O   0  0  0  0  0  0  0  0  0  0  0  0
   23.7660   66.3190   -6.8150 O   0  0  0  0  0  0  0  0  0  0  0  0
   23.4920   64.1480   -5.3800 C   0  0  0  0  0  0  0  0  0  0  0  0
   24.6810   63.5290   -5.6300 C   0  0  0  0  0  3  0  0  0  0  0  0
   25.2160   62.6000   -4.7490 C   0  0  0  0  0  0  0  0  0  0  0  0
   24.5740   62.2660   -3.5940 C   0  0  0  0  0  3  0  0  0  0  0  0
   26.8930   61.7400   -5.1230 Br  0  0  0  0  0  0  0  0  0  0  0  0
   23.3630   62.8780   -3.3120 C   0  0  0  0  0  3  0  0  0  0  0  0
   22.8440   63.7950   -4.1910 C   0  0  0  0  0  3  0  0  0  0  0  0
  1 20  1  0  0  0  0
  2  1  1  0  0  0  0
  3  2  1  0  0  0  0
  4  5  1  0  0  0  0
  4  3  1  0  0  0  0
  4  7  1  0  0  0  0
  5  6  1  0  0  0  0
  6  1  1  0  0  0  0
  8  7  1  0  0  0  0
  9  8  1  0  0  0  0
 10 13  1  0  0  0  0
 10  9  1  0  0  0  0
 11  9  1  0  0  0  0
 12 10  2  0  0  0  0
 13 18  1  0  0  0  0
 14 12  1  0  0  0  0
 14 15  1  0  0  0  0
 16 15  1  0  0  0  0
 16 17  1  0  0  0  0
 17 13  1  0  0  0  0
 18  8  1  0  0  0  0
 18 19  2  0  0  0  0
 20 21  2  0  0  0  0
 20 23  1  0  0  0  0
 22 20  2  0  0  0  0
 23 29  1  0  0  0  0
 24 23  2  0  0  0  0
 24 25  1  0  0  0  0
 25 26  2  0  0  0  0
 26 28  1  0  0  0  0
 27 25  1  0  0  0  0
 29 28  2  0  0  0  0
M  END
>  <Pose>
1

>  <Score>
-9.057

$$$$
