/Users/jonathanwahrer/Desktop/Msc/3_Semester/Drug_Design_Praktikum/waehrer_HTS_screening/HTS_experiment/out/docking_results/vina_output/3sx0/1081_docked.pdbqt
 OpenBabel03192222163D

 27 30  0  0  0  0  0  0  0  0999 V2000
   15.3980   64.8180  -11.4340 N   0  0  0  0  0  0  0  0  0  0  0  0
   16.5330   64.6220  -12.2530 C   0  0  0  0  0  2  0  0  0  0  0  0
   17.6420   63.7990  -11.6880 C   0  0  0  0  0  2  0  0  0  0  0  0
   17.3990   63.2990  -10.3580 N   0  0  0  0  0  0  0  0  0  0  0  0
   16.6600   64.0960   -9.4340 C   0  0  0  0  0  3  0  0  0  0  0  0
   15.5880   64.9340  -10.0380 C   0  0  0  0  0  3  0  0  0  0  0  0
   17.9340   62.0080  -10.0320 C   0  0  0  0  0  0  0  0  0  0  0  0
   19.1920   61.7560   -9.6320 N   0  0  0  0  0  0  0  0  0  0  0  0
   19.2480   60.4300   -9.4580 N   0  0  0  0  0  0  0  0  0  0  0  0
   18.0800   59.8950   -9.7370 N   0  0  0  0  0  0  0  0  0  0  0  0
   17.2380   60.8410  -10.0970 N   0  0  0  0  0  0  0  0  0  0  0  0
   20.2300   62.7040   -9.4290 C   0  0  0  0  0  0  0  0  0  0  0  0
   21.0710   63.0750  -10.4530 C   0  0  0  0  0  3  0  0  0  0  0  0
   22.0800   64.0090  -10.2220 C   0  0  0  0  0  3  0  0  0  0  0  0
   22.2600   64.5760   -8.9800 C   0  0  0  0  0  3  0  0  0  0  0  0
   21.4050   64.1980   -7.9370 C   0  0  0  0  0  3  0  0  0  0  0  0
   20.4000   63.2620   -8.1870 C   0  0  0  0  0  3  0  0  0  0  0  0
   13.9590   64.0460  -11.9110 S   0  0  0  0  0  0  0  0  0  0  0  0
   12.9550   63.8820  -10.8410 O   0  0  0  0  0  0  0  0  0  0  0  0
   14.3210   62.6420  -12.3800 O   0  0  0  0  0  0  0  0  0  0  0  0
   13.2690   64.8740  -13.2790 C   0  0  0  0  0  0  0  0  0  0  0  0
   14.0090   65.6510  -14.1350 C   0  0  0  0  0  3  0  0  0  0  0  0
   13.4440   66.3070  -15.2280 C   0  0  0  0  0  3  0  0  0  0  0  0
   12.0700   66.1570  -15.4470 C   0  0  0  0  0  0  0  0  0  0  0  0
   11.3170   65.3810  -14.5950 C   0  0  0  0  0  3  0  0  0  0  0  0
   11.2280   67.0270  -16.9290 Br  0  0  0  0  0  0  0  0  0  0  0  0
   11.9090   64.7550  -13.5340 C   0  0  0  0  0  3  0  0  0  0  0  0
  1  6  1  0  0  0  0
  2  3  1  0  0  0  0
  2  1  1  0  0  0  0
  3  4  1  0  0  0  0
  4  7  1  0  0  0  0
  4  5  1  0  0  0  0
  6  5  2  0  0  0  0
  7  8  1  0  0  0  0
  8  9  1  0  0  0  0
  8 12  1  0  0  0  0
 10  9  2  0  0  0  0
 11  7  2  0  0  0  0
 11 10  1  0  0  0  0
 12 17  1  0  0  0  0
 13 14  1  0  0  0  0
 13 12  2  0  0  0  0
 14 15  2  0  0  0  0
 15 16  1  0  0  0  0
 17 16  2  0  0  0  0
 18  1  1  0  0  0  0
 18 19  2  0  0  0  0
 20 18  2  0  0  0  0
 21 18  1  0  0  0  0
 22 21  2  0  0  0  0
 23 22  1  0  0  0  0
 24 23  2  0  0  0  0
 24 25  1  0  0  0  0
 25 27  2  0  0  0  0
 26 24  1  0  0  0  0
 27 21  1  0  0  0  0
M  END
>  <Pose>
1

>  <Score>
-5.897

$$$$
