/Users/jonathanwahrer/Desktop/Msc/3_Semester/Drug_Design_Praktikum/waehrer_HTS_screening/HTS_experiment/out/docking_results/vina_output/3sx0/1089_docked.pdbqt
 OpenBabel03192222163D

 25 28  0  0  0  0  0  0  0  0999 V2000
   22.1290   65.1550   -7.8770 N   0  0  0  0  0  0  0  0  0  0  0  0
   23.2380   65.9090   -7.4350 C   0  0  0  0  0  2  0  0  0  0  0  0
   23.7520   65.5830   -6.0550 C   0  0  0  0  0  2  0  0  0  0  0  0
   22.9610   64.6020   -5.3820 N   0  0  0  0  0  0  0  0  0  0  0  0
   21.5430   64.4120   -5.6320 C   0  0  0  0  0  2  0  0  0  0  0  0
   21.1070   65.0660   -6.9100 C   0  0  0  0  0  2  0  0  0  0  0  0
   23.5590   63.7490   -4.4150 C   0  0  0  0  0  0  0  0  0  0  0  0
   22.9250   63.5320   -3.2250 N   0  0  0  0  0  0  0  0  0  0  0  0
   23.4650   62.7290   -2.3070 C   0  0  0  0  0  3  0  0  0  0  0  0
   24.6280   62.1100   -2.5030 N   0  0  0  0  0  0  0  0  0  0  0  0
   25.2620   62.3090   -3.6560 C   0  0  0  0  0  0  0  0  0  0  0  0
   26.4220   61.8350   -4.1210 N   0  0  0  0  0  0  0  0  0  0  0  0
   24.7580   63.1360   -4.6620 C   0  0  0  0  0  0  0  0  0  0  0  0
   26.6300   62.3480   -5.3650 C   0  0  0  0  0  3  0  0  0  0  0  0
   25.6120   63.1440   -5.6960 N   0  0  0  0  0  0  0  0  0  0  0  0
   25.5240   63.6610   -6.5900 H   0  0  0  0  0  0  0  0  0  0  0  0
   22.3750   63.8710   -8.9180 S   0  0  0  0  0  0  0  0  0  0  0  0
   22.9000   62.6870   -8.1140 O   0  0  0  0  0  0  0  0  0  0  0  0
   23.3880   64.1430   -9.9710 O   0  0  0  0  0  0  0  0  0  0  0  0
   20.9180   63.2740   -9.7170 C   0  0  0  0  0  0  0  0  0  0  0  0
   19.4780   62.6730   -9.0310 S   0  0  0  0  0  0  0  0  0  0  0  0
   18.6120   62.3260  -10.4550 C   0  0  0  0  0  0  0  0  0  0  0  0
   19.4880   62.6960  -11.4460 C   0  0  0  0  0  3  0  0  0  0  0  0
   16.8560   61.6010  -10.6530 Br  0  0  0  0  0  0  0  0  0  0  0  0
   20.6730   63.1830  -11.0590 C   0  0  0  0  0  3  0  0  0  0  0  0
  1  2  1  0  0  0  0
  1  6  1  0  0  0  0
  2  3  1  0  0  0  0
  3  4  1  0  0  0  0
  4  7  1  0  0  0  0
  5  4  1  0  0  0  0
  6  5  1  0  0  0  0
  7  8  1  0  0  0  0
  8  9  2  0  0  0  0
 10  9  1  0  0  0  0
 11 10  2  0  0  0  0
 12 11  1  0  0  0  0
 13  7  2  0  0  0  0
 13 11  1  0  0  0  0
 14 12  2  0  0  0  0
 15 14  1  0  0  0  0
 15 13  1  0  0  0  0
 16 15  1  0  0  0  0
 17 18  2  0  0  0  0
 17  1  1  0  0  0  0
 19 17  2  0  0  0  0
 20 21  1  0  0  0  0
 20 17  1  0  0  0  0
 22 21  1  0  0  0  0
 23 25  1  0  0  0  0
 23 22  2  0  0  0  0
 24 22  1  0  0  0  0
 25 20  2  0  0  0  0
M  END
>  <Pose>
1

>  <Score>
-6.924

$$$$
