/Users/jonathanwahrer/Desktop/Msc/3_Semester/Drug_Design_Praktikum/waehrer_HTS_screening/HTS_experiment/out/docking_results/vina_output/3sx0/1100_docked.pdbqt
 OpenBabel03192222173D

 26 29  0  0  1  0  0  0  0  0999 V2000
   21.3010   63.1730   -9.9450 N   0  0  0  0  0  0  0  0  0  0  0  0
   20.3860   63.7560   -9.0220 C   0  0  0  0  0  2  0  0  0  0  0  0
   19.0590   64.1160   -9.6540 C   0  0  0  0  0  2  0  0  0  0  0  0
   18.7790   63.1210  -10.6570 N   0  0  1  0  0  0  0  0  0  0  0  0
   19.6640   63.1070  -11.7940 C   0  0  0  0  0  2  0  0  0  0  0  0
   21.0460   63.3940  -11.3280 C   0  0  0  0  0  2  0  0  0  0  0  0
   17.7100   62.1990  -10.5630 C   0  0  1  0  0  3  0  0  0  0  0  0
   17.8890   60.9430  -10.1550 C   0  0  0  0  0  3  0  0  0  0  0  0
   16.8190   59.9680  -10.0430 C   0  0  0  0  0  0  0  0  0  0  0  0
   17.0560   58.7330   -9.6330 C   0  0  0  0  0  1  0  0  0  0  0  0
   15.5070   60.3620  -10.3840 N   0  0  0  0  0  0  0  0  0  0  0  0
   15.3520   61.7220  -10.8170 C   0  0  0  0  0  0  0  0  0  0  0  0
   14.6820   59.7490  -10.3390 H   0  0  0  0  0  0  0  0  0  0  0  0
   16.3750   62.5850  -10.9040 N   0  0  0  0  0  0  0  0  0  0  0  0
   14.2540   62.4140  -11.2110 N   0  0  0  0  0  0  0  0  0  0  0  0
   15.9170   63.7640  -11.3340 N   0  0  0  0  0  0  0  0  0  0  0  0
   14.5900   63.6750  -11.5320 C   0  0  0  0  0  3  0  0  0  0  0  0
   22.9000   63.5390   -9.5030 S   0  0  0  0  0  0  0  0  0  0  0  0
   23.4840   64.6720  -10.3060 O   0  0  0  0  0  0  0  0  0  0  0  0
   23.7570   62.3210   -9.8100 O   0  0  0  0  0  0  0  0  0  0  0  0
   23.0730   63.8370   -7.7740 C   0  0  0  0  0  0  0  0  0  0  0  0
   24.1420   63.0540   -6.7120 S   0  0  0  0  0  0  0  0  0  0  0  0
   23.7360   63.8550   -5.2670 C   0  0  0  0  0  0  0  0  0  0  0  0
   22.7580   64.7300   -5.6570 C   0  0  0  0  0  3  0  0  0  0  0  0
   24.4530   63.6200   -3.4890 Br  0  0  0  0  0  0  0  0  0  0  0  0
   22.4140   64.7190   -6.9670 C   0  0  0  0  0  3  0  0  0  0  0  0
  1 18  1  0  0  0  0
  1  2  1  0  0  0  0
  3  2  1  0  0  0  0
  4  5  1  1  0  0  0
  4  7  1  0  0  0  0
  4  3  1  0  0  0  0
  5  6  1  0  0  0  0
  6  1  1  0  0  0  0
  7  8  1  1  0  0  0
  8  9  2  0  0  0  0
  9 10  1  0  0  0  0
 11 13  1  0  0  0  0
 11  9  1  0  0  0  0
 12 11  1  0  0  0  0
 14 12  1  0  0  0  0
 14  7  1  0  0  0  0
 15 12  2  0  0  0  0
 16 14  1  0  0  0  0
 17 16  2  0  0  0  0
 17 15  1  0  0  0  0
 18 21  1  0  0  0  0
 19 18  2  0  0  0  0
 20 18  2  0  0  0  0
 21 26  2  0  0  0  0
 21 22  1  0  0  0  0
 22 23  1  0  0  0  0
 23 25  1  0  0  0  0
 24 23  2  0  0  0  0
 26 24  1  0  0  0  0
M  END
>  <Pose>
1

>  <Score>
-8.118

$$$$
