/Users/jonathanwahrer/Desktop/Msc/3_Semester/Drug_Design_Praktikum/waehrer_HTS_screening/HTS_experiment/out/docking_results/vina_output/3sx0/1101_docked.pdbqt
 OpenBabel03192222173D

 26 29  0  0  0  0  0  0  0  0999 V2000
   17.4710   62.5450  -10.1540 N   0  0  0  0  0  0  0  0  0  0  0  0
   16.8320   63.7580   -9.8060 C   0  0  0  0  0  2  0  0  0  0  0  0
   15.7990   64.2520  -10.7550 C   0  0  0  0  0  2  0  0  0  0  0  0
   14.9530   63.1540  -11.2490 N   0  0  0  0  0  0  0  0  0  0  0  0
   15.1450   61.8920  -10.5680 C   0  0  0  0  0  2  0  0  0  0  0  0
   16.6130   61.5410  -10.7190 C   0  0  0  0  0  2  0  0  0  0  0  0
   18.9550   62.7020  -10.9710 S   0  0  0  0  0  0  0  0  0  0  0  0
   18.7810   63.7860  -12.0280 O   0  0  0  0  0  0  0  0  0  0  0  0
   19.2880   61.4440  -11.7180 O   0  0  0  0  0  0  0  0  0  0  0  0
   20.2620   63.2230   -9.9420 C   0  0  0  0  0  0  0  0  0  0  0  0
   20.0890   63.4020   -8.5760 C   0  0  0  0  0  3  0  0  0  0  0  0
   21.1220   63.8140   -7.7640 C   0  0  0  0  0  3  0  0  0  0  0  0
   22.3620   64.0540   -8.3340 C   0  0  0  0  0  0  0  0  0  0  0  0
   22.5840   63.8900   -9.6870 C   0  0  0  0  0  3  0  0  0  0  0  0
   23.7870   64.6270   -7.1890 Br  0  0  0  0  0  0  0  0  0  0  0  0
   21.5250   63.4770  -10.4630 C   0  0  0  0  0  3  0  0  0  0  0  0
   14.0380   63.3630  -12.3070 C   0  0  0  0  0  0  0  0  0  0  0  0
   13.8370   64.6570  -12.7710 C   0  0  0  0  0  3  0  0  0  0  0  0
   12.9340   64.8500  -13.8140 C   0  0  0  0  0  0  0  0  0  0  0  0
   12.2750   63.8370  -14.3610 N   0  0  0  0  0  0  0  0  0  0  0  0
   12.5730   65.9910  -14.4270 N   0  0  0  0  0  0  0  0  0  0  0  0
   11.4910   64.3390  -15.3280 C   0  0  0  0  0  0  0  0  0  0  0  0
   12.4540   62.6180  -13.9360 N   0  0  0  0  0  0  0  0  0  0  0  0
   11.6870   65.6720  -15.3550 N   0  0  0  0  0  0  0  0  0  0  0  0
   10.5650   63.5670  -16.2180 C   0  0  0  0  0  1  0  0  0  0  0  0
   13.3240   62.3740  -12.9210 C   0  0  0  0  0  3  0  0  0  0  0  0
  1  2  1  0  0  0  0
  3  2  1  0  0  0  0
  4  3  1  0  0  0  0
  4  5  1  0  0  0  0
  6  5  1  0  0  0  0
  6  1  1  0  0  0  0
  7  1  1  0  0  0  0
  7 10  1  0  0  0  0
  8  7  2  0  0  0  0
  9  7  2  0  0  0  0
 10 11  1  0  0  0  0
 11 12  2  0  0  0  0
 13 12  1  0  0  0  0
 13 15  1  0  0  0  0
 14 13  2  0  0  0  0
 16 10  2  0  0  0  0
 16 14  1  0  0  0  0
 17  4  1  0  0  0  0
 18 17  2  0  0  0  0
 19 18  1  0  0  0  0
 20 23  1  0  0  0  0
 20 19  1  0  0  0  0
 21 19  2  0  0  0  0
 22 20  1  0  0  0  0
 23 26  2  0  0  0  0
 24 22  2  0  0  0  0
 24 21  1  0  0  0  0
 25 22  1  0  0  0  0
 26 17  1  0  0  0  0
M  END
>  <Pose>
1

>  <Score>
-7.912

$$$$
