/Users/jonathanwahrer/Desktop/Msc/3_Semester/Drug_Design_Praktikum/waehrer_HTS_screening/HTS_experiment/out/docking_results/vina_output/3sx0/1112_docked.pdbqt
 OpenBabel03192222183D

 32 35  0  0  0  0  0  0  0  0999 V2000
   19.8710   62.9860  -10.9790 C   0  0  0  0  0  2  0  0  0  0  0  0
   20.7480   63.3200   -9.8310 C   0  0  0  0  0  0  0  0  0  0  0  0
   20.3150   63.5110   -8.5520 C   0  0  0  0  0  3  0  0  0  0  0  0
   21.2010   63.8260   -7.5270 C   0  0  0  0  0  3  0  0  0  0  0  0
   22.5400   63.9580   -7.7560 C   0  0  0  0  0  0  0  0  0  0  0  0
   22.9840   63.7650   -9.0510 C   0  0  0  0  0  3  0  0  0  0  0  0
   22.1040   63.4520  -10.0720 C   0  0  0  0  0  3  0  0  0  0  0  0
   23.6880   64.3560   -6.4860 S   0  0  0  0  0  0  0  0  0  0  0  0
   24.9690   64.8680   -7.0480 O   0  0  0  0  0  0  0  0  0  0  0  0
   23.0650   65.4840   -5.6900 O   0  0  0  0  0  0  0  0  0  0  0  0
   23.9450   63.0530   -5.4120 N   0  0  0  0  0  0  0  0  0  0  0  0
   23.9140   63.4440   -4.0270 C   0  0  0  0  0  2  0  0  0  0  0  0
   24.6180   62.3320   -3.2440 C   0  0  0  0  0  2  0  0  0  0  0  0
   25.9820   62.3960   -3.4360 O   0  0  0  0  0  0  0  0  0  0  0  0
   26.2400   63.0230   -4.6680 C   0  0  0  0  0  2  0  0  0  0  0  0
   25.2420   62.4540   -5.6660 C   0  0  0  0  0  2  0  0  0  0  0  0
   19.3770   61.6670  -10.9070 O   0  0  0  0  0  0  0  0  0  0  0  0
   18.4070   61.2350  -10.0360 C   0  0  0  0  0  0  0  0  0  0  0  0
   18.3600   60.0280   -9.7260 O   0  0  0  0  0  0  0  0  0  0  0  0
   17.4340   62.1670   -9.4710 C   0  0  0  0  0  2  0  0  0  0  0  0
   16.3530   62.4790  -10.3580 N   0  0  0  0  0  0  0  0  0  0  0  0
   16.1410   63.7880  -10.9030 C   0  0  0  0  0  0  0  0  0  0  0  0
   16.8570   64.8060  -10.6810 O   0  0  0  0  0  0  0  0  0  0  0  0
   14.9620   63.7620  -11.7610 C   0  0  0  0  0  0  0  0  0  0  0  0
   14.4470   62.4920  -11.7600 C   0  0  0  0  0  0  0  0  0  0  0  0
   14.3190   64.7160  -12.5160 C   0  0  0  0  0  3  0  0  0  0  0  0
   13.3190   62.1920  -12.4980 C   0  0  0  0  0  3  0  0  0  0  0  0
   15.3090   61.6780  -10.8850 C   0  0  0  0  0  0  0  0  0  0  0  0
   12.6850   63.1610  -13.2530 C   0  0  0  0  0  3  0  0  0  0  0  0
   13.1920   64.4430  -13.2630 C   0  0  0  0  0  0  0  0  0  0  0  0
   12.3520   65.8140  -14.2880 Br  0  0  0  0  0  0  0  0  0  0  0  0
   15.1680   60.4620  -10.6270 O   0  0  0  0  0  0  0  0  0  0  0  0
  1 17  1  0  0  0  0
  1  2  1  0  0  0  0
  2  3  1  0  0  0  0
  3  4  2  0  0  0  0
  5  4  1  0  0  0  0
  5  8  1  0  0  0  0
  6  5  2  0  0  0  0
  7  2  2  0  0  0  0
  7  6  1  0  0  0  0
  8 10  2  0  0  0  0
  8 11  1  0  0  0  0
  9  8  2  0  0  0  0
 11 12  1  0  0  0  0
 12 13  1  0  0  0  0
 14 13  1  0  0  0  0
 15 14  1  0  0  0  0
 16 11  1  0  0  0  0
 16 15  1  0  0  0  0
 17 18  1  0  0  0  0
 18 19  2  0  0  0  0
 18 20  1  0  0  0  0
 21 20  1  0  0  0  0
 22 23  2  0  0  0  0
 22 21  1  0  0  0  0
 24 25  1  0  0  0  0
 24 22  1  0  0  0  0
 25 28  1  0  0  0  0
 26 24  2  0  0  0  0
 27 25  2  0  0  0  0
 28 32  2  0  0  0  0
 28 21  1  0  0  0  0
 29 27  1  0  0  0  0
 30 29  2  0  0  0  0
 30 26  1  0  0  0  0
 31 30  1  0  0  0  0
M  END
>  <Pose>
1

>  <Score>
-9.352

$$$$
