/Users/jonathanwahrer/Desktop/Msc/3_Semester/Drug_Design_Praktikum/waehrer_HTS_screening/HTS_experiment/out/docking_results/vina_output/3sx0/1113_docked.pdbqt
 OpenBabel03192222183D

 28 31  0  0  0  0  0  0  0  0999 V2000
   22.7010   64.1950   -7.7820 C   0  0  0  0  0  0  0  0  0  0  0  0
   23.7270   64.1110   -8.6450 N   0  0  0  0  0  0  0  0  0  0  0  0
   23.2430   63.8000   -9.8750 C   0  0  0  0  0  3  0  0  0  0  0  0
   21.9060   63.6840   -9.8070 N   0  0  0  0  0  0  0  0  0  0  0  0
   21.5640   63.9200   -8.5490 C   0  0  0  0  0  3  0  0  0  0  0  0
   21.0460   63.3610  -10.9270 C   0  0  0  0  0  2  0  0  0  0  0  0
   19.6370   63.1830  -10.5010 C   0  0  0  0  0  0  0  0  0  0  0  0
   19.0650   61.9970  -10.1670 N   0  0  0  0  0  0  0  0  0  0  0  0
   17.8270   62.2220   -9.8470 O   0  0  0  0  0  0  0  0  0  0  0  0
   17.5310   63.4930   -9.9470 C   0  0  0  0  0  0  0  0  0  0  0  0
   18.6750   64.0970  -10.3600 N   0  0  0  0  0  0  0  0  0  0  0  0
   16.2260   64.1670   -9.6730 C   0  0  0  0  0  2  0  0  0  0  0  0
   15.2750   63.7030  -10.7210 C   0  0  0  0  0  0  0  0  0  0  0  0
   14.8170   64.6250  -11.6490 C   0  0  0  0  0  3  0  0  0  0  0  0
   13.9410   64.2880  -12.6470 C   0  0  0  0  0  3  0  0  0  0  0  0
   13.5120   62.9910  -12.7210 C   0  0  0  0  0  0  0  0  0  0  0  0
   13.9310   62.0490  -11.8340 C   0  0  0  0  0  3  0  0  0  0  0  0
   12.2920   62.4840  -14.0970 Br  0  0  0  0  0  0  0  0  0  0  0  0
   14.8210   62.4200  -10.8290 C   0  0  0  0  0  3  0  0  0  0  0  0
   22.7590   64.5660   -6.0750 S   0  0  0  0  0  0  0  0  0  0  0  0
   23.2720   65.9920   -5.9270 O   0  0  0  0  0  0  0  0  0  0  0  0
   21.3490   64.5960   -5.5180 O   0  0  0  0  0  0  0  0  0  0  0  0
   23.7470   63.5540   -5.1760 N   0  0  0  0  0  0  0  0  0  0  0  0
   24.7510   62.8340   -5.8420 C   0  0  0  0  0  2  0  0  0  0  0  0
   26.0480   62.8960   -5.0900 C   0  0  0  0  0  2  0  0  0  0  0  0
   25.8170   62.4090   -3.8150 O   0  0  0  0  0  0  0  0  0  0  0  0
   24.9860   63.2360   -3.0710 C   0  0  0  0  0  2  0  0  0  0  0  0
   23.7670   63.6770   -3.7840 C   0  0  0  0  0  2  0  0  0  0  0  0
  1 20  1  0  0  0  0
  2  1  1  0  0  0  0
  3  4  1  0  0  0  0
  3  2  2  0  0  0  0
  4  5  1  0  0  0  0
  5  1  2  0  0  0  0
  6  7  1  0  0  0  0
  6  4  1  0  0  0  0
  7 11  1  0  0  0  0
  7  8  2  0  0  0  0
  8  9  1  0  0  0  0
 10  9  1  0  0  0  0
 10 12  1  0  0  0  0
 11 10  2  0  0  0  0
 13 12  1  0  0  0  0
 14 13  2  0  0  0  0
 15 14  1  0  0  0  0
 16 15  2  0  0  0  0
 16 17  1  0  0  0  0
 17 19  2  0  0  0  0
 18 16  1  0  0  0  0
 19 13  1  0  0  0  0
 20 21  2  0  0  0  0
 20 22  2  0  0  0  0
 20 23  1  0  0  0  0
 23 28  1  0  0  0  0
 24 23  1  0  0  0  0
 24 25  1  0  0  0  0
 25 26  1  0  0  0  0
 26 27  1  0  0  0  0
 28 27  1  0  0  0  0
M  END
>  <Pose>
1

>  <Score>
-9.638

$$$$
