/Users/jonathanwahrer/Desktop/Msc/3_Semester/Drug_Design_Praktikum/waehrer_HTS_screening/HTS_experiment/out/docking_results/vina_output/3sx0/1114_docked.pdbqt
 OpenBabel03192222183D

 27 30  0  0  0  0  0  0  0  0999 V2000
   22.9380   64.0540   -7.4560 C   0  0  0  0  0  0  0  0  0  0  0  0
   23.8830   63.5080   -8.2410 N   0  0  0  0  0  0  0  0  0  0  0  0
   23.3890   63.3950   -9.4880 C   0  0  0  0  0  3  0  0  0  0  0  0
   22.1310   63.8570   -9.5370 N   0  0  0  0  0  0  0  0  0  0  0  0
   21.8520   64.2630   -8.2880 C   0  0  0  0  0  3  0  0  0  0  0  0
   21.2670   63.9050  -10.6980 C   0  0  0  0  0  2  0  0  0  0  0  0
   19.9670   63.2330  -10.4720 C   0  0  0  0  0  0  0  0  0  0  0  0
   19.7640   62.2330   -9.5930 N   0  0  0  0  0  0  0  0  0  0  0  0
   18.5160   61.8790   -9.6510 O   0  0  0  0  0  0  0  0  0  0  0  0
   17.8680   62.5940  -10.5290 C   0  0  0  0  0  0  0  0  0  0  0  0
   18.7720   63.4430  -11.0440 N   0  0  0  0  0  0  0  0  0  0  0  0
   16.4450   62.4610  -10.8480 C   0  0  0  0  0  0  0  0  0  0  0  0
   15.7310   63.4800  -11.4430 C   0  0  0  0  0  3  0  0  0  0  0  0
   14.3780   63.3380  -11.7410 C   0  0  0  0  0  0  0  0  0  0  0  0
   13.7060   62.1720  -11.4510 C   0  0  0  0  0  3  0  0  0  0  0  0
   13.4070   64.7640  -12.5660 Br  0  0  0  0  0  0  0  0  0  0  0  0
   14.4170   61.1520  -10.8570 C   0  0  0  0  0  3  0  0  0  0  0  0
   15.7740   61.2970  -10.5580 C   0  0  0  0  0  3  0  0  0  0  0  0
   23.0610   64.4240   -5.7310 S   0  0  0  0  0  0  0  0  0  0  0  0
   23.6890   65.7870   -5.6130 O   0  0  0  0  0  0  0  0  0  0  0  0
   21.7070   64.5000   -5.1040 O   0  0  0  0  0  0  0  0  0  0  0  0
   24.0620   63.2940   -4.9280 N   0  0  0  0  0  0  0  0  0  0  0  0
   24.1430   63.4730   -3.5260 C   0  0  0  0  0  2  0  0  0  0  0  0
   25.4610   63.1830   -2.8880 C   0  0  0  0  0  2  0  0  0  0  0  0
   26.0370   62.1010   -3.5930 O   0  0  0  0  0  0  0  0  0  0  0  0
   26.4520   62.6600   -4.8050 C   0  0  0  0  0  2  0  0  0  0  0  0
   25.2520   62.9700   -5.6260 C   0  0  0  0  0  2  0  0  0  0  0  0
  1 19  1  0  0  0  0
  2  1  1  0  0  0  0
  3  2  2  0  0  0  0
  4  3  1  0  0  0  0
  4  5  1  0  0  0  0
  5  1  2  0  0  0  0
  6  7  1  0  0  0  0
  6  4  1  0  0  0  0
  7  8  2  0  0  0  0
  9  8  1  0  0  0  0
 10  9  1  0  0  0  0
 11 10  2  0  0  0  0
 11  7  1  0  0  0  0
 12 18  1  0  0  0  0
 12 10  1  0  0  0  0
 13 12  2  0  0  0  0
 14 15  2  0  0  0  0
 14 13  1  0  0  0  0
 15 17  1  0  0  0  0
 16 14  1  0  0  0  0
 17 18  2  0  0  0  0
 19 20  2  0  0  0  0
 19 21  2  0  0  0  0
 19 22  1  0  0  0  0
 22 23  1  0  0  0  0
 23 24  1  0  0  0  0
 25 24  1  0  0  0  0
 26 25  1  0  0  0  0
 27 22  1  0  0  0  0
 27 26  1  0  0  0  0
M  END
>  <Pose>
1

>  <Score>
-9.259

$$$$
