/Users/jonathanwahrer/Desktop/Msc/3_Semester/Drug_Design_Praktikum/waehrer_HTS_screening/HTS_experiment/out/docking_results/vina_output/3sx0/1133_docked.pdbqt
 OpenBabel03192222193D

 35 38  0  0  1  0  0  0  0  0999 V2000
   22.4480   63.6580  -10.4480 C   0  0  0  0  0  0  0  0  0  0  0  0
   21.2640   63.5690   -9.8410 N   0  0  0  0  0  0  0  0  0  0  0  0
   21.4710   63.8710   -8.5320 C   0  0  0  0  0  0  0  0  0  0  0  0
   20.7540   63.9000   -7.3980 N   0  0  0  0  0  0  0  0  0  0  0  0
   21.2270   64.1770   -6.1790 C   0  0  0  0  0  0  0  0  0  0  0  0
   22.5780   64.4730   -6.0620 N   0  0  0  0  0  0  0  0  0  0  0  0
   23.3570   64.4680   -7.1150 C   0  0  0  0  0  0  0  0  0  0  0  0
   22.8510   64.1710   -8.3640 C   0  0  0  0  0  0  0  0  0  0  0  0
   23.3920   64.0190   -9.5670 N   0  0  0  0  0  0  0  0  0  0  0  0
   19.9690   63.2720  -10.3640 C   0  0  2  0  0  3  0  0  0  0  0  0
   18.9640   64.1770   -9.9580 O   0  0  0  0  0  0  0  0  0  0  0  0
   17.8360   63.5030  -10.4800 C   0  0  1  0  0  3  0  0  0  0  0  0
   18.0090   62.1740   -9.6990 C   0  0  2  0  0  3  0  0  0  0  0  0
   19.4530   61.8880  -10.1300 C   0  0  1  0  0  3  0  0  0  0  0  0
   16.5650   64.1890  -10.1490 C   0  0  0  0  0  2  0  0  0  0  0  0
   15.4790   63.5310  -10.7410 O   0  0  0  0  0  0  0  0  0  0  0  0
   15.5700   63.6490  -11.7360 H   0  0  0  0  0  0  0  0  0  0  0  0
   17.1270   61.2090  -10.1020 O   0  0  0  0  0  0  0  0  0  0  0  0
   16.2820   61.6220  -10.4020 H   0  0  0  0  0  0  0  0  0  0  0  0
   19.3750   61.1560  -11.3420 O   0  0  0  0  0  0  0  0  0  0  0  0
   19.4890   60.2200  -11.0640 H   0  0  0  0  0  0  0  0  0  0  0  0
   22.7870   63.2640  -12.1690 S   0  0  0  0  0  0  0  0  0  0  0  0
   24.5000   63.7850  -12.6210 C   0  0  0  0  0  2  0  0  0  0  0  0
   24.7260   63.5440  -14.0650 C   0  0  0  0  0  0  0  0  0  0  0  0
   25.9560   63.3110  -14.6280 C   0  0  0  0  0  0  0  0  0  0  0  0
   26.1360   63.2310  -15.9650 C   0  0  0  0  0  3  0  0  0  0  0  0
   27.3820   62.9700  -13.3990 Br  0  0  0  0  0  0  0  0  0  0  0  0
   25.0740   63.3720  -16.8510 C   0  0  0  0  0  3  0  0  0  0  0  0
   23.8040   63.6140  -16.3100 C   0  0  0  0  0  3  0  0  0  0  0  0
   23.6350   63.6970  -14.9410 C   0  0  0  0  0  3  0  0  0  0  0  0
   20.4530   64.1550   -4.9690 N   0  0  0  0  0  0  0  0  0  0  0  0
   20.5000   63.4640   -4.2240 H   0  0  0  0  0  0  0  0  0  0  0  0
   19.7150   64.9340   -4.8550 H   0  0  0  0  0  0  0  0  0  0  0  0
   24.6970   64.7610   -7.0570 O   0  0  0  0  0  0  0  0  0  0  0  0
   25.1370   65.4950   -7.6020 H   0  0  0  0  0  0  0  0  0  0  0  0
  1  2  1  0  0  0  0
  1  9  2  0  0  0  0
  2  3  1  0  0  0  0
  3  8  2  0  0  0  0
  3  4  1  0  0  0  0
  4  5  2  0  0  0  0
  5  6  1  0  0  0  0
  5 31  1  0  0  0  0
  7 34  1  0  0  0  0
  7  6  2  0  0  0  0
  8  7  1  0  0  0  0
  9  8  1  0  0  0  0
 10 14  1  0  0  0  0
 10 11  1  0  0  0  0
 10  2  1  1  0  0  0
 12 15  1  1  0  0  0
 12 11  1  0  0  0  0
 12 13  1  0  0  0  0
 13 18  1  6  0  0  0
 14 20  1  6  0  0  0
 14 13  1  0  0  0  0
 16 15  1  0  0  0  0
 17 16  1  0  0  0  0
 19 18  1  0  0  0  0
 20 21  1  0  0  0  0
 22  1  1  0  0  0  0
 23 22  1  0  0  0  0
 24 23  1  0  0  0  0
 25 24  1  0  0  0  0
 25 27  1  0  0  0  0
 26 25  2  0  0  0  0
 28 29  2  0  0  0  0
 28 26  1  0  0  0  0
 29 30  1  0  0  0  0
 30 24  2  0  0  0  0
 31 33  1  0  0  0  0
 31 32  1  0  0  0  0
 35 34  1  0  0  0  0
M  END
>  <Pose>
1

>  <Score>
-9.231

$$$$
