/Users/jonathanwahrer/Desktop/Msc/3_Semester/Drug_Design_Praktikum/waehrer_HTS_screening/HTS_experiment/out/docking_results/vina_output/3sx0/1161_docked.pdbqt
 OpenBabel03192222203D

 29 32  0  0  1  0  0  0  0  0999 V2000
   21.0290   63.8680  -10.1430 N   0  0  0  0  0  0  0  0  0  0  0  0
   21.7490   64.0840   -9.0160 C   0  0  0  0  0  0  0  0  0  0  0  0
   23.0500   63.7430   -9.2290 C   0  0  0  0  0  0  0  0  0  0  0  0
   23.9850   63.8790   -8.2180 C   0  0  0  0  0  3  0  0  0  0  0  0
   23.5810   64.3630   -6.9950 C   0  0  0  0  0  3  0  0  0  0  0  0
   22.2770   64.7140   -6.7560 C   0  0  0  0  0  3  0  0  0  0  0  0
   21.3710   64.5660   -7.7830 C   0  0  0  0  0  3  0  0  0  0  0  0
   23.1320   63.3130  -10.4910 N   0  0  0  0  0  0  0  0  0  0  0  0
   21.8890   63.3910  -11.0480 C   0  0  1  0  0  3  0  0  0  0  0  0
   19.6170   64.1240  -10.2690 C   0  0  0  0  0  2  0  0  0  0  0  0
   18.8150   62.8810  -10.1510 C   0  0  0  0  0  0  0  0  0  0  0  0
   19.3190   61.8270   -9.6890 O   0  0  0  0  0  0  0  0  0  0  0  0
   17.4090   62.8230  -10.5650 C   0  0  0  0  0  0  0  0  0  0  0  0
   16.4030   64.0460  -11.2170 S   0  0  0  0  0  0  0  0  0  0  0  0
   14.9610   63.1630  -11.3950 C   0  0  0  0  0  0  0  0  0  0  0  0
   15.3080   61.9230  -10.9350 C   0  0  0  0  0  3  0  0  0  0  0  0
   13.2900   63.7800  -12.0740 Br  0  0  0  0  0  0  0  0  0  0  0  0
   16.5600   61.7460  -10.5100 C   0  0  0  0  0  3  0  0  0  0  0  0
   21.7000   63.0210  -12.2600 N   0  0  0  0  0  2  0  0  0  0  0  0
   21.4530   63.5860  -13.0710 H   0  0  0  0  0  0  0  0  0  0  0  0
   24.3570   62.8600  -11.1350 C   0  0  0  0  0  2  0  0  0  0  0  0
   24.1370   62.8880  -12.6550 C   0  0  0  0  0  2  0  0  0  0  0  0
   24.4940   64.1540  -13.2270 N   0  0  0  0  0  4  0  0  0  0  0  0
   25.9070   64.4630  -13.1400 C   0  0  0  0  0  2  0  0  0  0  0  0
   26.7610   63.3480  -13.6740 C   0  0  0  0  0  2  0  0  0  0  0  0
   26.3110   62.8430  -15.0030 C   0  0  0  0  0  2  0  0  0  0  0  0
   24.8640   62.9990  -15.3040 C   0  0  0  0  0  2  0  0  0  0  0  0
   24.1680   64.1290  -14.6320 C   0  0  0  0  0  2  0  0  0  0  0  0
   24.0020   64.9290  -12.7330 H   0  0  0  0  0  0  0  0  0  0  0  0
  1  2  1  0  0  0  0
  2  7  1  0  0  0  0
  3  2  2  0  0  0  0
  3  4  1  0  0  0  0
  4  5  2  0  0  0  0
  5  6  1  0  0  0  0
  7  6  2  0  0  0  0
  8  3  1  0  0  0  0
  9 19  1  1  0  0  0
  9  8  1  0  0  0  0
  9  1  1  0  0  0  0
 10 11  1  0  0  0  0
 10  1  1  0  0  0  0
 11 12  2  0  0  0  0
 13 18  2  0  0  0  0
 13 11  1  0  0  0  0
 14 13  1  0  0  0  0
 15 14  1  0  0  0  0
 15 16  2  0  0  0  0
 16 18  1  0  0  0  0
 17 15  1  0  0  0  0
 20 19  1  0  0  0  0
 21  8  1  0  0  0  0
 22 21  1  0  0  0  0
 23 24  1  0  0  0  0
 23 29  1  0  0  0  0
 23 22  1  0  0  0  0
 25 24  1  0  0  0  0
 26 25  1  0  0  0  0
 27 26  1  0  0  0  0
 27 28  1  0  0  0  0
 28 23  1  0  0  0  0
M  END
>  <Pose>
1

>  <Score>
-8.128

$$$$
