/Users/jonathanwahrer/Desktop/Msc/3_Semester/Drug_Design_Praktikum/waehrer_HTS_screening/HTS_experiment/out/docking_results/vina_output/3sx0/1177_docked.pdbqt
 OpenBabel03192222213D

 33 36  0  0  1  0  0  0  0  0999 V2000
   20.1400   63.3410  -10.6170 C   0  0  2  0  0  3  0  0  0  0  0  0
   21.3650   64.1980  -10.4880 C   0  0  2  0  0  3  0  0  0  0  0  0
   22.3470   63.5080  -11.2650 N   0  0  0  0  0  0  0  0  0  0  0  0
   21.5910   62.9250  -12.3630 C   0  0  0  0  0  0  0  0  0  0  0  0
   22.1220   62.5900  -13.4560 O   0  0  0  0  0  0  0  0  0  0  0  0
   20.1970   62.8140  -11.9740 C   0  0  0  0  0  0  0  0  0  0  0  0
   19.2290   62.3570  -12.6700 O   0  0  0  0  0  0  0  0  0  0  0  0
   23.7700   63.4080  -11.1310 C   0  0  0  0  0  2  0  0  0  0  0  0
   24.5840   64.2150  -12.0910 C   0  0  0  0  0  2  0  0  0  0  0  0
   25.1420   63.3250  -13.2120 C   0  0  0  0  0  2  0  0  0  0  0  0
   25.4240   64.1500  -14.3380 N   0  0  0  0  0  4  0  0  0  0  0  0
   26.7960   64.2590  -14.7160 C   0  0  0  0  0  2  0  0  0  0  0  0
   27.3240   63.0350  -15.4250 C   0  0  0  0  0  2  0  0  0  0  0  0
   26.2730   62.0910  -15.4470 O   0  0  0  0  0  0  0  0  0  0  0  0
   25.3000   62.6580  -16.2950 C   0  0  0  0  0  2  0  0  0  0  0  0
   24.6480   63.7750  -15.5060 C   0  0  0  0  0  2  0  0  0  0  0  0
   25.0990   65.1330  -14.0900 H   0  0  0  0  0  0  0  0  0  0  0  0
   21.6880   64.4810   -9.0960 C   0  0  0  0  0  0  0  0  0  0  0  0
   22.7150   63.7340   -8.4970 C   0  0  0  0  0  3  0  0  0  0  0  0
   23.1260   63.9240   -7.2020 C   0  0  0  0  0  0  0  0  0  0  0  0
   22.5200   64.8870   -6.4340 C   0  0  0  0  0  3  0  0  0  0  0  0
   24.5270   62.8930   -6.4120 Br  0  0  0  0  0  0  0  0  0  0  0  0
   21.5020   65.6460   -6.9910 C   0  0  0  0  0  3  0  0  0  0  0  0
   21.1150   65.4260   -8.2960 C   0  0  0  0  0  3  0  0  0  0  0  0
   19.1810   63.1430   -9.7330 C   0  0  1  0  0  3  0  0  0  0  0  0
   19.5260   63.0200   -8.3670 O   0  0  0  0  0  1  0  0  0  0  0  0
   17.7820   63.0540  -10.1450 C   0  0  0  0  0  0  0  0  0  0  0  0
   16.7210   64.3610  -10.4530 S   0  0  0  0  0  0  0  0  0  0  0  0
   15.3070   63.4730  -10.8050 C   0  0  0  0  0  0  0  0  0  0  0  0
   15.7190   62.2270  -10.6680 N   0  0  0  0  0  0  0  0  0  0  0  0
   13.9340   63.9800  -11.1790 C   0  0  0  0  0  1  0  0  0  0  0  0
   16.9520   61.9800  -10.3370 C   0  0  0  0  0  0  0  0  0  0  0  0
   17.4100   60.5410  -10.1380 C   0  0  0  0  0  1  0  0  0  0  0  0
  1  2  1  0  0  0  0
  1 25  1  6  0  0  0
  2 18  1  1  0  0  0
  3  8  1  0  0  0  0
  3  2  1  0  0  0  0
  4  6  1  0  0  0  0
  4  3  1  0  0  0  0
  5  4  2  0  0  0  0
  6  1  1  0  0  0  0
  7  6  2  0  0  0  0
  9  8  1  0  0  0  0
 10  9  1  0  0  0  0
 11 17  1  0  0  0  0
 11 10  1  0  0  0  0
 12 11  1  0  0  0  0
 13 12  1  0  0  0  0
 14 13  1  0  0  0  0
 15 16  1  0  0  0  0
 15 14  1  0  0  0  0
 16 11  1  0  0  0  0
 18 19  2  0  0  0  0
 18 24  1  0  0  0  0
 19 20  1  0  0  0  0
 20 21  2  0  0  0  0
 20 22  1  0  0  0  0
 23 21  1  0  0  0  0
 24 23  2  0  0  0  0
 25 26  1  1  0  0  0
 27 25  1  0  0  0  0
 28 27  1  0  0  0  0
 29 30  2  0  0  0  0
 29 28  1  0  0  0  0
 30 32  1  0  0  0  0
 31 29  1  0  0  0  0
 32 27  2  0  0  0  0
 32 33  1  0  0  0  0
M  END
>  <Pose>
1

>  <Score>
-7.168

$$$$
