/Users/jonathanwahrer/Desktop/Msc/3_Semester/Drug_Design_Praktikum/waehrer_HTS_screening/HTS_experiment/out/docking_results/vina_output/3sx0/1178_docked.pdbqt
 OpenBabel03192222213D

 33 36  0  0  1  0  0  0  0  0999 V2000
   12.1310   63.6430  -14.5530 C   0  0  1  0  0  3  0  0  0  0  0  0
   12.6210   64.8030  -13.7440 C   0  0  1  0  0  3  0  0  0  0  0  0
   13.6810   64.2180  -12.9670 N   0  0  0  0  0  0  0  0  0  0  0  0
   13.2480   62.8820  -12.6800 C   0  0  0  0  0  0  0  0  0  0  0  0
   13.6450   62.1690  -11.7400 O   0  0  0  0  0  0  0  0  0  0  0  0
   12.2580   62.4890  -13.6730 C   0  0  0  0  0  0  0  0  0  0  0  0
   11.6070   61.4180  -13.8130 O   0  0  0  0  0  0  0  0  0  0  0  0
   14.8850   64.8860  -12.5710 C   0  0  0  0  0  2  0  0  0  0  0  0
   15.1440   64.9230  -11.1220 C   0  0  0  0  0  3  0  0  0  0  0  0
   16.2430   64.1530  -10.6000 C   0  0  0  0  0  3  0  0  0  0  0  0
   17.1200   63.3050  -11.2540 N   0  0  0  0  0  4  0  0  0  0  0  0
   17.2540   61.9990  -10.5090 C   0  0  0  0  0  2  0  0  0  0  0  0
   18.1900   62.1850   -9.3610 C   0  0  0  0  0  2  0  0  0  0  0  0
   19.4590   62.3890   -9.8910 O   0  0  0  0  0  0  0  0  0  0  0  0
   19.4170   63.6740  -10.4760 C   0  0  0  0  0  2  0  0  0  0  0  0
   18.4350   63.7090  -11.6140 C   0  0  0  0  0  2  0  0  0  0  0  0
   16.6840   62.9590  -12.1430 H   0  0  0  0  0  0  0  0  0  0  0  0
   13.0090   65.9250  -14.6130 C   0  0  0  0  0  0  0  0  0  0  0  0
   14.0290   65.9360  -15.5240 C   0  0  0  0  0  3  0  0  0  0  0  0
   14.3620   67.0110  -16.3160 C   0  0  0  0  0  3  0  0  0  0  0  0
   13.6290   68.1650  -16.1980 C   0  0  0  0  0  0  0  0  0  0  0  0
   12.5930   68.2170  -15.3020 C   0  0  0  0  0  3  0  0  0  0  0  0
   14.0940   69.6590  -17.3040 Br  0  0  0  0  0  0  0  0  0  0  0  0
   12.2870   67.1230  -14.5250 C   0  0  0  0  0  3  0  0  0  0  0  0
   11.6600   63.7170  -15.7620 C   0  0  1  0  0  3  0  0  0  0  0  0
   12.3200   63.0390  -16.8010 O   0  0  0  0  0  1  0  0  0  0  0  0
   10.4410   64.5050  -16.0510 C   0  0  0  0  0  0  0  0  0  0  0  0
   10.2100   65.7730  -17.1790 S   0  0  0  0  0  0  0  0  0  0  0  0
    8.5510   66.0560  -16.9160 C   0  0  0  0  0  0  0  0  0  0  0  0
    8.2550   65.1710  -15.9860 N   0  0  0  0  0  0  0  0  0  0  0  0
    7.6220   67.0500  -17.5600 C   0  0  0  0  0  1  0  0  0  0  0  0
    9.1760   64.3780  -15.5300 C   0  0  0  0  0  0  0  0  0  0  0  0
    8.8600   63.3110  -14.4840 C   0  0  0  0  0  1  0  0  0  0  0  0
  1 25  1  1  0  0  0
  1  2  1  0  0  0  0
  1  6  1  0  0  0  0
  2 18  1  6  0  0  0
  2  3  1  0  0  0  0
  3  4  1  0  0  0  0
  3  8  1  0  0  0  0
  4  5  2  0  0  0  0
  6  4  1  0  0  0  0
  7  6  2  0  0  0  0
  8  9  1  0  0  0  0
  9 10  2  0  0  0  0
 11 10  1  0  0  0  0
 11 12  1  0  0  0  0
 12 13  1  0  0  0  0
 14 13  1  0  0  0  0
 15 14  1  0  0  0  0
 16 11  1  0  0  0  0
 16 15  1  0  0  0  0
 17 11  1  0  0  0  0
 18 24  1  0  0  0  0
 19 18  2  0  0  0  0
 20 21  2  0  0  0  0
 20 19  1  0  0  0  0
 21 22  1  0  0  0  0
 22 24  2  0  0  0  0
 23 21  1  0  0  0  0
 25 26  1  1  0  0  0
 27 25  1  0  0  0  0
 27 32  2  0  0  0  0
 28 29  1  0  0  0  0
 28 27  1  0  0  0  0
 29 30  2  0  0  0  0
 30 32  1  0  0  0  0
 31 29  1  0  0  0  0
 32 33  1  0  0  0  0
M  END
>  <Pose>
1

>  <Score>
-5.056

$$$$
