/Users/jonathanwahrer/Desktop/Msc/3_Semester/Drug_Design_Praktikum/waehrer_HTS_screening/HTS_experiment/out/docking_results/vina_output/3sx0/1192_docked.pdbqt
 OpenBabel03192222213D

 27 30  0  0  1  0  0  0  0  0999 V2000
   16.3650   60.7610  -10.8490 S   0  0  0  0  0  0  0  0  0  0  0  0
   15.2010   62.0250  -10.8430 C   0  0  0  0  0  0  0  0  0  0  0  0
   15.9570   63.1230  -10.5340 C   0  0  0  0  0  0  0  0  0  0  0  0
   17.2720   62.9350  -10.3390 C   0  0  0  0  0  0  0  0  0  0  0  0
   17.7530   61.6600  -10.4650 C   0  0  0  0  0  0  0  0  0  0  0  0
   19.2260   61.4720  -10.2440 C   0  0  0  0  0  2  0  0  0  0  0  0
   19.9340   62.3890  -11.1340 N   0  0  0  0  0  4  0  0  0  0  0  0
   19.5120   63.7490  -10.9980 C   0  0  0  0  0  2  0  0  0  0  0  0
   18.3810   63.9170   -9.9900 C   0  0  0  0  0  2  0  0  0  0  0  0
   19.5980   61.9580  -12.4920 C   0  0  0  0  0  1  0  0  0  0  0  0
   15.1860   64.3950  -10.4550 C   0  0  0  0  0  0  0  0  0  0  0  0
   15.7660   65.4860  -10.1780 O   0  0  0  0  0  0  0  0  0  0  0  0
   13.7890   64.3620  -10.6980 N   0  0  0  0  0  0  0  0  0  0  0  0
   13.1130   63.3320  -11.4320 C   0  0  2  0  0  3  0  0  0  0  0  0
   13.7730   62.0850  -11.0770 N   0  0  0  0  0  0  0  0  0  0  0  0
   20.9610   62.2550  -11.0430 H   0  0  0  0  0  0  0  0  0  0  0  0
   13.2200   65.1630  -10.3000 H   0  0  0  0  0  0  0  0  0  0  0  0
   13.2520   61.1900  -10.9790 H   0  0  0  0  0  0  0  0  0  0  0  0
   13.1880   63.5300  -12.9000 C   0  0  0  0  0  0  0  0  0  0  0  0
   12.8990   62.5150  -13.7880 C   0  0  0  0  0  3  0  0  0  0  0  0
   12.9620   62.6810  -15.1540 C   0  0  0  0  0  0  0  0  0  0  0  0
   13.3270   63.9040  -15.6790 C   0  0  0  0  0  0  0  0  0  0  0  0
   12.5620   61.2780  -16.3640 Br  0  0  0  0  0  0  0  0  0  0  0  0
   13.6200   64.9300  -14.8130 C   0  0  0  0  0  0  0  0  0  0  0  0
   13.3930   64.0780  -17.0540 O   0  0  0  0  0  1  0  0  0  0  0  0
   13.5540   64.7550  -13.4440 C   0  0  0  0  0  3  0  0  0  0  0  0
   14.1230   66.6140  -15.5880 Br  0  0  0  0  0  0  0  0  0  0  0  0
  1  2  1  0  0  0  0
  1  5  1  0  0  0  0
  2  3  2  0  0  0  0
  3 11  1  0  0  0  0
  3  4  1  0  0  0  0
  4  9  1  0  0  0  0
  5  4  2  0  0  0  0
  5  6  1  0  0  0  0
  7 16  1  0  0  0  0
  7  8  1  0  0  0  0
  7  6  1  0  0  0  0
  8  9  1  0  0  0  0
 10  7  1  0  0  0  0
 11 12  2  0  0  0  0
 13 11  1  0  0  0  0
 13 17  1  0  0  0  0
 14 19  1  6  0  0  0
 14 15  1  0  0  0  0
 14 13  1  0  0  0  0
 15 18  1  0  0  0  0
 15  2  1  0  0  0  0
 20 19  2  0  0  0  0
 21 20  1  0  0  0  0
 22 21  2  0  0  0  0
 22 24  1  0  0  0  0
 23 21  1  0  0  0  0
 24 26  2  0  0  0  0
 25 22  1  0  0  0  0
 26 19  1  0  0  0  0
 27 24  1  0  0  0  0
M  END
>  <Pose>
1

>  <Score>
-5.072

$$$$
