/Users/jonathanwahrer/Desktop/Msc/3_Semester/Drug_Design_Praktikum/waehrer_HTS_screening/HTS_experiment/out/docking_results/vina_output/3sx0/1193_docked.pdbqt
 OpenBabel03192222223D

 29 32  0  0  1  0  0  0  0  0999 V2000
   18.8730   61.3560   -9.7830 S   0  0  0  0  0  0  0  0  0  0  0  0
   20.1210   62.4580   -9.4070 C   0  0  0  0  0  0  0  0  0  0  0  0
   19.5460   63.6720   -9.6610 C   0  0  0  0  0  0  0  0  0  0  0  0
   18.2620   63.6660  -10.1000 C   0  0  0  0  0  0  0  0  0  0  0  0
   17.6600   62.4420  -10.2500 C   0  0  0  0  0  0  0  0  0  0  0  0
   16.2520   62.3020  -10.7270 C   0  0  0  0  0  2  0  0  0  0  0  0
   15.3990   63.3760  -10.3500 N   0  0  0  0  0  4  0  0  0  0  0  0
   16.0360   64.5540   -9.8660 C   0  0  0  0  0  2  0  0  0  0  0  0
   17.3750   64.8650  -10.4580 C   0  0  0  0  0  2  0  0  0  0  0  0
   14.4370   63.6770  -11.4030 C   0  0  0  0  0  1  0  0  0  0  0  0
   20.4530   64.8310   -9.3970 C   0  0  0  0  0  0  0  0  0  0  0  0
   20.0320   66.0170   -9.5970 O   0  0  0  0  0  0  0  0  0  0  0  0
   21.7670   64.6030   -8.9280 N   0  0  0  0  0  0  0  0  0  0  0  0
   22.4590   63.3720   -9.2380 C   0  0  1  0  0  3  0  0  0  0  0  0
   21.4890   62.3200   -8.9360 N   0  0  0  0  0  0  0  0  0  0  0  0
   14.7980   63.0130   -9.5460 H   0  0  0  0  0  0  0  0  0  0  0  0
   22.2480   65.3290   -8.3520 H   0  0  0  0  0  0  0  0  0  0  0  0
   21.7000   61.4630   -8.4000 H   0  0  0  0  0  0  0  0  0  0  0  0
   22.7550   63.3850  -10.6940 C   0  0  0  0  0  0  0  0  0  0  0  0
   21.7970   63.0070  -11.6110 C   0  0  0  0  0  3  0  0  0  0  0  0
   22.0510   63.0130  -12.9650 C   0  0  0  0  0  0  0  0  0  0  0  0
   23.3010   63.4060  -13.4240 C   0  0  0  0  0  0  0  0  0  0  0  0
   20.7350   62.4940  -14.2430 Br  0  0  0  0  0  0  0  0  0  0  0  0
   24.2780   63.7880  -12.5310 C   0  0  0  0  0  0  0  0  0  0  0  0
   23.5810   63.4180  -14.7880 O   0  0  0  0  0  1  0  0  0  0  0  0
   23.9970   63.7720  -11.2000 C   0  0  0  0  0  3  0  0  0  0  0  0
   25.5060   64.1710  -13.0380 O   0  0  0  0  0  0  0  0  0  0  0  0
   26.6050   63.3390  -13.2360 C   0  0  0  0  0  2  0  0  0  0  0  0
   27.1000   63.4040  -14.6650 C   0  0  0  0  0  1  0  0  0  0  0  0
  1  2  1  0  0  0  0
  2 15  1  0  0  0  0
  3  2  2  0  0  0  0
  3 11  1  0  0  0  0
  4  3  1  0  0  0  0
  5  4  2  0  0  0  0
  5  1  1  0  0  0  0
  6  7  1  0  0  0  0
  6  5  1  0  0  0  0
  7  8  1  0  0  0  0
  7 16  1  0  0  0  0
  9  4  1  0  0  0  0
  9  8  1  0  0  0  0
 10  7  1  0  0  0  0
 11 13  1  0  0  0  0
 12 11  2  0  0  0  0
 13 17  1  0  0  0  0
 14 19  1  6  0  0  0
 14 15  1  0  0  0  0
 14 13  1  0  0  0  0
 15 18  1  0  0  0  0
 20 19  2  0  0  0  0
 21 20  1  0  0  0  0
 22 21  2  0  0  0  0
 22 24  1  0  0  0  0
 23 21  1  0  0  0  0
 24 26  2  0  0  0  0
 25 22  1  0  0  0  0
 26 19  1  0  0  0  0
 27 24  1  0  0  0  0
 28 27  1  0  0  0  0
 29 28  1  0  0  0  0
M  END
>  <Pose>
1

>  <Score>
-4.364

$$$$
