/Users/jonathanwahrer/Desktop/Msc/3_Semester/Drug_Design_Praktikum/waehrer_HTS_screening/HTS_experiment/out/docking_results/vina_output/3sx0/1206_docked.pdbqt
 OpenBabel03192222223D

 25 28  0  0  1  0  0  0  0  0999 V2000
   23.3370   63.5400   -8.7120 S   0  0  0  0  0  0  0  0  0  0  0  0
   22.0160   64.0680   -7.5900 C   0  0  2  0  0  3  0  0  0  0  0  0
   20.8550   63.3590   -8.2320 C   0  0  0  0  0  2  0  0  0  0  0  0
   20.9930   63.2730   -9.6540 N   0  0  0  0  0  0  0  0  0  0  0  0
   22.2480   63.3730  -10.1220 C   0  0  2  0  0  3  0  0  0  0  0  0
   22.2280   63.3030  -11.4580 N   0  0  0  0  0  0  0  0  0  0  0  0
   20.9470   63.1540  -11.8620 C   0  0  0  0  0  3  0  0  0  0  0  0
   20.1560   63.1320  -10.7380 C   0  0  0  0  0  0  0  0  0  0  0  0
   21.7670   65.5530   -7.6950 C   0  0  0  0  0  1  0  0  0  0  0  0
   18.7190   62.9960  -10.7550 C   0  0  0  0  0  0  0  0  0  0  0  0
   17.9590   64.1170  -11.1320 C   0  0  0  0  0  3  0  0  0  0  0  0
   16.5920   64.0460  -11.2090 C   0  0  0  0  0  3  0  0  0  0  0  0
   15.8860   62.9030  -10.9300 C   0  0  0  0  0  0  0  0  0  0  0  0
   16.6060   61.7920  -10.5590 C   0  0  0  0  0  3  0  0  0  0  0  0
   18.0030   61.8620  -10.4810 C   0  0  0  0  0  3  0  0  0  0  0  0
   14.4750   62.9120  -11.0310 N   0  0  0  0  0  0  0  0  0  0  0  0
   13.8050   63.7760  -10.4550 O   0  0  0  0  0  0  0  0  0  0  0  0
   13.8540   61.9560  -11.7740 O   0  0  0  0  0  0  0  0  0  0  0  0
   23.3510   63.3710  -12.3290 C   0  0  0  0  0  0  0  0  0  0  0  0
   24.6420   63.2760  -11.8620 C   0  0  0  0  0  3  0  0  0  0  0  0
   25.7480   63.3380  -12.6840 C   0  0  0  0  0  3  0  0  0  0  0  0
   25.5760   63.5050  -14.0410 C   0  0  0  0  0  0  0  0  0  0  0  0
   24.2920   63.6050  -14.5460 C   0  0  0  0  0  3  0  0  0  0  0  0
   27.0860   63.5960  -15.2120 Br  0  0  0  0  0  0  0  0  0  0  0  0
   23.2020   63.5390  -13.7020 C   0  0  0  0  0  3  0  0  0  0  0  0
  1  2  1  0  0  0  0
  2  9  1  6  0  0  0
  3  2  1  0  0  0  0
  4  3  1  0  0  0  0
  5  4  1  0  0  0  0
  5  1  1  1  0  0  0
  6  5  1  0  0  0  0
  7  6  1  0  0  0  0
  7  8  2  0  0  0  0
  8  4  1  0  0  0  0
 10  8  1  0  0  0  0
 10 15  1  0  0  0  0
 11 10  2  0  0  0  0
 12 11  1  0  0  0  0
 12 13  2  0  0  0  0
 13 14  1  0  0  0  0
 14 15  2  0  0  0  0
 16 13  1  0  0  0  0
 16 17  2  0  0  0  0
 18 16  2  0  0  0  0
 19 20  1  0  0  0  0
 19  6  1  0  0  0  0
 21 20  2  0  0  0  0
 22 21  1  0  0  0  0
 23 22  2  0  0  0  0
 23 25  1  0  0  0  0
 24 22  1  0  0  0  0
 25 19  2  0  0  0  0
M  END
>  <Pose>
1

>  <Score>
-9.709

$$$$
