/Users/jonathanwahrer/Desktop/Msc/3_Semester/Drug_Design_Praktikum/waehrer_HTS_screening/HTS_experiment/out/docking_results/vina_output/3sx0/1219_docked.pdbqt
 OpenBabel03192222223D

 27 30  0  0  1  0  0  0  0  0999 V2000
   21.8660   63.5450  -11.4800 S   0  0  0  0  0  0  0  0  0  0  0  0
   23.4910   62.6960  -11.6470 C   0  0  0  0  0  2  0  0  0  0  0  0
   24.0940   62.5060  -10.2660 C   0  0  0  0  0  2  0  0  0  0  0  0
   23.9830   63.7670   -9.4480 C   0  0  0  0  0  2  0  0  0  0  0  0
   22.6750   63.8640   -8.8820 N   0  0  2  0  0  0  0  0  0  0  0  0
   22.1010   64.2330   -7.6010 C   0  0  1  0  0  0  0  0  0  0  0  0
   20.8130   63.4310   -7.5600 C   0  0  0  0  0  2  0  0  0  0  0  0
   20.5060   63.2980   -8.9980 N   0  0  0  0  0  0  0  0  0  0  0  0
   21.5420   63.5330   -9.7010 C   0  0  1  0  0  3  0  0  0  0  0  0
   22.9370   63.9370   -6.5440 O   0  0  0  0  0  0  0  0  0  0  0  0
   23.5840   63.2330   -6.6960 H   0  0  0  0  0  0  0  0  0  0  0  0
   21.7410   65.6710   -7.5560 C   0  0  0  0  0  0  0  0  0  0  0  0
   22.4670   66.5340   -6.7590 C   0  0  0  0  0  3  0  0  0  0  0  0
   22.0940   67.8780   -6.7480 C   0  0  0  0  0  0  0  0  0  0  0  0
   21.0490   68.3270   -7.4960 C   0  0  0  0  0  3  0  0  0  0  0  0
   20.3140   67.4740   -8.2990 C   0  0  0  0  0  3  0  0  0  0  0  0
   20.6940   66.1270   -8.3060 C   0  0  0  0  0  3  0  0  0  0  0  0
   22.8340   68.7730   -5.9330 N   0  0  0  0  0  0  0  0  0  0  0  0
   23.9960   68.5170   -5.5630 O   0  0  0  0  0  0  0  0  0  0  0  0
   22.2990   69.9600   -5.5180 O   0  0  0  0  0  0  0  0  0  0  0  0
   19.2270   62.9370   -9.5120 C   0  0  0  0  0  0  0  0  0  0  0  0
   18.7990   61.6730   -9.7930 C   0  0  0  0  0  3  0  0  0  0  0  0
   17.5280   61.3910  -10.2760 C   0  0  0  0  0  3  0  0  0  0  0  0
   16.6360   62.4210  -10.4920 C   0  0  0  0  0  0  0  0  0  0  0  0
   17.0380   63.7230  -10.2170 C   0  0  0  0  0  3  0  0  0  0  0  0
   14.8660   62.1340  -11.1590 Br  0  0  0  0  0  0  0  0  0  0  0  0
   18.3150   63.9810   -9.7340 C   0  0  0  0  0  3  0  0  0  0  0  0
  2  1  1  0  0  0  0
  2  3  1  0  0  0  0
  3  4  1  0  0  0  0
  5  4  1  1  0  0  0
  5  6  1  0  0  0  0
  6  7  1  0  0  0  0
  6 12  1  0  0  0  0
  6 10  1  1  0  0  0
  8  7  1  0  0  0  0
  9  1  1  6  0  0  0
  9  8  1  0  0  0  0
  9  5  1  0  0  0  0
 11 10  1  0  0  0  0
 12 13  1  0  0  0  0
 13 14  2  0  0  0  0
 14 18  1  0  0  0  0
 15 14  1  0  0  0  0
 16 15  2  0  0  0  0
 17 16  1  0  0  0  0
 17 12  2  0  0  0  0
 18 19  2  0  0  0  0
 18 20  2  0  0  0  0
 21  8  1  0  0  0  0
 22 21  2  0  0  0  0
 23 22  1  0  0  0  0
 24 23  2  0  0  0  0
 24 25  1  0  0  0  0
 25 27  2  0  0  0  0
 26 24  1  0  0  0  0
 27 21  1  0  0  0  0
M  END
>  <Pose>
1

>  <Score>
-6.206

$$$$
