/Users/jonathanwahrer/Desktop/Msc/3_Semester/Drug_Design_Praktikum/waehrer_HTS_screening/HTS_experiment/out/docking_results/vina_output/3sx0/1222_docked.pdbqt
 OpenBabel03192222233D

 24 27  0  0  1  0  0  0  0  0999 V2000
   13.9940   65.3050  -16.1190 S   0  0  0  0  0  0  0  0  0  0  0  0
   14.3690   67.0560  -16.5810 C   0  0  0  0  0  2  0  0  0  0  0  0
   13.1370   67.9110  -16.4300 C   0  0  0  0  0  2  0  0  0  0  0  0
   11.8410   67.1550  -16.6240 C   0  0  0  0  0  2  0  0  0  0  0  0
   11.5200   66.2740  -15.5700 N   0  0  1  0  0  0  0  0  0  0  0  0
   10.3590   65.7830  -14.8070 C   0  0  1  0  0  0  0  0  0  0  0  0
   11.0280   65.6800  -13.4580 C   0  0  0  0  0  2  0  0  0  0  0  0
   12.3150   65.1030  -13.8190 N   0  0  0  0  0  0  0  0  0  0  0  0
   12.6020   65.5150  -14.9620 C   0  0  1  0  0  3  0  0  0  0  0  0
    9.3290   66.6720  -14.7660 O   0  0  0  0  0  0  0  0  0  0  0  0
    9.2090   67.2380  -15.5690 H   0  0  0  0  0  0  0  0  0  0  0  0
    9.9600   64.4140  -15.2740 C   0  0  0  0  0  0  0  0  0  0  0  0
   10.1090   63.9950  -16.5820 C   0  0  0  0  0  3  0  0  0  0  0  0
    9.7210   62.7070  -16.9300 C   0  0  0  0  0  3  0  0  0  0  0  0
    9.1860   61.8110  -16.0140 C   0  0  0  0  0  3  0  0  0  0  0  0
    9.0360   62.2190  -14.7160 C   0  0  0  0  0  3  0  0  0  0  0  0
    9.4220   63.5120  -14.3650 C   0  0  0  0  0  3  0  0  0  0  0  0
   13.0690   64.1710  -13.0140 C   0  0  0  0  0  0  0  0  0  0  0  0
   13.9940   64.5120  -12.0790 C   0  0  0  0  0  3  0  0  0  0  0  0
   14.7320   63.5810  -11.3580 C   0  0  0  0  0  3  0  0  0  0  0  0
   14.5380   62.2440  -11.5840 C   0  0  0  0  0  0  0  0  0  0  0  0
   13.5980   61.8930  -12.5340 C   0  0  0  0  0  3  0  0  0  0  0  0
   15.5140   60.8870  -10.6410 Br  0  0  0  0  0  0  0  0  0  0  0  0
   12.8730   62.8110  -13.2420 C   0  0  0  0  0  3  0  0  0  0  0  0
  2  3  1  0  0  0  0
  2  1  1  0  0  0  0
  4  3  1  0  0  0  0
  5  4  1  6  0  0  0
  5  9  1  0  0  0  0
  5  6  1  0  0  0  0
  6 10  1  6  0  0  0
  6  7  1  0  0  0  0
  8  7  1  0  0  0  0
  8 18  1  0  0  0  0
  9  1  1  6  0  0  0
  9  8  1  0  0  0  0
 11 10  1  0  0  0  0
 12  6  1  0  0  0  0
 12 17  1  0  0  0  0
 13 12  2  0  0  0  0
 14 13  1  0  0  0  0
 14 15  2  0  0  0  0
 15 16  1  0  0  0  0
 16 17  2  0  0  0  0
 18 19  1  0  0  0  0
 19 20  2  0  0  0  0
 21 20  1  0  0  0  0
 21 23  1  0  0  0  0
 22 21  2  0  0  0  0
 24 18  2  0  0  0  0
 24 22  1  0  0  0  0
M  END
>  <Pose>
1

>  <Score>
-4.969

$$$$
