/Users/jonathanwahrer/Desktop/Msc/3_Semester/Drug_Design_Praktikum/waehrer_HTS_screening/HTS_experiment/out/docking_results/vina_output/3sx0/1226_docked.pdbqt
 OpenBabel03192222233D

 24 27  0  0  1  0  0  0  0  0999 V2000
   23.9600   62.7970   -8.8500 S   0  0  0  0  0  0  0  0  0  0  0  0
   23.8130   63.3260   -7.1210 C   0  0  0  0  0  2  0  0  0  0  0  0
   22.7410   64.4200   -7.1000 C   0  0  0  0  0  2  0  0  0  0  0  0
   21.4020   63.7750   -7.4900 C   0  0  0  0  0  2  0  0  0  0  0  0
   21.3380   63.7300   -8.9550 N   0  0  1  0  0  0  0  0  0  0  0  0
   20.3180   63.9970   -9.8850 C   0  0  2  0  0  0  0  0  0  0  0  0
   21.0340   64.1010  -11.2280 C   0  0  0  0  0  2  0  0  0  0  0  0
   22.3580   63.6320  -10.9580 N   0  0  0  0  0  0  0  0  0  0  0  0
   22.4940   63.4050   -9.7160 C   0  0  1  0  0  3  0  0  0  0  0  0
   19.7900   65.2850   -9.6420 O   0  0  0  0  0  0  0  0  0  0  0  0
   19.6340   65.3380   -8.6630 H   0  0  0  0  0  0  0  0  0  0  0  0
   19.2060   63.0580  -10.0140 C   0  0  0  0  0  0  0  0  0  0  0  0
   17.9670   63.6080  -10.3390 C   0  0  0  0  0  3  0  0  0  0  0  0
   16.8210   62.8580  -10.5300 C   0  0  0  0  0  3  0  0  0  0  0  0
   16.8700   61.4980  -10.3980 C   0  0  0  0  0  0  0  0  0  0  0  0
   18.0900   60.9320  -10.0760 C   0  0  0  0  0  3  0  0  0  0  0  0
   15.3110   60.3920  -10.6640 Br  0  0  0  0  0  0  0  0  0  0  0  0
   19.2370   61.6990   -9.8880 C   0  0  0  0  0  3  0  0  0  0  0  0
   23.3520   63.5110  -11.9890 C   0  0  0  0  0  0  0  0  0  0  0  0
   22.9560   63.4740  -13.2860 C   0  0  0  0  0  3  0  0  0  0  0  0
   23.9410   63.3870  -14.2660 C   0  0  0  0  0  3  0  0  0  0  0  0
   25.2850   63.3390  -13.9730 C   0  0  0  0  0  3  0  0  0  0  0  0
   25.6380   63.3780  -12.6390 C   0  0  0  0  0  3  0  0  0  0  0  0
   24.6930   63.4630  -11.6460 C   0  0  0  0  0  3  0  0  0  0  0  0
  1  2  1  0  0  0  0
  2  3  1  0  0  0  0
  4  3  1  0  0  0  0
  5  4  1  6  0  0  0
  6 10  1  1  0  0  0
  6  5  1  0  0  0  0
  7  8  1  0  0  0  0
  7  6  1  0  0  0  0
  8  9  1  0  0  0  0
  9  5  1  0  0  0  0
  9  1  1  1  0  0  0
 10 11  1  0  0  0  0
 12 18  1  0  0  0  0
 12  6  1  0  0  0  0
 13 12  2  0  0  0  0
 14 15  2  0  0  0  0
 14 13  1  0  0  0  0
 15 16  1  0  0  0  0
 16 18  2  0  0  0  0
 17 15  1  0  0  0  0
 19 24  1  0  0  0  0
 19  8  1  0  0  0  0
 20 19  2  0  0  0  0
 21 22  2  0  0  0  0
 21 20  1  0  0  0  0
 22 23  1  0  0  0  0
 23 24  2  0  0  0  0
M  END
>  <Pose>
1

>  <Score>
-7.178

$$$$
