/Users/jonathanwahrer/Desktop/Msc/3_Semester/Drug_Design_Praktikum/waehrer_HTS_screening/HTS_experiment/out/docking_results/vina_output/3sx0/1231_docked.pdbqt
 OpenBabel03192222243D

 37 40  0  0  0  0  0  0  0  0999 V2000
   11.4080   67.1870  -14.8300 C   0  0  0  0  0  0  0  0  0  0  0  0
   11.0720   68.1750  -15.6690 N   0  0  0  0  0  0  0  0  0  0  0  0
   12.1880   68.4500  -16.3660 N   0  0  0  0  0  0  0  0  0  0  0  0
   13.1630   67.6970  -16.0020 N   0  0  0  0  0  0  0  0  0  0  0  0
   12.7510   66.8350  -15.0030 C   0  0  0  0  0  0  0  0  0  0  0  0
   13.6030   65.8510  -14.3880 C   0  0  0  0  0  0  0  0  0  0  0  0
   14.4770   65.2830  -15.1550 O   0  0  0  0  0  0  0  0  0  0  0  0
   13.6180   65.4210  -13.0650 N   0  0  0  0  0  0  0  0  0  0  0  0
   13.0150   65.7210  -12.2810 H   0  0  0  0  0  0  0  0  0  0  0  0
   14.5630   64.4190  -12.6510 N   0  0  0  0  0  0  0  0  0  0  0  0
   15.2800   64.5610  -11.6070 C   0  0  0  0  0  3  0  0  0  0  0  0
   16.2480   63.5720  -11.1530 C   0  0  0  0  0  0  0  0  0  0  0  0
   15.8940   62.2600  -10.9340 C   0  0  0  0  0  3  0  0  0  0  0  0
   16.8000   61.3100  -10.5110 C   0  0  0  0  0  0  0  0  0  0  0  0
   18.1110   61.6400  -10.2850 C   0  0  0  0  0  0  0  0  0  0  0  0
   16.2590   59.5000  -10.2210 Br  0  0  0  0  0  0  0  0  0  0  0  0
   18.5080   62.9700  -10.4980 C   0  0  0  0  0  0  0  0  0  0  0  0
   19.0050   60.6700   -9.8590 O   0  0  0  0  0  1  0  0  0  0  0  0
   17.5790   63.8950  -10.9220 C   0  0  0  0  0  3  0  0  0  0  0  0
   19.8360   63.2320  -10.2540 O   0  0  0  0  0  0  0  0  0  0  0  0
   20.3620   63.7690   -9.0660 C   0  0  0  0  0  1  0  0  0  0  0  0
   10.5300   66.5050  -13.8650 C   0  0  0  0  0  2  0  0  0  0  0  0
    9.7360   65.0060  -14.4050 S   0  0  0  0  0  0  0  0  0  0  0  0
   10.9010   63.7550  -14.9290 C   0  0  0  0  0  0  0  0  0  0  0  0
   11.1950   63.3810  -16.6580 S   0  0  0  0  0  0  0  0  0  0  0  0
   12.2560   61.9340  -16.3530 C   0  0  0  0  0  2  0  0  0  0  0  0
   12.4810   62.0910  -14.8830 C   0  0  0  0  0  2  0  0  0  0  0  0
   11.6410   63.0000  -14.2860 N   0  0  0  0  0  0  0  0  0  0  0  0
    9.8410   68.8530  -15.9070 C   0  0  0  0  0  0  0  0  0  0  0  0
    8.6620   68.3340  -16.3070 N   0  0  0  0  0  0  0  0  0  0  0  0
    7.7480   69.2250  -16.4000 O   0  0  0  0  0  0  0  0  0  0  0  0
    8.2670   70.3660  -16.0700 N   0  0  0  0  0  0  0  0  0  0  0  0
    9.5840   70.1980  -15.7480 C   0  0  0  0  0  0  0  0  0  0  0  0
   10.4800   71.2040  -15.3200 N   0  0  0  0  0  4  0  0  0  0  0  0
   11.3850   71.0770  -15.8450 H   0  0  0  0  0  0  0  0  0  0  0  0
   10.6570   71.2190  -14.3000 H   0  0  0  0  0  0  0  0  0  0  0  0
   10.1020   72.1450  -15.6160 H   0  0  0  0  0  0  0  0  0  0  0  0
  1 22  1  0  0  0  0
  2  1  1  0  0  0  0
  3  4  2  0  0  0  0
  3  2  1  0  0  0  0
  4  5  1  0  0  0  0
  5  1  2  0  0  0  0
  5  6  1  0  0  0  0
  6  8  1  0  0  0  0
  7  6  2  0  0  0  0
  8 10  1  0  0  0  0
  8  9  1  0  0  0  0
 10 11  2  0  0  0  0
 11 12  1  0  0  0  0
 12 13  2  0  0  0  0
 12 19  1  0  0  0  0
 13 14  1  0  0  0  0
 14 15  2  0  0  0  0
 14 16  1  0  0  0  0
 15 18  1  0  0  0  0
 17 15  1  0  0  0  0
 17 20  1  0  0  0  0
 19 17  2  0  0  0  0
 20 21  1  0  0  0  0
 23 22  1  0  0  0  0
 24 23  1  0  0  0  0
 24 28  2  0  0  0  0
 25 26  1  0  0  0  0
 25 24  1  0  0  0  0
 26 27  1  0  0  0  0
 27 28  1  0  0  0  0
 29 33  1  0  0  0  0
 29  2  1  0  0  0  0
 30 29  2  0  0  0  0
 31 30  1  0  0  0  0
 31 32  1  0  0  0  0
 32 33  2  0  0  0  0
 33 34  1  0  0  0  0
 34 36  1  0  0  0  0
 35 34  1  0  0  0  0
 37 34  1  0  0  0  0
M  END
>  <Pose>
1

>  <Score>
-6.176

$$$$
