/Users/jonathanwahrer/Desktop/Msc/3_Semester/Drug_Design_Praktikum/waehrer_HTS_screening/HTS_experiment/out/docking_results/vina_output/3sx0/1236_docked.pdbqt
 OpenBabel03192222243D

 30 34  0  0  1  0  0  0  0  0999 V2000
   12.0630   63.6260  -16.1180 C   0  0  2  0  0  3  0  0  0  0  0  0
   11.1820   63.7490  -14.9250 C   0  0  1  0  0  3  0  0  0  0  0  0
   11.0330   62.3890  -14.3380 C   0  0  0  0  0  0  0  0  0  0  0  0
   12.1180   61.9010  -13.5260 N   0  0  0  0  0  0  0  0  0  0  0  0
    9.9910   61.7240  -14.5610 O   0  0  0  0  0  0  0  0  0  0  0  0
   12.9530   62.6690  -12.9660 C   0  0  0  0  0  0  0  0  0  0  0  0
   14.3690   62.3790  -11.9270 S   0  0  0  0  0  0  0  0  0  0  0  0
   12.8500   64.0700  -13.0840 N   0  0  0  0  0  0  0  0  0  0  0  0
   14.3430   64.0800  -11.1850 C   0  0  0  0  0  2  0  0  0  0  0  0
   13.8810   64.8140  -12.4180 C   0  0  0  0  0  2  0  0  0  0  0  0
   11.7540   64.6130  -13.8670 C   0  0  0  0  0  0  0  0  0  0  0  0
   11.3630   65.7740  -13.5970 O   0  0  0  0  0  0  0  0  0  0  0  0
   11.7920   64.6550  -17.1870 C   0  0  2  0  0  3  0  0  0  0  0  0
   12.7030   65.8100  -17.1620 C   0  0  0  0  0  0  0  0  0  0  0  0
   13.8950   65.6920  -17.6150 O   0  0  0  0  0  0  0  0  0  0  0  0
   12.2580   67.0810  -16.6260 N   0  0  0  0  0  0  0  0  0  0  0  0
   13.0820   68.2160  -16.3170 C   0  0  0  0  0  2  0  0  0  0  0  0
   10.8770   67.2660  -16.3930 C   0  0  0  0  0  0  0  0  0  0  0  0
   12.5000   69.0020  -15.1680 C   0  0  0  0  0  2  0  0  0  0  0  0
   10.7300   68.9160  -15.7110 S   0  0  0  0  0  0  0  0  0  0  0  0
   10.0060   66.3650  -16.6370 N   0  0  0  0  0  0  0  0  0  0  0  0
   10.3700   65.0820  -17.1700 C   0  0  0  0  0  0  0  0  0  0  0  0
    9.4520   64.3490  -17.6150 O   0  0  0  0  0  0  0  0  0  0  0  0
   11.9790   62.2430  -16.6380 C   0  0  0  0  0  0  0  0  0  0  0  0
   13.1000   61.4220  -16.6630 C   0  0  0  0  0  3  0  0  0  0  0  0
   13.0330   60.1300  -17.1420 C   0  0  0  0  0  0  0  0  0  0  0  0
   11.8420   59.6220  -17.6110 C   0  0  0  0  0  3  0  0  0  0  0  0
   14.5670   58.9950  -17.1790 Br  0  0  0  0  0  0  0  0  0  0  0  0
   10.7450   60.4290  -17.5860 C   0  0  0  0  0  3  0  0  0  0  0  0
   10.7960   61.7230  -17.1100 C   0  0  0  0  0  3  0  0  0  0  0  0
  1 24  1  6  0  0  0
  2  1  1  6  0  0  0
  2  3  1  0  0  0  0
  2 11  1  0  0  0  0
  3  4  1  0  0  0  0
  4  6  2  0  0  0  0
  5  3  2  0  0  0  0
  6  7  1  0  0  0  0
  7  9  1  0  0  0  0
  8  6  1  0  0  0  0
  8 10  1  0  0  0  0
 10  9  1  0  0  0  0
 11 12  2  0  0  0  0
 11  8  1  0  0  0  0
 13 22  1  0  0  0  0
 13 14  1  0  0  0  0
 13  1  1  1  0  0  0
 14 16  1  0  0  0  0
 15 14  2  0  0  0  0
 16 18  1  0  0  0  0
 16 17  1  0  0  0  0
 17 19  1  0  0  0  0
 18 20  1  0  0  0  0
 20 19  1  0  0  0  0
 21 18  2  0  0  0  0
 22 21  1  0  0  0  0
 23 22  2  0  0  0  0
 25 24  1  0  0  0  0
 26 25  2  0  0  0  0
 27 29  2  0  0  0  0
 27 26  1  0  0  0  0
 28 26  1  0  0  0  0
 29 30  1  0  0  0  0
 30 24  2  0  0  0  0
M  END
>  <Pose>
1

>  <Score>
-3.339

$$$$
