/Users/jonathanwahrer/Desktop/Msc/3_Semester/Drug_Design_Praktikum/waehrer_HTS_screening/HTS_experiment/out/docking_results/vina_output/3sx0/1237_docked.pdbqt
 OpenBabel03192222243D

 30 34  0  0  1  0  0  0  0  0999 V2000
   11.4710   66.2460  -15.8470 C   0  0  2  0  0  3  0  0  0  0  0  0
   12.6010   67.1040  -15.4610 C   0  0  1  0  0  3  0  0  0  0  0  0
   13.7030   67.3920  -16.3350 C   0  0  0  0  0  0  0  0  0  0  0  0
   13.5940   68.5750  -17.1730 N   0  0  0  0  0  0  0  0  0  0  0  0
   14.7830   66.7730  -16.4990 O   0  0  0  0  0  0  0  0  0  0  0  0
   12.8440   69.5690  -16.8150 C   0  0  0  0  0  0  0  0  0  0  0  0
   12.4990   71.1560  -17.6160 S   0  0  0  0  0  0  0  0  0  0  0  0
   12.0550   69.5850  -15.6460 N   0  0  0  0  0  0  0  0  0  0  0  0
   10.9490   71.4680  -16.6640 C   0  0  0  0  0  2  0  0  0  0  0  0
   11.3100   70.7610  -15.3960 C   0  0  0  0  0  2  0  0  0  0  0  0
   12.1220   68.3920  -14.8320 C   0  0  0  0  0  0  0  0  0  0  0  0
   11.7870   68.4370  -13.6340 O   0  0  0  0  0  0  0  0  0  0  0  0
   10.1610   66.3440  -15.1910 C   0  0  1  0  0  3  0  0  0  0  0  0
    9.0960   66.1380  -16.2680 C   0  0  0  0  0  0  0  0  0  0  0  0
    8.8040   67.0760  -17.0430 O   0  0  0  0  0  0  0  0  0  0  0  0
    8.4290   64.8600  -16.3920 N   0  0  0  0  0  0  0  0  0  0  0  0
    7.6800   64.3800  -17.5010 C   0  0  0  0  0  2  0  0  0  0  0  0
    8.5060   63.9850  -15.2820 C   0  0  0  0  0  0  0  0  0  0  0  0
    7.7470   62.8770  -17.6020 C   0  0  0  0  0  2  0  0  0  0  0  0
    7.6220   62.5190  -15.7860 S   0  0  0  0  0  0  0  0  0  0  0  0
    9.1160   64.2580  -14.1980 N   0  0  0  0  0  0  0  0  0  0  0  0
    9.7890   65.5450  -14.0540 C   0  0  0  0  0  0  0  0  0  0  0  0
   10.0070   65.8950  -12.8810 O   0  0  0  0  0  0  0  0  0  0  0  0
   11.8990   64.8220  -16.1300 C   0  0  0  0  0  0  0  0  0  0  0  0
   11.7870   64.2880  -17.3920 C   0  0  0  0  0  3  0  0  0  0  0  0
   12.1800   62.9910  -17.6080 C   0  0  0  0  0  3  0  0  0  0  0  0
   12.6820   62.1970  -16.6260 C   0  0  0  0  0  0  0  0  0  0  0  0
   12.8050   62.7020  -15.3560 C   0  0  0  0  0  3  0  0  0  0  0  0
   13.2290   60.3840  -16.9390 Br  0  0  0  0  0  0  0  0  0  0  0  0
   12.4050   64.0200  -15.1350 C   0  0  0  0  0  3  0  0  0  0  0  0
  1 24  1  1  0  0  0
  2  1  1  6  0  0  0
  2 11  1  0  0  0  0
  3  2  1  0  0  0  0
  4  6  2  0  0  0  0
  4  3  1  0  0  0  0
  5  3  2  0  0  0  0
  6  8  1  0  0  0  0
  7  6  1  0  0  0  0
  7  9  1  0  0  0  0
  8 10  1  0  0  0  0
  8 11  1  0  0  0  0
  9 10  1  0  0  0  0
 11 12  2  0  0  0  0
 13  1  1  6  0  0  0
 13 22  1  0  0  0  0
 14 13  1  0  0  0  0
 15 14  2  0  0  0  0
 16 14  1  0  0  0  0
 16 18  1  0  0  0  0
 17 16  1  0  0  0  0
 18 21  2  0  0  0  0
 19 17  1  0  0  0  0
 19 20  1  0  0  0  0
 20 18  1  0  0  0  0
 21 22  1  0  0  0  0
 22 23  2  0  0  0  0
 24 30  1  0  0  0  0
 25 24  2  0  0  0  0
 26 25  1  0  0  0  0
 26 27  2  0  0  0  0
 27 28  1  0  0  0  0
 28 30  2  0  0  0  0
 29 27  1  0  0  0  0
M  END
>  <Pose>
1

>  <Score>
-2.320

$$$$
