/Users/jonathanwahrer/Desktop/Msc/3_Semester/Drug_Design_Praktikum/waehrer_HTS_screening/HTS_experiment/out/docking_results/vina_output/3sx0/1248_docked.pdbqt
 OpenBabel03192222243D

 21 24  0  0  0  0  0  0  0  0999 V2000
   20.4440   62.8670  -12.3950 S   0  0  0  0  0  0  0  0  0  0  0  0
   21.9440   63.1270  -11.6010 C   0  0  0  0  0  0  0  0  0  0  0  0
   21.5350   63.4440  -10.3730 N   0  0  0  0  0  0  0  0  0  0  0  0
   22.7030   63.6660   -9.6800 C   0  0  0  0  0  0  0  0  0  0  0  0
   23.7430   63.4800  -10.4910 N   0  0  0  0  0  0  0  0  0  0  0  0
   23.3130   63.1450  -11.6900 N   0  0  0  0  0  0  0  0  0  0  0  0
   20.2890   63.4730  -10.1240 N   0  0  0  0  0  0  0  0  0  0  0  0
   19.4030   63.1940  -11.0600 C   0  0  0  0  0  0  0  0  0  0  0  0
   17.9380   63.1650  -10.9980 C   0  0  0  0  0  0  0  0  0  0  0  0
   17.1010   64.1390  -11.3780 N   0  0  0  0  0  0  0  0  0  0  0  0
   15.8360   63.7410  -11.1680 N   0  0  0  0  0  0  0  0  0  0  0  0
   15.8540   62.4980  -10.6470 C   0  0  0  0  0  3  0  0  0  0  0  0
   14.9900   64.3160  -11.3810 H   0  0  0  0  0  0  0  0  0  0  0  0
   17.1980   62.1320  -10.5390 C   0  0  0  0  0  0  0  0  0  0  0  0
   17.7830   60.4720   -9.8620 Br  0  0  0  0  0  0  0  0  0  0  0  0
   22.8090   64.0520   -8.2580 C   0  0  0  0  0  0  0  0  0  0  0  0
   21.9980   64.9850   -7.7280 N   0  0  0  0  0  0  0  0  0  0  0  0
   22.1050   65.3300   -6.4250 C   0  0  0  0  0  3  0  0  0  0  0  0
   23.0410   64.7320   -5.6270 C   0  0  0  0  0  3  0  0  0  0  0  0
   23.8370   63.8080   -6.1660 N   0  0  0  0  0  0  0  0  0  0  0  0
   23.7520   63.4450   -7.4650 C   0  0  0  0  0  3  0  0  0  0  0  0
  1  2  1  0  0  0  0
  1  8  1  0  0  0  0
  2  3  1  0  0  0  0
  3  7  1  0  0  0  0
  3  4  1  0  0  0  0
  4 16  1  0  0  0  0
  5  4  2  0  0  0  0
  6  2  2  0  0  0  0
  6  5  1  0  0  0  0
  8  9  1  0  0  0  0
  8  7  2  0  0  0  0
  9 14  1  0  0  0  0
 10 11  1  0  0  0  0
 10  9  2  0  0  0  0
 11 12  1  0  0  0  0
 12 14  2  0  0  0  0
 13 11  1  0  0  0  0
 14 15  1  0  0  0  0
 16 17  2  0  0  0  0
 16 21  1  0  0  0  0
 17 18  1  0  0  0  0
 18 19  2  0  0  0  0
 20 19  1  0  0  0  0
 21 20  2  0  0  0  0
M  END
>  <Pose>
1

>  <Score>
-7.646

$$$$
