/Users/jonathanwahrer/Desktop/Msc/3_Semester/Drug_Design_Praktikum/waehrer_HTS_screening/HTS_experiment/out/docking_results/vina_output/3sx0/1266_docked.pdbqt
 OpenBabel03192222253D

 28 31  0  0  1  0  0  0  0  0999 V2000
   20.0850   63.6700  -11.4450 C   0  0  2  0  0  3  0  0  0  0  0  0
   21.1420   62.8770  -12.0610 N   0  0  0  0  0  0  0  0  0  0  0  0
   22.4490   63.0240  -11.6190 C   0  0  0  0  0  2  0  0  0  0  0  0
   22.7050   63.5040  -10.2060 C   0  0  0  0  0  2  0  0  0  0  0  0
   21.6800   64.3010   -9.6880 N   0  0  0  0  0  0  0  0  0  0  0  0
   20.6190   64.7010  -10.5620 C   0  0  0  0  0  2  0  0  0  0  0  0
   21.5730   64.7680   -8.3530 C   0  0  0  0  0  0  0  0  0  0  0  0
   20.5830   65.6200   -8.2110 O   0  0  0  0  0  0  0  0  0  0  0  0
   20.8440   61.8850  -12.1530 H   0  0  0  0  0  0  0  0  0  0  0  0
   22.2990   64.4990   -7.1650 C   0  0  0  0  0  0  0  0  0  0  0  0
   21.5980   64.6030   -5.9390 C   0  0  0  0  0  3  0  0  0  0  0  0
   22.1630   64.2400   -4.7880 N   0  0  0  0  0  0  0  0  0  0  0  0
   23.4080   63.7640   -4.7340 C   0  0  0  0  0  0  0  0  0  0  0  0
   24.1360   63.6410   -5.8860 C   0  0  0  0  0  0  0  0  0  0  0  0
   23.9860   63.3910   -3.5150 O   0  0  0  0  0  0  0  0  0  0  0  0
   23.5830   64.0100   -7.1100 C   0  0  0  0  0  3  0  0  0  0  0  0
   25.4600   63.1000   -5.8460 N   0  0  0  0  0  0  0  0  0  0  0  0
   25.9930   62.6970   -4.5830 C   0  0  0  0  0  0  0  0  0  0  0  0
   26.0290   62.9900   -6.6980 H   0  0  0  0  0  0  0  0  0  0  0  0
   26.8990   61.8510   -4.4380 O   0  0  0  0  0  0  0  0  0  0  0  0
   25.4140   63.3420   -3.3640 C   0  0  0  0  0  2  0  0  0  0  0  0
   19.2120   62.6570  -10.7530 C   0  0  0  0  0  0  0  0  0  0  0  0
   17.8220   62.8240  -10.8470 C   0  0  0  0  0  0  0  0  0  0  0  0
   17.2360   64.3020  -11.6380 Cl  0  0  0  0  0  0  0  0  0  0  0  0
   16.9170   61.9070  -10.3570 C   0  0  0  0  0  3  0  0  0  0  0  0
   17.3910   60.7560   -9.7360 C   0  0  0  0  0  3  0  0  0  0  0  0
   18.7620   60.5930   -9.6450 C   0  0  0  0  0  3  0  0  0  0  0  0
   19.6590   61.5220  -10.1420 C   0  0  0  0  0  3  0  0  0  0  0  0
  1 22  1  1  0  0  0
  1  6  1  0  0  0  0
  2  3  1  0  0  0  0
  2  1  1  0  0  0  0
  3  4  1  0  0  0  0
  4  5  1  0  0  0  0
  5  7  1  0  0  0  0
  6  5  1  0  0  0  0
  7  8  2  0  0  0  0
  7 10  1  0  0  0  0
  9  2  1  0  0  0  0
 10 16  1  0  0  0  0
 10 11  2  0  0  0  0
 11 12  1  0  0  0  0
 12 13  2  0  0  0  0
 13 15  1  0  0  0  0
 14 17  1  0  0  0  0
 14 13  1  0  0  0  0
 15 21  1  0  0  0  0
 16 14  2  0  0  0  0
 17 18  1  0  0  0  0
 18 20  2  0  0  0  0
 18 21  1  0  0  0  0
 19 17  1  0  0  0  0
 22 28  1  0  0  0  0
 23 22  2  0  0  0  0
 23 25  1  0  0  0  0
 24 23  1  0  0  0  0
 25 26  2  0  0  0  0
 26 27  1  0  0  0  0
 28 27  2  0  0  0  0
M  END
>  <Pose>
1

>  <Score>
-8.401

$$$$
