/Users/jonathanwahrer/Desktop/Msc/3_Semester/Drug_Design_Praktikum/waehrer_HTS_screening/HTS_experiment/out/docking_results/vina_output/3sx0/1284_docked.pdbqt
 OpenBabel03192222273D

 35 38  0  0  1  0  0  0  0  0999 V2000
   11.4420   64.5700  -14.6140 C   0  0  1  0  0  3  0  0  0  0  0  0
   11.0120   63.7070  -15.6500 N   0  0  0  0  0  0  0  0  0  0  0  0
   11.7840   62.5180  -15.6330 C   0  0  0  0  0  0  0  0  0  0  0  0
   11.7060   61.5860  -16.4930 O   0  0  0  0  0  0  0  0  0  0  0  0
   12.6550   62.5510  -14.4780 C   0  0  0  0  0  0  0  0  0  0  0  0
   13.4560   61.6110  -14.2250 O   0  0  0  0  0  0  0  0  0  0  0  0
   12.4010   63.7980  -13.7820 C   0  0  0  0  0  0  0  0  0  0  0  0
   12.9790   64.1550  -12.6570 C   0  0  0  0  0  0  0  0  0  0  0  0
   12.7050   65.3950  -12.1280 O   0  0  0  0  0  1  0  0  0  0  0  0
   12.0450   65.7900  -15.1620 C   0  0  0  0  0  0  0  0  0  0  0  0
   11.4220   67.0000  -14.9120 C   0  0  0  0  0  3  0  0  0  0  0  0
   11.8610   68.2190  -15.3300 C   0  0  0  0  0  0  0  0  0  0  0  0
   10.9610   69.8610  -14.9550 Br  0  0  0  0  0  0  0  0  0  0  0  0
   13.0490   68.2350  -16.0790 C   0  0  0  0  0  3  0  0  0  0  0  0
   13.6950   67.0410  -16.3470 C   0  0  0  0  0  3  0  0  0  0  0  0
   13.2220   65.8210  -15.9060 C   0  0  0  0  0  3  0  0  0  0  0  0
   13.8850   63.2710  -11.9680 C   0  0  0  0  0  0  0  0  0  0  0  0
   15.2080   63.6070  -11.6340 C   0  0  0  0  0  0  0  0  0  0  0  0
   15.7650   62.5870  -10.9690 N   0  0  0  0  0  0  0  0  0  0  0  0
   15.8480   64.9090  -11.9840 C   0  0  0  0  0  1  0  0  0  0  0  0
   14.8500   61.6390  -10.8780 N   0  0  0  0  0  0  0  0  0  0  0  0
   13.7030   62.0120  -11.4650 C   0  0  0  0  0  3  0  0  0  0  0  0
   17.0820   62.5210  -10.4410 C   0  0  0  0  0  0  0  0  0  0  0  0
   17.7050   61.2830  -10.3510 C   0  0  0  0  0  3  0  0  0  0  0  0
   18.9870   61.1460   -9.8580 C   0  0  0  0  0  3  0  0  0  0  0  0
   19.7140   62.2570   -9.4280 C   0  0  0  0  0  3  0  0  0  0  0  0
   19.0940   63.4900   -9.5180 C   0  0  0  0  0  3  0  0  0  0  0  0
   17.8190   63.6000  -10.0110 C   0  0  0  0  0  3  0  0  0  0  0  0
    9.9070   63.9540  -16.6180 C   0  0  0  0  0  2  0  0  0  0  0  0
    8.5940   63.5500  -16.0000 C   0  0  0  0  0  2  0  0  0  0  0  0
    8.1700   62.1600  -16.3560 C   0  0  0  0  0  2  0  0  0  0  0  0
    8.0230   61.2470  -15.2710 N   0  0  0  0  0  4  0  0  0  0  0  0
    8.7450   60.0220  -15.3690 C   0  0  0  0  0  1  0  0  0  0  0  0
    8.4150   61.8950  -14.0080 C   0  0  0  0  0  1  0  0  0  0  0  0
    6.9920   61.0190  -15.1350 H   0  0  0  0  0  0  0  0  0  0  0  0
  1 10  1  6  0  0  0
  1  7  1  0  0  0  0
  2  3  1  0  0  0  0
  2  1  1  0  0  0  0
  3  5  1  0  0  0  0
  4  3  2  0  0  0  0
  5  6  2  0  0  0  0
  5  7  1  0  0  0  0
  7  8  2  0  0  0  0
  8  9  1  0  0  0  0
  8 17  1  0  0  0  0
 10 11  1  0  0  0  0
 12 13  1  0  0  0  0
 12 11  2  0  0  0  0
 14 12  1  0  0  0  0
 15 14  2  0  0  0  0
 15 16  1  0  0  0  0
 16 10  2  0  0  0  0
 17 18  2  0  0  0  0
 17 22  1  0  0  0  0
 18 19  1  0  0  0  0
 19 21  1  0  0  0  0
 19 23  1  0  0  0  0
 20 18  1  0  0  0  0
 22 21  2  0  0  0  0
 23 24  2  0  0  0  0
 23 28  1  0  0  0  0
 24 25  1  0  0  0  0
 25 26  2  0  0  0  0
 27 26  1  0  0  0  0
 28 27  2  0  0  0  0
 29 30  1  0  0  0  0
 29  2  1  0  0  0  0
 31 30  1  0  0  0  0
 31 32  1  0  0  0  0
 32 35  1  0  0  0  0
 32 34  1  0  0  0  0
 33 32  1  0  0  0  0
M  END
>  <Pose>
1

>  <Score>
-5.346

$$$$
