/Users/jonathanwahrer/Desktop/Msc/3_Semester/Drug_Design_Praktikum/waehrer_HTS_screening/HTS_experiment/out/docking_results/vina_output/3sx0/1295_docked.pdbqt
 OpenBabel03192222273D

 26 29  0  0  1  0  0  0  0  0999 V2000
   11.2700   63.1220  -15.3890 C   0  0  0  0  0  0  0  0  0  0  0  0
   11.4500   61.8180  -15.9870 C   0  0  0  0  0  0  0  0  0  0  0  0
   10.4040   60.9490  -16.1200 C   0  0  1  0  0  3  0  0  0  0  0  0
    9.0760   61.2850  -15.7010 N   0  0  0  0  0  0  0  0  0  0  0  0
    8.9120   62.5810  -15.1380 C   0  0  0  0  0  0  0  0  0  0  0  0
    9.8930   63.4290  -15.0030 C   0  0  0  0  0  0  0  0  0  0  0  0
    9.3570   64.6940  -14.4130 C   0  0  0  0  0  0  0  0  0  0  0  0
   10.0840   65.7020  -14.1670 O   0  0  0  0  0  0  0  0  0  0  0  0
    8.0280   64.4880  -14.2340 O   0  0  0  0  0  0  0  0  0  0  0  0
    7.6370   63.2100  -14.6060 C   0  0  0  0  0  2  0  0  0  0  0  0
   10.6180   59.7160  -16.6830 N   0  0  0  0  0  0  0  0  0  0  0  0
   11.8380   59.3610  -17.1010 C   0  0  0  0  0  0  0  0  0  0  0  0
   12.0120   58.2200  -17.6160 O   0  0  0  0  0  0  0  0  0  0  0  0
   12.8600   60.2220  -16.9660 N   0  0  0  0  0  0  0  0  0  0  0  0
   12.7370   61.4340  -16.4320 C   0  0  0  0  0  0  0  0  0  0  0  0
   13.6870   62.2460  -16.3020 O   0  0  0  0  0  0  0  0  0  0  0  0
   14.1770   59.7890  -17.4380 C   0  0  0  0  0  1  0  0  0  0  0  0
    9.4640   58.8360  -16.7960 C   0  0  0  0  0  1  0  0  0  0  0  0
    8.3110   60.5970  -15.8170 H   0  0  0  0  0  0  0  0  0  0  0  0
   12.2460   63.4920  -14.3680 C   0  0  0  0  0  0  0  0  0  0  0  0
   12.8970   64.6900  -14.3810 C   0  0  0  0  0  3  0  0  0  0  0  0
   13.8360   65.0160  -13.3860 C   0  0  0  0  0  3  0  0  0  0  0  0
   14.1010   64.1160  -12.3860 C   0  0  0  0  0  0  0  0  0  0  0  0
   15.3760   64.5180  -11.0040 Br  0  0  0  0  0  0  0  0  0  0  0  0
   13.4550   62.9140  -12.3620 C   0  0  0  0  0  3  0  0  0  0  0  0
   12.5190   62.5990  -13.3620 C   0  0  0  0  0  3  0  0  0  0  0  0
  1  6  1  0  0  0  0
  1 20  1  0  0  0  0
  2  1  2  0  0  0  0
  3  2  1  6  0  0  0
  3  4  1  0  0  0  0
  4  5  1  0  0  0  0
  5  6  2  0  0  0  0
  5 10  1  0  0  0  0
  6  7  1  0  0  0  0
  7  9  1  0  0  0  0
  7  8  2  0  0  0  0
 10  9  1  0  0  0  0
 11  3  1  0  0  0  0
 12 14  1  0  0  0  0
 12 11  1  0  0  0  0
 13 12  2  0  0  0  0
 14 15  1  0  0  0  0
 15 16  2  0  0  0  0
 15  2  1  0  0  0  0
 17 14  1  0  0  0  0
 18 11  1  0  0  0  0
 19  4  1  0  0  0  0
 20 26  1  0  0  0  0
 21 20  2  0  0  0  0
 21 22  1  0  0  0  0
 22 23  2  0  0  0  0
 23 25  1  0  0  0  0
 23 24  1  0  0  0  0
 26 25  2  0  0  0  0
M  END
>  <Pose>
1

>  <Score>
-5.020

$$$$
