/Users/jonathanwahrer/Desktop/Msc/3_Semester/Drug_Design_Praktikum/waehrer_HTS_screening/HTS_experiment/out/docking_results/vina_output/3sx0/1299_docked.pdbqt
 OpenBabel03192222283D

 36 39  0  0  0  0  0  0  0  0999 V2000
   22.3840   63.8920   -7.4010 C   0  0  0  0  0  0  0  0  0  0  0  0
   21.0160   63.8760   -7.3030 N   0  0  0  0  0  0  0  0  0  0  0  0
   20.7510   64.0140   -6.0210 N   0  0  0  0  0  0  0  0  0  0  0  0
   21.8290   64.1160   -5.3150 N   0  0  0  0  0  0  0  0  0  0  0  0
   22.9070   64.0440   -6.1460 C   0  0  0  0  0  0  0  0  0  0  0  0
   23.0340   63.7590   -8.6990 C   0  0  0  0  0  0  0  0  0  0  0  0
   23.0300   62.6210   -9.5360 N   0  0  0  0  0  0  0  0  0  0  0  0
   22.5560   61.7130   -9.3350 H   0  0  0  0  0  0  0  0  0  0  0  0
   23.6960   64.7560   -9.1800 O   0  0  0  0  0  0  0  0  0  0  0  0
   23.7480   62.7350  -10.7730 N   0  0  0  0  0  0  0  0  0  0  0  0
   23.1840   63.1590  -11.8370 C   0  0  0  0  0  3  0  0  0  0  0  0
   23.9200   63.2760  -13.1050 C   0  0  0  0  0  0  0  0  0  0  0  0
   25.2680   63.1030  -13.1550 C   0  0  0  0  0  3  0  0  0  0  0  0
   25.9590   63.2130  -14.3480 C   0  0  0  0  0  0  0  0  0  0  0  0
   25.3080   63.5010  -15.5210 C   0  0  0  0  0  0  0  0  0  0  0  0
   27.8650   62.9650  -14.4060 Br  0  0  0  0  0  0  0  0  0  0  0  0
   23.9400   63.6780  -15.4740 C   0  0  0  0  0  0  0  0  0  0  0  0
   23.0240   64.0800  -17.0990 Br  0  0  0  0  0  0  0  0  0  0  0  0
   23.2590   63.5660  -14.2780 C   0  0  0  0  0  3  0  0  0  0  0  0
   26.0360   63.6030  -16.6980 O   0  0  0  0  0  0  0  0  0  0  0  0
   26.8500   64.1830  -16.7950 H   0  0  0  0  0  0  0  0  0  0  0  0
   20.0870   63.7380   -8.3590 C   0  0  0  0  0  0  0  0  0  0  0  0
   19.1260   62.8000   -8.5500 N   0  0  0  0  0  0  0  0  0  0  0  0
   18.5070   63.0540   -9.6470 O   0  0  0  0  0  0  0  0  0  0  0  0
   18.9680   64.1080  -10.2410 N   0  0  0  0  0  0  0  0  0  0  0  0
   19.9760   64.5740   -9.4550 C   0  0  0  0  0  0  0  0  0  0  0  0
   20.7500   65.7240   -9.7480 N   0  0  0  0  0  0  0  0  0  0  0  0
   20.6740   66.1340  -10.6980 H   0  0  0  0  0  0  0  0  0  0  0  0
   21.3880   66.1810   -9.0710 H   0  0  0  0  0  0  0  0  0  0  0  0
   24.3260   64.1020   -5.7950 C   0  0  0  0  0  2  0  0  0  0  0  0
   24.8890   62.8250   -5.3840 N   0  0  0  0  0  0  0  0  0  0  0  0
   26.3240   62.9560   -5.1640 C   0  0  0  0  0  2  0  0  0  0  0  0
   26.6410   63.2970   -3.7350 C   0  0  0  0  0  2  0  0  0  0  0  0
   25.5970   63.8930   -3.0520 O   0  0  0  0  0  0  0  0  0  0  0  0
   24.4370   63.1360   -2.9980 C   0  0  0  0  0  2  0  0  0  0  0  0
   24.2510   62.2710   -4.2150 C   0  0  0  0  0  2  0  0  0  0  0  0
  1  2  1  0  0  0  0
  1  5  2  0  0  0  0
  2  3  1  0  0  0  0
  3  4  2  0  0  0  0
  5 30  1  0  0  0  0
  5  4  1  0  0  0  0
  6  1  1  0  0  0  0
  7  8  1  0  0  0  0
  7  6  1  0  0  0  0
  9  6  2  0  0  0  0
 10  7  1  0  0  0  0
 11 10  2  0  0  0  0
 12 11  1  0  0  0  0
 13 12  1  0  0  0  0
 14 13  2  0  0  0  0
 15 17  2  0  0  0  0
 15 14  1  0  0  0  0
 16 14  1  0  0  0  0
 17 19  1  0  0  0  0
 18 17  1  0  0  0  0
 19 12  2  0  0  0  0
 20 15  1  0  0  0  0
 21 20  1  0  0  0  0
 22  2  1  0  0  0  0
 23 22  2  0  0  0  0
 24 23  1  0  0  0  0
 25 24  1  0  0  0  0
 25 26  2  0  0  0  0
 26 22  1  0  0  0  0
 27 26  1  0  0  0  0
 27 29  1  0  0  0  0
 28 27  1  0  0  0  0
 30 31  1  0  0  0  0
 31 32  1  0  0  0  0
 31 36  1  0  0  0  0
 32 33  1  0  0  0  0
 33 34  1  0  0  0  0
 34 35  1  0  0  0  0
 36 35  1  0  0  0  0
M  END
>  <Pose>
1

>  <Score>
-6.603

$$$$
