/Users/jonathanwahrer/Desktop/Msc/3_Semester/Drug_Design_Praktikum/waehrer_HTS_screening/HTS_experiment/out/docking_results/vina_output/3sx0/1300_docked.pdbqt
 OpenBabel03192222283D

 22 25  0  0  1  0  0  0  0  0999 V2000
   20.0780   63.0220  -10.2940 N   0  0  0  0  0  0  0  0  0  0  0  0
   19.2220   61.9240  -10.0380 C   0  0  0  0  0  0  0  0  0  0  0  0
   19.5220   60.7150  -10.1100 O   0  0  0  0  0  0  0  0  0  0  0  0
   17.8740   62.3970   -9.6580 C   0  0  2  0  0  3  0  0  0  0  0  0
   17.0390   62.3900  -10.9200 C   0  0  2  0  0  3  0  0  0  0  0  0
   17.5810   63.5260  -11.5770 O   0  0  0  0  0  0  0  0  0  0  0  0
   17.2450   64.4640  -10.5640 C   0  0  2  0  0  3  0  0  0  0  0  0
   18.0290   63.8950   -9.4120 C   0  0  2  0  0  3  0  0  0  0  0  0
   19.4650   64.1500   -9.6630 C   0  0  0  0  0  0  0  0  0  0  0  0
   20.0800   65.2240   -9.3620 O   0  0  0  0  0  0  0  0  0  0  0  0
   15.7960   64.1940  -10.4460 C   0  0  0  0  0  2  0  0  0  0  0  0
   15.6680   62.8840  -10.6400 C   0  0  0  0  0  2  0  0  0  0  0  0
   21.3010   63.1000  -11.0100 C   0  0  0  0  0  0  0  0  0  0  0  0
   22.5090   63.2290  -10.3630 C   0  0  0  0  0  0  0  0  0  0  0  0
   22.4580   63.2880   -8.4490 Br  0  0  0  0  0  0  0  0  0  0  0  0
   23.7230   63.3130  -11.0410 C   0  0  0  0  0  3  0  0  0  0  0  0
   23.7600   63.2680  -12.4210 C   0  0  0  0  0  0  0  0  0  0  0  0
   22.5450   63.1380  -13.0720 C   0  0  0  0  0  3  0  0  0  0  0  0
   21.3470   63.0550  -12.4040 C   0  0  0  0  0  3  0  0  0  0  0  0
   24.9840   63.3540  -13.1400 N   0  0  0  0  0  0  0  0  0  0  0  0
   24.9320   63.4790  -14.3760 O   0  0  0  0  0  0  0  0  0  0  0  0
   26.2230   63.3100  -12.5620 O   0  0  0  0  0  0  0  0  0  0  0  0
  1  2  1  0  0  0  0
  1  9  1  0  0  0  0
  3  2  2  0  0  0  0
  4  2  1  6  0  0  0
  4  8  1  0  0  0  0
  5 12  1  1  0  0  0
  5  4  1  0  0  0  0
  6  5  1  0  0  0  0
  6  7  1  0  0  0  0
  7 11  1  1  0  0  0
  7  8  1  0  0  0  0
  8  9  1  6  0  0  0
  9 10  2  0  0  0  0
 12 11  1  0  0  0  0
 13 14  1  0  0  0  0
 13  1  1  0  0  0  0
 14 15  1  0  0  0  0
 16 14  2  0  0  0  0
 17 16  1  0  0  0  0
 18 17  2  0  0  0  0
 18 19  1  0  0  0  0
 19 13  2  0  0  0  0
 20 22  2  0  0  0  0
 20 17  1  0  0  0  0
 21 20  2  0  0  0  0
M  END
>  <Pose>
1

>  <Score>
-7.083

$$$$
