/Users/jonathanwahrer/Desktop/Msc/3_Semester/Drug_Design_Praktikum/waehrer_HTS_screening/HTS_experiment/out/docking_results/vina_output/3sx0/1301_docked.pdbqt
 OpenBabel03192222283D

 24 27  0  0  1  0  0  0  0  0999 V2000
   12.3270   65.1480  -15.0250 N   0  0  0  0  0  0  0  0  0  0  0  0
   11.1370   65.9200  -14.9210 C   0  0  0  0  0  0  0  0  0  0  0  0
   10.1420   65.6890  -14.2000 O   0  0  0  0  0  0  0  0  0  0  0  0
   11.2300   67.1020  -15.8290 C   0  0  1  0  0  3  0  0  0  0  0  0
   11.8960   68.2650  -15.1710 C   0  0  1  0  0  0  0  0  0  0  0  0
   13.2710   67.9260  -15.2380 O   0  0  0  0  0  0  0  0  0  0  0  0
   13.3200   67.7640  -16.6460 C   0  0  1  0  0  0  0  0  0  0  0  0
   12.3010   66.6880  -16.8360 C   0  0  1  0  0  3  0  0  0  0  0  0
   12.8170   65.3910  -16.3370 C   0  0  0  0  0  0  0  0  0  0  0  0
   13.5700   64.6290  -16.9780 O   0  0  0  0  0  0  0  0  0  0  0  0
   12.7710   69.0910  -17.0570 C   0  0  0  0  0  2  0  0  0  0  0  0
   11.8730   69.4170  -16.1110 C   0  0  0  0  0  2  0  0  0  0  0  0
   14.6690   67.4730  -17.1500 C   0  0  0  0  0  1  0  0  0  0  0  0
   12.8690   64.3310  -13.9960 C   0  0  0  0  0  0  0  0  0  0  0  0
   12.5960   62.9820  -13.8920 C   0  0  0  0  0  3  0  0  0  0  0  0
   13.1310   62.1790  -12.8780 C   0  0  0  0  0  3  0  0  0  0  0  0
   13.9660   62.7150  -11.9250 C   0  0  0  0  0  0  0  0  0  0  0  0
   14.2470   64.0590  -12.0150 C   0  0  0  0  0  0  0  0  0  0  0  0
   14.5320   61.8570  -10.8440 C   0  0  0  0  0  1  0  0  0  0  0  0
   15.3970   64.8370  -10.7150 Br  0  0  0  0  0  0  0  0  0  0  0  0
   13.7110   64.8550  -13.0300 C   0  0  0  0  0  3  0  0  0  0  0  0
   11.4390   68.5790  -13.8060 C   0  0  0  0  0  2  0  0  0  0  0  0
   11.8080   69.8640  -13.4140 O   0  0  0  0  0  0  0  0  0  0  0  0
   11.6110   70.0500  -12.4540 H   0  0  0  0  0  0  0  0  0  0  0  0
  1  2  1  0  0  0  0
  1 14  1  0  0  0  0
  2  3  2  0  0  0  0
  4  5  1  0  0  0  0
  4  2  1  1  0  0  0
  5 22  1  1  0  0  0
  6  5  1  0  0  0  0
  7 13  1  6  0  0  0
  7  6  1  0  0  0  0
  8  7  1  0  0  0  0
  8  9  1  1  0  0  0
  8  4  1  0  0  0  0
  9  1  1  0  0  0  0
 10  9  2  0  0  0  0
 11  7  1  0  0  0  0
 11 12  1  0  0  0  0
 12  5  1  0  0  0  0
 14 15  2  0  0  0  0
 14 21  1  0  0  0  0
 15 16  1  0  0  0  0
 16 17  2  0  0  0  0
 17 19  1  0  0  0  0
 18 17  1  0  0  0  0
 18 20  1  0  0  0  0
 21 18  2  0  0  0  0
 22 23  1  0  0  0  0
 23 24  1  0  0  0  0
M  END
>  <Pose>
1

>  <Score>
-5.573

$$$$
