/Users/jonathanwahrer/Desktop/Msc/3_Semester/Drug_Design_Praktikum/waehrer_HTS_screening/HTS_experiment/out/docking_results/vina_output/3sx0/1310_docked.pdbqt
 OpenBabel03192222283D

 32 35  0  0  1  0  0  0  0  0999 V2000
   11.3030   65.8730  -15.2830 C   0  0  1  0  0  3  0  0  0  0  0  0
   11.7250   65.3030  -16.5450 N   0  0  0  0  0  0  0  0  0  0  0  0
   13.1380   65.3950  -16.5850 C   0  0  0  0  0  0  0  0  0  0  0  0
   13.8800   65.4630  -17.5960 O   0  0  0  0  0  0  0  0  0  0  0  0
   13.5820   65.3950  -15.1910 C   0  0  0  0  0  0  0  0  0  0  0  0
   14.7460   65.4630  -14.7330 O   0  0  0  0  0  0  0  0  0  0  0  0
   12.3540   65.2970  -14.3860 C   0  0  0  0  0  0  0  0  0  0  0  0
   12.2830   64.8330  -13.1590 C   0  0  0  0  0  0  0  0  0  0  0  0
   11.0270   64.8640  -12.5390 O   0  0  0  0  0  1  0  0  0  0  0  0
   11.2540   67.3380  -15.2680 C   0  0  0  0  0  0  0  0  0  0  0  0
   11.6250   68.1300  -14.2120 C   0  0  0  0  0  3  0  0  0  0  0  0
   11.5640   69.5240  -14.2530 C   0  0  0  0  0  0  0  0  0  0  0  0
   12.1020   70.5650  -12.7270 Br  0  0  0  0  0  0  0  0  0  0  0  0
   11.1160   70.1560  -15.3920 C   0  0  0  0  0  3  0  0  0  0  0  0
   10.7370   69.3860  -16.4690 C   0  0  0  0  0  3  0  0  0  0  0  0
   10.8010   68.0130  -16.4140 C   0  0  0  0  0  3  0  0  0  0  0  0
   13.4560   64.2890  -12.4460 C   0  0  0  0  0  0  0  0  0  0  0  0
   14.4850   64.9210  -11.9650 O   0  0  0  0  0  0  0  0  0  0  0  0
   15.3340   64.0990  -11.3900 C   0  0  0  0  0  0  0  0  0  0  0  0
   14.8430   62.8080  -11.4880 C   0  0  0  0  0  0  0  0  0  0  0  0
   16.5460   64.2740  -10.7480 C   0  0  0  0  0  3  0  0  0  0  0  0
   13.6460   62.9490  -12.1630 C   0  0  0  0  0  3  0  0  0  0  0  0
   15.5500   61.7500  -10.9590 C   0  0  0  0  0  3  0  0  0  0  0  0
   16.7560   61.9230  -10.3190 C   0  0  0  0  0  3  0  0  0  0  0  0
   17.2580   63.2020  -10.2140 C   0  0  0  0  0  3  0  0  0  0  0  0
   10.9330   64.7030  -17.6170 C   0  0  0  0  0  2  0  0  0  0  0  0
    9.8490   63.8120  -17.0400 C   0  0  0  0  0  2  0  0  0  0  0  0
   10.4040   62.6200  -16.3070 C   0  0  0  0  0  2  0  0  0  0  0  0
    9.9770   62.6510  -14.9450 N   0  0  0  0  0  4  0  0  0  0  0  0
    8.7120   63.3280  -14.7560 C   0  0  0  0  0  1  0  0  0  0  0  0
    9.8900   61.3750  -14.3000 C   0  0  0  0  0  1  0  0  0  0  0  0
   10.6940   63.2220  -14.4050 H   0  0  0  0  0  0  0  0  0  0  0  0
  1 10  1  6  0  0  0
  1  7  1  0  0  0  0
  2  1  1  0  0  0  0
  3  2  1  0  0  0  0
  3  5  1  0  0  0  0
  4  3  2  0  0  0  0
  5  6  2  0  0  0  0
  5  7  1  0  0  0  0
  7  8  2  0  0  0  0
  8  9  1  0  0  0  0
  8 17  1  0  0  0  0
 10 11  1  0  0  0  0
 12 11  2  0  0  0  0
 12 13  1  0  0  0  0
 14 12  1  0  0  0  0
 15 16  1  0  0  0  0
 15 14  2  0  0  0  0
 16 10  2  0  0  0  0
 17 22  2  0  0  0  0
 17 18  1  0  0  0  0
 18 19  1  0  0  0  0
 19 21  1  0  0  0  0
 20 19  2  0  0  0  0
 20 23  1  0  0  0  0
 21 25  2  0  0  0  0
 22 20  1  0  0  0  0
 23 24  2  0  0  0  0
 24 25  1  0  0  0  0
 26 27  1  0  0  0  0
 26  2  1  0  0  0  0
 27 28  1  0  0  0  0
 28 29  1  0  0  0  0
 29 30  1  0  0  0  0
 29 32  1  0  0  0  0
 29 31  1  0  0  0  0
M  END
>  <Pose>
1

>  <Score>
15.685

$$$$
