/Users/jonathanwahrer/Desktop/Msc/3_Semester/Drug_Design_Praktikum/waehrer_HTS_screening/HTS_experiment/out/docking_results/vina_output/3sx0/1343_docked.pdbqt
 OpenBabel03192222313D

 41 44  0  0  1  0  0  0  0  0999 V2000
   19.9780   63.3280   -9.6120 C   0  0  0  0  0  0  0  0  0  0  0  0
   21.2710   63.5140   -9.2410 N   0  0  0  0  0  0  0  0  0  0  0  0
   22.0620   63.3770  -10.3360 C   0  0  0  0  0  0  0  0  0  0  0  0
   23.3800   63.4550  -10.5500 N   0  0  0  0  0  0  0  0  0  0  0  0
   23.9210   63.2720  -11.7690 C   0  0  0  0  0  0  0  0  0  0  0  0
   23.1050   63.0010  -12.8110 N   0  0  0  0  0  0  0  0  0  0  0  0
   21.7870   62.9090  -12.6730 C   0  0  0  0  0  0  0  0  0  0  0  0
   21.2390   63.0980  -11.4200 C   0  0  0  0  0  0  0  0  0  0  0  0
   20.0070   63.0790  -10.9390 N   0  0  0  0  0  0  0  0  0  0  0  0
   18.8410   63.3900   -8.7600 N   0  0  0  0  0  0  0  0  0  0  0  0
   18.9740   63.3860   -7.7370 H   0  0  0  0  0  0  0  0  0  0  0  0
   17.5730   63.4550   -9.3700 N   0  0  0  0  0  0  0  0  0  0  0  0
   17.3120   62.9560  -10.5070 C   0  0  0  0  0  3  0  0  0  0  0  0
   16.0100   63.0080  -11.1630 C   0  0  0  0  0  0  0  0  0  0  0  0
   15.2070   61.8900  -11.2390 C   0  0  0  0  0  0  0  0  0  0  0  0
   15.8300   60.2680  -10.4670 Br  0  0  0  0  0  0  0  0  0  0  0  0
   13.9590   61.9320  -11.8660 C   0  0  0  0  0  3  0  0  0  0  0  0
   13.4860   63.0960  -12.4330 C   0  0  0  0  0  0  0  0  0  0  0  0
   14.2890   64.2140  -12.3580 C   0  0  0  0  0  0  0  0  0  0  0  0
   15.5190   64.1610  -11.7360 C   0  0  0  0  0  3  0  0  0  0  0  0
   12.2420   63.1560  -13.0640 O   0  0  0  0  0  0  0  0  0  0  0  0
   11.9720   62.5440  -14.2890 C   0  0  0  0  0  1  0  0  0  0  0  0
   13.8000   65.3830  -12.9340 O   0  0  0  0  0  0  0  0  0  0  0  0
   13.9600   65.7330  -14.2720 C   0  0  0  0  0  1  0  0  0  0  0  0
   21.7200   63.8060   -7.9150 C   0  0  2  0  0  3  0  0  0  0  0  0
   21.3130   65.0450   -7.4400 O   0  0  0  0  0  0  0  0  0  0  0  0
   22.1620   65.4300   -6.4430 C   0  0  1  0  0  3  0  0  0  0  0  0
   23.3650   64.5510   -6.4350 C   0  0  2  0  0  3  0  0  0  0  0  0
   23.2280   63.8110   -7.7670 C   0  0  1  0  0  3  0  0  0  0  0  0
   22.6300   66.8570   -6.7370 C   0  0  0  0  0  2  0  0  0  0  0  0
   23.7710   67.1500   -5.9810 O   0  0  0  0  0  0  0  0  0  0  0  0
   23.8390   68.1210   -5.7920 H   0  0  0  0  0  0  0  0  0  0  0  0
   23.2360   63.5560   -5.4440 O   0  0  0  0  0  0  0  0  0  0  0  0
   23.9550   62.8910   -5.5070 H   0  0  0  0  0  0  0  0  0  0  0  0
   23.7450   62.5200   -7.6680 O   0  0  0  0  0  0  0  0  0  0  0  0
   23.1310   61.9490   -7.1380 H   0  0  0  0  0  0  0  0  0  0  0  0
   20.9170   62.6300  -13.7320 O   0  0  0  0  0  0  0  0  0  0  0  0
   20.7280   63.3980  -14.3660 H   0  0  0  0  0  0  0  0  0  0  0  0
   25.3380   63.3590  -11.9800 N   0  0  0  0  0  0  0  0  0  0  0  0
   26.0280   62.7450  -11.5360 H   0  0  0  0  0  0  0  0  0  0  0  0
   25.6630   64.1040  -12.6310 H   0  0  0  0  0  0  0  0  0  0  0  0
  1  2  1  0  0  0  0
  1 10  1  0  0  0  0
  3  2  1  0  0  0  0
  4  3  1  0  0  0  0
  5  4  2  0  0  0  0
  6  7  2  0  0  0  0
  6  5  1  0  0  0  0
  7  8  1  0  0  0  0
  8  9  1  0  0  0  0
  8  3  2  0  0  0  0
  9  1  2  0  0  0  0
 10 11  1  0  0  0  0
 12 10  1  0  0  0  0
 13 12  2  0  0  0  0
 14 13  1  0  0  0  0
 15 14  1  0  0  0  0
 15 16  1  0  0  0  0
 17 15  2  0  0  0  0
 18 19  2  0  0  0  0
 18 17  1  0  0  0  0
 19 20  1  0  0  0  0
 20 14  2  0  0  0  0
 21 18  1  0  0  0  0
 22 21  1  0  0  0  0
 23 19  1  0  0  0  0
 24 23  1  0  0  0  0
 25  2  1  6  0  0  0
 25 29  1  0  0  0  0
 25 26  1  0  0  0  0
 26 27  1  0  0  0  0
 27 30  1  6  0  0  0
 27 28  1  0  0  0  0
 28 33  1  1  0  0  0
 29 35  1  1  0  0  0
 29 28  1  0  0  0  0
 30 31  1  0  0  0  0
 31 32  1  0  0  0  0
 34 33  1  0  0  0  0
 35 36  1  0  0  0  0
 37  7  1  0  0  0  0
 38 37  1  0  0  0  0
 39  5  1  0  0  0  0
 39 40  1  0  0  0  0
 41 39  1  0  0  0  0
M  END
>  <Pose>
1

>  <Score>
-7.650

$$$$
