/Users/jonathanwahrer/Desktop/Msc/3_Semester/Drug_Design_Praktikum/waehrer_HTS_screening/HTS_experiment/out/docking_results/vina_output/3sx0/1355_docked.pdbqt
 OpenBabel03192222313D

 27 30  0  0  1  0  0  0  0  0999 V2000
   19.3280   63.4570  -11.4020 N   0  0  0  0  0  0  0  0  0  0  0  0
   18.5390   62.5510  -10.6730 C   0  0  0  0  0  0  0  0  0  0  0  0
   18.9320   61.3720  -10.5270 O   0  0  0  0  0  0  0  0  0  0  0  0
   18.9970   64.4360  -11.5200 H   0  0  0  0  0  0  0  0  0  0  0  0
   20.5920   63.0550  -11.9920 C   0  0  0  0  0  2  0  0  0  0  0  0
   21.7250   63.3300  -11.0360 C   0  0  0  0  0  0  0  0  0  0  0  0
   22.9780   63.5740  -11.3250 O   0  0  0  0  0  0  0  0  0  0  0  0
   23.6640   63.7650  -10.2180 N   0  0  0  0  0  0  0  0  0  0  0  0
   22.8440   63.6450   -9.1600 C   0  0  0  0  0  0  0  0  0  0  0  0
   21.6380   63.3740   -9.6890 N   0  0  0  0  0  0  0  0  0  0  0  0
   23.1890   63.7790   -7.7490 C   0  0  0  0  0  0  0  0  0  0  0  0
   22.5730   64.6930   -6.9210 C   0  0  0  0  0  0  0  0  0  0  0  0
   21.3380   65.7150   -7.6150 Cl  0  0  0  0  0  0  0  0  0  0  0  0
   22.8980   64.8240   -5.5750 C   0  0  0  0  0  3  0  0  0  0  0  0
   23.8660   64.0270   -5.0200 C   0  0  0  0  0  3  0  0  0  0  0  0
   24.5040   63.0910   -5.8440 C   0  0  0  0  0  3  0  0  0  0  0  0
   24.1560   62.9900   -7.1720 C   0  0  0  0  0  3  0  0  0  0  0  0
   17.2610   62.9810  -10.0850 C   0  0  1  0  0  3  0  0  0  0  0  0
   17.1160   64.4910  -10.0770 C   0  0  0  0  0  2  0  0  0  0  0  0
   15.7450   64.9040   -9.6570 C   0  0  0  0  0  2  0  0  0  0  0  0
   14.7700   65.0880  -10.7730 C   0  0  0  0  0  2  0  0  0  0  0  0
   15.0910   64.2000  -11.9720 C   0  0  0  0  0  2  0  0  0  0  0  0
   15.1600   62.8390  -11.4930 N   0  0  0  0  0  0  0  0  0  0  0  0
   14.2890   61.9170  -11.8050 N   0  0  0  0  0  0  0  0  0  0  0  0
   16.0920   62.3190  -10.6840 C   0  0  0  0  0  0  0  0  0  0  0  0
   14.6310   60.7990  -11.2140 N   0  0  0  0  0  0  0  0  0  0  0  0
   15.7320   61.0340  -10.5260 N   0  0  0  0  0  0  0  0  0  0  0  0
  1  2  1  0  0  0  0
  2  3  2  0  0  0  0
  4  1  1  0  0  0  0
  5  1  1  0  0  0  0
  5  6  1  0  0  0  0
  6 10  2  0  0  0  0
  7  6  1  0  0  0  0
  7  8  1  0  0  0  0
  8  9  2  0  0  0  0
  9 11  1  0  0  0  0
 10  9  1  0  0  0  0
 11 17  2  0  0  0  0
 11 12  1  0  0  0  0
 12 14  2  0  0  0  0
 13 12  1  0  0  0  0
 14 15  1  0  0  0  0
 16 15  2  0  0  0  0
 17 16  1  0  0  0  0
 18  2  1  6  0  0  0
 18 19  1  0  0  0  0
 19 20  1  0  0  0  0
 21 20  1  0  0  0  0
 22 23  1  0  0  0  0
 22 21  1  0  0  0  0
 23 25  1  0  0  0  0
 24 23  1  0  0  0  0
 24 26  2  0  0  0  0
 25 27  2  0  0  0  0
 25 18  1  0  0  0  0
 26 27  1  0  0  0  0
M  END
>  <Pose>
1

>  <Score>
-8.874

$$$$
