/Users/jonathanwahrer/Desktop/Msc/3_Semester/Drug_Design_Praktikum/waehrer_HTS_screening/HTS_experiment/out/docking_results/vina_output/3sx0/1372_docked.pdbqt
 OpenBabel03192222313D

 31 34  0  0  1  0  0  0  0  0999 V2000
   13.0610   64.8350  -13.8500 C   0  0  0  0  0  0  0  0  0  0  0  0
   14.2420   64.9040  -14.2490 O   0  0  0  0  0  0  0  0  0  0  0  0
   12.1740   65.8890  -14.0950 N   0  0  0  0  0  0  0  0  0  0  0  0
   12.2430   66.9610  -15.0300 C   0  0  0  0  0  2  0  0  0  0  0  0
   10.7750   67.2630  -15.3680 C   0  0  0  0  0  2  0  0  0  0  0  0
    9.9050   66.0350  -15.2620 C   0  0  1  0  0  0  0  0  0  0  0  0
    8.5340   66.3360  -15.5730 N   0  0  0  0  0  0  0  0  0  0  0  0
    7.7490   65.1130  -15.3520 C   0  0  0  0  0  2  0  0  0  0  0  0
    8.1010   64.0410  -16.3370 C   0  0  0  0  0  2  0  0  0  0  0  0
    9.5250   64.0770  -16.7390 C   0  0  0  0  0  0  0  0  0  0  0  0
   10.2080   63.2900  -17.5750 N   0  0  0  0  0  0  0  0  0  0  0  0
   11.4860   63.7150  -17.6160 C   0  0  0  0  0  3  0  0  0  0  0  0
   11.5820   64.7700  -16.7960 N   0  0  0  0  0  0  0  0  0  0  0  0
   10.3990   65.0430  -16.2240 C   0  0  0  0  0  0  0  0  0  0  0  0
    9.8580   65.4710  -13.8330 C   0  0  0  0  0  2  0  0  0  0  0  0
   11.0160   66.0700  -13.1570 C   0  0  0  0  0  2  0  0  0  0  0  0
    8.1670   67.0330  -14.8810 H   0  0  0  0  0  0  0  0  0  0  0  0
    9.8870   62.4710  -18.1380 H   0  0  0  0  0  0  0  0  0  0  0  0
   12.6440   63.5960  -13.1240 C   0  0  1  0  0  3  0  0  0  0  0  0
   11.9940   62.6680  -14.1830 C   0  0  0  0  0  1  0  0  0  0  0  0
   13.7470   62.8120  -12.6250 N   0  0  0  0  0  0  0  0  0  0  0  0
   14.2120   63.0360  -11.2660 C   0  0  0  0  0  0  0  0  0  0  0  0
   13.6560   63.8470  -10.5150 O   0  0  0  0  0  0  0  0  0  0  0  0
   14.1910   62.1090  -13.2120 H   0  0  0  0  0  0  0  0  0  0  0  0
   15.3860   62.2490  -10.8520 C   0  0  0  0  0  0  0  0  0  0  0  0
   16.5670   62.9470  -10.5520 C   0  0  0  0  0  3  0  0  0  0  0  0
   17.7290   62.3250  -10.1690 C   0  0  0  0  0  0  0  0  0  0  0  0
   19.3000   63.3720   -9.7680 Br  0  0  0  0  0  0  0  0  0  0  0  0
   17.7380   60.9530  -10.0770 C   0  0  0  0  0  3  0  0  0  0  0  0
   16.5830   60.2480  -10.3730 C   0  0  0  0  0  3  0  0  0  0  0  0
   15.4120   60.8910  -10.7600 C   0  0  0  0  0  3  0  0  0  0  0  0
  1 19  1  0  0  0  0
  2  1  2  0  0  0  0
  3  1  1  0  0  0  0
  3 16  1  0  0  0  0
  4  3  1  0  0  0  0
  5  4  1  0  0  0  0
  6  5  1  6  0  0  0
  6 15  1  0  0  0  0
  7  8  1  0  0  0  0
  7  6  1  0  0  0  0
  7 17  1  0  0  0  0
  9  8  1  0  0  0  0
 10  9  1  0  0  0  0
 10 14  2  0  0  0  0
 11 10  1  0  0  0  0
 12 11  1  0  0  0  0
 12 13  2  0  0  0  0
 13 14  1  0  0  0  0
 14  6  1  0  0  0  0
 15 16  1  0  0  0  0
 18 11  1  0  0  0  0
 19 20  1  6  0  0  0
 19 21  1  0  0  0  0
 21 22  1  0  0  0  0
 22 25  1  0  0  0  0
 22 23  2  0  0  0  0
 24 21  1  0  0  0  0
 25 31  2  0  0  0  0
 25 26  1  0  0  0  0
 26 27  2  0  0  0  0
 27 29  1  0  0  0  0
 27 28  1  0  0  0  0
 30 29  2  0  0  0  0
 31 30  1  0  0  0  0
M  END
>  <Pose>
1

>  <Score>
-6.909

$$$$
