/Users/jonathanwahrer/Desktop/Msc/3_Semester/Drug_Design_Praktikum/waehrer_HTS_screening/HTS_experiment/out/docking_results/vina_output/3sx0/1386_docked.pdbqt
 OpenBabel03192222323D

 33 36  0  0  1  0  0  0  0  0999 V2000
   13.8070   64.1610  -13.1710 C   0  0  0  0  0  0  0  0  0  0  0  0
   14.6580   64.9280  -12.6660 O   0  0  0  0  0  0  0  0  0  0  0  0
   12.9910   64.6460  -14.2590 N   0  0  0  0  0  0  0  0  0  0  0  0
   13.1830   65.9920  -14.7260 C   0  0  0  0  0  2  0  0  0  0  0  0
   11.9360   66.7730  -14.3680 C   0  0  2  0  0  3  0  0  0  0  0  0
   10.6950   65.9560  -14.3880 C   0  0  2  0  0  0  0  0  0  0  0  0
   10.7690   64.6950  -15.1690 C   0  0  0  0  0  2  0  0  0  0  0  0
   11.9830   63.8630  -14.9190 C   0  0  0  0  0  2  0  0  0  0  0  0
    9.5920   66.8190  -15.0150 C   0  0  0  0  0  1  0  0  0  0  0  0
   13.6050   62.7870  -12.6990 C   0  0  0  0  0  2  0  0  0  0  0  0
   13.8510   62.5010  -11.2790 C   0  0  0  0  0  2  0  0  0  0  0  0
   15.2640   62.5040  -10.8210 C   0  0  0  0  0  0  0  0  0  0  0  0
   15.9980   63.6450  -10.5740 N   0  0  0  0  0  0  0  0  0  0  0  0
   17.2500   63.3020  -10.2360 C   0  0  0  0  0  0  0  0  0  0  0  0
   18.3800   64.0260   -9.8920 C   0  0  0  0  0  3  0  0  0  0  0  0
   17.3470   61.9300  -10.2600 C   0  0  0  0  0  0  0  0  0  0  0  0
   19.5610   63.3920   -9.5840 C   0  0  0  0  0  0  0  0  0  0  0  0
   20.9760   64.3630   -9.1510 Cl  0  0  0  0  0  0  0  0  0  0  0  0
   19.6410   62.0130   -9.6130 C   0  0  0  0  0  3  0  0  0  0  0  0
   18.5260   61.2840   -9.9520 C   0  0  0  0  0  3  0  0  0  0  0  0
   16.1060   61.4950  -10.6240 N   0  0  0  0  0  0  0  0  0  0  0  0
   15.8430   60.0780  -10.7990 C   0  0  0  0  0  1  0  0  0  0  0  0
   11.8800   67.9330  -15.2240 N   0  0  0  0  0  0  0  0  0  0  0  0
   12.0190   67.7990  -16.5580 C   0  0  0  0  0  3  0  0  0  0  0  0
   11.9730   68.8780  -17.4120 C   0  0  0  0  0  3  0  0  0  0  0  0
   11.7780   70.1300  -16.8760 C   0  0  0  0  0  0  0  0  0  0  0  0
   11.7260   71.1690  -17.6130 O   0  0  0  0  0  0  0  0  0  0  0  0
   11.6430   70.2330  -15.5440 N   0  0  0  0  0  0  0  0  0  0  0  0
   11.6920   69.1720  -14.7380 C   0  0  0  0  0  0  0  0  0  0  0  0
   11.4910   71.1820  -15.0880 H   0  0  0  0  0  0  0  0  0  0  0  0
   11.5590   69.3230  -13.4900 O   0  0  0  0  0  0  0  0  0  0  0  0
   10.2290   65.6410  -13.1020 O   0  0  0  0  0  0  0  0  0  0  0  0
   10.1520   64.6380  -13.0410 H   0  0  0  0  0  0  0  0  0  0  0  0
  1 10  1  0  0  0  0
  1  2  2  0  0  0  0
  3  1  1  0  0  0  0
  4  5  1  0  0  0  0
  4  3  1  0  0  0  0
  5 23  1  6  0  0  0
  6  9  1  6  0  0  0
  6  5  1  0  0  0  0
  6 32  1  0  0  0  0
  7  8  1  0  0  0  0
  7  6  1  0  0  0  0
  8  3  1  0  0  0  0
 10 11  1  0  0  0  0
 11 12  1  0  0  0  0
 12 21  1  0  0  0  0
 12 13  2  0  0  0  0
 13 14  1  0  0  0  0
 14 15  1  0  0  0  0
 15 17  2  0  0  0  0
 16 14  2  0  0  0  0
 16 20  1  0  0  0  0
 17 18  1  0  0  0  0
 19 17  1  0  0  0  0
 20 19  2  0  0  0  0
 21 16  1  0  0  0  0
 22 21  1  0  0  0  0
 23 29  1  0  0  0  0
 24 23  1  0  0  0  0
 25 26  1  0  0  0  0
 25 24  2  0  0  0  0
 26 28  1  0  0  0  0
 27 26  2  0  0  0  0
 28 30  1  0  0  0  0
 28 29  1  0  0  0  0
 29 31  2  0  0  0  0
 32 33  1  0  0  0  0
M  END
>  <Pose>
1

>  <Score>
-7.708

$$$$
