/Users/jonathanwahrer/Desktop/Msc/3_Semester/Drug_Design_Praktikum/waehrer_HTS_screening/HTS_experiment/out/docking_results/vina_output/3sx0/1404_docked.pdbqt
 OpenBabel03192222333D

 26 29  0  0  1  0  0  0  0  0999 V2000
   15.8760   64.9330  -10.1550 Br  0  0  0  0  0  0  0  0  0  0  0  0
   14.6980   63.9530  -11.2920 C   0  0  0  0  0  0  0  0  0  0  0  0
   13.7300   64.5930  -12.0430 C   0  0  0  0  0  3  0  0  0  0  0  0
   12.8560   63.9300  -12.8790 C   0  0  0  0  0  0  0  0  0  0  0  0
   13.0010   62.5400  -12.9310 C   0  0  0  0  0  0  0  0  0  0  0  0
   13.9620   61.9050  -12.1840 C   0  0  0  0  0  3  0  0  0  0  0  0
   14.8300   62.5820  -11.3530 C   0  0  0  0  0  0  0  0  0  0  0  0
   15.8550   61.8410  -10.5650 C   0  0  0  0  0  1  0  0  0  0  0  0
   12.1060   61.9070  -13.7830 O   0  0  0  0  0  0  0  0  0  0  0  0
   10.9900   62.5380  -14.3820 C   0  0  0  0  0  2  0  0  0  0  0  0
   11.3860   63.9550  -14.9150 C   0  0  2  0  0  0  0  0  0  0  0  0
   11.8250   64.6030  -13.6560 C   0  0  0  0  0  0  0  0  0  0  0  0
   11.4080   65.6710  -13.1750 O   0  0  0  0  0  0  0  0  0  0  0  0
   10.3960   64.5710  -15.6170 N   0  0  0  0  0  0  0  0  0  0  0  0
    9.7290   65.7260  -15.1910 C   0  0  0  0  0  2  0  0  0  0  0  0
    8.3780   65.3620  -14.6140 C   0  0  0  0  0  2  0  0  0  0  0  0
    7.6230   64.8670  -15.7040 O   0  0  0  0  0  0  0  0  0  0  0  0
    8.1870   63.6060  -15.9680 C   0  0  0  0  0  2  0  0  0  0  0  0
    9.6060   63.8280  -16.4960 C   0  0  0  0  0  2  0  0  0  0  0  0
   12.5650   63.6700  -15.7750 C   0  0  0  0  0  2  0  0  0  0  0  0
   12.7950   64.5020  -16.9140 N   0  0  0  0  0  0  0  0  0  0  0  0
   12.8240   65.9040  -16.7330 C   0  0  0  0  0  2  0  0  0  0  0  0
   14.1500   66.3380  -16.0910 C   0  0  0  0  0  2  0  0  0  0  0  0
   15.1350   66.0600  -17.0440 O   0  0  0  0  0  0  0  0  0  0  0  0
   15.2410   64.6660  -17.1200 C   0  0  0  0  0  2  0  0  0  0  0  0
   13.9850   64.0190  -17.6160 C   0  0  0  0  0  2  0  0  0  0  0  0
  2  1  1  0  0  0  0
  3  2  2  0  0  0  0
  4  3  1  0  0  0  0
  5  4  2  0  0  0  0
  5  6  1  0  0  0  0
  6  7  2  0  0  0  0
  7  2  1  0  0  0  0
  7  8  1  0  0  0  0
  9  5  1  0  0  0  0
 10  9  1  0  0  0  0
 11 20  1  6  0  0  0
 11 10  1  0  0  0  0
 11 12  1  0  0  0  0
 12 13  2  0  0  0  0
 12  4  1  0  0  0  0
 14 15  1  0  0  0  0
 14 11  1  0  0  0  0
 15 16  1  0  0  0  0
 17 16  1  0  0  0  0
 18 17  1  0  0  0  0
 19 18  1  0  0  0  0
 19 14  1  0  0  0  0
 21 22  1  0  0  0  0
 21 20  1  0  0  0  0
 22 23  1  0  0  0  0
 24 23  1  0  0  0  0
 25 24  1  0  0  0  0
 26 25  1  0  0  0  0
 26 21  1  0  0  0  0
M  END
>  <Pose>
1

>  <Score>
-4.904

$$$$
