/Users/jonathanwahrer/Desktop/Msc/3_Semester/Drug_Design_Praktikum/waehrer_HTS_screening/HTS_experiment/out/docking_results/vina_output/3sx0/1413_docked.pdbqt
 OpenBabel03192222333D

 24 27  0  0  0  0  0  0  0  0999 V2000
   20.9830   64.5440   -9.8260 C   0  0  0  0  0  2  0  0  0  0  0  0
   19.8650   63.6270   -9.9710 N   0  0  0  0  0  0  0  0  0  0  0  0
   19.9570   62.3100   -9.7170 C   0  0  0  0  0  2  0  0  0  0  0  0
   18.8600   61.4690   -9.8710 C   0  0  0  0  0  0  0  0  0  0  0  0
   17.6440   61.9590  -10.2890 C   0  0  0  0  0  0  0  0  0  0  0  0
   18.6510   60.1380   -9.6960 N   0  0  0  0  0  0  0  0  0  0  0  0
   17.5460   63.2840  -10.5460 C   0  0  0  0  0  0  0  0  0  0  0  0
   16.7390   60.9640  -10.3630 N   0  0  0  0  0  0  0  0  0  0  0  0
   15.8820   63.9820  -11.1240 Br  0  0  0  0  0  0  0  0  0  0  0  0
   18.6670   64.0960  -10.3810 C   0  0  0  0  0  3  0  0  0  0  0  0
   17.4080   59.8770   -9.9900 N   0  0  0  0  0  0  0  0  0  0  0  0
   15.3750   60.9590  -10.7360 C   0  0  0  0  0  1  0  0  0  0  0  0
   22.1870   63.9390   -9.2640 C   0  0  0  0  0  0  0  0  0  0  0  0
   22.9530   63.3450  -10.0820 O   0  0  0  0  0  0  0  0  0  0  0  0
   22.5890   63.9540   -7.8610 C   0  0  0  0  0  0  0  0  0  0  0  0
   23.7540   63.3380   -7.4990 C   0  0  0  0  0  3  0  0  0  0  0  0
   24.1540   63.3300   -6.1880 C   0  0  0  0  0  0  0  0  0  0  0  0
   23.4080   63.9330   -5.1910 C   0  0  0  0  0  0  0  0  0  0  0  0
   25.3380   62.7020   -5.8460 C   0  0  0  0  0  3  0  0  0  0  0  0
   22.2260   64.5510   -5.5930 C   0  0  0  0  0  3  0  0  0  0  0  0
   23.7900   63.9390   -3.8660 C   0  0  0  0  0  3  0  0  0  0  0  0
   21.8240   64.5610   -6.9000 C   0  0  0  0  0  3  0  0  0  0  0  0
   24.9710   63.3090   -3.5390 C   0  0  0  0  0  3  0  0  0  0  0  0
   25.7230   62.7040   -4.5250 C   0  0  0  0  0  3  0  0  0  0  0  0
  1 13  1  0  0  0  0
  2  1  1  0  0  0  0
  2  3  1  0  0  0  0
  4  3  1  0  0  0  0
  4  6  1  0  0  0  0
  5  4  2  0  0  0  0
  7 10  2  0  0  0  0
  7  5  1  0  0  0  0
  8  5  1  0  0  0  0
  8 11  1  0  0  0  0
  9  7  1  0  0  0  0
 10  2  1  0  0  0  0
 11  6  2  0  0  0  0
 12  8  1  0  0  0  0
 13 15  1  0  0  0  0
 14 13  2  0  0  0  0
 15 16  2  0  0  0  0
 15 22  1  0  0  0  0
 16 17  1  0  0  0  0
 17 19  2  0  0  0  0
 17 18  1  0  0  0  0
 18 21  2  0  0  0  0
 19 24  1  0  0  0  0
 20 18  1  0  0  0  0
 21 23  1  0  0  0  0
 22 20  2  0  0  0  0
 24 23  2  0  0  0  0
M  END
>  <Pose>
1

>  <Score>
-9.862

$$$$
