/Users/jonathanwahrer/Desktop/Msc/3_Semester/Drug_Design_Praktikum/waehrer_HTS_screening/HTS_experiment/out/docking_results/vina_output/3sx0/1428_docked.pdbqt
 OpenBabel03192222333D

 37 40  0  0  1  0  0  0  0  0999 V2000
   10.6150   67.0980  -13.1110 Cl  0  0  0  0  0  0  0  0  0  0  0  0
    9.8600   66.1430  -14.3830 C   0  0  0  0  0  0  0  0  0  0  0  0
    9.8780   64.7740  -14.3720 C   0  0  0  0  0  3  0  0  0  0  0  0
    9.2720   64.0760  -15.3920 C   0  0  0  0  0  0  0  0  0  0  0  0
    8.6650   64.7870  -16.3940 C   0  0  0  0  0  0  0  0  0  0  0  0
    8.6480   66.1840  -16.4020 C   0  0  0  0  0  3  0  0  0  0  0  0
    9.2520   66.8660  -15.3870 C   0  0  0  0  0  3  0  0  0  0  0  0
    8.0690   63.9420  -17.3720 N   0  0  0  0  0  0  0  0  0  0  0  0
    8.3180   62.6280  -16.9550 C   0  0  0  0  0  0  0  0  0  0  0  0
    7.8980   61.6220  -17.6150 O   0  0  0  0  0  0  0  0  0  0  0  0
    9.0980   62.6390  -15.7100 C   0  0  2  0  0  0  0  0  0  0  0  0
    8.3350   61.9490  -14.7080 N   0  0  0  0  0  0  0  0  0  0  0  0
    8.9970   60.7240  -14.3810 C   0  0  2  0  0  3  0  0  0  0  0  0
   10.0430   60.4910  -15.4240 C   0  0  0  0  0  2  0  0  0  0  0  0
   10.3460   61.8880  -15.8890 C   0  0  2  0  0  3  0  0  0  0  0  0
    7.5440   64.2380  -18.2370 H   0  0  0  0  0  0  0  0  0  0  0  0
    8.1470   62.5630  -13.8870 H   0  0  0  0  0  0  0  0  0  0  0  0
   11.5580   62.4580  -15.2470 C   0  0  0  0  0  0  0  0  0  0  0  0
   12.4250   62.9240  -16.0250 O   0  0  0  0  0  0  0  0  0  0  0  0
   11.7620   62.4940  -13.8630 N   0  0  0  0  0  0  0  0  0  0  0  0
   10.9610   62.0830  -13.2910 H   0  0  0  0  0  0  0  0  0  0  0  0
   12.8520   62.9950  -13.1500 C   0  0  0  0  0  0  0  0  0  0  0  0
   13.3070   64.2770  -13.4190 C   0  0  0  0  0  0  0  0  0  0  0  0
   14.3770   64.8370  -12.7520 C   0  0  0  0  0  3  0  0  0  0  0  0
   15.0500   64.1410  -11.7790 C   0  0  0  0  0  3  0  0  0  0  0  0
   14.6250   62.8760  -11.4920 C   0  0  0  0  0  0  0  0  0  0  0  0
   13.5430   62.3230  -12.1730 C   0  0  0  0  0  3  0  0  0  0  0  0
   12.6810   65.0420  -14.3880 O   0  0  0  0  0  0  0  0  0  0  0  0
   13.3310   65.9870  -15.1820 C   0  0  0  0  0  1  0  0  0  0  0  0
   15.2750   62.1410  -10.5170 O   0  0  0  0  0  0  0  0  0  0  0  0
   15.6740   60.7960  -10.7110 C   0  0  0  0  0  1  0  0  0  0  0  0
    8.0200   59.5640  -14.2820 C   0  0  0  0  0  2  0  0  0  0  0  0
    8.6540   58.2810  -14.6170 C   0  0  0  0  0  0  0  0  0  0  0  0
    9.4740   57.7650  -13.8420 O   0  0  0  0  0  0  0  0  0  0  0  0
    8.3270   57.6340  -15.8240 N   0  0  0  0  0  0  0  0  0  0  0  0
    8.0990   56.6170  -15.7920 H   0  0  0  0  0  0  0  0  0  0  0  0
    8.2960   58.1050  -16.7600 H   0  0  0  0  0  0  0  0  0  0  0  0
  2  3  1  0  0  0  0
  2  1  1  0  0  0  0
  4  3  2  0  0  0  0
  5  4  1  0  0  0  0
  6  5  2  0  0  0  0
  6  7  1  0  0  0  0
  7  2  2  0  0  0  0
  8  9  1  0  0  0  0
  8  5  1  0  0  0  0
 10  9  2  0  0  0  0
 11  9  1  6  0  0  0
 11  4  1  0  0  0  0
 11 12  1  0  0  0  0
 12 13  1  0  0  0  0
 12 17  1  0  0  0  0
 13 32  1  6  0  0  0
 14 13  1  0  0  0  0
 15 11  1  0  0  0  0
 15 14  1  0  0  0  0
 15 18  1  1  0  0  0
 16  8  1  0  0  0  0
 18 20  1  0  0  0  0
 19 18  2  0  0  0  0
 20 21  1  0  0  0  0
 20 22  1  0  0  0  0
 22 27  1  0  0  0  0
 23 22  2  0  0  0  0
 23 24  1  0  0  0  0
 24 25  2  0  0  0  0
 25 26  1  0  0  0  0
 26 30  1  0  0  0  0
 27 26  2  0  0  0  0
 28 23  1  0  0  0  0
 29 28  1  0  0  0  0
 31 30  1  0  0  0  0
 33 32  1  0  0  0  0
 33 34  2  0  0  0  0
 35 36  1  0  0  0  0
 35 33  1  0  0  0  0
 37 35  1  0  0  0  0
M  END
>  <Pose>
1

>  <Score>
-4.752

$$$$
