/Users/jonathanwahrer/Desktop/Msc/3_Semester/Drug_Design_Praktikum/waehrer_HTS_screening/HTS_experiment/out/docking_results/vina_output/3sx0/1432_docked.pdbqt
 OpenBabel03192222343D

 21 24  0  0  0  0  0  0  0  0999 V2000
   22.3950   63.7670   -8.6610 C   0  0  0  0  0  0  0  0  0  0  0  0
   21.8720   64.3930   -7.5940 N   0  0  0  0  0  0  0  0  0  0  0  0
   22.6290   64.1840   -6.5050 N   0  0  0  0  0  0  0  0  0  0  0  0
   23.6590   63.4070   -6.8860 C   0  0  0  0  0  0  0  0  0  0  0  0
   23.5080   63.1580   -8.2000 N   0  0  0  0  0  0  0  0  0  0  0  0
   24.5870   63.0530   -5.9250 C   0  0  0  0  0  0  0  0  0  0  0  0
   24.4810   63.4700   -4.6110 C   0  0  0  0  0  0  0  0  0  0  0  0
   25.5110   62.9860   -3.8830 N   0  0  0  0  0  0  0  0  0  0  0  0
   26.2470   62.2810   -4.7220 N   0  0  0  0  0  0  0  0  0  0  0  0
   25.7310   62.2910   -5.9640 C   0  0  0  0  0  3  0  0  0  0  0  0
   25.7370   63.2150   -2.4580 C   0  0  0  0  0  1  0  0  0  0  0  0
   23.4270   64.2440   -4.3020 N   0  0  0  0  0  0  0  0  0  0  0  0
   22.5190   64.5950   -5.2270 C   0  0  0  0  0  3  0  0  0  0  0  0
   21.8860   63.7300  -10.0600 C   0  0  0  0  0  2  0  0  0  0  0  0
   20.4720   63.3960  -10.1090 N   0  0  0  0  0  0  0  0  0  0  0  0
   19.4440   64.2540  -10.2610 C   0  0  0  0  0  3  0  0  0  0  0  0
   18.2580   63.5230  -10.2550 C   0  0  0  0  0  0  0  0  0  0  0  0
   16.4750   64.1730  -10.4300 Br  0  0  0  0  0  0  0  0  0  0  0  0
   18.6250   62.2040  -10.0960 C   0  0  0  0  0  0  0  0  0  0  0  0
   19.9690   62.1650  -10.0110 N   0  0  0  0  0  0  0  0  0  0  0  0
   17.6560   61.0840  -10.0370 C   0  0  0  0  0  1  0  0  0  0  0  0
  1  5  1  0  0  0  0
  1  2  2  0  0  0  0
  2  3  1  0  0  0  0
  3 13  1  0  0  0  0
  4  3  1  0  0  0  0
  4  6  1  0  0  0  0
  5  4  2  0  0  0  0
  6  7  2  0  0  0  0
  7 12  1  0  0  0  0
  7  8  1  0  0  0  0
  8 11  1  0  0  0  0
  9  8  1  0  0  0  0
 10  6  1  0  0  0  0
 10  9  2  0  0  0  0
 13 12  2  0  0  0  0
 14  1  1  0  0  0  0
 15 14  1  0  0  0  0
 15 20  1  0  0  0  0
 16 17  2  0  0  0  0
 16 15  1  0  0  0  0
 17 19  1  0  0  0  0
 18 17  1  0  0  0  0
 19 21  1  0  0  0  0
 19 20  2  0  0  0  0
M  END
>  <Pose>
1

>  <Score>
-7.528

$$$$
