/Users/jonathanwahrer/Desktop/Msc/3_Semester/Drug_Design_Praktikum/waehrer_HTS_screening/HTS_experiment/out/docking_results/vina_output/3sx0/1433_docked.pdbqt
 OpenBabel03192222343D

 28 31  0  0  1  0  0  0  0  0999 V2000
   15.8700   65.7340  -10.2400 Br  0  0  0  0  0  0  0  0  0  0  0  0
   16.5050   63.9480  -10.2910 C   0  0  0  0  0  0  0  0  0  0  0  0
   17.8650   63.6910  -10.0910 C   0  0  0  0  0  0  0  0  0  0  0  0
   18.3590   62.4090  -10.1090 C   0  0  0  0  0  0  0  0  0  0  0  0
   17.4670   61.3870  -10.3320 C   0  0  0  0  0  3  0  0  0  0  0  0
   16.1070   61.6150  -10.5340 C   0  0  0  0  0  0  0  0  0  0  0  0
   15.6180   62.9250  -10.5100 C   0  0  0  0  0  0  0  0  0  0  0  0
   14.1660   63.1800  -10.7190 C   0  0  0  0  0  1  0  0  0  0  0  0
   15.1860   60.4770  -10.7930 C   0  0  0  0  0  1  0  0  0  0  0  0
   19.7830   62.0400   -9.8680 C   0  0  2  0  0  3  0  0  0  0  0  0
   20.7270   63.2030   -9.8170 C   0  0  2  0  0  0  0  0  0  0  0  0
   20.0800   64.3880  -10.5110 C   0  0  0  0  0  2  0  0  0  0  0  0
   18.8110   64.6830   -9.8720 O   0  0  0  0  0  0  0  0  0  0  0  0
   21.8880   62.8190  -10.5910 N   0  0  0  0  0  0  0  0  0  0  0  0
   23.1140   62.9190   -9.8720 C   0  0  0  0  0  2  0  0  0  0  0  0
   24.3590   62.9200  -10.7120 C   0  0  0  0  0  2  0  0  0  0  0  0
   24.2590   63.5840  -11.9050 O   0  0  0  0  0  0  0  0  0  0  0  0
   23.2080   63.0080  -12.6300 C   0  0  0  0  0  2  0  0  0  0  0  0
   21.9410   63.4720  -11.8650 C   0  0  0  0  0  2  0  0  0  0  0  0
   21.0700   63.7040   -8.4660 C   0  0  0  0  0  2  0  0  0  0  0  0
   21.6370   64.9490   -8.2190 N   0  0  0  0  0  0  0  0  0  0  0  0
   21.0440   65.5280   -6.9650 C   0  0  0  0  0  2  0  0  0  0  0  0
   21.2040   64.6010   -5.8170 C   0  0  0  0  0  2  0  0  0  0  0  0
   22.3270   63.8190   -5.8570 O   0  0  0  0  0  0  0  0  0  0  0  0
   23.3720   64.3070   -6.5850 C   0  0  0  0  0  2  0  0  0  0  0  0
   23.0400   65.0240   -7.8530 C   0  0  0  0  0  2  0  0  0  0  0  0
   20.1640   61.1470  -10.9170 O   0  0  0  0  0  0  0  0  0  0  0  0
   21.1520   61.1250  -10.9270 H   0  0  0  0  0  0  0  0  0  0  0  0
  2  1  1  0  0  0  0
  2  3  1  0  0  0  0
  3 13  1  0  0  0  0
  4  3  2  0  0  0  0
  4 10  1  0  0  0  0
  5  4  1  0  0  0  0
  6  7  1  0  0  0  0
  6  5  2  0  0  0  0
  7  2  2  0  0  0  0
  8  7  1  0  0  0  0
  9  6  1  0  0  0  0
 10 27  1  6  0  0  0
 10 11  1  0  0  0  0
 11 20  1  1  0  0  0
 12 13  1  0  0  0  0
 12 11  1  0  0  0  0
 14 15  1  0  0  0  0
 14 11  1  0  0  0  0
 16 15  1  0  0  0  0
 17 16  1  0  0  0  0
 18 17  1  0  0  0  0
 18 19  1  0  0  0  0
 19 14  1  0  0  0  0
 20 21  1  0  0  0  0
 21 26  1  0  0  0  0
 21 22  1  0  0  0  0
 22 23  1  0  0  0  0
 24 23  1  0  0  0  0
 25 24  1  0  0  0  0
 26 25  1  0  0  0  0
 28 27  1  0  0  0  0
M  END
>  <Pose>
1

>  <Score>
-6.011

$$$$
