/Users/jonathanwahrer/Desktop/Msc/3_Semester/Drug_Design_Praktikum/waehrer_HTS_screening/HTS_experiment/out/docking_results/vina_output/3sx0/1434_docked.pdbqt
 OpenBabel03192222343D

 28 31  0  0  1  0  0  0  0  0999 V2000
   21.2570   63.2440   -8.9420 C   0  0  0  0  0  0  0  0  0  0  0  0
   22.0420   63.2440  -10.0130 O   0  0  0  0  0  0  0  0  0  0  0  0
   21.5520   64.2330   -8.0160 N   0  0  0  0  0  0  0  0  0  0  0  0
   20.9090   64.4950   -6.7780 C   0  0  0  0  0  2  0  0  0  0  0  0
   21.8240   64.0900   -5.6220 C   0  0  0  0  0  2  0  0  0  0  0  0
   23.2740   64.3070   -6.0200 C   0  0  1  0  0  0  0  0  0  0  0  0
   23.9560   64.7180   -4.8040 N   0  0  0  0  0  0  0  0  0  0  0  0
   24.4100   63.5070   -4.1650 C   0  0  0  0  0  0  0  0  0  0  0  0
   24.7530   63.3910   -2.9620 O   0  0  0  0  0  0  0  0  0  0  0  0
   24.3920   62.4680   -5.1620 N   0  0  0  0  0  0  0  0  0  0  0  0
   23.9370   63.0370   -6.3830 C   0  0  0  0  0  0  0  0  0  0  0  0
   24.0880   62.5300   -7.5180 O   0  0  0  0  0  0  0  0  0  0  0  0
   23.4370   65.3880   -7.0420 C   0  0  0  0  0  2  0  0  0  0  0  0
   22.6790   65.1520   -8.3080 C   0  0  0  0  0  2  0  0  0  0  0  0
   24.0970   65.6880   -4.4520 H   0  0  0  0  0  0  0  0  0  0  0  0
   24.6640   61.4860   -5.0110 H   0  0  0  0  0  0  0  0  0  0  0  0
   20.2660   62.1880   -9.0010 C   0  0  0  0  0  2  0  0  0  0  0  0
   19.0070   62.4300   -9.6150 N   0  0  0  0  0  0  0  0  0  0  0  0
   18.0740   61.4530   -9.8170 C   0  0  0  0  0  0  0  0  0  0  0  0
   16.9670   62.0050  -10.4070 C   0  0  0  0  0  0  0  0  0  0  0  0
   18.0890   60.0870   -9.5330 C   0  0  0  0  0  3  0  0  0  0  0  0
   17.2290   63.3430  -10.5680 C   0  0  0  0  0  0  0  0  0  0  0  0
   15.8770   61.2040  -10.7140 C   0  0  0  0  0  3  0  0  0  0  0  0
   15.9830   64.5620  -11.3530 Br  0  0  0  0  0  0  0  0  0  0  0  0
   18.4810   63.5880  -10.0780 C   0  0  0  0  0  0  0  0  0  0  0  0
   19.1620   64.9030  -10.0500 C   0  0  0  0  0  1  0  0  0  0  0  0
   15.9000   59.8580  -10.4300 C   0  0  0  0  0  3  0  0  0  0  0  0
   16.9950   59.2890   -9.8420 C   0  0  0  0  0  3  0  0  0  0  0  0
  1  3  1  0  0  0  0
  2  1  2  0  0  0  0
  3  4  1  0  0  0  0
  4  5  1  0  0  0  0
  6 13  1  6  0  0  0
  6  5  1  0  0  0  0
  6  7  1  0  0  0  0
  7 15  1  0  0  0  0
  7  8  1  0  0  0  0
  8  9  2  0  0  0  0
 10 16  1  0  0  0  0
 10  8  1  0  0  0  0
 11  6  1  0  0  0  0
 11 10  1  0  0  0  0
 12 11  2  0  0  0  0
 14  3  1  0  0  0  0
 14 13  1  0  0  0  0
 17  1  1  0  0  0  0
 18 17  1  0  0  0  0
 19 18  1  0  0  0  0
 19 21  1  0  0  0  0
 20 19  2  0  0  0  0
 22 20  1  0  0  0  0
 22 25  2  0  0  0  0
 23 27  2  0  0  0  0
 23 20  1  0  0  0  0
 24 22  1  0  0  0  0
 25 26  1  0  0  0  0
 25 18  1  0  0  0  0
 27 28  1  0  0  0  0
 28 21  2  0  0  0  0
M  END
>  <Pose>
1

>  <Score>
-8.055

$$$$
