/Users/jonathanwahrer/Desktop/Msc/3_Semester/Drug_Design_Praktikum/waehrer_HTS_screening/HTS_experiment/out/docking_results/vina_output/3sx0/1435_docked.pdbqt
 OpenBabel03192222343D

 32 35  0  0  0  0  0  0  0  0999 V2000
   18.9810   63.2860  -10.2390 C   0  0  0  0  0  2  0  0  0  0  0  0
   17.7430   62.9990   -9.4000 C   0  0  0  0  0  2  0  0  0  0  0  0
   16.6680   62.4740  -10.2080 N   0  0  0  0  0  0  0  0  0  0  0  0
   16.3550   61.1820  -10.4720 C   0  0  0  0  0  0  0  0  0  0  0  0
   17.3460   59.7040   -9.7780 Br  0  0  0  0  0  0  0  0  0  0  0  0
   15.2760   61.1140  -11.2730 N   0  0  0  0  0  0  0  0  0  0  0  0
   14.8620   62.3740  -11.5460 C   0  0  0  0  0  0  0  0  0  0  0  0
   15.7420   63.1980  -10.8750 C   0  0  0  0  0  0  0  0  0  0  0  0
   13.8400   62.8520  -12.2910 N   0  0  0  0  0  0  0  0  0  0  0  0
   15.5550   64.5660  -10.9780 C   0  0  0  0  0  0  0  0  0  0  0  0
   14.5380   65.0310  -11.7190 N   0  0  0  0  0  0  0  0  0  0  0  0
   16.3600   65.3000  -10.3640 O   0  0  0  0  0  0  0  0  0  0  0  0
   13.6910   64.1870  -12.3680 C   0  0  0  0  0  0  0  0  0  0  0  0
   14.3900   66.0640  -11.8020 H   0  0  0  0  0  0  0  0  0  0  0  0
   12.7620   64.7050  -13.0420 O   0  0  0  0  0  0  0  0  0  0  0  0
   12.9250   61.9700  -12.9910 C   0  0  0  0  0  1  0  0  0  0  0  0
   20.2390   63.0320   -9.4520 C   0  0  0  0  0  2  0  0  0  0  0  0
   21.1400   64.2210   -9.3050 C   0  0  0  0  0  2  0  0  0  0  0  0
   22.3140   63.8710   -8.5770 N   0  0  0  0  0  0  0  0  0  0  0  0
   22.5870   63.9470   -7.2760 C   0  0  0  0  0  0  0  0  0  0  0  0
   23.8650   63.4430   -7.0570 C   0  0  0  0  0  0  0  0  0  0  0  0
   21.9010   64.4030   -6.1810 C   0  0  0  0  0  0  0  0  0  0  0  0
   24.3190   63.0790   -8.2530 N   0  0  0  0  0  0  0  0  0  0  0  0
   24.3860   63.4090   -5.8280 N   0  0  0  0  0  0  0  0  0  0  0  0
   23.3990   63.3300   -9.1860 C   0  0  0  0  0  0  0  0  0  0  0  0
   23.6300   62.9650  -11.0430 Br  0  0  0  0  0  0  0  0  0  0  0  0
   23.6900   63.8630   -4.7670 C   0  0  0  0  0  0  0  0  0  0  0  0
   25.7230   62.8860   -5.5700 C   0  0  0  0  0  1  0  0  0  0  0  0
   24.1870   63.8280   -3.6140 O   0  0  0  0  0  0  0  0  0  0  0  0
   22.4610   64.3510   -4.9640 N   0  0  0  0  0  0  0  0  0  0  0  0
   21.8790   64.7180   -4.1570 H   0  0  0  0  0  0  0  0  0  0  0  0
   20.7540   64.8640   -6.3450 O   0  0  0  0  0  0  0  0  0  0  0  0
  1 17  1  0  0  0  0
  1  2  1  0  0  0  0
  3  2  1  0  0  0  0
  4  3  1  0  0  0  0
  4  5  1  0  0  0  0
  6  4  2  0  0  0  0
  7  6  1  0  0  0  0
  7  8  2  0  0  0  0
  8  3  1  0  0  0  0
  9  7  1  0  0  0  0
 10  8  1  0  0  0  0
 10 12  2  0  0  0  0
 11 10  1  0  0  0  0
 13  9  1  0  0  0  0
 13 11  1  0  0  0  0
 14 11  1  0  0  0  0
 15 13  2  0  0  0  0
 16  9  1  0  0  0  0
 17 18  1  0  0  0  0
 18 19  1  0  0  0  0
 19 20  1  0  0  0  0
 20 21  2  0  0  0  0
 20 22  1  0  0  0  0
 21 24  1  0  0  0  0
 22 30  1  0  0  0  0
 23 21  1  0  0  0  0
 24 28  1  0  0  0  0
 24 27  1  0  0  0  0
 25 19  1  0  0  0  0
 25 23  2  0  0  0  0
 26 25  1  0  0  0  0
 27 29  2  0  0  0  0
 30 27  1  0  0  0  0
 30 31  1  0  0  0  0
 32 22  2  0  0  0  0
M  END
>  <Pose>
1

>  <Score>
-7.588

$$$$
