/Users/jonathanwahrer/Desktop/Msc/3_Semester/Drug_Design_Praktikum/waehrer_HTS_screening/HTS_experiment/out/docking_results/vina_output/3sx0/1436_docked.pdbqt
 OpenBabel03192222353D

 33 36  0  0  0  0  0  0  0  0999 V2000
   19.9580   63.0580  -10.5670 O   0  0  0  0  0  0  0  0  0  0  0  0
   20.0390   63.8250   -9.4520 C   0  0  0  0  0  2  0  0  0  0  0  0
   21.2010   64.6840   -9.1690 C   0  0  0  0  0  2  0  0  0  0  0  0
   22.3670   64.0870   -8.6110 N   0  0  0  0  0  0  0  0  0  0  0  0
   23.3910   63.4550   -9.1820 C   0  0  0  0  0  0  0  0  0  0  0  0
   23.6080   63.0350  -11.0340 Br  0  0  0  0  0  0  0  0  0  0  0  0
   24.3090   63.0720   -8.2640 N   0  0  0  0  0  0  0  0  0  0  0  0
   23.8470   63.4720   -7.0870 C   0  0  0  0  0  0  0  0  0  0  0  0
   22.6380   64.1050   -7.2770 C   0  0  0  0  0  0  0  0  0  0  0  0
   24.3410   63.3550   -5.8230 N   0  0  0  0  0  0  0  0  0  0  0  0
   21.9140   64.6230   -6.2210 C   0  0  0  0  0  0  0  0  0  0  0  0
   22.4610   64.4740   -4.9810 N   0  0  0  0  0  0  0  0  0  0  0  0
   20.8090   65.2010   -6.3730 O   0  0  0  0  0  0  0  0  0  0  0  0
   23.6400   63.8560   -4.8080 C   0  0  0  0  0  0  0  0  0  0  0  0
   21.9230   64.8610   -4.1770 H   0  0  0  0  0  0  0  0  0  0  0  0
   24.1240   63.7330   -3.6460 O   0  0  0  0  0  0  0  0  0  0  0  0
   25.6080   62.6970   -5.5820 C   0  0  0  0  0  1  0  0  0  0  0  0
   19.2220   61.9070  -10.3380 C   0  0  0  0  0  2  0  0  0  0  0  0
   18.0010   62.2540   -9.5390 C   0  0  0  0  0  2  0  0  0  0  0  0
   16.7950   61.9520  -10.2420 N   0  0  0  0  0  0  0  0  0  0  0  0
   16.0020   62.8400  -10.8570 C   0  0  0  0  0  0  0  0  0  0  0  0
   14.9570   62.1590  -11.3980 C   0  0  0  0  0  0  0  0  0  0  0  0
   16.0830   64.2100  -11.0110 C   0  0  0  0  0  0  0  0  0  0  0  0
   15.1380   60.8750  -11.1000 N   0  0  0  0  0  0  0  0  0  0  0  0
   14.0040   62.8180  -12.0810 N   0  0  0  0  0  0  0  0  0  0  0  0
   16.2630   60.7080  -10.3870 C   0  0  0  0  0  0  0  0  0  0  0  0
   17.0250   59.1140   -9.6880 Br  0  0  0  0  0  0  0  0  0  0  0  0
   14.1010   64.1380  -12.2170 C   0  0  0  0  0  0  0  0  0  0  0  0
   12.8840   62.1090  -12.6640 C   0  0  0  0  0  1  0  0  0  0  0  0
   13.2020   64.7420  -12.8600 O   0  0  0  0  0  0  0  0  0  0  0  0
   15.1130   64.8210  -11.6970 N   0  0  0  0  0  0  0  0  0  0  0  0
   15.1720   65.8560  -11.8150 H   0  0  0  0  0  0  0  0  0  0  0  0
   17.0360   64.9010  -10.5280 O   0  0  0  0  0  0  0  0  0  0  0  0
  1 18  1  0  0  0  0
  1  2  1  0  0  0  0
  2  3  1  0  0  0  0
  3  4  1  0  0  0  0
  4  9  1  0  0  0  0
  5  4  1  0  0  0  0
  5  7  2  0  0  0  0
  6  5  1  0  0  0  0
  7  8  1  0  0  0  0
  8 10  1  0  0  0  0
  9  8  2  0  0  0  0
  9 11  1  0  0  0  0
 10 17  1  0  0  0  0
 10 14  1  0  0  0  0
 11 12  1  0  0  0  0
 12 14  1  0  0  0  0
 12 15  1  0  0  0  0
 13 11  2  0  0  0  0
 14 16  2  0  0  0  0
 18 19  1  0  0  0  0
 20 19  1  0  0  0  0
 21 20  1  0  0  0  0
 22 24  1  0  0  0  0
 22 21  2  0  0  0  0
 23 21  1  0  0  0  0
 23 33  2  0  0  0  0
 24 26  2  0  0  0  0
 25 22  1  0  0  0  0
 26 20  1  0  0  0  0
 26 27  1  0  0  0  0
 28 25  1  0  0  0  0
 28 31  1  0  0  0  0
 29 25  1  0  0  0  0
 30 28  2  0  0  0  0
 31 23  1  0  0  0  0
 32 31  1  0  0  0  0
M  END
>  <Pose>
1

>  <Score>
-7.675

$$$$
