/Users/jonathanwahrer/Desktop/Msc/3_Semester/Drug_Design_Praktikum/waehrer_HTS_screening/HTS_experiment/out/docking_results/vina_output/3sx0/1471_docked.pdbqt
 OpenBabel03192222363D

 31 34  0  0  0  0  0  0  0  0999 V2000
   22.8240   64.2970   -8.0700 C   0  0  0  0  0  0  0  0  0  0  0  0
   22.2360   65.5210   -7.9100 C   0  0  0  0  0  2  0  0  0  0  0  0
   22.2200   66.2190   -6.7330 N   0  0  0  0  0  0  0  0  0  0  0  0
   22.8180   65.6610   -5.6860 C   0  0  0  0  0  3  0  0  0  0  0  0
   23.4340   64.4390   -5.7480 C   0  0  0  0  0  0  0  0  0  0  0  0
   23.4420   63.7130   -7.0040 C   0  0  0  0  0  0  0  0  0  0  0  0
   24.1080   62.5670   -6.7670 N   0  0  0  0  0  2  0  0  0  0  0  0
   24.5010   62.5260   -5.5050 N   0  0  0  0  0  0  0  0  0  0  0  0
   24.1170   63.6320   -4.8560 C   0  0  0  0  0  0  0  0  0  0  0  0
   24.3050   63.9600   -3.6440 O   0  0  0  0  0  0  0  0  0  0  0  0
   25.0440   61.7580   -5.0200 H   0  0  0  0  0  0  0  0  0  0  0  0
   22.7950   63.6230   -9.3580 C   0  0  0  0  0  0  0  0  0  0  0  0
   21.8420   63.9370  -10.3510 N   0  0  0  0  0  0  0  0  0  0  0  0
   21.7870   63.2900  -11.6350 C   0  0  0  0  0  2  0  0  0  0  0  0
   20.8660   64.9610  -10.0790 C   0  0  0  0  0  2  0  0  0  0  0  0
   20.3430   62.9890  -11.9480 C   0  0  0  0  0  2  0  0  0  0  0  0
   19.4800   63.0830  -10.8010 N   0  0  0  0  0  0  0  0  0  0  0  0
   19.5300   64.2310   -9.8830 C   0  0  0  0  0  2  0  0  0  0  0  0
   23.6730   62.7310   -9.5500 O   0  0  0  0  0  0  0  0  0  0  0  0
   18.5420   62.0770  -10.5010 C   0  0  0  0  0  0  0  0  0  0  0  0
   17.1990   62.2280  -10.7690 C   0  0  0  0  0  0  0  0  0  0  0  0
   16.6250   63.7260  -11.5080 Cl  0  0  0  0  0  0  0  0  0  0  0  0
   16.2900   61.2350  -10.4690 C   0  0  0  0  0  3  0  0  0  0  0  0
   16.7320   60.0690   -9.8940 C   0  0  0  0  0  3  0  0  0  0  0  0
   18.0870   59.8760   -9.6070 C   0  0  0  0  0  3  0  0  0  0  0  0
   18.9580   60.9060   -9.9280 C   0  0  0  0  0  3  0  0  0  0  0  0
   21.5320   67.4990   -6.6650 C   0  0  0  0  0  2  0  0  0  0  0  0
   22.3150   68.6260   -6.1580 C   0  0  0  0  0  2  0  0  0  0  0  0
   23.3490   69.3250   -6.9240 C   0  0  0  0  0  2  0  0  0  0  0  0
   24.4670   69.7980   -6.3490 O   0  0  0  0  0  0  0  0  0  0  0  0
   24.5540   70.1330   -5.0610 C   0  0  0  0  0  1  0  0  0  0  0  0
  1  2  1  0  0  0  0
  1  6  2  0  0  0  0
  2  3  1  0  0  0  0
  3 27  1  0  0  0  0
  3  4  1  0  0  0  0
  5  4  2  0  0  0  0
  5  9  1  0  0  0  0
  6  7  1  0  0  0  0
  6  5  1  0  0  0  0
  7  8  1  0  0  0  0
  8 11  1  0  0  0  0
  8  9  1  0  0  0  0
  9 10  2  0  0  0  0
 12  1  1  0  0  0  0
 13 15  1  0  0  0  0
 13 12  1  0  0  0  0
 14 13  1  0  0  0  0
 15 18  1  0  0  0  0
 16 14  1  0  0  0  0
 16 17  1  0  0  0  0
 17 20  1  0  0  0  0
 17 18  1  0  0  0  0
 19 12  2  0  0  0  0
 20 26  1  0  0  0  0
 21 20  2  0  0  0  0
 21 23  1  0  0  0  0
 22 21  1  0  0  0  0
 23 24  2  0  0  0  0
 24 25  1  0  0  0  0
 26 25  2  0  0  0  0
 27 28  1  0  0  0  0
 29 30  1  0  0  0  0
 29 28  1  0  0  0  0
 30 31  1  0  0  0  0
M  END
>  <Pose>
1

>  <Score>
-8.222

$$$$
