/Users/jonathanwahrer/Desktop/Msc/3_Semester/Drug_Design_Praktikum/waehrer_HTS_screening/HTS_experiment/out/docking_results/vina_output/3sx0/1487_docked.pdbqt
 OpenBabel03192222373D

 29 32  0  0  1  0  0  0  0  0999 V2000
   13.0480   64.1060  -15.0450 N   0  0  0  0  0  4  0  0  0  0  0  0
   13.6090   65.3580  -15.4870 C   0  0  0  0  0  2  0  0  0  0  0  0
   12.5830   66.2340  -16.0720 C   0  0  2  0  0  0  0  0  0  0  0  0
   11.3870   65.4430  -16.0020 N   0  0  0  0  0  0  0  0  0  0  0  0
   10.1450   65.4890  -16.7370 C   0  0  0  0  0  3  0  0  0  0  0  0
    8.9260   65.7310  -15.9070 C   0  0  0  0  0  3  0  0  0  0  0  0
    9.1330   65.6510  -14.4350 C   0  0  0  0  0  2  0  0  0  0  0  0
    9.2680   64.1600  -14.0530 C   0  0  0  0  0  2  0  0  0  0  0  0
   10.7560   63.8860  -14.1710 C   0  0  0  0  0  3  0  0  0  0  0  0
   11.6280   64.4240  -14.9920 C   0  0  0  0  0  0  0  0  0  0  0  0
   13.1400   63.3060  -15.6620 H   0  0  0  0  0  0  0  0  0  0  0  0
   12.8550   66.4240  -17.4550 O   0  0  0  0  0  0  0  0  0  0  0  0
   12.9980   67.4220  -17.5640 H   0  0  0  0  0  0  0  0  0  0  0  0
   12.4530   67.5630  -15.5260 C   0  0  0  0  0  0  0  0  0  0  0  0
   12.8880   68.7110  -16.1890 C   0  0  0  0  0  3  0  0  0  0  0  0
   12.7390   69.9900  -15.6690 C   0  0  0  0  0  0  0  0  0  0  0  0
   12.1250   70.1370  -14.4250 C   0  0  0  0  0  3  0  0  0  0  0  0
   11.6870   69.0400  -13.7430 C   0  0  0  0  0  3  0  0  0  0  0  0
   11.8550   67.7630  -14.3020 C   0  0  0  0  0  3  0  0  0  0  0  0
   13.2030   71.1090  -16.3970 N   0  0  0  0  0  0  0  0  0  0  0  0
   12.4490   71.6490  -17.2660 O   0  0  0  0  0  0  0  0  0  0  0  0
   14.4230   71.6490  -16.2290 O   0  0  0  0  0  0  0  0  0  0  0  0
   13.3850   63.7200  -13.7210 C   0  0  0  0  0  0  0  0  0  0  0  0
   14.0180   64.5600  -12.8380 C   0  0  0  0  0  3  0  0  0  0  0  0
   14.4440   64.1410  -11.5800 C   0  0  0  0  0  0  0  0  0  0  0  0
   15.2180   65.2690  -10.4770 Cl  0  0  0  0  0  0  0  0  0  0  0  0
   14.2350   62.8370  -11.1800 C   0  0  0  0  0  3  0  0  0  0  0  0
   13.6110   61.9650  -12.0320 C   0  0  0  0  0  3  0  0  0  0  0  0
   13.1940   62.4030  -13.2840 C   0  0  0  0  0  3  0  0  0  0  0  0
  1 10  1  0  0  0  0
  1 23  1  0  0  0  0
  2  1  1  0  0  0  0
  3 12  1  6  0  0  0
  3  4  1  0  0  0  0
  3 14  1  0  0  0  0
  3  2  1  0  0  0  0
  4 10  1  0  0  0  0
  5  4  1  0  0  0  0
  5  6  2  0  0  0  0
  6  7  1  0  0  0  0
  7  8  1  0  0  0  0
  9  8  1  0  0  0  0
 10  9  2  0  0  0  0
 11  1  1  0  0  0  0
 13 12  1  0  0  0  0
 14 19  1  0  0  0  0
 15 16  1  0  0  0  0
 15 14  2  0  0  0  0
 16 17  2  0  0  0  0
 17 18  1  0  0  0  0
 19 18  2  0  0  0  0
 20 22  2  0  0  0  0
 20 16  1  0  0  0  0
 21 20  2  0  0  0  0
 23 29  2  0  0  0  0
 23 24  1  0  0  0  0
 24 25  2  0  0  0  0
 25 27  1  0  0  0  0
 25 26  1  0  0  0  0
 28 27  2  0  0  0  0
 29 28  1  0  0  0  0
M  END
>  <Pose>
1

>  <Score>
-5.572

$$$$
