/Users/jonathanwahrer/Desktop/Msc/3_Semester/Drug_Design_Praktikum/waehrer_HTS_screening/HTS_experiment/out/docking_results/vina_output/3sx0/1516_docked.pdbqt
 OpenBabel03192222393D

 30 33  0  0  1  0  0  0  0  0999 V2000
   21.9400   63.5120  -10.4240 C   0  0  0  0  0  0  0  0  0  0  0  0
   22.5740   62.7630  -11.2980 O   0  0  0  0  0  0  0  0  0  0  0  0
   20.5900   63.2170  -10.3000 N   0  0  0  0  0  0  0  0  0  0  0  0
   19.7000   63.8670   -9.3960 C   0  0  0  0  0  2  0  0  0  0  0  0
   18.3980   63.0360   -9.3290 C   0  0  0  0  0  2  0  0  0  0  0  0
   17.7290   63.1810  -10.6830 C   0  0  2  0  0  0  0  0  0  0  0  0
   17.4360   64.5360  -10.9120 N   0  0  0  0  0  0  0  0  0  0  0  0
   16.2540   65.1070  -10.4260 C   0  0  0  0  0  2  0  0  0  0  0  0
   15.0310   64.2700  -10.4340 C   0  0  0  0  0  2  0  0  0  0  0  0
   15.3000   62.8240  -10.5860 C   0  0  0  0  0  0  0  0  0  0  0  0
   14.4090   61.8150  -10.6350 N   0  0  0  0  0  0  0  0  0  0  0  0
   15.0850   60.6710  -10.7790 C   0  0  0  0  0  3  0  0  0  0  0  0
   16.4050   60.9630  -10.8200 N   0  0  0  0  0  0  0  0  0  0  0  0
   16.5550   62.2950  -10.7010 C   0  0  0  0  0  0  0  0  0  0  0  0
   18.7460   62.7420  -11.7500 C   0  0  0  0  0  2  0  0  0  0  0  0
   19.9920   62.1650  -11.1380 C   0  0  0  0  0  2  0  0  0  0  0  0
   18.1570   65.1440  -11.2830 H   0  0  0  0  0  0  0  0  0  0  0  0
   17.1670   60.2690  -10.9240 H   0  0  0  0  0  0  0  0  0  0  0  0
   22.7880   64.5000   -9.7600 C   0  0  0  0  0  2  0  0  0  0  0  0
   22.6100   64.7020   -8.4170 N   0  0  0  0  0  0  0  0  0  0  0  0
   22.4330   64.9030   -7.0880 C   0  0  0  0  0  0  0  0  0  0  0  0
   21.6040   65.6720   -6.5360 O   0  0  0  0  0  0  0  0  0  0  0  0
   21.6570   65.6510   -8.7110 H   0  0  0  0  0  0  0  0  0  0  0  0
   23.3100   64.1370   -6.1430 C   0  0  0  0  0  0  0  0  0  0  0  0
   23.0540   64.2080   -4.8050 C   0  0  0  0  0  3  0  0  0  0  0  0
   23.8630   63.4990   -3.9120 C   0  0  0  0  0  3  0  0  0  0  0  0
   24.8930   62.7520   -4.4100 C   0  0  0  0  0  0  0  0  0  0  0  0
   25.9110   61.8660   -3.2830 Cl  0  0  0  0  0  0  0  0  0  0  0  0
   25.1500   62.6810   -5.7480 C   0  0  0  0  0  3  0  0  0  0  0  0
   24.3290   63.3990   -6.6410 C   0  0  0  0  0  3  0  0  0  0  0  0
  1  3  1  0  0  0  0
  1 19  1  0  0  0  0
  2  1  2  0  0  0  0
  3  4  1  0  0  0  0
  4  5  1  0  0  0  0
  6 15  1  6  0  0  0
  6  5  1  0  0  0  0
  7  6  1  0  0  0  0
  7  8  1  0  0  0  0
  9  8  1  0  0  0  0
 10  9  1  0  0  0  0
 11 10  1  0  0  0  0
 12 11  2  0  0  0  0
 13 12  1  0  0  0  0
 13 14  1  0  0  0  0
 14  6  1  0  0  0  0
 14 10  2  0  0  0  0
 15 16  1  0  0  0  0
 16  3  1  0  0  0  0
 17  7  1  0  0  0  0
 18 13  1  0  0  0  0
 19 20  1  0  0  0  0
 20 21  1  0  0  0  0
 21 22  2  0  0  0  0
 21 24  1  0  0  0  0
 23 20  1  0  0  0  0
 24 25  1  0  0  0  0
 25 26  2  0  0  0  0
 27 26  1  0  0  0  0
 27 28  1  0  0  0  0
 29 27  2  0  0  0  0
 30 24  2  0  0  0  0
 30 29  1  0  0  0  0
M  END
>  <Pose>
1

>  <Score>
-9.421

$$$$
