/Users/jonathanwahrer/Desktop/Msc/3_Semester/Drug_Design_Praktikum/waehrer_HTS_screening/HTS_experiment/out/docking_results/vina_output/3sx0/1518_docked.pdbqt
 OpenBabel03192222393D

 31 34  0  0  1  0  0  0  0  0999 V2000
   21.3130   63.9650  -10.0170 C   0  0  0  0  0  0  0  0  0  0  0  0
   21.6280   64.9240   -9.2720 O   0  0  0  0  0  0  0  0  0  0  0  0
   19.9560   63.7230  -10.3370 N   0  0  0  0  0  0  0  0  0  0  0  0
   19.5290   62.6330  -11.1900 C   0  0  0  0  0  2  0  0  0  0  0  0
   18.2940   63.0970  -11.9490 C   0  0  0  0  0  2  0  0  0  0  0  0
   17.1470   63.3740  -10.9780 C   0  0  1  0  0  0  0  0  0  0  0  0
   16.4020   64.4730  -11.5210 N   0  0  0  0  0  0  0  0  0  0  0  0
   15.0570   64.5330  -10.9900 C   0  0  0  0  0  2  0  0  0  0  0  0
   14.2530   63.3720  -11.5710 C   0  0  0  0  0  2  0  0  0  0  0  0
   14.9470   62.1260  -11.1350 C   0  0  0  0  0  0  0  0  0  0  0  0
   14.4880   60.8550  -10.9290 N   0  0  0  0  0  0  0  0  0  0  0  0
   15.5290   60.0990  -10.5370 C   0  0  0  0  0  3  0  0  0  0  0  0
   16.6200   60.8860  -10.4980 N   0  0  0  0  0  0  0  0  0  0  0  0
   16.2960   62.1600  -10.8660 C   0  0  0  0  0  0  0  0  0  0  0  0
   17.6800   63.7620   -9.6150 C   0  0  0  0  0  2  0  0  0  0  0  0
   18.9190   64.5860   -9.8050 C   0  0  0  0  0  2  0  0  0  0  0  0
   16.8870   65.3790  -11.3730 H   0  0  0  0  0  0  0  0  0  0  0  0
   13.4850   60.6010  -11.0750 H   0  0  0  0  0  0  0  0  0  0  0  0
   22.3950   63.1040  -10.5430 C   0  0  0  0  0  2  0  0  0  0  0  0
   23.7450   63.4860  -10.0240 C   0  0  0  0  0  2  0  0  0  0  0  0
   23.8460   63.1280   -8.6220 N   0  0  0  0  0  0  0  0  0  0  0  0
   24.0430   64.0510   -7.5950 C   0  0  0  0  0  0  0  0  0  0  0  0
   24.1440   65.2760   -7.8590 O   0  0  0  0  0  0  0  0  0  0  0  0
   23.7580   62.1040   -8.4180 H   0  0  0  0  0  0  0  0  0  0  0  0
   24.1420   63.6550   -6.1920 C   0  0  0  0  0  0  0  0  0  0  0  0
   23.3100   64.1720   -5.2230 C   0  0  0  0  0  3  0  0  0  0  0  0
   23.4530   63.7570   -3.9070 C   0  0  0  0  0  3  0  0  0  0  0  0
   24.4170   62.8310   -3.5360 C   0  0  0  0  0  0  0  0  0  0  0  0
   24.5280   62.3640   -1.8510 Cl  0  0  0  0  0  0  0  0  0  0  0  0
   25.2550   62.3080   -4.4980 C   0  0  0  0  0  3  0  0  0  0  0  0
   25.1010   62.7260   -5.7910 C   0  0  0  0  0  3  0  0  0  0  0  0
  1  2  2  0  0  0  0
  3  1  1  0  0  0  0
  3 16  1  0  0  0  0
  4  3  1  0  0  0  0
  5  4  1  0  0  0  0
  6  5  1  6  0  0  0
  6 14  1  0  0  0  0
  6 15  1  0  0  0  0
  7 17  1  0  0  0  0
  7  8  1  0  0  0  0
  7  6  1  0  0  0  0
  9 10  1  0  0  0  0
  9  8  1  0  0  0  0
 10 11  1  0  0  0  0
 10 14  2  0  0  0  0
 11 12  1  0  0  0  0
 12 13  2  0  0  0  0
 14 13  1  0  0  0  0
 16 15  1  0  0  0  0
 18 11  1  0  0  0  0
 19 20  1  0  0  0  0
 19  1  1  0  0  0  0
 20 21  1  0  0  0  0
 21 24  1  0  0  0  0
 21 22  1  0  0  0  0
 22 25  1  0  0  0  0
 23 22  2  0  0  0  0
 25 31  2  0  0  0  0
 25 26  1  0  0  0  0
 26 27  2  0  0  0  0
 27 28  1  0  0  0  0
 28 29  1  0  0  0  0
 30 28  2  0  0  0  0
 31 30  1  0  0  0  0
M  END
>  <Pose>
1

>  <Score>
-8.167

$$$$
