/Users/jonathanwahrer/Desktop/Msc/3_Semester/Drug_Design_Praktikum/waehrer_HTS_screening/HTS_experiment/out/docking_results/vina_output/3sx0/1521_docked.pdbqt
 OpenBabel03192222393D

 24 27  0  0  1  0  0  0  0  0999 V2000
   18.9560   63.3920  -11.5650 Cl  0  0  0  0  0  0  0  0  0  0  0  0
   20.6880   63.4330  -11.3070 C   0  0  0  0  0  0  0  0  0  0  0  0
   21.1800   63.8180  -10.0830 C   0  0  0  0  0  0  0  0  0  0  0  0
   20.6240   64.2090   -8.9240 N   0  0  0  0  0  0  0  0  0  0  0  0
   21.5590   64.4860   -7.9960 C   0  0  0  0  0  0  0  0  0  0  0  0
   22.7700   64.2550   -8.6130 C   0  0  0  0  0  0  0  0  0  0  0  0
   22.5530   63.8410   -9.9090 C   0  0  0  0  0  0  0  0  0  0  0  0
   23.3740   63.4790  -10.9580 C   0  0  0  0  0  3  0  0  0  0  0  0
   22.9080   63.0910  -12.1900 C   0  0  0  0  0  3  0  0  0  0  0  0
   21.5280   63.0700  -12.3600 C   0  0  0  0  0  3  0  0  0  0  0  0
   23.9740   64.4930   -7.7780 C   0  0  0  0  0  2  0  0  0  0  0  0
   23.7310   63.7500   -6.5620 N   0  0  0  0  0  0  0  0  0  0  0  0
   22.6760   64.2440   -5.7650 C   0  0  0  0  0  2  0  0  0  0  0  0
   21.6220   64.9440   -6.5920 C   0  0  0  0  0  2  0  0  0  0  0  0
   19.5890   64.3010   -8.7190 H   0  0  0  0  0  0  0  0  0  0  0  0
   24.8790   63.2500   -5.9350 C   0  0  0  0  0  2  0  0  0  0  0  0
   24.7660   63.2100   -4.4410 C   0  0  1  0  0  0  0  0  0  0  0  0
   23.8410   62.1540   -3.9430 C   0  0  0  0  0  2  0  0  0  0  0  0
   24.5150   61.2920   -3.0340 N   0  0  0  0  0  0  0  0  0  0  0  0
   25.8830   61.6840   -2.9410 C   0  0  0  0  0  3  0  0  0  0  0  0
   24.0530   61.2180   -2.0960 H   0  0  0  0  0  0  0  0  0  0  0  0
   26.1050   62.8300   -3.8700 C   0  0  0  0  0  3  0  0  0  0  0  0
   24.4520   64.4730   -3.9250 O   0  0  0  0  0  0  0  0  0  0  0  0
   25.0570   65.1130   -4.3860 H   0  0  0  0  0  0  0  0  0  0  0  0
  1  2  1  0  0  0  0
  2  3  1  0  0  0  0
  3  7  2  0  0  0  0
  3  4  1  0  0  0  0
  4 15  1  0  0  0  0
  4  5  1  0  0  0  0
  5 14  1  0  0  0  0
  6  5  2  0  0  0  0
  6 11  1  0  0  0  0
  7  6  1  0  0  0  0
  8  7  1  0  0  0  0
  9  8  2  0  0  0  0
 10  9  1  0  0  0  0
 10  2  2  0  0  0  0
 11 12  1  0  0  0  0
 12 16  1  0  0  0  0
 12 13  1  0  0  0  0
 14 13  1  0  0  0  0
 17 16  1  6  0  0  0
 17 18  1  0  0  0  0
 17 23  1  0  0  0  0
 17 22  1  0  0  0  0
 18 19  1  0  0  0  0
 19 20  1  0  0  0  0
 19 21  1  0  0  0  0
 22 20  2  0  0  0  0
 24 23  1  0  0  0  0
M  END
>  <Pose>
1

>  <Score>
-8.632

$$$$
