/Users/jonathanwahrer/Desktop/Msc/3_Semester/Drug_Design_Praktikum/waehrer_HTS_screening/HTS_experiment/out/docking_results/vina_output/3sx0/1531_docked.pdbqt
 OpenBabel03192222393D

 27 30  0  0  0  0  0  0  0  0999 V2000
   20.8990   64.3220  -10.2500 N   0  0  0  0  0  0  0  0  0  0  0  0
   21.9830   63.6850  -10.7930 C   0  0  0  0  0  0  0  0  0  0  0  0
   22.8250   63.4510   -9.7830 N   0  0  0  0  0  0  0  0  0  0  0  0
   22.3490   63.9010   -8.6100 C   0  0  0  0  0  0  0  0  0  0  0  0
   21.1190   64.4570   -8.9140 C   0  0  0  0  0  3  0  0  0  0  0  0
   24.0220   62.7710  -10.2680 C   0  0  0  0  0  3  0  0  0  0  0  0
   23.8610   62.7040  -11.7590 C   0  0  0  0  0  3  0  0  0  0  0  0
   22.4970   63.1900  -12.0930 C   0  0  0  0  0  3  0  0  0  0  0  0
   19.7260   64.7260  -10.9480 C   0  0  0  0  0  3  0  0  0  0  0  0
   18.5700   63.8670  -11.0460 C   0  0  0  0  0  0  0  0  0  0  0  0
   17.5600   64.3910  -11.7140 O   0  0  0  0  0  1  0  0  0  0  0  0
   18.3150   62.5420  -10.5480 C   0  0  0  0  0  0  0  0  0  0  0  0
   19.2000   61.7270   -9.9100 C   0  0  0  0  0  3  0  0  0  0  0  0
   18.8920   60.4410   -9.4420 C   0  0  0  0  0  3  0  0  0  0  0  0
   17.6270   59.9370   -9.6230 C   0  0  0  0  0  0  0  0  0  0  0  0
   16.7030   60.7300  -10.2630 C   0  0  0  0  0  0  0  0  0  0  0  0
   17.2390   58.3350   -9.0420 Cl  0  0  0  0  0  0  0  0  0  0  0  0
   15.0910   60.1090  -10.5010 Cl  0  0  0  0  0  0  0  0  0  0  0  0
   17.0280   61.9700  -10.7050 C   0  0  0  0  0  3  0  0  0  0  0  0
   22.9540   63.8450   -7.2800 C   0  0  0  0  0  0  0  0  0  0  0  0
   24.0710   63.1180   -6.9590 C   0  0  0  0  0  3  0  0  0  0  0  0
   24.5940   63.1150   -5.6580 C   0  0  0  0  0  3  0  0  0  0  0  0
   24.0140   63.8380   -4.6400 C   0  0  0  0  0  0  0  0  0  0  0  0
   22.8890   64.5710   -4.9510 C   0  0  0  0  0  3  0  0  0  0  0  0
   22.3780   64.5730   -6.2330 C   0  0  0  0  0  3  0  0  0  0  0  0
   24.5200   63.8450   -3.3470 O   0  0  0  0  0  0  0  0  0  0  0  0
   25.7070   63.1380   -3.0380 C   0  0  0  0  0  1  0  0  0  0  0  0
  1  5  1  0  0  0  0
  2  1  1  0  0  0  0
  2  3  1  0  0  0  0
  3  4  1  0  0  0  0
  4 20  1  0  0  0  0
  5  4  2  0  0  0  0
  6  3  1  0  0  0  0
  7  6  2  0  0  0  0
  8  7  1  0  0  0  0
  8  2  2  0  0  0  0
  9  1  1  0  0  0  0
 10  9  2  0  0  0  0
 10 12  1  0  0  0  0
 11 10  1  0  0  0  0
 12 13  1  0  0  0  0
 13 14  2  0  0  0  0
 15 14  1  0  0  0  0
 15 17  1  0  0  0  0
 16 15  2  0  0  0  0
 18 16  1  0  0  0  0
 19 12  2  0  0  0  0
 19 16  1  0  0  0  0
 20 21  2  0  0  0  0
 20 25  1  0  0  0  0
 21 22  1  0  0  0  0
 22 23  2  0  0  0  0
 23 26  1  0  0  0  0
 24 23  1  0  0  0  0
 25 24  2  0  0  0  0
 26 27  1  0  0  0  0
M  END
>  <Pose>
1

>  <Score>
-7.816

$$$$
