/Users/jonathanwahrer/Desktop/Msc/3_Semester/Drug_Design_Praktikum/waehrer_HTS_screening/HTS_experiment/out/docking_results/vina_output/3sx0/1533_docked.pdbqt
 OpenBabel03192222403D

 28 31  0  0  1  0  0  0  0  0999 V2000
   20.2430   63.1640   -9.5310 C   0  0  0  0  0  0  0  0  0  0  0  0
   21.3490   63.3190  -10.3030 N   0  0  0  0  0  0  0  0  0  0  0  0
   22.4220   63.4630   -9.5180 C   0  0  2  0  0  3  0  0  0  0  0  0
   22.0480   63.4030   -8.2030 N   0  0  0  0  0  0  0  0  0  0  0  0
   20.7180   63.2200   -8.2280 C   0  0  0  0  0  3  0  0  0  0  0  0
   23.6490   63.6480  -10.3240 C   0  0  0  0  0  2  0  0  0  0  0  0
   23.2380   63.0520  -11.6420 C   0  0  0  0  0  2  0  0  0  0  0  0
   21.7630   63.3730  -11.7060 C   0  0  0  0  0  2  0  0  0  0  0  0
   22.8990   63.5580   -7.0590 C   0  0  0  0  0  3  0  0  0  0  0  0
   23.0770   64.8190   -6.3920 C   0  0  0  0  0  0  0  0  0  0  0  0
   23.8960   64.7460   -5.3480 O   0  0  0  0  0  1  0  0  0  0  0  0
   22.5630   66.1490   -6.6050 C   0  0  0  0  0  0  0  0  0  0  0  0
   23.3300   67.2680   -6.2100 C   0  0  0  0  0  3  0  0  0  0  0  0
   22.9280   68.5680   -6.3730 C   0  0  0  0  0  0  0  0  0  0  0  0
   21.6950   68.7640   -6.9610 C   0  0  0  0  0  3  0  0  0  0  0  0
   20.9280   67.6900   -7.3540 C   0  0  0  0  0  3  0  0  0  0  0  0
   21.3440   66.3680   -7.1860 C   0  0  0  0  0  3  0  0  0  0  0  0
   23.7120   69.6750   -5.9690 N   0  0  0  0  0  0  0  0  0  0  0  0
   23.7370   70.6880   -6.6760 O   0  0  0  0  0  0  0  0  0  0  0  0
   24.4440   69.6570   -4.8180 O   0  0  0  0  0  0  0  0  0  0  0  0
   18.8430   62.9730   -9.9100 C   0  0  0  0  0  0  0  0  0  0  0  0
   18.4070   61.6990  -10.1970 C   0  0  0  0  0  3  0  0  0  0  0  0
   17.0800   61.4440  -10.5500 C   0  0  0  0  0  3  0  0  0  0  0  0
   16.1910   62.4920  -10.6110 C   0  0  0  0  0  0  0  0  0  0  0  0
   16.6160   63.7570  -10.3280 C   0  0  0  0  0  0  0  0  0  0  0  0
   14.5190   62.1490  -11.0580 Cl  0  0  0  0  0  0  0  0  0  0  0  0
   15.4580   65.0670  -10.4150 Cl  0  0  0  0  0  0  0  0  0  0  0  0
   17.9420   63.9950   -9.9780 C   0  0  0  0  0  3  0  0  0  0  0  0
  1  5  2  0  0  0  0
  2  1  1  0  0  0  0
  2  3  1  0  0  0  0
  3  6  1  1  0  0  0
  3  4  1  0  0  0  0
  4  9  1  0  0  0  0
  5  4  1  0  0  0  0
  7  6  1  0  0  0  0
  8  7  1  0  0  0  0
  8  2  1  0  0  0  0
  9 10  2  0  0  0  0
 10 11  1  0  0  0  0
 12 10  1  0  0  0  0
 12 13  1  0  0  0  0
 14 13  2  0  0  0  0
 14 18  1  0  0  0  0
 15 14  1  0  0  0  0
 16 17  1  0  0  0  0
 16 15  2  0  0  0  0
 17 12  2  0  0  0  0
 18 20  2  0  0  0  0
 19 18  2  0  0  0  0
 21  1  1  0  0  0  0
 22 21  2  0  0  0  0
 23 22  1  0  0  0  0
 24 23  2  0  0  0  0
 24 25  1  0  0  0  0
 25 28  2  0  0  0  0
 26 24  1  0  0  0  0
 27 25  1  0  0  0  0
 28 21  1  0  0  0  0
M  END
>  <Pose>
1

>  <Score>
-10.098

$$$$
