/Users/jonathanwahrer/Desktop/Msc/3_Semester/Drug_Design_Praktikum/waehrer_HTS_screening/HTS_experiment/out/docking_results/vina_output/3sx0/1539_docked.pdbqt
 OpenBabel03192222403D

 34 37  0  0  1  0  0  0  0  0999 V2000
   21.7820   64.0840   -7.1540 C   0  0  2  0  0  3  0  0  0  0  0  0
   22.8980   63.5890   -7.9710 N   0  0  0  0  0  0  0  0  0  0  0  0
   22.6280   64.0590   -9.2840 C   0  0  0  0  0  0  0  0  0  0  0  0
   23.4600   64.3020  -10.1740 O   0  0  0  0  0  0  0  0  0  0  0  0
   21.1780   64.1970   -9.3780 C   0  0  0  0  0  0  0  0  0  0  0  0
   20.4500   64.5820  -10.3400 O   0  0  0  0  0  0  0  0  0  0  0  0
   20.6430   63.7870   -8.0710 C   0  0  0  0  0  0  0  0  0  0  0  0
   19.4380   63.3110   -7.8270 C   0  0  0  0  0  0  0  0  0  0  0  0
   19.0960   63.0160   -6.5040 O   0  0  0  0  0  1  0  0  0  0  0  0
   21.9920   65.5470   -7.0270 C   0  0  0  0  0  0  0  0  0  0  0  0
   23.1430   66.0680   -6.4760 C   0  0  0  0  0  3  0  0  0  0  0  0
   23.3630   67.4220   -6.3460 C   0  0  0  0  0  3  0  0  0  0  0  0
   22.4130   68.3320   -6.7750 C   0  0  0  0  0  0  0  0  0  0  0  0
   22.6750   70.0680   -6.6180 Cl  0  0  0  0  0  0  0  0  0  0  0  0
   21.2580   67.8360   -7.3270 C   0  0  0  0  0  3  0  0  0  0  0  0
   21.0420   66.4830   -7.4550 C   0  0  0  0  0  3  0  0  0  0  0  0
   18.4520   63.0760   -8.8710 C   0  0  0  0  0  0  0  0  0  0  0  0
   17.5470   64.0490   -9.2650 C   0  0  0  0  0  3  0  0  0  0  0  0
   16.5970   63.8130  -10.2370 C   0  0  0  0  0  0  0  0  0  0  0  0
   16.5130   62.5770  -10.8620 C   0  0  0  0  0  0  0  0  0  0  0  0
   15.6510   64.8820  -10.6250 C   0  0  0  0  0  1  0  0  0  0  0  0
   17.4060   61.6020  -10.4790 C   0  0  0  0  0  3  0  0  0  0  0  0
   18.3650   61.8520   -9.4930 C   0  0  0  0  0  3  0  0  0  0  0  0
   15.5610   62.3230  -11.8450 O   0  0  0  0  0  0  0  0  0  0  0  0
   14.2900   61.8760  -11.4620 C   0  0  0  0  0  1  0  0  0  0  0  0
   24.0370   62.7900   -7.5180 C   0  0  0  0  0  2  0  0  0  0  0  0
   24.5220   63.4230   -6.2340 C   0  0  0  0  0  2  0  0  0  0  0  0
   24.6810   62.4660   -5.1720 N   0  0  0  0  0  4  0  0  0  0  0  0
   24.1520   62.9690   -3.9460 C   0  0  0  0  0  2  0  0  0  0  0  0
   25.1360   63.5980   -3.0170 C   0  0  0  0  0  2  0  0  0  0  0  0
   26.3960   63.0630   -3.0490 O   0  0  0  0  0  0  0  0  0  0  0  0
   26.9340   63.0010   -4.3270 C   0  0  0  0  0  2  0  0  0  0  0  0
   26.0590   62.0660   -5.1210 C   0  0  0  0  0  2  0  0  0  0  0  0
   24.0890   61.6330   -5.4520 H   0  0  0  0  0  0  0  0  0  0  0  0
  1 10  1  6  0  0  0
  2 26  1  0  0  0  0
  2  1  1  0  0  0  0
  3  2  1  0  0  0  0
  4  3  2  0  0  0  0
  5  3  1  0  0  0  0
  5  7  1  0  0  0  0
  6  5  2  0  0  0  0
  7  8  2  0  0  0  0
  7  1  1  0  0  0  0
  8  9  1  0  0  0  0
 10 11  1  0  0  0  0
 11 12  2  0  0  0  0
 13 14  1  0  0  0  0
 13 12  1  0  0  0  0
 15 13  2  0  0  0  0
 16 15  1  0  0  0  0
 16 10  2  0  0  0  0
 17  8  1  0  0  0  0
 18 17  1  0  0  0  0
 19 18  2  0  0  0  0
 20 22  2  0  0  0  0
 20 19  1  0  0  0  0
 21 19  1  0  0  0  0
 22 23  1  0  0  0  0
 23 17  2  0  0  0  0
 24 25  1  0  0  0  0
 24 20  1  0  0  0  0
 26 27  1  0  0  0  0
 27 28  1  0  0  0  0
 28 33  1  0  0  0  0
 28 29  1  0  0  0  0
 29 30  1  0  0  0  0
 31 30  1  0  0  0  0
 32 31  1  0  0  0  0
 33 32  1  0  0  0  0
 34 28  1  0  0  0  0
M  END
>  <Pose>
1

>  <Score>
-6.890

$$$$
