/Users/jonathanwahrer/Desktop/Msc/3_Semester/Drug_Design_Praktikum/waehrer_HTS_screening/HTS_experiment/out/docking_results/vina_output/3sx0/1548_docked.pdbqt
 OpenBabel03192222413D

 24 27  0  0  1  0  0  0  0  0999 V2000
   10.4090   62.8390  -16.4440 Cl  0  0  0  0  0  0  0  0  0  0  0  0
   11.5660   63.5840  -15.3510 C   0  0  0  0  0  0  0  0  0  0  0  0
   12.1750   62.8790  -14.3360 C   0  0  0  0  0  2  0  0  0  0  0  0
   13.0730   63.4600  -13.4870 N   0  0  0  0  0  0  0  0  0  0  0  0
   13.4100   64.7570  -13.6040 C   0  0  0  0  0  0  0  0  0  0  0  0
   14.3020   65.3370  -12.7620 N   0  0  0  0  0  0  0  0  0  0  0  0
   14.8940   64.6390  -11.7690 C   0  0  0  0  0  0  0  0  0  0  0  0
   14.5760   63.3210  -11.6220 C   0  0  2  0  0  3  0  0  0  0  0  0
   15.2040   62.4990  -10.5380 C   0  0  0  0  0  2  0  0  0  0  0  0
   16.5070   63.1390  -10.2880 N   0  0  0  0  0  0  0  0  0  0  0  0
   16.4120   64.4940   -9.8250 C   0  0  0  0  0  2  0  0  0  0  0  0
   15.8530   65.3900  -10.9160 C   0  0  0  0  0  2  0  0  0  0  0  0
   17.6540   62.3850  -10.5210 C   0  0  0  0  0  0  0  0  0  0  0  0
   17.5220   61.1800  -10.9320 O   0  0  0  0  0  0  0  0  0  0  0  0
   13.6590   62.7590  -12.5000 C   0  0  0  0  0  0  0  0  0  0  0  0
   13.3620   61.5540  -12.3740 O   0  0  0  0  0  0  0  0  0  0  0  0
   12.8020   65.4750  -14.6230 C   0  0  0  0  0  3  0  0  0  0  0  0
   11.8920   64.9160  -15.4940 C   0  0  0  0  0  3  0  0  0  0  0  0
   19.0360   62.8460  -10.3390 C   0  0  0  0  0  0  0  0  0  0  0  0
   19.5680   63.0510   -9.1310 N   0  0  0  0  0  0  0  0  0  0  0  0
   20.8270   63.4710   -8.9740 C   0  0  0  0  0  3  0  0  0  0  0  0
   21.6510   63.7170  -10.0530 C   0  0  0  0  0  3  0  0  0  0  0  0
   21.0990   63.5040  -11.2600 N   0  0  0  0  0  0  0  0  0  0  0  0
   19.8460   63.0870  -11.4430 C   0  0  0  0  0  3  0  0  0  0  0  0
  1  2  1  0  0  0  0
  2  3  1  0  0  0  0
  3  4  1  0  0  0  0
  4 15  1  0  0  0  0
  5  4  1  0  0  0  0
  5  6  1  0  0  0  0
  6  7  2  0  0  0  0
  7  8  1  0  0  0  0
  7 12  1  0  0  0  0
  8  9  1  6  0  0  0
  9 10  1  0  0  0  0
 10 11  1  0  0  0  0
 12 11  1  0  0  0  0
 13 19  1  0  0  0  0
 13 10  1  0  0  0  0
 14 13  2  0  0  0  0
 15 16  2  0  0  0  0
 15  8  1  0  0  0  0
 17  5  2  0  0  0  0
 18  2  2  0  0  0  0
 18 17  1  0  0  0  0
 19 20  1  0  0  0  0
 20 21  2  0  0  0  0
 22 21  1  0  0  0  0
 23 22  2  0  0  0  0
 24 23  1  0  0  0  0
 24 19  2  0  0  0  0
M  END
>  <Pose>
1

>  <Score>
-6.469

$$$$
