/Users/jonathanwahrer/Desktop/Msc/3_Semester/Drug_Design_Praktikum/waehrer_HTS_screening/HTS_experiment/out/docking_results/vina_output/3sx0/1553_docked.pdbqt
 OpenBabel03192222413D

 29 32  0  0  1  0  0  0  0  0999 V2000
   21.8830   63.8010   -7.2820 C   0  0  1  0  0  3  0  0  0  0  0  0
   22.9450   63.0450   -6.7330 N   0  0  0  0  0  4  0  0  0  0  0  0
   23.8060   63.7160   -5.8030 C   0  0  2  0  0  3  0  0  0  0  0  0
   24.3470   64.9970   -6.4590 C   0  0  0  0  0  2  0  0  0  0  0  0
   23.1430   65.8260   -6.6580 C   0  0  0  0  0  0  0  0  0  0  0  0
   22.9300   67.1880   -6.5110 C   0  0  0  0  0  0  0  0  0  0  0  0
   21.6070   67.4110   -6.8220 C   0  0  0  0  0  0  0  0  0  0  0  0
   21.0200   66.2490   -7.1470 N   0  0  0  0  0  0  0  0  0  0  0  0
   21.9690   65.2610   -7.0470 C   0  0  0  0  0  0  0  0  0  0  0  0
   21.1380   68.7100   -6.7490 C   0  0  0  0  0  3  0  0  0  0  0  0
   22.0010   69.7090   -6.3740 C   0  0  0  0  0  3  0  0  0  0  0  0
   23.3230   69.4830   -6.0640 C   0  0  0  0  0  3  0  0  0  0  0  0
   23.8100   68.1790   -6.1330 C   0  0  0  0  0  3  0  0  0  0  0  0
   22.5130   62.2170   -6.2110 H   0  0  0  0  0  0  0  0  0  0  0  0
   23.5720   62.5980   -7.4480 H   0  0  0  0  0  0  0  0  0  0  0  0
   20.0240   66.0660   -7.4350 H   0  0  0  0  0  0  0  0  0  0  0  0
   21.8610   63.6060   -8.7780 C   0  0  0  0  0  0  0  0  0  0  0  0
   20.6760   63.4740   -9.4790 C   0  0  0  0  0  0  0  0  0  0  0  0
   20.6820   63.3020  -10.8670 C   0  0  0  0  0  0  0  0  0  0  0  0
   19.0340   63.1160  -11.8210 Br  0  0  0  0  0  0  0  0  0  0  0  0
   21.8570   63.2600  -11.5670 C   0  0  0  0  0  3  0  0  0  0  0  0
   23.0370   63.3920  -10.8730 C   0  0  0  0  0  0  0  0  0  0  0  0
   23.0390   63.5630   -9.4950 C   0  0  0  0  0  3  0  0  0  0  0  0
   24.7130   63.3360  -11.8210 Br  0  0  0  0  0  0  0  0  0  0  0  0
   19.4440   63.5000   -8.8800 O   0  0  0  0  0  0  0  0  0  0  0  0
   18.6540   64.0050   -9.1750 H   0  0  0  0  0  0  0  0  0  0  0  0
   24.9130   62.8200   -5.4100 C   0  0  0  0  0  0  0  0  0  0  0  0
   25.9920   62.8660   -6.0540 O   0  0  0  0  0  0  0  0  0  0  0  0
   24.7410   61.9500   -4.3460 O   0  0  0  0  0  1  0  0  0  0  0  0
  1 17  1  6  0  0  0
  1  9  1  0  0  0  0
  1  2  1  0  0  0  0
  2 14  1  0  0  0  0
  2  3  1  0  0  0  0
  3 27  1  6  0  0  0
  4  3  1  0  0  0  0
  5  6  1  0  0  0  0
  5  4  1  0  0  0  0
  6 13  1  0  0  0  0
  7 10  1  0  0  0  0
  7  6  2  0  0  0  0
  8  9  1  0  0  0  0
  8  7  1  0  0  0  0
  9  5  2  0  0  0  0
 10 11  2  0  0  0  0
 11 12  1  0  0  0  0
 13 12  2  0  0  0  0
 15  2  1  0  0  0  0
 16  8  1  0  0  0  0
 18 25  1  0  0  0  0
 18 17  1  0  0  0  0
 19 18  2  0  0  0  0
 20 19  1  0  0  0  0
 21 22  2  0  0  0  0
 21 19  1  0  0  0  0
 22 23  1  0  0  0  0
 23 17  2  0  0  0  0
 24 22  1  0  0  0  0
 26 25  1  0  0  0  0
 27 29  1  0  0  0  0
 28 27  2  0  0  0  0
M  END
>  <Pose>
1

>  <Score>
-6.391

$$$$
