/Users/jonathanwahrer/Desktop/Msc/3_Semester/Drug_Design_Praktikum/waehrer_HTS_screening/HTS_experiment/out/docking_results/vina_output/3sx0/1571_docked.pdbqt
 OpenBabel03192222413D

 28 31  0  0  1  0  0  0  0  0999 V2000
   21.2770   63.4670  -10.6840 O   0  0  0  0  0  0  0  0  0  0  0  0
   22.4610   64.0990  -10.2860 C   0  0  0  0  0  2  0  0  0  0  0  0
   22.6640   64.0690   -8.8180 C   0  0  0  0  0  0  0  0  0  0  0  0
   23.7080   63.4520   -8.2310 N   0  0  0  0  0  0  0  0  0  0  0  0
   23.8670   63.4400   -6.9060 C   0  0  0  0  0  0  0  0  0  0  0  0
   23.0020   64.0400   -6.0490 N   0  0  0  0  0  0  0  0  0  0  0  0
   24.9740   62.7800   -6.3760 C   0  0  0  0  0  3  0  0  0  0  0  0
   23.2070   64.0000   -4.7250 C   0  0  0  0  0  3  0  0  0  0  0  0
   21.9380   64.6710   -6.6090 C   0  0  0  0  0  0  0  0  0  0  0  0
   24.2870   63.3580   -4.1650 C   0  0  0  0  0  0  0  0  0  0  0  0
   24.5420   63.3260   -2.2550 Br  0  0  0  0  0  0  0  0  0  0  0  0
   25.1740   62.7450   -5.0120 C   0  0  0  0  0  3  0  0  0  0  0  0
   21.7630   64.6900   -7.9780 C   0  0  0  0  0  3  0  0  0  0  0  0
   21.1380   65.2270   -5.8050 O   0  0  0  0  0  0  0  0  0  0  0  0
   21.0190   62.9690  -11.9400 C   0  0  0  0  0  0  0  0  0  0  0  0
   21.9270   63.1470  -12.8010 O   0  0  0  0  0  0  0  0  0  0  0  0
   19.7560   62.2620  -12.2830 C   0  0  0  0  0  2  0  0  0  0  0  0
   18.7040   62.5360  -11.3030 N   0  0  0  0  0  0  0  0  0  0  0  0
   17.9130   63.7160  -11.1920 C   0  0  0  0  0  0  0  0  0  0  0  0
   17.8570   64.6550  -12.0250 O   0  0  0  0  0  0  0  0  0  0  0  0
   17.1650   63.6420   -9.9160 C   0  0  2  0  0  3  0  0  0  0  0  0
   16.9780   62.1470   -9.7960 C   0  0  1  0  0  3  0  0  0  0  0  0
   15.9210   64.4320   -9.8800 C   0  0  0  0  0  2  0  0  0  0  0  0
   15.8990   61.6120  -10.7170 C   0  0  0  0  0  2  0  0  0  0  0  0
   18.2930   61.6580  -10.2700 C   0  0  0  0  0  0  0  0  0  0  0  0
   15.1260   62.7000  -11.4150 C   0  0  0  0  0  2  0  0  0  0  0  0
   14.7140   63.7760  -10.4510 C   0  0  0  0  0  2  0  0  0  0  0  0
   18.9450   60.6520   -9.8500 O   0  0  0  0  0  0  0  0  0  0  0  0
  1  2  1  0  0  0  0
  2  3  1  0  0  0  0
  3  4  1  0  0  0  0
  3 13  2  0  0  0  0
  4  5  2  0  0  0  0
  5  7  1  0  0  0  0
  5  6  1  0  0  0  0
  6  8  1  0  0  0  0
  7 12  2  0  0  0  0
  8 10  2  0  0  0  0
  9  6  1  0  0  0  0
  9 14  2  0  0  0  0
 10 11  1  0  0  0  0
 12 10  1  0  0  0  0
 13  9  1  0  0  0  0
 15  1  1  0  0  0  0
 16 15  2  0  0  0  0
 17 15  1  0  0  0  0
 17 18  1  0  0  0  0
 18 19  1  0  0  0  0
 18 25  1  0  0  0  0
 19 21  1  0  0  0  0
 20 19  2  0  0  0  0
 21 23  1  6  0  0  0
 21 22  1  0  0  0  0
 22 24  1  6  0  0  0
 25 28  2  0  0  0  0
 25 22  1  0  0  0  0
 26 24  1  0  0  0  0
 26 27  1  0  0  0  0
 27 23  1  0  0  0  0
M  END
>  <Pose>
1

>  <Score>
-8.683

$$$$
