/Users/jonathanwahrer/Desktop/Msc/3_Semester/Drug_Design_Praktikum/waehrer_HTS_screening/HTS_experiment/out/docking_results/vina_output/3sx0/1581_docked.pdbqt
 OpenBabel03192222423D

 27 30  0  0  1  0  0  0  0  0999 V2000
   21.7780   63.4400   -7.9930 N   0  0  0  0  0  0  0  0  0  0  0  0
   23.1020   63.2610   -7.5640 C   0  0  0  0  0  2  0  0  0  0  0  0
   23.9100   64.5060   -7.4030 C   0  0  0  0  0  2  0  0  0  0  0  0
   23.0820   65.6590   -7.0820 N   0  0  0  0  0  0  0  0  0  0  0  0
   23.5180   66.8900   -6.8190 N   0  0  0  0  0  0  0  0  0  0  0  0
   22.4720   67.6830   -6.5690 C   0  0  0  0  0  0  0  0  0  0  0  0
   21.3450   66.9090   -6.6840 C   0  0  0  0  0  3  0  0  0  0  0  0
   21.7420   65.6090   -7.0130 C   0  0  0  0  0  0  0  0  0  0  0  0
   20.9820   64.3590   -7.2610 C   0  0  0  0  0  2  0  0  0  0  0  0
   21.4850   63.2760   -9.3550 C   0  0  0  0  0  2  0  0  0  0  0  0
   20.0960   62.9290   -9.6890 C   0  0  0  0  0  0  0  0  0  0  0  0
   19.1650   63.8200  -10.0760 N   0  0  0  0  0  0  0  0  0  0  0  0
   17.9010   63.4650  -10.3730 C   0  0  0  0  0  0  0  0  0  0  0  0
   17.4730   62.1940  -10.3060 N   0  0  0  0  0  0  0  0  0  0  0  0
   17.0310   64.4880  -10.7630 C   0  0  0  0  0  3  0  0  0  0  0  0
   16.1980   61.8440  -10.6070 C   0  0  0  0  0  3  0  0  0  0  0  0
   18.3630   61.2560   -9.9230 C   0  0  0  0  0  0  0  0  0  0  0  0
   15.3370   62.8480  -10.9910 C   0  0  0  0  0  0  0  0  0  0  0  0
   13.6830   62.4000  -11.3830 Cl  0  0  0  0  0  0  0  0  0  0  0  0
   15.7340   64.1660  -11.0740 C   0  0  0  0  0  3  0  0  0  0  0  0
   19.6560   61.6190   -9.6200 C   0  0  0  0  0  3  0  0  0  0  0  0
   18.0030   60.0410   -9.8450 O   0  0  0  0  0  0  0  0  0  0  0  0
   22.5300   69.1400   -6.2310 C   0  0  1  0  0  3  0  0  0  0  0  0
   21.5660   69.3860   -5.2390 O   0  0  0  0  0  0  0  0  0  0  0  0
   21.9700   69.8850   -4.4720 H   0  0  0  0  0  0  0  0  0  0  0  0
   23.8760   69.4730   -5.5920 C   0  0  0  0  0  2  0  0  0  0  0  0
   24.5310   70.5790   -6.4060 C   0  0  0  0  0  1  0  0  0  0  0  0
  1  2  1  0  0  0  0
  1  9  1  0  0  0  0
  2  3  1  0  0  0  0
  3  4  1  0  0  0  0
  4  8  1  0  0  0  0
  4  5  1  0  0  0  0
  5  6  2  0  0  0  0
  6 23  1  0  0  0  0
  7  6  1  0  0  0  0
  8  7  2  0  0  0  0
  9  8  1  0  0  0  0
 10  1  1  0  0  0  0
 11 21  2  0  0  0  0
 11 10  1  0  0  0  0
 12 11  1  0  0  0  0
 13 14  1  0  0  0  0
 13 12  2  0  0  0  0
 14 17  1  0  0  0  0
 15 13  1  0  0  0  0
 16 14  1  0  0  0  0
 17 22  2  0  0  0  0
 17 21  1  0  0  0  0
 18 16  2  0  0  0  0
 19 18  1  0  0  0  0
 20 18  1  0  0  0  0
 20 15  2  0  0  0  0
 23 26  1  1  0  0  0
 23 24  1  0  0  0  0
 24 25  1  0  0  0  0
 27 26  1  0  0  0  0
M  END
>  <Pose>
1

>  <Score>
-9.076

$$$$
