/Users/jonathanwahrer/Desktop/Msc/3_Semester/Drug_Design_Praktikum/waehrer_HTS_screening/HTS_experiment/out/docking_results/vina_output/3sx0/1586_docked.pdbqt
 OpenBabel03192222423D

 29 32  0  0  1  0  0  0  0  0999 V2000
   12.9680   64.4870  -14.0090 C   0  0  0  0  0  0  0  0  0  0  0  0
   11.9290   63.7760  -14.4160 O   0  0  0  0  0  0  0  0  0  0  0  0
   13.5900   64.0350  -12.8340 N   0  0  0  0  0  0  0  0  0  0  0  0
   14.7000   64.6650  -12.2110 C   0  0  0  0  0  2  0  0  0  0  0  0
   14.9400   64.0070  -10.8410 C   0  0  1  0  0  3  0  0  0  0  0  0
   15.1680   62.6120  -11.1190 N   0  0  0  0  0  0  0  0  0  0  0  0
   14.1170   61.8880  -11.7500 C   0  0  0  0  0  2  0  0  0  0  0  0
   13.0300   62.8180  -12.2470 C   0  0  0  0  0  2  0  0  0  0  0  0
   16.3850   61.9960  -10.7770 C   0  0  0  0  0  0  0  0  0  0  0  0
   16.4220   60.7580  -10.6670 O   0  0  0  0  0  0  0  0  0  0  0  0
   17.5770   62.8420  -10.5630 C   0  0  1  0  0  3  0  0  0  0  0  0
   17.1720   63.9250   -9.7170 N   0  0  0  0  0  0  0  0  0  0  0  0
   16.0130   64.6520  -10.0870 C   0  0  0  0  0  0  0  0  0  0  0  0
   15.8680   65.8760   -9.7760 O   0  0  0  0  0  0  0  0  0  0  0  0
   17.6980   64.1920   -8.8490 H   0  0  0  0  0  0  0  0  0  0  0  0
   13.2460   65.5980  -14.8770 C   0  0  0  0  0  0  0  0  0  0  0  0
   14.2440   65.6980  -15.8140 C   0  0  0  0  0  3  0  0  0  0  0  0
   14.4720   66.8300  -16.5990 C   0  0  0  0  0  3  0  0  0  0  0  0
   13.6730   67.9170  -16.4530 C   0  0  0  0  0  0  0  0  0  0  0  0
   13.9280   69.3720  -17.4280 Cl  0  0  0  0  0  0  0  0  0  0  0  0
   12.6560   67.8820  -15.5350 C   0  0  0  0  0  3  0  0  0  0  0  0
   12.4500   66.7520  -14.7710 C   0  0  0  0  0  3  0  0  0  0  0  0
   18.7720   62.0970  -10.1050 C   0  0  0  0  0  2  0  0  0  0  0  0
   19.8570   63.0360   -9.7730 C   0  0  0  0  0  0  0  0  0  0  0  0
   20.2960   63.4110   -8.5690 N   0  0  0  0  0  0  0  0  0  0  0  0
   21.3210   64.3010   -8.7220 C   0  0  0  0  0  3  0  0  0  0  0  0
   21.5300   64.4900  -10.0260 N   0  0  0  0  0  0  0  0  0  0  0  0
   20.6510   63.7300  -10.6870 C   0  0  0  0  0  3  0  0  0  0  0  0
   22.2330   65.1030  -10.4480 H   0  0  0  0  0  0  0  0  0  0  0  0
  1  3  1  0  0  0  0
  2  1  2  0  0  0  0
  3  8  1  0  0  0  0
  3  4  1  0  0  0  0
  5  4  1  6  0  0  0
  5 13  1  0  0  0  0
  6  5  1  0  0  0  0
  6  9  1  0  0  0  0
  7  6  1  0  0  0  0
  8  7  1  0  0  0  0
  9 10  2  0  0  0  0
  9 11  1  0  0  0  0
 11 23  1  1  0  0  0
 11 12  1  0  0  0  0
 12 15  1  0  0  0  0
 13 14  2  0  0  0  0
 13 12  1  0  0  0  0
 16 22  1  0  0  0  0
 16  1  1  0  0  0  0
 17 16  2  0  0  0  0
 18 19  2  0  0  0  0
 18 17  1  0  0  0  0
 19 21  1  0  0  0  0
 20 19  1  0  0  0  0
 21 22  2  0  0  0  0
 23 24  1  0  0  0  0
 24 25  1  0  0  0  0
 26 25  2  0  0  0  0
 27 26  1  0  0  0  0
 28 27  1  0  0  0  0
 28 24  2  0  0  0  0
 29 27  1  0  0  0  0
M  END
>  <Pose>
1

>  <Score>
-7.990

$$$$
