/Users/jonathanwahrer/Desktop/Msc/3_Semester/Drug_Design_Praktikum/waehrer_HTS_screening/HTS_experiment/out/docking_results/vina_output/3sx0/1591_docked.pdbqt
 OpenBabel03192222423D

 26 29  0  0  0  0  0  0  0  0999 V2000
   21.7920   63.3930  -11.9180 Cl  0  0  0  0  0  0  0  0  0  0  0  0
   20.5800   63.2690  -10.6630 C   0  0  0  0  0  0  0  0  0  0  0  0
   20.9020   63.5440   -9.3650 C   0  0  0  0  0  0  0  0  0  0  0  0
   19.8580   63.3970   -8.4470 C   0  0  0  0  0  3  0  0  0  0  0  0
   18.6370   63.0110   -8.8500 N   0  0  0  0  0  0  0  0  0  0  0  0
   18.3070   62.7410  -10.0930 N   0  0  0  0  0  0  0  0  0  0  0  0
   19.2770   62.8690  -11.0080 C   0  0  0  0  0  0  0  0  0  0  0  0
   19.0590   62.6340  -12.2240 O   0  0  0  0  0  0  0  0  0  0  0  0
   22.1860   63.9730   -8.9520 N   0  0  0  0  0  0  0  0  0  0  0  0
   23.4070   63.2850   -9.3360 C   0  0  0  0  0  2  0  0  0  0  0  0
   24.1260   62.7190   -8.1390 C   0  0  0  0  0  2  0  0  0  0  0  0
   24.0350   63.7070   -7.0930 N   0  0  0  0  0  0  0  0  0  0  0  0
   23.8110   65.0770   -7.4750 C   0  0  0  0  0  2  0  0  0  0  0  0
   22.3920   65.1270   -8.0840 C   0  0  0  0  0  2  0  0  0  0  0  0
   24.1610   63.3460   -5.7290 C   0  0  0  0  0  0  0  0  0  0  0  0
   23.5110   63.8960   -4.6640 N   0  0  0  0  0  0  0  0  0  0  0  0
   23.8960   63.2900   -3.5590 N   0  0  0  0  0  0  0  0  0  0  0  0
   24.7820   62.3610   -3.8940 C   0  0  0  0  0  0  0  0  0  0  0  0
   24.9240   62.4130   -5.1920 O   0  0  0  0  0  0  0  0  0  0  0  0
   25.5190   61.4010   -3.0090 C   0  0  0  0  0  1  0  0  0  0  0  0
   16.9850   62.3370  -10.4360 C   0  0  0  0  0  0  0  0  0  0  0  0
   16.5920   61.0130  -10.4570 C   0  0  0  0  0  3  0  0  0  0  0  0
   15.3090   60.6330  -10.7900 C   0  0  0  0  0  3  0  0  0  0  0  0
   14.3590   61.5790  -11.1200 C   0  0  0  0  0  3  0  0  0  0  0  0
   14.7460   62.9020  -11.1000 C   0  0  0  0  0  3  0  0  0  0  0  0
   16.0320   63.2790  -10.7660 C   0  0  0  0  0  3  0  0  0  0  0  0
  1  2  1  0  0  0  0
  2  3  2  0  0  0  0
  3  9  1  0  0  0  0
  3  4  1  0  0  0  0
  5  4  2  0  0  0  0
  6  5  1  0  0  0  0
  7  2  1  0  0  0  0
  7  6  1  0  0  0  0
  8  7  2  0  0  0  0
  9 14  1  0  0  0  0
 10  9  1  0  0  0  0
 10 11  1  0  0  0  0
 11 12  1  0  0  0  0
 12 15  1  0  0  0  0
 13 12  1  0  0  0  0
 14 13  1  0  0  0  0
 15 19  1  0  0  0  0
 15 16  2  0  0  0  0
 16 17  1  0  0  0  0
 18 17  2  0  0  0  0
 18 20  1  0  0  0  0
 19 18  1  0  0  0  0
 21  6  1  0  0  0  0
 22 21  1  0  0  0  0
 23 22  2  0  0  0  0
 24 25  2  0  0  0  0
 24 23  1  0  0  0  0
 25 26  1  0  0  0  0
 26 21  2  0  0  0  0
M  END
>  <Pose>
1

>  <Score>
-9.515

$$$$
