/Users/jonathanwahrer/Desktop/Msc/3_Semester/Drug_Design_Praktikum/waehrer_HTS_screening/HTS_experiment/out/docking_results/vina_output/3sx0/1609_docked.pdbqt
 OpenBabel03192222423D

 26 29  0  0  1  0  0  0  0  0999 V2000
   20.5190   62.9960  -10.0950 N   0  0  0  0  0  0  0  0  0  0  0  0
   20.3440   63.6870   -8.8460 C   0  0  2  0  0  3  0  0  0  0  0  0
   20.8640   65.0690   -9.1900 C   0  0  2  0  0  3  0  0  0  0  0  0
   22.0310   64.7330   -9.9300 O   0  0  0  0  0  0  0  0  0  0  0  0
   21.6150   63.6470  -10.7270 C   0  0  0  0  0  0  0  0  0  0  0  0
   22.1690   63.3430  -11.8310 O   0  0  0  0  0  0  0  0  0  0  0  0
   21.1320   65.5810   -7.8220 C   0  0  0  0  0  2  0  0  0  0  0  0
   21.9400   64.4740   -7.2600 N   0  0  0  0  0  0  0  0  0  0  0  0
   21.4230   63.2690   -7.8310 C   0  0  0  0  0  2  0  0  0  0  0  0
   22.9750   64.7330   -6.3580 C   0  0  0  0  0  0  0  0  0  0  0  0
   23.2380   65.9570   -6.0120 O   0  0  0  0  0  0  0  0  0  0  0  0
   19.8070   61.8810  -10.6750 C   0  0  0  0  0  2  0  0  0  0  0  0
   18.7370   61.3160   -9.7820 C   0  0  0  0  0  2  0  0  0  0  0  0
   17.3820   61.7690  -10.1740 C   0  0  0  0  0  0  0  0  0  0  0  0
   17.0570   63.1260  -10.1820 C   0  0  0  0  0  3  0  0  0  0  0  0
   15.8050   63.5600  -10.5450 C   0  0  0  0  0  0  0  0  0  0  0  0
   15.4410   65.2880  -10.5390 Cl  0  0  0  0  0  0  0  0  0  0  0  0
   14.8090   62.6830  -10.9190 C   0  0  0  0  0  3  0  0  0  0  0  0
   15.1240   61.3410  -10.9130 C   0  0  0  0  0  3  0  0  0  0  0  0
   16.3820   60.8950  -10.5490 C   0  0  0  0  0  3  0  0  0  0  0  0
   23.8360   63.7470   -5.7310 C   0  0  0  0  0  0  0  0  0  0  0  0
   23.7510   63.2790   -4.4560 N   0  0  0  0  0  0  0  0  0  0  0  0
   24.7160   62.3830   -4.2680 C   0  0  0  0  0  3  0  0  0  0  0  0
   22.7710   63.7000   -3.4890 C   0  0  0  0  0  1  0  0  0  0  0  0
   25.4220   62.2630   -5.3940 N   0  0  0  0  0  0  0  0  0  0  0  0
   24.8880   63.1010   -6.3100 C   0  0  0  0  0  3  0  0  0  0  0  0
  1  2  1  0  0  0  0
  2  9  1  1  0  0  0
  3  2  1  0  0  0  0
  3  7  1  1  0  0  0
  4  3  1  0  0  0  0
  5  1  1  0  0  0  0
  5  4  1  0  0  0  0
  6  5  2  0  0  0  0
  7  8  1  0  0  0  0
  8 10  1  0  0  0  0
  9  8  1  0  0  0  0
 10 11  2  0  0  0  0
 10 21  1  0  0  0  0
 12  1  1  0  0  0  0
 12 13  1  0  0  0  0
 14 13  1  0  0  0  0
 15 14  1  0  0  0  0
 16 17  1  0  0  0  0
 16 15  2  0  0  0  0
 18 19  2  0  0  0  0
 18 16  1  0  0  0  0
 19 20  1  0  0  0  0
 20 14  2  0  0  0  0
 21 22  1  0  0  0  0
 22 23  1  0  0  0  0
 22 24  1  0  0  0  0
 25 23  2  0  0  0  0
 26 21  2  0  0  0  0
 26 25  1  0  0  0  0
M  END
>  <Pose>
1

>  <Score>
-9.039

$$$$
