/Users/jonathanwahrer/Desktop/Msc/3_Semester/Drug_Design_Praktikum/waehrer_HTS_screening/HTS_experiment/out/docking_results/vina_output/3sx0/1630_docked.pdbqt
 OpenBabel03192222443D

 39 43  0  0  1  0  0  0  0  0999 V2000
   27.7790   61.7800   -4.4430 Cl  0  0  0  0  0  0  0  0  0  0  0  0
   26.2640   62.5850   -4.8790 C   0  0  0  0  0  0  0  0  0  0  0  0
   25.1510   62.4300   -4.0890 C   0  0  0  0  0  0  0  0  0  0  0  0
   23.9610   63.0610   -4.4270 C   0  0  0  0  0  0  0  0  0  0  0  0
   23.8210   63.8530   -5.5340 C   0  0  0  0  0  0  0  0  0  0  0  0
   24.9740   63.9950   -6.3220 C   0  0  0  0  0  3  0  0  0  0  0  0
   26.1590   63.3730   -5.9950 C   0  0  0  0  0  3  0  0  0  0  0  0
   22.4580   64.3570   -5.6010 C   0  0  1  0  0  0  0  0  0  0  0  0
   22.5130   65.8120   -5.4910 N   0  0  0  0  0  0  0  0  0  0  0  0
   22.2930   66.2490   -6.8430 C   0  0  1  0  0  3  0  0  0  0  0  0
   21.1600   65.3490   -7.2820 C   0  0  2  0  0  3  0  0  0  0  0  0
   21.6890   64.0060   -6.8260 C   0  0  1  0  0  3  0  0  0  0  0  0
   22.4340   63.5030   -7.9620 C   0  0  0  0  0  0  0  0  0  0  0  0
   23.2650   62.5680   -7.9580 O   0  0  0  0  0  0  0  0  0  0  0  0
   22.0770   64.2460   -9.1190 N   0  0  0  0  0  0  0  0  0  0  0  0
   21.1010   65.2260   -8.7610 C   0  0  0  0  0  0  0  0  0  0  0  0
   20.3220   65.8860   -9.4890 O   0  0  0  0  0  0  0  0  0  0  0  0
   21.7810   63.7930   -4.4090 C   0  0  0  0  0  0  0  0  0  0  0  0
   20.5800   63.9640   -4.0450 O   0  0  0  0  0  0  0  0  0  0  0  0
   22.7280   63.0060   -3.7210 N   0  0  0  0  0  0  0  0  0  0  0  0
   25.2530   61.5760   -2.8730 C   0  0  0  0  0  1  0  0  0  0  0  0
   23.4290   66.0990   -5.0860 H   0  0  0  0  0  0  0  0  0  0  0  0
   22.5340   62.4730   -2.8310 H   0  0  0  0  0  0  0  0  0  0  0  0
   21.9110   67.7110   -6.8970 C   0  0  0  0  0  2  0  0  0  0  0  0
   23.1910   68.5030   -6.7300 C   0  0  0  0  0  2  0  0  0  0  0  0
   23.0250   69.6230   -5.7710 C   0  0  0  0  0  0  0  0  0  0  0  0
   21.8720   70.0970   -5.5650 O   0  0  0  0  0  0  0  0  0  0  0  0
   24.1950   70.1080   -5.1270 N   0  0  0  0  0  0  0  0  0  0  0  0
   24.9230   69.4260   -4.8560 H   0  0  0  0  0  0  0  0  0  0  0  0
   24.2520   71.1440   -4.9590 H   0  0  0  0  0  0  0  0  0  0  0  0
   22.5650   64.1030  -10.4780 C   0  0  0  0  0  2  0  0  0  0  0  0
   21.5870   63.4320  -11.3530 C   0  0  0  0  0  0  0  0  0  0  0  0
   21.9940   63.0770  -12.6220 C   0  0  0  0  0  0  0  0  0  0  0  0
   21.0690   62.4450  -13.4410 C   0  0  0  0  0  3  0  0  0  0  0  0
   19.7980   62.1800  -13.0140 C   0  0  0  0  0  3  0  0  0  0  0  0
   19.4310   62.5490  -11.7410 C   0  0  0  0  0  3  0  0  0  0  0  0
   20.3030   63.1790  -10.8810 C   0  0  0  0  0  3  0  0  0  0  0  0
   23.2820   63.3540  -13.0310 O   0  0  0  0  0  0  0  0  0  0  0  0
   23.6450   63.7280  -14.3220 C   0  0  0  0  0  1  0  0  0  0  0  0
  2  1  1  0  0  0  0
  2  3  1  0  0  0  0
  3 21  1  0  0  0  0
  4  3  2  0  0  0  0
  4 20  1  0  0  0  0
  5  4  1  0  0  0  0
  6  7  1  0  0  0  0
  6  5  2  0  0  0  0
  7  2  2  0  0  0  0
  8  5  1  6  0  0  0
  8  9  1  0  0  0  0
  8 18  1  0  0  0  0
  9 22  1  0  0  0  0
 10 24  1  1  0  0  0
 10  9  1  0  0  0  0
 11 16  1  6  0  0  0
 11 10  1  0  0  0  0
 11 12  1  0  0  0  0
 12 13  1  6  0  0  0
 12  8  1  0  0  0  0
 13 14  2  0  0  0  0
 15 16  1  0  0  0  0
 15 13  1  0  0  0  0
 17 16  2  0  0  0  0
 18 19  2  0  0  0  0
 18 20  1  0  0  0  0
 20 23  1  0  0  0  0
 24 25  1  0  0  0  0
 25 26  1  0  0  0  0
 26 27  2  0  0  0  0
 26 28  1  0  0  0  0
 28 30  1  0  0  0  0
 28 29  1  0  0  0  0
 31 15  1  0  0  0  0
 32 37  1  0  0  0  0
 32 31  1  0  0  0  0
 33 32  2  0  0  0  0
 34 35  2  0  0  0  0
 34 33  1  0  0  0  0
 35 36  1  0  0  0  0
 36 37  2  0  0  0  0
 38 33  1  0  0  0  0
 39 38  1  0  0  0  0
M  END
>  <Pose>
1

>  <Score>
-4.124

$$$$
