/Users/jonathanwahrer/Desktop/Msc/3_Semester/Drug_Design_Praktikum/waehrer_HTS_screening/HTS_experiment/out/docking_results/vina_output/3sx0/1637_docked.pdbqt
 OpenBabel03192222443D

 29 32  0  0  0  0  0  0  0  0999 V2000
   23.2580   64.0270   -6.1820 C   0  0  0  0  0  0  0  0  0  0  0  0
   23.4160   63.3900   -7.3480 N   0  0  0  0  0  0  0  0  0  0  0  0
   22.8530   63.7680   -8.4920 C   0  0  0  0  0  0  0  0  0  0  0  0
   22.0350   64.9080   -8.4550 C   0  0  0  0  0  0  0  0  0  0  0  0
   21.8790   65.5470   -7.2770 C   0  0  0  0  0  0  0  0  0  0  0  0
   22.4950   65.1050   -6.1450 N   0  0  0  0  0  0  0  0  0  0  0  0
   21.3270   65.2010   -9.7040 C   0  0  0  0  0  2  0  0  0  0  0  0
   20.7050   63.9720  -10.0910 N   0  0  0  0  0  0  0  0  0  0  0  0
   21.8590   63.2020  -10.7340 C   0  0  0  0  0  2  0  0  0  0  0  0
   23.0020   63.0620   -9.7910 C   0  0  0  0  0  2  0  0  0  0  0  0
   20.3420   63.0120   -8.9860 C   0  0  0  0  0  2  0  0  0  0  0  0
   18.9680   62.5690   -9.4960 C   0  0  0  0  0  0  0  0  0  0  0  0
   17.9610   63.3820   -9.8470 C   0  0  0  0  0  0  0  0  0  0  0  0
   16.7010   62.9250  -10.3190 C   0  0  0  0  0  0  0  0  0  0  0  0
   18.2280   65.0910   -9.7790 Cl  0  0  0  0  0  0  0  0  0  0  0  0
   16.5840   61.5350  -10.3990 C   0  0  0  0  0  0  0  0  0  0  0  0
   15.6570   63.7070  -10.6820 C   0  0  0  0  0  3  0  0  0  0  0  0
   15.3950   61.0370  -10.8460 C   0  0  0  0  0  3  0  0  0  0  0  0
   17.5490   60.7460  -10.0750 O   0  0  0  0  0  0  0  0  0  0  0  0
   14.2910   61.8330  -11.2260 C   0  0  0  0  0  3  0  0  0  0  0  0
   14.4600   63.2270  -11.1330 C   0  0  0  0  0  3  0  0  0  0  0  0
   18.7290   61.2030   -9.6290 C   0  0  0  0  0  0  0  0  0  0  0  0
   19.6830   60.3990   -9.2970 O   0  0  0  0  0  0  0  0  0  0  0  0
   21.0820   66.6810   -7.2410 O   0  0  0  0  0  0  0  0  0  0  0  0
   20.0610   66.6600   -7.1470 H   0  0  0  0  0  0  0  0  0  0  0  0
   24.0010   63.3270   -4.7320 S   0  0  0  0  0  0  0  0  0  0  0  0
   23.1350   62.3740   -4.0740 O   0  0  0  0  0  0  0  0  0  0  0  0
   24.3540   64.4770   -3.8380 O   0  0  0  0  0  0  0  0  0  0  0  0
   25.5550   62.5920   -5.2990 C   0  0  0  0  0  1  0  0  0  0  0  0
  1  6  1  0  0  0  0
  1 26  1  0  0  0  0
  2  1  2  0  0  0  0
  3  4  2  0  0  0  0
  3  2  1  0  0  0  0
  4  5  1  0  0  0  0
  5 24  1  0  0  0  0
  5  6  2  0  0  0  0
  7  4  1  0  0  0  0
  8  7  1  0  0  0  0
  8 11  1  0  0  0  0
  9  8  1  0  0  0  0
  9 10  1  0  0  0  0
 10  3  1  0  0  0  0
 12 11  1  0  0  0  0
 13 15  1  0  0  0  0
 13 12  2  0  0  0  0
 14 13  1  0  0  0  0
 16 14  1  0  0  0  0
 16 19  1  0  0  0  0
 17 14  2  0  0  0  0
 18 16  2  0  0  0  0
 19 22  1  0  0  0  0
 20 21  2  0  0  0  0
 20 18  1  0  0  0  0
 21 17  1  0  0  0  0
 22 12  1  0  0  0  0
 22 23  2  0  0  0  0
 24 25  1  0  0  0  0
 26 27  2  0  0  0  0
 26 28  2  0  0  0  0
 29 26  1  0  0  0  0
M  END
>  <Pose>
1

>  <Score>
-7.279

$$$$
