/Users/jonathanwahrer/Desktop/Msc/3_Semester/Drug_Design_Praktikum/waehrer_HTS_screening/HTS_experiment/out/docking_results/vina_output/3sx0/1657_docked.pdbqt
 OpenBabel03192222453D

 33 36  0  0  1  0  0  0  0  0999 V2000
    7.6220   70.9490  -17.6160 Cl  0  0  0  0  0  0  0  0  0  0  0  0
    8.9910   69.8680  -17.3260 C   0  0  0  0  0  0  0  0  0  0  0  0
   10.2810   70.3430  -17.4150 C   0  0  0  0  0  3  0  0  0  0  0  0
   11.3290   69.5110  -17.1890 C   0  0  0  0  0  0  0  0  0  0  0  0
   11.1090   68.1650  -16.8680 C   0  0  0  0  0  0  0  0  0  0  0  0
    9.8140   67.7120  -16.7860 C   0  0  0  0  0  3  0  0  0  0  0  0
    8.7300   68.5510  -17.0120 C   0  0  0  0  0  3  0  0  0  0  0  0
   12.2040   67.2860  -16.6290 N   0  0  0  0  0  0  0  0  0  0  0  0
   13.4620   67.8410  -16.1550 C   0  0  2  0  0  0  0  0  0  0  0  0
   13.7550   68.9700  -17.0070 N   0  0  0  0  0  0  0  0  0  0  0  0
   12.7300   69.9180  -17.2590 C   0  0  0  0  0  0  0  0  0  0  0  0
   12.9620   71.1210  -17.5470 O   0  0  0  0  0  0  0  0  0  0  0  0
   14.5220   66.8000  -16.2960 C   0  0  0  0  0  2  0  0  0  0  0  0
   14.6160   65.8750  -15.1040 C   0  0  0  0  0  2  0  0  0  0  0  0
   13.3180   65.3800  -14.6960 N   0  0  0  0  0  0  0  0  0  0  0  0
   12.2470   66.2480  -14.2500 C   0  0  0  0  0  0  0  0  0  0  0  0
   11.1440   65.6830  -14.0690 O   0  0  0  0  0  0  0  0  0  0  0  0
   12.2510   67.6940  -13.9760 C   0  0  0  0  0  2  0  0  0  0  0  0
   13.3250   68.3960  -14.7520 C   0  0  0  0  0  2  0  0  0  0  0  0
   12.0450   66.2730  -16.8090 H   0  0  0  0  0  0  0  0  0  0  0  0
   14.6830   69.1260  -17.4480 H   0  0  0  0  0  0  0  0  0  0  0  0
   13.0190   64.0070  -14.7360 C   0  0  0  0  0  2  0  0  0  0  0  0
   13.1470   63.1540  -13.5770 C   0  0  0  0  0  0  0  0  0  0  0  0
   12.7740   61.9050  -13.8570 O   0  0  0  0  0  0  0  0  0  0  0  0
   13.5770   63.4240  -12.2970 N   0  0  0  0  0  0  0  0  0  0  0  0
   13.5950   62.3170  -11.3060 C   0  0  0  0  0  2  0  0  0  0  0  0
   14.0400   64.6560  -11.7900 C   0  0  0  0  0  2  0  0  0  0  0  0
   14.9570   62.4620  -10.6100 C   0  0  0  0  0  2  0  0  0  0  0  0
   15.8780   63.1910  -11.4150 N   0  0  0  0  0  0  0  0  0  0  0  0
   15.5820   64.5800  -11.6020 C   0  0  0  0  0  2  0  0  0  0  0  0
   17.2560   62.8970  -11.2150 C   0  0  0  0  0  3  0  0  0  0  0  0
   18.0150   63.9890  -10.4900 C   0  0  0  0  0  1  0  0  0  0  0  0
   17.4970   61.5840  -10.5210 C   0  0  0  0  0  1  0  0  0  0  0  0
  1  2  1  0  0  0  0
  2  7  1  0  0  0  0
  3  2  2  0  0  0  0
  3  4  1  0  0  0  0
  4  5  2  0  0  0  0
  5  6  1  0  0  0  0
  5  8  1  0  0  0  0
  7  6  2  0  0  0  0
  8  9  1  0  0  0  0
  9 13  1  6  0  0  0
  9 19  1  0  0  0  0
 10  9  1  0  0  0  0
 11  4  1  0  0  0  0
 11 10  1  0  0  0  0
 12 11  2  0  0  0  0
 13 14  1  0  0  0  0
 14 15  1  0  0  0  0
 15 16  1  0  0  0  0
 16 17  2  0  0  0  0
 16 18  1  0  0  0  0
 19 18  1  0  0  0  0
 20  8  1  0  0  0  0
 21 10  1  0  0  0  0
 22 15  1  0  0  0  0
 22 23  1  0  0  0  0
 23 25  1  0  0  0  0
 24 23  2  0  0  0  0
 25 27  1  0  0  0  0
 25 26  1  0  0  0  0
 26 28  1  0  0  0  0
 27 30  1  0  0  0  0
 29 31  1  0  0  0  0
 29 28  1  0  0  0  0
 30 29  1  0  0  0  0
 31 33  1  0  0  0  0
 31 32  1  0  0  0  0
M  END
>  <Pose>
1

>  <Score>
-2.966

$$$$
