/Users/jonathanwahrer/Desktop/Msc/3_Semester/Drug_Design_Praktikum/waehrer_HTS_screening/HTS_experiment/out/docking_results/vina_output/3sx0/1673_docked.pdbqt
 OpenBabel03192222463D

 35 38  0  0  1  0  0  0  0  0999 V2000
   22.2860   62.8290   -9.3040 C   0  0  2  0  0  3  0  0  0  0  0  0
   21.0690   62.9870   -8.4330 C   0  0  1  0  0  3  0  0  0  0  0  0
   21.3820   63.9370   -7.4610 N   0  0  0  0  0  0  0  0  0  0  0  0
   22.7820   63.5780   -7.1270 C   0  0  0  0  0  0  0  0  0  0  0  0
   23.3460   63.6850   -6.0050 O   0  0  0  0  0  0  0  0  0  0  0  0
   23.3890   63.0780   -8.3500 C   0  0  0  0  0  0  0  0  0  0  0  0
   24.6260   62.8980   -8.5360 O   0  0  0  0  0  0  0  0  0  0  0  0
   19.7980   62.8150   -9.0900 C   0  0  0  0  0  0  0  0  0  0  0  0
   18.9210   63.8070   -9.3940 C   0  0  0  0  0  3  0  0  0  0  0  0
   17.7280   63.5380  -10.0470 C   0  0  0  0  0  0  0  0  0  0  0  0
   17.4230   62.2140  -10.3960 C   0  0  0  0  0  0  0  0  0  0  0  0
   18.3060   61.2170  -10.0890 C   0  0  0  0  0  3  0  0  0  0  0  0
   19.4760   61.4830   -9.4500 C   0  0  0  0  0  3  0  0  0  0  0  0
   16.2490   61.8910  -11.0460 O   0  0  0  0  0  1  0  0  0  0  0  0
   22.3530   63.7450  -10.4430 C   0  0  0  0  0  0  0  0  0  0  0  0
   21.6550   64.8180  -10.4300 O   0  0  0  0  0  0  0  0  0  0  0  0
   23.1640   63.5640  -11.6380 C   0  0  0  0  0  0  0  0  0  0  0  0
   24.5400   63.5690  -11.5940 C   0  0  0  0  0  3  0  0  0  0  0  0
   25.2390   63.4210  -12.7880 C   0  0  0  0  0  3  0  0  0  0  0  0
   24.6330   63.2680  -14.0080 C   0  0  0  0  0  0  0  0  0  0  0  0
   25.6680   63.0660  -15.6210 Br  0  0  0  0  0  0  0  0  0  0  0  0
   23.2550   63.2610  -14.0570 C   0  0  0  0  0  3  0  0  0  0  0  0
   22.5630   63.4090  -12.8780 C   0  0  0  0  0  3  0  0  0  0  0  0
   20.7930   64.9680   -6.6640 C   0  0  0  0  0  2  0  0  0  0  0  0
   21.6590   66.1060   -6.2780 C   0  0  0  0  0  2  0  0  0  0  0  0
   22.2320   66.9690   -7.2210 N   0  0  0  0  0  4  0  0  0  0  0  0
   21.2340   67.7500   -7.9630 C   0  0  0  0  0  2  0  0  0  0  0  0
   20.4570   68.6750   -7.0870 C   0  0  0  0  0  2  0  0  0  0  0  0
   21.0080   68.6940   -5.8260 O   0  0  0  0  0  0  0  0  0  0  0  0
   22.3630   69.0380   -5.9560 C   0  0  0  0  0  2  0  0  0  0  0  0
   23.1600   67.8960   -6.5490 C   0  0  0  0  0  2  0  0  0  0  0  0
   22.7880   66.4790   -7.9180 H   0  0  0  0  0  0  0  0  0  0  0  0
   16.8330   64.5080  -10.3660 O   0  0  0  0  0  0  0  0  0  0  0  0
   15.6330   64.7190   -9.6960 C   0  0  0  0  0  2  0  0  0  0  0  0
   14.4070   64.3160  -10.4960 C   0  0  0  0  0  1  0  0  0  0  0  0
  1 15  1  6  0  0  0
  1  2  1  0  0  0  0
  1  6  1  0  0  0  0
  2  8  1  6  0  0  0
  2  3  1  0  0  0  0
  3  4  1  0  0  0  0
  3 24  1  0  0  0  0
  4  5  2  0  0  0  0
  6  4  1  0  0  0  0
  7  6  2  0  0  0  0
  9  8  1  0  0  0  0
 10  9  2  0  0  0  0
 11 12  2  0  0  0  0
 11 10  1  0  0  0  0
 12 13  1  0  0  0  0
 13  8  2  0  0  0  0
 14 11  1  0  0  0  0
 15 16  2  0  0  0  0
 17 18  1  0  0  0  0
 17 15  1  0  0  0  0
 19 18  2  0  0  0  0
 20 19  1  0  0  0  0
 21 20  1  0  0  0  0
 22 20  2  0  0  0  0
 22 23  1  0  0  0  0
 23 17  2  0  0  0  0
 24 25  1  0  0  0  0
 26 31  1  0  0  0  0
 26 25  1  0  0  0  0
 27 26  1  0  0  0  0
 27 28  1  0  0  0  0
 28 29  1  0  0  0  0
 30 29  1  0  0  0  0
 31 30  1  0  0  0  0
 32 26  1  0  0  0  0
 33 10  1  0  0  0  0
 33 34  1  0  0  0  0
 35 34  1  0  0  0  0
M  END
>  <Pose>
1

>  <Score>
-4.683

$$$$
