/Users/jonathanwahrer/Desktop/Msc/3_Semester/Drug_Design_Praktikum/waehrer_HTS_screening/HTS_experiment/out/docking_results/vina_output/3sx0/1687_docked.pdbqt
 OpenBabel03192222463D

 27 30  0  0  0  0  0  0  0  0999 V2000
   18.8340   63.2400  -10.8420 N   0  0  0  0  0  0  0  0  0  0  0  0
   18.5940   61.9460  -10.5340 C   0  0  0  0  0  2  0  0  0  0  0  0
   17.3200   61.4210  -10.5150 C   0  0  0  0  0  0  0  0  0  0  0  0
   16.1850   62.2770  -10.8360 C   0  0  0  0  0  0  0  0  0  0  0  0
   15.0930   61.5060  -10.7380 N   0  0  0  0  0  2  0  0  0  0  0  0
   15.4360   60.2560  -10.3890 N   0  0  0  0  0  0  0  0  0  0  0  0
   16.7690   60.1860  -10.2510 C   0  0  0  0  0  0  0  0  0  0  0  0
   17.3880   59.1460   -9.9290 O   0  0  0  0  0  0  0  0  0  0  0  0
   16.4680   63.5970  -11.1470 C   0  0  0  0  0  0  0  0  0  0  0  0
   17.7720   64.0050  -11.1340 C   0  0  0  0  0  3  0  0  0  0  0  0
   14.7240   59.4930  -10.2580 H   0  0  0  0  0  0  0  0  0  0  0  0
   20.1960   63.7630  -10.8530 C   0  0  0  0  0  2  0  0  0  0  0  0
   20.4700   64.3750   -9.4960 C   0  0  0  0  0  2  0  0  0  0  0  0
   21.7470   63.9520   -8.9640 N   0  0  0  0  0  0  0  0  0  0  0  0
   22.7470   63.3850   -9.6720 C   0  0  0  0  0  3  0  0  0  0  0  0
   23.7900   63.1180   -8.8660 N   0  0  0  0  0  0  0  0  0  0  0  0
   23.4820   63.5120   -7.6000 C   0  0  0  0  0  0  0  0  0  0  0  0
   24.1720   63.4730   -6.4040 C   0  0  0  0  0  3  0  0  0  0  0  0
   22.2050   64.0250   -7.7010 C   0  0  0  0  0  0  0  0  0  0  0  0
   23.5780   63.9620   -5.2600 C   0  0  0  0  0  0  0  0  0  0  0  0
   24.3970   63.9450   -3.6990 Cl  0  0  0  0  0  0  0  0  0  0  0  0
   22.2990   64.4720   -5.3740 C   0  0  0  0  0  3  0  0  0  0  0  0
   21.6030   64.5140   -6.5650 C   0  0  0  0  0  3  0  0  0  0  0  0
   15.3570   64.4840  -11.4740 C   0  0  0  0  0  0  0  0  0  0  0  0
   14.9640   65.3120  -10.6140 O   0  0  0  0  0  0  0  0  0  0  0  0
   14.7320   64.4370  -12.6920 O   0  0  0  0  0  0  0  0  0  0  0  0
   13.3480   64.1470  -12.8070 C   0  0  0  0  0  1  0  0  0  0  0  0
  1  2  1  0  0  0  0
  2  3  1  0  0  0  0
  3  7  1  0  0  0  0
  4  5  1  0  0  0  0
  4  3  2  0  0  0  0
  5  6  1  0  0  0  0
  6 11  1  0  0  0  0
  6  7  1  0  0  0  0
  7  8  2  0  0  0  0
  9 10  2  0  0  0  0
  9  4  1  0  0  0  0
 10  1  1  0  0  0  0
 12  1  1  0  0  0  0
 12 13  1  0  0  0  0
 13 14  1  0  0  0  0
 14 19  1  0  0  0  0
 15 14  1  0  0  0  0
 15 16  2  0  0  0  0
 16 17  1  0  0  0  0
 17 18  1  0  0  0  0
 18 20  2  0  0  0  0
 19 17  2  0  0  0  0
 19 23  1  0  0  0  0
 20 21  1  0  0  0  0
 22 20  1  0  0  0  0
 23 22  2  0  0  0  0
 24  9  1  0  0  0  0
 24 25  2  0  0  0  0
 26 24  1  0  0  0  0
 27 26  1  0  0  0  0
M  END
>  <Pose>
1

>  <Score>
-8.713

$$$$
