/Users/jonathanwahrer/Desktop/Msc/3_Semester/Drug_Design_Praktikum/waehrer_HTS_screening/HTS_experiment/out/docking_results/vina_output/3sx0/1690_docked.pdbqt
 OpenBabel03192222473D

 34 37  0  0  1  0  0  0  0  0999 V2000
   13.5870   64.3850  -12.9240 C   0  0  0  0  0  0  0  0  0  0  0  0
   12.8690   63.6150  -12.2360 O   0  0  0  0  0  0  0  0  0  0  0  0
   13.1890   64.7770  -14.2370 N   0  0  0  0  0  0  0  0  0  0  0  0
   13.9630   65.6560  -15.0860 C   0  0  0  0  0  2  0  0  0  0  0  0
   13.0310   66.5760  -15.8940 C   0  0  2  0  0  0  0  0  0  0  0  0
   11.7780   66.7090  -15.0980 C   0  0  2  0  0  3  0  0  0  0  0  0
   11.0120   65.4080  -15.1540 C   0  0  0  0  0  2  0  0  0  0  0  0
   11.9400   64.2750  -14.7680 C   0  0  0  0  0  2  0  0  0  0  0  0
   12.8700   65.9520  -17.2450 C   0  0  0  0  0  1  0  0  0  0  0  0
   14.8600   64.9010  -12.3940 C   0  0  0  0  0  2  0  0  0  0  0  0
   15.0280   64.4540  -10.9700 C   0  0  0  0  0  2  0  0  0  0  0  0
   16.4520   64.1110  -10.7390 C   0  0  0  0  0  0  0  0  0  0  0  0
   17.4250   64.1610  -11.6890 N   0  0  0  0  0  0  0  0  0  0  0  0
   18.6030   63.7800  -11.1770 C   0  0  0  0  0  0  0  0  0  0  0  0
   17.2420   64.4630  -12.6850 H   0  0  0  0  0  0  0  0  0  0  0  0
   19.8670   63.6580  -11.7030 C   0  0  0  0  0  3  0  0  0  0  0  0
   18.3690   63.4790   -9.8580 C   0  0  0  0  0  0  0  0  0  0  0  0
   20.9400   63.2320  -10.9390 C   0  0  0  0  0  0  0  0  0  0  0  0
   22.5520   63.0730  -11.5970 Cl  0  0  0  0  0  0  0  0  0  0  0  0
   20.6970   62.9300   -9.6110 C   0  0  0  0  0  3  0  0  0  0  0  0
   19.4200   63.0540   -9.0770 C   0  0  0  0  0  3  0  0  0  0  0  0
   17.0670   63.6920   -9.6440 N   0  0  0  0  0  0  0  0  0  0  0  0
   13.7240   67.7890  -16.0090 O   0  0  0  0  0  0  0  0  0  0  0  0
   13.9600   67.9390  -16.9800 H   0  0  0  0  0  0  0  0  0  0  0  0
   10.9780   67.8490  -15.3770 N   0  0  0  0  0  0  0  0  0  0  0  0
   10.0090   67.8700  -16.3050 C   0  0  0  0  0  3  0  0  0  0  0  0
    9.2460   69.0050  -16.5500 C   0  0  0  0  0  0  0  0  0  0  0  0
    9.4900   70.1450  -15.8200 C   0  0  0  0  0  0  0  0  0  0  0  0
    8.1730   68.9670  -17.6030 C   0  0  0  0  0  1  0  0  0  0  0  0
    8.7950   71.1850  -16.0410 O   0  0  0  0  0  0  0  0  0  0  0  0
   10.4590   70.1210  -14.8950 N   0  0  0  0  0  0  0  0  0  0  0  0
   11.1690   68.9980  -14.6940 C   0  0  0  0  0  0  0  0  0  0  0  0
   10.6530   70.9770  -14.3350 H   0  0  0  0  0  0  0  0  0  0  0  0
   12.0950   68.9800  -13.8080 O   0  0  0  0  0  0  0  0  0  0  0  0
  1 10  1  0  0  0  0
  1  2  2  0  0  0  0
  3  1  1  0  0  0  0
  4  3  1  0  0  0  0
  5  9  1  6  0  0  0
  5  6  1  0  0  0  0
  5  4  1  0  0  0  0
  6 25  1  6  0  0  0
  7  6  1  0  0  0  0
  7  8  1  0  0  0  0
  8  3  1  0  0  0  0
 10 11  1  0  0  0  0
 11 12  1  0  0  0  0
 12 22  2  0  0  0  0
 13 14  1  0  0  0  0
 13 12  1  0  0  0  0
 14 17  1  0  0  0  0
 15 13  1  0  0  0  0
 16 14  2  0  0  0  0
 16 18  1  0  0  0  0
 17 22  1  0  0  0  0
 17 21  2  0  0  0  0
 18 20  2  0  0  0  0
 19 18  1  0  0  0  0
 20 21  1  0  0  0  0
 23  5  1  0  0  0  0
 24 23  1  0  0  0  0
 25 32  1  0  0  0  0
 26 25  1  0  0  0  0
 27 26  2  0  0  0  0
 27 28  1  0  0  0  0
 28 31  1  0  0  0  0
 29 27  1  0  0  0  0
 30 28  2  0  0  0  0
 31 32  1  0  0  0  0
 31 33  1  0  0  0  0
 32 34  2  0  0  0  0
M  END
>  <Pose>
1

>  <Score>
-6.883

$$$$
