/Users/jonathanwahrer/Desktop/Msc/3_Semester/Drug_Design_Praktikum/waehrer_HTS_screening/HTS_experiment/out/docking_results/vina_output/3sx0/1691_docked.pdbqt
 OpenBabel03192222473D

 35 39  0  0  1  0  0  0  0  0999 V2000
   13.9150   64.3490  -12.7120 C   0  0  0  0  0  0  0  0  0  0  0  0
   15.0000   64.9590  -12.7610 O   0  0  0  0  0  0  0  0  0  0  0  0
   13.1010   64.2650  -13.8520 N   0  0  0  0  0  0  0  0  0  0  0  0
   13.2590   64.7830  -15.1740 C   0  0  0  0  0  2  0  0  0  0  0  0
   11.8490   65.2930  -15.5600 C   0  0  1  0  0  3  0  0  0  0  0  0
   11.0150   64.2770  -14.8630 C   0  0  2  0  0  3  0  0  0  0  0  0
   11.8460   63.5370  -13.8700 C   0  0  0  0  0  2  0  0  0  0  0  0
   13.4990   63.7190  -11.4490 C   0  0  0  0  0  2  0  0  0  0  0  0
   14.0020   62.2950  -11.3760 C   0  0  0  0  0  2  0  0  0  0  0  0
   15.4220   62.3050  -10.8920 C   0  0  0  0  0  0  0  0  0  0  0  0
   16.1370   63.4160  -10.6480 N   0  0  0  0  0  0  0  0  0  0  0  0
   17.3740   63.1080  -10.2240 C   0  0  0  0  0  0  0  0  0  0  0  0
   15.8040   64.4110  -10.7610 H   0  0  0  0  0  0  0  0  0  0  0  0
   18.4770   63.8750   -9.8470 C   0  0  0  0  0  3  0  0  0  0  0  0
   17.4340   61.7310  -10.2040 C   0  0  0  0  0  0  0  0  0  0  0  0
   19.6400   63.2560   -9.4510 C   0  0  0  0  0  0  0  0  0  0  0  0
   21.0580   64.1780   -8.9660 Cl  0  0  0  0  0  0  0  0  0  0  0  0
   19.6950   61.8900   -9.4310 C   0  0  0  0  0  3  0  0  0  0  0  0
   18.6000   61.1120   -9.8050 C   0  0  0  0  0  3  0  0  0  0  0  0
   16.2310   61.2820  -10.6150 N   0  0  0  0  0  0  0  0  0  0  0  0
   11.6950   66.6310  -15.0640 N   0  0  0  0  0  0  0  0  0  0  0  0
   12.2900   67.7520  -15.5060 C   0  0  0  0  0  0  0  0  0  0  0  0
   11.8410   68.8370  -14.7250 C   0  0  0  0  0  0  0  0  0  0  0  0
   13.1740   67.9750  -16.4980 N   0  0  0  0  0  0  0  0  0  0  0  0
   10.9830   68.3200  -13.8310 N   0  0  0  0  0  0  0  0  0  0  0  0
   12.2900   70.1180  -14.9570 C   0  0  0  0  0  0  0  0  0  0  0  0
   10.8840   67.0060  -14.0190 C   0  0  0  0  0  3  0  0  0  0  0  0
   11.8700   71.0670  -14.2420 O   0  0  0  0  0  0  0  0  0  0  0  0
   13.1670   70.2980  -15.9510 N   0  0  0  0  0  0  0  0  0  0  0  0
   13.5860   69.2660  -16.6850 C   0  0  0  0  0  0  0  0  0  0  0  0
   13.6630   71.6490  -16.2220 C   0  0  0  0  0  1  0  0  0  0  0  0
   14.4120   69.4530  -17.6160 O   0  0  0  0  0  0  0  0  0  0  0  0
   13.6670   66.9180  -17.3220 C   0  0  0  0  0  1  0  0  0  0  0  0
   10.4690   63.3260  -15.7240 O   0  0  0  0  0  0  0  0  0  0  0  0
   10.8420   62.4160  -15.5510 H   0  0  0  0  0  0  0  0  0  0  0  0
  1  8  1  0  0  0  0
  2  1  2  0  0  0  0
  3  1  1  0  0  0  0
  4  3  1  0  0  0  0
  5  4  1  1  0  0  0
  5 21  1  0  0  0  0
  5  6  1  0  0  0  0
  6 34  1  6  0  0  0
  6  7  1  0  0  0  0
  7  3  1  0  0  0  0
  8  9  1  0  0  0  0
  9 10  1  0  0  0  0
 10 11  1  0  0  0  0
 10 20  2  0  0  0  0
 11 12  1  0  0  0  0
 12 15  2  0  0  0  0
 12 14  1  0  0  0  0
 13 11  1  0  0  0  0
 14 16  2  0  0  0  0
 15 19  1  0  0  0  0
 16 18  1  0  0  0  0
 16 17  1  0  0  0  0
 19 18  2  0  0  0  0
 20 15  1  0  0  0  0
 21 27  1  0  0  0  0
 22 21  1  0  0  0  0
 22 23  2  0  0  0  0
 23 25  1  0  0  0  0
 24 22  1  0  0  0  0
 26 23  1  0  0  0  0
 26 28  2  0  0  0  0
 27 25  2  0  0  0  0
 29 26  1  0  0  0  0
 30 24  1  0  0  0  0
 30 29  1  0  0  0  0
 31 29  1  0  0  0  0
 32 30  2  0  0  0  0
 33 24  1  0  0  0  0
 34 35  1  0  0  0  0
M  END
>  <Pose>
1

>  <Score>
-7.468

$$$$
