/Users/jonathanwahrer/Desktop/Msc/3_Semester/Drug_Design_Praktikum/waehrer_HTS_screening/HTS_experiment/out/docking_results/vina_output/3sx0/1699_docked.pdbqt
 OpenBabel03192222473D

 31 34  0  0  1  0  0  0  0  0999 V2000
   14.9240   65.0390  -11.2170 Cl  0  0  0  0  0  0  0  0  0  0  0  0
   16.0600   63.8130  -10.7570 C   0  0  0  0  0  0  0  0  0  0  0  0
   17.3300   64.1490  -10.3110 C   0  0  0  0  0  3  0  0  0  0  0  0
   18.2450   63.1840   -9.9410 C   0  0  0  0  0  0  0  0  0  0  0  0
   17.8650   61.8740  -10.0240 C   0  0  0  0  0  0  0  0  0  0  0  0
   16.5940   61.4940  -10.4670 C   0  0  0  0  0  3  0  0  0  0  0  0
   15.7060   62.4830  -10.8280 C   0  0  0  0  0  3  0  0  0  0  0  0
   18.9400   61.0360   -9.6230 N   0  0  0  0  0  0  0  0  0  0  0  0
   20.0400   61.8640   -9.2780 C   0  0  0  0  0  0  0  0  0  0  0  0
   21.1540   61.3660   -8.9130 O   0  0  0  0  0  0  0  0  0  0  0  0
   19.6120   63.2490   -9.4300 C   0  0  2  0  0  0  0  0  0  0  0  0
   19.6890   63.9900   -8.1680 N   0  0  0  0  0  0  0  0  0  0  0  0
   21.1130   64.2160   -8.0640 C   0  0  1  0  0  3  0  0  0  0  0  0
   21.5910   64.5290   -9.4440 C   0  0  2  0  0  3  0  0  0  0  0  0
   20.4500   64.1010  -10.3170 C   0  0  1  0  0  3  0  0  0  0  0  0
   21.0190   63.4000  -11.4950 C   0  0  0  0  0  0  0  0  0  0  0  0
   20.2900   63.0420  -12.4570 O   0  0  0  0  0  0  0  0  0  0  0  0
   22.4130   63.2590  -11.2800 N   0  0  0  0  0  0  0  0  0  0  0  0
   22.6710   63.6020   -9.9140 C   0  0  0  0  0  0  0  0  0  0  0  0
   23.6070   63.2280   -9.2000 O   0  0  0  0  0  0  0  0  0  0  0  0
   18.9290   59.9730   -9.5830 H   0  0  0  0  0  0  0  0  0  0  0  0
   19.2360   64.9120   -8.3630 H   0  0  0  0  0  0  0  0  0  0  0  0
   21.4540   65.2880   -7.0610 C   0  0  2  0  0  3  0  0  0  0  0  0
   22.9220   65.6280   -7.0540 C   0  0  0  0  0  1  0  0  0  0  0  0
   21.0610   64.8370   -5.8080 O   0  0  0  0  0  0  0  0  0  0  0  0
   21.7310   65.0300   -5.1040 H   0  0  0  0  0  0  0  0  0  0  0  0
   23.3790   62.8600  -12.2330 C   0  0  0  0  0  2  0  0  0  0  0  0
   24.5270   63.7480  -12.5110 C   0  0  0  0  0  2  0  0  0  0  0  0
   25.2210   63.5970  -13.8100 C   0  0  0  0  0  2  0  0  0  0  0  0
   26.6020   63.7190  -13.7830 O   0  0  0  0  0  0  0  0  0  0  0  0
   27.0770   63.4250  -15.0840 C   0  0  0  0  0  1  0  0  0  0  0  0
  1  2  1  0  0  0  0
  2  3  1  0  0  0  0
  3  4  2  0  0  0  0
  5  4  1  0  0  0  0
  5  8  1  0  0  0  0
  6  5  2  0  0  0  0
  7  2  2  0  0  0  0
  7  6  1  0  0  0  0
  8 21  1  0  0  0  0
  8  9  1  0  0  0  0
  9 10  2  0  0  0  0
 11  4  1  6  0  0  0
 11  9  1  0  0  0  0
 11 12  1  0  0  0  0
 12 13  1  0  0  0  0
 13 23  1  1  0  0  0
 14 19  1  6  0  0  0
 14 13  1  0  0  0  0
 15 16  1  6  0  0  0
 15 14  1  0  0  0  0
 15 11  1  0  0  0  0
 16 18  1  0  0  0  0
 17 16  2  0  0  0  0
 18 19  1  0  0  0  0
 19 20  2  0  0  0  0
 22 12  1  0  0  0  0
 23 24  1  1  0  0  0
 23 25  1  0  0  0  0
 25 26  1  0  0  0  0
 27 18  1  0  0  0  0
 28 27  1  0  0  0  0
 29 30  1  0  0  0  0
 29 28  1  0  0  0  0
 31 30  1  0  0  0  0
M  END
>  <Pose>
1

>  <Score>
-6.185

$$$$
