/Users/jonathanwahrer/Desktop/Msc/3_Semester/Drug_Design_Praktikum/waehrer_HTS_screening/HTS_experiment/out/docking_results/vina_output/3sx0/1706_docked.pdbqt
 OpenBabel03192222473D

 25 28  0  0  1  0  0  0  0  0999 V2000
   23.9830   64.7400   -8.2900 F   0  0  0  0  0  0  0  0  0  0  0  0
   22.6590   64.3670   -8.2770 C   0  0  0  0  0  0  0  0  0  0  0  0
   22.0750   63.9300   -9.4730 C   0  0  0  0  0  0  0  0  0  0  0  0
   20.7660   63.5560   -9.4820 C   0  0  0  0  0  0  0  0  0  0  0  0
   20.0090   63.6060   -8.3030 C   0  0  0  0  0  3  0  0  0  0  0  0
   20.6050   64.0360   -7.1490 C   0  0  0  0  0  3  0  0  0  0  0  0
   21.9240   64.4190   -7.1180 C   0  0  0  0  0  0  0  0  0  0  0  0
   22.6900   64.9730   -5.6230 Cl  0  0  0  0  0  0  0  0  0  0  0  0
   20.4010   63.1400  -10.8610 C   0  0  2  0  0  0  0  0  0  0  0  0
   19.3280   63.9570  -11.3330 N   0  0  0  0  0  0  0  0  0  0  0  0
   17.9840   63.6170  -11.0720 C   0  0  0  0  0  0  0  0  0  0  0  0
   16.9740   64.5160  -11.2070 N   0  0  0  0  0  0  0  0  0  0  0  0
   15.6860   64.2460  -10.9720 C   0  0  0  0  0  3  0  0  0  0  0  0
   15.3260   62.9670  -10.5620 C   0  0  0  0  0  3  0  0  0  0  0  0
   16.2820   62.0040  -10.4010 C   0  0  0  0  0  3  0  0  0  0  0  0
   17.5900   62.3520  -10.6610 C   0  0  0  0  0  0  0  0  0  0  0  0
   18.6890   61.3920  -10.5190 C   0  0  0  0  0  0  0  0  0  0  0  0
   18.3720   60.2130  -10.1420 O   0  0  0  0  0  0  0  0  0  0  0  0
   20.0260   61.7380  -10.7820 N   0  0  0  0  0  0  0  0  0  0  0  0
   21.6330   63.3180  -11.6370 C   0  0  0  0  0  0  0  0  0  0  0  0
   21.8030   63.0850  -12.8900 O   0  0  0  0  0  0  0  0  0  0  0  0
   22.6410   63.7960  -10.7830 N   0  0  0  0  0  0  0  0  0  0  0  0
   19.5100   64.8300  -11.8860 H   0  0  0  0  0  0  0  0  0  0  0  0
   20.7100   60.9570  -10.9120 H   0  0  0  0  0  0  0  0  0  0  0  0
   23.6440   64.0320  -11.0030 H   0  0  0  0  0  0  0  0  0  0  0  0
  1  2  1  0  0  0  0
  2  7  1  0  0  0  0
  3  2  2  0  0  0  0
  4  3  1  0  0  0  0
  4  5  2  0  0  0  0
  5  6  1  0  0  0  0
  6  7  2  0  0  0  0
  7  8  1  0  0  0  0
  9 20  1  6  0  0  0
  9 19  1  0  0  0  0
  9  4  1  0  0  0  0
 10 11  1  0  0  0  0
 10  9  1  0  0  0  0
 11 16  1  0  0  0  0
 12 11  2  0  0  0  0
 12 13  1  0  0  0  0
 13 14  2  0  0  0  0
 14 15  1  0  0  0  0
 16 17  1  0  0  0  0
 16 15  2  0  0  0  0
 17 18  2  0  0  0  0
 19 17  1  0  0  0  0
 20 22  1  0  0  0  0
 21 20  2  0  0  0  0
 22  3  1  0  0  0  0
 23 10  1  0  0  0  0
 24 19  1  0  0  0  0
 25 22  1  0  0  0  0
M  END
>  <Pose>
1

>  <Score>
-9.638

$$$$
