/Users/jonathanwahrer/Desktop/Msc/3_Semester/Drug_Design_Praktikum/waehrer_HTS_screening/HTS_experiment/out/docking_results/vina_output/3sx0/1718_docked.pdbqt
 OpenBabel03192222483D

 34 38  0  0  1  0  0  0  0  0999 V2000
   20.2800   61.9170  -13.0440 Cl  0  0  0  0  0  0  0  0  0  0  0  0
   19.6050   62.6490  -11.6060 C   0  0  0  0  0  0  0  0  0  0  0  0
   20.4690   63.4040  -10.8110 C   0  0  0  0  0  0  0  0  0  0  0  0
   19.9750   63.9970   -9.6700 C   0  0  0  0  0  0  0  0  0  0  0  0
   18.6260   63.8100   -9.3650 C   0  0  0  0  0  3  0  0  0  0  0  0
   17.7810   63.0620  -10.1560 C   0  0  0  0  0  3  0  0  0  0  0  0
   18.2750   62.4700  -11.2990 C   0  0  0  0  0  3  0  0  0  0  0  0
   21.0260   64.7380   -8.9730 C   0  0  1  0  0  0  0  0  0  0  0  0
   20.6960   66.1380   -8.7790 N   0  0  0  0  0  0  0  0  0  0  0  0
   21.5350   66.5770   -7.6720 C   0  0  2  0  0  3  0  0  0  0  0  0
   21.6860   65.3900   -6.7600 C   0  0  1  0  0  3  0  0  0  0  0  0
   21.3270   64.1870   -7.5970 C   0  0  2  0  0  3  0  0  0  0  0  0
   22.5340   63.3230   -7.6050 C   0  0  0  0  0  0  0  0  0  0  0  0
   22.6050   62.2940   -8.3320 O   0  0  0  0  0  0  0  0  0  0  0  0
   23.4980   63.8470   -6.7070 N   0  0  0  0  0  0  0  0  0  0  0  0
   23.1460   65.2000   -6.4580 C   0  0  0  0  0  0  0  0  0  0  0  0
   23.8830   66.1410   -6.0490 O   0  0  0  0  0  0  0  0  0  0  0  0
   22.2260   64.5530   -9.8050 C   0  0  0  0  0  0  0  0  0  0  0  0
   23.4010   65.0300   -9.5970 O   0  0  0  0  0  0  0  0  0  0  0  0
   21.8470   63.7400  -10.9020 N   0  0  0  0  0  0  0  0  0  0  0  0
   19.6830   66.2750   -8.5680 H   0  0  0  0  0  0  0  0  0  0  0  0
   22.4860   63.4220  -11.6800 H   0  0  0  0  0  0  0  0  0  0  0  0
   20.8760   67.7410   -6.9920 C   0  0  0  0  0  2  0  0  0  0  0  0
   21.9630   68.6880   -6.5880 C   0  0  0  0  0  0  0  0  0  0  0  0
   21.6940   69.4890   -5.6570 O   0  0  0  0  0  0  0  0  0  0  0  0
   23.2380   68.6970   -7.2080 N   0  0  0  0  0  0  0  0  0  0  0  0
   23.8960   67.9240   -6.9860 H   0  0  0  0  0  0  0  0  0  0  0  0
   23.5570   69.4290   -7.8730 H   0  0  0  0  0  0  0  0  0  0  0  0
   24.6030   63.1500   -6.1580 C   0  0  0  0  0  2  0  0  0  0  0  0
   24.5540   62.8240   -4.7180 C   0  0  2  0  0  3  0  0  0  0  0  0
   23.6010   63.5170   -3.9870 O   0  0  0  0  0  0  0  0  0  0  0  0
   23.7350   62.9140   -2.7360 C   0  0  0  0  0  2  0  0  0  0  0  0
   25.2480   62.8400   -2.4990 C   0  0  0  0  0  2  0  0  0  0  0  0
   25.7920   63.0260   -3.9260 C   0  0  0  0  0  2  0  0  0  0  0  0
  1  2  1  0  0  0  0
  2  7  2  0  0  0  0
  2  3  1  0  0  0  0
  3  4  2  0  0  0  0
  4  5  1  0  0  0  0
  4  8  1  0  0  0  0
  6  5  2  0  0  0  0
  7  6  1  0  0  0  0
  8 18  1  6  0  0  0
  8  9  1  0  0  0  0
  8 12  1  0  0  0  0
  9 21  1  0  0  0  0
  9 10  1  0  0  0  0
 10 23  1  1  0  0  0
 10 11  1  0  0  0  0
 11 16  1  6  0  0  0
 12 13  1  6  0  0  0
 12 11  1  0  0  0  0
 13 15  1  0  0  0  0
 14 13  2  0  0  0  0
 15 16  1  0  0  0  0
 15 29  1  0  0  0  0
 16 17  2  0  0  0  0
 18 19  2  0  0  0  0
 20  3  1  0  0  0  0
 20 18  1  0  0  0  0
 22 20  1  0  0  0  0
 23 24  1  0  0  0  0
 24 25  2  0  0  0  0
 26 27  1  0  0  0  0
 26 24  1  0  0  0  0
 28 26  1  0  0  0  0
 30 29  1  6  0  0  0
 30 31  1  0  0  0  0
 30 34  1  0  0  0  0
 31 32  1  0  0  0  0
 32 33  1  0  0  0  0
 34 33  1  0  0  0  0
M  END
>  <Pose>
1

>  <Score>
-8.425

$$$$
