/Users/jonathanwahrer/Desktop/Msc/3_Semester/Drug_Design_Praktikum/waehrer_HTS_screening/HTS_experiment/out/docking_results/vina_output/3sx0/1732_docked.pdbqt
 OpenBabel03192222483D

 28 31  0  0  0  0  0  0  0  0999 V2000
   21.1430   63.5100  -11.0190 N   0  0  0  0  0  0  0  0  0  0  0  0
   20.9580   62.8220  -12.1340 N   0  0  0  0  0  2  0  0  0  0  0  0
   19.6590   62.7130  -12.3880 N   0  0  0  0  0  0  0  0  0  0  0  0
   18.9850   63.3500  -11.4080 C   0  0  0  0  0  0  0  0  0  0  0  0
   19.9340   63.8270  -10.5860 N   0  0  0  0  0  2  0  0  0  0  0  0
   22.4270   63.8560  -10.3900 C   0  0  0  0  0  2  0  0  0  0  0  0
   23.5640   63.3470  -11.2030 C   0  0  0  0  0  0  0  0  0  0  0  0
   23.9900   64.0070  -12.3550 N   0  0  0  0  0  0  0  0  0  0  0  0
   23.4510   64.8880  -12.6060 H   0  0  0  0  0  0  0  0  0  0  0  0
   24.1130   62.3030  -10.8040 O   0  0  0  0  0  0  0  0  0  0  0  0
   25.0400   63.6630  -13.2340 C   0  0  0  0  0  0  0  0  0  0  0  0
   24.8040   63.5290  -14.6020 C   0  0  0  0  0  0  0  0  0  0  0  0
   23.0440   63.8200  -15.2370 Br  0  0  0  0  0  0  0  0  0  0  0  0
   25.7740   63.1990  -15.5160 C   0  0  0  0  0  3  0  0  0  0  0  0
   27.0620   62.9810  -15.0810 C   0  0  0  0  0  3  0  0  0  0  0  0
   27.3570   63.0980  -13.7460 C   0  0  0  0  0  3  0  0  0  0  0  0
   26.3460   63.4370  -12.8430 C   0  0  0  0  0  3  0  0  0  0  0  0
   17.5410   63.4840  -11.2810 C   0  0  0  0  0  0  0  0  0  0  0  0
   16.8460   62.4600  -10.6800 C   0  0  0  0  0  0  0  0  0  0  0  0
   15.4730   62.5880  -10.5610 C   0  0  0  0  0  3  0  0  0  0  0  0
   14.7990   63.6920  -11.0190 C   0  0  0  0  0  3  0  0  0  0  0  0
   15.4940   64.7210  -11.6220 C   0  0  0  0  0  3  0  0  0  0  0  0
   16.8670   64.5910  -11.7400 C   0  0  0  0  0  3  0  0  0  0  0  0
   17.4760   61.2820  -10.1800 N   0  0  0  0  0  0  0  0  0  0  0  0
   16.9100   60.0820  -10.1740 N   0  0  0  0  0  0  0  0  0  0  0  0
   17.7510   59.2190   -9.6480 N   0  0  0  0  0  0  0  0  0  0  0  0
   18.8600   59.8760   -9.3170 N   0  0  0  0  0  0  0  0  0  0  0  0
   18.6870   61.1710   -9.6520 C   0  0  0  0  0  3  0  0  0  0  0  0
  1  5  1  0  0  0  0
  1  6  1  0  0  0  0
  2  1  1  0  0  0  0
  3  2  1  0  0  0  0
  3  4  2  0  0  0  0
  4 18  1  0  0  0  0
  4  5  1  0  0  0  0
  7 10  2  0  0  0  0
  7  6  1  0  0  0  0
  8  7  1  0  0  0  0
  9  8  1  0  0  0  0
 11 17  1  0  0  0  0
 11  8  1  0  0  0  0
 12 11  2  0  0  0  0
 13 12  1  0  0  0  0
 14 15  2  0  0  0  0
 14 12  1  0  0  0  0
 15 16  1  0  0  0  0
 16 17  2  0  0  0  0
 18 19  1  0  0  0  0
 19 20  2  0  0  0  0
 19 24  1  0  0  0  0
 21 20  1  0  0  0  0
 22 21  2  0  0  0  0
 23 22  1  0  0  0  0
 23 18  2  0  0  0  0
 24 25  1  0  0  0  0
 24 28  1  0  0  0  0
 25 26  2  0  0  0  0
 26 27  1  0  0  0  0
 28 27  2  0  0  0  0
M  END
>  <Pose>
1

>  <Score>
-9.098

$$$$
