/Users/jonathanwahrer/Desktop/Msc/3_Semester/Drug_Design_Praktikum/waehrer_HTS_screening/HTS_experiment/out/docking_results/vina_output/3sx0/1736_docked.pdbqt
 OpenBabel03192222493D

 35 39  0  0  1  0  0  0  0  0999 V2000
   14.3750   59.8590  -17.6120 Cl  0  0  0  0  0  0  0  0  0  0  0  0
   12.8450   60.3940  -16.8990 C   0  0  0  0  0  0  0  0  0  0  0  0
   12.8050   61.4630  -16.0390 C   0  0  0  0  0  3  0  0  0  0  0  0
   11.6170   61.8710  -15.4920 C   0  0  0  0  0  0  0  0  0  0  0  0
   10.4640   61.2000  -15.8120 C   0  0  0  0  0  0  0  0  0  0  0  0
   10.4740   60.1110  -16.6830 C   0  0  0  0  0  3  0  0  0  0  0  0
   11.6840   59.7250  -17.2160 C   0  0  0  0  0  3  0  0  0  0  0  0
    9.3450   61.7610  -15.1510 N   0  0  0  0  0  0  0  0  0  0  0  0
    9.8350   62.8450  -14.3760 C   0  0  0  0  0  0  0  0  0  0  0  0
    9.1450   63.5870  -13.6450 O   0  0  0  0  0  0  0  0  0  0  0  0
   11.2940   62.9720  -14.5560 C   0  0  1  0  0  0  0  0  0  0  0  0
   12.0170   62.8660  -13.3120 N   0  0  0  0  0  0  0  0  0  0  0  0
   13.1240   63.7680  -13.3730 C   0  0  1  0  0  3  0  0  0  0  0  0
   12.6840   64.9470  -14.2100 C   0  0  2  0  0  3  0  0  0  0  0  0
   11.6260   64.3210  -15.0820 C   0  0  1  0  0  3  0  0  0  0  0  0
   12.1640   64.3260  -16.4640 C   0  0  0  0  0  0  0  0  0  0  0  0
   11.8220   63.6240  -17.4500 O   0  0  0  0  0  0  0  0  0  0  0  0
   13.1990   65.3300  -16.4790 N   0  0  0  0  0  0  0  0  0  0  0  0
   13.7350   65.4270  -15.1430 C   0  0  0  0  0  0  0  0  0  0  0  0
   14.8750   65.8400  -14.8070 O   0  0  0  0  0  0  0  0  0  0  0  0
    8.3260   61.4660  -15.1950 H   0  0  0  0  0  0  0  0  0  0  0  0
   12.3060   61.8960  -13.1500 H   0  0  0  0  0  0  0  0  0  0  0  0
   13.5770   64.1980  -11.9940 C   0  0  1  0  0  3  0  0  0  0  0  0
   13.6900   62.9270  -11.1600 C   0  0  0  0  0  1  0  0  0  0  0  0
   14.8680   64.7040  -12.1150 O   0  0  0  0  0  0  0  0  0  0  0  0
   15.3840   64.1460  -12.7400 H   0  0  0  0  0  0  0  0  0  0  0  0
   13.6380   66.1100  -17.6160 C   0  0  0  0  0  2  0  0  0  0  0  0
   13.2940   67.5500  -17.4130 C   0  0  0  0  0  0  0  0  0  0  0  0
   11.9800   67.9660  -17.3980 C   0  0  0  0  0  0  0  0  0  0  0  0
   11.6870   69.3060  -17.2070 C   0  0  0  0  0  3  0  0  0  0  0  0
   12.6760   70.2530  -17.0280 C   0  0  0  0  0  3  0  0  0  0  0  0
   13.9930   69.8470  -17.0420 C   0  0  0  0  0  3  0  0  0  0  0  0
   14.2700   68.5130  -17.2330 C   0  0  0  0  0  3  0  0  0  0  0  0
   10.9790   67.0060  -17.5790 O   0  0  0  0  0  0  0  0  0  0  0  0
    9.7270   67.1960  -16.9100 C   0  0  0  0  0  1  0  0  0  0  0  0
  1  2  1  0  0  0  0
  2  3  1  0  0  0  0
  3  4  2  0  0  0  0
  5  4  1  0  0  0  0
  5  8  1  0  0  0  0
  6  5  2  0  0  0  0
  7  2  2  0  0  0  0
  7  6  1  0  0  0  0
  8  9  1  0  0  0  0
  9 10  2  0  0  0  0
 11  4  1  6  0  0  0
 11  9  1  0  0  0  0
 11 12  1  0  0  0  0
 12 22  1  0  0  0  0
 13 12  1  0  0  0  0
 13 23  1  1  0  0  0
 14 19  1  6  0  0  0
 14 13  1  0  0  0  0
 15 16  1  6  0  0  0
 15 11  1  0  0  0  0
 15 14  1  0  0  0  0
 17 16  2  0  0  0  0
 18 16  1  0  0  0  0
 18 19  1  0  0  0  0
 19 20  2  0  0  0  0
 21  8  1  0  0  0  0
 23 24  1  1  0  0  0
 25 23  1  0  0  0  0
 26 25  1  0  0  0  0
 27 28  1  0  0  0  0
 27 18  1  0  0  0  0
 28 29  2  0  0  0  0
 28 33  1  0  0  0  0
 29 30  1  0  0  0  0
 30 31  2  0  0  0  0
 32 31  1  0  0  0  0
 33 32  2  0  0  0  0
 34 29  1  0  0  0  0
 34 35  1  0  0  0  0
M  END
>  <Pose>
1

>  <Score>
-3.685

$$$$
