/Users/jonathanwahrer/Desktop/Msc/3_Semester/Drug_Design_Praktikum/waehrer_HTS_screening/HTS_experiment/out/docking_results/vina_output/3sx0/1744_docked.pdbqt
 OpenBabel03192222493D

 34 37  0  0  1  0  0  0  0  0999 V2000
   21.2920   63.3920   -9.4960 N   0  0  0  0  0  0  0  0  0  0  0  0
   21.9120   63.6790  -10.7480 C   0  0  0  0  0  0  0  0  0  0  0  0
   22.9820   64.3250  -10.8630 O   0  0  0  0  0  0  0  0  0  0  0  0
   21.2820   63.2050  -11.9370 N   0  0  0  0  0  0  0  0  0  0  0  0
   20.0570   62.4630  -11.8370 C   0  0  0  0  0  0  0  0  0  0  0  0
   19.6790   61.8700  -12.9020 O   0  0  0  0  0  0  0  0  0  0  0  0
   19.2750   62.3830  -10.5890 C   0  0  1  0  0  3  0  0  0  0  0  0
   20.0830   62.6550   -9.3750 C   0  0  0  0  0  0  0  0  0  0  0  0
   19.6650   62.2220   -8.2730 O   0  0  0  0  0  0  0  0  0  0  0  0
   21.6840   63.3820  -12.8930 H   0  0  0  0  0  0  0  0  0  0  0  0
   18.0940   63.3220  -10.6420 C   0  0  1  0  0  3  0  0  0  0  0  0
   17.1320   63.3530   -9.7380 C   0  0  0  0  0  2  0  0  0  0  0  0
   16.2020   64.4090  -10.1960 C   0  0  1  0  0  3  0  0  0  0  0  0
   17.0900   65.2930  -10.9300 N   0  0  0  0  0  0  0  0  0  0  0  0
   17.8430   64.3200  -11.6320 N   0  0  0  0  0  0  0  0  0  0  0  0
   16.6270   65.9770  -11.5340 H   0  0  0  0  0  0  0  0  0  0  0  0
   18.1680   64.2670  -12.5970 H   0  0  0  0  0  0  0  0  0  0  0  0
   15.1610   63.8410  -11.0980 C   0  0  0  0  0  0  0  0  0  0  0  0
   14.4490   64.5530  -12.0200 C   0  0  0  0  0  3  0  0  0  0  0  0
   13.5210   63.9700  -12.8600 C   0  0  0  0  0  0  0  0  0  0  0  0
   13.2760   62.6110  -12.7940 C   0  0  0  0  0  0  0  0  0  0  0  0
   14.0110   61.8840  -11.8430 C   0  0  0  0  0  3  0  0  0  0  0  0
   14.9310   62.4820  -11.0140 C   0  0  0  0  0  3  0  0  0  0  0  0
   12.8120   64.7490  -13.7920 O   0  0  0  0  0  0  0  0  0  0  0  0
   11.9300   64.3900  -14.1410 H   0  0  0  0  0  0  0  0  0  0  0  0
   12.3640   61.9960  -13.6170 O   0  0  0  0  0  0  0  0  0  0  0  0
   12.5390   61.9430  -15.0170 C   0  0  0  0  0  1  0  0  0  0  0  0
   21.9290   63.8890   -8.3250 C   0  0  0  0  0  0  0  0  0  0  0  0
   23.0220   63.2450   -7.7700 C   0  0  0  0  0  3  0  0  0  0  0  0
   23.6690   63.7060   -6.6500 C   0  0  0  0  0  0  0  0  0  0  0  0
   25.0380   62.8570   -5.9850 Cl  0  0  0  0  0  0  0  0  0  0  0  0
   23.1920   64.8660   -6.0670 C   0  0  0  0  0  3  0  0  0  0  0  0
   22.1040   65.5370   -6.5880 C   0  0  0  0  0  3  0  0  0  0  0  0
   21.4840   65.0280   -7.7240 C   0  0  0  0  0  3  0  0  0  0  0  0
  1  8  1  0  0  0  0
  1 28  1  0  0  0  0
  2  1  1  0  0  0  0
  3  2  2  0  0  0  0
  4  5  1  0  0  0  0
  4  2  1  0  0  0  0
  6  5  2  0  0  0  0
  7  5  1  6  0  0  0
  7  8  1  0  0  0  0
  8  9  2  0  0  0  0
 10  4  1  0  0  0  0
 11  7  1  0  0  0  0
 11 12  1  1  0  0  0
 13 18  1  6  0  0  0
 13 12  1  0  0  0  0
 14 13  1  0  0  0  0
 15 14  1  0  0  0  0
 15 11  1  0  0  0  0
 16 14  1  0  0  0  0
 17 15  1  0  0  0  0
 18 23  1  0  0  0  0
 19 18  2  0  0  0  0
 20 21  2  0  0  0  0
 20 19  1  0  0  0  0
 21 22  1  0  0  0  0
 22 23  2  0  0  0  0
 24 20  1  0  0  0  0
 25 24  1  0  0  0  0
 26 21  1  0  0  0  0
 27 26  1  0  0  0  0
 28 29  2  0  0  0  0
 28 34  1  0  0  0  0
 29 30  1  0  0  0  0
 30 32  2  0  0  0  0
 30 31  1  0  0  0  0
 33 32  1  0  0  0  0
 34 33  2  0  0  0  0
M  END
>  <Pose>
1

>  <Score>
-8.978

$$$$
