/Users/jonathanwahrer/Desktop/Msc/3_Semester/Drug_Design_Praktikum/waehrer_HTS_screening/HTS_experiment/out/docking_results/vina_output/3sx0/1745_docked.pdbqt
 OpenBabel03192222503D

 34 37  0  0  1  0  0  0  0  0999 V2000
   22.7180   63.4230  -10.4960 N   0  0  0  0  0  0  0  0  0  0  0  0
   23.2470   62.7630   -9.3560 C   0  0  0  0  0  0  0  0  0  0  0  0
   24.2840   62.0900   -9.4220 O   0  0  0  0  0  0  0  0  0  0  0  0
   22.5750   62.8680   -8.0920 N   0  0  0  0  0  0  0  0  0  0  0  0
   21.3780   63.6310   -7.9580 C   0  0  0  0  0  0  0  0  0  0  0  0
   21.0060   64.0980   -6.8680 O   0  0  0  0  0  0  0  0  0  0  0  0
   20.5450   63.8720   -9.1900 C   0  0  1  0  0  3  0  0  0  0  0  0
   21.5010   64.1680  -10.2780 C   0  0  0  0  0  0  0  0  0  0  0  0
   21.2850   65.1290  -11.1020 O   0  0  0  0  0  0  0  0  0  0  0  0
   22.9750   62.3810   -7.2800 H   0  0  0  0  0  0  0  0  0  0  0  0
   19.7060   62.6650   -9.4570 C   0  0  2  0  0  3  0  0  0  0  0  0
   18.9180   62.0040   -8.6350 C   0  0  0  0  0  2  0  0  0  0  0  0
   18.2970   60.8730   -9.3790 C   0  0  2  0  0  3  0  0  0  0  0  0
   19.2920   60.6820  -10.4650 N   0  0  0  0  0  0  0  0  0  0  0  0
   19.6640   62.0060  -10.7300 N   0  0  0  0  0  0  0  0  0  0  0  0
   20.0830   60.1040  -10.1180 H   0  0  0  0  0  0  0  0  0  0  0  0
   19.8680   62.4360  -11.6260 H   0  0  0  0  0  0  0  0  0  0  0  0
   17.0610   61.3570  -10.0530 C   0  0  0  0  0  0  0  0  0  0  0  0
   16.8420   62.7300  -10.2920 C   0  0  0  0  0  3  0  0  0  0  0  0
   15.7450   63.2150  -10.9350 C   0  0  0  0  0  0  0  0  0  0  0  0
   14.7790   62.3380  -11.3890 C   0  0  0  0  0  0  0  0  0  0  0  0
   14.9600   60.9910  -11.1720 C   0  0  0  0  0  3  0  0  0  0  0  0
   16.0750   60.5140  -10.5200 C   0  0  0  0  0  3  0  0  0  0  0  0
   15.5740   64.5920  -11.1430 O   0  0  0  0  0  0  0  0  0  0  0  0
   15.7710   65.4850  -10.0690 C   0  0  0  0  0  1  0  0  0  0  0  0
   13.6520   62.8160  -12.0490 O   0  0  0  0  0  0  0  0  0  0  0  0
   13.0580   63.4890  -11.5810 H   0  0  0  0  0  0  0  0  0  0  0  0
   23.3180   63.4160  -11.7840 C   0  0  0  0  0  0  0  0  0  0  0  0
   24.7160   63.4340  -11.8500 C   0  0  0  0  0  3  0  0  0  0  0  0
   25.3930   63.4430  -13.0490 C   0  0  0  0  0  0  0  0  0  0  0  0
   27.1350   63.4700  -13.0330 Cl  0  0  0  0  0  0  0  0  0  0  0  0
   24.7220   63.4360  -14.2440 C   0  0  0  0  0  3  0  0  0  0  0  0
   23.3260   63.4170  -14.1880 C   0  0  0  0  0  3  0  0  0  0  0  0
   22.6570   63.4080  -12.9830 C   0  0  0  0  0  3  0  0  0  0  0  0
  1  8  1  0  0  0  0
  1  2  1  0  0  0  0
  2  4  1  0  0  0  0
  3  2  2  0  0  0  0
  4  5  1  0  0  0  0
  4 10  1  0  0  0  0
  5  6  2  0  0  0  0
  7  8  1  6  0  0  0
  7  5  1  0  0  0  0
  9  8  2  0  0  0  0
 11  7  1  0  0  0  0
 11 12  1  1  0  0  0
 13 18  1  6  0  0  0
 13 12  1  0  0  0  0
 14 16  1  0  0  0  0
 14 13  1  0  0  0  0
 15 14  1  0  0  0  0
 15 11  1  0  0  0  0
 17 15  1  0  0  0  0
 19 18  1  0  0  0  0
 20 19  2  0  0  0  0
 21 22  2  0  0  0  0
 21 20  1  0  0  0  0
 22 23  1  0  0  0  0
 23 18  2  0  0  0  0
 24 20  1  0  0  0  0
 24 25  1  0  0  0  0
 26 27  1  0  0  0  0
 26 21  1  0  0  0  0
 28  1  1  0  0  0  0
 29 28  1  0  0  0  0
 30 31  1  0  0  0  0
 30 29  2  0  0  0  0
 32 33  2  0  0  0  0
 32 30  1  0  0  0  0
 33 34  1  0  0  0  0
 34 28  2  0  0  0  0
M  END
>  <Pose>
1

>  <Score>
-7.518

$$$$
