/Users/jonathanwahrer/Desktop/Msc/3_Semester/Drug_Design_Praktikum/waehrer_HTS_screening/HTS_experiment/out/docking_results/vina_output/3sx0/1750_docked.pdbqt
 OpenBabel03192222503D

 27 30  0  0  0  0  0  0  0  0999 V2000
   13.4090   63.6880  -11.9230 N   0  0  0  0  0  0  0  0  0  0  0  0
   14.0320   64.2160  -10.7480 C   0  0  0  0  0  2  0  0  0  0  0  0
   15.4260   63.6620  -10.5270 C   0  0  0  0  0  2  0  0  0  0  0  0
   15.3870   62.2310  -10.6640 N   0  0  0  0  0  0  0  0  0  0  0  0
   14.0960   61.5970  -10.8410 C   0  0  0  0  0  2  0  0  0  0  0  0
   13.4230   62.2680  -12.0180 C   0  0  0  0  0  2  0  0  0  0  0  0
   16.5570   61.4180  -10.6340 C   0  0  0  0  0  0  0  0  0  0  0  0
   16.4970   60.1730  -10.7570 O   0  0  0  0  0  0  0  0  0  0  0  0
   17.8790   62.0230  -10.4550 C   0  0  0  0  0  0  0  0  0  0  0  0
   18.7550   62.3550  -11.4430 N   0  0  0  0  0  0  0  0  0  0  0  0
   19.8570   62.8840  -10.8890 C   0  0  0  0  0  0  0  0  0  0  0  0
   19.6740   62.8820   -9.5690 N   0  0  0  0  0  0  0  0  0  0  0  0
   21.0390   63.3810  -11.4170 C   0  0  0  0  0  3  0  0  0  0  0  0
   18.4740   62.3620   -9.2770 C   0  0  0  0  0  3  0  0  0  0  0  0
   20.6500   63.3690   -8.7780 C   0  0  0  0  0  3  0  0  0  0  0  0
   21.8340   63.8710   -9.2440 C   0  0  0  0  0  0  0  0  0  0  0  0
   22.0430   63.8810  -10.6190 C   0  0  0  0  0  3  0  0  0  0  0  0
   23.0880   64.4990   -8.1810 Cl  0  0  0  0  0  0  0  0  0  0  0  0
   13.7490   64.5080  -13.3610 S   0  0  0  0  0  0  0  0  0  0  0  0
   15.1360   65.0620  -13.3180 O   0  0  0  0  0  0  0  0  0  0  0  0
   13.6630   63.5330  -14.5010 O   0  0  0  0  0  0  0  0  0  0  0  0
   12.6610   65.7930  -13.7030 N   0  0  0  0  0  0  0  0  0  0  0  0
   11.2920   65.3340  -13.8470 C   0  0  0  0  0  2  0  0  0  0  0  0
   10.5630   66.3600  -14.6810 C   0  0  0  0  0  2  0  0  0  0  0  0
   11.0350   67.6460  -14.4450 O   0  0  0  0  0  0  0  0  0  0  0  0
   12.3390   67.8310  -14.8990 C   0  0  0  0  0  2  0  0  0  0  0  0
   12.9990   66.4680  -14.9420 C   0  0  0  0  0  2  0  0  0  0  0  0
  1  2  1  0  0  0  0
  2  3  1  0  0  0  0
  4  7  1  0  0  0  0
  4  3  1  0  0  0  0
  5  4  1  0  0  0  0
  6  1  1  0  0  0  0
  6  5  1  0  0  0  0
  7  9  1  0  0  0  0
  8  7  2  0  0  0  0
  9 14  2  0  0  0  0
 10 11  2  0  0  0  0
 10  9  1  0  0  0  0
 11 12  1  0  0  0  0
 12 14  1  0  0  0  0
 12 15  1  0  0  0  0
 13 11  1  0  0  0  0
 13 17  2  0  0  0  0
 16 15  2  0  0  0  0
 16 18  1  0  0  0  0
 17 16  1  0  0  0  0
 19 20  2  0  0  0  0
 19  1  1  0  0  0  0
 21 19  2  0  0  0  0
 22 19  1  0  0  0  0
 23 22  1  0  0  0  0
 24 25  1  0  0  0  0
 24 23  1  0  0  0  0
 26 25  1  0  0  0  0
 27 26  1  0  0  0  0
 27 22  1  0  0  0  0
M  END
>  <Pose>
1

>  <Score>
-6.364

$$$$
