/Users/jonathanwahrer/Desktop/Msc/3_Semester/Drug_Design_Praktikum/waehrer_HTS_screening/HTS_experiment/out/docking_results/vina_output/3sx0/1764_docked.pdbqt
 OpenBabel03192222503D

 34 37  0  0  1  0  0  0  0  0999 V2000
   17.6560   62.6230  -11.0060 N   0  0  0  0  0  0  0  0  0  0  0  0
   16.5770   62.6220  -10.1440 C   0  0  1  0  0  3  0  0  0  0  0  0
   16.4560   64.0650   -9.6350 C   0  0  0  0  0  2  0  0  0  0  0  0
   16.8330   64.8550  -10.8690 C   0  0  0  0  0  2  0  0  0  0  0  0
   17.7740   63.9430  -11.6190 C   0  0  0  0  0  2  0  0  0  0  0  0
   19.1110   61.8690  -10.7380 S   0  0  0  0  0  0  0  0  0  0  0  0
   19.6920   61.2420  -12.0040 O   0  0  0  0  0  0  0  0  0  0  0  0
   18.8690   60.6670   -9.8230 O   0  0  0  0  0  0  0  0  0  0  0  0
   20.3300   62.8500   -9.9790 C   0  0  0  0  0  0  0  0  0  0  0  0
   20.2100   63.1350   -8.6080 C   0  0  0  0  0  3  0  0  0  0  0  0
   21.0710   63.9420   -7.9220 C   0  0  0  0  0  0  0  0  0  0  0  0
   22.1160   64.5010   -8.6350 C   0  0  0  0  0  0  0  0  0  0  0  0
   20.9480   64.2190   -6.5690 O   0  0  0  0  0  0  0  0  0  0  0  0
   22.2930   64.2660   -9.9650 C   0  0  0  0  0  3  0  0  0  0  0  0
   23.0330   65.3470   -7.9240 N   0  0  0  0  0  0  0  0  0  0  0  0
   21.3870   63.4360  -10.6150 C   0  0  0  0  0  0  0  0  0  0  0  0
   21.7410   63.1000  -12.2950 Cl  0  0  0  0  0  0  0  0  0  0  0  0
   22.8400   65.5780   -6.5310 C   0  0  0  0  0  0  0  0  0  0  0  0
   23.8310   65.7780   -8.4530 H   0  0  0  0  0  0  0  0  0  0  0  0
   23.3010   66.6030   -5.9990 O   0  0  0  0  0  0  0  0  0  0  0  0
   22.0800   64.5540   -5.7700 C   0  0  0  0  0  2  0  0  0  0  0  0
   15.3250   62.2920  -10.9390 C   0  0  0  0  0  0  0  0  0  0  0  0
   15.1700   61.0970  -11.2250 O   0  0  0  0  0  0  0  0  0  0  0  0
   14.4390   63.3230  -11.2960 N   0  0  0  0  0  0  0  0  0  0  0  0
   14.6070   64.3200  -11.0510 H   0  0  0  0  0  0  0  0  0  0  0  0
   13.2410   63.0250  -12.0420 C   0  0  0  0  0  2  0  0  0  0  0  0
   13.2220   63.4980  -13.4450 C   0  0  0  0  0  2  0  0  0  0  0  0
   12.5170   64.7040  -13.6990 N   0  0  0  0  0  0  0  0  0  0  0  0
   11.3040   64.5700  -14.4390 C   0  0  0  0  0  2  0  0  0  0  0  0
   10.2900   65.5280  -13.8460 C   0  0  0  0  0  2  0  0  0  0  0  0
   10.9080   66.9090  -13.7730 C   0  0  0  0  0  2  0  0  0  0  0  0
   11.5720   67.2010  -15.0920 C   0  0  0  0  0  2  0  0  0  0  0  0
   12.9070   66.5790  -15.2630 C   0  0  0  0  0  2  0  0  0  0  0  0
   13.3880   65.7440  -14.1360 C   0  0  0  0  0  2  0  0  0  0  0  0
  1  6  1  0  0  0  0
  1  2  1  0  0  0  0
  2 22  1  6  0  0  0
  2  3  1  0  0  0  0
  4  3  1  0  0  0  0
  5  1  1  0  0  0  0
  5  4  1  0  0  0  0
  6  9  1  0  0  0  0
  6  8  2  0  0  0  0
  7  6  2  0  0  0  0
  9 10  1  0  0  0  0
 10 11  2  0  0  0  0
 11 13  1  0  0  0  0
 12 15  1  0  0  0  0
 12 11  1  0  0  0  0
 13 21  1  0  0  0  0
 14 12  2  0  0  0  0
 15 18  1  0  0  0  0
 16  9  2  0  0  0  0
 16 14  1  0  0  0  0
 17 16  1  0  0  0  0
 18 20  2  0  0  0  0
 18 21  1  0  0  0  0
 19 15  1  0  0  0  0
 23 22  2  0  0  0  0
 24 25  1  0  0  0  0
 24 22  1  0  0  0  0
 26 24  1  0  0  0  0
 27 26  1  0  0  0  0
 28 27  1  0  0  0  0
 29 30  1  0  0  0  0
 29 28  1  0  0  0  0
 30 31  1  0  0  0  0
 32 31  1  0  0  0  0
 33 32  1  0  0  0  0
 33 34  1  0  0  0  0
 34 28  1  0  0  0  0
M  END
>  <Pose>
1

>  <Score>
-8.499

$$$$
