/Users/jonathanwahrer/Desktop/Msc/3_Semester/Drug_Design_Praktikum/waehrer_HTS_screening/HTS_experiment/out/docking_results/vina_output/3sx0/1788_docked.pdbqt
 OpenBabel03192222513D

 30 33  0  0  0  0  0  0  0  0999 V2000
   20.0950   63.1000  -10.4120 N   0  0  0  0  0  0  0  0  0  0  0  0
   20.9460   63.0450  -11.3750 N   0  0  0  0  0  0  0  0  0  0  0  0
   22.2090   63.4380  -10.9610 C   0  0  0  0  0  0  0  0  0  0  0  0
   22.0940   63.7430   -9.6820 N   0  0  0  0  0  0  0  0  0  0  0  0
   20.7760   63.5270   -9.3460 C   0  0  0  0  0  0  0  0  0  0  0  0
   20.3230   63.7180   -8.1980 O   0  0  0  0  0  0  0  0  0  0  0  0
   23.0620   64.2970   -8.7890 C   0  0  0  0  0  2  0  0  0  0  0  0
   23.6960   63.3370   -7.8670 C   0  0  0  0  0  0  0  0  0  0  0  0
   24.1840   62.2930   -8.4710 O   0  0  0  0  0  0  0  0  0  0  0  0
   23.8550   63.3580   -6.4990 N   0  0  0  0  0  0  0  0  0  0  0  0
   23.3640   64.3800   -5.6140 C   0  0  0  0  0  2  0  0  0  0  0  0
   24.5970   62.2650   -5.8460 C   0  0  0  0  0  2  0  0  0  0  0  0
   23.6690   64.0680   -4.1380 C   0  0  0  0  0  2  0  0  0  0  0  0
   25.1050   63.8090   -3.9920 N   0  0  0  0  0  0  0  0  0  0  0  0
   25.6260   62.9100   -4.9950 C   0  0  0  0  0  0  0  0  0  0  0  0
   25.6840   64.2200   -3.2550 H   0  0  0  0  0  0  0  0  0  0  0  0
   26.8600   62.7260   -5.0990 O   0  0  0  0  0  0  0  0  0  0  0  0
   23.3160   63.4710  -11.9140 C   0  0  0  0  0  0  0  0  0  0  0  0
   23.0070   63.5160  -13.2800 C   0  0  0  0  0  3  0  0  0  0  0  0
   23.9430   63.4900  -14.2760 C   0  0  0  0  0  3  0  0  0  0  0  0
   25.2960   63.4140  -13.9700 C   0  0  0  0  0  3  0  0  0  0  0  0
   25.6090   63.3670  -12.6410 C   0  0  0  0  0  3  0  0  0  0  0  0
   24.6470   63.3940  -11.6270 C   0  0  0  0  0  3  0  0  0  0  0  0
   18.7140   62.7660  -10.5040 C   0  0  0  0  0  0  0  0  0  0  0  0
   17.7780   63.7500  -10.7490 C   0  0  0  0  0  3  0  0  0  0  0  0
   16.4300   63.4450  -10.8410 C   0  0  0  0  0  3  0  0  0  0  0  0
   15.9540   62.1550  -10.6930 C   0  0  0  0  0  0  0  0  0  0  0  0
   14.2510   61.7560  -10.8050 Cl  0  0  0  0  0  0  0  0  0  0  0  0
   16.8960   61.1690  -10.4460 C   0  0  0  0  0  3  0  0  0  0  0  0
   18.2510   61.4750  -10.3550 C   0  0  0  0  0  3  0  0  0  0  0  0
  1  5  1  0  0  0  0
  2  3  2  0  0  0  0
  2  1  1  0  0  0  0
  3  4  1  0  0  0  0
  4  5  1  0  0  0  0
  4  7  1  0  0  0  0
  5  6  2  0  0  0  0
  7  8  1  0  0  0  0
  8 10  1  0  0  0  0
  9  8  2  0  0  0  0
 10 12  1  0  0  0  0
 10 11  1  0  0  0  0
 11 13  1  0  0  0  0
 12 15  1  0  0  0  0
 13 14  1  0  0  0  0
 14 16  1  0  0  0  0
 15 14  1  0  0  0  0
 17 15  2  0  0  0  0
 18 23  1  0  0  0  0
 18  3  1  0  0  0  0
 19 18  2  0  0  0  0
 20 21  2  0  0  0  0
 20 19  1  0  0  0  0
 21 22  1  0  0  0  0
 22 23  2  0  0  0  0
 24  1  1  0  0  0  0
 24 30  1  0  0  0  0
 25 24  2  0  0  0  0
 26 25  1  0  0  0  0
 26 27  2  0  0  0  0
 27 29  1  0  0  0  0
 28 27  1  0  0  0  0
 29 30  2  0  0  0  0
M  END
>  <Pose>
1

>  <Score>
-9.292

$$$$
