/Users/jonathanwahrer/Desktop/Msc/3_Semester/Drug_Design_Praktikum/waehrer_HTS_screening/HTS_experiment/out/docking_results/vina_output/3sx0/1790_docked.pdbqt
 OpenBabel03192222513D

 29 32  0  0  0  0  0  0  0  0999 V2000
   22.8090   63.6850   -9.1980 N   0  0  0  0  0  0  0  0  0  0  0  0
   23.6520   63.8710  -10.1940 N   0  0  0  0  0  0  0  0  0  0  0  0
   22.9480   63.7000  -11.3060 N   0  0  0  0  0  0  0  0  0  0  0  0
   21.6650   63.4060  -11.0350 C   0  0  0  0  0  0  0  0  0  0  0  0
   21.5890   63.3990   -9.6930 C   0  0  0  0  0  0  0  0  0  0  0  0
   20.2690   63.0960   -9.4170 C   0  0  0  0  0  0  0  0  0  0  0  0
   19.8270   63.0040   -8.2340 O   0  0  0  0  0  0  0  0  0  0  0  0
   19.5500   62.9220  -10.5380 N   0  0  0  0  0  0  0  0  0  0  0  0
   20.4170   63.1140  -11.5460 C   0  0  0  0  0  0  0  0  0  0  0  0
   20.1110   63.0330  -12.7730 O   0  0  0  0  0  0  0  0  0  0  0  0
   24.6690   64.1060  -10.1020 H   0  0  0  0  0  0  0  0  0  0  0  0
   23.3370   63.7810  -12.2700 H   0  0  0  0  0  0  0  0  0  0  0  0
   18.1610   62.6020  -10.5880 C   0  0  0  0  0  0  0  0  0  0  0  0
   17.6950   61.3150  -10.4120 C   0  0  0  0  0  3  0  0  0  0  0  0
   16.3560   60.9820  -10.4550 C   0  0  0  0  0  0  0  0  0  0  0  0
   15.4390   61.9850  -10.6860 C   0  0  0  0  0  3  0  0  0  0  0  0
   15.8490   63.2900  -10.8700 C   0  0  0  0  0  0  0  0  0  0  0  0
   17.2090   63.5770  -10.8180 C   0  0  0  0  0  3  0  0  0  0  0  0
   15.9320   59.6520  -10.2690 O   0  0  0  0  0  0  0  0  0  0  0  0
   16.7890   58.7470   -9.6120 C   0  0  0  0  0  1  0  0  0  0  0  0
   14.8960   64.2730  -11.1010 O   0  0  0  0  0  0  0  0  0  0  0  0
   13.9480   64.1620  -12.1270 C   0  0  0  0  0  1  0  0  0  0  0  0
   23.1250   63.7680   -7.8180 C   0  0  0  0  0  0  0  0  0  0  0  0
   22.4620   64.6270   -6.9550 C   0  0  0  0  0  3  0  0  0  0  0  0
   22.7940   64.6810   -5.6270 C   0  0  0  0  0  3  0  0  0  0  0  0
   23.7920   63.8930   -5.0920 C   0  0  0  0  0  0  0  0  0  0  0  0
   24.1780   64.0050   -3.3700 Cl  0  0  0  0  0  0  0  0  0  0  0  0
   24.4610   63.0370   -5.9270 C   0  0  0  0  0  3  0  0  0  0  0  0
   24.1240   62.9850   -7.2640 C   0  0  0  0  0  3  0  0  0  0  0  0
  1 23  1  0  0  0  0
  2 11  1  0  0  0  0
  2  1  1  0  0  0  0
  3  4  1  0  0  0  0
  3  2  1  0  0  0  0
  4  5  2  0  0  0  0
  5  6  1  0  0  0  0
  5  1  1  0  0  0  0
  6  7  2  0  0  0  0
  8  6  1  0  0  0  0
  9  4  1  0  0  0  0
  9  8  1  0  0  0  0
 10  9  2  0  0  0  0
 12  3  1  0  0  0  0
 13  8  1  0  0  0  0
 13 14  1  0  0  0  0
 15 14  2  0  0  0  0
 15 19  1  0  0  0  0
 16 15  1  0  0  0  0
 17 18  1  0  0  0  0
 17 16  2  0  0  0  0
 18 13  2  0  0  0  0
 19 20  1  0  0  0  0
 21 17  1  0  0  0  0
 22 21  1  0  0  0  0
 23 29  2  0  0  0  0
 23 24  1  0  0  0  0
 24 25  2  0  0  0  0
 25 26  1  0  0  0  0
 26 27  1  0  0  0  0
 28 26  2  0  0  0  0
 29 28  1  0  0  0  0
M  END
>  <Pose>
1

>  <Score>
-9.759

$$$$
