/Users/jonathanwahrer/Desktop/Msc/3_Semester/Drug_Design_Praktikum/waehrer_HTS_screening/HTS_experiment/out/docking_results/vina_output/3sx0/1802_docked.pdbqt
 OpenBabel03192222513D

 27 30  0  0  0  0  0  0  0  0999 V2000
   25.6050   63.7720  -12.8680 Cl  0  0  0  0  0  0  0  0  0  0  0  0
   23.9640   63.5090  -12.2720 C   0  0  0  0  0  0  0  0  0  0  0  0
   23.6880   63.8180  -10.9380 C   0  0  0  0  0  3  0  0  0  0  0  0
   22.4250   63.6440  -10.4090 C   0  0  0  0  0  0  0  0  0  0  0  0
   21.4580   63.1520  -11.2640 C   0  0  0  0  0  0  0  0  0  0  0  0
   21.6830   62.8400  -12.5640 C   0  0  0  0  0  3  0  0  0  0  0  0
   22.9710   63.0210  -13.0920 C   0  0  0  0  0  3  0  0  0  0  0  0
   20.1050   62.9760  -10.6790 C   0  0  0  0  0  0  0  0  0  0  0  0
   18.9950   62.5430  -11.1970 N   0  0  0  0  0  0  0  0  0  0  0  0
   17.9370   62.5580  -10.2150 C   0  0  0  0  0  3  0  0  0  0  0  0
   18.5330   63.0950   -8.9370 C   0  0  0  0  0  3  0  0  0  0  0  0
   19.9160   63.3140   -9.3300 N   0  0  0  0  0  0  0  0  0  0  0  0
   20.9700   63.8180   -8.5110 C   0  0  0  0  0  0  0  0  0  0  0  0
   21.0010   64.2060   -7.2190 N   0  0  0  0  0  0  0  0  0  0  0  0
   22.2310   64.6140   -6.9170 N   0  0  0  0  0  0  0  0  0  0  0  0
   22.9350   64.4690   -8.0370 C   0  0  0  0  0  0  0  0  0  0  0  0
   24.1590   64.7520   -8.1640 O   0  0  0  0  0  0  0  0  0  0  0  0
   22.1750   63.9720   -9.0520 N   0  0  0  0  0  0  0  0  0  0  0  0
   22.6870   65.1270   -5.6220 C   0  0  0  0  0  2  0  0  0  0  0  0
   23.1990   63.8390   -4.9060 C   0  0  0  0  0  0  0  0  0  0  0  0
   22.3580   63.5400   -3.9870 O   0  0  0  0  0  0  0  0  0  0  0  0
   24.3430   63.2530   -5.2850 N   0  0  0  0  0  0  0  0  0  0  0  0
   24.1220   62.2460   -4.4010 H   0  0  0  0  0  0  0  0  0  0  0  0
   25.5190   62.6500   -5.6740 C   0  0  0  0  0  2  0  0  0  0  0  0
   26.5580   62.6070   -4.5470 C   0  0  0  0  0  2  0  0  0  0  0  0
   26.0220   62.0980   -3.3880 O   0  0  0  0  0  0  0  0  0  0  0  0
   25.7480   63.0150   -2.4150 C   0  0  0  0  0  1  0  0  0  0  0  0
  1  2  1  0  0  0  0
  2  3  1  0  0  0  0
  3  4  2  0  0  0  0
  4 18  1  0  0  0  0
  5  8  1  0  0  0  0
  5  4  1  0  0  0  0
  6  5  2  0  0  0  0
  7  6  1  0  0  0  0
  7  2  2  0  0  0  0
  8 12  1  0  0  0  0
  9  8  2  0  0  0  0
  9 10  1  0  0  0  0
 10 11  2  0  0  0  0
 12 11  1  0  0  0  0
 12 13  1  0  0  0  0
 13 14  2  0  0  0  0
 14 15  1  0  0  0  0
 15 19  1  0  0  0  0
 16 15  1  0  0  0  0
 17 16  2  0  0  0  0
 18 13  1  0  0  0  0
 18 16  1  0  0  0  0
 19 20  1  0  0  0  0
 20 21  2  0  0  0  0
 22 20  1  0  0  0  0
 22 23  1  0  0  0  0
 24 22  1  0  0  0  0
 24 25  1  0  0  0  0
 25 26  1  0  0  0  0
 26 27  1  0  0  0  0
M  END
>  <Pose>
1

>  <Score>
-7.471

$$$$
