/Users/jonathanwahrer/Desktop/Msc/3_Semester/Drug_Design_Praktikum/waehrer_HTS_screening/HTS_experiment/out/docking_results/vina_output/3sx0/1804_docked.pdbqt
 OpenBabel03192222523D

 26 30  0  0  0  0  0  0  0  0999 V2000
   25.5510   63.6780  -12.9320 Cl  0  0  0  0  0  0  0  0  0  0  0  0
   23.9680   63.4720  -12.2140 C   0  0  0  0  0  0  0  0  0  0  0  0
   23.6940   63.7840  -10.8930 C   0  0  0  0  0  3  0  0  0  0  0  0
   22.4450   63.6190  -10.3410 C   0  0  0  0  0  0  0  0  0  0  0  0
   21.4660   63.1220  -11.1680 C   0  0  0  0  0  0  0  0  0  0  0  0
   21.6830   62.7960  -12.4860 C   0  0  0  0  0  3  0  0  0  0  0  0
   22.9620   62.9760  -13.0170 C   0  0  0  0  0  3  0  0  0  0  0  0
   20.1140   62.9300  -10.6100 C   0  0  0  0  0  0  0  0  0  0  0  0
   19.0300   62.4930  -11.1390 N   0  0  0  0  0  0  0  0  0  0  0  0
   17.9380   62.4800  -10.2020 C   0  0  0  0  0  3  0  0  0  0  0  0
   18.5310   63.0040   -8.9330 C   0  0  0  0  0  3  0  0  0  0  0  0
   19.9080   63.2700   -9.2550 N   0  0  0  0  0  0  0  0  0  0  0  0
   20.9750   63.7880   -8.4340 C   0  0  0  0  0  0  0  0  0  0  0  0
   21.0170   64.1740   -7.1440 N   0  0  0  0  0  0  0  0  0  0  0  0
   22.2400   64.5800   -6.8480 N   0  0  0  0  0  0  0  0  0  0  0  0
   22.9500   64.4370   -7.9790 C   0  0  0  0  0  0  0  0  0  0  0  0
   24.1760   64.7340   -8.0590 O   0  0  0  0  0  0  0  0  0  0  0  0
   22.1910   63.9460   -8.9820 N   0  0  0  0  0  0  0  0  0  0  0  0
   22.7320   65.0830   -5.5570 C   0  0  0  0  0  2  0  0  0  0  0  0
   22.7520   63.9480   -4.5970 C   0  0  0  0  0  0  0  0  0  0  0  0
   21.6790   63.7070   -3.9870 O   0  0  0  0  0  0  0  0  0  0  0  0
   23.9200   63.1710   -4.3720 N   0  0  0  0  0  0  0  0  0  0  0  0
   24.0000   62.0550   -3.4490 C   0  0  0  0  0  2  0  0  0  0  0  0
   25.2070   63.3390   -5.0040 C   0  0  0  0  0  2  0  0  0  0  0  0
   25.4510   61.6590   -3.3880 C   0  0  0  0  0  2  0  0  0  0  0  0
   26.1420   62.9210   -3.8630 C   0  0  0  0  0  2  0  0  0  0  0  0
  1  2  1  0  0  0  0
  2  3  1  0  0  0  0
  3  4  2  0  0  0  0
  4 18  1  0  0  0  0
  5  8  1  0  0  0  0
  5  4  1  0  0  0  0
  6  5  2  0  0  0  0
  7  6  1  0  0  0  0
  7  2  2  0  0  0  0
  8 12  1  0  0  0  0
  9  8  2  0  0  0  0
  9 10  1  0  0  0  0
 10 11  2  0  0  0  0
 12 11  1  0  0  0  0
 12 13  1  0  0  0  0
 13 14  2  0  0  0  0
 14 15  1  0  0  0  0
 15 19  1  0  0  0  0
 16 15  1  0  0  0  0
 17 16  2  0  0  0  0
 18 13  1  0  0  0  0
 18 16  1  0  0  0  0
 19 20  1  0  0  0  0
 20 22  1  0  0  0  0
 20 21  2  0  0  0  0
 22 23  1  0  0  0  0
 23 25  1  0  0  0  0
 24 22  1  0  0  0  0
 24 26  1  0  0  0  0
 26 25  1  0  0  0  0
M  END
>  <Pose>
1

>  <Score>
-8.275

$$$$
