/Users/jonathanwahrer/Desktop/Msc/3_Semester/Drug_Design_Praktikum/waehrer_HTS_screening/HTS_experiment/out/docking_results/vina_output/3sx0/1808_docked.pdbqt
 OpenBabel03142213523D

 24 28  0  0  1  0  0  0  0  0999 V2000
   16.1530   62.8210  -10.6240 N   0  0  0  0  0  0  0  0  0  0  0  0
   16.8830   63.6780   -9.7600 C   0  0  0  0  0  0  0  0  0  0  0  0
   16.5220   64.8390   -9.4490 O   0  0  0  0  0  0  0  0  0  0  0  0
   18.1140   62.9770   -9.3050 C   0  0  2  0  0  3  0  0  0  0  0  0
   19.3000   63.3030  -10.1590 C   0  0  1  0  0  0  0  0  0  0  0  0
   20.0190   62.0900  -10.0700 O   0  0  0  0  0  0  0  0  0  0  0  0
   19.0130   61.2550  -10.6190 C   0  0  1  0  0  3  0  0  0  0  0  0
   17.8850   61.5120   -9.6810 C   0  0  2  0  0  3  0  0  0  0  0  0
   16.5890   61.4790  -10.4110 C   0  0  0  0  0  0  0  0  0  0  0  0
   16.0050   60.4500  -10.7630 O   0  0  0  0  0  0  0  0  0  0  0  0
   18.7520   61.9910  -11.8830 C   0  0  0  0  0  2  0  0  0  0  0  0
   18.8720   63.2770  -11.5660 C   0  0  0  0  0  2  0  0  0  0  0  0
   15.1570   63.3020  -11.5350 C   0  0  0  0  0  0  0  0  0  0  0  0
   15.2320   64.5600  -12.0900 C   0  0  0  0  0  3  0  0  0  0  0  0
   14.2800   65.0350  -12.9660 C   0  0  0  0  0  3  0  0  0  0  0  0
   13.2240   64.2160  -13.2850 C   0  0  0  0  0  0  0  0  0  0  0  0
   11.8920   64.8340  -14.4850 Br  0  0  0  0  0  0  0  0  0  0  0  0
   13.1260   62.9590  -12.7430 C   0  0  0  0  0  3  0  0  0  0  0  0
   14.0900   62.4740  -11.8560 C   0  0  0  0  0  3  0  0  0  0  0  0
   20.0870   64.4670   -9.7340 C   0  0  0  0  0  3  0  0  0  0  0  0
   21.2710   64.6130  -10.4030 O   0  0  0  0  0  0  0  0  0  0  0  0
   22.3030   64.3520   -9.5370 C   0  0  0  0  0  2  0  0  0  0  0  0
   21.6770   64.0280   -8.2200 C   0  0  0  0  0  2  0  0  0  0  0  0
   20.3590   64.4400   -8.3780 O   0  0  0  0  0  0  0  0  0  0  0  0
  1  9  1  0  0  0  0
  1  2  1  0  0  0  0
  2  3  2  0  0  0  0
  4  2  1  6  0  0  0
  5  6  1  0  0  0  0
  5 20  1  1  0  0  0
  5  4  1  0  0  0  0
  7 11  1  6  0  0  0
  7  6  1  0  0  0  0
  7  8  1  0  0  0  0
  8  9  1  6  0  0  0
  8  4  1  0  0  0  0
 10  9  2  0  0  0  0
 11 12  1  0  0  0  0
 12  5  1  0  0  0  0
 13  1  1  0  0  0  0
 14 13  2  0  0  0  0
 15 14  1  0  0  0  0
 16 15  2  0  0  0  0
 16 18  1  0  0  0  0
 17 16  1  0  0  0  0
 18 19  2  0  0  0  0
 19 13  1  0  0  0  0
 20 24  1  0  0  0  0
 21 20  1  0  0  0  0
 21 22  1  0  0  0  0
 22 23  1  0  0  0  0
 24 23  1  0  0  0  0
M  END
>  <Pose>
1

>  <Score>
-7.039

$$$$
