/Users/jonathanwahrer/Desktop/Msc/3_Semester/Drug_Design_Praktikum/waehrer_HTS_screening/HTS_experiment/out/docking_results/vina_output/3sx0/1810_docked.pdbqt
 OpenBabel03192222523D

 32 35  0  0  1  0  0  0  0  0999 V2000
   13.4830   63.3970  -13.0570 N   0  0  0  0  0  0  0  0  0  0  0  0
   13.7380   62.0180  -12.7260 C   0  0  0  0  0  2  0  0  0  0  0  0
   14.7590   61.9920  -11.6130 C   0  0  0  0  0  2  0  0  0  0  0  0
   14.9150   63.3200  -11.0760 N   0  0  0  0  0  0  0  0  0  0  0  0
   13.7700   64.1920  -10.8480 C   0  0  0  0  0  2  0  0  0  0  0  0
   12.7390   63.9830  -11.9600 C   0  0  0  0  0  2  0  0  0  0  0  0
   16.2000   63.8030  -10.7700 C   0  0  0  0  0  0  0  0  0  0  0  0
   16.3170   64.9700  -10.2560 O   0  0  0  0  0  0  0  0  0  0  0  0
   17.4060   62.9750  -11.0420 C   0  0  1  0  0  3  0  0  0  0  0  0
   18.6610   63.7920  -11.1450 C   0  0  0  0  0  2  0  0  0  0  0  0
   19.3670   63.5850   -9.8840 N   0  0  0  0  0  0  0  0  0  0  0  0
   18.5870   62.7710   -9.0290 C   0  0  0  0  0  0  0  0  0  0  0  0
   18.6970   62.7410   -7.7790 O   0  0  0  0  0  0  0  0  0  0  0  0
   17.6750   62.0160   -9.9150 C   0  0  0  0  0  2  0  0  0  0  0  0
   20.6640   64.1380   -9.5690 C   0  0  0  0  0  2  0  0  0  0  0  0
   21.6920   63.7300  -10.5560 C   0  0  0  0  0  0  0  0  0  0  0  0
   23.0260   63.7180  -10.1770 C   0  0  0  0  0  0  0  0  0  0  0  0
   24.0420   63.3500  -11.0430 C   0  0  0  0  0  3  0  0  0  0  0  0
   23.4220   64.1850   -8.5450 Cl  0  0  0  0  0  0  0  0  0  0  0  0
   23.6780   62.9890  -12.3240 C   0  0  0  0  0  3  0  0  0  0  0  0
   22.3560   62.9900  -12.7360 C   0  0  0  0  0  3  0  0  0  0  0  0
   21.3540   63.3650  -11.8420 C   0  0  0  0  0  3  0  0  0  0  0  0
   12.6480   63.5380  -14.5530 S   0  0  0  0  0  0  0  0  0  0  0  0
   12.8280   62.3140  -15.4050 O   0  0  0  0  0  0  0  0  0  0  0  0
   13.3070   64.6700  -15.3130 O   0  0  0  0  0  0  0  0  0  0  0  0
   10.9700   63.9230  -14.3180 C   0  0  0  0  0  0  0  0  0  0  0  0
   10.3340   65.1370  -14.1870 C   0  0  0  0  0  0  0  0  0  0  0  0
    9.0000   64.8870  -14.0130 N   0  0  0  0  0  0  0  0  0  0  0  0
   10.9950   66.4550  -14.2390 C   0  0  0  0  0  1  0  0  0  0  0  0
    8.8360   63.6180  -14.0360 O   0  0  0  0  0  0  0  0  0  0  0  0
    9.9670   62.9780  -14.2140 C   0  0  0  0  0  0  0  0  0  0  0  0
   10.0700   61.5040  -14.2820 C   0  0  0  0  0  1  0  0  0  0  0  0
  1  2  1  0  0  0  0
  1  6  1  0  0  0  0
  2  3  1  0  0  0  0
  3  4  1  0  0  0  0
  4  5  1  0  0  0  0
  4  7  1  0  0  0  0
  6  5  1  0  0  0  0
  7  8  2  0  0  0  0
  9  7  1  1  0  0  0
  9 14  1  0  0  0  0
 10  9  1  0  0  0  0
 10 11  1  0  0  0  0
 11 15  1  0  0  0  0
 11 12  1  0  0  0  0
 12 13  2  0  0  0  0
 14 12  1  0  0  0  0
 16 17  1  0  0  0  0
 16 15  1  0  0  0  0
 17 19  1  0  0  0  0
 18 17  2  0  0  0  0
 20 18  1  0  0  0  0
 21 20  2  0  0  0  0
 21 22  1  0  0  0  0
 22 16  2  0  0  0  0
 23 26  1  0  0  0  0
 23  1  1  0  0  0  0
 24 23  2  0  0  0  0
 25 23  2  0  0  0  0
 26 31  2  0  0  0  0
 26 27  1  0  0  0  0
 27 28  2  0  0  0  0
 29 27  1  0  0  0  0
 30 28  1  0  0  0  0
 31 30  1  0  0  0  0
 32 31  1  0  0  0  0
M  END
>  <Pose>
1

>  <Score>
-7.233

$$$$
