/Users/jonathanwahrer/Desktop/Msc/3_Semester/Drug_Design_Praktikum/waehrer_HTS_screening/HTS_experiment/out/docking_results/vina_output/3sx0/1816_docked.pdbqt
 OpenBabel03192222533D

 36 39  0  0  0  0  0  0  0  0999 V2000
   17.8560   62.6750  -11.3280 C   0  0  0  0  0  0  0  0  0  0  0  0
   18.1410   61.4940  -10.9260 O   0  0  0  0  0  0  0  0  0  0  0  0
   16.5410   63.0910  -11.2160 N   0  0  0  0  0  0  0  0  0  0  0  0
   15.4990   62.2710  -10.6800 C   0  0  0  0  0  2  0  0  0  0  0  0
   14.4340   62.0980  -11.7650 C   0  0  0  0  0  2  0  0  0  0  0  0
   13.9950   63.3780  -12.2070 N   0  0  0  0  0  0  0  0  0  0  0  0
   14.6470   64.5510  -11.5860 C   0  0  0  0  0  2  0  0  0  0  0  0
   16.1520   64.4140  -11.6490 C   0  0  0  0  0  2  0  0  0  0  0  0
   13.0040   63.6160  -13.1830 C   0  0  0  0  0  0  0  0  0  0  0  0
   12.7770   64.9080  -13.4000 O   0  0  0  0  0  0  0  0  0  0  0  0
   18.9690   63.4950  -11.8800 C   0  0  0  0  0  2  0  0  0  0  0  0
   20.1240   63.5300  -10.9550 C   0  0  0  0  0  0  0  0  0  0  0  0
   21.4060   63.2550  -11.4290 C   0  0  0  0  0  0  0  0  0  0  0  0
   22.4650   63.2730  -10.6560 O   0  0  0  0  0  0  0  0  0  0  0  0
   21.5040   62.9810  -12.6720 O   0  0  0  0  0  0  0  0  0  0  0  0
   22.4060   63.5490   -9.3760 C   0  0  0  0  0  0  0  0  0  0  0  0
   21.1880   63.8360   -8.8060 C   0  0  0  0  0  0  0  0  0  0  0  0
   23.5560   63.5590   -8.5760 C   0  0  0  0  0  3  0  0  0  0  0  0
   21.1420   64.1250   -7.4630 C   0  0  0  0  0  3  0  0  0  0  0  0
   20.0460   63.8240   -9.6130 C   0  0  0  0  0  0  0  0  0  0  0  0
   22.2860   64.1330   -6.6720 C   0  0  0  0  0  0  0  0  0  0  0  0
   22.2310   64.4970   -4.9620 Cl  0  0  0  0  0  0  0  0  0  0  0  0
   23.5100   63.8470   -7.2310 C   0  0  0  0  0  0  0  0  0  0  0  0
   18.7580   64.1330   -9.0000 C   0  0  0  0  0  1  0  0  0  0  0  0
   24.6700   63.8540   -6.4340 O   0  0  0  0  0  0  0  0  0  0  0  0
   25.0470   62.7440   -5.6590 C   0  0  0  0  0  1  0  0  0  0  0  0
   12.2060   62.7280  -13.9730 C   0  0  0  0  0  0  0  0  0  0  0  0
   12.5020   62.5670  -15.3500 C   0  0  0  0  0  3  0  0  0  0  0  0
   11.7610   61.7310  -16.1410 C   0  0  0  0  0  0  0  0  0  0  0  0
   12.0450   61.6060  -17.3610 O   0  0  0  0  0  0  0  0  0  0  0  0
   10.7240   61.0240  -15.6730 N   0  0  0  0  0  0  0  0  0  0  0  0
   10.4440   61.1750  -14.3780 C   0  0  0  0  0  0  0  0  0  0  0  0
    9.9510   60.1490  -16.5240 C   0  0  0  0  0  1  0  0  0  0  0  0
    9.4660   60.5240  -13.8830 O   0  0  0  0  0  0  0  0  0  0  0  0
   11.1710   62.0080  -13.5540 N   0  0  0  0  0  0  0  0  0  0  0  0
   10.8750   62.0520  -12.5590 H   0  0  0  0  0  0  0  0  0  0  0  0
  1  3  1  0  0  0  0
  1  2  2  0  0  0  0
  3  4  1  0  0  0  0
  5  4  1  0  0  0  0
  6  5  1  0  0  0  0
  6  7  1  0  0  0  0
  8  7  1  0  0  0  0
  8  3  1  0  0  0  0
  9  6  1  0  0  0  0
 10  9  2  0  0  0  0
 11  1  1  0  0  0  0
 11 12  1  0  0  0  0
 12 20  2  0  0  0  0
 13 12  1  0  0  0  0
 13 14  1  0  0  0  0
 14 16  1  0  0  0  0
 15 13  2  0  0  0  0
 16 17  2  0  0  0  0
 16 18  1  0  0  0  0
 17 19  1  0  0  0  0
 18 23  2  0  0  0  0
 19 21  2  0  0  0  0
 20 24  1  0  0  0  0
 20 17  1  0  0  0  0
 21 22  1  0  0  0  0
 23 21  1  0  0  0  0
 23 25  1  0  0  0  0
 25 26  1  0  0  0  0
 27 35  1  0  0  0  0
 27  9  1  0  0  0  0
 28 27  2  0  0  0  0
 29 31  1  0  0  0  0
 29 28  1  0  0  0  0
 30 29  2  0  0  0  0
 31 32  1  0  0  0  0
 32 34  2  0  0  0  0
 32 35  1  0  0  0  0
 33 31  1  0  0  0  0
 35 36  1  0  0  0  0
M  END
>  <Pose>
1

>  <Score>
-7.709

$$$$
