/Users/jonathanwahrer/Desktop/Msc/3_Semester/Drug_Design_Praktikum/waehrer_HTS_screening/HTS_experiment/out/docking_results/vina_output/3sx0/1822_docked.pdbqt
 OpenBabel03192222533D

 24 27  0  0  1  0  0  0  0  0999 V2000
   15.5020   60.0190  -11.0370 Cl  0  0  0  0  0  0  0  0  0  0  0  0
   16.5450   61.3290  -10.4930 C   0  0  0  0  0  0  0  0  0  0  0  0
   16.1520   62.6250  -10.7410 C   0  0  0  0  0  0  0  0  0  0  0  0
   16.9540   63.6160  -10.3220 N   0  0  0  0  0  0  0  0  0  0  0  0
   18.1230   63.3870   -9.6680 C   0  0  0  0  0  0  0  0  0  0  0  0
   18.5160   62.1270   -9.4190 N   0  0  0  0  0  0  0  0  0  0  0  0
   19.6790   62.1610   -8.7760 N   0  0  0  0  0  0  0  0  0  0  0  0
   20.0690   63.4380   -8.5910 C   0  0  0  0  0  0  0  0  0  0  0  0
   19.0820   64.1790   -9.1560 N   0  0  0  0  0  0  0  0  0  0  0  0
   17.7300   61.1010   -9.8300 C   0  0  0  0  0  0  0  0  0  0  0  0
   18.1000   59.9070   -9.5950 O   0  0  0  0  0  0  0  0  0  0  0  0
   14.8620   62.8950  -11.4630 C   0  0  0  0  0  1  0  0  0  0  0  0
   16.6610   64.6040  -10.5080 H   0  0  0  0  0  0  0  0  0  0  0  0
   21.2520   63.9080   -7.9500 N   0  0  0  0  0  0  0  0  0  0  0  0
   21.3410   64.3890   -6.6150 C   0  0  0  0  0  0  0  0  0  0  0  0
   20.5440   64.1940   -5.6620 O   0  0  0  0  0  0  0  0  0  0  0  0
   22.5890   65.2140   -6.4730 C   0  0  2  0  0  3  0  0  0  0  0  0
   23.3880   64.9460   -7.6980 C   0  0  1  0  0  3  0  0  0  0  0  0
   23.3330   64.7620   -5.2350 C   0  0  0  0  0  2  0  0  0  0  0  0
   24.7130   64.2500   -7.4430 C   0  0  0  0  0  2  0  0  0  0  0  0
   22.5660   64.0010   -8.4770 C   0  0  0  0  0  0  0  0  0  0  0  0
   24.4130   63.0750   -6.5630 C   0  0  0  0  0  3  0  0  0  0  0  0
   23.7250   63.3510   -5.4700 C   0  0  0  0  0  3  0  0  0  0  0  0
   22.9670   63.3460   -9.4940 O   0  0  0  0  0  0  0  0  0  0  0  0
  1  2  1  0  0  0  0
  2 10  1  0  0  0  0
  3  2  2  0  0  0  0
  3  4  1  0  0  0  0
  4  5  1  0  0  0  0
  5  6  1  0  0  0  0
  5  9  2  0  0  0  0
  6  7  1  0  0  0  0
  7  8  2  0  0  0  0
  8 14  1  0  0  0  0
  9  8  1  0  0  0  0
 10 11  2  0  0  0  0
 10  6  1  0  0  0  0
 12  3  1  0  0  0  0
 13  4  1  0  0  0  0
 14 15  1  0  0  0  0
 15 17  1  0  0  0  0
 15 16  2  0  0  0  0
 17 19  1  1  0  0  0
 18 20  1  1  0  0  0
 18 17  1  0  0  0  0
 20 22  1  0  0  0  0
 21 14  1  0  0  0  0
 21 18  1  0  0  0  0
 22 23  2  0  0  0  0
 23 19  1  0  0  0  0
 24 21  2  0  0  0  0
M  END
>  <Pose>
1

>  <Score>
-7.356

$$$$
