/Users/jonathanwahrer/Desktop/Msc/3_Semester/Drug_Design_Praktikum/waehrer_HTS_screening/HTS_experiment/out/docking_results/vina_output/3sx0/1825_docked.pdbqt
 OpenBabel03192222533D

 29 32  0  0  1  0  0  0  0  0999 V2000
   21.4550   64.3740   -9.5050 N   0  0  0  0  0  0  0  0  0  0  0  0
   22.4410   63.6920  -10.1600 C   0  0  1  0  0  3  0  0  0  0  0  0
   23.3630   63.2890   -9.2690 N   0  0  0  0  0  0  0  0  0  0  0  0
   23.0220   63.6810   -8.0350 C   0  0  0  0  0  0  0  0  0  0  0  0
   21.8100   64.3640   -8.2180 C   0  0  0  0  0  3  0  0  0  0  0  0
   24.4180   62.5690   -9.9820 C   0  0  0  0  0  2  0  0  0  0  0  0
   24.2300   62.9330  -11.4430 C   0  0  0  0  0  2  0  0  0  0  0  0
   22.7820   63.2560  -11.5380 C   0  0  0  0  0  2  0  0  0  0  0  0
   20.2850   64.9860  -10.1520 C   0  0  0  0  0  2  0  0  0  0  0  0
   19.3570   63.8760  -10.6030 C   0  0  0  0  0  0  0  0  0  0  0  0
   18.4100   63.3290   -9.7520 N   0  0  0  0  0  0  0  0  0  0  0  0
   18.3670   63.7350   -8.7690 H   0  0  0  0  0  0  0  0  0  0  0  0
   19.5160   63.5060  -11.7710 O   0  0  0  0  0  0  0  0  0  0  0  0
   17.5100   62.2910  -10.0660 C   0  0  0  0  0  0  0  0  0  0  0  0
   16.2470   62.6400  -10.5910 C   0  0  0  0  0  0  0  0  0  0  0  0
   15.3170   61.6790  -10.9150 C   0  0  0  0  0  0  0  0  0  0  0  0
   15.9120   64.0600  -10.7970 C   0  0  0  0  0  1  0  0  0  0  0  0
   13.7490   62.0960  -11.5730 Cl  0  0  0  0  0  0  0  0  0  0  0  0
   15.5740   60.3390  -10.7410 C   0  0  0  0  0  3  0  0  0  0  0  0
   16.7920   59.9690  -10.2310 C   0  0  0  0  0  3  0  0  0  0  0  0
   17.7420   60.9570   -9.9010 C   0  0  0  0  0  3  0  0  0  0  0  0
   23.6630   63.5140   -6.7410 C   0  0  0  0  0  0  0  0  0  0  0  0
   24.7850   62.7530   -6.5650 C   0  0  0  0  0  3  0  0  0  0  0  0
   25.4170   62.6000   -5.3450 C   0  0  0  0  0  3  0  0  0  0  0  0
   24.9270   63.2280   -4.2100 C   0  0  0  0  0  0  0  0  0  0  0  0
   23.7990   63.9930   -4.3850 C   0  0  0  0  0  3  0  0  0  0  0  0
   23.1680   64.1460   -5.6040 C   0  0  0  0  0  3  0  0  0  0  0  0
   25.5320   63.0980   -2.9710 O   0  0  0  0  0  0  0  0  0  0  0  0
   24.8150   62.7650   -1.7970 C   0  0  0  0  0  1  0  0  0  0  0  0
  1  5  1  0  0  0  0
  2  8  1  1  0  0  0
  2  1  1  0  0  0  0
  2  3  1  0  0  0  0
  3  4  1  0  0  0  0
  4 22  1  0  0  0  0
  5  4  2  0  0  0  0
  6  3  1  0  0  0  0
  7  6  1  0  0  0  0
  8  7  1  0  0  0  0
  9  1  1  0  0  0  0
 10  9  1  0  0  0  0
 10 11  1  0  0  0  0
 11 12  1  0  0  0  0
 13 10  2  0  0  0  0
 14 21  1  0  0  0  0
 14 11  1  0  0  0  0
 15 14  2  0  0  0  0
 16 19  2  0  0  0  0
 16 15  1  0  0  0  0
 17 15  1  0  0  0  0
 18 16  1  0  0  0  0
 19 20  1  0  0  0  0
 20 21  2  0  0  0  0
 22 23  2  0  0  0  0
 22 27  1  0  0  0  0
 23 24  1  0  0  0  0
 24 25  2  0  0  0  0
 25 28  1  0  0  0  0
 26 25  1  0  0  0  0
 27 26  2  0  0  0  0
 28 29  1  0  0  0  0
M  END
>  <Pose>
1

>  <Score>
-8.864

$$$$
