/Users/jonathanwahrer/Desktop/Msc/3_Semester/Drug_Design_Praktikum/waehrer_HTS_screening/HTS_experiment/out/docking_results/vina_output/3sx0/1837_docked.pdbqt
 OpenBabel03192222543D

 29 32  0  0  0  0  0  0  0  0999 V2000
   22.1900   63.5590   -9.3340 N   0  0  0  0  0  0  0  0  0  0  0  0
   21.9620   63.9930   -7.9400 C   0  0  0  0  0  2  0  0  0  0  0  0
   20.4860   63.6050   -7.7150 C   0  0  0  0  0  2  0  0  0  0  0  0
   19.8730   63.8710   -9.0260 N   0  0  0  0  0  0  0  0  0  0  0  0
   20.3490   65.0450   -9.6870 C   0  0  0  0  0  2  0  0  0  0  0  0
   21.7730   64.7140  -10.1640 C   0  0  0  0  0  2  0  0  0  0  0  0
   23.6000   63.3040   -9.5660 C   0  0  0  0  0  2  0  0  0  0  0  0
   23.7530   63.0820  -11.0530 C   0  0  0  0  0  0  0  0  0  0  0  0
   24.7630   63.7040  -11.7940 N   0  0  0  0  0  0  0  0  0  0  0  0
   25.3940   64.3750  -11.2550 H   0  0  0  0  0  0  0  0  0  0  0  0
   22.9390   62.3130  -11.6250 O   0  0  0  0  0  0  0  0  0  0  0  0
   25.0350   63.5840  -13.1730 C   0  0  0  0  0  0  0  0  0  0  0  0
   26.3560   63.4480  -13.6240 C   0  0  0  0  0  3  0  0  0  0  0  0
   26.6750   63.3190  -14.9510 C   0  0  0  0  0  3  0  0  0  0  0  0
   25.6760   63.3190  -15.9140 C   0  0  0  0  0  0  0  0  0  0  0  0
   26.0480   63.1550  -17.6160 Cl  0  0  0  0  0  0  0  0  0  0  0  0
   24.3770   63.4520  -15.4880 C   0  0  0  0  0  3  0  0  0  0  0  0
   24.0680   63.5810  -14.1390 C   0  0  0  0  0  3  0  0  0  0  0  0
   18.9120   62.9750   -9.5150 C   0  0  0  0  0  0  0  0  0  0  0  0
   19.1840   61.6350   -9.5740 N   0  0  0  0  0  0  0  0  0  0  0  0
   18.3300   60.7230  -10.0370 C   0  0  0  0  0  3  0  0  0  0  0  0
   17.1290   61.1120  -10.4790 N   0  0  0  0  0  0  0  0  0  0  0  0
   16.7490   62.3850  -10.4720 C   0  0  0  0  0  0  0  0  0  0  0  0
   15.6290   63.0320  -10.8520 N   0  0  0  0  0  0  0  0  0  0  0  0
   17.6550   63.3310   -9.9830 C   0  0  0  0  0  0  0  0  0  0  0  0
   15.8320   64.3020  -10.6090 N   0  0  0  0  0  0  0  0  0  0  0  0
   17.0360   64.4910  -10.0910 N   0  0  0  0  0  0  0  0  0  0  0  0
   14.4140   62.4810  -11.4220 C   0  0  0  0  0  2  0  0  0  0  0  0
   13.6130   63.5430  -12.1430 C   0  0  0  0  0  1  0  0  0  0  0  0
  1  2  1  0  0  0  0
  2  3  1  0  0  0  0
  4  3  1  0  0  0  0
  5  4  1  0  0  0  0
  6  5  1  0  0  0  0
  6  1  1  0  0  0  0
  7  1  1  0  0  0  0
  8  7  1  0  0  0  0
  9 10  1  0  0  0  0
  9  8  1  0  0  0  0
 11  8  2  0  0  0  0
 12  9  1  0  0  0  0
 13 12  1  0  0  0  0
 14 13  2  0  0  0  0
 15 17  2  0  0  0  0
 15 14  1  0  0  0  0
 16 15  1  0  0  0  0
 17 18  1  0  0  0  0
 18 12  2  0  0  0  0
 19  4  1  0  0  0  0
 20 19  1  0  0  0  0
 21 20  2  0  0  0  0
 22 23  2  0  0  0  0
 22 21  1  0  0  0  0
 23 25  1  0  0  0  0
 24 26  1  0  0  0  0
 24 23  1  0  0  0  0
 25 19  2  0  0  0  0
 26 27  2  0  0  0  0
 27 25  1  0  0  0  0
 28 24  1  0  0  0  0
 29 28  1  0  0  0  0
M  END
>  <Pose>
1

>  <Score>
-7.968

$$$$
