/Users/jonathanwahrer/Desktop/Msc/3_Semester/Drug_Design_Praktikum/waehrer_HTS_screening/HTS_experiment/out/docking_results/vina_output/3sx0/1850_docked.pdbqt
 OpenBabel03192222543D

 24 27  0  0  0  0  0  0  0  0999 V2000
   14.4860   63.6830  -11.2690 Cl  0  0  0  0  0  0  0  0  0  0  0  0
   15.5780   62.3580  -10.8910 C   0  0  0  0  0  0  0  0  0  0  0  0
   16.9420   62.5670  -10.8440 C   0  0  0  0  0  0  0  0  0  0  0  0
   17.7920   61.5380  -10.5500 C   0  0  0  0  0  0  0  0  0  0  0  0
   17.2530   60.2950  -10.3040 C   0  0  0  0  0  3  0  0  0  0  0  0
   15.8960   60.0640  -10.3470 C   0  0  0  0  0  3  0  0  0  0  0  0
   15.0460   61.1110  -10.6440 C   0  0  0  0  0  3  0  0  0  0  0  0
   19.2650   61.6820  -10.4800 C   0  0  0  0  0  2  0  0  0  0  0  0
   19.5610   63.0900  -10.5800 N   0  0  0  0  0  0  0  0  0  0  0  0
   18.8670   63.8290  -11.6080 C   0  0  0  0  0  2  0  0  0  0  0  0
   17.4160   63.9520  -11.1270 C   0  0  0  0  0  2  0  0  0  0  0  0
   20.4790   63.7430   -9.7240 C   0  0  0  0  0  0  0  0  0  0  0  0
   20.6920   64.9760   -9.8640 O   0  0  0  0  0  0  0  0  0  0  0  0
   21.2250   63.0480   -8.6490 C   0  0  0  0  0  2  0  0  0  0  0  0
   22.4260   63.6860   -8.3420 O   0  0  0  0  0  0  0  0  0  0  0  0
   22.9800   63.7340   -7.0700 C   0  0  0  0  0  0  0  0  0  0  0  0
   24.1050   63.0390   -6.8160 N   0  0  0  0  0  0  0  0  0  0  0  0
   24.6850   63.0430   -5.6190 N   0  0  0  0  0  0  0  0  0  0  0  0
   24.1900   63.7380   -4.5860 C   0  0  0  0  0  0  0  0  0  0  0  0
   25.7940   62.4220   -5.1770 C   0  0  0  0  0  3  0  0  0  0  0  0
   24.9810   63.5540   -3.5100 N   0  0  0  0  0  0  0  0  0  0  0  0
   23.0280   64.4680   -4.8110 C   0  0  0  0  0  3  0  0  0  0  0  0
   25.9490   62.7540   -3.8850 N   0  0  0  0  0  0  0  0  0  0  0  0
   22.4290   64.4650   -6.0470 C   0  0  0  0  0  3  0  0  0  0  0  0
  1  2  1  0  0  0  0
  2  3  2  0  0  0  0
  2  7  1  0  0  0  0
  3  4  1  0  0  0  0
  4  8  1  0  0  0  0
  4  5  2  0  0  0  0
  6  5  1  0  0  0  0
  7  6  2  0  0  0  0
  9  8  1  0  0  0  0
  9 12  1  0  0  0  0
 10 11  1  0  0  0  0
 10  9  1  0  0  0  0
 11  3  1  0  0  0  0
 12 14  1  0  0  0  0
 13 12  2  0  0  0  0
 14 15  1  0  0  0  0
 15 16  1  0  0  0  0
 16 17  2  0  0  0  0
 16 24  1  0  0  0  0
 17 18  1  0  0  0  0
 18 20  1  0  0  0  0
 18 19  1  0  0  0  0
 19 21  2  0  0  0  0
 20 23  2  0  0  0  0
 22 19  1  0  0  0  0
 23 21  1  0  0  0  0
 24 22  2  0  0  0  0
M  END
>  <Pose>
1

>  <Score>
-9.463

$$$$
