/Users/jonathanwahrer/Desktop/Msc/3_Semester/Drug_Design_Praktikum/waehrer_HTS_screening/HTS_experiment/out/docking_results/vina_output/3sx0/1856_docked.pdbqt
 OpenBabel03192222553D

 31 34  0  0  0  0  0  0  0  0999 V2000
   23.0410   63.7690   -8.4280 C   0  0  0  0  0  0  0  0  0  0  0  0
   23.6730   63.1170   -7.4390 N   0  0  0  0  0  4  0  0  0  0  0  0
   23.9600   63.6680   -6.2300 C   0  0  0  0  0  0  0  0  0  0  0  0
   23.5570   64.9570   -6.0770 N   0  0  0  0  0  0  0  0  0  0  0  0
   22.9220   65.6600   -7.0280 C   0  0  0  0  0  0  0  0  0  0  0  0
   22.6780   65.0510   -8.1810 N   0  0  0  0  0  2  0  0  0  0  0  0
   22.7640   63.1490   -9.6750 N   0  0  0  0  0  0  0  0  0  0  0  0
   23.5300   62.7960  -10.2820 H   0  0  0  0  0  0  0  0  0  0  0  0
   21.4550   62.9910  -10.1290 N   0  0  0  0  0  0  0  0  0  0  0  0
   20.5070   62.8640   -9.2260 C   0  0  0  0  0  3  0  0  0  0  0  0
   19.1280   62.6960   -9.6550 C   0  0  0  0  0  0  0  0  0  0  0  0
   18.2850   63.8170   -9.7210 C   0  0  0  0  0  3  0  0  0  0  0  0
   16.9900   63.6800  -10.1210 C   0  0  0  0  0  0  0  0  0  0  0  0
   15.8410   65.2000  -10.2110 Br  0  0  0  0  0  0  0  0  0  0  0  0
   16.4800   62.4490  -10.4690 C   0  0  0  0  0  3  0  0  0  0  0  0
   17.2840   61.3390  -10.4140 C   0  0  0  0  0  3  0  0  0  0  0  0
   18.6200   61.4740  -10.0020 C   0  0  0  0  0  0  0  0  0  0  0  0
   19.4030   60.3370   -9.9570 O   0  0  0  0  0  0  0  0  0  0  0  0
   19.3080   59.6080   -9.2800 H   0  0  0  0  0  0  0  0  0  0  0  0
   24.6240   62.9560   -5.2140 N   0  0  0  0  0  0  0  0  0  0  0  0
   25.8380   62.2490   -5.4930 C   0  0  0  0  0  2  0  0  0  0  0  0
   26.8740   62.7250   -4.4890 C   0  0  0  0  0  2  0  0  0  0  0  0
   26.3600   62.4490   -3.2130 O   0  0  0  0  0  0  0  0  0  0  0  0
   25.2680   63.2750   -2.9460 C   0  0  0  0  0  2  0  0  0  0  0  0
   24.1050   62.9190   -3.8800 C   0  0  0  0  0  2  0  0  0  0  0  0
   22.5310   66.9990   -6.7990 N   0  0  0  0  0  0  0  0  0  0  0  0
   21.2820   67.5540   -7.2810 C   0  0  0  0  0  2  0  0  0  0  0  0
   20.8080   68.6400   -6.3390 C   0  0  0  0  0  2  0  0  0  0  0  0
   21.7220   69.6420   -6.1490 O   0  0  0  0  0  0  0  0  0  0  0  0
   23.0060   69.3170   -6.5660 C   0  0  0  0  0  2  0  0  0  0  0  0
   23.3770   67.9310   -6.0460 C   0  0  0  0  0  2  0  0  0  0  0  0
  1  6  1  0  0  0  0
  1  2  2  0  0  0  0
  2  3  2  0  0  0  0
  3  4  1  0  0  0  0
  3 20  1  0  0  0  0
  5 26  1  0  0  0  0
  5  4  2  0  0  0  0
  6  5  1  0  0  0  0
  7  1  1  0  0  0  0
  8  7  1  0  0  0  0
  9  7  1  0  0  0  0
  9 10  2  0  0  0  0
 11 10  1  0  0  0  0
 12 11  1  0  0  0  0
 13 12  2  0  0  0  0
 14 13  1  0  0  0  0
 15 16  2  0  0  0  0
 15 13  1  0  0  0  0
 16 17  1  0  0  0  0
 17 18  1  0  0  0  0
 17 11  2  0  0  0  0
 18 19  1  0  0  0  0
 20 25  1  0  0  0  0
 21 20  1  0  0  0  0
 21 22  1  0  0  0  0
 22 23  1  0  0  0  0
 23 24  1  0  0  0  0
 25 24  1  0  0  0  0
 26 31  1  0  0  0  0
 27 26  1  0  0  0  0
 27 28  1  0  0  0  0
 28 29  1  0  0  0  0
 30 29  1  0  0  0  0
 30 31  1  0  0  0  0
M  END
>  <Pose>
1

>  <Score>
-9.477

$$$$
