/Users/jonathanwahrer/Desktop/Msc/3_Semester/Drug_Design_Praktikum/waehrer_HTS_screening/HTS_experiment/out/docking_results/vina_output/3sx0/1863_docked.pdbqt
 OpenBabel03192222553D

 33 36  0  0  0  0  0  0  0  0999 V2000
   20.8700   63.9610   -9.9470 N   0  0  0  0  0  0  0  0  0  0  0  0
   21.4090   63.5910  -11.1410 C   0  0  0  0  0  0  0  0  0  0  0  0
   22.7720   63.6410  -11.0140 C   0  0  0  0  0  0  0  0  0  0  0  0
   23.0130   64.0350   -9.7640 N   0  0  0  0  0  0  0  0  0  0  0  0
   21.8520   64.2410   -9.0860 C   0  0  0  0  0  0  0  0  0  0  0  0
   23.5260   63.3280  -12.0820 N   0  0  0  0  0  0  0  0  0  0  0  0
   22.9680   62.9710  -13.2700 C   0  0  0  0  0  0  0  0  0  0  0  0
   23.6740   62.6740  -14.2860 O   0  0  0  0  0  0  0  0  0  0  0  0
   21.6350   62.9140  -13.4250 N   0  0  0  0  0  0  0  0  0  0  0  0
   20.8670   63.2210  -12.3700 C   0  0  0  0  0  0  0  0  0  0  0  0
   19.6300   63.1610  -12.5470 O   0  0  0  0  0  0  0  0  0  0  0  0
   24.9630   63.3700  -12.0000 C   0  0  0  0  0  1  0  0  0  0  0  0
   21.2020   62.6330  -14.3560 H   0  0  0  0  0  0  0  0  0  0  0  0
   21.7770   64.7130   -7.7240 N   0  0  0  0  0  0  0  0  0  0  0  0
   21.2560   63.7620   -6.7700 C   0  0  0  0  0  2  0  0  0  0  0  0
   21.2740   64.2590   -5.3470 C   0  0  0  0  0  2  0  0  0  0  0  0
   22.5460   64.8320   -5.1010 N   0  0  0  0  0  0  0  0  0  0  0  0
   22.7790   65.9920   -5.8950 C   0  0  0  0  0  2  0  0  0  0  0  0
   22.1610   66.0030   -7.2620 C   0  0  0  0  0  2  0  0  0  0  0  0
   23.5770   63.8450   -5.1820 C   0  0  0  0  0  2  0  0  0  0  0  0
   24.0510   63.3520   -3.8560 C   0  0  0  0  0  0  0  0  0  0  0  0
   24.4670   64.0850   -2.9450 O   0  0  0  0  0  0  0  0  0  0  0  0
   23.9990   61.9280   -3.6860 N   0  0  0  0  0  0  0  0  0  0  0  0
   24.7550   61.3030   -4.0470 H   0  0  0  0  0  0  0  0  0  0  0  0
   23.2020   61.5240   -3.1990 H   0  0  0  0  0  0  0  0  0  0  0  0
   19.4680   63.9980   -9.7000 C   0  0  0  0  0  2  0  0  0  0  0  0
   18.7610   62.6950   -9.8040 C   0  0  0  0  0  0  0  0  0  0  0  0
   17.4350   62.6990  -10.2640 C   0  0  0  0  0  3  0  0  0  0  0  0
   16.6870   61.5630  -10.3930 C   0  0  0  0  0  0  0  0  0  0  0  0
   15.0260   61.5570  -10.9780 Cl  0  0  0  0  0  0  0  0  0  0  0  0
   17.2450   60.3480  -10.0570 C   0  0  0  0  0  3  0  0  0  0  0  0
   18.5490   60.3340   -9.6040 C   0  0  0  0  0  3  0  0  0  0  0  0
   19.3050   61.4900   -9.4750 C   0  0  0  0  0  3  0  0  0  0  0  0
  1 26  1  0  0  0  0
  1  5  1  0  0  0  0
  2  3  2  0  0  0  0
  2  1  1  0  0  0  0
  3  4  1  0  0  0  0
  4  5  2  0  0  0  0
  5 14  1  0  0  0  0
  6 12  1  0  0  0  0
  6  3  1  0  0  0  0
  7  6  1  0  0  0  0
  8  7  2  0  0  0  0
  9  7  1  0  0  0  0
  9 10  1  0  0  0  0
 10  2  1  0  0  0  0
 11 10  2  0  0  0  0
 13  9  1  0  0  0  0
 14 19  1  0  0  0  0
 14 15  1  0  0  0  0
 15 16  1  0  0  0  0
 16 17  1  0  0  0  0
 18 17  1  0  0  0  0
 19 18  1  0  0  0  0
 20 17  1  0  0  0  0
 20 21  1  0  0  0  0
 21 23  1  0  0  0  0
 21 22  2  0  0  0  0
 23 25  1  0  0  0  0
 24 23  1  0  0  0  0
 27 26  1  0  0  0  0
 27 33  1  0  0  0  0
 28 27  2  0  0  0  0
 29 28  1  0  0  0  0
 29 31  2  0  0  0  0
 30 29  1  0  0  0  0
 31 32  1  0  0  0  0
 32 33  2  0  0  0  0
M  END
>  <Pose>
1

>  <Score>
-6.862

$$$$
