/Users/jonathanwahrer/Desktop/Msc/3_Semester/Drug_Design_Praktikum/waehrer_HTS_screening/HTS_experiment/out/docking_results/vina_output/3sx0/1865_docked.pdbqt
 OpenBabel03192222553D

 29 32  0  0  1  0  0  0  0  0999 V2000
   12.3020   64.3000  -13.2260 N   0  0  0  0  0  0  0  0  0  0  0  0
   12.7240   63.2880  -14.1520 C   0  0  0  0  0  0  0  0  0  0  0  0
   13.4910   62.3120  -13.8620 O   0  0  0  0  0  0  0  0  0  0  0  0
   12.1470   63.5560  -15.4280 N   0  0  0  0  0  0  0  0  0  0  0  0
   11.8040   64.9610  -15.4120 C   0  0  1  0  0  0  0  0  0  0  0  0
   13.0850   65.7310  -15.6720 C   0  0  0  0  0  2  0  0  0  0  0  0
   12.8150   67.1620  -15.2220 C   0  0  0  0  0  2  0  0  0  0  0  0
   11.5550   67.6270  -15.7710 N   0  0  0  0  0  0  0  0  0  0  0  0
   10.8420   66.8050  -16.7120 C   0  0  0  0  0  2  0  0  0  0  0  0
   10.7540   65.3560  -16.3600 C   0  0  0  0  0  2  0  0  0  0  0  0
   11.0390   68.8890  -15.3800 C   0  0  0  0  0  0  0  0  0  0  0  0
    9.9300   69.2890  -15.8620 O   0  0  0  0  0  0  0  0  0  0  0  0
   11.4640   65.1700  -13.9830 C   0  0  0  0  0  0  0  0  0  0  0  0
   10.6180   65.9430  -13.4590 O   0  0  0  0  0  0  0  0  0  0  0  0
   12.0030   62.8870  -16.2070 H   0  0  0  0  0  0  0  0  0  0  0  0
   12.6400   64.4270  -11.8270 C   0  0  0  0  0  2  0  0  0  0  0  0
   13.9680   63.8640  -11.5050 C   0  0  0  0  0  0  0  0  0  0  0  0
   14.1270   62.5360  -11.1850 C   0  0  0  0  0  3  0  0  0  0  0  0
   15.3490   61.9750  -10.8780 C   0  0  0  0  0  0  0  0  0  0  0  0
   15.5430   60.2810  -10.4720 Cl  0  0  0  0  0  0  0  0  0  0  0  0
   16.4460   62.8120  -10.9030 C   0  0  0  0  0  3  0  0  0  0  0  0
   16.3020   64.1470  -11.2220 C   0  0  0  0  0  3  0  0  0  0  0  0
   15.0670   64.6920  -11.5270 C   0  0  0  0  0  3  0  0  0  0  0  0
   11.7090   69.7760  -14.4450 C   0  0  0  0  0  0  0  0  0  0  0  0
   11.5790   69.6570  -13.1090 N   0  0  0  0  0  0  0  0  0  0  0  0
   12.2290   70.5140  -12.3020 C   0  0  0  0  0  3  0  0  0  0  0  0
   13.0340   71.5220  -12.7870 C   0  0  0  0  0  3  0  0  0  0  0  0
   13.1660   71.6440  -14.1160 N   0  0  0  0  0  0  0  0  0  0  0  0
   12.5110   70.7790  -14.9380 C   0  0  0  0  0  3  0  0  0  0  0  0
  1 16  1  0  0  0  0
  2  3  2  0  0  0  0
  2  1  1  0  0  0  0
  4  5  1  0  0  0  0
  4  2  1  0  0  0  0
  5 10  1  6  0  0  0
  5 13  1  0  0  0  0
  6  5  1  0  0  0  0
  6  7  1  0  0  0  0
  8 11  1  0  0  0  0
  8  7  1  0  0  0  0
  9 10  1  0  0  0  0
  9  8  1  0  0  0  0
 11 24  1  0  0  0  0
 12 11  2  0  0  0  0
 13 14  2  0  0  0  0
 13  1  1  0  0  0  0
 15  4  1  0  0  0  0
 16 17  1  0  0  0  0
 17 18  1  0  0  0  0
 18 19  2  0  0  0  0
 19 20  1  0  0  0  0
 21 19  1  0  0  0  0
 22 21  2  0  0  0  0
 23 17  2  0  0  0  0
 23 22  1  0  0  0  0
 24 25  1  0  0  0  0
 25 26  2  0  0  0  0
 27 26  1  0  0  0  0
 28 27  2  0  0  0  0
 29 24  2  0  0  0  0
 29 28  1  0  0  0  0
M  END
>  <Pose>
1

>  <Score>
-6.392

$$$$
