/Users/jonathanwahrer/Desktop/Msc/3_Semester/Drug_Design_Praktikum/waehrer_HTS_screening/HTS_experiment/out/docking_results/vina_output/3sx0/1871_docked.pdbqt
 OpenBabel03192222553D

 28 31  0  0  1  0  0  0  0  0999 V2000
   21.6750   64.2490   -7.0900 C   0  0  2  0  0  0  0  0  0  0  0  0
   22.7590   63.3470   -7.0500 N   0  0  0  0  0  4  0  0  0  0  0  0
   23.2460   63.1020   -8.3410 C   0  0  0  0  0  0  0  0  0  0  0  0
   24.1050   62.3520   -8.9870 C   0  0  0  0  0  3  0  0  0  0  0  0
   24.2800   62.4590  -10.4400 C   0  0  0  0  0  3  0  0  0  0  0  0
   23.7750   63.6220  -11.1590 C   0  0  0  0  0  3  0  0  0  0  0  0
   22.9680   64.5930  -10.3340 C   0  0  0  0  0  2  0  0  0  0  0  0
   22.4300   63.9680   -9.1790 N   0  0  0  0  0  0  0  0  0  0  0  0
   21.1420   63.9310   -8.4980 C   0  0  2  0  0  3  0  0  0  0  0  0
   20.2140   64.9200   -9.0690 C   0  0  0  0  0  1  0  0  0  0  0  0
   22.2300   62.3800   -6.8640 H   0  0  0  0  0  0  0  0  0  0  0  0
   21.9450   65.6810   -6.9840 C   0  0  0  0  0  0  0  0  0  0  0  0
   23.1660   66.1130   -6.5360 C   0  0  0  0  0  3  0  0  0  0  0  0
   23.4660   67.4670   -6.3990 C   0  0  0  0  0  3  0  0  0  0  0  0
   22.4890   68.3950   -6.7290 C   0  0  0  0  0  0  0  0  0  0  0  0
   22.7680   70.1200   -6.5890 Cl  0  0  0  0  0  0  0  0  0  0  0  0
   21.2640   67.9440   -7.1810 C   0  0  0  0  0  3  0  0  0  0  0  0
   20.9670   66.6030   -7.3160 C   0  0  0  0  0  3  0  0  0  0  0  0
   20.6880   63.8370   -6.2250 O   0  0  0  0  0  0  0  0  0  0  0  0
   19.7890   63.7460   -6.5900 H   0  0  0  0  0  0  0  0  0  0  0  0
   23.5920   63.3770   -5.9360 C   0  0  0  0  0  0  0  0  0  0  0  0
   24.9040   62.9710   -6.1170 C   0  0  0  0  0  3  0  0  0  0  0  0
   25.8240   62.9420   -5.0960 C   0  0  0  0  0  3  0  0  0  0  0  0
   25.4920   63.3250   -3.7930 C   0  0  0  0  0  0  0  0  0  0  0  0
   24.1860   63.7210   -3.6420 C   0  0  0  0  0  3  0  0  0  0  0  0
   23.2730   63.7480   -4.6670 C   0  0  0  0  0  3  0  0  0  0  0  0
   26.4260   63.2960   -2.7760 O   0  0  0  0  0  0  0  0  0  0  0  0
   26.1450   62.5850   -1.5960 C   0  0  0  0  0  1  0  0  0  0  0  0
  1  2  1  0  0  0  0
  1 12  1  0  0  0  0
  1 19  1  1  0  0  0
  2 11  1  0  0  0  0
  2 21  1  0  0  0  0
  3  2  1  0  0  0  0
  4  3  2  0  0  0  0
  5  4  1  0  0  0  0
  6  5  2  0  0  0  0
  6  7  1  0  0  0  0
  7  8  1  0  0  0  0
  8  9  1  0  0  0  0
  8  3  1  0  0  0  0
  9 10  1  6  0  0  0
  9  1  1  0  0  0  0
 12 13  1  0  0  0  0
 13 14  2  0  0  0  0
 15 16  1  0  0  0  0
 15 14  1  0  0  0  0
 17 15  2  0  0  0  0
 18 17  1  0  0  0  0
 18 12  2  0  0  0  0
 20 19  1  0  0  0  0
 21 26  1  0  0  0  0
 22 21  2  0  0  0  0
 22 23  1  0  0  0  0
 23 24  2  0  0  0  0
 24 25  1  0  0  0  0
 24 27  1  0  0  0  0
 26 25  2  0  0  0  0
 27 28  1  0  0  0  0
M  END
>  <Pose>
1

>  <Score>
-5.059

$$$$
