/Users/jonathanwahrer/Desktop/Msc/3_Semester/Drug_Design_Praktikum/waehrer_HTS_screening/HTS_experiment/out/docking_results/vina_output/3sx0/1927_docked.pdbqt
 OpenBabel03192222573D

 36 39  0  0  1  0  0  0  0  0999 V2000
   18.2130   63.7580   -9.8010 C   0  0  0  0  0  2  0  0  0  0  0  0
   19.6510   63.7010  -10.1040 C   0  0  0  0  0  0  0  0  0  0  0  0
   20.7580   64.1230   -9.3810 N   0  0  0  0  0  0  0  0  0  0  0  0
   20.7420   64.9380   -8.2180 C   0  0  0  0  0  2  0  0  0  0  0  0
   22.1000   63.6760   -9.8400 C   0  0  0  0  0  2  0  0  0  0  0  0
   21.4040   64.2180   -7.0610 C   0  0  0  0  0  2  0  0  0  0  0  0
   22.8740   64.1480   -7.4680 C   0  0  2  0  0  0  0  0  0  0  0  0
   23.0530   63.3900   -8.7300 C   0  0  0  0  0  2  0  0  0  0  0  0
   19.9010   63.1610  -11.2700 O   0  0  0  0  0  0  0  0  0  0  0  0
   23.6930   63.7430   -6.3400 C   0  0  0  0  0  0  0  0  0  0  0  0
   23.2880   64.1600   -5.0650 C   0  0  0  0  0  3  0  0  0  0  0  0
   24.0220   63.8550   -3.9190 C   0  0  0  0  0  3  0  0  0  0  0  0
   25.1840   63.1250   -3.9990 C   0  0  0  0  0  0  0  0  0  0  0  0
   26.1300   62.7420   -2.5370 Cl  0  0  0  0  0  0  0  0  0  0  0  0
   25.5950   62.7070   -5.2540 C   0  0  0  0  0  3  0  0  0  0  0  0
   24.8590   63.0170   -6.3810 C   0  0  0  0  0  3  0  0  0  0  0  0
   23.1960   65.5120   -7.7600 O   0  0  0  0  0  0  0  0  0  0  0  0
   22.4700   65.8500   -8.3410 H   0  0  0  0  0  0  0  0  0  0  0  0
   17.3340   64.0540  -10.8450 N   0  0  0  0  0  0  0  0  0  0  0  0
   15.9870   64.5020  -10.6830 C   0  0  0  0  0  0  0  0  0  0  0  0
   15.6010   64.6010   -9.4880 O   0  0  0  0  0  0  0  0  0  0  0  0
   17.6500   64.0310  -11.8520 H   0  0  0  0  0  0  0  0  0  0  0  0
   15.1630   64.8130  -11.8180 C   0  0  0  0  0  3  0  0  0  0  0  0
   14.3060   64.0980  -12.4690 C   0  0  0  0  0  0  0  0  0  0  0  0
   14.0090   62.7380  -12.1420 N   0  0  0  0  0  0  0  0  0  0  0  0
   13.5400   64.6700  -13.6050 C   0  0  0  0  0  0  0  0  0  0  0  0
   13.0510   61.9880  -12.8540 N   0  0  0  0  0  0  0  0  0  0  0  0
   14.5020   62.2540  -11.3540 H   0  0  0  0  0  0  0  0  0  0  0  0
   12.3380   62.5550  -13.9300 C   0  0  0  0  0  0  0  0  0  0  0  0
   12.8520   60.9950  -12.5870 H   0  0  0  0  0  0  0  0  0  0  0  0
   11.4850   61.8470  -14.5410 O   0  0  0  0  0  0  0  0  0  0  0  0
   12.6070   63.9320  -14.2950 C   0  0  0  0  0  0  0  0  0  0  0  0
   11.8650   64.4490  -15.3370 C   0  0  0  0  0  3  0  0  0  0  0  0
   12.0800   65.7780  -15.6940 C   0  0  0  0  0  3  0  0  0  0  0  0
   12.9960   66.5540  -15.0390 C   0  0  0  0  0  3  0  0  0  0  0  0
   13.7170   65.9680  -13.9920 C   0  0  0  0  0  3  0  0  0  0  0  0
  2  1  1  0  0  0  0
  2  3  1  0  0  0  0
  3  4  1  0  0  0  0
  4  6  1  0  0  0  0
  5  3  1  0  0  0  0
  5  8  1  0  0  0  0
  7 17  1  6  0  0  0
  7  6  1  0  0  0  0
  7 10  1  0  0  0  0
  8  7  1  0  0  0  0
  9  2  2  0  0  0  0
 10 11  1  0  0  0  0
 11 12  2  0  0  0  0
 13 12  1  0  0  0  0
 13 14  1  0  0  0  0
 15 13  2  0  0  0  0
 16 10  2  0  0  0  0
 16 15  1  0  0  0  0
 18 17  1  0  0  0  0
 19 20  1  0  0  0  0
 19  1  1  0  0  0  0
 20 21  2  0  0  0  0
 22 19  1  0  0  0  0
 23 20  1  0  0  0  0
 24 25  1  0  0  0  0
 24 23  2  0  0  0  0
 25 28  1  0  0  0  0
 26 24  1  0  0  0  0
 27 30  1  0  0  0  0
 27 25  1  0  0  0  0
 29 27  1  0  0  0  0
 31 29  2  0  0  0  0
 32 29  1  0  0  0  0
 32 26  2  0  0  0  0
 33 32  1  0  0  0  0
 34 33  2  0  0  0  0
 34 35  1  0  0  0  0
 35 36  2  0  0  0  0
 36 26  1  0  0  0  0
M  END
>  <Pose>
1

>  <Score>
-9.529

$$$$
