/Users/jonathanwahrer/Desktop/Msc/3_Semester/Drug_Design_Praktikum/waehrer_HTS_screening/HTS_experiment/out/docking_results/vina_output/3sx0/1936_docked.pdbqt
 OpenBabel03192222573D

 25 28  0  0  0  0  0  0  0  0999 V2000
   22.8680   64.5090   -8.5120 N   0  0  0  0  0  0  0  0  0  0  0  0
   23.3570   63.5660   -7.5870 C   0  0  0  0  0  0  0  0  0  0  0  0
   23.5510   62.4070   -7.9920 O   0  0  0  0  0  0  0  0  0  0  0  0
   22.6970   65.4900   -8.1920 H   0  0  0  0  0  0  0  0  0  0  0  0
   22.5850   64.1760   -9.8960 C   0  0  0  0  0  2  0  0  0  0  0  0
   21.1850   63.6430  -10.0180 C   0  0  0  0  0  0  0  0  0  0  0  0
   20.0810   64.3340  -10.3590 N   0  0  0  0  0  0  0  0  0  0  0  0
   19.0010   63.5320  -10.3670 C   0  0  0  0  0  0  0  0  0  0  0  0
   17.6580   63.6850  -10.6320 C   0  0  0  0  0  3  0  0  0  0  0  0
   19.4450   62.2550  -10.0100 C   0  0  0  0  0  0  0  0  0  0  0  0
   16.7340   62.6560  -10.5640 C   0  0  0  0  0  0  0  0  0  0  0  0
   15.0250   62.9060  -10.9130 Cl  0  0  0  0  0  0  0  0  0  0  0  0
   17.2040   61.3960  -10.2060 C   0  0  0  0  0  3  0  0  0  0  0  0
   18.5390   61.2230   -9.9390 C   0  0  0  0  0  3  0  0  0  0  0  0
   20.7720   62.3820   -9.8130 N   0  0  0  0  0  0  0  0  0  0  0  0
   21.4050   61.5980   -9.5320 H   0  0  0  0  0  0  0  0  0  0  0  0
   23.6440   63.8990   -6.1810 C   0  0  0  0  0  0  0  0  0  0  0  0
   23.5350   65.3270   -5.8120 C   0  0  0  0  0  2  0  0  0  0  0  0
   22.4160   64.4610   -5.3860 C   0  0  0  0  0  2  0  0  0  0  0  0
   24.4070   62.9930   -5.3770 N   0  0  0  0  0  0  0  0  0  0  0  0
   24.0520   62.9080   -4.0160 C   0  0  0  0  0  2  0  0  0  0  0  0
   25.0010   63.8080   -3.2330 C   0  0  0  0  0  2  0  0  0  0  0  0
   26.2700   63.2780   -3.2440 O   0  0  0  0  0  0  0  0  0  0  0  0
   26.5870   62.5530   -4.3660 C   0  0  0  0  0  2  0  0  0  0  0  0
   25.7970   62.9850   -5.5850 C   0  0  0  0  0  2  0  0  0  0  0  0
  1  4  1  0  0  0  0
  1  2  1  0  0  0  0
  2 17  1  0  0  0  0
  3  2  2  0  0  0  0
  5  1  1  0  0  0  0
  6  5  1  0  0  0  0
  6 15  1  0  0  0  0
  7  6  2  0  0  0  0
  8  7  1  0  0  0  0
  8 10  1  0  0  0  0
  9 11  1  0  0  0  0
  9  8  2  0  0  0  0
 10 14  2  0  0  0  0
 10 15  1  0  0  0  0
 11 13  2  0  0  0  0
 12 11  1  0  0  0  0
 13 14  1  0  0  0  0
 15 16  1  0  0  0  0
 17 18  1  0  0  0  0
 17 19  1  0  0  0  0
 17 20  1  0  0  0  0
 18 19  1  0  0  0  0
 20 21  1  0  0  0  0
 21 22  1  0  0  0  0
 23 22  1  0  0  0  0
 24 23  1  0  0  0  0
 25 20  1  0  0  0  0
 25 24  1  0  0  0  0
M  END
>  <Pose>
1

>  <Score>
-8.827

$$$$
