/Users/jonathanwahrer/Desktop/Msc/3_Semester/Drug_Design_Praktikum/waehrer_HTS_screening/HTS_experiment/out/docking_results/vina_output/3sx0/1937_docked.pdbqt
 OpenBabel03192222583D

 31 34  0  0  1  0  0  0  0  0999 V2000
   11.8690   65.1780  -14.4350 N   0  0  0  0  0  0  0  0  0  0  0  0
   12.2490   65.0280  -15.7620 C   0  0  0  0  0  2  0  0  0  0  0  0
   11.5360   66.1830  -16.5860 C   0  0  0  0  0  2  0  0  0  0  0  0
   11.4430   67.2070  -15.5800 N   0  0  0  0  0  0  0  0  0  0  0  0
   10.2610   66.9760  -14.7000 C   0  0  0  0  0  2  0  0  0  0  0  0
   10.4060   65.5220  -14.3480 C   0  0  0  0  0  2  0  0  0  0  0  0
   12.2560   68.2970  -15.4830 C   0  0  0  0  0  0  0  0  0  0  0  0
   12.3760   68.8460  -14.3340 O   0  0  0  0  0  0  0  0  0  0  0  0
   12.1070   64.1730  -13.4270 C   0  0  0  0  0  2  0  0  0  0  0  0
   13.4600   64.5030  -12.7870 C   0  0  0  0  0  0  0  0  0  0  0  0
   13.7140   63.9870  -11.5150 N   0  0  0  0  0  0  0  0  0  0  0  0
   12.8390   63.6150  -11.0000 H   0  0  0  0  0  0  0  0  0  0  0  0
   14.2560   65.1730  -13.3920 O   0  0  0  0  0  0  0  0  0  0  0  0
   14.9450   63.9950  -10.8110 C   0  0  0  0  0  2  0  0  0  0  0  0
   15.6010   62.6620  -10.7700 C   0  0  0  0  0  0  0  0  0  0  0  0
   16.9450   62.6050  -10.4170 C   0  0  0  0  0  0  0  0  0  0  0  0
   17.8390   64.1020  -10.3140 Cl  0  0  0  0  0  0  0  0  0  0  0  0
   17.5860   61.4280  -10.2040 C   0  0  0  0  0  3  0  0  0  0  0  0
   16.9680   60.1980  -10.3010 C   0  0  0  0  0  3  0  0  0  0  0  0
   15.6050   60.2600  -10.6600 C   0  0  0  0  0  3  0  0  0  0  0  0
   14.9500   61.4630  -10.8920 C   0  0  0  0  0  3  0  0  0  0  0  0
   13.0310   68.9680  -16.5730 C   0  0  1  0  0  3  0  0  0  0  0  0
   12.0310   69.2150  -17.6160 O   0  0  0  0  0  0  0  0  0  0  0  0
   10.7770   69.5490  -17.0290 C   0  0  0  0  0  0  0  0  0  0  0  0
   10.8000   70.2720  -15.8660 C   0  0  0  0  0  0  0  0  0  0  0  0
    9.5670   69.1710  -17.5990 C   0  0  0  0  0  3  0  0  0  0  0  0
    9.6270   70.6390  -15.2140 C   0  0  0  0  0  3  0  0  0  0  0  0
   12.0330   70.6500  -15.3210 O   0  0  0  0  0  0  0  0  0  0  0  0
    8.4380   70.2330  -15.8090 C   0  0  0  0  0  3  0  0  0  0  0  0
    8.3800   69.5130  -16.9820 C   0  0  0  0  0  3  0  0  0  0  0  0
   13.2720   70.4040  -16.0330 C   0  0  0  0  0  2  0  0  0  0  0  0
  1  6  1  0  0  0  0
  1  9  1  0  0  0  0
  2  1  1  0  0  0  0
  3  2  1  0  0  0  0
  3  4  1  0  0  0  0
  4  7  1  0  0  0  0
  4  5  1  0  0  0  0
  5  6  1  0  0  0  0
  7  8  2  0  0  0  0
  9 10  1  0  0  0  0
 10 11  1  0  0  0  0
 11 12  1  0  0  0  0
 11 14  1  0  0  0  0
 13 10  2  0  0  0  0
 14 15  1  0  0  0  0
 15 16  1  0  0  0  0
 16 17  1  0  0  0  0
 16 18  2  0  0  0  0
 19 18  1  0  0  0  0
 20 19  2  0  0  0  0
 21 15  2  0  0  0  0
 21 20  1  0  0  0  0
 22 31  1  0  0  0  0
 22  7  1  1  0  0  0
 23 24  1  0  0  0  0
 23 22  1  0  0  0  0
 24 25  1  0  0  0  0
 25 28  1  0  0  0  0
 25 27  2  0  0  0  0
 26 24  2  0  0  0  0
 26 30  1  0  0  0  0
 29 27  1  0  0  0  0
 30 29  2  0  0  0  0
 31 28  1  0  0  0  0
M  END
>  <Pose>
1

>  <Score>
-6.634

$$$$
