/Users/jonathanwahrer/Desktop/Msc/3_Semester/Drug_Design_Praktikum/waehrer_HTS_screening/HTS_experiment/out/docking_results/vina_output/3sx0/1939_docked.pdbqt
 OpenBabel03192222583D

 28 31  0  0  0  0  0  0  0  0999 V2000
   22.1110   64.0300   -9.1880 N   0  0  0  0  0  0  0  0  0  0  0  0
   22.3610   64.1680   -7.8510 C   0  0  0  0  0  0  0  0  0  0  0  0
   23.5460   63.5630   -7.5330 C   0  0  0  0  0  0  0  0  0  0  0  0
   23.9860   63.0720   -8.6840 N   0  0  0  0  0  0  0  0  0  0  0  0
   23.1250   63.3440   -9.7170 C   0  0  0  0  0  0  0  0  0  0  0  0
   24.0180   63.5510   -6.2730 N   0  0  0  0  0  0  0  0  0  0  0  0
   23.3080   64.1500   -5.2810 C   0  0  0  0  0  0  0  0  0  0  0  0
   23.7870   64.1130   -4.1250 O   0  0  0  0  0  0  0  0  0  0  0  0
   22.1380   64.7570   -5.5440 N   0  0  0  0  0  0  0  0  0  0  0  0
   21.6770   64.7630   -6.8030 C   0  0  0  0  0  0  0  0  0  0  0  0
   20.5840   65.3390   -6.9950 O   0  0  0  0  0  0  0  0  0  0  0  0
   25.2860   62.8860   -6.0240 C   0  0  0  0  0  1  0  0  0  0  0  0
   21.6340   65.2010   -4.7480 H   0  0  0  0  0  0  0  0  0  0  0  0
   20.9320   64.5640   -9.8160 C   0  0  0  0  0  2  0  0  0  0  0  0
   19.7860   63.6670   -9.9430 C   0  0  0  0  0  0  0  0  0  0  0  0
   19.7910   62.3550   -9.5980 C   0  0  0  0  0  3  0  0  0  0  0  0
   18.6840   61.5230   -9.7860 C   0  0  0  0  0  3  0  0  0  0  0  0
   17.5380   62.0140  -10.3360 C   0  0  0  0  0  0  0  0  0  0  0  0
   16.1790   60.9320  -10.5510 Cl  0  0  0  0  0  0  0  0  0  0  0  0
   17.4890   63.3400  -10.7000 C   0  0  0  0  0  3  0  0  0  0  0  0
   18.5910   64.1400  -10.5060 C   0  0  0  0  0  3  0  0  0  0  0  0
   23.3690   62.9140  -11.0400 N   0  0  0  0  0  0  0  0  0  0  0  0
   22.3020   63.0870  -12.0170 C   0  0  0  0  0  2  0  0  0  0  0  0
   23.0580   63.4290  -13.3140 C   0  0  0  0  0  2  0  0  0  0  0  0
   24.2630   64.1810  -13.0450 N   0  0  0  0  0  0  0  0  0  0  0  0
   25.2750   63.4330  -12.3310 C   0  0  0  0  0  2  0  0  0  0  0  0
   24.6600   64.4450  -13.9630 H   0  0  0  0  0  0  0  0  0  0  0  0
   24.5390   62.3300  -11.5850 C   0  0  0  0  0  2  0  0  0  0  0  0
  1  2  1  0  0  0  0
  2  3  2  0  0  0  0
  2 10  1  0  0  0  0
  3  6  1  0  0  0  0
  4  3  1  0  0  0  0
  5  1  1  0  0  0  0
  5  4  2  0  0  0  0
  6 12  1  0  0  0  0
  6  7  1  0  0  0  0
  7  8  2  0  0  0  0
  9  7  1  0  0  0  0
  9 13  1  0  0  0  0
 10  9  1  0  0  0  0
 11 10  2  0  0  0  0
 14  1  1  0  0  0  0
 15 14  1  0  0  0  0
 15 16  1  0  0  0  0
 17 16  2  0  0  0  0
 18 17  1  0  0  0  0
 19 18  1  0  0  0  0
 20 21  1  0  0  0  0
 20 18  2  0  0  0  0
 21 15  2  0  0  0  0
 22  5  1  0  0  0  0
 23 22  1  0  0  0  0
 24 25  1  0  0  0  0
 24 23  1  0  0  0  0
 25 26  1  0  0  0  0
 26 28  1  0  0  0  0
 27 25  1  0  0  0  0
 28 22  1  0  0  0  0
M  END
>  <Pose>
1

>  <Score>
-7.810

$$$$
