/Users/jonathanwahrer/Desktop/Msc/3_Semester/Drug_Design_Praktikum/waehrer_HTS_screening/HTS_experiment/out/docking_results/vina_output/3sx0/1940_docked.pdbqt
 OpenBabel03192222583D

 30 33  0  0  1  0  0  0  0  0999 V2000
   21.5450   64.9010   -6.4430 C   0  0  1  0  0  3  0  0  0  0  0  0
   21.6180   64.2290   -7.7470 N   0  0  0  0  0  0  0  0  0  0  0  0
   22.9860   64.2620   -8.1100 C   0  0  0  0  0  0  0  0  0  0  0  0
   23.4510   64.2760   -9.2750 O   0  0  0  0  0  0  0  0  0  0  0  0
   23.7630   64.2760   -6.8570 C   0  0  0  0  0  0  0  0  0  0  0  0
   25.0080   64.3070   -6.7250 O   0  0  0  0  0  0  0  0  0  0  0  0
   22.7600   64.2510   -5.8020 C   0  0  0  0  0  0  0  0  0  0  0  0
   22.8870   63.7740   -4.6130 C   0  0  0  0  0  0  0  0  0  0  0  0
   21.8280   63.8060   -3.7070 O   0  0  0  0  0  1  0  0  0  0  0  0
   20.4990   63.6660   -8.4880 C   0  0  0  0  0  2  0  0  0  0  0  0
   20.6590   63.7140   -9.9760 C   0  0  0  0  0  2  0  0  0  0  0  0
   20.1880   62.5820  -10.6960 N   0  0  0  0  0  4  0  0  0  0  0  0
   19.2470   61.7400  -10.0300 C   0  0  0  0  0  2  0  0  0  0  0  0
   17.9340   62.4230   -9.7190 C   0  0  0  0  0  2  0  0  0  0  0  0
   17.3510   62.9260  -10.8760 O   0  0  0  0  0  0  0  0  0  0  0  0
   18.2360   63.7050  -11.6140 C   0  0  0  0  0  2  0  0  0  0  0  0
   19.5190   62.9900  -11.9490 C   0  0  0  0  0  2  0  0  0  0  0  0
   21.0100   61.9940  -10.9560 H   0  0  0  0  0  0  0  0  0  0  0  0
   21.9000   66.3360   -6.5760 C   0  0  0  0  0  0  0  0  0  0  0  0
   21.0850   67.2370   -7.2130 C   0  0  0  0  0  3  0  0  0  0  0  0
   21.4020   68.5770   -7.3330 C   0  0  0  0  0  3  0  0  0  0  0  0
   22.5810   69.0450   -6.7950 C   0  0  0  0  0  0  0  0  0  0  0  0
   23.0580   70.7210   -6.8970 Cl  0  0  0  0  0  0  0  0  0  0  0  0
   23.4110   68.1620   -6.1530 C   0  0  0  0  0  3  0  0  0  0  0  0
   23.0890   66.8270   -6.0380 C   0  0  0  0  0  3  0  0  0  0  0  0
   24.1490   63.1860   -4.1760 C   0  0  0  0  0  0  0  0  0  0  0  0
   24.7950   62.1440   -4.5640 O   0  0  0  0  0  0  0  0  0  0  0  0
   25.8940   61.9950   -3.8830 C   0  0  0  0  0  3  0  0  0  0  0  0
   26.0000   63.0090   -2.9660 C   0  0  0  0  0  3  0  0  0  0  0  0
   24.8850   63.7810   -3.1430 C   0  0  0  0  0  3  0  0  0  0  0  0
  1 19  1  6  0  0  0
  1  7  1  0  0  0  0
  2  1  1  0  0  0  0
  3  2  1  0  0  0  0
  3  5  1  0  0  0  0
  4  3  2  0  0  0  0
  5  6  2  0  0  0  0
  5  7  1  0  0  0  0
  7  8  2  0  0  0  0
  8 26  1  0  0  0  0
  8  9  1  0  0  0  0
 10  2  1  0  0  0  0
 11 10  1  0  0  0  0
 12 13  1  0  0  0  0
 12 11  1  0  0  0  0
 13 14  1  0  0  0  0
 15 14  1  0  0  0  0
 16 15  1  0  0  0  0
 17 16  1  0  0  0  0
 17 12  1  0  0  0  0
 18 12  1  0  0  0  0
 19 25  1  0  0  0  0
 20 19  2  0  0  0  0
 21 20  1  0  0  0  0
 21 22  2  0  0  0  0
 22 24  1  0  0  0  0
 23 22  1  0  0  0  0
 24 25  2  0  0  0  0
 26 30  2  0  0  0  0
 27 26  1  0  0  0  0
 27 28  1  0  0  0  0
 28 29  2  0  0  0  0
 30 29  1  0  0  0  0
M  END
>  <Pose>
1

>  <Score>
-7.606

$$$$
