/Users/jonathanwahrer/Desktop/Msc/3_Semester/Drug_Design_Praktikum/waehrer_HTS_screening/HTS_experiment/out/docking_results/vina_output/3sx0/1941_docked.pdbqt
 OpenBabel03192222583D

 22 25  0  0  1  0  0  0  0  0999 V2000
   21.2940   63.2410  -11.7600 N   0  0  0  0  0  0  0  0  0  0  0  0
   20.7570   63.8810  -10.5930 C   0  0  0  0  0  0  0  0  0  0  0  0
   21.4920   64.1850   -9.5920 O   0  0  0  0  0  0  0  0  0  0  0  0
   19.3120   64.0960  -10.7740 C   0  0  1  0  0  3  0  0  0  0  0  0
   18.9560   63.1110  -11.8610 C   0  0  2  0  0  3  0  0  0  0  0  0
   17.9920   62.0880  -11.3020 C   0  0  2  0  0  3  0  0  0  0  0  0
   16.6970   62.8620  -11.0170 C   0  0  0  0  0  2  0  0  0  0  0  0
   17.0530   63.8480   -9.9420 C   0  0  0  0  0  0  0  0  0  0  0  0
   16.2090   64.5460   -9.4500 O   0  0  0  0  0  0  0  0  0  0  0  0
   18.5020   63.8970   -9.5390 C   0  0  1  0  0  3  0  0  0  0  0  0
   18.8000   62.5270   -8.9180 C   0  0  0  0  0  2  0  0  0  0  0  0
   18.4670   61.5260   -9.9900 C   0  0  0  0  0  0  0  0  0  0  0  0
   18.5860   60.3510   -9.7720 O   0  0  0  0  0  0  0  0  0  0  0  0
   20.2090   62.5480  -12.3610 C   0  0  0  0  0  0  0  0  0  0  0  0
   20.3090   61.6100  -13.1840 O   0  0  0  0  0  0  0  0  0  0  0  0
   22.6340   63.2790  -12.2380 C   0  0  0  0  0  0  0  0  0  0  0  0
   22.8890   63.5850  -13.5620 C   0  0  0  0  0  3  0  0  0  0  0  0
   24.1660   63.6370  -14.0700 C   0  0  0  0  0  3  0  0  0  0  0  0
   25.2560   63.3830  -13.2740 C   0  0  0  0  0  0  0  0  0  0  0  0
   26.8930   63.4460  -13.9140 Cl  0  0  0  0  0  0  0  0  0  0  0  0
   25.0240   63.0740  -11.9440 C   0  0  0  0  0  3  0  0  0  0  0  0
   23.7390   63.0270  -11.4550 C   0  0  0  0  0  3  0  0  0  0  0  0
  1  2  1  0  0  0  0
  2  3  2  0  0  0  0
  4  2  1  1  0  0  0
  4 10  1  0  0  0  0
  5 14  1  1  0  0  0
  5  6  1  0  0  0  0
  5  4  1  0  0  0  0
  6  7  1  1  0  0  0
  6 12  1  0  0  0  0
  7  8  1  0  0  0  0
  8 10  1  0  0  0  0
  8  9  2  0  0  0  0
 10 11  1  6  0  0  0
 12 13  2  0  0  0  0
 12 11  1  0  0  0  0
 14  1  1  0  0  0  0
 15 14  2  0  0  0  0
 16  1  1  0  0  0  0
 16 22  1  0  0  0  0
 17 16  2  0  0  0  0
 18 17  1  0  0  0  0
 18 19  2  0  0  0  0
 19 21  1  0  0  0  0
 20 19  1  0  0  0  0
 21 22  2  0  0  0  0
M  END
>  <Pose>
1

>  <Score>
-8.142

$$$$
