/Users/jonathanwahrer/Desktop/Msc/3_Semester/Drug_Design_Praktikum/waehrer_HTS_screening/HTS_experiment/out/docking_results/vina_output/3sx0/1945_docked.pdbqt
 OpenBabel03192222593D

 24 27  0  0  0  0  0  0  0  0999 V2000
   25.6100   63.7460  -12.7580 Cl  0  0  0  0  0  0  0  0  0  0  0  0
   24.0170   63.5330  -12.0600 C   0  0  0  0  0  0  0  0  0  0  0  0
   23.7510   63.8490  -10.7470 C   0  0  0  0  0  3  0  0  0  0  0  0
   22.4760   63.6730  -10.2030 C   0  0  0  0  0  0  0  0  0  0  0  0
   21.4760   63.1700  -11.0230 C   0  0  0  0  0  0  0  0  0  0  0  0
   21.7260   62.8510  -12.3360 C   0  0  0  0  0  3  0  0  0  0  0  0
   22.9820   63.0260  -12.8580 C   0  0  0  0  0  3  0  0  0  0  0  0
   20.1160   62.9690  -10.4930 C   0  0  0  0  0  0  0  0  0  0  0  0
   19.0270   62.5280  -11.0250 N   0  0  0  0  0  0  0  0  0  0  0  0
   17.9290   62.5130  -10.0980 C   0  0  0  0  0  3  0  0  0  0  0  0
   18.5140   63.0410   -8.8250 C   0  0  0  0  0  3  0  0  0  0  0  0
   19.8920   63.3090   -9.1390 N   0  0  0  0  0  0  0  0  0  0  0  0
   20.9370   63.8230   -8.3240 C   0  0  0  0  0  0  0  0  0  0  0  0
   20.7570   64.1340   -7.1120 O   0  0  0  0  0  0  0  0  0  0  0  0
   22.2670   64.0200   -8.8390 N   0  0  0  0  0  0  0  0  0  0  0  0
   23.3220   64.5480   -7.9860 C   0  0  0  0  0  2  0  0  0  0  0  0
   23.9510   63.4720   -7.1860 C   0  0  0  0  0  0  0  0  0  0  0  0
   23.7740   62.2840   -7.5490 O   0  0  0  0  0  0  0  0  0  0  0  0
   24.7410   63.7220   -6.0380 N   0  0  0  0  0  0  0  0  0  0  0  0
   24.8800   64.7120   -5.7520 H   0  0  0  0  0  0  0  0  0  0  0  0
   25.3440   62.6540   -5.2770 C   0  0  0  0  0  2  0  0  0  0  0  0
   24.5310   62.3800   -4.0400 C   0  0  0  0  0  3  0  0  0  0  0  0
   24.1080   63.5140   -3.1750 C   0  0  0  0  0  2  0  0  0  0  0  0
   25.1980   62.6210   -2.7190 C   0  0  0  0  0  2  0  0  0  0  0  0
  1  2  1  0  0  0  0
  2  3  1  0  0  0  0
  3  4  2  0  0  0  0
  4 15  1  0  0  0  0
  5  8  1  0  0  0  0
  5  4  1  0  0  0  0
  6  5  2  0  0  0  0
  7  6  1  0  0  0  0
  7  2  2  0  0  0  0
  8 12  1  0  0  0  0
  9  8  2  0  0  0  0
  9 10  1  0  0  0  0
 10 11  2  0  0  0  0
 12 11  1  0  0  0  0
 12 13  1  0  0  0  0
 13 14  2  0  0  0  0
 15 13  1  0  0  0  0
 15 16  1  0  0  0  0
 16 17  1  0  0  0  0
 17 19  1  0  0  0  0
 18 17  2  0  0  0  0
 19 20  1  0  0  0  0
 19 21  1  0  0  0  0
 21 22  1  0  0  0  0
 22 23  1  0  0  0  0
 22 24  1  0  0  0  0
 23 24  1  0  0  0  0
M  END
>  <Pose>
1

>  <Score>
-8.156

$$$$
