/Users/jonathanwahrer/Desktop/Msc/3_Semester/Drug_Design_Praktikum/waehrer_HTS_screening/HTS_experiment/out/docking_results/vina_output/3sx0/1957_docked.pdbqt
 OpenBabel03192222593D

 36 40  0  0  1  0  0  0  0  0999 V2000
   22.4780   63.5510  -11.1490 C   0  0  2  0  0  3  0  0  0  0  0  0
   23.0320   64.1740   -9.9540 N   0  0  0  0  0  0  0  0  0  0  0  0
   22.0090   64.0970   -8.9300 C   0  0  1  0  0  0  0  0  0  0  0  0
   21.3200   62.8020   -9.2530 C   0  0  2  0  0  3  0  0  0  0  0  0
   21.3180   62.7200  -10.7470 C   0  0  1  0  0  3  0  0  0  0  0  0
   20.0100   63.2810  -11.1840 C   0  0  0  0  0  0  0  0  0  0  0  0
   19.6990   63.6340  -12.3470 O   0  0  0  0  0  0  0  0  0  0  0  0
   19.1760   63.3360  -10.0060 N   0  0  0  0  0  0  0  0  0  0  0  0
   19.8850   62.7760   -8.9210 C   0  0  0  0  0  0  0  0  0  0  0  0
   19.4060   62.3300   -7.8500 O   0  0  0  0  0  0  0  0  0  0  0  0
   22.5870   64.0840   -7.5650 C   0  0  0  0  0  0  0  0  0  0  0  0
   22.1140   65.2060   -6.9250 C   0  0  0  0  0  0  0  0  0  0  0  0
   22.5010   65.4430   -5.6130 C   0  0  0  0  0  3  0  0  0  0  0  0
   23.3430   64.5530   -4.9900 C   0  0  0  0  0  3  0  0  0  0  0  0
   23.8240   63.4200   -5.6250 C   0  0  0  0  0  3  0  0  0  0  0  0
   23.4320   63.1970   -6.9280 C   0  0  0  0  0  3  0  0  0  0  0  0
   21.2590   65.9720   -7.7920 N   0  0  0  0  0  0  0  0  0  0  0  0
   21.1940   65.2950   -9.0340 C   0  0  0  0  0  0  0  0  0  0  0  0
   20.5410   65.7000  -10.0100 O   0  0  0  0  0  0  0  0  0  0  0  0
   23.3110   65.1420  -10.1470 H   0  0  0  0  0  0  0  0  0  0  0  0
   20.7960   66.8620   -7.4970 H   0  0  0  0  0  0  0  0  0  0  0  0
   23.6110   62.7820  -11.7730 C   0  0  1  0  0  3  0  0  0  0  0  0
   23.8110   63.1040  -13.2150 C   0  0  0  0  0  0  0  0  0  0  0  0
   25.0950   63.1540  -13.7540 C   0  0  0  0  0  3  0  0  0  0  0  0
   25.3070   63.4670  -15.0720 C   0  0  0  0  0  3  0  0  0  0  0  0
   24.2590   63.7470  -15.9270 C   0  0  0  0  0  0  0  0  0  0  0  0
   24.5150   64.1500  -17.6160 Cl  0  0  0  0  0  0  0  0  0  0  0  0
   23.0000   63.6920  -15.3720 C   0  0  0  0  0  3  0  0  0  0  0  0
   22.7610   63.3810  -14.0550 C   0  0  0  0  0  3  0  0  0  0  0  0
   24.8060   62.9160  -11.1150 O   0  0  0  0  0  0  0  0  0  0  0  0
   24.6440   62.7640  -10.1490 H   0  0  0  0  0  0  0  0  0  0  0  0
   17.8510   63.8820   -9.9570 C   0  0  0  0  0  2  0  0  0  0  0  0
   16.7810   63.0470  -10.5530 C   0  0  0  0  0  2  0  0  0  0  0  0
   16.9590   61.5720  -10.4750 C   0  0  0  0  0  2  0  0  0  0  0  0
   15.7770   60.8640  -10.6500 O   0  0  0  0  0  0  0  0  0  0  0  0
   14.7170   61.7710  -10.8560 C   0  0  0  0  0  1  0  0  0  0  0  0
  1 22  1  1  0  0  0
  1  5  1  0  0  0  0
  1  2  1  0  0  0  0
  2  3  1  0  0  0  0
  3 18  1  6  0  0  0
  3 11  1  0  0  0  0
  4  3  1  0  0  0  0
  4  9  1  6  0  0  0
  5  6  1  6  0  0  0
  5  4  1  0  0  0  0
  6  8  1  0  0  0  0
  7  6  2  0  0  0  0
  8 32  1  0  0  0  0
  8  9  1  0  0  0  0
  9 10  2  0  0  0  0
 11 16  2  0  0  0  0
 11 12  1  0  0  0  0
 12 13  2  0  0  0  0
 13 14  1  0  0  0  0
 15 14  2  0  0  0  0
 16 15  1  0  0  0  0
 17 21  1  0  0  0  0
 17 12  1  0  0  0  0
 18 17  1  0  0  0  0
 19 18  2  0  0  0  0
 20  2  1  0  0  0  0
 22 30  1  1  0  0  0
 23 22  1  0  0  0  0
 24 23  1  0  0  0  0
 25 24  2  0  0  0  0
 26 28  2  0  0  0  0
 26 25  1  0  0  0  0
 27 26  1  0  0  0  0
 28 29  1  0  0  0  0
 29 23  2  0  0  0  0
 30 31  1  0  0  0  0
 33 34  1  0  0  0  0
 33 32  1  0  0  0  0
 35 34  1  0  0  0  0
 36 35  1  0  0  0  0
M  END
>  <Pose>
1

>  <Score>
-5.099

$$$$
