/Users/jonathanwahrer/Desktop/Msc/3_Semester/Drug_Design_Praktikum/waehrer_HTS_screening/HTS_experiment/out/docking_results/vina_output/3sx0/1966_docked.pdbqt
 OpenBabel03192223003D

 27 30  0  0  0  0  0  0  0  0999 V2000
   20.7090   65.2250   -9.1810 C   0  0  0  0  0  0  0  0  0  0  0  0
   20.9290   66.4800   -9.3950 O   0  0  0  0  0  0  0  0  0  0  0  0
   19.7610   64.4860   -9.8420 N   0  0  0  0  0  0  0  0  0  0  0  0
   18.8170   63.7510  -10.4980 C   0  0  0  0  0  2  0  0  0  0  0  0
   19.3830   65.5860  -10.5610 H   0  0  0  0  0  0  0  0  0  0  0  0
   21.6260   64.7120   -8.1290 C   0  0  0  0  0  0  0  0  0  0  0  0
   22.7650   63.9600   -8.2680 C   0  0  0  0  0  0  0  0  0  0  0  0
   23.3120   63.5040   -9.4210 F   0  0  0  0  0  0  0  0  0  0  0  0
   23.3230   63.6980   -7.0460 N   0  0  0  0  0  0  0  0  0  0  0  0
   22.5180   64.2960   -6.1540 C   0  0  0  0  0  0  0  0  0  0  0  0
   24.4190   63.0160   -6.6740 C   0  0  0  0  0  3  0  0  0  0  0  0
   21.5070   64.8990   -6.8000 N   0  0  0  0  0  0  0  0  0  0  0  0
   22.8570   64.1840   -4.8270 C   0  0  0  0  0  3  0  0  0  0  0  0
   23.9870   63.4840   -4.3990 C   0  0  0  0  0  3  0  0  0  0  0  0
   24.7840   62.8880   -5.3390 C   0  0  0  0  0  0  0  0  0  0  0  0
   26.2300   61.9930   -4.8690 Cl  0  0  0  0  0  0  0  0  0  0  0  0
   18.7200   62.3020  -10.0930 C   0  0  0  0  0  0  0  0  0  0  0  0
   17.6050   61.5680  -10.0810 N   0  0  0  0  0  0  0  0  0  0  0  0
   17.9260   60.3520   -9.6720 N   0  0  0  0  0  0  0  0  0  0  0  0
   19.2160   60.2880   -9.4220 N   0  0  0  0  0  0  0  0  0  0  0  0
   19.7010   61.5020   -9.6860 N   0  0  0  0  0  0  0  0  0  0  0  0
   16.3320   62.0870  -10.4730 C   0  0  0  0  0  0  0  0  0  0  0  0
   16.1480   63.4650  -10.4350 C   0  0  0  0  0  3  0  0  0  0  0  0
   14.9290   64.0330  -10.7860 C   0  0  0  0  0  3  0  0  0  0  0  0
   13.8640   63.2490  -11.1810 C   0  0  0  0  0  3  0  0  0  0  0  0
   14.0540   61.8840  -11.2170 C   0  0  0  0  0  3  0  0  0  0  0  0
   15.2660   61.3160  -10.8680 C   0  0  0  0  0  3  0  0  0  0  0  0
  1  6  1  0  0  0  0
  2  1  2  0  0  0  0
  3  1  1  0  0  0  0
  4 17  1  0  0  0  0
  4  3  1  0  0  0  0
  5  3  1  0  0  0  0
  6 12  1  0  0  0  0
  7  6  2  0  0  0  0
  7  9  1  0  0  0  0
  8  7  1  0  0  0  0
  9 11  1  0  0  0  0
  9 10  1  0  0  0  0
 10 13  1  0  0  0  0
 11 15  2  0  0  0  0
 12 10  2  0  0  0  0
 13 14  2  0  0  0  0
 15 16  1  0  0  0  0
 15 14  1  0  0  0  0
 17 18  1  0  0  0  0
 17 21  2  0  0  0  0
 18 19  1  0  0  0  0
 19 20  2  0  0  0  0
 21 20  1  0  0  0  0
 22 23  1  0  0  0  0
 22 18  1  0  0  0  0
 24 23  2  0  0  0  0
 25 24  1  0  0  0  0
 26 25  2  0  0  0  0
 26 27  1  0  0  0  0
 27 22  2  0  0  0  0
M  END
>  <Pose>
1

>  <Score>
-8.487

$$$$
