/Users/jonathanwahrer/Desktop/Msc/3_Semester/Drug_Design_Praktikum/waehrer_HTS_screening/HTS_experiment/out/docking_results/vina_output/3sx0/1969_docked.pdbqt
 OpenBabel03192223003D

 26 29  0  0  0  0  0  0  0  0999 V2000
   22.0550   63.5360   -9.4360 C   0  0  0  0  0  0  0  0  0  0  0  0
   23.3410   63.3590   -9.9370 O   0  0  0  0  0  0  0  0  0  0  0  0
   22.0660   63.6190   -8.0840 N   0  0  0  0  0  0  0  0  0  0  0  0
   21.0300   63.8930   -7.1330 C   0  0  0  0  0  2  0  0  0  0  0  0
   21.6560   64.4900   -5.8560 C   0  0  0  0  0  2  0  0  0  0  0  0
   22.8100   65.2510   -6.3550 N   0  0  0  0  0  0  0  0  0  0  0  0
   23.9440   64.5380   -6.8420 C   0  0  0  0  0  2  0  0  0  0  0  0
   23.3830   63.2920   -7.4490 C   0  0  0  0  0  2  0  0  0  0  0  0
   21.2550   63.5530  -10.6480 C   0  0  0  0  0  0  0  0  0  0  0  0
   20.5870   63.5690  -11.6620 N   0  0  0  0  0  0  0  0  0  0  0  0
   19.4680   63.2990  -11.9460 N   0  0  0  0  0  0  0  0  0  0  0  0
   18.9080   62.9140  -10.8190 N   0  0  0  0  0  0  0  0  0  0  0  0
   19.8440   62.9900   -9.9110 C   0  0  0  0  0  3  0  0  0  0  0  0
   17.5210   62.5070  -10.7800 C   0  0  0  0  0  0  0  0  0  0  0  0
   16.4660   63.3400  -10.9190 C   0  0  0  0  0  3  0  0  0  0  0  0
   15.1610   62.8680  -10.8790 C   0  0  0  0  0  0  0  0  0  0  0  0
   13.7560   63.8750  -11.0360 Cl  0  0  0  0  0  0  0  0  0  0  0  0
   14.9160   61.4700  -10.6830 C   0  0  0  0  0  3  0  0  0  0  0  0
   15.9830   60.6500  -10.5510 C   0  0  0  0  0  3  0  0  0  0  0  0
   17.2330   61.1690  -10.5990 C   0  0  0  0  0  3  0  0  0  0  0  0
   22.7280   66.6360   -6.4510 C   0  0  0  0  0  0  0  0  0  0  0  0
   21.5520   67.2590   -6.8830 N   0  0  0  0  0  0  0  0  0  0  0  0
   21.3620   68.5280   -6.9830 C   0  0  0  0  0  3  0  0  0  0  0  0
   22.3570   69.4560   -6.6410 C   0  0  0  0  0  3  0  0  0  0  0  0
   23.5310   68.8470   -6.2160 C   0  0  0  0  0  3  0  0  0  0  0  0
   23.6610   67.5750   -6.1430 N   0  0  0  0  0  0  0  0  0  0  0  0
  1  3  1  0  0  0  0
  2  1  2  0  0  0  0
  3  8  1  0  0  0  0
  3  4  1  0  0  0  0
  4  5  1  0  0  0  0
  6  5  1  0  0  0  0
  7  6  1  0  0  0  0
  8  7  1  0  0  0  0
  9 13  2  0  0  0  0
  9  1  1  0  0  0  0
 10  9  1  0  0  0  0
 11 10  2  0  0  0  0
 11 12  1  0  0  0  0
 12 14  1  0  0  0  0
 12 13  1  0  0  0  0
 14 20  1  0  0  0  0
 15 16  1  0  0  0  0
 15 14  2  0  0  0  0
 16 18  2  0  0  0  0
 17 16  1  0  0  0  0
 18 19  1  0  0  0  0
 20 19  2  0  0  0  0
 21  6  1  0  0  0  0
 21 26  1  0  0  0  0
 22 21  2  0  0  0  0
 23 22  1  0  0  0  0
 23 24  2  0  0  0  0
 24 25  1  0  0  0  0
 25 26  2  0  0  0  0
M  END
>  <Pose>
1

>  <Score>
-10.258

$$$$
