/Users/jonathanwahrer/Desktop/Msc/3_Semester/Drug_Design_Praktikum/waehrer_HTS_screening/HTS_experiment/out/docking_results/vina_output/3sx0/1973_docked.pdbqt
 OpenBabel03192223003D

 24 27  0  0  1  0  0  0  0  0999 V2000
   24.7100   63.2260   -1.7490 Cl  0  0  0  0  0  0  0  0  0  0  0  0
   24.6320   63.2410   -3.5100 C   0  0  0  0  0  0  0  0  0  0  0  0
   23.5190   63.6930   -4.1890 C   0  0  0  0  0  2  0  0  0  0  0  0
   23.4400   63.7120   -5.5410 N   0  0  0  0  0  0  0  0  0  0  0  0
   24.4570   63.2860   -6.3130 C   0  0  0  0  0  0  0  0  0  0  0  0
   24.3970   63.2980   -7.6710 N   0  0  0  0  0  0  0  0  0  0  0  0
   23.3150   63.7370   -8.3410 C   0  0  0  0  0  0  0  0  0  0  0  0
   22.2550   64.1810   -7.5570 C   0  0  1  0  0  3  0  0  0  0  0  0
   21.0590   64.6650   -8.2950 C   0  0  0  0  0  2  0  0  0  0  0  0
   20.8210   63.6640   -9.3410 N   0  0  0  0  0  0  0  0  0  0  0  0
   21.8490   63.4750  -10.3260 C   0  0  0  0  0  2  0  0  0  0  0  0
   23.2370   63.7570   -9.8240 C   0  0  0  0  0  2  0  0  0  0  0  0
   19.6240   62.9160   -9.3620 C   0  0  0  0  0  0  0  0  0  0  0  0
   18.7800   63.1490   -8.4320 O   0  0  0  0  0  0  0  0  0  0  0  0
   22.3450   64.1570   -6.1830 C   0  0  0  0  0  0  0  0  0  0  0  0
   21.3600   64.5690   -5.4880 O   0  0  0  0  0  0  0  0  0  0  0  0
   25.5840   62.8280   -5.6510 C   0  0  0  0  0  3  0  0  0  0  0  0
   25.6890   62.7980   -4.2760 C   0  0  0  0  0  3  0  0  0  0  0  0
   19.3260   61.9020  -10.3990 C   0  0  0  0  0  3  0  0  0  0  0  0
   19.1650   62.5180  -11.7710 C   0  0  0  0  0  2  0  0  0  0  0  0
   18.3530   63.7890  -11.5620 C   0  0  0  0  0  2  0  0  0  0  0  0
   17.3730   63.5790  -10.5940 O   0  0  0  0  0  0  0  0  0  0  0  0
   16.9210   62.2520  -10.6020 C   0  0  0  0  0  2  0  0  0  0  0  0
   17.9590   61.2850  -10.0660 C   0  0  0  0  0  2  0  0  0  0  0  0
  2  1  1  0  0  0  0
  3  2  1  0  0  0  0
  4  3  1  0  0  0  0
  5 17  2  0  0  0  0
  5  4  1  0  0  0  0
  6  5  1  0  0  0  0
  7  6  2  0  0  0  0
  7  8  1  0  0  0  0
  8  9  1  1  0  0  0
  8 15  1  0  0  0  0
 10  9  1  0  0  0  0
 11 12  1  0  0  0  0
 11 10  1  0  0  0  0
 12  7  1  0  0  0  0
 13 10  1  0  0  0  0
 13 14  2  0  0  0  0
 15  4  1  0  0  0  0
 15 16  2  0  0  0  0
 17 18  1  0  0  0  0
 18  2  2  0  0  0  0
 19 24  1  0  0  0  0
 19 13  1  0  0  0  0
 20 21  1  0  0  0  0
 20 19  1  0  0  0  0
 21 22  1  0  0  0  0
 23 22  1  0  0  0  0
 23 24  1  0  0  0  0
M  END
>  <Pose>
1

>  <Score>
-8.924

$$$$
