/Users/jonathanwahrer/Desktop/Msc/3_Semester/Drug_Design_Praktikum/waehrer_HTS_screening/HTS_experiment/out/docking_results/vina_output/3sx0/1976_docked.pdbqt
 OpenBabel03192223013D

 26 29  0  0  0  0  0  0  0  0999 V2000
   20.0300   63.8490   -9.7090 C   0  0  0  0  0  0  0  0  0  0  0  0
   20.5280   64.7920  -10.4160 O   0  0  0  0  0  0  0  0  0  0  0  0
   18.7090   63.3730   -9.9210 N   0  0  0  0  0  0  0  0  0  0  0  0
   18.2110   62.3200   -9.1080 C   0  0  0  0  0  2  0  0  0  0  0  0
   17.5790   61.2680  -10.0280 C   0  0  0  0  0  2  0  0  0  0  0  0
   16.4240   62.0240  -10.6500 C   0  0  0  0  0  0  0  0  0  0  0  0
   16.6140   63.3260  -11.0660 C   0  0  0  0  0  0  0  0  0  0  0  0
   15.5570   63.9920  -11.6120 N   0  0  0  0  0  0  0  0  0  0  0  0
   14.3450   63.4340  -11.7590 C   0  0  0  0  0  3  0  0  0  0  0  0
   14.1770   62.1650  -11.3470 N   0  0  0  0  0  0  0  0  0  0  0  0
   15.1970   61.4440  -10.7930 C   0  0  0  0  0  0  0  0  0  0  0  0
   17.9280   63.9860  -10.9420 C   0  0  0  0  0  2  0  0  0  0  0  0
   20.9020   63.2610   -8.6410 C   0  0  0  0  0  2  0  0  0  0  0  0
   21.6720   64.3400   -7.9500 C   0  0  0  0  0  0  0  0  0  0  0  0
   22.9870   64.1800   -7.5600 C   0  0  0  0  0  0  0  0  0  0  0  0
   23.7520   62.6500   -7.8980 Cl  0  0  0  0  0  0  0  0  0  0  0  0
   23.6680   65.2070   -6.9250 C   0  0  0  0  0  3  0  0  0  0  0  0
   23.0770   66.4260   -6.6500 C   0  0  0  0  0  0  0  0  0  0  0  0
   21.7610   66.6000   -7.0340 C   0  0  0  0  0  0  0  0  0  0  0  0
   23.7060   67.4730   -6.0240 O   0  0  0  0  0  0  0  0  0  0  0  0
   21.0970   65.5660   -7.6660 C   0  0  0  0  0  3  0  0  0  0  0  0
   21.1710   67.8170   -6.7600 O   0  0  0  0  0  0  0  0  0  0  0  0
   21.8730   69.0110   -6.4760 C   0  0  0  0  0  2  0  0  0  0  0  0
   23.2960   68.8120   -6.0920 C   0  0  0  0  0  2  0  0  0  0  0  0
   15.0270   60.1390  -10.3690 O   0  0  0  0  0  0  0  0  0  0  0  0
   15.2190   59.3950  -11.0290 H   0  0  0  0  0  0  0  0  0  0  0  0
  1 13  1  0  0  0  0
  2  1  2  0  0  0  0
  3  1  1  0  0  0  0
  3  4  1  0  0  0  0
  5  4  1  0  0  0  0
  6  5  1  0  0  0  0
  7 12  1  0  0  0  0
  7  6  2  0  0  0  0
  8  7  1  0  0  0  0
  9  8  2  0  0  0  0
  9 10  1  0  0  0  0
 10 11  2  0  0  0  0
 11  6  1  0  0  0  0
 11 25  1  0  0  0  0
 12  3  1  0  0  0  0
 13 14  1  0  0  0  0
 14 21  2  0  0  0  0
 14 15  1  0  0  0  0
 15 17  2  0  0  0  0
 16 15  1  0  0  0  0
 17 18  1  0  0  0  0
 18 20  1  0  0  0  0
 19 22  1  0  0  0  0
 19 18  2  0  0  0  0
 21 19  1  0  0  0  0
 22 23  1  0  0  0  0
 23 24  1  0  0  0  0
 24 20  1  0  0  0  0
 26 25  1  0  0  0  0
M  END
>  <Pose>
1

>  <Score>
-9.383

$$$$
