/Users/jonathanwahrer/Desktop/Msc/3_Semester/Drug_Design_Praktikum/waehrer_HTS_screening/HTS_experiment/out/docking_results/vina_output/3sx0/1982_docked.pdbqt
 OpenBabel03192223013D

 25 28  0  0  0  0  0  0  0  0999 V2000
   25.7270   63.4960  -12.7420 Cl  0  0  0  0  0  0  0  0  0  0  0  0
   24.0830   63.3890  -12.1490 C   0  0  0  0  0  0  0  0  0  0  0  0
   23.7510   63.6160  -10.8290 C   0  0  0  0  0  3  0  0  0  0  0  0
   22.4600   63.5340  -10.3480 C   0  0  0  0  0  0  0  0  0  0  0  0
   21.4630   63.2080  -11.2470 C   0  0  0  0  0  0  0  0  0  0  0  0
   21.7820   62.9790  -12.5700 C   0  0  0  0  0  3  0  0  0  0  0  0
   23.0740   63.0600  -13.0500 C   0  0  0  0  0  3  0  0  0  0  0  0
   20.0710   63.1160  -10.7550 C   0  0  0  0  0  0  0  0  0  0  0  0
   18.9920   62.8390  -11.3580 N   0  0  0  0  0  0  0  0  0  0  0  0
   17.8280   62.8540  -10.4970 C   0  0  0  0  0  3  0  0  0  0  0  0
   18.3550   63.2090   -9.1460 C   0  0  0  0  0  3  0  0  0  0  0  0
   19.7780   63.3580   -9.3860 N   0  0  0  0  0  0  0  0  0  0  0  0
   20.8660   63.6900   -8.5240 C   0  0  0  0  0  0  0  0  0  0  0  0
   20.8900   63.9670   -7.2080 N   0  0  0  0  0  0  0  0  0  0  0  0
   22.1210   64.2240   -6.8010 N   0  0  0  0  0  0  0  0  0  0  0  0
   22.8910   64.1010   -7.9110 C   0  0  0  0  0  0  0  0  0  0  0  0
   24.1290   64.2750   -7.9070 O   0  0  0  0  0  0  0  0  0  0  0  0
   22.1430   63.7750   -8.9780 N   0  0  0  0  0  0  0  0  0  0  0  0
   22.5520   64.5630   -5.4580 C   0  0  0  0  0  2  0  0  0  0  0  0
   23.7600   63.6940   -5.0810 C   0  0  0  0  0  2  0  0  0  0  0  0
   23.8310   63.5310   -3.6080 C   0  0  0  0  0  0  0  0  0  0  0  0
   24.6340   64.1480   -2.8630 O   0  0  0  0  0  0  0  0  0  0  0  0
   22.9340   62.6170   -2.9980 N   0  0  0  0  0  0  0  0  0  0  0  0
   22.6590   61.7130   -3.4240 H   0  0  0  0  0  0  0  0  0  0  0  0
   22.5320   62.8750   -2.0740 H   0  0  0  0  0  0  0  0  0  0  0  0
  1  2  1  0  0  0  0
  2  3  1  0  0  0  0
  3  4  2  0  0  0  0
  4 18  1  0  0  0  0
  5  8  1  0  0  0  0
  5  4  1  0  0  0  0
  6  5  2  0  0  0  0
  7  6  1  0  0  0  0
  7  2  2  0  0  0  0
  8 12  1  0  0  0  0
  9  8  2  0  0  0  0
  9 10  1  0  0  0  0
 10 11  2  0  0  0  0
 12 11  1  0  0  0  0
 12 13  1  0  0  0  0
 13 14  2  0  0  0  0
 14 15  1  0  0  0  0
 15 19  1  0  0  0  0
 16 17  2  0  0  0  0
 16 15  1  0  0  0  0
 18 13  1  0  0  0  0
 18 16  1  0  0  0  0
 19 20  1  0  0  0  0
 20 21  1  0  0  0  0
 21 23  1  0  0  0  0
 21 22  2  0  0  0  0
 23 25  1  0  0  0  0
 24 23  1  0  0  0  0
M  END
>  <Pose>
1

>  <Score>
-9.184

$$$$
