/Users/jonathanwahrer/Desktop/Msc/3_Semester/Drug_Design_Praktikum/waehrer_HTS_screening/HTS_experiment/out/docking_results/vina_output/3sx0/1986_docked.pdbqt
 OpenBabel03192223013D

 30 33  0  0  1  0  0  0  0  0999 V2000
   15.4990   65.0280  -10.5020 Cl  0  0  0  0  0  0  0  0  0  0  0  0
   14.4120   64.1620  -11.5730 C   0  0  0  0  0  0  0  0  0  0  0  0
   13.5350   64.8400  -12.3960 C   0  0  0  0  0  3  0  0  0  0  0  0
   12.6660   64.1490  -13.2500 C   0  0  0  0  0  0  0  0  0  0  0  0
   12.7360   62.7800  -13.2240 C   0  0  2  0  0  3  0  0  0  0  0  0
   13.6280   62.0950  -12.3870 C   0  0  0  0  0  3  0  0  0  0  0  0
   14.4780   62.7840  -11.5500 C   0  0  0  0  0  3  0  0  0  0  0  0
   11.8840   62.0700  -14.0660 O   0  0  0  0  0  0  0  0  0  0  0  0
   10.9780   62.6780  -14.9180 C   0  0  0  0  0  0  0  0  0  0  0  0
   10.9090   64.0620  -14.9420 C   0  0  0  0  0  0  0  0  0  0  0  0
   11.7480   64.9270  -14.1060 C   0  0  0  0  0  0  0  0  0  0  0  0
    9.9920   64.6210  -15.8100 C   0  0  0  0  0  0  0  0  0  0  0  0
    9.8830   65.8870  -15.8760 O   0  0  0  0  0  0  0  0  0  0  0  0
    9.1790   63.9150  -16.6120 N   0  0  0  0  0  0  0  0  0  0  0  0
    9.2830   62.5650  -16.5540 C   0  0  0  0  0  0  0  0  0  0  0  0
    8.5110   61.9210  -17.3160 O   0  0  0  0  0  0  0  0  0  0  0  0
   10.1630   61.9760  -15.7240 N   0  0  0  0  0  0  0  0  0  0  0  0
   10.2130   60.5280  -15.7190 C   0  0  0  0  0  1  0  0  0  0  0  0
    8.2250   64.5590  -17.5150 C   0  0  0  0  0  1  0  0  0  0  0  0
   12.5570   65.8330  -14.9860 C   0  0  0  0  0  3  0  0  0  0  0  0
   12.3910   67.1990  -14.9340 C   0  0  0  0  0  0  0  0  0  0  0  0
   13.1290   68.0110  -15.7400 N   0  0  0  0  0  0  0  0  0  0  0  0
   11.4810   67.7330  -14.0660 O   0  0  0  0  0  0  0  0  0  0  0  0
   14.0350   67.4850  -16.6030 C   0  0  0  0  0  0  0  0  0  0  0  0
   12.9090   69.4500  -15.6360 C   0  0  0  0  0  1  0  0  0  0  0  0
   14.7010   68.2690  -17.3350 O   0  0  0  0  0  0  0  0  0  0  0  0
   14.2170   66.1570  -16.6760 N   0  0  0  0  0  0  0  0  0  0  0  0
   13.4900   65.3490  -15.8810 C   0  0  0  0  0  0  0  0  0  0  0  0
   15.1990   65.6250  -17.6160 C   0  0  0  0  0  1  0  0  0  0  0  0
   13.6700   64.1260  -15.9600 O   0  0  0  0  0  0  0  0  0  0  0  0
  2  7  1  0  0  0  0
  2  1  1  0  0  0  0
  3  2  2  0  0  0  0
  4  5  1  0  0  0  0
  4  3  1  0  0  0  0
  5  6  1  6  0  0  0
  6  7  2  0  0  0  0
  8  5  1  0  0  0  0
  9  8  1  0  0  0  0
 10  9  2  0  0  0  0
 10 11  1  0  0  0  0
 11  4  2  0  0  0  0
 12 10  1  0  0  0  0
 13 12  2  0  0  0  0
 14 15  1  0  0  0  0
 14 12  1  0  0  0  0
 15 17  1  0  0  0  0
 16 15  2  0  0  0  0
 17 18  1  0  0  0  0
 17  9  1  0  0  0  0
 19 14  1  0  0  0  0
 20 21  1  0  0  0  0
 20 11  1  0  0  0  0
 21 23  2  0  0  0  0
 22 25  1  0  0  0  0
 22 21  1  0  0  0  0
 24 22  1  0  0  0  0
 26 24  2  0  0  0  0
 27 24  1  0  0  0  0
 27 28  1  0  0  0  0
 28 20  1  0  0  0  0
 29 27  1  0  0  0  0
 30 28  2  0  0  0  0
M  END
>  <Pose>
1

>  <Score>
-6.267

$$$$
