/Users/jonathanwahrer/Desktop/Msc/3_Semester/Drug_Design_Praktikum/waehrer_HTS_screening/HTS_experiment/out/docking_results/vina_output/3sx0/1991_docked.pdbqt
 OpenBabel03192223013D

 31 34  0  0  1  0  0  0  0  0999 V2000
   13.3630   69.9470  -16.6180 Cl  0  0  0  0  0  0  0  0  0  0  0  0
   13.2610   68.2040  -16.5550 C   0  0  0  0  0  0  0  0  0  0  0  0
   12.7170   67.5640  -15.4640 C   0  0  0  0  0  3  0  0  0  0  0  0
   12.6460   66.1960  -15.4310 C   0  0  0  0  0  0  0  0  0  0  0  0
   13.1290   65.4520  -16.5150 C   0  0  0  0  0  0  0  0  0  0  0  0
   13.6790   66.0870  -17.6160 C   0  0  0  0  0  3  0  0  0  0  0  0
   13.7320   67.4540  -17.6100 C   0  0  0  0  0  3  0  0  0  0  0  0
   13.1310   64.0710  -16.6350 O   0  0  0  0  0  0  0  0  0  0  0  0
   12.2920   63.1470  -15.9830 C   0  0  0  0  0  0  0  0  0  0  0  0
   12.5050   63.1280  -14.5050 C   0  0  0  0  0  2  0  0  0  0  0  0
   12.6950   64.4090  -13.8950 N   0  0  0  0  0  0  0  0  0  0  0  0
   12.0340   65.6540  -14.1910 C   0  0  0  0  0  2  0  0  0  0  0  0
   13.6690   64.5110  -12.8440 C   0  0  0  0  0  0  0  0  0  0  0  0
   13.8190   65.6420  -12.3180 O   0  0  0  0  0  0  0  0  0  0  0  0
   10.8450   63.4190  -16.3630 C   0  0  0  0  0  2  0  0  0  0  0  0
   10.4570   62.5960  -17.5800 C   0  0  0  0  0  2  0  0  0  0  0  0
   10.4380   61.2410  -17.3170 O   0  0  0  0  0  0  0  0  0  0  0  0
   11.3300   60.9190  -16.3000 C   0  0  0  0  0  2  0  0  0  0  0  0
   12.5930   61.7360  -16.4940 C   0  0  0  0  0  2  0  0  0  0  0  0
   14.4500   63.3570  -12.4050 C   0  0  0  0  0  2  0  0  0  0  0  0
   14.1540   62.8050  -11.1340 N   0  0  0  0  0  0  0  0  0  0  0  0
   14.5330   63.7080  -10.0440 C   0  0  0  0  0  2  0  0  0  0  0  0
   15.9960   63.9350  -10.1170 C   0  0  0  0  0  2  0  0  0  0  0  0
   16.8520   62.7270  -10.3010 C   0  0  1  0  0  3  0  0  0  0  0  0
   16.1760   61.4720  -10.6920 C   0  0  0  0  0  2  0  0  0  0  0  0
   14.7040   61.5000  -10.8590 C   0  0  0  0  0  2  0  0  0  0  0  0
   18.0070   63.0060  -11.1890 C   0  0  0  0  0  0  0  0  0  0  0  0
   18.9510   62.1920  -11.2390 O   0  0  0  0  0  0  0  0  0  0  0  0
   18.0330   64.1850  -11.9650 N   0  0  0  0  0  0  0  0  0  0  0  0
   17.8510   64.0540  -13.0040 H   0  0  0  0  0  0  0  0  0  0  0  0
   18.2070   65.1380  -11.6250 H   0  0  0  0  0  0  0  0  0  0  0  0
  1  2  1  0  0  0  0
  2  3  1  0  0  0  0
  3  4  2  0  0  0  0
  4 12  1  0  0  0  0
  5  4  1  0  0  0  0
  6  7  1  0  0  0  0
  6  5  2  0  0  0  0
  7  2  2  0  0  0  0
  8  5  1  0  0  0  0
  8  9  1  0  0  0  0
  9 10  1  0  0  0  0
 10 11  1  0  0  0  0
 11 13  1  0  0  0  0
 12 11  1  0  0  0  0
 13 20  1  0  0  0  0
 13 14  2  0  0  0  0
 15  9  1  0  0  0  0
 16 17  1  0  0  0  0
 16 15  1  0  0  0  0
 17 18  1  0  0  0  0
 19 18  1  0  0  0  0
 19  9  1  0  0  0  0
 20 21  1  0  0  0  0
 21 26  1  0  0  0  0
 21 22  1  0  0  0  0
 23 22  1  0  0  0  0
 24 27  1  6  0  0  0
 24 23  1  0  0  0  0
 25 24  1  0  0  0  0
 26 25  1  0  0  0  0
 28 27  2  0  0  0  0
 29 31  1  0  0  0  0
 29 27  1  0  0  0  0
 30 29  1  0  0  0  0
M  END
>  <Pose>
1

>  <Score>
-5.311

$$$$
