/Users/jonathanwahrer/Desktop/Msc/3_Semester/Drug_Design_Praktikum/waehrer_HTS_screening/HTS_experiment/out/docking_results/vina_output/3sx0/2003_docked.pdbqt
 OpenBabel03192223023D

 28 31  0  0  0  0  0  0  0  0999 V2000
   22.2280   64.7230   -7.7670 N   0  0  0  0  0  0  0  0  0  0  0  0
   21.0870   63.9170   -7.4560 C   0  0  0  0  0  2  0  0  0  0  0  0
   20.2230   63.6200   -8.6530 C   0  0  0  0  0  2  0  0  0  0  0  0
   20.9980   63.4290   -9.8570 N   0  0  0  0  0  0  0  0  0  0  0  0
   22.4360   63.4830   -9.8940 C   0  0  0  0  0  3  0  0  0  0  0  0
   23.0820   64.2150   -8.7800 C   0  0  0  0  0  3  0  0  0  0  0  0
   20.3020   63.1720  -11.0690 C   0  0  0  0  0  0  0  0  0  0  0  0
   20.9300   62.9940  -12.1660 O   0  0  0  0  0  0  0  0  0  0  0  0
   18.8410   63.1040  -11.0970 C   0  0  0  0  0  0  0  0  0  0  0  0
   18.0410   64.1800  -11.4240 C   0  0  0  0  0  3  0  0  0  0  0  0
   16.7010   64.0440  -11.4300 N   0  0  0  0  0  0  0  0  0  0  0  0
   16.0730   62.8930  -11.1300 C   0  0  0  0  0  0  0  0  0  0  0  0
   16.8400   61.8340  -10.8100 N   0  0  0  0  0  0  0  0  0  0  0  0
   14.6880   62.7900  -11.1480 C   0  0  0  0  0  3  0  0  0  0  0  0
   16.2290   60.6710  -10.5080 C   0  0  0  0  0  3  0  0  0  0  0  0
   18.1830   61.9300  -10.7930 C   0  0  0  0  0  0  0  0  0  0  0  0
   14.8550   60.5380  -10.5150 C   0  0  0  0  0  3  0  0  0  0  0  0
   14.0400   61.6060  -10.8400 C   0  0  0  0  0  3  0  0  0  0  0  0
   18.8980   60.9420  -10.4940 O   0  0  0  0  0  0  0  0  0  0  0  0
   23.0120   65.3850   -6.4200 S   0  0  0  0  0  0  0  0  0  0  0  0
   23.8970   66.5060   -6.8120 O   0  0  0  0  0  0  0  0  0  0  0  0
   21.9680   65.8750   -5.4430 O   0  0  0  0  0  0  0  0  0  0  0  0
   23.9630   64.1130   -5.6340 C   0  0  0  0  0  0  0  0  0  0  0  0
   23.9090   63.5600   -4.0220 S   0  0  0  0  0  0  0  0  0  0  0  0
   25.1140   62.3570   -4.1100 C   0  0  0  0  0  0  0  0  0  0  0  0
   25.5260   62.4250   -5.4120 C   0  0  0  0  0  3  0  0  0  0  0  0
   25.7160   61.2610   -2.8490 Cl  0  0  0  0  0  0  0  0  0  0  0  0
   24.9360   63.3290   -6.1990 C   0  0  0  0  0  3  0  0  0  0  0  0
  1  2  1  0  0  0  0
  1 20  1  0  0  0  0
  3  2  1  0  0  0  0
  4  3  1  0  0  0  0
  5  4  1  0  0  0  0
  5  6  2  0  0  0  0
  6  1  1  0  0  0  0
  7  4  1  0  0  0  0
  8  7  2  0  0  0  0
  9  7  1  0  0  0  0
  9 16  1  0  0  0  0
 10  9  2  0  0  0  0
 11 10  1  0  0  0  0
 11 12  2  0  0  0  0
 12 13  1  0  0  0  0
 13 16  1  0  0  0  0
 13 15  1  0  0  0  0
 14 12  1  0  0  0  0
 14 18  2  0  0  0  0
 16 19  2  0  0  0  0
 17 15  2  0  0  0  0
 18 17  1  0  0  0  0
 20 23  1  0  0  0  0
 20 22  2  0  0  0  0
 21 20  2  0  0  0  0
 23 24  1  0  0  0  0
 25 24  1  0  0  0  0
 25 27  1  0  0  0  0
 26 25  2  0  0  0  0
 28 23  2  0  0  0  0
 28 26  1  0  0  0  0
M  END
>  <Pose>
1

>  <Score>
-9.371

$$$$
