/Users/jonathanwahrer/Desktop/Msc/3_Semester/Drug_Design_Praktikum/waehrer_HTS_screening/HTS_experiment/out/docking_results/vina_output/3sx0/2004_docked.pdbqt
 OpenBabel03192223023D

 29 32  0  0  1  0  0  0  0  0999 V2000
   22.4680   63.6170   -9.0830 S   0  0  0  0  0  0  0  0  0  0  0  0
   22.9410   64.7600   -9.9690 O   0  0  0  0  0  0  0  0  0  0  0  0
   23.1950   62.3950   -9.6400 O   0  0  0  0  0  0  0  0  0  0  0  0
   20.8160   63.3800   -9.2150 N   0  0  0  0  0  0  0  0  0  0  0  0
   20.3440   62.0750   -9.3670 C   0  0  0  0  0  2  0  0  0  0  0  0
   18.8210   61.9670   -9.2030 C   0  0  0  0  0  2  0  0  0  0  0  0
   18.1480   63.0890   -9.7870 N   0  0  0  0  0  0  0  0  0  0  0  0
   18.6850   64.4090   -9.5370 C   0  0  0  0  0  2  0  0  0  0  0  0
   17.0060   62.9020  -10.5740 C   0  0  0  0  0  0  0  0  0  0  0  0
   20.1300   64.3820   -9.9960 C   0  0  0  0  0  2  0  0  0  0  0  0
   16.5590   61.7450  -10.7770 O   0  0  0  0  0  0  0  0  0  0  0  0
   16.2700   64.0430  -11.2040 C   0  0  0  0  0  3  0  0  0  0  0  0
   15.5530   64.9240  -10.2080 C   0  0  0  0  0  2  0  0  0  0  0  0
   14.3300   64.0310  -10.3990 C   0  0  0  0  0  2  0  0  0  0  0  0
   14.9290   63.6130  -11.7440 C   0  0  0  0  0  2  0  0  0  0  0  0
   23.0970   63.8820   -7.4720 C   0  0  0  0  0  0  0  0  0  0  0  0
   24.1080   63.0240   -6.9910 C   0  0  0  0  0  3  0  0  0  0  0  0
   24.6010   63.1440   -5.7120 C   0  0  0  0  0  0  0  0  0  0  0  0
   24.1450   64.0970   -4.8290 C   0  0  0  0  0  0  0  0  0  0  0  0
   25.6020   62.2830   -5.2620 O   0  0  0  0  0  0  0  0  0  0  0  0
   23.1630   64.9350   -5.2930 C   0  0  0  0  0  3  0  0  0  0  0  0
   24.6930   64.1650   -3.5260 N   0  0  0  0  0  0  0  0  0  0  0  0
   22.6470   64.8310   -6.5930 C   0  0  0  0  0  0  0  0  0  0  0  0
   21.4520   65.9850   -7.1320 Cl  0  0  0  0  0  0  0  0  0  0  0  0
   25.7110   63.2770   -3.0800 C   0  0  0  0  0  0  0  0  0  0  0  0
   24.3430   64.8920   -2.8590 H   0  0  0  0  0  0  0  0  0  0  0  0
   26.4060   63.4420   -2.0600 O   0  0  0  0  0  0  0  0  0  0  0  0
   25.9370   62.0700   -3.9180 C   0  0  1  0  0  3  0  0  0  0  0  0
   25.1250   60.9020   -3.4060 C   0  0  0  0  0  1  0  0  0  0  0  0
  1 16  1  0  0  0  0
  2  1  2  0  0  0  0
  3  1  2  0  0  0  0
  4  1  1  0  0  0  0
  5  4  1  0  0  0  0
  5  6  1  0  0  0  0
  7  8  1  0  0  0  0
  7  6  1  0  0  0  0
  9  7  1  0  0  0  0
 10  8  1  0  0  0  0
 10  4  1  0  0  0  0
 11  9  2  0  0  0  0
 12  9  1  0  0  0  0
 12 13  1  0  0  0  0
 14 13  1  0  0  0  0
 15 12  1  0  0  0  0
 15 14  1  0  0  0  0
 16 17  2  0  0  0  0
 16 23  1  0  0  0  0
 17 18  1  0  0  0  0
 18 20  1  0  0  0  0
 18 19  2  0  0  0  0
 19 22  1  0  0  0  0
 20 28  1  0  0  0  0
 21 19  1  0  0  0  0
 22 25  1  0  0  0  0
 22 26  1  0  0  0  0
 23 21  2  0  0  0  0
 24 23  1  0  0  0  0
 25 27  2  0  0  0  0
 28 29  1  1  0  0  0
 28 25  1  0  0  0  0
M  END
>  <Pose>
1

>  <Score>
-7.125

$$$$
