/Users/jonathanwahrer/Desktop/Msc/3_Semester/Drug_Design_Praktikum/waehrer_HTS_screening/HTS_experiment/out/docking_results/vina_output/3sx0/2014_docked.pdbqt
 OpenBabel03192223023D

 26 29  0  0  0  0  0  0  0  0999 V2000
   19.4990   62.8020  -11.4500 C   0  0  0  0  0  0  0  0  0  0  0  0
   20.5590   63.1080  -10.7090 N   0  0  0  0  0  0  0  0  0  0  0  0
   21.6810   63.1310  -11.4870 C   0  0  0  0  0  0  0  0  0  0  0  0
   21.2510   62.8290  -12.7350 N   0  0  0  0  0  0  0  0  0  0  0  0
   19.9600   62.6320  -12.7280 N   0  0  0  0  0  0  0  0  0  0  0  0
   22.7600   63.4410  -10.7530 N   0  0  0  0  0  0  0  0  0  0  0  0
   22.3850   63.6290   -9.4940 C   0  0  0  0  0  0  0  0  0  0  0  0
   20.9960   63.4210   -9.4620 C   0  0  0  0  0  0  0  0  0  0  0  0
   20.3340   63.5580   -8.3060 N   0  0  0  0  0  0  0  0  0  0  0  0
   21.0470   63.8930   -7.1980 C   0  0  0  0  0  0  0  0  0  0  0  0
   20.3930   64.0140   -6.1150 O   0  0  0  0  0  0  0  0  0  0  0  0
   22.3610   64.0990   -7.1730 N   0  0  0  0  0  0  0  0  0  0  0  0
   23.0240   63.9660   -8.3240 C   0  0  0  0  0  0  0  0  0  0  0  0
   24.2680   64.1490   -8.3570 O   0  0  0  0  0  0  0  0  0  0  0  0
   23.0600   64.4590   -5.9270 C   0  0  0  0  0  1  0  0  0  0  0  0
   18.9120   63.3970   -8.2100 C   0  0  0  0  0  1  0  0  0  0  0  0
   24.1230   63.5570  -11.2310 C   0  0  0  0  0  1  0  0  0  0  0  0
   18.0800   62.6490  -11.1470 C   0  0  0  0  0  0  0  0  0  0  0  0
   17.1670   63.6390  -11.5020 C   0  0  0  0  0  3  0  0  0  0  0  0
   15.8310   63.4500  -11.2800 C   0  0  0  0  0  0  0  0  0  0  0  0
   14.5600   64.8040  -11.7630 Br  0  0  0  0  0  0  0  0  0  0  0  0
   15.3130   62.3020  -10.7070 C   0  0  0  0  0  3  0  0  0  0  0  0
   16.2320   61.3250  -10.3590 C   0  0  0  0  0  3  0  0  0  0  0  0
   17.5660   61.5040  -10.5760 C   0  0  0  0  0  0  0  0  0  0  0  0
   18.5130   60.5160  -10.2260 O   0  0  0  0  0  0  0  0  0  0  0  0
   18.2000   59.5150   -9.2750 C   0  0  0  0  0  1  0  0  0  0  0  0
  1 18  1  0  0  0  0
  1  2  1  0  0  0  0
  2  8  1  0  0  0  0
  3  6  1  0  0  0  0
  3  2  1  0  0  0  0
  4  5  1  0  0  0  0
  4  3  2  0  0  0  0
  5  1  2  0  0  0  0
  6  7  1  0  0  0  0
  7  8  2  0  0  0  0
  7 13  1  0  0  0  0
  8  9  1  0  0  0  0
  9 16  1  0  0  0  0
  9 10  1  0  0  0  0
 10 12  1  0  0  0  0
 10 11  2  0  0  0  0
 12 15  1  0  0  0  0
 13 12  1  0  0  0  0
 14 13  2  0  0  0  0
 17  6  1  0  0  0  0
 18 24  1  0  0  0  0
 19 20  1  0  0  0  0
 19 18  2  0  0  0  0
 20 22  2  0  0  0  0
 21 20  1  0  0  0  0
 22 23  1  0  0  0  0
 24 23  2  0  0  0  0
 24 25  1  0  0  0  0
 25 26  1  0  0  0  0
M  END
>  <Pose>
1

>  <Score>
-6.943

$$$$
