/Users/jonathanwahrer/Desktop/Msc/3_Semester/Drug_Design_Praktikum/waehrer_HTS_screening/HTS_experiment/out/docking_results/vina_output/3sx0/2017_docked.pdbqt
 OpenBabel03192223023D

 24 27  0  0  0  0  0  0  0  0999 V2000
   24.8830   63.7900   -6.3310 Cl  0  0  0  0  0  0  0  0  0  0  0  0
   23.3960   63.8110   -7.2640 C   0  0  0  0  0  0  0  0  0  0  0  0
   23.3700   63.5470   -8.6200 C   0  0  0  0  0  2  0  0  0  0  0  0
   22.2130   63.5660   -9.3330 N   0  0  0  0  0  0  0  0  0  0  0  0
   21.0230   63.8400   -8.7720 C   0  0  0  0  0  0  0  0  0  0  0  0
   19.8720   63.8620   -9.4700 N   0  0  0  0  0  0  0  0  0  0  0  0
   19.8380   63.6070  -10.7900 C   0  0  0  0  0  0  0  0  0  0  0  0
   21.0690   63.3190  -11.3810 C   0  0  0  0  0  2  0  0  0  0  0  0
   22.2410   63.3010  -10.6570 C   0  0  0  0  0  0  0  0  0  0  0  0
   23.3620   63.0390  -11.2010 O   0  0  0  0  0  0  0  0  0  0  0  0
   21.0200   64.1090   -7.4090 C   0  0  0  0  0  3  0  0  0  0  0  0
   22.1850   64.0950   -6.6680 C   0  0  0  0  0  3  0  0  0  0  0  0
   18.5940   63.6180  -11.6020 C   0  0  0  0  0  2  0  0  0  0  0  0
   17.4950   63.2710  -10.7790 N   0  0  0  0  0  0  0  0  0  0  0  0
   17.0940   61.9140  -10.7480 C   0  0  0  0  0  2  0  0  0  0  0  0
   15.6150   61.7030  -10.4640 C   0  0  0  0  0  2  0  0  0  0  0  0
   14.8890   62.6020  -11.3990 C   0  0  0  0  0  0  0  0  0  0  0  0
   15.3440   63.9030  -11.4560 C   0  0  0  0  0  0  0  0  0  0  0  0
   13.8330   62.1390  -12.1510 C   0  0  0  0  0  3  0  0  0  0  0  0
   14.7200   64.7520  -12.2870 N   0  0  0  0  0  0  0  0  0  0  0  0
   16.4920   64.2630  -10.5890 C   0  0  0  0  0  2  0  0  0  0  0  0
   13.6660   64.3280  -13.0490 C   0  0  0  0  0  0  0  0  0  0  0  0
   13.2470   63.0420  -12.9670 N   0  0  0  0  0  0  0  0  0  0  0  0
   12.9680   65.2590  -13.9740 C   0  0  0  0  0  1  0  0  0  0  0  0
  2 12  2  0  0  0  0
  2  1  1  0  0  0  0
  3  2  1  0  0  0  0
  4  5  1  0  0  0  0
  4  3  1  0  0  0  0
  5 11  2  0  0  0  0
  6  5  1  0  0  0  0
  7  6  2  0  0  0  0
  8  7  1  0  0  0  0
  8  9  1  0  0  0  0
  9  4  1  0  0  0  0
 10  9  2  0  0  0  0
 11 12  1  0  0  0  0
 13  7  1  0  0  0  0
 13 14  1  0  0  0  0
 14 15  1  0  0  0  0
 14 21  1  0  0  0  0
 15 16  1  0  0  0  0
 17 16  1  0  0  0  0
 18 17  2  0  0  0  0
 18 21  1  0  0  0  0
 19 17  1  0  0  0  0
 20 18  1  0  0  0  0
 22 23  1  0  0  0  0
 22 20  2  0  0  0  0
 23 19  2  0  0  0  0
 24 22  1  0  0  0  0
M  END
>  <Pose>
1

>  <Score>
-9.211

$$$$
