/Users/jonathanwahrer/Desktop/Msc/3_Semester/Drug_Design_Praktikum/waehrer_HTS_screening/HTS_experiment/out/docking_results/vina_output/3sx0/2020_docked.pdbqt
 OpenBabel03192223023D

 22 24  0  0  1  0  0  0  0  0999 V2000
   20.3570   64.5200  -10.3020 C   0  0  2  0  0  3  0  0  0  0  0  0
   19.1260   64.0610   -9.4730 C   0  0  2  0  0  3  0  0  0  0  0  0
   19.5960   62.6210   -9.1910 C   0  0  0  0  0  0  0  0  0  0  0  0
   19.5770   62.1050   -8.0880 O   0  0  0  0  0  0  0  0  0  0  0  0
   20.0540   61.9880  -10.4080 N   0  0  0  0  0  0  0  0  0  0  0  0
   19.5630   62.6340  -11.6390 C   0  0  1  0  0  0  0  0  0  0  0  0
   18.1320   62.8310  -11.3660 N   0  0  0  0  0  0  0  0  0  0  0  0
   17.9250   63.8090  -10.3270 C   0  0  0  0  0  0  0  0  0  0  0  0
   16.8460   64.4000  -10.1420 O   0  0  0  0  0  0  0  0  0  0  0  0
   20.1670   64.0640  -11.6490 C   0  0  0  0  0  2  0  0  0  0  0  0
   19.8350   61.9150  -12.8860 C   0  0  0  0  0  1  0  0  0  0  0  0
   20.6770   61.1770  -10.4300 H   0  0  0  0  0  0  0  0  0  0  0  0
   17.3890   62.3250  -11.8600 H   0  0  0  0  0  0  0  0  0  0  0  0
   21.4790   64.1040   -9.4690 C   0  0  0  0  0  0  0  0  0  0  0  0
   21.4230   64.4530   -8.1130 C   0  0  0  0  0  3  0  0  0  0  0  0
   22.4870   64.1800   -7.2510 C   0  0  0  0  0  0  0  0  0  0  0  0
   22.3800   64.6790   -5.4190 Br  0  0  0  0  0  0  0  0  0  0  0  0
   23.6140   63.5640   -7.6930 C   0  0  0  0  0  3  0  0  0  0  0  0
   23.6850   63.2170   -9.0130 C   0  0  0  0  0  3  0  0  0  0  0  0
   22.6420   63.4790   -9.8840 C   0  0  0  0  0  0  0  0  0  0  0  0
   22.6770   63.1350  -11.2060 O   0  0  0  0  0  0  0  0  0  0  0  0
   23.9000   63.1080  -11.8900 C   0  0  0  0  0  1  0  0  0  0  0  0
  1  2  1  0  0  0  0
  1 14  1  1  0  0  0
  2  8  1  6  0  0  0
  2  3  1  0  0  0  0
  3  4  2  0  0  0  0
  5  3  1  0  0  0  0
  6 11  1  6  0  0  0
  6  7  1  0  0  0  0
  6  5  1  0  0  0  0
  7  8  1  0  0  0  0
  8  9  2  0  0  0  0
 10  6  1  0  0  0  0
 10  1  1  0  0  0  0
 12  5  1  0  0  0  0
 13  7  1  0  0  0  0
 14 15  1  0  0  0  0
 15 16  2  0  0  0  0
 16 17  1  0  0  0  0
 18 16  1  0  0  0  0
 19 18  2  0  0  0  0
 20 14  2  0  0  0  0
 20 19  1  0  0  0  0
 21 20  1  0  0  0  0
 22 21  1  0  0  0  0
M  END
>  <Pose>
1

>  <Score>
-5.299

$$$$
