/Users/jonathanwahrer/Desktop/Msc/3_Semester/Drug_Design_Praktikum/waehrer_HTS_screening/HTS_experiment/out/docking_results/vina_output/3sx0/2028_docked.pdbqt
 OpenBabel03192223023D

 31 34  0  0  1  0  0  0  0  0999 V2000
   14.0060   60.7500  -10.4920 Cl  0  0  0  0  0  0  0  0  0  0  0  0
   14.2360   62.3710  -11.1430 C   0  0  0  0  0  0  0  0  0  0  0  0
   13.6060   62.6910  -12.3600 C   0  0  0  0  0  0  0  0  0  0  0  0
   13.7820   63.9480  -12.8570 C   0  0  0  0  0  0  0  0  0  0  0  0
   14.5590   64.8940  -12.2030 C   0  0  0  0  0  3  0  0  0  0  0  0
   15.1640   64.5510  -11.0150 C   0  0  0  0  0  0  0  0  0  0  0  0
   15.0090   63.2940  -10.4740 C   0  0  0  0  0  3  0  0  0  0  0  0
   16.0010   65.5960  -10.3270 C   0  0  0  0  0  1  0  0  0  0  0  0
   12.9160   64.0650  -14.0710 C   0  0  2  0  0  0  0  0  0  0  0  0
   13.4640   64.8190  -15.1270 N   0  0  0  0  0  0  0  0  0  0  0  0
   13.0780   66.1840  -14.9070 C   0  0  2  0  0  3  0  0  0  0  0  0
   12.0710   66.2360  -13.8310 C   0  0  2  0  0  3  0  0  0  0  0  0
   11.6370   64.7710  -13.7470 C   0  0  1  0  0  3  0  0  0  0  0  0
   10.6500   64.7150  -14.8100 C   0  0  0  0  0  0  0  0  0  0  0  0
   10.3510   63.8500  -15.6620 O   0  0  0  0  0  0  0  0  0  0  0  0
    9.9570   65.9880  -14.7370 N   0  0  0  0  0  0  0  0  0  0  0  0
   10.8170   66.9260  -14.1080 C   0  0  0  0  0  0  0  0  0  0  0  0
   10.5280   68.1040  -13.8550 O   0  0  0  0  0  0  0  0  0  0  0  0
   12.6030   62.6760  -14.3970 C   0  0  0  0  0  0  0  0  0  0  0  0
   12.1600   62.1460  -15.4640 O   0  0  0  0  0  0  0  0  0  0  0  0
   12.8780   61.8760  -13.2710 N   0  0  0  0  0  0  0  0  0  0  0  0
   14.5050   64.7200  -15.2070 H   0  0  0  0  0  0  0  0  0  0  0  0
   12.6250   60.8740  -13.0800 H   0  0  0  0  0  0  0  0  0  0  0  0
   12.7000   66.8880  -16.1960 C   0  0  2  0  0  3  0  0  0  0  0  0
   12.9580   65.9760  -17.3500 C   0  0  0  0  0  1  0  0  0  0  0  0
   13.1620   68.1640  -16.3180 O   0  0  0  0  0  0  0  0  0  0  0  0
   12.4570   68.8600  -16.3300 H   0  0  0  0  0  0  0  0  0  0  0  0
    8.6280   66.3010  -15.1930 C   0  0  0  0  0  2  0  0  0  0  0  0
    8.5370   66.9160  -16.5400 C   0  0  0  0  0  2  0  0  0  0  0  0
    8.5610   68.2750  -16.6230 O   0  0  0  0  0  0  0  0  0  0  0  0
    9.6550   68.8070  -17.2730 C   0  0  0  0  0  1  0  0  0  0  0  0
  2  1  1  0  0  0  0
  2  7  1  0  0  0  0
  3  2  2  0  0  0  0
  4  3  1  0  0  0  0
  4  5  2  0  0  0  0
  5  6  1  0  0  0  0
  6  7  2  0  0  0  0
  6  8  1  0  0  0  0
  9 19  1  6  0  0  0
  9 13  1  0  0  0  0
  9  4  1  0  0  0  0
 10 11  1  0  0  0  0
 10  9  1  0  0  0  0
 11 24  1  6  0  0  0
 11 12  1  0  0  0  0
 12 17  1  6  0  0  0
 12 13  1  0  0  0  0
 13 14  1  6  0  0  0
 14 16  1  0  0  0  0
 15 14  2  0  0  0  0
 16 17  1  0  0  0  0
 17 18  2  0  0  0  0
 19 21  1  0  0  0  0
 20 19  2  0  0  0  0
 21 23  1  0  0  0  0
 21  3  1  0  0  0  0
 22 10  1  0  0  0  0
 24 25  1  6  0  0  0
 26 24  1  0  0  0  0
 27 26  1  0  0  0  0
 28 16  1  0  0  0  0
 29 28  1  0  0  0  0
 30 29  1  0  0  0  0
 31 30  1  0  0  0  0
M  END
>  <Pose>
1

>  <Score>
-5.063

$$$$
