/Users/jonathanwahrer/Desktop/Msc/3_Semester/Drug_Design_Praktikum/waehrer_HTS_screening/HTS_experiment/out/docking_results/vina_output/3sx0/2032_docked.pdbqt
 OpenBabel03192223033D

 31 34  0  0  0  0  0  0  0  0999 V2000
   24.0280   63.8000   -8.3170 C   0  0  0  0  0  3  0  0  0  0  0  0
   23.1450   63.5380   -9.2260 C   0  0  0  0  0  0  0  0  0  0  0  0
   21.8330   63.2140   -9.0220 O   0  0  0  0  0  0  0  0  0  0  0  0
   21.2170   63.0160  -10.2560 C   0  0  0  0  0  0  0  0  0  0  0  0
   22.0770   63.1900  -11.2930 C   0  0  0  0  0  0  0  0  0  0  0  0
   21.6500   63.0540  -12.6180 C   0  0  0  0  0  3  0  0  0  0  0  0
   20.3560   62.7360  -12.9400 C   0  0  0  0  0  3  0  0  0  0  0  0
   19.5060   62.5600  -11.8330 C   0  0  0  0  0  0  0  0  0  0  0  0
   19.8860   62.6900  -10.5410 C   0  0  0  0  0  0  0  0  0  0  0  0
   18.1920   62.2180  -12.2160 O   0  0  0  0  0  1  0  0  0  0  0  0
   23.3610   63.5340  -10.6740 C   0  0  0  0  0  0  0  0  0  0  0  0
   24.4430   63.7820  -11.2810 O   0  0  0  0  0  0  0  0  0  0  0  0
   23.8260   63.8090   -6.8750 C   0  0  0  0  0  0  0  0  0  0  0  0
   24.6020   63.0240   -6.0630 C   0  0  0  0  0  3  0  0  0  0  0  0
   24.3870   62.9980   -4.6730 C   0  0  0  0  0  0  0  0  0  0  0  0
   25.4440   61.9300   -3.5140 Br  0  0  0  0  0  0  0  0  0  0  0  0
   23.3840   63.7700   -4.1320 C   0  0  0  0  0  3  0  0  0  0  0  0
   22.6130   64.5460   -4.9350 C   0  0  0  0  0  3  0  0  0  0  0  0
   22.8250   64.5750   -6.3210 C   0  0  0  0  0  0  0  0  0  0  0  0
   22.0910   65.3260   -7.1730 O   0  0  0  0  0  0  0  0  0  0  0  0
   21.7580   66.6650   -7.0480 C   0  0  0  0  0  1  0  0  0  0  0  0
   19.0090   62.4560   -9.3780 C   0  0  0  0  0  2  0  0  0  0  0  0
   17.7450   63.1390   -9.5210 N   0  0  0  0  0  4  0  0  0  0  0  0
   16.7170   62.1760   -9.8710 C   0  0  0  0  0  2  0  0  0  0  0  0
   15.7340   62.6460  -10.8570 C   0  0  0  0  0  2  0  0  0  0  0  0
   15.4490   64.0450  -10.8480 N   0  0  0  0  0  0  0  0  0  0  0  0
   16.2470   64.8740  -10.0650 C   0  0  0  0  0  2  0  0  0  0  0  0
   17.7190   64.3850  -10.1180 C   0  0  0  0  0  2  0  0  0  0  0  0
   17.5080   63.3490   -8.4450 H   0  0  0  0  0  0  0  0  0  0  0  0
   14.8710   64.5860  -12.0190 C   0  0  0  0  0  2  0  0  0  0  0  0
   13.6100   63.9380  -12.4720 C   0  0  0  0  0  1  0  0  0  0  0  0
  1 13  1  0  0  0  0
  2  3  1  0  0  0  0
  2  1  2  0  0  0  0
  4  3  1  0  0  0  0
  5 11  1  0  0  0  0
  5  4  2  0  0  0  0
  6  5  1  0  0  0  0
  7  6  2  0  0  0  0
  7  8  1  0  0  0  0
  8  9  2  0  0  0  0
  9  4  1  0  0  0  0
  9 22  1  0  0  0  0
 10  8  1  0  0  0  0
 11  2  1  0  0  0  0
 12 11  2  0  0  0  0
 13 19  2  0  0  0  0
 13 14  1  0  0  0  0
 14 15  2  0  0  0  0
 15 17  1  0  0  0  0
 15 16  1  0  0  0  0
 18 17  2  0  0  0  0
 19 18  1  0  0  0  0
 20 21  1  0  0  0  0
 20 19  1  0  0  0  0
 23 22  1  0  0  0  0
 23 29  1  0  0  0  0
 24 23  1  0  0  0  0
 25 26  1  0  0  0  0
 25 24  1  0  0  0  0
 26 27  1  0  0  0  0
 28 27  1  0  0  0  0
 28 23  1  0  0  0  0
 30 26  1  0  0  0  0
 31 30  1  0  0  0  0
M  END
>  <Pose>
1

>  <Score>
-6.919

$$$$
