/Users/jonathanwahrer/Desktop/Msc/3_Semester/Drug_Design_Praktikum/waehrer_HTS_screening/HTS_experiment/out/docking_results/vina_output/3sx0/2041_docked.pdbqt
 OpenBabel03192223033D

 30 33  0  0  0  0  0  0  0  0999 V2000
   19.3760   62.9150   -9.3480 N   0  0  0  0  0  0  0  0  0  0  0  0
   19.2620   61.8220  -10.2920 C   0  0  0  0  0  2  0  0  0  0  0  0
   17.8940   61.1620  -10.1760 C   0  0  0  0  0  2  0  0  0  0  0  0
   16.8840   62.1760  -10.4800 N   0  0  0  0  0  0  0  0  0  0  0  0
   17.3760   63.5200  -10.5470 C   0  0  0  0  0  2  0  0  0  0  0  0
   18.2230   63.7630   -9.3260 C   0  0  0  0  0  2  0  0  0  0  0  0
   15.5590   61.7800  -10.6900 C   0  0  0  0  0  0  0  0  0  0  0  0
   15.2660   60.5180  -10.6150 O   0  0  0  0  0  0  0  0  0  0  0  0
   14.3950   62.6150  -11.0010 C   0  0  0  0  0  2  0  0  0  0  0  0
   13.6050   62.2360  -12.5590 S   0  0  0  0  0  0  0  0  0  0  0  0
   13.1400   63.6710  -13.5120 C   0  0  0  0  0  0  0  0  0  0  0  0
   13.9020   64.7560  -13.5390 N   0  0  0  0  0  0  0  0  0  0  0  0
   13.6080   65.8480  -14.2500 C   0  0  0  0  0  3  0  0  0  0  0  0
   12.4560   65.8470  -14.9890 N   0  0  0  0  0  0  0  0  0  0  0  0
   11.6650   64.7690  -14.9830 C   0  0  0  0  0  0  0  0  0  0  0  0
   10.4900   64.5110  -15.6270 N   0  0  0  0  0  0  0  0  0  0  0  0
   11.9740   63.6410  -14.2450 C   0  0  0  0  0  0  0  0  0  0  0  0
   10.0980   63.2960  -15.3040 N   0  0  0  0  0  0  0  0  0  0  0  0
    9.8090   65.4110  -16.5100 C   0  0  0  0  0  1  0  0  0  0  0  0
   10.9730   62.7330  -14.4670 C   0  0  0  0  0  3  0  0  0  0  0  0
   20.8020   63.8220   -9.6660 S   0  0  0  0  0  0  0  0  0  0  0  0
   21.5310   63.1120  -10.7830 O   0  0  0  0  0  0  0  0  0  0  0  0
   20.4980   65.2000  -10.1480 O   0  0  0  0  0  0  0  0  0  0  0  0
   21.8010   63.8660   -8.2310 C   0  0  0  0  0  0  0  0  0  0  0  0
   23.0700   63.3390   -8.1540 C   0  0  0  0  0  3  0  0  0  0  0  0
   23.8030   63.3960   -6.9930 C   0  0  0  0  0  3  0  0  0  0  0  0
   23.2650   64.0010   -5.8560 C   0  0  0  0  0  0  0  0  0  0  0  0
   21.9760   64.5400   -5.9200 C   0  0  0  0  0  3  0  0  0  0  0  0
   24.2070   64.0670   -4.3900 Cl  0  0  0  0  0  0  0  0  0  0  0  0
   21.2610   64.4700   -7.0960 C   0  0  0  0  0  3  0  0  0  0  0  0
  1  6  1  0  0  0  0
  2  3  1  0  0  0  0
  2  1  1  0  0  0  0
  4  3  1  0  0  0  0
  5  4  1  0  0  0  0
  5  6  1  0  0  0  0
  7  8  2  0  0  0  0
  7  4  1  0  0  0  0
  9  7  1  0  0  0  0
 10  9  1  0  0  0  0
 11 10  1  0  0  0  0
 12 11  1  0  0  0  0
 13 12  2  0  0  0  0
 14 15  2  0  0  0  0
 14 13  1  0  0  0  0
 15 17  1  0  0  0  0
 16 18  1  0  0  0  0
 16 15  1  0  0  0  0
 17 11  2  0  0  0  0
 18 20  2  0  0  0  0
 19 16  1  0  0  0  0
 20 17  1  0  0  0  0
 21  1  1  0  0  0  0
 21 24  1  0  0  0  0
 22 21  2  0  0  0  0
 23 21  2  0  0  0  0
 24 25  2  0  0  0  0
 24 30  1  0  0  0  0
 25 26  1  0  0  0  0
 26 27  2  0  0  0  0
 27 29  1  0  0  0  0
 28 27  1  0  0  0  0
 30 28  2  0  0  0  0
M  END
>  <Pose>
1

>  <Score>
-7.780

$$$$
