/Users/jonathanwahrer/Desktop/Msc/3_Semester/Drug_Design_Praktikum/waehrer_HTS_screening/HTS_experiment/out/docking_results/vina_output/3sx0/2063_docked.pdbqt
 OpenBabel03192223043D

 34 37  0  0  1  0  0  0  0  0999 V2000
   13.5570   64.1400  -12.9770 C   0  0  0  0  0  0  0  0  0  0  0  0
   14.3140   65.2780  -12.7150 C   0  0  0  0  0  3  0  0  0  0  0  0
   15.3670   65.2610  -11.9330 O   0  0  0  0  0  0  0  0  0  0  0  0
   15.7910   64.1730  -11.3340 C   0  0  0  0  0  0  0  0  0  0  0  0
   15.1060   62.9970  -11.5330 C   0  0  0  0  0  0  0  0  0  0  0  0
   15.5850   61.8830  -10.8880 C   0  0  0  0  0  3  0  0  0  0  0  0
   16.6900   61.8990  -10.0750 C   0  0  0  0  0  3  0  0  0  0  0  0
   17.4070   63.0930   -9.8580 C   0  0  0  0  0  0  0  0  0  0  0  0
   16.9210   64.2030  -10.5070 C   0  0  0  0  0  3  0  0  0  0  0  0
   13.9950   62.9810  -12.3490 C   0  0  0  0  0  0  0  0  0  0  0  0
   13.3660   61.9040  -12.5320 O   0  0  0  0  0  0  0  0  0  0  0  0
   18.5130   63.0660   -9.0340 O   0  0  0  0  0  0  0  0  0  0  0  0
   19.7910   63.4000   -9.3750 C   0  0  2  0  0  3  0  0  0  0  0  0
   20.2680   62.6990  -10.5140 O   0  0  0  0  0  0  0  0  0  0  0  0
   21.2810   63.4790  -11.0290 C   0  0  1  0  0  3  0  0  0  0  0  0
   22.4640   63.6350  -10.1260 C   0  0  2  0  0  3  0  0  0  0  0  0
   22.0660   63.8860   -8.6910 C   0  0  1  0  0  3  0  0  0  0  0  0
   20.8260   63.1070   -8.3050 C   0  0  1  0  0  3  0  0  0  0  0  0
   21.7350   63.0300  -12.3940 C   0  0  0  0  0  2  0  0  0  0  0  0
   23.0780   62.6590  -12.4030 O   0  0  0  0  0  0  0  0  0  0  0  0
   23.4700   63.0600  -11.5650 H   0  0  0  0  0  0  0  0  0  0  0  0
   23.1630   64.7760  -10.5520 O   0  0  0  0  0  0  0  0  0  0  0  0
   23.5430   65.2630   -9.7790 H   0  0  0  0  0  0  0  0  0  0  0  0
   23.1430   63.6180   -7.8560 O   0  0  0  0  0  0  0  0  0  0  0  0
   23.2700   62.6310   -7.7060 H   0  0  0  0  0  0  0  0  0  0  0  0
   20.4130   63.5510   -7.0540 O   0  0  0  0  0  0  0  0  0  0  0  0
   20.8640   64.3950   -6.8140 H   0  0  0  0  0  0  0  0  0  0  0  0
   12.3970   64.1830  -13.8430 C   0  0  0  0  0  0  0  0  0  0  0  0
   12.3430   63.5440  -15.0650 C   0  0  0  0  0  3  0  0  0  0  0  0
   11.1980   63.6270  -15.8480 C   0  0  0  0  0  3  0  0  0  0  0  0
   10.0880   64.3340  -15.4510 C   0  0  0  0  0  0  0  0  0  0  0  0
    8.5190   64.4380  -16.5410 Br  0  0  0  0  0  0  0  0  0  0  0  0
   10.1410   64.9780  -14.2230 C   0  0  0  0  0  3  0  0  0  0  0  0
   11.2790   64.8960  -13.4460 C   0  0  0  0  0  3  0  0  0  0  0  0
  1  2  2  0  0  0  0
  1 10  1  0  0  0  0
  2  3  1  0  0  0  0
  3  4  1  0  0  0  0
  4  9  1  0  0  0  0
  5  4  2  0  0  0  0
  5  6  1  0  0  0  0
  6  7  2  0  0  0  0
  7  8  1  0  0  0  0
  8 12  1  0  0  0  0
  9  8  2  0  0  0  0
 10  5  1  0  0  0  0
 11 10  2  0  0  0  0
 13 12  1  1  0  0  0
 13 18  1  0  0  0  0
 14 13  1  0  0  0  0
 15 19  1  6  0  0  0
 15 14  1  0  0  0  0
 15 16  1  0  0  0  0
 16 22  1  6  0  0  0
 16 17  1  0  0  0  0
 17 18  1  0  0  0  0
 17 24  1  1  0  0  0
 18 26  1  1  0  0  0
 20 19  1  0  0  0  0
 20 21  1  0  0  0  0
 22 23  1  0  0  0  0
 24 25  1  0  0  0  0
 26 27  1  0  0  0  0
 28 34  1  0  0  0  0
 28  1  1  0  0  0  0
 29 28  2  0  0  0  0
 30 31  2  0  0  0  0
 30 29  1  0  0  0  0
 31 33  1  0  0  0  0
 32 31  1  0  0  0  0
 33 34  2  0  0  0  0
M  END
>  <Pose>
1

>  <Score>
-7.630

$$$$
