/Users/jonathanwahrer/Desktop/Msc/3_Semester/Drug_Design_Praktikum/waehrer_HTS_screening/HTS_experiment/out/docking_results/vina_output/3sx0/2072_docked.pdbqt
 OpenBabel03192223043D

 27 30  0  0  0  0  0  0  0  0999 V2000
   19.3590   63.6440  -10.6170 N   0  0  0  0  0  0  0  0  0  0  0  0
   20.3300   63.0170  -11.4370 C   0  0  0  0  0  2  0  0  0  0  0  0
   21.7750   63.3030  -11.1430 C   0  0  0  0  0  2  0  0  0  0  0  0
   21.9360   63.5120   -9.7420 N   0  0  0  0  0  0  0  0  0  0  0  0
   21.2120   64.7440   -9.4320 C   0  0  0  0  0  2  0  0  0  0  0  0
   19.7590   64.4750   -9.5610 C   0  0  0  0  0  2  0  0  0  0  0  0
   23.2830   63.5770   -9.2880 C   0  0  0  0  0  2  0  0  0  0  0  0
   23.4710   64.6260   -8.2460 C   0  0  0  0  0  2  0  0  0  0  0  0
   23.8360   64.0690   -6.9610 N   0  0  0  0  0  0  0  0  0  0  0  0
   24.8400   63.2340   -6.6980 N   0  0  0  0  0  0  0  0  0  0  0  0
   24.8770   62.9440   -5.3900 C   0  0  0  0  0  0  0  0  0  0  0  0
   23.8720   63.6110   -4.8090 N   0  0  0  0  0  0  0  0  0  0  0  0
   25.6780   62.1590   -4.5820 C   0  0  0  0  0  3  0  0  0  0  0  0
   23.6450   63.5210   -3.4760 C   0  0  0  0  0  3  0  0  0  0  0  0
   23.2320   64.3060   -5.7950 C   0  0  0  0  0  0  0  0  0  0  0  0
   24.4290   62.7460   -2.6510 C   0  0  0  0  0  3  0  0  0  0  0  0
   25.4730   62.0460   -3.2240 C   0  0  0  0  0  3  0  0  0  0  0  0
   22.2370   65.0280   -5.5470 O   0  0  0  0  0  0  0  0  0  0  0  0
   18.2500   62.4570  -10.0420 S   0  0  0  0  0  0  0  0  0  0  0  0
   18.7490   61.0930  -10.4640 O   0  0  0  0  0  0  0  0  0  0  0  0
   18.1490   62.4650   -8.5620 O   0  0  0  0  0  0  0  0  0  0  0  0
   16.6360   62.7590  -10.7010 C   0  0  0  0  0  0  0  0  0  0  0  0
   16.0110   64.1690  -11.4260 S   0  0  0  0  0  0  0  0  0  0  0  0
   14.4340   63.6290  -11.7680 C   0  0  0  0  0  0  0  0  0  0  0  0
   14.4380   62.3430  -11.2990 C   0  0  0  0  0  3  0  0  0  0  0  0
   12.9750   64.5680  -12.6070 Br  0  0  0  0  0  0  0  0  0  0  0  0
   15.5730   61.8940  -10.7490 C   0  0  0  0  0  3  0  0  0  0  0  0
  1 19  1  0  0  0  0
  1  6  1  0  0  0  0
  2  3  1  0  0  0  0
  2  1  1  0  0  0  0
  3  4  1  0  0  0  0
  4  5  1  0  0  0  0
  4  7  1  0  0  0  0
  6  5  1  0  0  0  0
  7  8  1  0  0  0  0
  8  9  1  0  0  0  0
  9 10  1  0  0  0  0
  9 15  1  0  0  0  0
 10 11  2  0  0  0  0
 11 12  1  0  0  0  0
 11 13  1  0  0  0  0
 12 14  1  0  0  0  0
 13 17  2  0  0  0  0
 14 16  2  0  0  0  0
 15 18  2  0  0  0  0
 15 12  1  0  0  0  0
 17 16  1  0  0  0  0
 19 21  2  0  0  0  0
 20 19  2  0  0  0  0
 22 19  1  0  0  0  0
 23 22  1  0  0  0  0
 24 23  1  0  0  0  0
 24 25  2  0  0  0  0
 25 27  1  0  0  0  0
 26 24  1  0  0  0  0
 27 22  2  0  0  0  0
M  END
>  <Pose>
1

>  <Score>
-8.848

$$$$
