/Users/jonathanwahrer/Desktop/Msc/3_Semester/Drug_Design_Praktikum/waehrer_HTS_screening/HTS_experiment/out/docking_results/vina_output/3sx0/2079_docked.pdbqt
 OpenBabel03192223053D

 31 34  0  0  0  0  0  0  0  0999 V2000
   23.8340   63.5530  -11.8660 C   0  0  0  0  0  0  0  0  0  0  0  0
   24.1260   63.9340  -10.5760 C   0  0  0  0  0  3  0  0  0  0  0  0
   23.1080   63.8890   -9.6130 C   0  0  0  0  0  0  0  0  0  0  0  0
   21.8330   63.4780   -9.9350 C   0  0  0  0  0  0  0  0  0  0  0  0
   20.7590   63.3970   -9.0480 C   0  0  0  0  0  0  0  0  0  0  0  0
   21.0940   63.7770   -7.7240 C   0  0  0  0  0  0  0  0  0  0  0  0
   22.3700   64.1930   -7.3580 C   0  0  0  0  0  3  0  0  0  0  0  0
   23.3720   64.2420   -8.3140 C   0  0  0  0  0  3  0  0  0  0  0  0
   20.1800   63.7660   -6.6890 O   0  0  0  0  0  1  0  0  0  0  0  0
   21.6080   63.1360  -11.1390 O   0  0  0  0  0  0  0  0  0  0  0  0
   22.5100   63.1420  -12.1240 C   0  0  0  0  0  0  0  0  0  0  0  0
   22.2180   62.8010  -13.2770 O   0  0  0  0  0  0  0  0  0  0  0  0
   19.4720   62.8360   -9.2670 C   0  0  0  0  0  2  0  0  0  0  0  0
   19.2090   61.6760  -10.0800 N   0  0  0  0  0  4  0  0  0  0  0  0
   17.8040   61.2070   -9.9270 C   0  0  0  0  0  2  0  0  0  0  0  0
   16.8850   62.3740   -9.8620 C   0  0  0  0  0  2  0  0  0  0  0  0
   16.8890   63.2300  -11.0260 N   0  0  0  0  0  0  0  0  0  0  0  0
   18.1360   63.2310  -11.7130 C   0  0  0  0  0  2  0  0  0  0  0  0
   19.1020   62.1650  -11.4930 C   0  0  0  0  0  2  0  0  0  0  0  0
   19.8600   60.9260  -10.1180 H   0  0  0  0  0  0  0  0  0  0  0  0
   16.5120   64.6010  -10.6510 C   0  0  0  0  0  2  0  0  0  0  0  0
   15.1890   65.0140  -11.2550 C   0  0  0  0  0  2  0  0  0  0  0  0
   15.0650   64.6330  -12.5820 O   0  0  0  0  0  0  0  0  0  0  0  0
   14.8480   65.4560  -13.1250 H   0  0  0  0  0  0  0  0  0  0  0  0
   24.8810   63.4620  -12.9030 C   0  0  0  0  0  0  0  0  0  0  0  0
   24.4550   63.5570  -14.2420 C   0  0  0  0  0  3  0  0  0  0  0  0
   25.3850   63.5320  -15.2660 C   0  0  0  0  0  3  0  0  0  0  0  0
   26.7480   63.4130  -15.0220 C   0  0  0  0  0  0  0  0  0  0  0  0
   27.9660   63.4720  -16.3190 Cl  0  0  0  0  0  0  0  0  0  0  0  0
   27.1570   63.3150  -13.7040 C   0  0  0  0  0  3  0  0  0  0  0  0
   26.2080   63.3400  -12.6970 C   0  0  0  0  0  3  0  0  0  0  0  0
  1  2  2  0  0  0  0
  2  3  1  0  0  0  0
  3  8  1  0  0  0  0
  4  3  2  0  0  0  0
  4  5  1  0  0  0  0
  5  6  2  0  0  0  0
  6  7  1  0  0  0  0
  6  9  1  0  0  0  0
  8  7  2  0  0  0  0
 10  4  1  0  0  0  0
 11  1  1  0  0  0  0
 11 10  1  0  0  0  0
 12 11  2  0  0  0  0
 13  5  1  0  0  0  0
 14 15  1  0  0  0  0
 14 13  1  0  0  0  0
 15 16  1  0  0  0  0
 17 21  1  0  0  0  0
 17 16  1  0  0  0  0
 18 19  1  0  0  0  0
 18 17  1  0  0  0  0
 19 14  1  0  0  0  0
 20 14  1  0  0  0  0
 22 21  1  0  0  0  0
 23 22  1  0  0  0  0
 24 23  1  0  0  0  0
 25 31  1  0  0  0  0
 25  1  1  0  0  0  0
 26 25  2  0  0  0  0
 27 28  2  0  0  0  0
 27 26  1  0  0  0  0
 28 30  1  0  0  0  0
 29 28  1  0  0  0  0
 30 31  2  0  0  0  0
M  END
>  <Pose>
1

>  <Score>
-7.809

$$$$
