/Users/jonathanwahrer/Desktop/Msc/3_Semester/Drug_Design_Praktikum/waehrer_HTS_screening/HTS_experiment/out/docking_results/vina_output/3sx0/2087_docked.pdbqt
 OpenBabel03192223053D

 32 35  0  0  0  0  0  0  0  0999 V2000
   21.1640   63.0450   -9.7730 N   0  0  0  0  0  0  0  0  0  0  0  0
   22.2530   63.1780  -10.5990 C   0  0  0  0  0  0  0  0  0  0  0  0
   21.8400   63.1470  -11.9160 C   0  0  0  0  0  0  0  0  0  0  0  0
   20.5130   62.9940  -11.8660 N   0  0  0  0  0  0  0  0  0  0  0  0
   20.0950   62.9290  -10.5620 C   0  0  0  0  0  0  0  0  0  0  0  0
   22.7270   63.2510  -12.9240 N   0  0  0  0  0  0  0  0  0  0  0  0
   24.0250   63.3850  -12.6160 C   0  0  0  0  0  0  0  0  0  0  0  0
   24.8440   63.4810  -13.5650 O   0  0  0  0  0  0  0  0  0  0  0  0
   24.4640   63.4170  -11.3530 N   0  0  0  0  0  0  0  0  0  0  0  0
   23.5930   63.3150  -10.3040 C   0  0  0  0  0  0  0  0  0  0  0  0
   24.0370   63.3450   -9.1310 O   0  0  0  0  0  0  0  0  0  0  0  0
   22.2500   63.2200  -14.2950 C   0  0  0  0  0  1  0  0  0  0  0  0
   25.4860   63.5200  -11.1290 H   0  0  0  0  0  0  0  0  0  0  0  0
   18.7560   62.6720  -10.2290 N   0  0  0  0  0  0  0  0  0  0  0  0
   17.8700   61.6750  -10.7140 C   0  0  0  0  0  2  0  0  0  0  0  0
   16.4040   62.1200  -10.6490 C   0  0  0  0  0  2  0  0  0  0  0  0
   16.1890   63.5080  -10.6550 N   0  0  0  0  0  0  0  0  0  0  0  0
   16.9740   64.2920   -9.7860 C   0  0  0  0  0  2  0  0  0  0  0  0
   18.1530   63.5550   -9.1930 C   0  0  0  0  0  2  0  0  0  0  0  0
   15.5650   64.1220  -11.7530 C   0  0  0  0  0  2  0  0  0  0  0  0
   14.1050   63.9800  -11.8710 C   0  0  0  0  0  0  0  0  0  0  0  0
   13.3580   63.7910  -10.8750 O   0  0  0  0  0  0  0  0  0  0  0  0
   13.5090   64.0530  -13.1110 O   0  0  0  0  0  0  0  0  0  0  0  0
   13.5710   65.1990  -13.9150 C   0  0  0  0  0  1  0  0  0  0  0  0
   21.2380   63.0680   -8.3350 C   0  0  0  0  0  2  0  0  0  0  0  0
   21.5010   64.4710   -7.8200 C   0  0  0  0  0  0  0  0  0  0  0  0
   22.3800   64.5980   -6.7850 C   0  0  0  0  0  3  0  0  0  0  0  0
   22.6780   65.8740   -6.3030 C   0  0  0  0  0  3  0  0  0  0  0  0
   22.0910   66.9840   -6.8680 C   0  0  0  0  0  0  0  0  0  0  0  0
   22.4840   68.7380   -6.2270 Br  0  0  0  0  0  0  0  0  0  0  0  0
   21.2030   66.8170   -7.9170 C   0  0  0  0  0  3  0  0  0  0  0  0
   20.9110   65.5620   -8.3910 C   0  0  0  0  0  3  0  0  0  0  0  0
  1 25  1  0  0  0  0
  2 10  1  0  0  0  0
  2  1  1  0  0  0  0
  3  4  1  0  0  0  0
  3  2  2  0  0  0  0
  4  5  2  0  0  0  0
  5 14  1  0  0  0  0
  5  1  1  0  0  0  0
  6  7  1  0  0  0  0
  6  3  1  0  0  0  0
  7  9  1  0  0  0  0
  8  7  2  0  0  0  0
  9 13  1  0  0  0  0
  9 10  1  0  0  0  0
 10 11  2  0  0  0  0
 12  6  1  0  0  0  0
 14 19  1  0  0  0  0
 15 16  1  0  0  0  0
 15 14  1  0  0  0  0
 17 16  1  0  0  0  0
 17 18  1  0  0  0  0
 18 19  1  0  0  0  0
 20 17  1  0  0  0  0
 21 20  1  0  0  0  0
 21 22  2  0  0  0  0
 23 21  1  0  0  0  0
 24 23  1  0  0  0  0
 25 26  1  0  0  0  0
 26 27  1  0  0  0  0
 27 28  2  0  0  0  0
 29 28  1  0  0  0  0
 29 30  1  0  0  0  0
 31 29  2  0  0  0  0
 32 31  1  0  0  0  0
 32 26  2  0  0  0  0
M  END
>  <Pose>
1

>  <Score>
-5.790

$$$$
