/Users/jonathanwahrer/Desktop/Msc/3_Semester/Drug_Design_Praktikum/waehrer_HTS_screening/HTS_experiment/out/docking_results/vina_output/3sx0/2109_docked.pdbqt
 OpenBabel03192223063D

 21 24  0  0  1  0  0  0  0  0999 V2000
   22.5510   64.2560   -8.1010 N   0  0  0  0  0  0  0  0  0  0  0  0
   22.8230   63.7920   -9.4320 C   0  0  0  0  0  0  0  0  0  0  0  0
   23.7450   63.0090   -9.7710 O   0  0  0  0  0  0  0  0  0  0  0  0
   21.8450   64.3760  -10.3790 C   0  0  1  0  0  3  0  0  0  0  0  0
   21.2370   63.4160  -11.1800 O   0  0  0  0  0  0  0  0  0  0  0  0
   20.4900   62.6480  -10.4040 N   0  0  1  0  0  0  0  0  0  0  0  0
   20.1160   63.3170   -9.2370 C   0  0  1  0  0  3  0  0  0  0  0  0
   20.7010   64.7170   -9.4300 C   0  0  1  0  0  3  0  0  0  0  0  0
   21.4510   65.1560   -8.2300 C   0  0  0  0  0  0  0  0  0  0  0  0
   21.2200   66.1190   -7.4380 O   0  0  0  0  0  0  0  0  0  0  0  0
   18.7020   63.3380   -8.8380 C   0  0  0  0  0  2  0  0  0  0  0  0
   17.7340   62.5860   -9.6630 C   0  0  0  0  0  2  0  0  0  0  0  0
   18.4170   61.3510  -10.2110 C   0  0  0  0  0  2  0  0  0  0  0  0
   19.5550   61.8390  -11.0690 C   0  0  0  0  0  2  0  0  0  0  0  0
   23.2260   63.9050   -6.8920 C   0  0  0  0  0  0  0  0  0  0  0  0
   24.3240   63.0740   -6.8520 C   0  0  0  0  0  3  0  0  0  0  0  0
   24.9720   62.7400   -5.6750 C   0  0  0  0  0  3  0  0  0  0  0  0
   24.5260   63.2420   -4.4700 C   0  0  0  0  0  0  0  0  0  0  0  0
   25.3380   62.8260   -2.9710 Cl  0  0  0  0  0  0  0  0  0  0  0  0
   23.4270   64.0750   -4.4970 C   0  0  0  0  0  3  0  0  0  0  0  0
   22.7850   64.4060   -5.6750 C   0  0  0  0  0  3  0  0  0  0  0  0
  1 15  1  0  0  0  0
  2  1  1  0  0  0  0
  3  2  2  0  0  0  0
  4  5  1  6  0  0  0
  4  2  1  0  0  0  0
  4  8  1  0  0  0  0
  5  6  1  0  0  0  0
  6 14  1  6  0  0  0
  6  7  1  0  0  0  0
  7 11  1  6  0  0  0
  8  7  1  0  0  0  0
  8  9  1  1  0  0  0
  9  1  1  0  0  0  0
  9 10  2  0  0  0  0
 12 11  1  0  0  0  0
 13 12  1  0  0  0  0
 14 13  1  0  0  0  0
 15 16  2  0  0  0  0
 15 21  1  0  0  0  0
 16 17  1  0  0  0  0
 17 18  2  0  0  0  0
 18 19  1  0  0  0  0
 20 18  1  0  0  0  0
 21 20  2  0  0  0  0
M  END
>  <Pose>
1

>  <Score>
-8.033

$$$$
