/Users/jonathanwahrer/Desktop/Msc/3_Semester/Drug_Design_Praktikum/waehrer_HTS_screening/HTS_experiment/out/docking_results/vina_output/3sx0/2116_docked.pdbqt
 OpenBabel03192223063D

 33 36  0  0  0  0  0  0  0  0999 V2000
   23.0450   63.6510   -8.3580 C   0  0  0  0  0  0  0  0  0  0  0  0
   22.6660   64.8810   -8.0520 N   0  0  0  0  0  4  0  0  0  0  0  0
   22.9350   65.4880   -6.8830 C   0  0  0  0  0  0  0  0  0  0  0  0
   23.6390   64.7740   -5.9780 N   0  0  0  0  0  0  0  0  0  0  0  0
   24.0560   63.5050   -6.2340 C   0  0  0  0  0  0  0  0  0  0  0  0
   23.7480   62.9590   -7.4370 N   0  0  0  0  0  2  0  0  0  0  0  0
   22.6860   63.0790   -9.6100 N   0  0  0  0  0  0  0  0  0  0  0  0
   23.4230   62.7370  -10.2380 H   0  0  0  0  0  0  0  0  0  0  0  0
   21.3560   62.9850   -9.9850 N   0  0  0  0  0  0  0  0  0  0  0  0
   20.3860   62.7730   -9.1640 C   0  0  0  0  0  3  0  0  0  0  0  0
   19.0100   62.6790   -9.6050 C   0  0  0  0  0  0  0  0  0  0  0  0
   18.4840   61.4450   -9.9870 C   0  0  0  0  0  0  0  0  0  0  0  0
   17.1960   61.2940  -10.4330 C   0  0  0  0  0  3  0  0  0  0  0  0
   16.3400   62.3740  -10.5260 C   0  0  0  0  0  0  0  0  0  0  0  0
   16.8400   63.6110  -10.1500 C   0  0  0  0  0  0  0  0  0  0  0  0
   15.6860   65.1170  -10.2590 Br  0  0  0  0  0  0  0  0  0  0  0  0
   18.1420   63.7440   -9.7040 C   0  0  0  0  0  3  0  0  0  0  0  0
   19.3450   60.3460   -9.8930 O   0  0  0  0  0  0  0  0  0  0  0  0
   19.2560   59.7330   -9.0890 H   0  0  0  0  0  0  0  0  0  0  0  0
   15.0330   62.2090  -10.9800 O   0  0  0  0  0  0  0  0  0  0  0  0
   14.7410   62.3990  -11.9270 H   0  0  0  0  0  0  0  0  0  0  0  0
   22.4990   66.8270   -6.5940 N   0  0  0  0  0  0  0  0  0  0  0  0
   23.4100   67.8200   -6.1030 C   0  0  0  0  0  2  0  0  0  0  0  0
   22.9230   69.2170   -6.0810 C   0  0  0  0  0  2  0  0  0  0  0  0
   21.5460   69.3500   -6.1880 O   0  0  0  0  0  0  0  0  0  0  0  0
   21.0270   68.5960   -7.2320 C   0  0  0  0  0  2  0  0  0  0  0  0
   21.1190   67.1500   -6.8120 C   0  0  0  0  0  2  0  0  0  0  0  0
   24.7760   62.7660   -5.2740 N   0  0  0  0  0  0  0  0  0  0  0  0
   26.1000   62.2700   -5.5490 C   0  0  0  0  0  2  0  0  0  0  0  0
   26.9700   62.7710   -4.3870 C   0  0  0  0  0  2  0  0  0  0  0  0
   26.3830   62.3990   -3.1950 O   0  0  0  0  0  0  0  0  0  0  0  0
   25.2100   63.1210   -2.9810 C   0  0  0  0  0  2  0  0  0  0  0  0
   24.2010   62.5120   -3.9780 C   0  0  0  0  0  2  0  0  0  0  0  0
  1  2  2  0  0  0  0
  1  6  1  0  0  0  0
  2  3  2  0  0  0  0
  3 22  1  0  0  0  0
  3  4  1  0  0  0  0
  5  4  2  0  0  0  0
  5 28  1  0  0  0  0
  6  5  1  0  0  0  0
  7  1  1  0  0  0  0
  8  7  1  0  0  0  0
  9  7  1  0  0  0  0
  9 10  2  0  0  0  0
 11 10  1  0  0  0  0
 12 18  1  0  0  0  0
 12 11  2  0  0  0  0
 13 12  1  0  0  0  0
 14 13  2  0  0  0  0
 14 15  1  0  0  0  0
 15 17  2  0  0  0  0
 16 15  1  0  0  0  0
 17 11  1  0  0  0  0
 18 19  1  0  0  0  0
 20 14  1  0  0  0  0
 21 20  1  0  0  0  0
 22 23  1  0  0  0  0
 23 24  1  0  0  0  0
 25 24  1  0  0  0  0
 26 27  1  0  0  0  0
 26 25  1  0  0  0  0
 27 22  1  0  0  0  0
 28 33  1  0  0  0  0
 29 28  1  0  0  0  0
 29 30  1  0  0  0  0
 30 31  1  0  0  0  0
 31 32  1  0  0  0  0
 33 32  1  0  0  0  0
M  END
>  <Pose>
1

>  <Score>
-9.721

$$$$
