/Users/jonathanwahrer/Desktop/Msc/3_Semester/Drug_Design_Praktikum/waehrer_HTS_screening/HTS_experiment/out/docking_results/vina_output/3sx0/2121_docked.pdbqt
 OpenBabel03192223063D

 31 34  0  0  1  0  0  0  0  0999 V2000
   12.8130   63.7710  -12.5460 C   0  0  0  0  0  0  0  0  0  0  0  0
   12.4180   64.9710  -12.1000 O   0  0  0  0  0  0  0  0  0  0  0  0
   11.9790   63.2490  -13.5120 N   0  0  0  0  0  0  0  0  0  0  0  0
   10.8700   64.1890  -13.8380 C   0  0  0  0  0  2  0  0  0  0  0  0
   11.3130   65.1010  -14.9670 C   0  0  0  0  0  2  0  0  0  0  0  0
   12.4200   64.4290  -15.6860 C   0  0  1  0  0  3  0  0  0  0  0  0
   11.9860   63.1100  -16.2370 C   0  0  2  0  0  3  0  0  0  0  0  0
   12.8140   62.0470  -15.4930 C   0  0  0  0  0  2  0  0  0  0  0  0
   12.1460   61.9680  -14.1080 C   0  0  0  0  0  2  0  0  0  0  0  0
   14.0170   63.3050  -11.9140 C   0  0  0  0  0  0  0  0  0  0  0  0
   14.4240   62.0650  -11.6290 N   0  0  0  0  0  0  0  0  0  0  0  0
   15.6310   62.0850  -10.9870 C   0  0  0  0  0  0  0  0  0  0  0  0
   13.9600   61.1740  -11.8430 H   0  0  0  0  0  0  0  0  0  0  0  0
   15.9960   63.3810  -10.8660 C   0  0  0  0  0  0  0  0  0  0  0  0
   16.4440   61.1010  -10.4920 C   0  0  0  0  0  3  0  0  0  0  0  0
   17.1890   63.7690  -10.2460 C   0  0  0  0  0  3  0  0  0  0  0  0
   15.0080   64.1590  -11.4350 C   0  0  0  0  0  3  0  0  0  0  0  0
   17.9840   62.7810   -9.7610 C   0  0  0  0  0  0  0  0  0  0  0  0
   19.4960   63.2310   -8.9690 Cl  0  0  0  0  0  0  0  0  0  0  0  0
   17.6330   61.4500   -9.8720 C   0  0  0  0  0  3  0  0  0  0  0  0
   13.1290   65.1730  -16.6770 N   0  0  0  0  0  0  0  0  0  0  0  0
   14.1470   66.0550  -16.1640 C   0  0  0  0  0  2  0  0  0  0  0  0
   13.5740   67.1330  -15.3240 C   0  0  0  0  0  2  0  0  0  0  0  0
   12.5770   67.8210  -16.1510 N   0  0  0  0  0  0  0  0  0  0  0  0
   12.4340   67.3330  -17.4980 C   0  0  0  0  0  2  0  0  0  0  0  0
   11.8350   68.9150  -15.6110 C   0  0  0  0  0  0  0  0  0  0  0  0
   12.2730   65.8460  -17.6160 C   0  0  0  0  0  2  0  0  0  0  0  0
   10.9850   69.4810  -16.3130 O   0  0  0  0  0  0  0  0  0  0  0  0
   12.1160   69.3420  -14.2040 C   0  0  0  0  0  1  0  0  0  0  0  0
   12.1400   62.9930  -17.6160 O   0  0  0  0  0  0  0  0  0  0  0  0
   12.0540   63.9340  -17.9780 H   0  0  0  0  0  0  0  0  0  0  0  0
  1  2  2  0  0  0  0
  1 10  1  0  0  0  0
  3  1  1  0  0  0  0
  4  3  1  0  0  0  0
  5  4  1  0  0  0  0
  6 21  1  6  0  0  0
  6  5  1  0  0  0  0
  7 30  1  6  0  0  0
  7  6  1  0  0  0  0
  7  8  1  0  0  0  0
  8  9  1  0  0  0  0
  9  3  1  0  0  0  0
 10 11  1  0  0  0  0
 10 17  2  0  0  0  0
 11 12  1  0  0  0  0
 12 14  2  0  0  0  0
 12 15  1  0  0  0  0
 13 11  1  0  0  0  0
 14 16  1  0  0  0  0
 15 20  2  0  0  0  0
 16 18  2  0  0  0  0
 17 14  1  0  0  0  0
 18 19  1  0  0  0  0
 20 18  1  0  0  0  0
 21 22  1  0  0  0  0
 22 23  1  0  0  0  0
 24 26  1  0  0  0  0
 24 23  1  0  0  0  0
 25 24  1  0  0  0  0
 26 29  1  0  0  0  0
 27 25  1  0  0  0  0
 27 21  1  0  0  0  0
 28 26  2  0  0  0  0
 31 30  1  0  0  0  0
M  END
>  <Pose>
1

>  <Score>
-5.449

$$$$
