/Users/jonathanwahrer/Desktop/Msc/3_Semester/Drug_Design_Praktikum/waehrer_HTS_screening/HTS_experiment/out/docking_results/vina_output/3sx0/2124_docked.pdbqt
 OpenBabel03192223063D

 25 29  0  0  1  0  0  0  0  0999 V2000
   20.1670   63.4540   -9.7380 N   0  0  0  0  0  0  0  0  0  0  0  0
   20.6800   64.0240   -8.5430 C   0  0  0  0  0  0  0  0  0  0  0  0
   20.2030   63.8470   -7.3910 O   0  0  0  0  0  0  0  0  0  0  0  0
   21.8790   64.8760   -8.8400 C   0  0  1  0  0  3  0  0  0  0  0  0
   23.0690   64.4200   -8.0640 C   0  0  2  0  0  0  0  0  0  0  0  0
   24.0960   64.2860   -9.0310 O   0  0  0  0  0  0  0  0  0  0  0  0
   23.3710   63.4430   -9.9120 C   0  0  2  0  0  0  0  0  0  0  0  0
   22.2430   64.4100  -10.2570 C   0  0  1  0  0  3  0  0  0  0  0  0
   21.0580   63.7630  -10.8020 C   0  0  0  0  0  0  0  0  0  0  0  0
   20.8780   63.5270  -12.0250 O   0  0  0  0  0  0  0  0  0  0  0  0
   22.9330   62.3850   -8.9720 C   0  0  0  0  0  2  0  0  0  0  0  0
   22.8580   62.9690   -7.7580 C   0  0  0  0  0  2  0  0  0  0  0  0
   24.1450   62.9710  -11.0710 C   0  0  0  0  0  1  0  0  0  0  0  0
   18.9770   62.6890   -9.9470 C   0  0  0  0  0  0  0  0  0  0  0  0
   18.9260   61.3230   -9.8120 C   0  0  0  0  0  3  0  0  0  0  0  0
   17.7690   60.5930  -10.0190 C   0  0  0  0  0  3  0  0  0  0  0  0
   16.6070   61.2330  -10.3760 C   0  0  0  0  0  0  0  0  0  0  0  0
   15.1080   60.3410  -10.6550 Cl  0  0  0  0  0  0  0  0  0  0  0  0
   16.6430   62.6020  -10.5160 C   0  0  0  0  0  3  0  0  0  0  0  0
   17.8090   63.3360  -10.3070 C   0  0  0  0  0  3  0  0  0  0  0  0
   23.4660   65.2320   -6.9070 C   0  0  0  0  0  3  0  0  0  0  0  0
   22.3220   65.5370   -6.1660 O   0  0  0  0  0  0  0  0  0  0  0  0
   22.1110   64.5240   -5.2650 C   0  0  0  0  0  2  0  0  0  0  0  0
   23.4990   63.9820   -5.0440 C   0  0  0  0  0  2  0  0  0  0  0  0
   24.2810   64.4770   -6.0630 O   0  0  0  0  0  0  0  0  0  0  0  0
  1  2  1  0  0  0  0
  2  3  2  0  0  0  0
  4  2  1  1  0  0  0
  4  5  1  0  0  0  0
  5 12  1  0  0  0  0
  5 21  1  1  0  0  0
  6  5  1  0  0  0  0
  7 13  1  6  0  0  0
  7  6  1  0  0  0  0
  7 11  1  0  0  0  0
  8  9  1  1  0  0  0
  8  7  1  0  0  0  0
  8  4  1  0  0  0  0
  9  1  1  0  0  0  0
 10  9  2  0  0  0  0
 11 12  1  0  0  0  0
 14 15  1  0  0  0  0
 14  1  1  0  0  0  0
 16 15  2  0  0  0  0
 17 16  1  0  0  0  0
 18 17  1  0  0  0  0
 19 17  2  0  0  0  0
 19 20  1  0  0  0  0
 20 14  2  0  0  0  0
 21 22  1  0  0  0  0
 21 25  1  0  0  0  0
 22 23  1  0  0  0  0
 23 24  1  0  0  0  0
 25 24  1  0  0  0  0
M  END
>  <Pose>
1

>  <Score>
-7.264

$$$$
