/Users/jonathanwahrer/Desktop/Msc/3_Semester/Drug_Design_Praktikum/waehrer_HTS_screening/HTS_experiment/out/docking_results/vina_output/3sx0/2136_docked.pdbqt
 OpenBabel03192223073D

 33 37  0  0  1  0  0  0  0  0999 V2000
   16.0470   64.5430  -10.5070 Cl  0  0  0  0  0  0  0  0  0  0  0  0
   17.2910   63.3300  -10.2890 C   0  0  0  0  0  0  0  0  0  0  0  0
   18.6210   63.6510  -10.1090 C   0  0  0  0  0  0  0  0  0  0  0  0
   19.5840   62.6630   -9.9390 C   0  0  0  0  0  0  0  0  0  0  0  0
   19.1450   61.3680   -9.9590 C   0  0  0  0  0  3  0  0  0  0  0  0
   17.8250   61.0290  -10.1360 C   0  0  0  0  0  3  0  0  0  0  0  0
   16.8840   62.0000  -10.3020 C   0  0  0  0  0  3  0  0  0  0  0  0
   20.8860   63.3200   -9.7730 C   0  0  2  0  0  0  0  0  0  0  0  0
   21.8490   62.9080  -10.7790 N   0  0  0  0  0  0  0  0  0  0  0  0
   23.1110   63.3710  -10.1980 C   0  0  1  0  0  3  0  0  0  0  0  0
   22.9990   63.1900   -8.7320 C   0  0  2  0  0  3  0  0  0  0  0  0
   21.5550   62.8820   -8.4970 C   0  0  1  0  0  3  0  0  0  0  0  0
   21.1020   63.6330   -7.3230 C   0  0  0  0  0  0  0  0  0  0  0  0
   20.0300   63.3990   -6.7110 O   0  0  0  0  0  0  0  0  0  0  0  0
   22.0940   64.6180   -7.0580 N   0  0  0  0  0  0  0  0  0  0  0  0
   23.1600   64.4960   -7.9910 C   0  0  0  0  0  0  0  0  0  0  0  0
   24.1090   65.2960   -8.2160 O   0  0  0  0  0  0  0  0  0  0  0  0
   20.6410   64.7680   -9.8600 C   0  0  0  0  0  0  0  0  0  0  0  0
   21.4540   65.7000   -9.7780 O   0  0  0  0  0  0  0  0  0  0  0  0
   19.2440   64.9260  -10.0640 N   0  0  0  0  0  0  0  0  0  0  0  0
   21.6690   63.3730  -11.7100 H   0  0  0  0  0  0  0  0  0  0  0  0
   18.7220   65.8370  -10.1690 H   0  0  0  0  0  0  0  0  0  0  0  0
   24.2770   62.6120  -10.7570 C   0  0  0  0  0  2  0  0  0  0  0  0
   24.7200   63.0600  -12.0870 C   0  0  0  0  0  0  0  0  0  0  0  0
   26.0910   63.1190  -12.3260 C   0  0  0  0  0  3  0  0  0  0  0  0
   26.5350   63.5120  -13.5620 C   0  0  0  0  0  3  0  0  0  0  0  0
   25.6840   63.8540  -14.5860 C   0  0  0  0  0  3  0  0  0  0  0  0
   24.3360   63.7840  -14.3110 C   0  0  0  0  0  3  0  0  0  0  0  0
   23.8360   63.3940  -13.0860 C   0  0  0  0  0  3  0  0  0  0  0  0
   22.0150   65.6030   -5.9830 C   0  0  0  0  0  2  0  0  0  0  0  0
   22.1970   66.9820   -6.5990 C   0  0  0  0  0  2  0  0  0  0  0  0
   23.3410   67.5950   -6.1120 O   0  0  0  0  0  0  0  0  0  0  0  0
   23.2780   68.9520   -6.3620 C   0  0  0  0  0  1  0  0  0  0  0  0
  1  2  1  0  0  0  0
  2  3  1  0  0  0  0
  3 20  1  0  0  0  0
  3  4  2  0  0  0  0
  5  4  1  0  0  0  0
  6  5  2  0  0  0  0
  7  2  2  0  0  0  0
  7  6  1  0  0  0  0
  8  4  1  6  0  0  0
  8 12  1  0  0  0  0
  9 10  1  0  0  0  0
  9  8  1  0  0  0  0
 10 23  1  6  0  0  0
 10 11  1  0  0  0  0
 11 12  1  0  0  0  0
 11 16  1  1  0  0  0
 12 13  1  1  0  0  0
 13 15  1  0  0  0  0
 13 14  2  0  0  0  0
 15 30  1  0  0  0  0
 16 15  1  0  0  0  0
 17 16  2  0  0  0  0
 18 19  2  0  0  0  0
 18  8  1  0  0  0  0
 20 18  1  0  0  0  0
 21  9  1  0  0  0  0
 22 20  1  0  0  0  0
 24 23  1  0  0  0  0
 25 24  1  0  0  0  0
 26 25  2  0  0  0  0
 27 28  2  0  0  0  0
 27 26  1  0  0  0  0
 28 29  1  0  0  0  0
 29 24  2  0  0  0  0
 31 32  1  0  0  0  0
 31 30  1  0  0  0  0
 33 32  1  0  0  0  0
M  END
>  <Pose>
1

>  <Score>
-8.373

$$$$
