/Users/jonathanwahrer/Desktop/Msc/3_Semester/Drug_Design_Praktikum/waehrer_HTS_screening/HTS_experiment/out/docking_results/vina_output/3sx0/2139_docked.pdbqt
 OpenBabel03192223073D

 27 30  0  0  0  0  0  0  0  0999 V2000
   21.9560   64.1260   -8.8490 N   0  0  0  0  0  0  0  0  0  0  0  0
   21.5930   65.2970   -8.1560 C   0  0  0  0  0  2  0  0  0  0  0  0
   22.0870   65.4170   -6.7390 C   0  0  0  0  0  2  0  0  0  0  0  0
   23.2700   64.5220   -6.6420 N   0  0  0  0  0  0  0  0  0  0  0  0
   24.0920   64.5360   -7.7930 C   0  0  0  0  0  2  0  0  0  0  0  0
   23.3530   63.7980   -8.8880 C   0  0  0  0  0  2  0  0  0  0  0  0
   23.4310   63.8190   -5.4300 C   0  0  0  0  0  0  0  0  0  0  0  0
   22.3510   63.6540   -4.6070 N   0  0  0  0  0  0  0  0  0  0  0  0
   22.3750   63.0470   -3.4280 C   0  0  0  0  0  0  0  0  0  0  0  0
   23.5420   62.5460   -2.9900 N   0  0  0  0  0  0  0  0  0  0  0  0
   24.6450   62.6770   -3.7610 C   0  0  0  0  0  0  0  0  0  0  0  0
   25.9190   62.2750   -3.5920 N   0  0  0  0  0  0  0  0  0  0  0  0
   24.6260   63.3160   -5.0020 C   0  0  0  0  0  0  0  0  0  0  0  0
   26.6380   62.6380   -4.6550 C   0  0  0  0  0  3  0  0  0  0  0  0
   25.8560   63.2820   -5.5390 N   0  0  0  0  0  0  0  0  0  0  0  0
   26.1910   63.6530   -6.4540 H   0  0  0  0  0  0  0  0  0  0  0  0
   21.1950   62.9070   -2.6090 N   0  0  0  0  0  0  0  0  0  0  0  0
   20.6970   62.0110   -2.5160 H   0  0  0  0  0  0  0  0  0  0  0  0
   20.8270   63.7310   -2.0920 H   0  0  0  0  0  0  0  0  0  0  0  0
   21.0600   63.0350   -8.8230 C   0  0  0  0  0  2  0  0  0  0  0  0
   19.7860   63.2230   -9.5130 C   0  0  0  0  0  0  0  0  0  0  0  0
   19.7520   63.6140  -10.8280 C   0  0  0  0  0  3  0  0  0  0  0  0
   18.5750   63.8110  -11.5420 C   0  0  0  0  0  3  0  0  0  0  0  0
   17.3900   63.5950  -10.8720 C   0  0  0  0  0  0  0  0  0  0  0  0
   15.8660   63.8240  -11.7050 Cl  0  0  0  0  0  0  0  0  0  0  0  0
   17.4210   63.2050   -9.5520 C   0  0  0  0  0  3  0  0  0  0  0  0
   18.5950   63.0150   -8.8640 C   0  0  0  0  0  3  0  0  0  0  0  0
  1 20  1  0  0  0  0
  1  2  1  0  0  0  0
  2  3  1  0  0  0  0
  3  4  1  0  0  0  0
  4  7  1  0  0  0  0
  5  4  1  0  0  0  0
  6  1  1  0  0  0  0
  6  5  1  0  0  0  0
  7 13  2  0  0  0  0
  7  8  1  0  0  0  0
  8  9  2  0  0  0  0
  9 10  1  0  0  0  0
  9 17  1  0  0  0  0
 11 12  1  0  0  0  0
 11 10  2  0  0  0  0
 13 11  1  0  0  0  0
 14 12  2  0  0  0  0
 15 13  1  0  0  0  0
 15 14  1  0  0  0  0
 16 15  1  0  0  0  0
 17 18  1  0  0  0  0
 17 19  1  0  0  0  0
 21 27  1  0  0  0  0
 21 20  1  0  0  0  0
 22 21  2  0  0  0  0
 23 24  2  0  0  0  0
 23 22  1  0  0  0  0
 24 26  1  0  0  0  0
 25 24  1  0  0  0  0
 26 27  2  0  0  0  0
M  END
>  <Pose>
1

>  <Score>
-7.193

$$$$
