/Users/jonathanwahrer/Desktop/Msc/3_Semester/Drug_Design_Praktikum/waehrer_HTS_screening/HTS_experiment/out/docking_results/vina_output/3sx0/2163_docked.pdbqt
 OpenBabel03192223083D

 31 34  0  0  0  0  0  0  0  0999 V2000
   22.3050   63.8710   -7.9070 C   0  0  0  0  0  0  0  0  0  0  0  0
   22.1750   65.2140   -7.8510 N   0  0  0  0  0  4  0  0  0  0  0  0
   22.7220   65.9310   -6.8620 C   0  0  0  0  0  0  0  0  0  0  0  0
   23.4130   65.2850   -5.9100 N   0  0  0  0  0  0  0  0  0  0  0  0
   23.5830   63.9360   -5.9040 C   0  0  0  0  0  0  0  0  0  0  0  0
   23.0000   63.2720   -6.9400 N   0  0  0  0  0  2  0  0  0  0  0  0
   21.7370   63.0780   -8.9430 N   0  0  0  0  0  0  0  0  0  0  0  0
   22.3220   62.3760   -9.4720 H   0  0  0  0  0  0  0  0  0  0  0  0
   20.3970   63.1760   -9.3200 N   0  0  0  0  0  0  0  0  0  0  0  0
   19.6440   62.1680   -9.5490 C   0  0  0  0  0  3  0  0  0  0  0  0
   18.2440   62.2880   -9.9420 C   0  0  0  0  0  0  0  0  0  0  0  0
   17.6600   63.5130  -10.1550 C   0  0  0  0  0  3  0  0  0  0  0  0
   16.3370   63.6150  -10.5250 C   0  0  0  0  0  0  0  0  0  0  0  0
   15.5270   65.3150  -10.8180 Br  0  0  0  0  0  0  0  0  0  0  0  0
   15.5430   62.4890  -10.6990 C   0  0  0  0  0  3  0  0  0  0  0  0
   16.1260   61.2510  -10.4870 C   0  0  0  0  0  3  0  0  0  0  0  0
   17.4690   61.1620  -10.1110 C   0  0  0  0  0  0  0  0  0  0  0  0
   18.0850   59.9360   -9.8900 O   0  0  0  0  0  0  0  0  0  0  0  0
   17.4360   58.8230   -9.3200 C   0  0  0  0  0  1  0  0  0  0  0  0
   22.5850   67.3440   -6.8030 N   0  0  0  0  0  0  0  0  0  0  0  0
   23.7030   68.2210   -6.5330 C   0  0  0  0  0  2  0  0  0  0  0  0
   23.3130   69.3330   -5.5720 C   0  0  0  0  0  2  0  0  0  0  0  0
   22.0810   69.8880   -5.9380 O   0  0  0  0  0  0  0  0  0  0  0  0
   21.0710   68.9560   -5.8960 C   0  0  0  0  0  2  0  0  0  0  0  0
   21.2950   67.9620   -7.0140 C   0  0  0  0  0  2  0  0  0  0  0  0
   24.3090   63.2650   -4.9030 N   0  0  0  0  0  0  0  0  0  0  0  0
   23.8990   63.3050   -3.5310 C   0  0  0  0  0  2  0  0  0  0  0  0
   25.1070   63.7650   -2.7180 C   0  0  0  0  0  2  0  0  0  0  0  0
   26.1410   62.8880   -2.9970 O   0  0  0  0  0  0  0  0  0  0  0  0
   26.5900   62.9810   -4.2930 C   0  0  0  0  0  2  0  0  0  0  0  0
   25.4860   62.5230   -5.2470 C   0  0  0  0  0  2  0  0  0  0  0  0
  1  2  2  0  0  0  0
  1  6  1  0  0  0  0
  2  3  2  0  0  0  0
  3 20  1  0  0  0  0
  3  4  1  0  0  0  0
  4  5  2  0  0  0  0
  5 26  1  0  0  0  0
  6  5  1  0  0  0  0
  7  1  1  0  0  0  0
  8  7  1  0  0  0  0
  9  7  1  0  0  0  0
 10  9  2  0  0  0  0
 11 10  1  0  0  0  0
 12 11  2  0  0  0  0
 13 12  1  0  0  0  0
 14 13  1  0  0  0  0
 15 13  2  0  0  0  0
 15 16  1  0  0  0  0
 16 17  2  0  0  0  0
 17 11  1  0  0  0  0
 17 18  1  0  0  0  0
 18 19  1  0  0  0  0
 20 21  1  0  0  0  0
 21 22  1  0  0  0  0
 23 24  1  0  0  0  0
 23 22  1  0  0  0  0
 25 20  1  0  0  0  0
 25 24  1  0  0  0  0
 26 27  1  0  0  0  0
 27 28  1  0  0  0  0
 29 28  1  0  0  0  0
 30 29  1  0  0  0  0
 31 26  1  0  0  0  0
 31 30  1  0  0  0  0
M  END
>  <Pose>
1

>  <Score>
-8.296

$$$$
