/Users/jonathanwahrer/Desktop/Msc/3_Semester/Drug_Design_Praktikum/waehrer_HTS_screening/HTS_experiment/out/docking_results/vina_output/3sx0/2170_docked.pdbqt
 OpenBabel03192223083D

 32 36  0  0  0  0  0  0  0  0999 V2000
   10.6330   64.6900  -15.6860 N   0  0  0  0  0  0  0  0  0  0  0  0
   10.7560   65.9850  -15.4860 N   0  0  0  0  0  0  0  0  0  0  0  0
    9.7250   66.4810  -14.7870 C   0  0  0  0  0  0  0  0  0  0  0  0
    9.8680   67.8020  -14.5960 N   0  0  0  0  0  0  0  0  0  0  0  0
   11.0180   68.2060  -15.1790 C   0  0  0  0  0  0  0  0  0  0  0  0
   11.5670   67.0470  -15.7370 C   0  0  0  0  0  0  0  0  0  0  0  0
   12.7620   67.2270  -16.4020 C   0  0  0  0  0  0  0  0  0  0  0  0
   13.2970   66.2050  -16.9280 O   0  0  0  0  0  0  0  0  0  0  0  0
   13.3850   68.4300  -16.5200 N   0  0  0  0  0  0  0  0  0  0  0  0
   12.7940   69.4930  -15.9540 C   0  0  0  0  0  0  0  0  0  0  0  0
   13.3940   70.6110  -16.0770 O   0  0  0  0  0  0  0  0  0  0  0  0
   11.6310   69.3950  -15.2940 N   0  0  0  0  0  0  0  0  0  0  0  0
   11.0490   70.5740  -14.7120 C   0  0  0  0  0  1  0  0  0  0  0  0
   14.6380   68.5330  -17.2330 C   0  0  0  0  0  1  0  0  0  0  0  0
    8.9170   65.4170  -14.5450 N   0  0  0  0  0  0  0  0  0  0  0  0
    9.4590   64.3190  -15.0890 C   0  0  0  0  0  0  0  0  0  0  0  0
   11.4980   63.7660  -16.3830 C   0  0  0  0  0  2  0  0  0  0  0  0
   12.0760   62.7270  -15.5130 C   0  0  0  0  0  0  0  0  0  0  0  0
   12.0050   61.5060  -15.7800 O   0  0  0  0  0  0  0  0  0  0  0  0
   12.7550   63.1520  -14.2960 C   0  0  0  0  0  0  0  0  0  0  0  0
   13.2710   64.4220  -14.1450 C   0  0  0  0  0  3  0  0  0  0  0  0
   13.9120   64.8220  -12.9890 C   0  0  0  0  0  3  0  0  0  0  0  0
   14.0620   63.9430  -11.9250 C   0  0  0  0  0  0  0  0  0  0  0  0
   14.8730   64.4260  -10.4440 Cl  0  0  0  0  0  0  0  0  0  0  0  0
   13.5540   62.6680  -12.0570 C   0  0  0  0  0  3  0  0  0  0  0  0
   12.9140   62.2780  -13.2150 C   0  0  0  0  0  3  0  0  0  0  0  0
    8.9530   62.9870  -15.0790 N   0  0  0  0  0  0  0  0  0  0  0  0
    8.9160   62.1910  -13.8640 C   0  0  0  0  0  2  0  0  0  0  0  0
    9.2810   60.7740  -14.2320 C   0  0  0  0  0  2  0  0  0  0  0  0
    8.4230   60.3040  -15.2400 O   0  0  0  0  0  0  0  0  0  0  0  0
    8.6460   60.9430  -16.4400 C   0  0  0  0  0  2  0  0  0  0  0  0
    8.4590   62.4120  -16.3020 C   0  0  0  0  0  2  0  0  0  0  0  0
  1  2  1  0  0  0  0
  1 16  1  0  0  0  0
  2  3  1  0  0  0  0
  3  4  2  0  0  0  0
  3 15  1  0  0  0  0
  5  4  1  0  0  0  0
  6  2  1  0  0  0  0
  6  5  2  0  0  0  0
  7  6  1  0  0  0  0
  8  7  2  0  0  0  0
  9  7  1  0  0  0  0
  9 10  1  0  0  0  0
 10 12  1  0  0  0  0
 11 10  2  0  0  0  0
 12  5  1  0  0  0  0
 12 13  1  0  0  0  0
 14  9  1  0  0  0  0
 16 27  1  0  0  0  0
 16 15  2  0  0  0  0
 17  1  1  0  0  0  0
 17 18  1  0  0  0  0
 18 20  1  0  0  0  0
 19 18  2  0  0  0  0
 20 21  2  0  0  0  0
 20 26  1  0  0  0  0
 21 22  1  0  0  0  0
 22 23  2  0  0  0  0
 23 24  1  0  0  0  0
 25 23  1  0  0  0  0
 26 25  2  0  0  0  0
 27 28  1  0  0  0  0
 29 28  1  0  0  0  0
 30 29  1  0  0  0  0
 31 32  1  0  0  0  0
 31 30  1  0  0  0  0
 32 27  1  0  0  0  0
M  END
>  <Pose>
1

>  <Score>
-5.091

$$$$
