/Users/jonathanwahrer/Desktop/Msc/3_Semester/Drug_Design_Praktikum/waehrer_HTS_screening/HTS_experiment/out/docking_results/vina_output/3sx0/2197_docked.pdbqt
 OpenBabel03192223093D

 28 31  0  0  1  0  0  0  0  0999 V2000
   19.2980   61.9930  -10.9520 N   0  0  0  0  0  0  0  0  0  0  0  0
   20.3840   62.1390   -9.9610 C   0  0  0  0  0  2  0  0  0  0  0  0
   21.1160   63.3870  -10.2910 C   0  0  2  0  0  3  0  0  0  0  0  0
   21.4780   63.6100  -11.5680 O   0  0  0  0  0  0  0  0  0  0  0  0
   20.9100   62.9150  -12.5640 C   0  0  0  0  0  2  0  0  0  0  0  0
   19.9640   61.8260  -12.1910 C   0  0  0  0  0  2  0  0  0  0  0  0
   22.3320   63.4220   -9.4270 C   0  0  0  0  0  0  0  0  0  0  0  0
   23.3820   62.9030   -9.8920 O   0  0  0  0  0  0  0  0  0  0  0  0
   22.3880   63.9880   -8.1400 N   0  0  0  0  0  0  0  0  0  0  0  0
   21.2620   64.6180   -7.4760 C   0  0  0  0  0  2  0  0  0  0  0  0
   23.6280   63.9840   -7.3500 C   0  0  0  0  0  2  0  0  0  0  0  0
   21.7140   64.9810   -6.0750 C   0  0  0  0  0  2  0  0  0  0  0  0
   22.8240   65.9160   -6.0690 N   0  0  0  0  0  0  0  0  0  0  0  0
   23.8420   65.4520   -6.9570 C   0  0  0  0  0  2  0  0  0  0  0  0
   22.3140   67.2180   -6.3530 C   0  0  0  0  0  2  0  0  0  0  0  0
   23.3140   68.3230   -6.1460 C   0  0  0  0  0  3  0  0  0  0  0  0
   22.6680   69.6540   -5.7660 C   0  0  0  0  0  2  0  0  0  0  0  0
   23.4200   69.4720   -7.0480 C   0  0  0  0  0  2  0  0  0  0  0  0
   18.1450   63.2090  -10.7900 S   0  0  0  0  0  0  0  0  0  0  0  0
   18.3390   63.8410   -9.4050 O   0  0  0  0  0  0  0  0  0  0  0  0
   18.3440   64.3600  -11.7460 O   0  0  0  0  0  0  0  0  0  0  0  0
   16.5090   62.6340  -10.8140 C   0  0  0  0  0  0  0  0  0  0  0  0
   15.4340   63.4960  -10.8160 C   0  0  0  0  0  0  0  0  0  0  0  0
   14.1280   63.0470  -10.7760 C   0  0  0  0  0  3  0  0  0  0  0  0
   15.6810   65.2470  -10.9560 Cl  0  0  0  0  0  0  0  0  0  0  0  0
   13.8780   61.6980  -10.7370 C   0  0  0  0  0  3  0  0  0  0  0  0
   14.9470   60.8150  -10.7380 C   0  0  0  0  0  3  0  0  0  0  0  0
   16.2370   61.2650  -10.7750 C   0  0  0  0  0  3  0  0  0  0  0  0
  1 19  1  0  0  0  0
  1  2  1  0  0  0  0
  3  2  1  0  0  0  0
  3  7  1  1  0  0  0
  4  3  1  0  0  0  0
  5  6  1  0  0  0  0
  5  4  1  0  0  0  0
  6  1  1  0  0  0  0
  7  9  1  0  0  0  0
  8  7  2  0  0  0  0
  9 10  1  0  0  0  0
  9 11  1  0  0  0  0
 10 12  1  0  0  0  0
 11 14  1  0  0  0  0
 12 13  1  0  0  0  0
 14 13  1  0  0  0  0
 15 16  1  0  0  0  0
 15 13  1  0  0  0  0
 16 17  1  0  0  0  0
 18 16  1  0  0  0  0
 18 17  1  0  0  0  0
 19 20  2  0  0  0  0
 21 19  2  0  0  0  0
 22 19  1  0  0  0  0
 22 28  1  0  0  0  0
 23 22  2  0  0  0  0
 23 24  1  0  0  0  0
 24 26  2  0  0  0  0
 25 23  1  0  0  0  0
 27 26  1  0  0  0  0
 28 27  2  0  0  0  0
M  END
>  <Pose>
1

>  <Score>
-7.776

$$$$
