/Users/jonathanwahrer/Desktop/Msc/3_Semester/Drug_Design_Praktikum/waehrer_HTS_screening/HTS_experiment/out/docking_results/vina_output/3sx0/2213_docked.pdbqt
 OpenBabel03192223103D

 31 34  0  0  1  0  0  0  0  0999 V2000
   14.0660   60.8480  -11.8410 Cl  0  0  0  0  0  0  0  0  0  0  0  0
   13.9970   62.5900  -11.9910 C   0  0  0  0  0  0  0  0  0  0  0  0
   13.0590   63.1410  -12.8760 C   0  0  1  0  0  3  0  0  0  0  0  0
   12.9810   64.5020  -13.0160 C   0  0  0  0  0  0  0  0  0  0  0  0
   13.8600   65.2750  -12.2500 C   0  0  0  0  0  3  0  0  0  0  0  0
   14.7770   64.7220  -11.3840 C   0  0  0  0  0  0  0  0  0  0  0  0
   14.8600   63.3500  -11.2390 C   0  0  0  0  0  3  0  0  0  0  0  0
   15.8730   65.7160  -10.4310 Cl  0  0  0  0  0  0  0  0  0  0  0  0
   12.0290   65.1650  -13.9200 C   0  0  0  0  0  0  0  0  0  0  0  0
   11.1970   64.1780  -14.6300 C   0  0  0  0  0  0  0  0  0  0  0  0
   11.2910   62.8310  -14.4770 C   0  0  0  0  0  0  0  0  0  0  0  0
   10.4940   61.9580  -15.1610 N   0  0  0  0  0  0  0  0  0  0  0  0
    9.6010   62.4720  -16.0030 C   0  0  0  0  0  0  0  0  0  0  0  0
    8.8370   61.6990  -16.6630 O   0  0  0  0  0  0  0  0  0  0  0  0
    9.4740   63.8020  -16.1860 N   0  0  0  0  0  0  0  0  0  0  0  0
   10.2490   64.6660  -15.5210 C   0  0  0  0  0  0  0  0  0  0  0  0
   10.1300   65.9060  -15.6900 O   0  0  0  0  0  0  0  0  0  0  0  0
    8.4760   64.3010  -17.1210 C   0  0  0  0  0  1  0  0  0  0  0  0
   10.6210   60.5290  -14.9740 C   0  0  0  0  0  1  0  0  0  0  0  0
   12.2160   62.3230  -13.6060 O   0  0  0  0  0  0  0  0  0  0  0  0
   12.7320   66.0820  -14.8770 C   0  0  0  0  0  3  0  0  0  0  0  0
   12.4980   67.4360  -14.8920 C   0  0  0  0  0  0  0  0  0  0  0  0
   13.1030   68.2800  -15.7420 N   0  0  0  0  0  0  0  0  0  0  0  0
   11.5970   67.9590  -13.9870 O   0  0  0  0  0  0  0  0  0  0  0  0
   13.9820   67.7680  -16.6250 C   0  0  0  0  0  0  0  0  0  0  0  0
   12.8390   69.7060  -15.7300 C   0  0  0  0  0  1  0  0  0  0  0  0
   14.5460   68.5730  -17.4240 O   0  0  0  0  0  0  0  0  0  0  0  0
   14.2410   66.4490  -16.6470 N   0  0  0  0  0  0  0  0  0  0  0  0
   13.6480   65.5900  -15.8050 C   0  0  0  0  0  0  0  0  0  0  0  0
   15.1900   65.9490  -17.6140 C   0  0  0  0  0  1  0  0  0  0  0  0
   13.8690   64.3560  -15.8020 O   0  0  0  0  0  0  0  0  0  0  0  0
  2  1  1  0  0  0  0
  2  7  2  0  0  0  0
  3 20  1  6  0  0  0
  3  2  1  0  0  0  0
  4  3  1  0  0  0  0
  4  5  1  0  0  0  0
  5  6  2  0  0  0  0
  6  7  1  0  0  0  0
  6  8  1  0  0  0  0
  9  4  2  0  0  0  0
 10 11  2  0  0  0  0
 10  9  1  0  0  0  0
 11 20  1  0  0  0  0
 12 19  1  0  0  0  0
 12 11  1  0  0  0  0
 13 12  1  0  0  0  0
 14 13  2  0  0  0  0
 15 13  1  0  0  0  0
 15 16  1  0  0  0  0
 16 10  1  0  0  0  0
 17 16  2  0  0  0  0
 18 15  1  0  0  0  0
 21  9  1  0  0  0  0
 22 21  1  0  0  0  0
 22 24  2  0  0  0  0
 23 26  1  0  0  0  0
 23 22  1  0  0  0  0
 25 23  1  0  0  0  0
 27 25  2  0  0  0  0
 28 25  1  0  0  0  0
 28 29  1  0  0  0  0
 29 31  2  0  0  0  0
 29 21  1  0  0  0  0
 30 28  1  0  0  0  0
M  END
>  <Pose>
1

>  <Score>
-3.774

$$$$
