/Users/jonathanwahrer/Desktop/Msc/3_Semester/Drug_Design_Praktikum/waehrer_HTS_screening/HTS_experiment/out/docking_results/vina_output/3sx0/2231_docked.pdbqt
 OpenBabel03192223103D

 27 31  0  0  0  0  0  0  0  0999 V2000
   17.6180   63.0140   -9.9220 N   0  0  0  0  0  0  0  0  0  0  0  0
   17.7790   63.0010   -8.6100 N   0  0  0  0  0  0  0  0  0  0  0  0
   19.0440   63.1560   -8.2710 N   0  0  0  0  0  0  0  0  0  0  0  0
   19.7860   63.2830   -9.3840 C   0  0  0  0  0  0  0  0  0  0  0  0
   18.8710   63.1900  -10.4130 C   0  0  0  0  0  0  0  0  0  0  0  0
   19.3370   63.2830  -11.6790 N   0  0  0  0  0  0  0  0  0  0  0  0
   20.6550   63.4610  -11.8860 C   0  0  0  0  0  3  0  0  0  0  0  0
   21.5490   63.5510  -10.8710 N   0  0  0  0  0  0  0  0  0  0  0  0
   21.1390   63.4640   -9.5930 C   0  0  0  0  0  0  0  0  0  0  0  0
   22.0660   63.5570   -8.5110 N   0  0  0  0  0  0  0  0  0  0  0  0
   23.2680   62.7520   -8.6180 C   0  0  0  0  0  2  0  0  0  0  0  0
   24.3980   63.3470   -7.7810 C   0  0  0  0  0  2  0  0  0  0  0  0
   23.9080   63.9180   -6.5790 N   0  0  0  0  0  0  0  0  0  0  0  0
   22.9780   65.0650   -6.8150 C   0  0  0  0  0  2  0  0  0  0  0  0
   24.2020   63.5110   -5.2890 C   0  0  0  0  0  0  0  0  0  0  0  0
   21.7440   64.4250   -7.4220 C   0  0  0  0  0  2  0  0  0  0  0  0
   23.6070   64.2240   -4.3480 O   0  0  0  0  0  0  0  0  0  0  0  0
   25.0380   62.4480   -4.7520 C   0  0  0  0  0  3  0  0  0  0  0  0
   26.5090   62.6210   -4.7700 C   0  0  0  0  0  2  0  0  0  0  0  0
   25.7490   62.4310   -3.4780 C   0  0  0  0  0  2  0  0  0  0  0  0
   16.4050   62.8750  -10.6460 C   0  0  0  0  0  0  0  0  0  0  0  0
   15.7150   61.6930  -10.7840 C   0  0  0  0  0  3  0  0  0  0  0  0
   14.5420   61.6180  -11.5010 C   0  0  0  0  0  3  0  0  0  0  0  0
   14.0290   62.7410  -12.1000 C   0  0  0  0  0  0  0  0  0  0  0  0
   12.5480   62.6400  -13.0020 Cl  0  0  0  0  0  0  0  0  0  0  0  0
   14.6890   63.9290  -11.9810 C   0  0  0  0  0  3  0  0  0  0  0  0
   15.8660   63.9850  -11.2580 C   0  0  0  0  0  3  0  0  0  0  0  0
  1  2  1  0  0  0  0
  2  3  2  0  0  0  0
  4  3  1  0  0  0  0
  5  1  1  0  0  0  0
  5  4  2  0  0  0  0
  6  5  1  0  0  0  0
  7  6  2  0  0  0  0
  7  8  1  0  0  0  0
  8  9  2  0  0  0  0
  9  4  1  0  0  0  0
  9 10  1  0  0  0  0
 10 16  1  0  0  0  0
 11 10  1  0  0  0  0
 11 12  1  0  0  0  0
 12 13  1  0  0  0  0
 13 15  1  0  0  0  0
 14 13  1  0  0  0  0
 15 18  1  0  0  0  0
 15 17  2  0  0  0  0
 16 14  1  0  0  0  0
 18 20  1  0  0  0  0
 19 18  1  0  0  0  0
 19 20  1  0  0  0  0
 21  1  1  0  0  0  0
 22 21  1  0  0  0  0
 23 22  2  0  0  0  0
 24 26  2  0  0  0  0
 24 23  1  0  0  0  0
 25 24  1  0  0  0  0
 26 27  1  0  0  0  0
 27 21  2  0  0  0  0
M  END
>  <Pose>
1

>  <Score>
-8.105

$$$$
