/Users/jonathanwahrer/Desktop/Msc/3_Semester/Drug_Design_Praktikum/waehrer_HTS_screening/HTS_experiment/out/docking_results/vina_output/3sx0/2270_docked.pdbqt
 OpenBabel03192223113D

 22 24  0  0  1  0  0  0  0  0999 V2000
   19.9320   63.3830   -9.8980 C   0  0  0  0  0  0  0  0  0  0  0  0
   20.2070   64.5170  -10.3820 O   0  0  0  0  0  0  0  0  0  0  0  0
   20.8890   62.6490   -9.1310 N   0  0  0  0  0  0  0  0  0  0  0  0
   20.6200   61.7380   -8.7620 H   0  0  0  0  0  0  0  0  0  0  0  0
   18.6250   62.8220  -10.1280 C   0  0  0  0  0  0  0  0  0  0  0  0
   17.5600   63.7120  -10.3070 C   0  0  0  0  0  3  0  0  0  0  0  0
   16.2660   63.2990  -10.5310 C   0  0  0  0  0  0  0  0  0  0  0  0
   16.0050   61.9470  -10.5820 C   0  0  0  0  0  0  0  0  0  0  0  0
   14.3560   61.3940  -10.8670 Cl  0  0  0  0  0  0  0  0  0  0  0  0
   17.0470   61.0480  -10.4060 C   0  0  0  0  0  3  0  0  0  0  0  0
   18.3570   61.4850  -10.1790 C   0  0  0  0  0  3  0  0  0  0  0  0
   15.2290   64.2060  -10.7050 O   0  0  0  0  0  0  0  0  0  0  0  0
   14.7620   64.5530  -11.9940 C   0  0  0  0  0  1  0  0  0  0  0  0
   22.1770   63.2420   -8.9240 C   0  0  0  0  0  2  0  0  0  0  0  0
   22.4420   63.8360   -7.5990 C   0  0  2  0  0  3  0  0  0  0  0  0
   21.4270   64.6730   -7.0380 N   0  0  1  0  0  0  0  0  0  0  0  0
   21.4480   64.3820   -5.5840 C   0  0  0  0  0  2  0  0  0  0  0  0
   21.7040   66.0940   -7.0960 C   0  0  0  0  0  2  0  0  0  0  0  0
   22.9380   64.4290   -5.2220 C   0  0  0  0  0  2  0  0  0  0  0  0
   23.7030   65.2220   -6.1630 N   0  0  1  0  0  0  0  0  0  0  0  0
   23.7500   64.6040   -7.4900 C   0  0  0  0  0  2  0  0  0  0  0  0
   22.9790   66.4670   -6.3480 C   0  0  0  0  0  2  0  0  0  0  0  0
  1  3  1  0  0  0  0
  2  1  2  0  0  0  0
  3 14  1  0  0  0  0
  3  4  1  0  0  0  0
  5  1  1  0  0  0  0
  6  5  2  0  0  0  0
  7  6  1  0  0  0  0
  8  7  2  0  0  0  0
  8 10  1  0  0  0  0
  9  8  1  0  0  0  0
 10 11  2  0  0  0  0
 11  5  1  0  0  0  0
 12  7  1  0  0  0  0
 13 12  1  0  0  0  0
 15 14  1  6  0  0  0
 15 21  1  0  0  0  0
 15 16  1  0  0  0  0
 16 18  1  1  0  0  0
 16 17  1  0  0  0  0
 17 19  1  0  0  0  0
 18 22  1  0  0  0  0
 20 21  1  6  0  0  0
 20 19  1  0  0  0  0
 22 20  1  0  0  0  0
M  END
>  <Pose>
1

>  <Score>
-7.770

$$$$
