/Users/jonathanwahrer/Desktop/Msc/3_Semester/Drug_Design_Praktikum/waehrer_HTS_screening/HTS_experiment/out/docking_results/vina_output/3sx0/2271_docked.pdbqt
 OpenBabel03192223113D

 27 30  0  0  1  0  0  0  0  0999 V2000
   21.6170   63.1530   -8.5520 C   0  0  2  0  0  0  0  0  0  0  0  0
   21.4980   62.8040   -9.8790 N   0  0  0  0  0  4  0  0  0  0  0  0
   20.1660   63.2260  -10.2600 C   0  0  0  0  0  0  0  0  0  0  0  0
   19.6360   63.8190  -11.2800 C   0  0  0  0  0  3  0  0  0  0  0  0
   18.1990   64.1290  -11.3990 C   0  0  0  0  0  2  0  0  0  0  0  0
   17.3550   63.7330  -10.2400 C   0  0  0  0  0  2  0  0  0  0  0  0
   17.9400   62.6610   -9.3830 C   0  0  0  0  0  2  0  0  0  0  0  0
   19.3600   62.8330   -9.1630 N   0  0  0  0  0  0  0  0  0  0  0  0
   20.2360   62.6930   -8.0030 C   0  0  0  0  0  2  0  0  0  0  0  0
   21.3810   61.7250   -9.8960 H   0  0  0  0  0  0  0  0  0  0  0  0
   21.7770   64.5140   -8.0820 C   0  0  0  0  0  0  0  0  0  0  0  0
   22.8040   64.8080   -7.2060 C   0  0  0  0  0  3  0  0  0  0  0  0
   22.9680   66.0750   -6.7290 C   0  0  0  0  0  3  0  0  0  0  0  0
   22.1250   67.1160   -7.0950 C   0  0  0  0  0  0  0  0  0  0  0  0
   22.3130   68.7460   -6.5000 Cl  0  0  0  0  0  0  0  0  0  0  0  0
   21.1090   66.8230   -7.9630 C   0  0  0  0  0  3  0  0  0  0  0  0
   20.9390   65.5380   -8.4480 C   0  0  0  0  0  3  0  0  0  0  0  0
   22.5210   62.2990   -7.8590 O   0  0  0  0  0  0  0  0  0  0  0  0
   22.9360   61.7310   -8.5570 H   0  0  0  0  0  0  0  0  0  0  0  0
   22.4510   63.0720  -10.8490 C   0  0  0  0  0  0  0  0  0  0  0  0
   23.7660   63.3270  -10.6550 C   0  0  0  0  0  3  0  0  0  0  0  0
   24.6080   63.5670  -11.7400 C   0  0  0  0  0  3  0  0  0  0  0  0
   24.1560   63.5560  -13.0480 C   0  0  0  0  0  0  0  0  0  0  0  0
   22.8120   63.2920  -13.2150 C   0  0  0  0  0  3  0  0  0  0  0  0
   21.9600   63.0530  -12.1700 C   0  0  0  0  0  3  0  0  0  0  0  0
   25.0260   63.8000  -14.0980 O   0  0  0  0  0  0  0  0  0  0  0  0
   26.4110   63.7800  -13.8640 C   0  0  0  0  0  1  0  0  0  0  0  0
  1 11  1  0  0  0  0
  1  9  1  0  0  0  0
  1 18  1  1  0  0  0
  2  1  1  0  0  0  0
  3  2  1  0  0  0  0
  3  8  1  0  0  0  0
  4  3  2  0  0  0  0
  5  4  1  0  0  0  0
  5  6  1  0  0  0  0
  6  7  1  0  0  0  0
  7  8  1  0  0  0  0
  8  9  1  0  0  0  0
 10  2  1  0  0  0  0
 11 12  1  0  0  0  0
 12 13  2  0  0  0  0
 14 13  1  0  0  0  0
 14 15  1  0  0  0  0
 16 14  2  0  0  0  0
 17 11  2  0  0  0  0
 17 16  1  0  0  0  0
 19 18  1  0  0  0  0
 20 21  1  0  0  0  0
 20  2  1  0  0  0  0
 22 21  2  0  0  0  0
 23 22  1  0  0  0  0
 24 23  2  0  0  0  0
 24 25  1  0  0  0  0
 25 20  2  0  0  0  0
 26 27  1  0  0  0  0
 26 23  1  0  0  0  0
M  END
>  <Pose>
1

>  <Score>
-6.404

$$$$
