/Users/jonathanwahrer/Desktop/Msc/3_Semester/Drug_Design_Praktikum/waehrer_HTS_screening/HTS_experiment/out/docking_results/vina_output/3sx0/2272_docked.pdbqt
 OpenBabel03192223113D

 29 32  0  0  0  0  0  0  0  0999 V2000
   19.8160   63.4410  -10.9480 C   0  0  0  0  0  0  0  0  0  0  0  0
   20.0000   62.5520  -11.8640 O   0  0  0  0  0  0  0  0  0  0  0  0
   20.9760   63.9690  -10.3770 N   0  0  0  0  0  0  0  0  0  0  0  0
   21.0000   64.8280   -9.1790 C   0  0  0  0  0  2  0  0  0  0  0  0
   21.6410   63.8140   -8.1800 C   0  0  0  0  0  2  0  0  0  0  0  0
   23.0110   63.5770   -8.6140 N   0  0  0  0  0  0  0  0  0  0  0  0
   23.3730   63.7530   -9.9120 C   0  0  0  0  0  2  0  0  0  0  0  0
   22.2810   63.7660  -10.9430 C   0  0  0  0  0  2  0  0  0  0  0  0
   18.4330   63.7580  -10.6840 C   0  0  0  0  0  2  0  0  0  0  0  0
   17.5520   62.8490   -9.9550 C   0  0  0  0  0  2  0  0  0  0  0  0
   16.3510   62.3960  -10.6340 N   0  0  0  0  0  0  0  0  0  0  0  0
   15.4080   63.0560  -11.3010 C   0  0  0  0  0  0  0  0  0  0  0  0
   14.4130   62.1940  -11.6960 C   0  0  0  0  0  0  0  0  0  0  0  0
   15.3110   64.4160  -11.6460 C   0  0  0  0  0  3  0  0  0  0  0  0
   13.3000   62.6240  -12.4300 C   0  0  0  0  0  3  0  0  0  0  0  0
   14.7810   61.0210  -11.2510 O   0  0  0  0  0  0  0  0  0  0  0  0
   13.1930   63.9450  -12.7700 C   0  0  0  0  0  0  0  0  0  0  0  0
   11.8270   64.5140  -13.6980 Cl  0  0  0  0  0  0  0  0  0  0  0  0
   14.1980   64.8060  -12.3720 C   0  0  0  0  0  3  0  0  0  0  0  0
   15.9240   61.0880  -10.6140 C   0  0  0  0  0  0  0  0  0  0  0  0
   16.5410   60.1290  -10.0670 O   0  0  0  0  0  0  0  0  0  0  0  0
   23.6310   62.7890   -7.6580 C   0  0  0  0  0  2  0  0  0  0  0  0
   24.2100   63.6250   -6.5160 C   0  0  0  0  0  0  0  0  0  0  0  0
   24.3780   64.8670   -6.8240 O   0  0  0  0  0  0  0  0  0  0  0  0
   24.5040   63.0820   -5.3410 N   0  0  0  0  0  0  0  0  0  0  0  0
   24.7480   64.3010   -4.7940 H   0  0  0  0  0  0  0  0  0  0  0  0
   24.8180   62.5020   -4.0910 C   0  0  0  0  0  3  0  0  0  0  0  0
   23.9470   63.0280   -2.8860 C   0  0  0  0  0  2  0  0  0  0  0  0
   25.3420   63.4090   -2.9970 C   0  0  0  0  0  2  0  0  0  0  0  0
  1  9  1  0  0  0  0
  1  3  1  0  0  0  0
  2  1  2  0  0  0  0
  3  4  1  0  0  0  0
  4  5  1  0  0  0  0
  6  5  1  0  0  0  0
  6 22  1  0  0  0  0
  7  6  1  0  0  0  0
  8  3  1  0  0  0  0
  8  7  1  0  0  0  0
  9 10  1  0  0  0  0
 11 20  1  0  0  0  0
 11 10  1  0  0  0  0
 12 11  1  0  0  0  0
 13 12  2  0  0  0  0
 13 16  1  0  0  0  0
 14 12  1  0  0  0  0
 15 13  1  0  0  0  0
 16 20  1  0  0  0  0
 17 15  2  0  0  0  0
 17 19  1  0  0  0  0
 18 17  1  0  0  0  0
 19 14  2  0  0  0  0
 20 21  2  0  0  0  0
 22 23  1  0  0  0  0
 23 25  1  0  0  0  0
 24 23  2  0  0  0  0
 25 26  1  0  0  0  0
 25 27  1  0  0  0  0
 27 29  1  0  0  0  0
 27 28  1  0  0  0  0
 29 28  1  0  0  0  0
M  END
>  <Pose>
1

>  <Score>
-8.991

$$$$
