/Users/jonathanwahrer/Desktop/Msc/3_Semester/Drug_Design_Praktikum/waehrer_HTS_screening/HTS_experiment/out/docking_results/vina_output/3sx0/2275_docked.pdbqt
 OpenBabel03192223113D

 21 23  0  0  1  0  0  0  0  0999 V2000
   24.1610   63.7690  -11.2280 Cl  0  0  0  0  0  0  0  0  0  0  0  0
   22.5480   63.6680  -10.5590 C   0  0  0  0  0  0  0  0  0  0  0  0
   22.3330   63.9510   -9.2260 C   0  0  0  0  0  0  0  0  0  0  0  0
   21.0370   63.8560   -8.7690 C   0  0  0  0  0  0  0  0  0  0  0  0
   20.7290   64.0940   -7.5610 O   0  0  0  0  0  0  0  0  0  0  0  0
   20.0540   63.5010   -9.6100 N   0  0  0  0  0  0  0  0  0  0  0  0
   20.2140   63.2220  -10.8890 N   0  0  0  0  0  0  0  0  0  0  0  0
   19.1180   62.8420  -11.7650 C   0  0  1  0  0  3  0  0  0  0  0  0
   18.6170   61.4410  -11.4870 C   0  0  0  0  0  2  0  0  0  0  0  0
   17.6570   61.4440  -10.3100 C   0  0  0  0  0  2  0  0  0  0  0  0
   18.3320   61.9390   -9.0510 C   0  0  0  0  0  2  0  0  0  0  0  0
   18.6780   63.4040   -9.0990 C   0  0  2  0  0  3  0  0  0  0  0  0
   17.8130   64.0520  -10.1200 C   0  0  0  0  0  3  0  0  0  0  0  0
   17.9770   63.7650  -11.4070 C   0  0  0  0  0  3  0  0  0  0  0  0
   21.4900   63.3090  -11.3670 C   0  0  0  0  0  0  0  0  0  0  0  0
   21.6750   63.0450  -12.6030 O   0  0  0  0  0  0  0  0  0  0  0  0
   23.3770   64.3240   -8.3320 N   0  0  0  0  0  0  0  0  0  0  0  0
   24.2300   64.7430   -8.8110 H   0  0  0  0  0  0  0  0  0  0  0  0
   23.3240   64.1660   -6.9040 C   0  0  0  0  0  3  0  0  0  0  0  0
   24.4760   63.3230   -6.3830 C   0  0  0  0  0  1  0  0  0  0  0  0
   23.3090   65.4480   -6.1400 C   0  0  0  0  0  1  0  0  0  0  0  0
  1  2  1  0  0  0  0
  2  3  2  0  0  0  0
  3  4  1  0  0  0  0
  3 17  1  0  0  0  0
  4  5  2  0  0  0  0
  6 12  1  0  0  0  0
  6  4  1  0  0  0  0
  7  6  1  0  0  0  0
  8  9  1  1  0  0  0
  8 14  1  0  0  0  0
  8  7  1  0  0  0  0
  9 10  1  0  0  0  0
 10 11  1  0  0  0  0
 12 13  1  6  0  0  0
 12 11  1  0  0  0  0
 14 13  2  0  0  0  0
 15  7  1  0  0  0  0
 15  2  1  0  0  0  0
 16 15  2  0  0  0  0
 17 19  1  0  0  0  0
 18 17  1  0  0  0  0
 19 20  1  0  0  0  0
 19 21  1  0  0  0  0
M  END
>  <Pose>
1

>  <Score>
-7.008

$$$$
