/Users/jonathanwahrer/Desktop/Msc/3_Semester/Drug_Design_Praktikum/waehrer_HTS_screening/HTS_experiment/out/docking_results/vina_output/3sx0/2281_docked.pdbqt
 OpenBabel03192223123D

 34 37  0  0  1  0  0  0  0  0999 V2000
   17.7410   62.3480   -9.7590 N   0  0  0  0  0  0  0  0  0  0  0  0
   18.3930   62.4410   -8.5220 C   0  0  0  0  0  2  0  0  0  0  0  0
   19.8230   63.0350   -8.7990 C   0  0  0  0  0  2  0  0  0  0  0  0
   20.0600   63.5540  -10.0530 N   0  0  0  0  0  0  0  0  0  0  0  0
   19.3190   63.0510  -11.1770 C   0  0  0  0  0  2  0  0  0  0  0  0
   18.6400   61.6930  -10.8020 C   0  0  0  0  0  2  0  0  0  0  0  0
   16.5720   62.8650  -10.2940 C   0  0  2  0  0  3  0  0  0  0  0  0
   15.6130   62.1960  -10.9200 C   0  0  1  0  0  3  0  0  0  0  0  0
   15.5490   60.4060  -10.6620 Cl  0  0  0  0  0  0  0  0  0  0  0  0
   14.6540   62.7900  -11.7410 C   0  0  0  0  0  0  0  0  0  0  0  0
   14.6810   64.0840  -11.9060 N   0  0  0  0  0  0  0  0  0  0  0  0
   13.8070   62.0170  -12.3040 O   0  0  0  0  0  0  0  0  0  0  0  0
   15.6370   64.8090  -11.2680 N   0  0  0  0  0  0  0  0  0  0  0  0
   16.5440   64.3330  -10.5010 C   0  0  0  0  0  3  0  0  0  0  0  0
   13.9150   64.7730  -12.9440 C   0  0  0  0  0  0  0  0  0  0  0  0
   14.4960   65.5560  -13.8890 C   0  0  0  0  0  3  0  0  0  0  0  0
   13.7640   66.0930  -14.9250 C   0  0  0  0  0  3  0  0  0  0  0  0
   12.3960   65.8450  -15.0330 C   0  0  0  0  0  3  0  0  0  0  0  0
   11.8260   65.0440  -14.0430 C   0  0  0  0  0  3  0  0  0  0  0  0
   12.5570   64.5320  -13.0440 C   0  0  0  0  0  3  0  0  0  0  0  0
   21.4770   63.4330  -10.5340 C   0  0  0  0  0  2  0  0  0  0  0  0
   22.3750   64.0670   -9.5800 C   0  0  0  0  0  0  0  0  0  0  0  0
   22.5550   65.1100   -9.2240 O   0  0  0  0  0  0  0  0  0  0  0  0
   23.3710   62.8860   -8.8500 N   0  0  0  0  0  0  0  0  0  0  0  0
   23.8420   63.7950   -7.7450 C   0  0  0  0  0  0  0  0  0  0  0  0
   23.1270   62.4250   -9.4200 H   0  0  0  0  0  0  0  0  0  0  0  0
   23.9940   64.9820   -7.8330 O   0  0  0  0  0  0  0  0  0  0  0  0
   24.0750   63.0340   -6.5400 N   0  0  0  0  0  0  0  0  0  0  0  0
   23.9280   61.9740   -6.6350 H   0  0  0  0  0  0  0  0  0  0  0  0
   24.4900   63.5200   -5.2790 C   0  0  0  0  0  3  0  0  0  0  0  0
   23.5800   63.4300   -4.1230 C   0  0  0  0  0  2  0  0  0  0  0  0
   23.8740   62.1070   -3.4090 C   0  0  0  0  0  2  0  0  0  0  0  0
   25.3620   61.9770   -3.6350 C   0  0  0  0  0  2  0  0  0  0  0  0
   25.7000   62.6420   -4.8950 C   0  0  0  0  0  2  0  0  0  0  0  0
  1  2  1  0  0  0  0
  3  2  1  0  0  0  0
  4  3  1  0  0  0  0
  5  6  1  0  0  0  0
  5  4  1  0  0  0  0
  6  1  1  0  0  0  0
  7 14  1  6  0  0  0
  7  1  1  0  0  0  0
  8  9  1  1  0  0  0
  8  7  1  0  0  0  0
 10  8  1  0  0  0  0
 11 10  1  0  0  0  0
 11 13  1  0  0  0  0
 12 10  2  0  0  0  0
 13 14  2  0  0  0  0
 15 11  1  0  0  0  0
 16 15  2  0  0  0  0
 17 16  1  0  0  0  0
 18 17  2  0  0  0  0
 18 19  1  0  0  0  0
 19 20  2  0  0  0  0
 20 15  1  0  0  0  0
 21  4  1  0  0  0  0
 21 22  1  0  0  0  0
 22 23  2  0  0  0  0
 22 24  1  0  0  0  0
 24 25  1  0  0  0  0
 25 28  1  0  0  0  0
 26 24  1  0  0  0  0
 27 25  2  0  0  0  0
 28 30  1  0  0  0  0
 29 28  1  0  0  0  0
 30 34  1  0  0  0  0
 30 31  1  0  0  0  0
 31 32  1  0  0  0  0
 33 32  1  0  0  0  0
 34 33  1  0  0  0  0
M  END
>  <Pose>
1

>  <Score>
-9.009

$$$$
