/Users/jonathanwahrer/Desktop/Msc/3_Semester/Drug_Design_Praktikum/waehrer_HTS_screening/HTS_experiment/out/docking_results/vina_output/3sx0/2285_docked.pdbqt
 OpenBabel03192223133D

 32 35  0  0  0  0  0  0  0  0999 V2000
   19.2150   63.3980  -10.6280 N   0  0  0  0  0  0  0  0  0  0  0  0
   19.6080   64.1820   -9.4960 C   0  0  0  0  0  2  0  0  0  0  0  0
   20.9520   64.9120   -9.6750 C   0  0  0  0  0  2  0  0  0  0  0  0
   21.9180   63.9120  -10.0060 N   0  0  0  0  0  0  0  0  0  0  0  0
   21.6000   63.4080  -11.3130 C   0  0  0  0  0  2  0  0  0  0  0  0
   20.3760   62.5620  -11.0960 C   0  0  0  0  0  2  0  0  0  0  0  0
   18.1050   62.1630   -9.9880 S   0  0  0  0  0  0  0  0  0  0  0  0
   18.6420   60.8150  -10.4310 O   0  0  0  0  0  0  0  0  0  0  0  0
   18.1140   62.2440   -8.5030 O   0  0  0  0  0  0  0  0  0  0  0  0
   16.5070   62.3520  -10.5970 C   0  0  0  0  0  0  0  0  0  0  0  0
   16.2200   63.6170  -11.1290 C   0  0  0  0  0  3  0  0  0  0  0  0
   15.0110   63.9310  -11.7550 C   0  0  0  0  0  0  0  0  0  0  0  0
   14.0460   62.9340  -11.8540 C   0  0  0  0  0  0  0  0  0  0  0  0
   14.7610   65.1940  -12.2640 O   0  0  0  0  0  0  0  0  0  0  0  0
   14.3420   61.6940  -11.3190 C   0  0  0  0  0  3  0  0  0  0  0  0
   12.8770   63.3120  -12.4900 O   0  0  0  0  0  0  0  0  0  0  0  0
   15.5490   61.3920  -10.7020 C   0  0  0  0  0  3  0  0  0  0  0  0
   12.9990   64.1900  -13.6410 C   0  0  0  0  0  2  0  0  0  0  0  0
   13.9900   65.2870  -13.4370 C   0  0  0  0  0  2  0  0  0  0  0  0
   23.2140   64.0380   -9.5380 C   0  0  0  0  0  2  0  0  0  0  0  0
   23.3990   64.2800   -8.1060 C   0  0  0  0  0  0  0  0  0  0  0  0
   24.1610   65.3170   -7.8640 O   0  0  0  0  0  0  0  0  0  0  0  0
   22.9230   63.6390   -6.9980 N   0  0  0  0  0  0  0  0  0  0  0  0
   22.3200   62.7510   -7.0240 H   0  0  0  0  0  0  0  0  0  0  0  0
   23.1190   64.0900   -5.6190 C   0  0  0  0  0  2  0  0  0  0  0  0
   24.1240   63.2260   -4.9680 C   0  0  0  0  0  0  0  0  0  0  0  0
   23.9600   62.8000   -3.6300 C   0  0  0  0  0  0  0  0  0  0  0  0
   24.9080   62.1300   -2.9570 C   0  0  0  0  0  3  0  0  0  0  0  0
   22.4110   63.1590   -2.8260 Cl  0  0  0  0  0  0  0  0  0  0  0  0
   26.1530   61.8110   -3.5850 C   0  0  0  0  0  3  0  0  0  0  0  0
   26.3280   62.2150   -4.8470 C   0  0  0  0  0  3  0  0  0  0  0  0
   25.3570   62.9180   -5.5710 C   0  0  0  0  0  3  0  0  0  0  0  0
  1  7  1  0  0  0  0
  1  2  1  0  0  0  0
  3  2  1  0  0  0  0
  4  3  1  0  0  0  0
  4 20  1  0  0  0  0
  5  6  1  0  0  0  0
  5  4  1  0  0  0  0
  6  1  1  0  0  0  0
  7  9  2  0  0  0  0
  8  7  2  0  0  0  0
 10  7  1  0  0  0  0
 11 10  2  0  0  0  0
 12 11  1  0  0  0  0
 13 12  2  0  0  0  0
 13 15  1  0  0  0  0
 14 12  1  0  0  0  0
 15 17  2  0  0  0  0
 16 13  1  0  0  0  0
 17 10  1  0  0  0  0
 18 19  1  0  0  0  0
 18 16  1  0  0  0  0
 19 14  1  0  0  0  0
 20 21  1  0  0  0  0
 21 22  2  0  0  0  0
 21 23  1  0  0  0  0
 23 25  1  0  0  0  0
 24 23  1  0  0  0  0
 25 26  1  0  0  0  0
 26 27  1  0  0  0  0
 27 28  2  0  0  0  0
 27 29  1  0  0  0  0
 30 28  1  0  0  0  0
 31 30  2  0  0  0  0
 32 26  2  0  0  0  0
 32 31  1  0  0  0  0
M  END
>  <Pose>
1

>  <Score>
-8.690

$$$$
