/Users/jonathanwahrer/Desktop/Msc/3_Semester/Drug_Design_Praktikum/waehrer_HTS_screening/HTS_experiment/out/docking_results/vina_output/3sx0/2286_docked.pdbqt
 OpenBabel03192223133D

 31 34  0  0  0  0  0  0  0  0999 V2000
   17.0810   62.8810  -10.0240 N   0  0  0  0  0  0  0  0  0  0  0  0
   16.5680   64.1510   -9.6600 C   0  0  0  0  0  2  0  0  0  0  0  0
   15.7360   64.8100  -10.7280 C   0  0  0  0  0  2  0  0  0  0  0  0
   14.8950   63.8620  -11.4280 N   0  0  0  0  0  0  0  0  0  0  0  0
   14.7900   62.5420  -10.8370 C   0  0  0  0  0  2  0  0  0  0  0  0
   16.1490   61.9500  -10.5520 C   0  0  0  0  0  2  0  0  0  0  0  0
   14.2420   64.2490  -12.6050 C   0  0  0  0  0  0  0  0  0  0  0  0
   14.3970   65.4170  -13.0340 O   0  0  0  0  0  0  0  0  0  0  0  0
   13.3660   63.3240  -13.3700 C   0  0  0  0  0  2  0  0  0  0  0  0
   12.4550   64.0280  -14.2290 N   0  0  0  0  0  0  0  0  0  0  0  0
   12.4170   63.8950  -15.6420 C   0  0  0  0  0  0  0  0  0  0  0  0
   13.1870   63.1360  -16.3210 O   0  0  0  0  0  0  0  0  0  0  0  0
   11.4100   64.7170  -16.2180 N   0  0  0  0  0  0  0  0  0  0  0  0
   10.9210   65.5830  -15.1620 C   0  0  0  0  0  0  0  0  0  0  0  0
   10.9690   64.6750  -17.6120 C   0  0  0  0  0  1  0  0  0  0  0  0
    9.4220   65.6000  -15.0870 C   0  0  0  0  0  2  0  0  0  0  0  0
   11.5200   66.9490  -15.3980 C   0  0  0  0  0  2  0  0  0  0  0  0
   11.4340   64.9650  -13.9140 C   0  0  0  0  0  0  0  0  0  0  0  0
    8.7800   66.5780  -16.0260 C   0  0  0  0  0  2  0  0  0  0  0  0
    9.3630   67.9590  -15.9520 C   0  0  0  0  0  2  0  0  0  0  0  0
   10.5440   68.0380  -15.0090 C   0  0  0  0  0  2  0  0  0  0  0  0
   11.0520   65.2060  -12.7440 O   0  0  0  0  0  0  0  0  0  0  0  0
   18.5800   62.9190  -10.8480 S   0  0  0  0  0  0  0  0  0  0  0  0
   18.4900   63.8800  -11.9940 O   0  0  0  0  0  0  0  0  0  0  0  0
   18.9360   61.5700  -11.3990 O   0  0  0  0  0  0  0  0  0  0  0  0
   19.9050   63.3880   -9.7700 C   0  0  0  0  0  0  0  0  0  0  0  0
   21.4730   63.9020  -10.1750 S   0  0  0  0  0  0  0  0  0  0  0  0
   22.0960   64.1490   -8.6130 C   0  0  0  0  0  0  0  0  0  0  0  0
   21.0470   63.8180   -7.7970 C   0  0  0  0  0  3  0  0  0  0  0  0
   23.7110   64.7000   -8.1180 Cl  0  0  0  0  0  0  0  0  0  0  0  0
   19.9040   63.4220   -8.4020 C   0  0  0  0  0  3  0  0  0  0  0  0
  1  2  1  0  0  0  0
  3  2  1  0  0  0  0
  4  5  1  0  0  0  0
  4  3  1  0  0  0  0
  5  6  1  0  0  0  0
  6  1  1  0  0  0  0
  7  4  1  0  0  0  0
  8  7  2  0  0  0  0
  9  7  1  0  0  0  0
 10 18  1  0  0  0  0
 10  9  1  0  0  0  0
 11 10  1  0  0  0  0
 12 11  2  0  0  0  0
 13 11  1  0  0  0  0
 13 14  1  0  0  0  0
 14 16  1  0  0  0  0
 14 18  1  0  0  0  0
 15 13  1  0  0  0  0
 17 14  1  0  0  0  0
 17 21  1  0  0  0  0
 18 22  2  0  0  0  0
 19 20  1  0  0  0  0
 19 16  1  0  0  0  0
 20 21  1  0  0  0  0
 23  1  1  0  0  0  0
 23 26  1  0  0  0  0
 24 23  2  0  0  0  0
 25 23  2  0  0  0  0
 26 31  2  0  0  0  0
 27 26  1  0  0  0  0
 27 28  1  0  0  0  0
 28 30  1  0  0  0  0
 28 29  2  0  0  0  0
 31 29  1  0  0  0  0
M  END
>  <Pose>
1

>  <Score>
-6.826

$$$$
