/Users/jonathanwahrer/Desktop/Msc/3_Semester/Drug_Design_Praktikum/waehrer_HTS_screening/HTS_experiment/out/docking_results/vina_output/3sx0/2301_docked.pdbqt
 OpenBabel03192223143D

 24 27  0  0  1  0  0  0  0  0999 V2000
   22.9220   64.8770   -7.3300 C   0  0  2  0  0  0  0  0  0  0  0  0
   21.4500   64.9760   -7.1050 C   0  0  0  0  0  2  0  0  0  0  0  0
   20.7600   63.6450   -7.4540 C   0  0  0  0  0  2  0  0  0  0  0  0
   20.9900   63.5320   -8.9010 N   0  0  0  0  0  0  0  0  0  0  0  0
   22.3590   63.3540   -9.2720 C   0  0  0  0  0  2  0  0  0  0  0  0
   23.2820   64.3790   -8.6800 C   0  0  0  0  0  2  0  0  0  0  0  0
   23.5460   64.1600   -6.2060 C   0  0  0  0  0  0  0  0  0  0  0  0
   23.2130   64.2960   -4.8890 C   0  0  0  0  0  3  0  0  0  0  0  0
   23.8800   63.5650   -3.9460 C   0  0  0  0  0  3  0  0  0  0  0  0
   24.8980   62.6690   -4.2410 C   0  0  0  0  0  0  0  0  0  0  0  0
   25.7170   61.7460   -2.9990 Cl  0  0  0  0  0  0  0  0  0  0  0  0
   25.2290   62.5390   -5.5670 C   0  0  0  0  0  3  0  0  0  0  0  0
   24.5670   63.2700   -6.5350 C   0  0  0  0  0  3  0  0  0  0  0  0
   23.4140   66.2030   -7.2260 O   0  0  0  0  0  0  0  0  0  0  0  0
   23.5690   66.3750   -6.2470 H   0  0  0  0  0  0  0  0  0  0  0  0
   19.8800   63.6070   -9.7760 C   0  0  0  0  0  0  0  0  0  0  0  0
   18.6670   63.9090   -9.2830 N   0  0  0  0  0  0  0  0  0  0  0  0
   17.5620   64.0190   -9.9940 N   0  0  0  0  0  0  0  0  0  0  0  0
   16.2860   64.3060   -9.7210 N   0  0  0  0  0  0  0  0  0  0  0  0
   17.6110   63.8240  -11.3100 C   0  0  0  0  0  0  0  0  0  0  0  0
   15.5630   64.2890  -10.8190 N   0  0  0  0  0  0  0  0  0  0  0  0
   16.3620   63.9960  -11.8080 N   0  0  0  0  0  0  0  0  0  0  0  0
   18.8280   63.5090  -11.8910 C   0  0  0  0  0  3  0  0  0  0  0  0
   19.9730   63.3970  -11.1320 C   0  0  0  0  0  3  0  0  0  0  0  0
  1 14  1  1  0  0  0
  1  2  1  0  0  0  0
  1  7  1  0  0  0  0
  3  2  1  0  0  0  0
  4  3  1  0  0  0  0
  5  4  1  0  0  0  0
  5  6  1  0  0  0  0
  6  1  1  0  0  0  0
  7  8  1  0  0  0  0
  8  9  2  0  0  0  0
 10  9  1  0  0  0  0
 10 11  1  0  0  0  0
 12 10  2  0  0  0  0
 13  7  2  0  0  0  0
 13 12  1  0  0  0  0
 14 15  1  0  0  0  0
 16 17  2  0  0  0  0
 16  4  1  0  0  0  0
 18 19  1  0  0  0  0
 18 17  1  0  0  0  0
 20 18  1  0  0  0  0
 21 19  2  0  0  0  0
 22 20  2  0  0  0  0
 22 21  1  0  0  0  0
 23 20  1  0  0  0  0
 23 24  2  0  0  0  0
 24 16  1  0  0  0  0
M  END
>  <Pose>
1

>  <Score>
-8.909

$$$$
