/Users/jonathanwahrer/Desktop/Msc/3_Semester/Drug_Design_Praktikum/waehrer_HTS_screening/HTS_experiment/out/docking_results/vina_output/3sx0/2335_docked.pdbqt
 OpenBabel03192223153D

 35 38  0  0  1  0  0  0  0  0999 V2000
   13.6250   64.2600  -12.9850 N   0  0  0  0  0  0  0  0  0  0  0  0
   14.0040   62.9610  -12.5940 C   0  0  0  0  0  2  0  0  0  0  0  0
   14.1450   62.7950  -11.0960 C   0  0  2  0  0  3  0  0  0  0  0  0
   14.5000   64.0410  -10.3790 C   0  0  0  0  0  2  0  0  0  0  0  0
   15.0340   65.1620  -11.1940 C   0  0  0  0  0  3  0  0  0  0  0  0
   14.4140   65.3300  -12.5570 C   0  0  0  0  0  3  0  0  0  0  0  0
   12.2370   64.4910  -13.8700 S   0  0  0  0  0  0  0  0  0  0  0  0
   11.0640   64.6530  -12.9040 O   0  0  0  0  0  0  0  0  0  0  0  0
   11.9140   63.1980  -14.6070 O   0  0  0  0  0  0  0  0  0  0  0  0
   12.2490   65.7790  -15.0170 C   0  0  0  0  0  0  0  0  0  0  0  0
   11.8750   67.0580  -14.6340 C   0  0  0  0  0  3  0  0  0  0  0  0
   11.8800   68.1210  -15.5050 C   0  0  0  0  0  0  0  0  0  0  0  0
   12.2760   67.9060  -16.8300 C   0  0  0  0  0  0  0  0  0  0  0  0
   11.5730   69.5060  -15.4210 N   0  0  0  0  0  0  0  0  0  0  0  0
   12.6390   66.6510  -17.1950 C   0  0  0  0  0  3  0  0  0  0  0  0
   12.2090   69.1750  -17.6030 C   0  0  0  0  0  2  0  0  0  0  0  0
   12.6340   65.5810  -16.3160 C   0  0  0  0  0  0  0  0  0  0  0  0
   13.1680   63.8390  -16.9520 Br  0  0  0  0  0  0  0  0  0  0  0  0
   11.2450   69.9910  -16.7660 C   0  0  0  0  0  2  0  0  0  0  0  0
   11.5690   70.3210  -14.2910 C   0  0  0  0  0  0  0  0  0  0  0  0
   11.3120   71.5690  -14.4110 O   0  0  0  0  0  0  0  0  0  0  0  0
   11.8450   69.8460  -12.9370 C   0  0  0  0  0  2  0  0  0  0  0  0
   12.2110   70.9880  -11.9930 C   0  0  0  0  0  1  0  0  0  0  0  0
   15.1190   61.7220  -10.7710 C   0  0  0  0  0  0  0  0  0  0  0  0
   14.6740   60.5690  -10.5520 O   0  0  0  0  0  0  0  0  0  0  0  0
   16.5340   62.0110  -10.7140 N   0  0  0  0  0  0  0  0  0  0  0  0
   16.7900   62.9840  -10.9000 H   0  0  0  0  0  0  0  0  0  0  0  0
   17.4060   60.9380  -10.4000 C   0  0  0  0  0  3  0  0  0  0  0  0
   18.8050   61.2380  -10.0150 C   0  0  0  0  0  3  0  0  0  0  0  0
   19.2690   62.5730  -10.0820 N   0  0  0  0  0  0  0  0  0  0  0  0
   20.0340   62.9540  -11.1780 C   0  0  0  0  0  2  0  0  0  0  0  0
   21.4640   63.3220  -10.9070 C   0  0  0  0  0  2  0  0  0  0  0  0
   21.6160   64.0440   -9.7320 O   0  0  0  0  0  0  0  0  0  0  0  0
   21.2150   63.2000   -8.6960 C   0  0  0  0  0  2  0  0  0  0  0  0
   19.7140   63.0640   -8.7980 C   0  0  0  0  0  2  0  0  0  0  0  0
  1  2  1  0  0  0  0
  1  6  1  0  0  0  0
  2  3  1  0  0  0  0
  3 24  1  6  0  0  0
  3  4  1  0  0  0  0
  5  4  1  0  0  0  0
  6  5  2  0  0  0  0
  7  1  1  0  0  0  0
  7  8  2  0  0  0  0
  9  7  2  0  0  0  0
 10 11  1  0  0  0  0
 10  7  1  0  0  0  0
 12 14  1  0  0  0  0
 12 11  2  0  0  0  0
 13 12  1  0  0  0  0
 14 20  1  0  0  0  0
 15 13  2  0  0  0  0
 15 17  1  0  0  0  0
 16 13  1  0  0  0  0
 16 19  1  0  0  0  0
 17 10  2  0  0  0  0
 18 17  1  0  0  0  0
 19 14  1  0  0  0  0
 20 22  1  0  0  0  0
 21 20  2  0  0  0  0
 22 23  1  0  0  0  0
 24 26  1  0  0  0  0
 24 25  2  0  0  0  0
 26 28  1  0  0  0  0
 27 26  1  0  0  0  0
 28 29  2  0  0  0  0
 30 29  1  0  0  0  0
 30 35  1  0  0  0  0
 31 32  1  0  0  0  0
 31 30  1  0  0  0  0
 32 33  1  0  0  0  0
 33 34  1  0  0  0  0
 35 34  1  0  0  0  0
M  END
>  <Pose>
1

>  <Score>
-6.694

$$$$
