/Users/jonathanwahrer/Desktop/Msc/3_Semester/Drug_Design_Praktikum/waehrer_HTS_screening/HTS_experiment/out/docking_results/vina_output/3sx0/2345_docked.pdbqt
 OpenBabel03192223163D

 27 30  0  0  1  0  0  0  0  0999 V2000
   13.6130   64.2240  -12.6800 C   0  0  0  0  0  0  0  0  0  0  0  0
   13.8070   65.4970  -12.6670 O   0  0  0  0  0  0  0  0  0  0  0  0
   13.1640   63.6810  -13.8890 N   0  0  0  0  0  0  0  0  0  0  0  0
   12.9300   64.5430  -15.0370 C   0  0  0  0  0  2  0  0  0  0  0  0
   11.4930   64.4000  -15.5290 C   0  0  0  0  0  2  0  0  0  0  0  0
   11.0700   63.0430  -15.3460 N   0  0  0  0  0  0  0  0  0  0  0  0
   12.0610   62.0100  -15.3300 C   0  0  0  0  0  2  0  0  0  0  0  0
   12.9130   62.2720  -14.0720 C   0  0  0  0  0  2  0  0  0  0  0  0
   13.8840   63.5010  -11.4320 C   0  0  2  0  0  3  0  0  0  0  0  0
   15.0610   64.0080  -10.6460 C   0  0  0  0  0  2  0  0  0  0  0  0
   16.0700   62.9560  -10.6910 N   0  0  0  0  0  0  0  0  0  0  0  0
   15.3330   61.7300  -10.8900 C   0  0  0  0  0  0  0  0  0  0  0  0
   14.0450   62.0230  -11.5610 C   0  0  0  0  0  2  0  0  0  0  0  0
   15.8130   60.6140  -10.5070 O   0  0  0  0  0  0  0  0  0  0  0  0
   17.4830   63.0860  -10.5670 C   0  0  0  0  0  0  0  0  0  0  0  0
   18.1310   62.9470   -9.3590 C   0  0  0  0  0  3  0  0  0  0  0  0
   19.5020   63.0760   -9.2350 C   0  0  0  0  0  3  0  0  0  0  0  0
   20.2710   63.3510  -10.3350 C   0  0  0  0  0  0  0  0  0  0  0  0
   22.0200   63.5190  -10.1940 Cl  0  0  0  0  0  0  0  0  0  0  0  0
   19.6600   63.4950  -11.5490 C   0  0  0  0  0  3  0  0  0  0  0  0
   18.2690   63.3630  -11.6650 C   0  0  0  0  0  3  0  0  0  0  0  0
    9.7060   62.7250  -15.1750 C   0  0  0  0  0  0  0  0  0  0  0  0
    8.8160   62.4070  -16.1550 N   0  0  0  0  0  0  0  0  0  0  0  0
    7.6220   62.1630  -15.5970 C   0  0  0  0  0  3  0  0  0  0  0  0
    9.1170   62.3450  -17.5920 C   0  0  0  0  0  1  0  0  0  0  0  0
    7.7420   62.3280  -14.2380 C   0  0  0  0  0  3  0  0  0  0  0  0
    9.0030   62.6640  -14.0270 N   0  0  0  0  0  0  0  0  0  0  0  0
  1  2  2  0  0  0  0
  3  1  1  0  0  0  0
  4  3  1  0  0  0  0
  5  6  1  0  0  0  0
  5  4  1  0  0  0  0
  6  7  1  0  0  0  0
  6 22  1  0  0  0  0
  7  8  1  0  0  0  0
  8  3  1  0  0  0  0
  9  1  1  6  0  0  0
  9 10  1  0  0  0  0
 11 10  1  0  0  0  0
 11 15  1  0  0  0  0
 12 11  1  0  0  0  0
 12 14  2  0  0  0  0
 13  9  1  0  0  0  0
 13 12  1  0  0  0  0
 15 16  1  0  0  0  0
 16 17  2  0  0  0  0
 18 19  1  0  0  0  0
 18 17  1  0  0  0  0
 20 18  2  0  0  0  0
 21 20  1  0  0  0  0
 21 15  2  0  0  0  0
 22 27  2  0  0  0  0
 23 24  1  0  0  0  0
 23 22  1  0  0  0  0
 24 26  2  0  0  0  0
 25 23  1  0  0  0  0
 26 27  1  0  0  0  0
M  END
>  <Pose>
1

>  <Score>
-7.133

$$$$
