/Users/jonathanwahrer/Desktop/Msc/3_Semester/Drug_Design_Praktikum/waehrer_HTS_screening/HTS_experiment/out/docking_results/vina_output/3sx0/2349_docked.pdbqt
 OpenBabel03192223163D

 28 31  0  0  1  0  0  0  0  0999 V2000
   12.1390   65.8810  -15.6650 N   0  0  0  0  0  0  0  0  0  0  0  0
   13.5150   65.5560  -15.9120 C   0  0  0  0  0  0  0  0  0  0  0  0
   14.3800   66.4730  -15.8320 O   0  0  0  0  0  0  0  0  0  0  0  0
   13.8050   64.2060  -16.2300 N   0  0  0  0  0  2  0  0  0  0  0  0
   12.9550   63.2810  -16.3220 C   0  0  0  0  0  0  0  0  0  0  0  0
   11.4720   63.4290  -16.1200 C   0  0  1  0  0  0  0  0  0  0  0  0
   10.8780   63.1510  -17.4720 C   0  0  0  0  0  2  0  0  0  0  0  0
    9.5390   62.7050  -17.5150 N   0  0  0  0  0  4  0  0  0  0  0  0
    9.1590   61.7740  -16.5200 C   0  0  0  0  0  0  0  0  0  0  0  0
    9.8830   61.6660  -15.3760 C   0  0  0  0  0  0  0  0  0  0  0  0
    9.4770   60.7390  -14.4190 C   0  0  0  0  0  3  0  0  0  0  0  0
    8.3630   59.9570  -14.6470 C   0  0  0  0  0  0  0  0  0  0  0  0
    7.6250   60.0670  -15.8160 C   0  0  0  0  0  3  0  0  0  0  0  0
    8.0430   60.9990  -16.7650 C   0  0  0  0  0  3  0  0  0  0  0  0
    7.9070   58.9440  -13.6430 C   0  0  0  0  0  1  0  0  0  0  0  0
   11.0830   62.4710  -15.0610 C   0  0  0  0  0  2  0  0  0  0  0  0
    8.5340   63.7510  -17.6160 C   0  0  0  0  0  1  0  0  0  0  0  0
   11.1860   64.8360  -15.7480 C   0  0  0  0  0  0  0  0  0  0  0  0
    9.9900   65.2000  -15.4620 O   0  0  0  0  0  0  0  0  0  0  0  0
   13.3630   61.9720  -16.6400 O   0  0  0  0  0  0  0  0  0  0  0  0
    9.4290   62.1630  -18.4310 H   0  0  0  0  0  0  0  0  0  0  0  0
   11.8340   67.2330  -15.3880 C   0  0  0  0  0  0  0  0  0  0  0  0
   11.5750   68.1490  -16.4100 C   0  0  0  0  0  3  0  0  0  0  0  0
   11.2710   69.4620  -16.1670 C   0  0  0  0  0  3  0  0  0  0  0  0
   11.2030   69.9670  -14.8680 C   0  0  0  0  0  0  0  0  0  0  0  0
   10.8020   71.6490  -14.5800 Cl  0  0  0  0  0  0  0  0  0  0  0  0
   11.4600   69.0620  -13.8570 C   0  0  0  0  0  3  0  0  0  0  0  0
   11.7640   67.7450  -14.1030 C   0  0  0  0  0  3  0  0  0  0  0  0
  1 22  1  0  0  0  0
  2  3  2  0  0  0  0
  2  1  1  0  0  0  0
  4  2  1  0  0  0  0
  5  4  1  0  0  0  0
  5  6  1  0  0  0  0
  6  7  1  6  0  0  0
  6 18  1  0  0  0  0
  6 16  1  0  0  0  0
  8  7  1  0  0  0  0
  8  9  1  0  0  0  0
  9 10  1  0  0  0  0
 10 16  1  0  0  0  0
 10 11  2  0  0  0  0
 12 11  1  0  0  0  0
 12 15  1  0  0  0  0
 13 12  2  0  0  0  0
 14  9  2  0  0  0  0
 14 13  1  0  0  0  0
 17  8  1  0  0  0  0
 18  1  1  0  0  0  0
 18 19  2  0  0  0  0
 20  5  2  0  0  0  0
 21  8  1  0  0  0  0
 22 28  1  0  0  0  0
 23 24  1  0  0  0  0
 23 22  2  0  0  0  0
 24 25  2  0  0  0  0
 25 26  1  0  0  0  0
 25 27  1  0  0  0  0
 28 27  2  0  0  0  0
M  END
>  <Pose>
1

>  <Score>
-4.516

$$$$
