/Users/jonathanwahrer/Desktop/Msc/3_Semester/Drug_Design_Praktikum/waehrer_HTS_screening/HTS_experiment/out/docking_results/vina_output/3sx0/2350_docked.pdbqt
 OpenBabel03192223163D

 23 26  0  0  1  0  0  0  0  0999 V2000
   12.2900   64.0380  -14.2360 N   0  0  0  0  0  0  0  0  0  0  0  0
   12.3720   63.6410  -15.6140 C   0  0  0  0  0  0  0  0  0  0  0  0
   13.4490   63.3220  -16.1780 O   0  0  0  0  0  0  0  0  0  0  0  0
   11.0310   63.6680  -16.2490 C   0  0  1  0  0  3  0  0  0  0  0  0
   10.5480   62.3250  -16.6930 C   0  0  1  0  0  3  0  0  0  0  0  0
   11.1470   61.2970  -15.7560 C   0  0  1  0  0  3  0  0  0  0  0  0
   10.4720   61.6620  -14.4350 C   0  0  1  0  0  3  0  0  0  0  0  0
    9.4680   62.7420  -14.7640 C   0  0  1  0  0  3  0  0  0  0  0  0
   10.1000   64.0580  -15.0940 C   0  0  1  0  0  3  0  0  0  0  0  0
   10.9960   64.5850  -14.0370 C   0  0  0  0  0  0  0  0  0  0  0  0
   10.6360   65.3820  -13.1360 O   0  0  0  0  0  0  0  0  0  0  0  0
    9.0950   62.2820  -16.1910 C   0  0  0  0  0  2  0  0  0  0  0  0
   13.2750   63.9240  -13.2170 C   0  0  0  0  0  0  0  0  0  0  0  0
   14.1550   64.9820  -12.9570 C   0  0  0  0  0  3  0  0  0  0  0  0
   15.1150   64.8740  -11.9790 C   0  0  0  0  0  3  0  0  0  0  0  0
   15.2450   63.7260  -11.2210 C   0  0  0  0  0  0  0  0  0  0  0  0
   16.4870   63.6140   -9.9760 Cl  0  0  0  0  0  0  0  0  0  0  0  0
   14.3850   62.6630  -11.4600 C   0  0  0  0  0  3  0  0  0  0  0  0
   13.4350   62.7990  -12.4440 C   0  0  0  0  0  3  0  0  0  0  0  0
   10.6790   60.0570  -16.1340 O   0  0  0  0  0  0  0  0  0  0  0  0
   10.0260   59.6510  -15.5180 H   0  0  0  0  0  0  0  0  0  0  0  0
    9.7340   60.5890  -13.9400 O   0  0  0  0  0  0  0  0  0  0  0  0
   10.1380   60.3330  -13.0570 H   0  0  0  0  0  0  0  0  0  0  0  0
  1 10  1  0  0  0  0
  1 13  1  0  0  0  0
  2  1  1  0  0  0  0
  3  2  2  0  0  0  0
  4  2  1  1  0  0  0
  4  9  1  0  0  0  0
  5  4  1  0  0  0  0
  5 12  1  1  0  0  0
  5  6  1  0  0  0  0
  6 20  1  6  0  0  0
  6  7  1  0  0  0  0
  7 22  1  6  0  0  0
  8 12  1  6  0  0  0
  8  7  1  0  0  0  0
  9  8  1  0  0  0  0
  9 10  1  1  0  0  0
 10 11  2  0  0  0  0
 13 14  2  0  0  0  0
 13 19  1  0  0  0  0
 14 15  1  0  0  0  0
 15 16  2  0  0  0  0
 16 17  1  0  0  0  0
 18 16  1  0  0  0  0
 19 18  2  0  0  0  0
 20 21  1  0  0  0  0
 22 23  1  0  0  0  0
M  END
>  <Pose>
1

>  <Score>
-5.340

$$$$
