/Users/jonathanwahrer/Desktop/Msc/3_Semester/Drug_Design_Praktikum/waehrer_HTS_screening/HTS_experiment/out/docking_results/vina_output/3sx0/2357_docked.pdbqt
 OpenBabel03192223163D

 36 39  0  0  1  0  0  0  0  0999 V2000
   13.7710   63.8740  -13.0280 C   0  0  2  0  0  3  0  0  0  0  0  0
   13.6120   63.1480  -11.9390 C   0  0  0  0  0  2  0  0  0  0  0  0
   14.4070   63.7220  -10.8250 C   0  0  2  0  0  3  0  0  0  0  0  0
   14.6480   65.0670  -11.2690 N   0  0  0  0  0  0  0  0  0  0  0  0
   14.6510   64.9330  -12.6650 N   0  0  0  0  0  0  0  0  0  0  0  0
   15.4830   65.5100  -10.8880 H   0  0  0  0  0  0  0  0  0  0  0  0
   15.2110   65.5220  -13.3140 H   0  0  0  0  0  0  0  0  0  0  0  0
   13.1550   63.6550  -14.3830 C   0  0  1  0  0  3  0  0  0  0  0  0
   11.8210   63.0280  -14.2460 C   0  0  0  0  0  0  0  0  0  0  0  0
   10.6750   63.8400  -14.0850 N   0  0  0  0  0  0  0  0  0  0  0  0
   11.7220   61.7860  -14.2730 O   0  0  0  0  0  0  0  0  0  0  0  0
   10.7120   65.2010  -14.4030 C   0  0  0  0  0  0  0  0  0  0  0  0
    9.7600   63.4430  -13.7240 H   0  0  0  0  0  0  0  0  0  0  0  0
   11.9020   65.8020  -14.8950 N   0  0  0  0  0  0  0  0  0  0  0  0
    9.6890   65.9590  -14.2680 O   0  0  0  0  0  0  0  0  0  0  0  0
   13.0450   64.9740  -15.0500 C   0  0  0  0  0  0  0  0  0  0  0  0
   13.9840   65.3610  -15.7670 O   0  0  0  0  0  0  0  0  0  0  0  0
   11.9190   67.1880  -15.2110 C   0  0  0  0  0  0  0  0  0  0  0  0
   11.7690   67.6070  -16.5080 C   0  0  0  0  0  3  0  0  0  0  0  0
   11.7790   68.9450  -16.8470 C   0  0  0  0  0  3  0  0  0  0  0  0
   11.9410   69.9010  -15.8760 C   0  0  0  0  0  0  0  0  0  0  0  0
   11.9570   71.6210  -16.2870 Cl  0  0  0  0  0  0  0  0  0  0  0  0
   12.0930   69.5030  -14.5690 C   0  0  0  0  0  3  0  0  0  0  0  0
   12.0800   68.1400  -14.2440 C   0  0  0  0  0  3  0  0  0  0  0  0
   15.6080   62.9150  -10.6430 C   0  0  0  0  0  0  0  0  0  0  0  0
   16.8150   63.5610  -10.4780 C   0  0  0  0  0  3  0  0  0  0  0  0
   18.0060   62.8880  -10.2960 C   0  0  0  0  0  0  0  0  0  0  0  0
   17.9680   61.4880  -10.2820 C   0  0  0  0  0  0  0  0  0  0  0  0
   16.7870   60.7970  -10.4440 C   0  0  0  0  0  0  0  0  0  0  0  0
   15.6350   61.5380  -10.6210 C   0  0  0  0  0  3  0  0  0  0  0  0
   19.2270   63.5300  -10.1290 O   0  0  0  0  0  0  0  0  0  0  0  0
   20.0550   63.6330  -11.2690 C   0  0  0  0  0  1  0  0  0  0  0  0
   19.1300   60.7710  -10.1040 O   0  0  0  0  0  0  0  0  0  0  0  0
   19.3720   60.0360  -10.7540 H   0  0  0  0  0  0  0  0  0  0  0  0
   16.8040   59.4350  -10.4240 O   0  0  0  0  0  0  0  0  0  0  0  0
   17.0090   58.6180   -9.3080 C   0  0  0  0  0  1  0  0  0  0  0  0
  1  5  1  0  0  0  0
  1  2  1  1  0  0  0
  2  3  1  0  0  0  0
  3 25  1  6  0  0  0
  4  6  1  0  0  0  0
  4  3  1  0  0  0  0
  5  4  1  0  0  0  0
  7  5  1  0  0  0  0
  8 16  1  1  0  0  0
  8  9  1  0  0  0  0
  8  1  1  0  0  0  0
  9 10  1  0  0  0  0
 10 13  1  0  0  0  0
 11  9  2  0  0  0  0
 12 15  2  0  0  0  0
 12 10  1  0  0  0  0
 14 12  1  0  0  0  0
 16 14  1  0  0  0  0
 17 16  2  0  0  0  0
 18 14  1  0  0  0  0
 18 24  1  0  0  0  0
 19 18  2  0  0  0  0
 20 19  1  0  0  0  0
 20 21  2  0  0  0  0
 21 23  1  0  0  0  0
 22 21  1  0  0  0  0
 23 24  2  0  0  0  0
 25 30  2  0  0  0  0
 25 26  1  0  0  0  0
 26 27  2  0  0  0  0
 27 28  1  0  0  0  0
 27 31  1  0  0  0  0
 28 33  1  0  0  0  0
 29 35  1  0  0  0  0
 29 28  2  0  0  0  0
 30 29  1  0  0  0  0
 32 31  1  0  0  0  0
 34 33  1  0  0  0  0
 35 36  1  0  0  0  0
M  END
>  <Pose>
1

>  <Score>
-7.014

$$$$
