/Users/jonathanwahrer/Desktop/Msc/3_Semester/Drug_Design_Praktikum/waehrer_HTS_screening/HTS_experiment/out/docking_results/vina_output/3sx0/2358_docked.pdbqt
 OpenBabel03192223173D

 34 37  0  0  1  0  0  0  0  0999 V2000
   22.7920   64.2910   -6.9980 N   0  0  0  0  0  0  0  0  0  0  0  0
   22.1070   65.5250   -6.8370 C   0  0  0  0  0  0  0  0  0  0  0  0
   22.2020   66.1210   -5.7240 O   0  0  0  0  0  0  0  0  0  0  0  0
   21.3370   66.0850   -7.8810 N   0  0  0  0  0  0  0  0  0  0  0  0
   21.2270   65.4250   -9.1270 C   0  0  0  0  0  0  0  0  0  0  0  0
   20.6870   65.9950  -10.1380 O   0  0  0  0  0  0  0  0  0  0  0  0
   21.7230   64.0620   -9.3170 C   0  0  1  0  0  3  0  0  0  0  0  0
   22.6580   63.6560   -8.2610 C   0  0  0  0  0  0  0  0  0  0  0  0
   23.4300   62.6550   -8.4610 O   0  0  0  0  0  0  0  0  0  0  0  0
   20.8360   67.0010   -7.7410 H   0  0  0  0  0  0  0  0  0  0  0  0
   20.5810   63.1110   -9.4570 C   0  0  2  0  0  3  0  0  0  0  0  0
   19.6160   62.8750   -8.6080 C   0  0  0  0  0  2  0  0  0  0  0  0
   18.7370   61.8480   -9.2170 C   0  0  2  0  0  3  0  0  0  0  0  0
   19.5580   61.2530  -10.2500 N   0  0  0  0  0  0  0  0  0  0  0  0
   20.4110   62.3010  -10.6150 N   0  0  0  0  0  0  0  0  0  0  0  0
   20.0940   60.4290   -9.8870 H   0  0  0  0  0  0  0  0  0  0  0  0
   20.8170   62.4160  -11.5800 H   0  0  0  0  0  0  0  0  0  0  0  0
   17.5290   62.4790   -9.8180 C   0  0  0  0  0  0  0  0  0  0  0  0
   16.5400   61.7420  -10.4270 C   0  0  0  0  0  3  0  0  0  0  0  0
   15.4160   62.3180  -10.9890 C   0  0  0  0  0  0  0  0  0  0  0  0
   15.2520   63.6840  -10.9510 C   0  0  0  0  0  0  0  0  0  0  0  0
   16.2280   64.4380  -10.3470 C   0  0  0  0  0  3  0  0  0  0  0  0
   17.3440   63.8540   -9.7910 C   0  0  0  0  0  3  0  0  0  0  0  0
   14.4560   61.5250  -11.5870 O   0  0  0  0  0  0  0  0  0  0  0  0
   14.2900   61.5630  -12.5730 H   0  0  0  0  0  0  0  0  0  0  0  0
   14.1370   64.2800  -11.5060 O   0  0  0  0  0  0  0  0  0  0  0  0
   14.2330   64.8960  -12.7700 C   0  0  0  0  0  1  0  0  0  0  0  0
   23.5770   63.7050   -5.9670 C   0  0  0  0  0  0  0  0  0  0  0  0
   24.8420   63.1830   -6.2090 C   0  0  0  0  0  3  0  0  0  0  0  0
   25.5980   62.6210   -5.2250 C   0  0  0  0  0  3  0  0  0  0  0  0
   25.1030   62.5590   -3.9300 C   0  0  0  0  0  0  0  0  0  0  0  0
   26.0460   61.8450   -2.6360 Cl  0  0  0  0  0  0  0  0  0  0  0  0
   23.8460   63.0700   -3.6540 C   0  0  0  0  0  3  0  0  0  0  0  0
   23.0900   63.6410   -4.6810 C   0  0  0  0  0  3  0  0  0  0  0  0
  1  2  1  0  0  0  0
  1 28  1  0  0  0  0
  2  3  2  0  0  0  0
  4 10  1  0  0  0  0
  4  2  1  0  0  0  0
  5  4  1  0  0  0  0
  6  5  2  0  0  0  0
  7  5  1  1  0  0  0
  7  8  1  0  0  0  0
  8  1  1  0  0  0  0
  9  8  2  0  0  0  0
 11  7  1  0  0  0  0
 11 12  1  1  0  0  0
 13 18  1  6  0  0  0
 13 12  1  0  0  0  0
 14 16  1  0  0  0  0
 14 13  1  0  0  0  0
 15 14  1  0  0  0  0
 15 11  1  0  0  0  0
 17 15  1  0  0  0  0
 18 23  1  0  0  0  0
 19 18  2  0  0  0  0
 20 21  2  0  0  0  0
 20 19  1  0  0  0  0
 21 22  1  0  0  0  0
 22 23  2  0  0  0  0
 24 20  1  0  0  0  0
 25 24  1  0  0  0  0
 26 21  1  0  0  0  0
 27 26  1  0  0  0  0
 28 34  1  0  0  0  0
 29 28  2  0  0  0  0
 29 30  1  0  0  0  0
 30 31  2  0  0  0  0
 31 33  1  0  0  0  0
 31 32  1  0  0  0  0
 34 33  2  0  0  0  0
M  END
>  <Pose>
1

>  <Score>
-8.466

$$$$
