/Users/jonathanwahrer/Desktop/Msc/3_Semester/Drug_Design_Praktikum/waehrer_HTS_screening/HTS_experiment/out/docking_results/vina_output/3sx0/2359_docked.pdbqt
 OpenBabel03192223173D

 32 35  0  0  1  0  0  0  0  0999 V2000
   19.9190   63.0800  -10.7660 N   0  0  0  0  0  0  0  0  0  0  0  0
   20.6380   62.8350  -11.9850 C   0  0  0  0  0  0  0  0  0  0  0  0
   20.0420   62.4540  -13.0400 O   0  0  0  0  0  0  0  0  0  0  0  0
   22.0420   63.0420  -11.9510 N   0  0  0  0  0  0  0  0  0  0  0  0
   22.6940   63.4760  -10.7370 C   0  0  0  0  0  0  0  0  0  0  0  0
   23.7790   64.0580  -10.8650 O   0  0  0  0  0  0  0  0  0  0  0  0
   22.0620   63.2170   -9.4580 C   0  0  2  0  0  3  0  0  0  0  0  0
   20.6040   63.5070   -9.5990 C   0  0  0  0  0  0  0  0  0  0  0  0
   19.9250   64.1170   -8.7340 O   0  0  0  0  0  0  0  0  0  0  0  0
   22.5780   62.8710  -12.8200 H   0  0  0  0  0  0  0  0  0  0  0  0
   22.6460   63.8160   -8.2790 C   0  0  2  0  0  3  0  0  0  0  0  0
   22.4380   63.5340   -7.0140 C   0  0  0  0  0  2  0  0  0  0  0  0
   23.2530   64.3990   -6.1270 C   0  0  2  0  0  3  0  0  0  0  0  0
   24.1620   65.0360   -7.0530 N   0  0  0  0  0  0  0  0  0  0  0  0
   23.6040   64.8940   -8.3210 N   0  0  0  0  0  0  0  0  0  0  0  0
   25.1350   64.6680   -6.9850 H   0  0  0  0  0  0  0  0  0  0  0  0
   23.8740   65.4980   -9.1260 H   0  0  0  0  0  0  0  0  0  0  0  0
   24.0560   63.6420   -5.1600 C   0  0  0  0  0  0  0  0  0  0  0  0
   25.1090   62.8790   -5.6400 C   0  0  0  0  0  3  0  0  0  0  0  0
   25.8820   62.1580   -4.7600 C   0  0  0  0  0  0  0  0  0  0  0  0
   25.6390   62.1720   -3.4060 C   0  0  0  0  0  3  0  0  0  0  0  0
   24.5980   62.9230   -2.9140 C   0  0  0  0  0  3  0  0  0  0  0  0
   23.8160   63.6530   -3.8100 C   0  0  0  0  0  3  0  0  0  0  0  0
   26.9500   61.3830   -5.2320 O   0  0  0  0  0  0  0  0  0  0  0  0
   27.1570   61.3820   -6.2150 H   0  0  0  0  0  0  0  0  0  0  0  0
   18.4890   62.8700  -10.7940 C   0  0  0  0  0  0  0  0  0  0  0  0
   17.9290   61.6500  -10.4680 C   0  0  0  0  0  3  0  0  0  0  0  0
   16.5670   61.4180  -10.4880 C   0  0  0  0  0  3  0  0  0  0  0  0
   15.7090   62.4470  -10.8500 C   0  0  0  0  0  0  0  0  0  0  0  0
   13.9990   62.1250  -10.8670 Cl  0  0  0  0  0  0  0  0  0  0  0  0
   16.2500   63.6860  -11.1830 C   0  0  0  0  0  3  0  0  0  0  0  0
   17.6190   63.8820  -11.1510 C   0  0  0  0  0  3  0  0  0  0  0  0
  1  8  1  0  0  0  0
  2  4  1  0  0  0  0
  2  1  1  0  0  0  0
  3  2  2  0  0  0  0
  4  5  1  0  0  0  0
  6  5  2  0  0  0  0
  7  5  1  6  0  0  0
  7 11  1  0  0  0  0
  8  7  1  0  0  0  0
  8  9  2  0  0  0  0
 10  4  1  0  0  0  0
 11 12  1  1  0  0  0
 12 13  1  0  0  0  0
 13 18  1  1  0  0  0
 14 16  1  0  0  0  0
 14 13  1  0  0  0  0
 15 11  1  0  0  0  0
 15 14  1  0  0  0  0
 17 15  1  0  0  0  0
 18 23  1  0  0  0  0
 19 18  2  0  0  0  0
 19 20  1  0  0  0  0
 20 21  2  0  0  0  0
 21 22  1  0  0  0  0
 23 22  2  0  0  0  0
 24 20  1  0  0  0  0
 25 24  1  0  0  0  0
 26  1  1  0  0  0  0
 26 27  1  0  0  0  0
 28 27  2  0  0  0  0
 29 28  1  0  0  0  0
 30 29  1  0  0  0  0
 31 32  1  0  0  0  0
 31 29  2  0  0  0  0
 32 26  2  0  0  0  0
M  END
>  <Pose>
1

>  <Score>
-11.749

$$$$
