/Users/jonathanwahrer/Desktop/Msc/3_Semester/Drug_Design_Praktikum/waehrer_HTS_screening/HTS_experiment/out/docking_results/vina_output/3sx0/2361_docked.pdbqt
 OpenBabel03192223173D

 30 33  0  0  1  0  0  0  0  0999 V2000
   22.8500   63.5230   -8.8330 N   0  0  0  0  0  0  0  0  0  0  0  0
   23.5400   62.6320   -9.6890 C   0  0  0  0  0  0  0  0  0  0  0  0
   24.4780   61.9240   -9.2440 O   0  0  0  0  0  0  0  0  0  0  0  0
   23.1470   62.5520  -11.0710 N   0  0  0  0  0  0  0  0  0  0  0  0
   22.0870   63.3510  -11.5770 C   0  0  0  0  0  0  0  0  0  0  0  0
   21.9800   63.5230  -12.8170 O   0  0  0  0  0  0  0  0  0  0  0  0
   21.1320   63.9630  -10.6390 C   0  0  2  0  0  3  0  0  0  0  0  0
   21.7980   64.3050   -9.3710 C   0  0  0  0  0  0  0  0  0  0  0  0
   21.4250   65.3410   -8.7190 O   0  0  0  0  0  0  0  0  0  0  0  0
   23.6280   61.9100  -11.7370 H   0  0  0  0  0  0  0  0  0  0  0  0
   19.9720   63.0440  -10.3810 C   0  0  1  0  0  3  0  0  0  0  0  0
   19.1980   62.4490  -11.2500 C   0  0  0  0  0  2  0  0  0  0  0  0
   18.1930   61.6470  -10.5340 C   0  0  1  0  0  3  0  0  0  0  0  0
   18.7010   61.5700   -9.1940 N   0  0  0  0  0  0  0  0  0  0  0  0
   19.5510   62.6810   -9.0770 N   0  0  0  0  0  0  0  0  0  0  0  0
   19.1950   60.6910   -9.0080 H   0  0  0  0  0  0  0  0  0  0  0  0
   19.7860   63.1080   -8.1520 H   0  0  0  0  0  0  0  0  0  0  0  0
   16.9240   62.4190  -10.5570 C   0  0  0  0  0  0  0  0  0  0  0  0
   15.7410   61.7960  -10.8770 C   0  0  0  0  0  3  0  0  0  0  0  0
   14.5740   62.4980  -10.9000 N   0  0  0  0  0  0  0  0  0  0  0  0
   14.5150   63.8100  -10.6190 C   0  0  0  0  0  3  0  0  0  0  0  0
   15.6820   64.4640  -10.2960 C   0  0  0  0  0  3  0  0  0  0  0  0
   16.8920   63.7570  -10.2670 C   0  0  0  0  0  3  0  0  0  0  0  0
   23.2160   63.6380   -7.4360 C   0  0  0  0  0  0  0  0  0  0  0  0
   22.4820   64.3950   -6.5490 C   0  0  0  0  0  3  0  0  0  0  0  0
   22.8460   64.4970   -5.2110 C   0  0  0  0  0  3  0  0  0  0  0  0
   23.9580   63.8430   -4.7250 C   0  0  0  0  0  0  0  0  0  0  0  0
   24.4220   63.9670   -3.0360 Cl  0  0  0  0  0  0  0  0  0  0  0  0
   24.6900   63.0880   -5.6160 C   0  0  0  0  0  3  0  0  0  0  0  0
   24.3270   62.9870   -6.9470 C   0  0  0  0  0  3  0  0  0  0  0  0
  1 24  1  0  0  0  0
  2  3  2  0  0  0  0
  2  1  1  0  0  0  0
  4  2  1  0  0  0  0
  5  4  1  0  0  0  0
  6  5  2  0  0  0  0
  7  5  1  6  0  0  0
  7 11  1  0  0  0  0
  7  8  1  0  0  0  0
  8  1  1  0  0  0  0
  8  9  2  0  0  0  0
 10  4  1  0  0  0  0
 11 12  1  6  0  0  0
 11 15  1  0  0  0  0
 12 13  1  0  0  0  0
 13 18  1  1  0  0  0
 13 14  1  0  0  0  0
 14 15  1  0  0  0  0
 14 16  1  0  0  0  0
 15 17  1  0  0  0  0
 18 23  1  0  0  0  0
 19 18  2  0  0  0  0
 20 19  1  0  0  0  0
 20 21  2  0  0  0  0
 21 22  1  0  0  0  0
 22 23  2  0  0  0  0
 24 30  2  0  0  0  0
 24 25  1  0  0  0  0
 25 26  2  0  0  0  0
 26 27  1  0  0  0  0
 27 28  1  0  0  0  0
 29 27  2  0  0  0  0
 30 29  1  0  0  0  0
M  END
>  <Pose>
1

>  <Score>
-8.912

$$$$
