/Users/jonathanwahrer/Desktop/Msc/3_Semester/Drug_Design_Praktikum/waehrer_HTS_screening/HTS_experiment/out/docking_results/vina_output/3sx0/2363_docked.pdbqt
 OpenBabel03192223173D

 33 36  0  0  1  0  0  0  0  0999 V2000
   10.4620   65.3060  -15.7010 N   0  0  0  0  0  0  0  0  0  0  0  0
   10.7260   64.3140  -14.7210 C   0  0  2  0  0  0  0  0  0  0  0  0
   10.1070   63.0230  -14.9800 C   0  0  0  0  0  0  0  0  0  0  0  0
    9.2620   62.8070  -16.0260 C   0  0  0  0  0  0  0  0  0  0  0  0
    8.6810   61.5370  -16.2030 C   0  0  0  0  0  3  0  0  0  0  0  0
    8.9260   60.4820  -15.3600 C   0  0  0  0  0  3  0  0  0  0  0  0
    9.7890   60.7200  -14.3020 C   0  0  0  0  0  3  0  0  0  0  0  0
   10.3520   61.9420  -14.1260 C   0  0  0  0  0  3  0  0  0  0  0  0
    8.9540   63.8330  -16.9840 N   0  0  0  0  0  0  0  0  0  0  0  0
    9.5870   65.0800  -16.7740 C   0  0  0  0  0  0  0  0  0  0  0  0
    9.3650   66.0420  -17.5780 O   0  0  0  0  0  0  0  0  0  0  0  0
    8.3050   63.6330  -17.7640 H   0  0  0  0  0  0  0  0  0  0  0  0
   10.1230   64.8330  -13.5210 O   0  0  0  0  0  0  0  0  0  0  0  0
   10.6740   64.5770  -12.7370 H   0  0  0  0  0  0  0  0  0  0  0  0
   12.1740   64.1980  -14.4080 C   0  0  0  0  0  0  0  0  0  0  0  0
   12.9660   63.8190  -15.2730 O   0  0  0  0  0  0  0  0  0  0  0  0
   12.5960   64.5340  -13.1080 N   0  0  0  0  0  0  0  0  0  0  0  0
   11.9240   64.8610  -12.3590 H   0  0  0  0  0  0  0  0  0  0  0  0
   13.9970   64.4580  -12.6910 C   0  0  0  0  0  2  0  0  0  0  0  0
   14.1470   64.1660  -11.2470 C   0  0  0  0  0  2  0  0  0  0  0  0
   15.3380   63.5330  -10.8300 N   0  0  0  0  0  0  0  0  0  0  0  0
   15.4000   62.1300  -10.8430 C   0  0  0  0  0  2  0  0  0  0  0  0
   16.8540   61.7040  -10.6200 C   0  0  0  0  0  2  0  0  0  0  0  0
   17.4990   62.6060   -9.7550 O   0  0  0  0  0  0  0  0  0  0  0  0
   17.7280   63.8300  -10.3810 C   0  0  0  0  0  2  0  0  0  0  0  0
   16.5510   64.1370  -11.2660 C   0  0  0  0  0  2  0  0  0  0  0  0
   11.1240   66.6130  -15.6040 C   0  0  0  0  0  0  0  0  0  0  0  0
   12.2250   66.9180  -16.3600 C   0  0  0  0  0  3  0  0  0  0  0  0
   12.8420   68.1610  -16.2570 C   0  0  0  0  0  3  0  0  0  0  0  0
   12.3360   69.0960  -15.3830 C   0  0  0  0  0  0  0  0  0  0  0  0
   13.1250   70.6730  -15.2590 Cl  0  0  0  0  0  0  0  0  0  0  0  0
   11.2300   68.8150  -14.6110 C   0  0  0  0  0  3  0  0  0  0  0  0
   10.6410   67.5700  -14.7380 C   0  0  0  0  0  3  0  0  0  0  0  0
  1 27  1  0  0  0  0
  1  2  1  0  0  0  0
  2 15  1  1  0  0  0
  2 13  1  0  0  0  0
  3  2  1  0  0  0  0
  3  8  1  0  0  0  0
  4  3  2  0  0  0  0
  5  4  1  0  0  0  0
  5  6  2  0  0  0  0
  6  7  1  0  0  0  0
  7  8  2  0  0  0  0
  9 10  1  0  0  0  0
  9  4  1  0  0  0  0
 10  1  1  0  0  0  0
 11 10  2  0  0  0  0
 12  9  1  0  0  0  0
 13 14  1  0  0  0  0
 15 17  1  0  0  0  0
 16 15  2  0  0  0  0
 17 19  1  0  0  0  0
 17 18  1  0  0  0  0
 19 20  1  0  0  0  0
 20 21  1  0  0  0  0
 22 21  1  0  0  0  0
 22 23  1  0  0  0  0
 23 24  1  0  0  0  0
 25 24  1  0  0  0  0
 26 21  1  0  0  0  0
 26 25  1  0  0  0  0
 27 33  1  0  0  0  0
 28 29  1  0  0  0  0
 28 27  2  0  0  0  0
 29 30  2  0  0  0  0
 30 31  1  0  0  0  0
 30 32  1  0  0  0  0
 33 32  2  0  0  0  0
M  END
>  <Pose>
1

>  <Score>
-5.717

$$$$
