/Users/jonathanwahrer/Desktop/Msc/3_Semester/Drug_Design_Praktikum/waehrer_HTS_screening/HTS_experiment/out/docking_results/vina_output/3sx0/2365_docked.pdbqt
 OpenBabel03192223183D

 32 36  0  0  1  0  0  0  0  0999 V2000
   14.2880   64.9780  -12.8300 N   0  0  0  0  0  0  0  0  0  0  0  0
   13.2620   64.4790  -13.6470 C   0  0  0  0  0  0  0  0  0  0  0  0
   13.2290   63.2320  -13.8740 O   0  0  0  0  0  0  0  0  0  0  0  0
   14.3290   66.0080  -12.6310 H   0  0  0  0  0  0  0  0  0  0  0  0
   12.2080   65.3140  -14.2680 C   0  0  1  0  0  0  0  0  0  0  0  0
   12.6170   66.7730  -14.2790 C   0  0  0  0  0  2  0  0  0  0  0  0
   11.5450   67.6250  -14.8970 C   0  0  1  0  0  0  0  0  0  0  0  0
   11.4010   67.1780  -16.3530 C   0  0  0  0  0  2  0  0  0  0  0  0
   10.2120   67.4630  -14.2350 C   0  0  0  0  0  2  0  0  0  0  0  0
   11.0120   65.7350  -16.3980 C   0  0  1  0  0  3  0  0  0  0  0  0
   12.0530   64.8820  -15.7110 C   0  0  0  0  0  2  0  0  0  0  0  0
    9.6820   65.5600  -15.7010 C   0  0  0  0  0  2  0  0  0  0  0  0
    9.8490   66.0010  -14.2660 C   0  0  1  0  0  3  0  0  0  0  0  0
   10.8760   65.1470  -13.5710 C   0  0  0  0  0  2  0  0  0  0  0  0
   12.0150   68.9960  -14.8680 N   0  0  0  0  0  0  0  0  0  0  0  0
   12.7160   69.6720  -15.7600 N   0  0  0  0  0  0  0  0  0  0  0  0
   12.9480   70.8920  -15.3750 N   0  0  0  0  0  0  0  0  0  0  0  0
   12.3920   71.0540  -14.1880 C   0  0  0  0  0  3  0  0  0  0  0  0
   11.8060   69.8670  -13.8680 N   0  0  0  0  0  0  0  0  0  0  0  0
   15.2390   64.1470  -12.2810 N   0  0  0  0  0  0  0  0  0  0  0  0
   15.8300   64.3260  -11.0080 C   0  0  0  0  0  0  0  0  0  0  0  0
   15.5080   65.2930  -10.2730 O   0  0  0  0  0  0  0  0  0  0  0  0
   15.5620   63.3090  -12.8420 H   0  0  0  0  0  0  0  0  0  0  0  0
   16.8570   63.3880  -10.4690 C   0  0  1  0  0  3  0  0  0  0  0  0
   16.3930   61.9710  -10.4730 C   0  0  0  0  0  1  0  0  0  0  0  0
   18.1420   63.5600  -11.2460 C   0  0  0  0  0  2  0  0  0  0  0  0
   19.3120   63.5170  -10.4020 N   0  0  0  0  0  0  0  0  0  0  0  0
   20.6120   63.6640  -10.7660 C   0  0  0  0  0  3  0  0  0  0  0  0
   21.4190   63.5560   -9.6510 C   0  0  0  0  0  0  0  0  0  0  0  0
   23.3170   63.6740   -9.5210 Br  0  0  0  0  0  0  0  0  0  0  0  0
   20.5370   63.3350   -8.5910 C   0  0  0  0  0  3  0  0  0  0  0  0
   19.2960   63.3240   -9.1110 N   0  0  0  0  0  0  0  0  0  0  0  0
  1  4  1  0  0  0  0
  1 20  1  0  0  0  0
  2  1  1  0  0  0  0
  3  2  2  0  0  0  0
  5  2  1  1  0  0  0
  5 14  1  0  0  0  0
  6  5  1  0  0  0  0
  7  8  1  6  0  0  0
  7 15  1  0  0  0  0
  7  6  1  0  0  0  0
  7  9  1  0  0  0  0
 10  8  1  1  0  0  0
 10 11  1  0  0  0  0
 10 12  1  0  0  0  0
 11  5  1  0  0  0  0
 13 12  1  6  0  0  0
 13  9  1  0  0  0  0
 13 14  1  0  0  0  0
 15 19  1  0  0  0  0
 16 17  2  0  0  0  0
 16 15  1  0  0  0  0
 17 18  1  0  0  0  0
 18 19  2  0  0  0  0
 20 21  1  0  0  0  0
 21 24  1  0  0  0  0
 21 22  2  0  0  0  0
 23 20  1  0  0  0  0
 24 25  1  6  0  0  0
 26 24  1  0  0  0  0
 26 27  1  0  0  0  0
 27 32  1  0  0  0  0
 28 27  1  0  0  0  0
 28 29  2  0  0  0  0
 29 30  1  0  0  0  0
 29 31  1  0  0  0  0
 32 31  2  0  0  0  0
M  END
>  <Pose>
1

>  <Score>
-7.420

$$$$
