/Users/jonathanwahrer/Desktop/Msc/3_Semester/Drug_Design_Praktikum/waehrer_HTS_screening/HTS_experiment/out/docking_results/vina_output/3sx0/2373_docked.pdbqt
 OpenBabel03192223183D

 28 31  0  0  1  0  0  0  0  0999 V2000
   21.4260   64.0790   -8.5330 N   0  0  0  0  0  0  0  0  0  0  0  0
   20.5180   63.3910   -9.2020 C   0  0  2  0  0  3  0  0  0  0  0  0
   20.9810   63.0410  -10.4320 N   0  0  0  0  0  0  0  0  0  0  0  0
   22.2010   63.5180  -10.5520 C   0  0  0  0  0  0  0  0  0  0  0  0
   22.4830   64.1780   -9.3370 C   0  0  0  0  0  3  0  0  0  0  0  0
   20.2370   62.2460  -11.3680 C   0  0  0  0  0  2  0  0  0  0  0  0
   19.1280   63.0770  -12.0100 C   0  0  0  0  0  2  0  0  0  0  0  0
   18.6410   64.0050  -10.8910 C   0  0  0  0  0  2  0  0  0  0  0  0
   18.1220   63.1460   -9.7710 C   0  0  0  0  0  2  0  0  0  0  0  0
   19.1650   63.0850   -8.6440 C   0  0  0  0  0  2  0  0  0  0  0  0
   21.3980   64.6710   -7.1920 C   0  0  0  0  0  2  0  0  0  0  0  0
   22.7930   64.9270   -6.7720 C   0  0  0  0  0  0  0  0  0  0  0  0
   23.3500   65.9840   -7.2210 O   0  0  0  0  0  0  0  0  0  0  0  0
   23.5460   64.0570   -5.8960 C   0  0  0  0  0  0  0  0  0  0  0  0
   23.2240   64.0330   -4.5340 C   0  0  0  0  0  3  0  0  0  0  0  0
   23.9060   63.2320   -3.6520 C   0  0  0  0  0  3  0  0  0  0  0  0
   24.9330   62.4200   -4.0630 C   0  0  0  0  0  0  0  0  0  0  0  0
   25.8400   61.3800   -2.9960 Cl  0  0  0  0  0  0  0  0  0  0  0  0
   25.2440   62.4510   -5.4140 C   0  0  0  0  0  3  0  0  0  0  0  0
   24.5670   63.2510   -6.3060 C   0  0  0  0  0  3  0  0  0  0  0  0
   23.1630   63.4190  -11.6530 C   0  0  0  0  0  0  0  0  0  0  0  0
   24.5140   63.3650  -11.5330 C   0  0  0  0  0  3  0  0  0  0  0  0
   25.3790   63.3410  -12.6270 C   0  0  0  0  0  3  0  0  0  0  0  0
   24.8850   63.3700  -13.9020 C   0  0  0  0  0  0  0  0  0  0  0  0
   23.5210   63.4220  -14.0570 C   0  0  0  0  0  3  0  0  0  0  0  0
   22.6800   63.4460  -12.9660 C   0  0  0  0  0  3  0  0  0  0  0  0
   25.7340   63.3470  -15.0220 O   0  0  0  0  0  0  0  0  0  0  0  0
   27.1320   63.3280  -14.9130 C   0  0  0  0  0  1  0  0  0  0  0  0
  1 11  1  0  0  0  0
  2 10  1  6  0  0  0
  2  1  1  0  0  0  0
  3  2  1  0  0  0  0
  4  3  1  0  0  0  0
  4  5  2  0  0  0  0
  5  1  1  0  0  0  0
  6  3  1  0  0  0  0
  7  6  1  0  0  0  0
  7  8  1  0  0  0  0
  8  9  1  0  0  0  0
  9 10  1  0  0  0  0
 11 12  1  0  0  0  0
 12 14  1  0  0  0  0
 13 12  2  0  0  0  0
 14 15  1  0  0  0  0
 15 16  2  0  0  0  0
 17 16  1  0  0  0  0
 17 18  1  0  0  0  0
 19 17  2  0  0  0  0
 20 14  2  0  0  0  0
 20 19  1  0  0  0  0
 21 22  1  0  0  0  0
 21  4  1  0  0  0  0
 23 22  2  0  0  0  0
 24 23  1  0  0  0  0
 25 24  2  0  0  0  0
 25 26  1  0  0  0  0
 26 21  2  0  0  0  0
 27 28  1  0  0  0  0
 27 24  1  0  0  0  0
M  END
>  <Pose>
1

>  <Score>
-8.909

$$$$
