/Users/jonathanwahrer/Desktop/Msc/3_Semester/Drug_Design_Praktikum/waehrer_HTS_screening/HTS_experiment/out/docking_results/vina_output/3sx0/2377_docked.pdbqt
 OpenBabel03192223193D

 33 36  0  0  0  0  0  0  0  0999 V2000
   14.7090   62.8360  -11.1900 N   0  0  0  0  0  0  0  0  0  0  0  0
   13.7630   63.7600  -10.5720 C   0  0  0  0  0  2  0  0  0  0  0  0
   13.0000   64.5640  -11.6010 C   0  0  0  0  0  2  0  0  0  0  0  0
   13.1210   63.8880  -12.8700 N   0  0  0  0  0  0  0  0  0  0  0  0
   12.9470   62.4470  -12.8370 C   0  0  0  0  0  2  0  0  0  0  0  0
   14.1920   61.8680  -12.1670 C   0  0  0  0  0  2  0  0  0  0  0  0
   13.3880   64.5370  -14.0930 C   0  0  0  0  0  0  0  0  0  0  0  0
   13.4720   63.8550  -15.1380 O   0  0  0  0  0  0  0  0  0  0  0  0
   16.0790   62.9140  -10.8750 C   0  0  0  0  0  0  0  0  0  0  0  0
   16.8600   61.8180  -10.5780 C   0  0  0  0  0  0  0  0  0  0  0  0
   16.0910   60.2510  -10.5280 Cl  0  0  0  0  0  0  0  0  0  0  0  0
   18.2240   61.9610  -10.3080 C   0  0  0  0  0  0  0  0  0  0  0  0
   18.8430   63.1480  -10.3200 N   0  0  0  0  0  0  0  0  0  0  0  0
   18.8700   60.9160  -10.0450 O   0  0  0  0  0  0  0  0  0  0  0  0
   18.0910   64.1900  -10.6050 N   0  0  0  0  0  0  0  0  0  0  0  0
   16.7740   64.1320  -10.8760 C   0  0  0  0  0  3  0  0  0  0  0  0
   20.2320   63.3020  -10.0450 C   0  0  0  0  0  0  0  0  0  0  0  0
   20.7180   63.4260   -8.7530 C   0  0  0  0  0  3  0  0  0  0  0  0
   22.0610   63.5750   -8.4690 C   0  0  0  0  0  3  0  0  0  0  0  0
   22.9500   63.6000   -9.5230 C   0  0  0  0  0  3  0  0  0  0  0  0
   22.4990   63.4800  -10.8250 C   0  0  0  0  0  3  0  0  0  0  0  0
   21.1310   63.3300  -11.0800 C   0  0  0  0  0  3  0  0  0  0  0  0
   13.5780   66.0030  -14.2130 C   0  0  0  0  0  2  0  0  0  0  0  0
   13.7070   66.4110  -15.6620 C   0  0  0  0  0  2  0  0  0  0  0  0
   12.5370   67.2200  -16.1380 C   0  0  0  0  0  2  0  0  0  0  0  0
   12.6300   68.6280  -15.8200 N   0  0  0  0  0  0  0  0  0  0  0  0
   12.0320   69.2750  -14.7120 C   0  0  0  0  0  0  0  0  0  0  0  0
   11.3110   68.7280  -13.8110 O   0  0  0  0  0  0  0  0  0  0  0  0
   12.3270   70.6550  -14.7020 N   0  0  0  0  0  0  0  0  0  0  0  0
   13.1460   70.9510  -15.8570 C   0  0  0  0  0  2  0  0  0  0  0  0
   11.8940   71.6210  -13.7140 C   0  0  0  0  0  1  0  0  0  0  0  0
   13.3310   69.6490  -16.5370 C   0  0  0  0  0  0  0  0  0  0  0  0
   13.9950   69.4590  -17.5780 O   0  0  0  0  0  0  0  0  0  0  0  0
  1  9  1  0  0  0  0
  1  2  1  0  0  0  0
  3  2  1  0  0  0  0
  4  5  1  0  0  0  0
  4  3  1  0  0  0  0
  5  6  1  0  0  0  0
  6  1  1  0  0  0  0
  7  4  1  0  0  0  0
  8  7  2  0  0  0  0
  9 10  2  0  0  0  0
 10 11  1  0  0  0  0
 10 12  1  0  0  0  0
 12 14  2  0  0  0  0
 13 12  1  0  0  0  0
 13 17  1  0  0  0  0
 15 13  1  0  0  0  0
 16  9  1  0  0  0  0
 16 15  2  0  0  0  0
 17 18  1  0  0  0  0
 18 19  2  0  0  0  0
 20 19  1  0  0  0  0
 21 20  2  0  0  0  0
 22 21  1  0  0  0  0
 22 17  2  0  0  0  0
 23  7  1  0  0  0  0
 24 23  1  0  0  0  0
 25 26  1  0  0  0  0
 25 24  1  0  0  0  0
 26 27  1  0  0  0  0
 27 29  1  0  0  0  0
 27 28  2  0  0  0  0
 29 31  1  0  0  0  0
 30 29  1  0  0  0  0
 32 30  1  0  0  0  0
 32 26  1  0  0  0  0
 33 32  2  0  0  0  0
M  END
>  <Pose>
1

>  <Score>
-7.404

$$$$
