/Users/jonathanwahrer/Desktop/Msc/3_Semester/Drug_Design_Praktikum/waehrer_HTS_screening/HTS_experiment/out/docking_results/vina_output/3sx0/2380_docked.pdbqt
 OpenBabel03192223193D

 27 30  0  0  1  0  0  0  0  0999 V2000
   21.8610   63.4430  -11.6140 Cl  0  0  0  0  0  0  0  0  0  0  0  0
   20.5370   63.2530  -10.4700 C   0  0  0  0  0  0  0  0  0  0  0  0
   20.7960   63.5050   -9.1440 C   0  0  0  0  0  0  0  0  0  0  0  0
   19.7330   63.3450   -8.2700 C   0  0  0  0  0  3  0  0  0  0  0  0
   18.5300   62.9630   -8.7340 N   0  0  0  0  0  0  0  0  0  0  0  0
   18.2670   62.7170  -10.0070 N   0  0  0  0  0  0  0  0  0  0  0  0
   19.2770   62.8620  -10.8820 C   0  0  0  0  0  0  0  0  0  0  0  0
   19.1010   62.6460  -12.1150 O   0  0  0  0  0  0  0  0  0  0  0  0
   22.0900   63.9020   -8.7440 N   0  0  0  0  0  0  0  0  0  0  0  0
   23.2430   63.0230   -8.8980 C   0  0  0  0  0  2  0  0  0  0  0  0
   23.6600   62.6620   -7.4590 C   0  0  0  0  0  2  0  0  0  0  0  0
   23.8370   63.8480   -6.6810 N   0  0  0  0  0  0  0  0  0  0  0  0
   23.6990   65.1400   -7.3850 C   0  0  0  0  0  2  0  0  0  0  0  0
   24.1360   63.8400   -5.2930 C   0  0  0  0  0  0  0  0  0  0  0  0
   22.3940   65.1920   -8.1540 C   0  0  0  0  0  2  0  0  0  0  0  0
   24.2840   64.9190   -4.6440 O   0  0  0  0  0  0  0  0  0  0  0  0
   24.2930   62.5980   -4.5170 C   0  0  1  0  0  3  0  0  0  0  0  0
   25.6020   62.2320   -4.4350 O   0  0  0  0  0  0  0  0  0  0  0  0
   25.8010   61.5880   -3.2210 C   0  0  0  0  0  2  0  0  0  0  0  0
   25.0030   62.4810   -2.2810 C   0  0  0  0  0  2  0  0  0  0  0  0
   23.7590   62.7300   -3.1080 C   0  0  0  0  0  2  0  0  0  0  0  0
   16.9600   62.3110  -10.4400 C   0  0  0  0  0  0  0  0  0  0  0  0
   16.0320   63.2560  -10.8280 C   0  0  0  0  0  3  0  0  0  0  0  0
   14.7560   62.8760  -11.2520 C   0  0  0  0  0  3  0  0  0  0  0  0
   14.4050   61.5500  -11.2880 C   0  0  0  0  0  3  0  0  0  0  0  0
   15.3170   60.6000  -10.9050 C   0  0  0  0  0  3  0  0  0  0  0  0
   16.5670   60.9900  -10.4910 C   0  0  0  0  0  3  0  0  0  0  0  0
  1  2  1  0  0  0  0
  2  3  2  0  0  0  0
  3  9  1  0  0  0  0
  3  4  1  0  0  0  0
  5  4  2  0  0  0  0
  6  5  1  0  0  0  0
  7  2  1  0  0  0  0
  7  6  1  0  0  0  0
  8  7  2  0  0  0  0
  9 15  1  0  0  0  0
 10  9  1  0  0  0  0
 10 11  1  0  0  0  0
 11 12  1  0  0  0  0
 12 14  1  0  0  0  0
 13 12  1  0  0  0  0
 14 16  2  0  0  0  0
 15 13  1  0  0  0  0
 17 14  1  1  0  0  0
 17 18  1  0  0  0  0
 17 21  1  0  0  0  0
 18 19  1  0  0  0  0
 19 20  1  0  0  0  0
 21 20  1  0  0  0  0
 22  6  1  0  0  0  0
 23 22  2  0  0  0  0
 24 23  1  0  0  0  0
 25 24  2  0  0  0  0
 25 26  1  0  0  0  0
 26 27  2  0  0  0  0
 27 22  1  0  0  0  0
M  END
>  <Pose>
1

>  <Score>
-8.618

$$$$
