/Users/jonathanwahrer/Desktop/Msc/3_Semester/Drug_Design_Praktikum/waehrer_HTS_screening/HTS_experiment/out/docking_results/vina_output/3sx0/2386_docked.pdbqt
 OpenBabel03192223203D

 30 33  0  0  0  0  0  0  0  0999 V2000
   25.6300   62.9660  -12.4310 Cl  0  0  0  0  0  0  0  0  0  0  0  0
   23.9780   63.1540  -11.8500 C   0  0  0  0  0  0  0  0  0  0  0  0
   23.7750   63.0620  -10.4750 C   0  0  0  0  0  3  0  0  0  0  0  0
   22.4890   63.2070  -10.0060 C   0  0  0  0  0  0  0  0  0  0  0  0
   21.4410   63.4370  -10.8880 C   0  0  0  0  0  0  0  0  0  0  0  0
   21.6530   63.5270  -12.2580 C   0  0  0  0  0  3  0  0  0  0  0  0
   22.9460   63.3810  -12.7290 C   0  0  0  0  0  3  0  0  0  0  0  0
   20.1230   63.5920  -10.4940 O   0  0  0  0  0  0  0  0  0  0  0  0
   19.4510   63.0740   -9.3800 C   0  0  0  0  0  0  0  0  0  0  0  0
   19.9830   63.4710   -8.0510 C   0  0  0  0  0  2  0  0  0  0  0  0
   21.3510   63.8730   -8.0010 N   0  0  0  0  0  0  0  0  0  0  0  0
   22.4710   63.0800   -8.5240 C   0  0  0  0  0  2  0  0  0  0  0  0
   21.6780   65.1200   -7.4010 C   0  0  0  0  0  0  0  0  0  0  0  0
   20.7280   65.7940   -6.9410 O   0  0  0  0  0  0  0  0  0  0  0  0
   17.9760   63.5100   -9.4700 C   0  0  0  0  0  2  0  0  0  0  0  0
   17.5120   63.1520  -10.8560 C   0  0  0  0  0  2  0  0  0  0  0  0
   18.4590   62.4360  -11.5670 O   0  0  0  0  0  0  0  0  0  0  0  0
   18.8500   61.2770  -10.9200 C   0  0  0  0  0  2  0  0  0  0  0  0
   19.3740   61.5450   -9.5260 C   0  0  0  0  0  2  0  0  0  0  0  0
   23.0450   65.6100   -7.3090 C   0  0  0  0  0  2  0  0  0  0  0  0
   23.7530   65.4710   -6.0240 C   0  0  0  0  0  2  0  0  0  0  0  0
   23.3450   64.4270   -5.0710 C   0  0  0  0  0  2  0  0  0  0  0  0
   24.3050   63.5530   -4.5090 N   0  0  0  0  0  0  0  0  0  0  0  0
   25.0380   62.5690   -5.2150 C   0  0  0  0  0  0  0  0  0  0  0  0
   24.9930   62.2850   -6.4490 O   0  0  0  0  0  0  0  0  0  0  0  0
   25.8760   61.9180   -4.2760 N   0  0  0  0  0  0  0  0  0  0  0  0
   25.9450   62.7340   -3.0660 C   0  0  0  0  0  2  0  0  0  0  0  0
   26.3760   61.0140   -4.3870 H   0  0  0  0  0  0  0  0  0  0  0  0
   24.6880   63.5070   -3.1480 C   0  0  0  0  0  0  0  0  0  0  0  0
   24.0760   64.0290   -2.1470 O   0  0  0  0  0  0  0  0  0  0  0  0
  1  2  1  0  0  0  0
  2  3  1  0  0  0  0
  3  4  2  0  0  0  0
  4 12  1  0  0  0  0
  5  8  1  0  0  0  0
  5  4  1  0  0  0  0
  6  5  2  0  0  0  0
  7  6  1  0  0  0  0
  7  2  2  0  0  0  0
  8  9  1  0  0  0  0
  9 10  1  0  0  0  0
 10 11  1  0  0  0  0
 11 13  1  0  0  0  0
 12 11  1  0  0  0  0
 13 20  1  0  0  0  0
 13 14  2  0  0  0  0
 15  9  1  0  0  0  0
 16 15  1  0  0  0  0
 17 18  1  0  0  0  0
 17 16  1  0  0  0  0
 18 19  1  0  0  0  0
 19  9  1  0  0  0  0
 20 21  1  0  0  0  0
 21 22  1  0  0  0  0
 22 23  1  0  0  0  0
 23 29  1  0  0  0  0
 24 23  1  0  0  0  0
 24 26  1  0  0  0  0
 25 24  2  0  0  0  0
 26 27  1  0  0  0  0
 28 26  1  0  0  0  0
 29 27  1  0  0  0  0
 29 30  2  0  0  0  0
M  END
>  <Pose>
1

>  <Score>
-7.483

$$$$
