/Users/jonathanwahrer/Desktop/Msc/3_Semester/Drug_Design_Praktikum/waehrer_HTS_screening/HTS_experiment/out/docking_results/vina_output/3sx0/2402_docked.pdbqt
 OpenBabel03192223203D

 33 36  0  0  1  0  0  0  0  0999 V2000
   21.8730   63.3820   -9.2440 C   0  0  2  0  0  3  0  0  0  0  0  0
   22.6640   63.2350  -10.4290 N   0  0  0  0  0  0  0  0  0  0  0  0
   21.8680   63.4230  -11.5890 C   0  0  0  0  0  0  0  0  0  0  0  0
   22.1970   63.5540  -12.7930 O   0  0  0  0  0  0  0  0  0  0  0  0
   20.4460   63.4480  -11.1730 C   0  0  0  0  0  0  0  0  0  0  0  0
   19.4450   63.5960  -11.9180 O   0  0  0  0  0  0  0  0  0  0  0  0
   20.4720   63.2690   -9.7340 C   0  0  0  0  0  0  0  0  0  0  0  0
   19.3660   63.0600   -9.0080 C   0  0  0  0  0  0  0  0  0  0  0  0
   19.5940   62.9430   -7.6310 O   0  0  0  0  0  1  0  0  0  0  0  0
   22.1560   64.5680   -8.4530 C   0  0  0  0  0  0  0  0  0  0  0  0
   21.3190   65.6640   -8.5490 C   0  0  0  0  0  3  0  0  0  0  0  0
   21.4960   66.8200   -7.8470 C   0  0  0  0  0  3  0  0  0  0  0  0
   22.5520   66.9330   -6.9910 C   0  0  0  0  0  0  0  0  0  0  0  0
   22.7540   68.5740   -6.0300 Br  0  0  0  0  0  0  0  0  0  0  0  0
   23.4220   65.8780   -6.8510 C   0  0  0  0  0  3  0  0  0  0  0  0
   23.2150   64.7100   -7.5820 C   0  0  0  0  0  3  0  0  0  0  0  0
   18.0320   62.9540   -9.5870 C   0  0  0  0  0  0  0  0  0  0  0  0
   17.3520   61.9250   -9.9590 O   0  0  0  0  0  0  0  0  0  0  0  0
   16.1770   62.1960  -10.4440 C   0  0  0  0  0  0  0  0  0  0  0  0
   16.0160   63.5730  -10.4070 C   0  0  0  0  0  0  0  0  0  0  0  0
   15.1460   61.4230  -10.9460 C   0  0  0  0  0  0  0  0  0  0  0  0
   17.2130   64.0330   -9.8560 C   0  0  0  0  0  3  0  0  0  0  0  0
   14.8490   64.1350  -10.8660 C   0  0  0  0  0  3  0  0  0  0  0  0
   13.8350   63.3490  -11.3640 C   0  0  0  0  0  3  0  0  0  0  0  0
   13.9890   61.9690  -11.4050 C   0  0  0  0  0  3  0  0  0  0  0  0
   15.3290   60.0560  -10.9720 O   0  0  0  0  0  0  0  0  0  0  0  0
   16.3970   59.3730  -10.3310 C   0  0  0  0  0  1  0  0  0  0  0  0
   24.0700   62.9400  -10.4770 C   0  0  0  0  0  2  0  0  0  0  0  0
   24.5030   62.5090  -11.8660 C   0  0  0  0  0  2  0  0  0  0  0  0
   25.3760   63.4320  -12.5040 N   0  0  0  0  0  4  0  0  0  0  0  0
   26.7620   63.0740  -12.5210 C   0  0  0  0  0  1  0  0  0  0  0  0
   24.9120   63.7470  -13.8480 C   0  0  0  0  0  1  0  0  0  0  0  0
   25.3160   64.3470  -11.9640 H   0  0  0  0  0  0  0  0  0  0  0  0
  1 10  1  6  0  0  0
  2  1  1  0  0  0  0
  3  5  1  0  0  0  0
  3  2  1  0  0  0  0
  4  3  2  0  0  0  0
  5  7  1  0  0  0  0
  6  5  2  0  0  0  0
  7  1  1  0  0  0  0
  7  8  2  0  0  0  0
  8  9  1  0  0  0  0
 10 16  1  0  0  0  0
 11 10  2  0  0  0  0
 11 12  1  0  0  0  0
 12 13  2  0  0  0  0
 13 15  1  0  0  0  0
 13 14  1  0  0  0  0
 16 15  2  0  0  0  0
 17  8  1  0  0  0  0
 18 17  1  0  0  0  0
 19 20  1  0  0  0  0
 19 18  1  0  0  0  0
 20 22  1  0  0  0  0
 21 19  2  0  0  0  0
 22 17  2  0  0  0  0
 23 20  2  0  0  0  0
 24 23  1  0  0  0  0
 25 24  2  0  0  0  0
 25 21  1  0  0  0  0
 26 21  1  0  0  0  0
 26 27  1  0  0  0  0
 28  2  1  0  0  0  0
 29 28  1  0  0  0  0
 30 33  1  0  0  0  0
 30 29  1  0  0  0  0
 31 30  1  0  0  0  0
 32 30  1  0  0  0  0
M  END
>  <Pose>
1

>  <Score>
-7.370

$$$$
