/Users/jonathanwahrer/Desktop/Msc/3_Semester/Drug_Design_Praktikum/waehrer_HTS_screening/HTS_experiment/out/docking_results/vina_output/3sx0/2416_docked.pdbqt
 OpenBabel03192223203D

 34 37  0  0  1  0  0  0  0  0999 V2000
   17.2360   62.6340  -10.5590 N   0  0  0  0  0  0  0  0  0  0  0  0
   16.2740   61.6490  -10.7570 C   0  0  0  0  0  2  0  0  0  0  0  0
   14.8830   62.2960  -10.7220 C   0  0  0  0  0  2  0  0  0  0  0  0
   14.9220   63.5760  -11.4310 N   0  0  0  0  0  0  0  0  0  0  0  0
   15.8770   64.5490  -10.9390 C   0  0  0  0  0  2  0  0  0  0  0  0
   16.7730   63.8050   -9.9380 C   0  0  0  0  0  2  0  0  0  0  0  0
   14.0710   63.8050  -12.5480 C   0  0  0  0  0  0  0  0  0  0  0  0
   13.3030   62.8760  -12.8900 O   0  0  0  0  0  0  0  0  0  0  0  0
   14.1020   65.0810  -13.2630 C   0  0  0  0  0  2  0  0  0  0  0  0
   13.2640   65.1030  -14.5330 C   0  0  2  0  0  3  0  0  0  0  0  0
   13.9440   65.6830  -15.6610 N   0  0  0  0  0  0  0  0  0  0  0  0
   13.7500   66.8940  -16.3770 C   0  0  0  0  0  0  0  0  0  0  0  0
   14.7600   65.1300  -16.0730 H   0  0  0  0  0  0  0  0  0  0  0  0
   14.1910   67.0100  -17.5510 O   0  0  0  0  0  0  0  0  0  0  0  0
   13.0550   68.1090  -15.9010 C   0  0  0  0  0  0  0  0  0  0  0  0
   12.0680   68.1760  -14.9110 C   0  0  0  0  0  0  0  0  0  0  0  0
   13.4620   69.2650  -16.5150 C   0  0  0  0  0  3  0  0  0  0  0  0
   11.5290   69.3870  -14.5800 C   0  0  0  0  0  3  0  0  0  0  0  0
   11.5430   67.0770  -14.1830 N   0  0  0  0  0  0  0  0  0  0  0  0
   11.9240   70.5790  -15.1890 C   0  0  0  0  0  3  0  0  0  0  0  0
   12.9110   70.4800  -16.1700 C   0  0  0  0  0  3  0  0  0  0  0  0
   11.9460   65.7050  -14.2370 C   0  0  0  0  0  0  0  0  0  0  0  0
   10.7850   67.3070  -13.5410 H   0  0  0  0  0  0  0  0  0  0  0  0
   10.9790   64.9030  -13.9830 O   0  0  0  0  0  0  0  0  0  0  0  0
   18.8570   62.3390  -10.7400 S   0  0  0  0  0  0  0  0  0  0  0  0
   19.1330   60.8890  -10.3890 O   0  0  0  0  0  0  0  0  0  0  0  0
   19.3640   62.5160  -12.1560 O   0  0  0  0  0  0  0  0  0  0  0  0
   19.8850   63.3100   -9.6800 C   0  0  0  0  0  0  0  0  0  0  0  0
   20.6080   64.3780  -10.1580 C   0  0  0  0  0  3  0  0  0  0  0  0
   21.4000   65.1020   -9.2940 C   0  0  0  0  0  3  0  0  0  0  0  0
   21.5120   64.8130   -7.9470 C   0  0  0  0  0  0  0  0  0  0  0  0
   20.7800   63.7340   -7.4660 C   0  0  0  0  0  3  0  0  0  0  0  0
   22.5040   65.7190   -6.8520 Cl  0  0  0  0  0  0  0  0  0  0  0  0
   19.9910   63.0140   -8.3340 C   0  0  0  0  0  3  0  0  0  0  0  0
  1  6  1  0  0  0  0
  2  3  1  0  0  0  0
  2  1  1  0  0  0  0
  4  5  1  0  0  0  0
  4  3  1  0  0  0  0
  5  6  1  0  0  0  0
  7  4  1  0  0  0  0
  8  7  2  0  0  0  0
  9  7  1  0  0  0  0
 10 22  1  0  0  0  0
 10  9  1  1  0  0  0
 11 10  1  0  0  0  0
 12 15  1  0  0  0  0
 12 11  1  0  0  0  0
 13 11  1  0  0  0  0
 14 12  2  0  0  0  0
 15 16  1  0  0  0  0
 16 18  2  0  0  0  0
 16 19  1  0  0  0  0
 17 21  1  0  0  0  0
 17 15  2  0  0  0  0
 19 23  1  0  0  0  0
 20 18  1  0  0  0  0
 21 20  2  0  0  0  0
 22 19  1  0  0  0  0
 22 24  2  0  0  0  0
 25  1  1  0  0  0  0
 25 26  2  0  0  0  0
 25 28  1  0  0  0  0
 27 25  2  0  0  0  0
 28 34  1  0  0  0  0
 29 28  2  0  0  0  0
 29 30  1  0  0  0  0
 30 31  2  0  0  0  0
 31 32  1  0  0  0  0
 31 33  1  0  0  0  0
 34 32  2  0  0  0  0
M  END
>  <Pose>
1

>  <Score>
-8.605

$$$$
