/Users/jonathanwahrer/Desktop/Msc/3_Semester/Drug_Design_Praktikum/waehrer_HTS_screening/HTS_experiment/out/docking_results/vina_output/3sx0/2417_docked.pdbqt
 OpenBabel03192223213D

 27 30  0  0  1  0  0  0  0  0999 V2000
   20.6910   62.7050   -9.9690 N   0  0  0  0  0  0  0  0  0  0  0  0
   21.4820   62.9990   -8.7520 C   0  0  0  0  0  2  0  0  0  0  0  0
   21.9610   64.3560   -9.0010 C   0  0  2  0  0  3  0  0  0  0  0  0
   22.5630   64.1920  -10.3870 C   0  0  2  0  0  3  0  0  0  0  0  0
   21.3340   63.3970  -11.0020 C   0  0  0  0  0  2  0  0  0  0  0  0
   19.3000   63.0530   -9.6420 C   0  0  0  0  0  2  0  0  0  0  0  0
   18.2940   62.0600   -9.9210 C   0  0  0  0  0  0  0  0  0  0  0  0
   16.9740   62.1890  -10.2930 C   0  0  0  0  0  0  0  0  0  0  0  0
   16.2610   63.2850  -10.7160 C   0  0  0  0  0  0  0  0  0  0  0  0
   16.3350   60.9710  -10.3110 C   0  0  0  0  0  0  0  0  0  0  0  0
   17.0300   64.8620  -10.5750 Cl  0  0  0  0  0  0  0  0  0  0  0  0
   14.9690   63.1860  -11.1560 C   0  0  0  0  0  3  0  0  0  0  0  0
   14.3420   61.9440  -11.1690 C   0  0  0  0  0  3  0  0  0  0  0  0
   15.0500   60.8190  -10.7370 C   0  0  0  0  0  3  0  0  0  0  0  0
   17.2740   60.0790   -9.9260 N   0  0  0  0  0  0  0  0  0  0  0  0
   18.4040   60.6980   -9.7080 N   0  0  0  0  0  0  0  0  0  0  0  0
   17.0040   58.6520   -9.6780 C   0  0  0  0  0  1  0  0  0  0  0  0
   22.9980   64.8750   -8.0380 C   0  0  0  0  0  2  0  0  0  0  0  0
   23.0070   64.0320   -6.8840 N   0  0  0  0  0  0  0  0  0  0  0  0
   24.1100   63.0940   -6.8760 C   0  0  0  0  0  2  0  0  0  0  0  0
   25.0070   63.2250   -5.6670 C   0  0  0  0  0  2  0  0  0  0  0  0
   24.3400   63.1630   -4.4650 O   0  0  0  0  0  0  0  0  0  0  0  0
   23.0840   63.7620   -4.5120 C   0  0  0  0  0  2  0  0  0  0  0  0
   23.0500   64.7550   -5.6340 C   0  0  0  0  0  2  0  0  0  0  0  0
   23.6730   63.1810  -10.3890 C   0  0  0  0  0  2  0  0  0  0  0  0
   23.6860   62.5060  -11.6380 O   0  0  0  0  0  0  0  0  0  0  0  0
   22.8450   62.8410  -12.1350 H   0  0  0  0  0  0  0  0  0  0  0  0
  1  6  1  0  0  0  0
  1  2  1  0  0  0  0
  3  2  1  0  0  0  0
  3 18  1  1  0  0  0
  4 25  1  1  0  0  0
  4  3  1  0  0  0  0
  5  4  1  0  0  0  0
  5  1  1  0  0  0  0
  7 16  2  0  0  0  0
  7  6  1  0  0  0  0
  8  7  1  0  0  0  0
  9 11  1  0  0  0  0
  9  8  2  0  0  0  0
 10  8  1  0  0  0  0
 10 15  1  0  0  0  0
 12  9  1  0  0  0  0
 13 12  2  0  0  0  0
 13 14  1  0  0  0  0
 14 10  2  0  0  0  0
 15 16  1  0  0  0  0
 15 17  1  0  0  0  0
 18 19  1  0  0  0  0
 19 20  1  0  0  0  0
 19 24  1  0  0  0  0
 20 21  1  0  0  0  0
 21 22  1  0  0  0  0
 23 22  1  0  0  0  0
 24 23  1  0  0  0  0
 26 25  1  0  0  0  0
 27 26  1  0  0  0  0
M  END
>  <Pose>
1

>  <Score>
-8.699

$$$$
