/Users/jonathanwahrer/Desktop/Msc/3_Semester/Drug_Design_Praktikum/waehrer_HTS_screening/HTS_experiment/out/docking_results/vina_output/3sx0/2420_docked.pdbqt
 OpenBabel03192223213D

 29 32  0  0  1  0  0  0  0  0999 V2000
   20.3920   63.5150  -10.4840 N   0  0  0  0  0  0  0  0  0  0  0  0
   20.5960   64.7810   -9.7830 C   0  0  0  0  0  2  0  0  0  0  0  0
   22.0800   64.7710   -9.4910 C   0  0  2  0  0  3  0  0  0  0  0  0
   22.6610   64.2470  -10.7990 C   0  0  0  0  0  2  0  0  0  0  0  0
   21.5420   63.3870  -11.3240 C   0  0  0  0  0  0  0  0  0  0  0  0
   21.6010   62.6550  -12.3560 O   0  0  0  0  0  0  0  0  0  0  0  0
   22.4180   63.8560   -8.3750 C   0  0  0  0  0  0  0  0  0  0  0  0
   21.4780   63.3890   -7.6860 O   0  0  0  0  0  0  0  0  0  0  0  0
   23.7480   63.4950   -8.0620 N   0  0  0  0  0  0  0  0  0  0  0  0
   24.5090   63.9080   -8.6600 H   0  0  0  0  0  0  0  0  0  0  0  0
   24.0840   62.6060   -6.9800 C   0  0  0  0  0  2  0  0  0  0  0  0
   24.4410   63.4170   -5.7520 C   0  0  0  0  0  2  0  0  0  0  0  0
   24.3830   62.6470   -4.5340 N   0  0  0  0  0  0  0  0  0  0  0  0
   25.7080   62.0770   -4.3160 C   0  0  0  0  0  2  0  0  0  0  0  0
   26.6110   63.0880   -3.6130 C   0  0  0  0  0  2  0  0  0  0  0  0
   26.2140   63.3450   -2.3220 O   0  0  0  0  0  0  0  0  0  0  0  0
   24.8810   63.0360   -2.1810 C   0  0  0  0  0  2  0  0  0  0  0  0
   24.0640   63.4610   -3.3840 C   0  0  0  0  0  2  0  0  0  0  0  0
   19.2930   62.6270  -10.3500 C   0  0  0  0  0  0  0  0  0  0  0  0
   19.2460   61.3640   -9.9080 N   0  0  0  0  0  0  0  0  0  0  0  0
   18.0050   60.9030   -9.9540 N   0  0  0  0  0  0  0  0  0  0  0  0
   17.1780   61.8710  -10.4410 C   0  0  0  0  0  0  0  0  0  0  0  0
   17.6150   59.9650   -9.6860 H   0  0  0  0  0  0  0  0  0  0  0  0
   15.8430   61.9600  -10.7000 C   0  0  0  0  0  3  0  0  0  0  0  0
   17.9860   62.9540  -10.6890 C   0  0  0  0  0  0  0  0  0  0  0  0
   15.2810   63.1110  -11.2070 C   0  0  0  0  0  0  0  0  0  0  0  0
   13.4140   63.2110  -11.5620 Br  0  0  0  0  0  0  0  0  0  0  0  0
   16.0960   64.2150  -11.4620 C   0  0  0  0  0  3  0  0  0  0  0  0
   17.4450   64.1270  -11.2000 C   0  0  0  0  0  3  0  0  0  0  0  0
  1 19  1  0  0  0  0
  1  2  1  0  0  0  0
  2  3  1  0  0  0  0
  3  7  1  1  0  0  0
  4  3  1  0  0  0  0
  5  4  1  0  0  0  0
  5  1  1  0  0  0  0
  6  5  2  0  0  0  0
  7  9  1  0  0  0  0
  7  8  2  0  0  0  0
  9 11  1  0  0  0  0
 10  9  1  0  0  0  0
 11 12  1  0  0  0  0
 12 13  1  0  0  0  0
 13 14  1  0  0  0  0
 13 18  1  0  0  0  0
 14 15  1  0  0  0  0
 15 16  1  0  0  0  0
 16 17  1  0  0  0  0
 18 17  1  0  0  0  0
 19 20  2  0  0  0  0
 21 20  1  0  0  0  0
 21 23  1  0  0  0  0
 22 21  1  0  0  0  0
 24 22  2  0  0  0  0
 25 22  1  0  0  0  0
 25 19  1  0  0  0  0
 26 24  1  0  0  0  0
 27 26  1  0  0  0  0
 28 26  2  0  0  0  0
 28 29  1  0  0  0  0
 29 25  2  0  0  0  0
M  END
>  <Pose>
1

>  <Score>
-8.036

$$$$
