/Users/jonathanwahrer/Desktop/Msc/3_Semester/Drug_Design_Praktikum/waehrer_HTS_screening/HTS_experiment/out/docking_results/vina_output/3sx0/2432_docked.pdbqt
 OpenBabel03192223213D

 26 29  0  0  0  0  0  0  0  0999 V2000
   23.4130   63.2140  -10.4930 C   0  0  0  0  0  0  0  0  0  0  0  0
   24.0920   62.2560   -9.8900 O   0  0  0  0  0  0  0  0  0  0  0  0
   22.4880   63.9060   -9.7270 N   0  0  0  0  0  0  0  0  0  0  0  0
   22.3050   63.4860   -8.3170 C   0  0  0  0  0  2  0  0  0  0  0  0
   20.8680   63.0540   -8.1960 C   0  0  0  0  0  2  0  0  0  0  0  0
   20.0720   63.2940   -9.3570 N   0  0  0  0  0  0  0  0  0  0  0  0
   20.2730   64.4080  -10.2720 C   0  0  0  0  0  2  0  0  0  0  0  0
   21.6610   64.9990  -10.0820 C   0  0  0  0  0  2  0  0  0  0  0  0
   23.7820   63.3550  -11.8770 C   0  0  0  0  0  0  0  0  0  0  0  0
   23.0360   63.4960  -12.9740 N   0  0  0  0  0  0  0  0  0  0  0  0
   23.8010   63.6170  -14.0950 C   0  0  0  0  0  0  0  0  0  0  0  0
   22.0020   63.5130  -13.0750 H   0  0  0  0  0  0  0  0  0  0  0  0
   23.2750   63.8220  -15.7520 Cl  0  0  0  0  0  0  0  0  0  0  0  0
   25.1160   63.5530  -13.7240 C   0  0  0  0  0  0  0  0  0  0  0  0
   25.0970   63.3910  -12.3590 C   0  0  0  0  0  3  0  0  0  0  0  0
   26.5080   63.6560  -14.7810 Cl  0  0  0  0  0  0  0  0  0  0  0  0
   19.0060   62.4100   -9.6780 C   0  0  0  0  0  0  0  0  0  0  0  0
   19.1510   61.0760   -9.5690 N   0  0  0  0  0  0  0  0  0  0  0  0
   18.1480   60.2190   -9.8720 C   0  0  0  0  0  3  0  0  0  0  0  0
   16.9600   60.6860  -10.2960 N   0  0  0  0  0  0  0  0  0  0  0  0
   16.7350   62.0030  -10.4310 C   0  0  0  0  0  0  0  0  0  0  0  0
   15.6620   62.7130  -10.8250 N   0  0  0  0  0  0  0  0  0  0  0  0
   17.7830   62.8740  -10.1130 C   0  0  0  0  0  0  0  0  0  0  0  0
   15.9970   63.9860  -10.7670 N   0  0  0  0  0  0  0  0  0  0  0  0
   14.3560   62.2040  -11.2450 C   0  0  0  0  0  1  0  0  0  0  0  0
   17.2740   64.1250  -10.3400 C   0  0  0  0  0  3  0  0  0  0  0  0
  1  2  2  0  0  0  0
  1  3  1  0  0  0  0
  3  4  1  0  0  0  0
  4  5  1  0  0  0  0
  6  5  1  0  0  0  0
  7  8  1  0  0  0  0
  7  6  1  0  0  0  0
  8  3  1  0  0  0  0
  9  1  1  0  0  0  0
 10  9  1  0  0  0  0
 11 14  2  0  0  0  0
 11 10  1  0  0  0  0
 12 10  1  0  0  0  0
 13 11  1  0  0  0  0
 14 15  1  0  0  0  0
 15  9  2  0  0  0  0
 16 14  1  0  0  0  0
 17 18  1  0  0  0  0
 17  6  1  0  0  0  0
 19 18  2  0  0  0  0
 20 19  1  0  0  0  0
 21 20  2  0  0  0  0
 21 23  1  0  0  0  0
 22 24  1  0  0  0  0
 22 21  1  0  0  0  0
 23 17  2  0  0  0  0
 24 26  2  0  0  0  0
 25 22  1  0  0  0  0
 26 23  1  0  0  0  0
M  END
>  <Pose>
1

>  <Score>
-8.767

$$$$
