/Users/jonathanwahrer/Desktop/Msc/3_Semester/Drug_Design_Praktikum/waehrer_HTS_screening/HTS_experiment/out/docking_results/vina_output/3sx0/2440_docked.pdbqt
 OpenBabel03192223223D

 33 36  0  0  1  0  0  0  0  0999 V2000
   15.8430   64.4990   -9.7690 Cl  0  0  0  0  0  0  0  0  0  0  0  0
   17.1110   63.3230  -10.0980 C   0  0  0  0  0  0  0  0  0  0  0  0
   18.4390   63.7580   -9.9690 C   0  0  0  0  0  0  0  0  0  0  0  0
   19.4200   62.8400  -10.2250 C   0  0  0  0  0  0  0  0  0  0  0  0
   19.1110   61.5160  -10.6020 C   0  0  0  0  0  3  0  0  0  0  0  0
   17.8090   61.1030  -10.7250 C   0  0  0  0  0  3  0  0  0  0  0  0
   16.8240   62.0310  -10.4650 C   0  0  0  0  0  3  0  0  0  0  0  0
   20.7170   63.4990  -10.0200 C   0  0  2  0  0  0  0  0  0  0  0  0
   21.6210   63.3800  -11.1070 N   0  0  0  0  0  0  0  0  0  0  0  0
   22.9500   63.4110  -10.6790 C   0  0  1  0  0  3  0  0  0  0  0  0
   22.8910   63.1180   -9.1960 C   0  0  2  0  0  3  0  0  0  0  0  0
   21.4610   62.8690   -8.8440 C   0  0  1  0  0  3  0  0  0  0  0  0
   21.1840   63.5700   -7.5630 C   0  0  0  0  0  0  0  0  0  0  0  0
   20.1040   63.4790   -6.9340 O   0  0  0  0  0  0  0  0  0  0  0  0
   22.3440   64.3280   -7.2180 N   0  0  0  0  0  0  0  0  0  0  0  0
   23.2110   64.2970   -8.3610 C   0  0  0  0  0  0  0  0  0  0  0  0
   24.0910   65.1410   -8.5970 O   0  0  0  0  0  0  0  0  0  0  0  0
   20.3980   64.8850   -9.6630 C   0  0  0  0  0  0  0  0  0  0  0  0
   21.1880   65.8490   -9.4190 O   0  0  0  0  0  0  0  0  0  0  0  0
   18.9900   65.0220   -9.6200 N   0  0  0  0  0  0  0  0  0  0  0  0
   21.3750   63.9060  -11.9620 H   0  0  0  0  0  0  0  0  0  0  0  0
   18.4200   65.8670   -9.3830 H   0  0  0  0  0  0  0  0  0  0  0  0
   23.9610   62.6030  -11.3950 C   0  0  0  0  0  2  0  0  0  0  0  0
   25.0420   63.3070  -12.1130 C   0  0  0  0  0  2  0  0  0  0  0  0
   24.8730   63.5200  -13.5540 C   0  0  0  0  0  0  0  0  0  0  0  0
   25.8320   63.3670  -14.3340 O   0  0  0  0  0  0  0  0  0  0  0  0
   23.6310   63.9040  -14.1390 N   0  0  0  0  0  0  0  0  0  0  0  0
   22.8010   63.2870  -14.1740 H   0  0  0  0  0  0  0  0  0  0  0  0
   23.5500   64.8490  -14.5510 H   0  0  0  0  0  0  0  0  0  0  0  0
   22.6270   64.9960   -5.9850 C   0  0  0  0  0  2  0  0  0  0  0  0
   23.3510   64.1980   -4.9610 C   0  0  0  0  0  2  0  0  0  0  0  0
   24.4500   63.3240   -5.4520 C   0  0  0  0  0  2  0  0  0  0  0  0
   24.9960   62.4260   -4.3480 C   0  0  0  0  0  1  0  0  0  0  0  0
  2  3  1  0  0  0  0
  2  1  1  0  0  0  0
  3 20  1  0  0  0  0
  4  3  2  0  0  0  0
  5  4  1  0  0  0  0
  6  5  2  0  0  0  0
  6  7  1  0  0  0  0
  7  2  2  0  0  0  0
  8  4  1  6  0  0  0
  8 18  1  0  0  0  0
  8 12  1  0  0  0  0
  9 10  1  0  0  0  0
  9  8  1  0  0  0  0
 10 23  1  6  0  0  0
 10 11  1  0  0  0  0
 11 12  1  0  0  0  0
 11 16  1  1  0  0  0
 12 13  1  1  0  0  0
 13 15  1  0  0  0  0
 13 14  2  0  0  0  0
 15 30  1  0  0  0  0
 16 15  1  0  0  0  0
 17 16  2  0  0  0  0
 18 20  1  0  0  0  0
 18 19  2  0  0  0  0
 20 22  1  0  0  0  0
 21  9  1  0  0  0  0
 24 23  1  0  0  0  0
 25 24  1  0  0  0  0
 26 25  2  0  0  0  0
 27 25  1  0  0  0  0
 28 27  1  0  0  0  0
 29 27  1  0  0  0  0
 30 31  1  0  0  0  0
 32 31  1  0  0  0  0
 32 33  1  0  0  0  0
M  END
>  <Pose>
1

>  <Score>
-7.136

$$$$
