/Users/jonathanwahrer/Desktop/Msc/3_Semester/Drug_Design_Praktikum/waehrer_HTS_screening/HTS_experiment/out/docking_results/vina_output/3sx0/2447_docked.pdbqt
 OpenBabel03192223223D

 33 36  0  0  1  0  0  0  0  0999 V2000
   16.7240   62.7700  -10.7380 C   0  0  1  0  0  3  0  0  0  0  0  0
   16.2180   61.3740  -10.5980 C   0  0  0  0  0  0  0  0  0  0  0  0
   16.7410   60.5400   -9.8210 O   0  0  0  0  0  0  0  0  0  0  0  0
   15.1200   61.0910  -11.4060 O   0  0  0  0  0  0  0  0  0  0  0  0
   14.1930   62.0220  -11.8250 C   0  0  0  0  0  3  0  0  0  0  0  0
   14.3580   63.3010  -11.4230 C   0  0  0  0  0  0  0  0  0  0  0  0
   15.4900   63.6200  -10.5800 C   0  0  0  0  0  0  0  0  0  0  0  0
   15.4670   64.5470   -9.7530 O   0  0  0  0  0  0  0  0  0  0  0  0
   13.4040   64.3480  -11.8130 C   0  0  0  0  0  2  0  0  0  0  0  0
   13.3050   64.5920  -13.1930 N   0  0  0  0  0  0  0  0  0  0  0  0
   14.1670   65.4900  -13.8330 C   0  0  0  0  0  2  0  0  0  0  0  0
   13.5440   65.9830  -15.1590 C   0  0  0  0  0  2  0  0  0  0  0  0
   12.1980   66.3630  -14.8160 N   0  0  0  0  0  0  0  0  0  0  0  0
   11.3250   65.2460  -14.4850 C   0  0  0  0  0  2  0  0  0  0  0  0
   12.1580   64.1230  -13.8830 C   0  0  0  0  0  2  0  0  0  0  0  0
   11.7670   67.7040  -14.7900 C   0  0  0  0  0  0  0  0  0  0  0  0
   12.0780   68.5900  -13.7840 C   0  0  0  0  0  3  0  0  0  0  0  0
   11.6330   69.8910  -13.8120 C   0  0  0  0  0  0  0  0  0  0  0  0
   10.8580   70.3800  -14.8370 C   0  0  0  0  0  3  0  0  0  0  0  0
   12.0600   70.9650  -12.5070 Cl  0  0  0  0  0  0  0  0  0  0  0  0
   10.5300   69.5210  -15.8540 C   0  0  0  0  0  3  0  0  0  0  0  0
   10.9770   68.2080  -15.8290 C   0  0  0  0  0  3  0  0  0  0  0  0
   17.7650   63.1210   -9.7340 C   0  0  0  0  0  2  0  0  0  0  0  0
   19.0480   62.8550  -10.2830 N   0  0  0  0  0  0  0  0  0  0  0  0
   20.1500   62.9890   -9.3630 C   0  0  0  0  0  2  0  0  0  0  0  0
   20.9460   64.2070   -9.7890 C   0  0  0  0  0  2  0  0  0  0  0  0
   21.6030   63.9160  -11.0180 N   0  0  0  0  0  0  0  0  0  0  0  0
   20.7960   63.1150  -11.8820 C   0  0  0  0  0  2  0  0  0  0  0  0
   19.3030   63.2950  -11.6040 C   0  0  0  0  0  2  0  0  0  0  0  0
   23.2150   63.4030  -10.8590 S   0  0  0  0  0  0  0  0  0  0  0  0
   23.5600   62.2270  -11.7470 O   0  0  0  0  0  0  0  0  0  0  0  0
   24.1180   64.5430  -11.3120 O   0  0  0  0  0  0  0  0  0  0  0  0
   23.6730   63.0020   -9.2150 C   0  0  0  0  0  1  0  0  0  0  0  0
  1  2  1  0  0  0  0
  1  7  1  0  0  0  0
  1 23  1  1  0  0  0
  2  3  2  0  0  0  0
  4  2  1  0  0  0  0
  5  6  2  0  0  0  0
  5  4  1  0  0  0  0
  6  7  1  0  0  0  0
  7  8  2  0  0  0  0
  9  6  1  0  0  0  0
 10  9  1  0  0  0  0
 11 10  1  0  0  0  0
 12 13  1  0  0  0  0
 12 11  1  0  0  0  0
 13 16  1  0  0  0  0
 13 14  1  0  0  0  0
 14 15  1  0  0  0  0
 15 10  1  0  0  0  0
 16 17  1  0  0  0  0
 18 17  2  0  0  0  0
 18 20  1  0  0  0  0
 19 18  1  0  0  0  0
 21 22  1  0  0  0  0
 21 19  2  0  0  0  0
 22 16  2  0  0  0  0
 24 23  1  0  0  0  0
 24 25  1  0  0  0  0
 26 25  1  0  0  0  0
 27 30  1  0  0  0  0
 27 26  1  0  0  0  0
 28 29  1  0  0  0  0
 28 27  1  0  0  0  0
 29 24  1  0  0  0  0
 30 33  1  0  0  0  0
 31 30  2  0  0  0  0
 32 30  2  0  0  0  0
M  END
>  <Pose>
1

>  <Score>
-6.936

$$$$
