
 OpenBabel03202210193D

 50 53  0  0  0  0  0  0  0  0999 V2000
   14.0820   61.5270  -11.2430 B   0  0  0  0  0  0  0  0  0  0  0  0
   15.3580   62.8170  -10.6980 C   0  0  0  0  0  0  0  0  0  0  0  0
   15.0680   64.1460  -10.7920 C   0  0  0  0  0  0  0  0  0  0  0  0
   16.0270   65.0700  -10.3840 C   0  0  0  0  0  0  0  0  0  0  0  0
   17.2500   64.6220   -9.8950 C   0  0  0  0  0  0  0  0  0  0  0  0
   17.5490   63.2900   -9.7970 C   0  0  0  0  0  0  0  0  0  0  0  0
   16.5910   62.3870  -10.2040 C   0  0  0  0  0  0  0  0  0  0  0  0
   16.9050   61.0410  -10.1000 O   0  0  0  0  0  0  0  0  0  0  0  0
   18.8330   62.8410   -9.2820 C   0  0  0  0  0  0  0  0  0  0  0  0
   19.9550   63.0810   -9.8620 N   0  0  0  0  0  0  0  0  0  0  0  0
   21.1690   62.5930   -9.2680 N   0  0  0  0  0  0  0  0  0  0  0  0
   22.0020   63.5290   -8.6700 C   0  0  0  0  0  0  0  0  0  0  0  0
   21.9360   64.7320   -9.1250 O   0  0  0  0  0  0  0  0  0  0  0  0
   22.9520   63.3470   -7.5900 C   0  0  0  0  0  0  0  0  0  0  0  0
   24.1530   62.6910   -7.6940 N   0  0  0  0  0  0  0  0  0  0  0  0
   24.7620   62.7150   -6.5410 N   0  0  0  0  0  0  0  0  0  0  0  0
   24.0470   63.3530   -5.6310 N   0  0  0  0  0  0  0  0  0  0  0  0
   22.9250   63.7560   -6.2520 C   0  0  0  0  0  0  0  0  0  0  0  0
   21.7980   64.4780   -5.6540 C   0  0  0  0  0  0  0  0  0  0  0  0
   22.1680   65.7340   -4.9950 N   0  0  0  0  0  0  0  0  0  0  0  0
   20.9760   66.6040   -4.9450 C   0  0  0  0  0  0  0  0  0  0  0  0
   20.3130   66.6270   -6.2780 C   0  0  0  0  0  0  0  0  0  0  0  0
   21.2240   66.9820   -7.2420 O   0  0  0  0  0  0  0  0  0  0  0  0
   22.4270   67.4180   -6.7510 C   0  0  0  0  0  0  0  0  0  0  0  0
   23.1440   66.4360   -5.8610 C   0  0  0  0  0  0  0  0  0  0  0  0
   24.4400   63.5090   -4.2790 C   0  0  0  0  0  0  0  0  0  0  0  0
   25.5660   64.0550   -3.7710 N   0  0  0  0  0  0  0  0  0  0  0  0
   25.5290   64.0100   -2.4660 O   0  0  0  0  0  0  0  0  0  0  0  0
   24.4180   63.4510   -2.0590 N   0  0  0  0  0  0  0  0  0  0  0  0
   23.7170   63.1280   -3.1590 C   0  0  0  0  0  0  0  0  0  0  0  0
   22.4520   62.5020   -3.1390 N   0  0  0  0  0  0  0  0  0  0  0  0
   15.6550   66.9250  -10.5020 B   0  0  0  0  0  0  0  0  0  0  0  0
   13.8560   64.6140  -11.2770 O   0  0  0  0  0  0  0  0  0  0  0  0
   17.9860   65.3330   -9.5810 H   0  0  0  0  0  0  0  0  0  0  0  0
   16.5310   60.4880   -9.3380 H   0  0  0  0  0  0  0  0  0  0  0  0
   18.8680   62.2710   -8.3570 H   0  0  0  0  0  0  0  0  0  0  0  0
   21.3230   61.5590   -9.3410 H   0  0  0  0  0  0  0  0  0  0  0  0
   21.2810   63.8770   -4.9030 H   0  0  0  0  0  0  0  0  0  0  0  0
   21.0920   64.7740   -6.4420 H   0  0  0  0  0  0  0  0  0  0  0  0
   20.3010   66.3000   -4.1300 H   0  0  0  0  0  0  0  0  0  0  0  0
   21.3530   67.6160   -4.7090 H   0  0  0  0  0  0  0  0  0  0  0  0
   19.8430   65.6680   -6.5550 H   0  0  0  0  0  0  0  0  0  0  0  0
   19.5350   67.4460   -6.2640 H   0  0  0  0  0  0  0  0  0  0  0  0
   23.0960   67.5590   -7.6530 H   0  0  0  0  0  0  0  0  0  0  0  0
   22.3270   68.4230   -6.2890 H   0  0  0  0  0  0  0  0  0  0  0  0
   23.7930   67.0250   -5.2010 H   0  0  0  0  0  0  0  0  0  0  0  0
   23.7230   65.7520   -6.4740 H   0  0  0  0  0  0  0  0  0  0  0  0
   22.2160   61.8760   -2.3470 H   0  0  0  0  0  0  0  0  0  0  0  0
   21.7470   62.6420   -3.8850 H   0  0  0  0  0  0  0  0  0  0  0  0
   13.0000   64.4640  -10.7680 H   0  0  0  0  0  0  0  0  0  0  0  0
  1  2  1  0  0  0  0
  2  7  1  0  0  0  0
  3  2  2  0  0  0  0
  3  4  1  0  0  0  0
  4  5  2  0  0  0  0
  5  6  1  0  0  0  0
  5 34  1  0  0  0  0
  6  9  1  0  0  0  0
  7  8  1  0  0  0  0
  7  6  2  0  0  0  0
  8 35  1  0  0  0  0
  9 36  1  0  0  0  0
 10  9  2  0  0  0  0
 10 11  1  0  0  0  0
 11 12  1  0  0  0  0
 12 14  1  0  0  0  0
 13 12  2  0  0  0  0
 14 18  2  0  0  0  0
 15 14  1  0  0  0  0
 15 16  2  0  0  0  0
 16 17  1  0  0  0  0
 17 26  1  0  0  0  0
 18 19  1  0  0  0  0
 18 17  1  0  0  0  0
 19 20  1  0  0  0  0
 19 38  1  0  0  0  0
 20 21  1  0  0  0  0
 21 41  1  0  0  0  0
 21 40  1  0  0  0  0
 22 43  1  0  0  0  0
 22 21  1  0  0  0  0
 23 24  1  0  0  0  0
 23 22  1  0  0  0  0
 24 45  1  0  0  0  0
 24 25  1  0  0  0  0
 25 46  1  0  0  0  0
 25 20  1  0  0  0  0
 26 27  2  0  0  0  0
 26 30  1  0  0  0  0
 27 28  1  0  0  0  0
 28 29  1  0  0  0  0
 30 31  1  0  0  0  0
 30 29  2  0  0  0  0
 31 48  1  0  0  0  0
 32  4  1  0  0  0  0
 33  3  1  0  0  0  0
 33 50  1  0  0  0  0
 37 11  1  0  0  0  0
 39 19  1  0  0  0  0
 42 22  1  0  0  0  0
 44 24  1  0  0  0  0
 47 25  1  0  0  0  0
 49 31  1  0  0  0  0
M  END
>  <Pose>
1

>  <Score>
-8.90

$$$$
