
 OpenBabel03202210193D

 43 46  0  0  0  0  0  0  0  0999 V2000
   12.7790   60.2150  -12.1010 B   0  0  0  0  0  0  0  0  0  0  0  0
   13.6360   61.9070  -12.0620 C   0  0  0  0  0  0  0  0  0  0  0  0
   14.7230   62.0840  -11.2330 C   0  0  0  0  0  0  0  0  0  0  0  0
   15.3490   63.2920  -11.1940 C   0  0  0  0  0  0  0  0  0  0  0  0
   14.9130   64.3650  -11.9790 C   0  0  0  0  0  0  0  0  0  0  0  0
   13.8280   64.1620  -12.7970 C   0  0  0  0  0  0  0  0  0  0  0  0
   13.1830   62.9510  -12.8510 C   0  0  0  0  0  0  0  0  0  0  0  0
   13.1910   65.5950  -13.8920 B   0  0  0  0  0  0  0  0  0  0  0  0
   16.4930   63.4890  -10.3260 C   0  0  0  0  0  0  0  0  0  0  0  0
   17.4820   64.1810  -10.7460 N   0  0  0  0  0  0  0  0  0  0  0  0
   18.6220   64.4310  -10.0000 N   0  0  0  0  0  0  0  0  0  0  0  0
   19.2620   63.4820   -9.1660 C   0  0  0  0  0  0  0  0  0  0  0  0
   18.6920   62.3730   -9.0330 O   0  0  0  0  0  0  0  0  0  0  0  0
   20.5070   63.7370   -8.4840 C   0  0  0  0  0  0  0  0  0  0  0  0
   21.6840   63.7480   -9.2960 N   0  0  0  0  0  0  0  0  0  0  0  0
   21.7950   63.3790  -10.5990 C   0  0  0  0  0  0  0  0  0  0  0  0
   23.0860   63.5300  -11.0210 C   0  0  0  0  0  0  0  0  0  0  0  0
   23.7550   63.9960   -9.9550 N   0  0  0  0  0  0  0  0  0  0  0  0
   22.8980   64.1310   -8.8950 C   0  0  0  0  0  0  0  0  0  0  0  0
   23.3030   64.6130   -7.5800 C   0  0  0  0  0  0  0  0  0  0  0  0
   23.2650   65.8870   -7.1710 N   0  0  0  0  0  0  0  0  0  0  0  0
   23.7050   65.9500   -5.9280 O   0  0  0  0  0  0  0  0  0  0  0  0
   24.0300   64.7680   -5.5080 N   0  0  0  0  0  0  0  0  0  0  0  0
   23.7940   63.8960   -6.5120 C   0  0  0  0  0  0  0  0  0  0  0  0
   24.0100   62.4970   -6.4800 N   0  0  0  0  0  4  0  0  0  0  0  0
   23.4010   63.2050  -12.3250 C   0  0  0  0  0  0  0  0  0  0  0  0
   22.4490   62.7320  -13.2130 C   0  0  0  0  0  0  0  0  0  0  0  0
   21.1500   62.5890  -12.7570 C   0  0  0  0  0  0  0  0  0  0  0  0
   20.8330   62.9140  -11.4530 C   0  0  0  0  0  0  0  0  0  0  0  0
   15.1670   61.0330  -10.4490 O   0  0  0  0  0  0  0  0  0  0  0  0
   15.3980   65.3280  -11.9610 H   0  0  0  0  0  0  0  0  0  0  0  0
   12.3310   62.7580  -13.4800 H   0  0  0  0  0  0  0  0  0  0  0  0
   16.5560   63.0750   -9.3270 H   0  0  0  0  0  0  0  0  0  0  0  0
   19.0420   65.3830  -10.0520 H   0  0  0  0  0  0  0  0  0  0  0  0
   20.5030   64.7400   -7.9540 H   0  0  0  0  0  0  0  0  0  0  0  0
   20.6240   63.0150   -7.6510 H   0  0  0  0  0  0  0  0  0  0  0  0
   23.5600   62.0420   -5.6740 H   0  0  0  0  0  0  0  0  0  0  0  0
   25.0510   62.3650   -6.3540 H   0  0  0  0  0  0  0  0  0  0  0  0
   23.7510   62.0240   -7.3840 H   0  0  0  0  0  0  0  0  0  0  0  0
   24.4320   63.3300  -12.6520 H   0  0  0  0  0  0  0  0  0  0  0  0
   22.7320   62.4830  -14.2420 H   0  0  0  0  0  0  0  0  0  0  0  0
   20.4030   62.2200  -13.4500 H   0  0  0  0  0  0  0  0  0  0  0  0
   19.8200   62.8100  -11.0730 H   0  0  0  0  0  0  0  0  0  0  0  0
  1  2  1  0  0  0  0
  2  3  1  0  0  0  0
  3  4  2  0  0  0  0
  3 30  1  0  0  0  0
  4  9  1  0  0  0  0
  5 31  1  0  0  0  0
  5  4  1  0  0  0  0
  6  5  2  0  0  0  0
  7  6  1  0  0  0  0
  7  2  2  0  0  0  0
  8  6  1  0  0  0  0
  9 33  1  0  0  0  0
 10  9  2  0  0  0  0
 10 11  1  0  0  0  0
 11 12  1  0  0  0  0
 12 13  2  0  0  0  0
 12 14  1  0  0  0  0
 14 35  1  0  0  0  0
 14 36  1  0  0  0  0
 15 19  1  0  0  0  0
 15 14  1  0  0  0  0
 16 15  1  0  0  0  0
 17 16  1  0  0  0  0
 17 18  1  0  0  0  0
 18 19  2  0  0  0  0
 19 20  1  0  0  0  0
 20 21  2  0  0  0  0
 20 24  1  0  0  0  0
 21 22  1  0  0  0  0
 22 23  1  0  0  0  0
 24 25  1  0  0  0  0
 24 23  2  0  0  0  0
 25 38  1  0  0  0  0
 25 37  1  0  0  0  0
 26 17  2  0  0  0  0
 27 28  2  0  0  0  0
 27 26  1  0  0  0  0
 28 29  1  0  0  0  0
 29 43  1  0  0  0  0
 29 16  2  0  0  0  0
 32  7  1  0  0  0  0
 34 11  1  0  0  0  0
 39 25  1  0  0  0  0
 40 26  1  0  0  0  0
 41 27  1  0  0  0  0
 42 28  1  0  0  0  0
M  END
>  <Pose>
1

>  <Score>
-7.31

$$$$
