
 OpenBabel03202210193D

 50 53  0  0  0  0  0  0  0  0999 V2000
   15.0080   63.5730  -10.8530 B   0  0  0  0  0  0  0  0  0  0  0  0
   16.3430   62.3060  -10.3880 C   0  0  0  0  0  0  0  0  0  0  0  0
   16.0420   60.9630  -10.3480 C   0  0  0  0  0  0  0  0  0  0  0  0
   17.0480   60.0390   -9.9780 C   0  0  0  0  0  0  0  0  0  0  0  0
   18.2810   60.5390   -9.6740 C   0  0  0  0  0  0  0  0  0  0  0  0
   18.6310   61.8960   -9.6990 C   0  0  0  0  0  0  0  0  0  0  0  0
   17.6120   62.7460  -10.0680 C   0  0  0  0  0  0  0  0  0  0  0  0
   19.9470   62.3020   -9.3440 C   0  0  0  0  0  0  0  0  0  0  0  0
   20.4000   63.0310   -8.5330 N   0  0  0  0  0  0  0  0  0  0  0  0
   20.7870   63.8100   -7.6580 N   0  0  0  0  0  0  0  0  0  0  0  0
   21.2140   64.6630   -6.6940 C   0  0  0  0  0  0  0  0  0  0  0  0
   21.2090   65.8800   -6.5200 O   0  0  0  0  0  0  0  0  0  0  0  0
   21.8740   63.8960   -5.5280 C   0  0  0  0  0  0  0  0  0  0  0  0
   23.2470   63.6890   -5.7400 N   0  0  0  0  0  0  0  0  0  0  0  0
   24.0560   63.2970   -4.6850 C   0  0  0  0  0  0  0  0  0  0  0  0
   25.3100   63.2010   -5.1610 C   0  0  0  0  0  0  0  0  0  0  0  0
   25.2620   63.5230   -6.4450 N   0  0  0  0  0  0  0  0  0  0  0  0
   23.9630   63.8320   -6.8230 C   0  0  0  0  0  0  0  0  0  0  0  0
   23.7750   64.2210   -8.2090 C   0  0  0  0  0  0  0  0  0  0  0  0
   23.8510   65.5480   -8.6270 N   0  0  0  0  0  0  0  0  0  0  0  0
   23.6760   65.6310   -9.8840 O   0  0  0  0  0  0  0  0  0  0  0  0
   23.4810   64.4770  -10.3830 N   0  0  0  0  0  0  0  0  0  0  0  0
   23.5380   63.5590   -9.3590 C   0  0  0  0  0  0  0  0  0  0  0  0
   23.3840   62.1750   -9.5880 N   0  0  0  0  0  4  0  0  0  0  0  0
   26.3860   62.8320   -4.3700 C   0  0  0  0  0  0  0  0  0  0  0  0
   26.1110   62.5610   -3.0510 C   0  0  0  0  0  0  0  0  0  0  0  0
   24.8430   62.6410   -2.5100 C   0  0  0  0  0  0  0  0  0  0  0  0
   23.7980   63.0180   -3.3510 C   0  0  0  0  0  0  0  0  0  0  0  0
   16.7170   58.6970   -9.9440 O   0  0  0  0  0  0  0  0  0  0  0  0
   17.4290   57.7250  -10.6300 C   0  0  0  0  0  0  0  0  0  0  0  0
   18.4440   56.9580   -9.8300 C   0  0  0  0  0  0  0  0  0  0  0  0
   14.8090   60.4580  -10.6460 O   0  0  0  0  0  0  0  0  0  0  0  0
   19.0690   59.8680   -9.3790 H   0  0  0  0  0  0  0  0  0  0  0  0
   17.8230   63.8340  -10.1260 H   0  0  0  0  0  0  0  0  0  0  0  0
   20.8290   61.8580   -9.9300 H   0  0  0  0  0  0  0  0  0  0  0  0
   21.4780   62.7830   -6.9910 H   0  0  0  0  0  0  0  0  0  0  0  0
   21.3700   62.8690   -5.5480 H   0  0  0  0  0  0  0  0  0  0  0  0
   21.5850   64.3990   -4.6240 H   0  0  0  0  0  0  0  0  0  0  0  0
   22.3830   62.0070   -9.9820 H   0  0  0  0  0  0  0  0  0  0  0  0
   23.3740   61.6680   -8.6950 H   0  0  0  0  0  0  0  0  0  0  0  0
   23.9750   61.8500  -10.3480 H   0  0  0  0  0  0  0  0  0  0  0  0
   27.3690   62.7710   -4.8250 H   0  0  0  0  0  0  0  0  0  0  0  0
   26.9430   62.2610   -2.3840 H   0  0  0  0  0  0  0  0  0  0  0  0
   24.6800   62.4220   -1.4670 H   0  0  0  0  0  0  0  0  0  0  0  0
   22.7910   63.0930   -2.9860 H   0  0  0  0  0  0  0  0  0  0  0  0
   16.7010   56.9860  -11.1150 H   0  0  0  0  0  0  0  0  0  0  0  0
   17.9750   58.1550  -11.5240 H   0  0  0  0  0  0  0  0  0  0  0  0
   19.4190   57.0280  -10.3340 H   0  0  0  0  0  0  0  0  0  0  0  0
   18.4920   57.3350   -8.8150 H   0  0  0  0  0  0  0  0  0  0  0  0
   18.1910   55.8540   -9.8630 H   0  0  0  0  0  0  0  0  0  0  0  0
  1  2  1  0  0  0  0
  2  3  2  0  0  0  0
  2  7  1  0  0  0  0
  3  4  1  0  0  0  0
  4 29  1  0  0  0  0
  4  5  2  0  0  0  0
  5 33  1  0  0  0  0
  6  5  1  0  0  0  0
  6  8  1  0  0  0  0
  7  6  2  0  0  0  0
  8  9  1  0  0  0  0
  9 10  1  0  0  0  0
 10 36  1  0  0  0  0
 10 11  1  0  0  0  0
 11 12  2  0  0  0  0
 11 13  1  0  0  0  0
 13 38  1  0  0  0  0
 14 13  1  0  0  0  0
 14 15  1  0  0  0  0
 15 28  1  0  0  0  0
 16 15  2  0  0  0  0
 16 25  1  0  0  0  0
 17 16  1  0  0  0  0
 18 17  2  0  0  0  0
 18 14  1  0  0  0  0
 19 18  1  0  0  0  0
 20 19  2  0  0  0  0
 21 20  1  0  0  0  0
 22 21  1  0  0  0  0
 22 23  2  0  0  0  0
 23 19  1  0  0  0  0
 24 23  1  0  0  0  0
 24 40  1  0  0  0  0
 25 26  2  0  0  0  0
 26 27  1  0  0  0  0
 26 43  1  0  0  0  0
 27 44  1  0  0  0  0
 28 45  1  0  0  0  0
 28 27  2  0  0  0  0
 30 29  1  0  0  0  0
 30 31  1  0  0  0  0
 31 49  1  0  0  0  0
 32  3  1  0  0  0  0
 34  7  1  0  0  0  0
 35  8  1  0  0  0  0
 37 13  1  0  0  0  0
 39 24  1  0  0  0  0
 41 24  1  0  0  0  0
 42 25  1  0  0  0  0
 46 30  1  0  0  0  0
 47 30  1  0  0  0  0
 48 31  1  0  0  0  0
 50 31  1  0  0  0  0
M  END
>  <Pose>
1

>  <Score>
-8.05

$$$$
