
 OpenBabel03202210193D

 56 59  0  0  0  0  0  0  0  0999 V2000
   15.1280   66.0410  -10.6940 B   0  0  0  0  0  0  0  0  0  0  0  0
   15.8090   64.2650  -10.5850 C   0  0  0  0  0  0  0  0  0  0  0  0
   14.9650   63.1620  -10.5310 C   0  0  0  0  0  0  0  0  0  0  0  0
   15.4500   61.8770  -10.4520 C   0  0  0  0  0  0  0  0  0  0  0  0
   16.8140   61.7130  -10.4270 C   0  0  0  0  0  0  0  0  0  0  0  0
   17.6860   62.7900  -10.4800 C   0  0  0  0  0  0  0  0  0  0  0  0
   17.1570   64.0590  -10.5590 C   0  0  0  0  0  0  0  0  0  0  0  0
   19.1330   62.6480  -10.4560 C   0  0  0  0  0  0  0  0  0  0  0  0
   19.8000   62.7020   -9.3630 N   0  0  0  0  0  0  0  0  0  0  0  0
   21.1630   62.5790   -9.2480 N   0  0  0  0  0  0  0  0  0  0  0  0
   22.0230   63.5800   -8.7440 C   0  0  0  0  0  0  0  0  0  0  0  0
   21.8960   64.7510   -9.1510 O   0  0  0  0  0  0  0  0  0  0  0  0
   23.0550   63.2810   -7.7600 C   0  0  0  0  0  0  0  0  0  0  0  0
   24.1550   62.5290   -7.8980 N   0  0  0  0  0  0  0  0  0  0  0  0
   24.8230   62.5170   -6.7700 N   0  0  0  0  0  0  0  0  0  0  0  0
   24.1960   63.2580   -5.8390 N   0  0  0  0  0  0  0  0  0  0  0  0
   23.0990   63.7400   -6.4300 C   0  0  0  0  0  0  0  0  0  0  0  0
   22.0720   64.6300   -5.8840 C   0  0  0  0  0  0  0  0  0  0  0  0
   22.4360   66.0130   -5.7020 N   0  0  0  0  0  0  0  0  0  0  0  0
   21.6040   66.7430   -6.6660 C   0  0  0  0  0  0  0  0  0  0  0  0
   20.1480   66.6120   -6.4610 C   0  0  0  0  0  0  0  0  0  0  0  0
   19.8350   66.4780   -5.1170 O   0  0  0  0  0  0  0  0  0  0  0  0
   20.7490   67.2040   -4.3840 C   0  0  0  0  0  0  0  0  0  0  0  0
   22.0590   66.4410   -4.3530 C   0  0  0  0  0  0  0  0  0  0  0  0
   24.7050   63.4450   -4.5140 C   0  0  0  0  0  0  0  0  0  0  0  0
   24.5080   64.4710   -3.6710 N   0  0  0  0  0  0  0  0  0  0  0  0
   25.1540   64.2390   -2.5530 O   0  0  0  0  0  0  0  0  0  0  0  0
   25.7810   63.0890   -2.6170 N   0  0  0  0  0  0  0  0  0  0  0  0
   25.5170   62.5730   -3.8310 C   0  0  0  0  0  0  0  0  0  0  0  0
   26.0220   61.3230   -4.2750 N   0  0  0  0  0  0  0  0  0  0  0  0
   14.5560   60.8340  -10.4010 O   0  0  0  0  0  0  0  0  0  0  0  0
   13.8300   60.3020  -11.4600 C   0  0  0  0  0  0  0  0  0  0  0  0
   12.8430   59.2450  -11.0840 C   0  0  0  0  0  0  0  0  0  0  0  0
   13.5920   63.3890  -10.5580 O   0  0  0  0  0  0  0  0  0  0  0  0
   17.2150   60.7140  -10.3660 H   0  0  0  0  0  0  0  0  0  0  0  0
   17.8320   64.9200  -10.6010 H   0  0  0  0  0  0  0  0  0  0  0  0
   19.6700   62.4920  -11.3820 H   0  0  0  0  0  0  0  0  0  0  0  0
   21.5930   61.6620   -9.5640 H   0  0  0  0  0  0  0  0  0  0  0  0
   21.7380   64.2450   -4.8840 H   0  0  0  0  0  0  0  0  0  0  0  0
   21.1230   64.5650   -6.5030 H   0  0  0  0  0  0  0  0  0  0  0  0
   21.9140   67.7880   -6.6150 H   0  0  0  0  0  0  0  0  0  0  0  0
   21.8600   66.2690   -7.6560 H   0  0  0  0  0  0  0  0  0  0  0  0
   19.8200   65.6430   -6.9410 H   0  0  0  0  0  0  0  0  0  0  0  0
   19.5460   67.3990   -6.9580 H   0  0  0  0  0  0  0  0  0  0  0  0
   20.4470   67.3430   -3.3260 H   0  0  0  0  0  0  0  0  0  0  0  0
   20.9070   68.1750   -4.8920 H   0  0  0  0  0  0  0  0  0  0  0  0
   21.9040   65.5720   -3.7000 H   0  0  0  0  0  0  0  0  0  0  0  0
   22.8090   67.1550   -3.9750 H   0  0  0  0  0  0  0  0  0  0  0  0
   25.4750   60.6430   -4.8420 H   0  0  0  0  0  0  0  0  0  0  0  0
   27.0030   61.0250   -4.0400 H   0  0  0  0  0  0  0  0  0  0  0  0
   13.2930   61.1020  -12.0330 H   0  0  0  0  0  0  0  0  0  0  0  0
   14.5610   59.8450  -12.1740 H   0  0  0  0  0  0  0  0  0  0  0  0
   13.0660   58.2600  -11.5820 H   0  0  0  0  0  0  0  0  0  0  0  0
   11.7870   59.5050  -11.3290 H   0  0  0  0  0  0  0  0  0  0  0  0
   12.9270   59.0430   -9.9920 H   0  0  0  0  0  0  0  0  0  0  0  0
   13.0090   63.0400   -9.8070 H   0  0  0  0  0  0  0  0  0  0  0  0
  1  2  1  0  0  0  0
  2  7  2  0  0  0  0
  2  3  1  0  0  0  0
  3  4  2  0  0  0  0
  4  5  1  0  0  0  0
  4 31  1  0  0  0  0
  5 35  1  0  0  0  0
  6  8  1  0  0  0  0
  6  5  2  0  0  0  0
  7  6  1  0  0  0  0
  8  9  2  0  0  0  0
  9 10  1  0  0  0  0
 10 11  1  0  0  0  0
 11 13  1  0  0  0  0
 12 11  2  0  0  0  0
 13 17  2  0  0  0  0
 14 13  1  0  0  0  0
 14 15  2  0  0  0  0
 15 16  1  0  0  0  0
 16 25  1  0  0  0  0
 17 18  1  0  0  0  0
 17 16  1  0  0  0  0
 18 19  1  0  0  0  0
 18 39  1  0  0  0  0
 19 24  1  0  0  0  0
 20 41  1  0  0  0  0
 20 21  1  0  0  0  0
 20 19  1  0  0  0  0
 21 22  1  0  0  0  0
 22 23  1  0  0  0  0
 23 24  1  0  0  0  0
 23 45  1  0  0  0  0
 24 48  1  0  0  0  0
 24 47  1  0  0  0  0
 25 29  1  0  0  0  0
 25 26  2  0  0  0  0
 26 27  1  0  0  0  0
 28 27  1  0  0  0  0
 29 28  2  0  0  0  0
 30 50  1  0  0  0  0
 30 29  1  0  0  0  0
 32 33  1  0  0  0  0
 32 31  1  0  0  0  0
 33 55  1  0  0  0  0
 34  3  1  0  0  0  0
 34 56  1  0  0  0  0
 36  7  1  0  0  0  0
 37  8  1  0  0  0  0
 38 10  1  0  0  0  0
 40 18  1  0  0  0  0
 42 20  1  0  0  0  0
 43 21  1  0  0  0  0
 44 21  1  0  0  0  0
 46 23  1  0  0  0  0
 49 30  1  0  0  0  0
 51 32  1  0  0  0  0
 52 32  1  0  0  0  0
 53 33  1  0  0  0  0
 54 33  1  0  0  0  0
M  END
>  <Pose>
1

>  <Score>
-7.44

$$$$
