
 OpenBabel03202210193D

 58 61  0  0  0  0  0  0  0  0999 V2000
   15.2530   63.7630  -10.6770 B   0  0  0  0  0  0  0  0  0  0  0  0
   16.8380   62.7540  -10.2890 C   0  0  0  0  0  0  0  0  0  0  0  0
   16.7420   61.4080  -10.0660 C   0  0  0  0  0  0  0  0  0  0  0  0
   17.8920   60.6800   -9.7680 C   0  0  0  0  0  0  0  0  0  0  0  0
   19.1220   61.3190   -9.6960 C   0  0  0  0  0  0  0  0  0  0  0  0
   19.2290   62.6630   -9.9080 C   0  0  0  0  0  0  0  0  0  0  0  0
   18.0760   63.3540  -10.2040 C   0  0  0  0  0  0  0  0  0  0  0  0
   20.4390   63.4670   -9.6350 C   0  0  0  0  0  0  0  0  0  0  0  0
   21.5210   63.1290   -9.3860 N   0  0  0  0  0  0  0  0  0  0  0  0
   22.7480   62.7710   -9.1030 N   0  0  0  0  0  0  0  0  0  0  0  0
   23.2970   63.6410   -8.0370 C   0  0  0  0  0  0  0  0  0  0  0  0
   23.9490   63.2000   -6.9780 N   0  0  0  0  0  4  0  0  0  0  0  0
   24.2490   64.0330   -5.9410 C   0  0  0  0  0  0  0  0  0  0  0  0
   23.8350   65.3150   -6.0760 N   0  0  0  0  0  0  0  0  0  0  0  0
   23.1690   65.8210   -7.1310 C   0  0  0  0  0  0  0  0  0  0  0  0
   22.9090   64.9420   -8.1250 N   0  0  0  0  0  0  0  0  0  0  0  0
   22.6480   67.1040   -7.1330 N   0  0  0  0  0  0  0  0  0  0  0  0
   23.2840   68.3420   -6.9000 C   0  0  0  0  0  0  0  0  0  0  0  0
   22.6200   68.9480   -5.6600 C   0  0  0  0  0  0  0  0  0  0  0  0
   21.2650   69.0100   -5.9000 O   0  0  0  0  0  0  0  0  0  0  0  0
   20.6430   67.8010   -6.1150 C   0  0  0  0  0  0  0  0  0  0  0  0
   21.1880   67.1870   -7.4360 C   0  0  0  0  0  0  0  0  0  0  0  0
   24.8680   63.5800   -4.7520 N   0  0  0  0  0  0  0  0  0  0  0  0
   26.2300   63.0250   -4.8100 C   0  0  0  0  0  0  0  0  0  0  0  0
   26.1640   61.7230   -3.9700 C   0  0  0  0  0  0  0  0  0  0  0  0
   25.9670   62.1540   -2.6890 O   0  0  0  0  0  0  0  0  0  0  0  0
   24.7290   62.6890   -2.4660 C   0  0  0  0  0  0  0  0  0  0  0  0
   24.1970   63.6150   -3.5100 C   0  0  0  0  0  0  0  0  0  0  0  0
   17.7060   59.3480   -9.5690 O   0  0  0  0  0  0  0  0  0  0  0  0
   18.0910   58.2740  -10.3520 C   0  0  0  0  0  0  0  0  0  0  0  0
   17.4470   58.2870  -11.7300 C   0  0  0  0  0  0  0  0  0  0  0  0
   15.4980   60.8190  -10.1440 O   0  0  0  0  0  0  0  0  0  0  0  0
   20.0200   60.7730   -9.4930 H   0  0  0  0  0  0  0  0  0  0  0  0
   18.1030   64.4040  -10.4120 H   0  0  0  0  0  0  0  0  0  0  0  0
   20.3000   64.5740   -9.6730 H   0  0  0  0  0  0  0  0  0  0  0  0
   23.3640   62.0540   -9.4310 H   0  0  0  0  0  0  0  0  0  0  0  0
   24.3680   68.3560   -6.7940 H   0  0  0  0  0  0  0  0  0  0  0  0
   22.9700   69.0190   -7.7700 H   0  0  0  0  0  0  0  0  0  0  0  0
   22.9670   70.0100   -5.5970 H   0  0  0  0  0  0  0  0  0  0  0  0
   22.9080   68.3550   -4.7890 H   0  0  0  0  0  0  0  0  0  0  0  0
   19.5870   67.9470   -6.2780 H   0  0  0  0  0  0  0  0  0  0  0  0
   20.7610   67.0670   -5.2850 H   0  0  0  0  0  0  0  0  0  0  0  0
   20.7790   66.2130   -7.5760 H   0  0  0  0  0  0  0  0  0  0  0  0
   21.0780   67.8970   -8.2440 H   0  0  0  0  0  0  0  0  0  0  0  0
   26.4970   62.7170   -5.8220 H   0  0  0  0  0  0  0  0  0  0  0  0
   26.9620   63.7140   -4.4360 H   0  0  0  0  0  0  0  0  0  0  0  0
   27.0990   61.1950   -4.0870 H   0  0  0  0  0  0  0  0  0  0  0  0
   25.2950   61.1510   -4.3870 H   0  0  0  0  0  0  0  0  0  0  0  0
   24.7730   63.2640   -1.4900 H   0  0  0  0  0  0  0  0  0  0  0  0
   24.0040   61.8740   -2.2670 H   0  0  0  0  0  0  0  0  0  0  0  0
   24.1570   64.6660   -3.1260 H   0  0  0  0  0  0  0  0  0  0  0  0
   23.1250   63.2990   -3.7220 H   0  0  0  0  0  0  0  0  0  0  0  0
   19.2150   58.3940  -10.5140 H   0  0  0  0  0  0  0  0  0  0  0  0
   17.8980   57.3140   -9.8880 H   0  0  0  0  0  0  0  0  0  0  0  0
   16.6470   59.0270  -11.8200 H   0  0  0  0  0  0  0  0  0  0  0  0
   17.0610   57.2590  -11.9520 H   0  0  0  0  0  0  0  0  0  0  0  0
   18.2260   58.5040  -12.5020 H   0  0  0  0  0  0  0  0  0  0  0  0
   14.8210   60.8470   -9.4190 H   0  0  0  0  0  0  0  0  0  0  0  0
  1  2  1  0  0  0  0
  2  7  2  0  0  0  0
  2  3  1  0  0  0  0
  3  4  2  0  0  0  0
  4  5  1  0  0  0  0
  4 29  1  0  0  0  0
  5 33  1  0  0  0  0
  6  5  2  0  0  0  0
  6  8  1  0  0  0  0
  7  6  1  0  0  0  0
  8  9  1  0  0  0  0
  9 10  1  0  0  0  0
 10 11  1  0  0  0  0
 11 12  2  0  0  0  0
 12 13  2  0  0  0  0
 13 23  1  0  0  0  0
 14 13  1  0  0  0  0
 15 14  2  0  0  0  0
 16 11  1  0  0  0  0
 16 15  1  0  0  0  0
 17 15  1  0  0  0  0
 17 18  1  0  0  0  0
 18 37  1  0  0  0  0
 18 19  1  0  0  0  0
 19 39  1  0  0  0  0
 19 40  1  0  0  0  0
 20 19  1  0  0  0  0
 21 20  1  0  0  0  0
 21 42  1  0  0  0  0
 22 17  1  0  0  0  0
 22 21  1  0  0  0  0
 23 28  1  0  0  0  0
 24 23  1  0  0  0  0
 24 46  1  0  0  0  0
 24 25  1  0  0  0  0
 25 26  1  0  0  0  0
 26 27  1  0  0  0  0
 27 50  1  0  0  0  0
 27 49  1  0  0  0  0
 28 51  1  0  0  0  0
 28 27  1  0  0  0  0
 30 54  1  0  0  0  0
 30 29  1  0  0  0  0
 31 30  1  0  0  0  0
 32  3  1  0  0  0  0
 32 58  1  0  0  0  0
 34  7  1  0  0  0  0
 35  8  1  0  0  0  0
 36 10  1  0  0  0  0
 38 18  1  0  0  0  0
 41 21  1  0  0  0  0
 43 22  1  0  0  0  0
 44 22  1  0  0  0  0
 45 24  1  0  0  0  0
 47 25  1  0  0  0  0
 48 25  1  0  0  0  0
 52 28  1  0  0  0  0
 53 30  1  0  0  0  0
 55 31  1  0  0  0  0
 56 31  1  0  0  0  0
 57 31  1  0  0  0  0
M  END
>  <Pose>
1

>  <Score>
-8.59

$$$$
