
 OpenBabel03202210193D

 64 67  0  0  1  0  0  0  0  0999 V2000
   18.7710   63.2280  -10.3230 B   0  0  0  0  0  0  0  0  0  0  0  0
   20.5470   63.4030   -9.6840 C   0  0  0  0  0  0  0  0  0  0  0  0
   21.6100   63.0890  -10.5430 C   0  0  0  0  0  0  0  0  0  0  0  0
   22.9120   63.2160  -10.0750 C   0  0  0  0  0  0  0  0  0  0  0  0
   23.1070   63.6400   -8.8040 C   0  0  0  0  0  0  0  0  0  0  0  0
   22.0550   63.9500   -7.9560 C   0  0  0  0  0  0  0  0  0  0  0  0
   20.7580   63.8340   -8.3900 C   0  0  0  0  0  0  0  0  0  0  0  0
   22.4240   64.3940   -6.5860 C   0  0  1  0  0  0  0  0  0  0  0  0
   23.4420   63.4850   -6.1030 N   0  0  0  0  0  0  0  0  0  0  0  0
   24.7050   64.0860   -6.0890 C   0  0  0  0  0  0  0  0  0  0  0  0
   25.7830   63.5220   -5.8470 O   0  0  0  0  0  0  0  0  0  0  0  0
   24.5260   65.5010   -6.4150 C   0  0  0  0  0  0  0  0  0  0  0  0
   25.4870   66.3090   -6.4850 O   0  0  0  0  0  0  0  0  0  0  0  0
   23.1130   65.7360   -6.6230 C   0  0  0  0  0  0  0  0  0  0  0  0
   22.5670   66.9010   -6.8470 C   0  0  0  0  0  0  0  0  0  0  0  0
   21.2060   66.9840   -7.0940 O   0  0  0  0  0  0  0  0  0  0  0  0
   23.3350   68.1220   -6.8390 C   0  0  0  0  0  0  0  0  0  0  0  0
   23.2440   68.8640   -5.6540 C   0  0  0  0  0  0  0  0  0  0  0  0
   23.9510   70.0300   -5.4910 C   0  0  0  0  0  0  0  0  0  0  0  0
   24.7640   70.4910   -6.5000 C   0  0  0  0  0  0  0  0  0  0  0  0
   24.8360   69.7420   -7.6600 C   0  0  0  0  0  0  0  0  0  0  0  0
   24.1370   68.5690   -7.8410 C   0  0  0  0  0  0  0  0  0  0  0  0
   25.3600   71.6940   -6.0670 O   0  0  0  0  0  0  0  0  0  0  0  0
   24.6230   72.1840   -4.9510 C   0  0  2  0  0  0  0  0  0  0  0  0
   23.9880   70.9650   -4.3210 C   0  0  0  0  0  0  0  0  0  0  0  0
   23.5050   73.1180   -5.3730 C   0  0  0  0  0  0  0  0  0  0  0  0
   23.1150   62.1310   -5.7060 C   0  0  0  0  0  0  0  0  0  0  0  0
   22.7780   61.9220   -4.2900 C   0  0  0  0  0  0  0  0  0  0  0  0
   23.7900   62.2880   -3.2690 C   0  0  0  0  0  0  0  0  0  0  0  0
   24.6530   61.2020   -2.8730 N   0  0  0  0  0  4  0  0  0  0  0  0
   24.9780   61.3470   -1.4470 C   0  0  0  0  0  0  0  0  0  0  0  0
   25.8950   61.3500   -3.6090 C   0  0  0  0  0  0  0  0  0  0  0  0
   23.9740   62.9050  -10.9280 O   0  0  0  0  0  0  0  0  0  0  0  0
   24.2850   63.6510  -12.0730 C   0  0  0  0  0  0  0  0  0  0  0  0
   21.3970   62.6610  -11.8290 O   0  0  0  0  0  0  0  0  0  0  0  0
   24.1490   63.7300   -8.4660 H   0  0  0  0  0  0  0  0  0  0  0  0
   19.9490   64.0840   -7.7110 H   0  0  0  0  0  0  0  0  0  0  0  0
   21.5550   64.4060   -5.8990 H   0  0  0  0  0  0  0  0  0  0  0  0
   22.6030   68.5220   -4.8230 H   0  0  0  0  0  0  0  0  0  0  0  0
   25.4790   70.0870   -8.4830 H   0  0  0  0  0  0  0  0  0  0  0  0
   24.2160   67.9750   -8.7430 H   0  0  0  0  0  0  0  0  0  0  0  0
   25.2530   72.6760   -4.1960 H   0  0  0  0  0  0  0  0  0  0  0  0
   22.9420   71.1850   -3.9530 H   0  0  0  0  0  0  0  0  0  0  0  0
   24.5390   70.5640   -3.4660 H   0  0  0  0  0  0  0  0  0  0  0  0
   23.2830   72.9560   -6.4550 H   0  0  0  0  0  0  0  0  0  0  0  0
   23.7560   74.1770   -5.1420 H   0  0  0  0  0  0  0  0  0  0  0  0
   22.5930   72.8680   -4.8170 H   0  0  0  0  0  0  0  0  0  0  0  0
   22.2670   61.7930   -6.3350 H   0  0  0  0  0  0  0  0  0  0  0  0
   23.9550   61.4400   -6.0250 H   0  0  0  0  0  0  0  0  0  0  0  0
   22.5490   60.8260   -4.1460 H   0  0  0  0  0  0  0  0  0  0  0  0
   21.8290   62.4300   -4.0370 H   0  0  0  0  0  0  0  0  0  0  0  0
   24.4180   63.1560   -3.5090 H   0  0  0  0  0  0  0  0  0  0  0  0
   23.2250   62.5800   -2.3410 H   0  0  0  0  0  0  0  0  0  0  0  0
   24.2900   60.2640   -3.0650 H   0  0  0  0  0  0  0  0  0  0  0  0
   24.0840   61.1120   -0.8110 H   0  0  0  0  0  0  0  0  0  0  0  0
   25.7860   60.6530   -1.1410 H   0  0  0  0  0  0  0  0  0  0  0  0
   25.3200   62.3970   -1.2720 H   0  0  0  0  0  0  0  0  0  0  0  0
   26.1690   60.4260   -4.1510 H   0  0  0  0  0  0  0  0  0  0  0  0
   26.7230   61.6750   -2.9410 H   0  0  0  0  0  0  0  0  0  0  0  0
   25.8140   62.1540   -4.3940 H   0  0  0  0  0  0  0  0  0  0  0  0
   23.4110   63.7530  -12.7660 H   0  0  0  0  0  0  0  0  0  0  0  0
   24.6370   64.6650  -11.7220 H   0  0  0  0  0  0  0  0  0  0  0  0
   25.1200   63.1670  -12.5910 H   0  0  0  0  0  0  0  0  0  0  0  0
   21.2490   61.7010  -12.0220 H   0  0  0  0  0  0  0  0  0  0  0  0
  1  2  1  0  0  0  0
  2  7  1  0  0  0  0
  3  4  1  0  0  0  0
  3  2  2  0  0  0  0
  4  5  2  0  0  0  0
  5 36  1  0  0  0  0
  5  6  1  0  0  0  0
  6  8  1  0  0  0  0
  7  6  2  0  0  0  0
  7 37  1  0  0  0  0
  8  9  1  0  0  0  0
  8 38  1  1  0  0  0
  9 10  1  0  0  0  0
  9 27  1  0  0  0  0
 10 11  2  0  0  0  0
 12 10  1  0  0  0  0
 13 12  2  0  0  0  0
 14  8  1  0  0  0  0
 14 12  1  0  0  0  0
 15 17  1  0  0  0  0
 15 14  2  0  0  0  0
 16 15  1  0  0  0  0
 17 18  1  0  0  0  0
 18 19  2  0  0  0  0
 18 39  1  0  0  0  0
 19 25  1  0  0  0  0
 20 23  1  0  0  0  0
 20 19  1  0  0  0  0
 21 20  2  0  0  0  0
 22 21  1  0  0  0  0
 22 17  2  0  0  0  0
 23 24  1  0  0  0  0
 24 25  1  0  0  0  0
 24 42  1  1  0  0  0
 25 43  1  0  0  0  0
 25 44  1  0  0  0  0
 26 46  1  0  0  0  0
 26 24  1  0  0  0  0
 26 47  1  0  0  0  0
 27 28  1  0  0  0  0
 28 50  1  0  0  0  0
 28 51  1  0  0  0  0
 28 29  1  0  0  0  0
 29 30  1  0  0  0  0
 29 53  1  0  0  0  0
 30 31  1  0  0  0  0
 31 57  1  0  0  0  0
 31 56  1  0  0  0  0
 31 55  1  0  0  0  0
 32 59  1  0  0  0  0
 32 30  1  0  0  0  0
 33  4  1  0  0  0  0
 34 62  1  0  0  0  0
 34 33  1  0  0  0  0
 35  3  1  0  0  0  0
 40 21  1  0  0  0  0
 41 22  1  0  0  0  0
 45 26  1  0  0  0  0
 48 27  1  0  0  0  0
 49 27  1  0  0  0  0
 52 29  1  0  0  0  0
 54 30  1  0  0  0  0
 58 32  1  0  0  0  0
 60 32  1  0  0  0  0
 61 34  1  0  0  0  0
 63 34  1  0  0  0  0
 64 35  1  0  0  0  0
M  END
>  <Pose>
1

>  <Score>
-5.22

$$$$
