
 OpenBabel03202210193D

 39 42  0  0  1  0  0  0  0  0999 V2000
   15.5450   64.6530  -10.8480 B   0  0  0  0  0  0  0  0  0  0  0  0
   17.0520   63.5240  -10.5880 C   0  0  0  0  0  0  0  0  0  0  0  0
   16.8710   62.2030  -10.2550 C   0  0  0  0  0  0  0  0  0  0  0  0
   17.9820   61.4080  -10.0730 C   0  0  0  0  0  0  0  0  0  0  0  0
   19.2780   61.8590  -10.2040 C   0  0  0  0  0  0  0  0  0  0  0  0
   19.4510   63.1850  -10.5390 C   0  0  0  0  0  0  0  0  0  0  0  0
   18.3580   64.0020  -10.7270 C   0  0  0  0  0  0  0  0  0  0  0  0
   20.8010   63.7910  -10.7160 C   0  0  2  0  0  0  0  0  0  0  0  0
   21.5010   63.0870  -11.7080 N   0  0  0  0  0  4  0  0  0  0  0  0
   22.8570   62.7490  -11.5000 C   0  0  1  0  0  0  0  0  0  0  0  0
   23.5750   63.5660  -10.4600 C   0  0  0  0  0  0  0  0  0  0  0  0
   22.7630   63.7410   -9.2330 C   0  0  0  0  0  0  0  0  0  0  0  0
   23.0970   63.8230   -7.9080 C   0  0  0  0  0  0  0  0  0  0  0  0
   21.8930   63.9840   -7.2450 C   0  0  0  0  0  0  0  0  0  0  0  0
   20.8830   63.9970   -8.1550 N   0  0  0  0  0  0  0  0  0  0  0  0
   21.4130   63.8480   -9.3760 C   0  0  0  0  0  0  0  0  0  0  0  0
   21.9490   64.0940   -5.8720 C   0  0  0  0  0  0  0  0  0  0  0  0
   23.1460   64.0460   -5.1890 C   0  0  0  0  0  0  0  0  0  0  0  0
   24.3460   63.8850   -5.8520 C   0  0  0  0  0  0  0  0  0  0  0  0
   24.3070   63.7730   -7.2320 C   0  0  0  0  0  0  0  0  0  0  0  0
   23.0470   61.3170  -11.1420 C   0  0  0  0  0  0  0  0  0  0  0  0
   23.5920   60.5280  -11.9870 O   0  0  0  0  0  0  0  0  0  0  0  0
   22.6300   60.8570   -9.9040 O   0  0  0  0  0  0  0  0  0  0  0  0
   17.7070   59.5790   -9.6100 B   0  0  0  0  0  0  0  0  0  0  0  0
   15.5770   61.6650  -10.1010 O   0  0  0  0  0  0  0  0  0  0  0  0
   20.1540   61.2660  -10.0690 H   0  0  0  0  0  0  0  0  0  0  0  0
   18.4150   65.0530  -10.9940 H   0  0  0  0  0  0  0  0  0  0  0  0
   20.6130   64.8580  -11.0200 H   0  0  0  0  0  0  0  0  0  0  0  0
   20.9870   62.2080  -12.0040 H   0  0  0  0  0  0  0  0  0  0  0  0
   21.4540   63.6650  -12.6080 H   0  0  0  0  0  0  0  0  0  0  0  0
   23.4630   62.8820  -12.4480 H   0  0  0  0  0  0  0  0  0  0  0  0
   23.8700   64.5740  -10.8180 H   0  0  0  0  0  0  0  0  0  0  0  0
   24.5080   63.0400  -10.1690 H   0  0  0  0  0  0  0  0  0  0  0  0
   19.8900   64.1100   -7.8560 H   0  0  0  0  0  0  0  0  0  0  0  0
   21.0280   64.2210   -5.3300 H   0  0  0  0  0  0  0  0  0  0  0  0
   23.1850   64.1350   -4.0920 H   0  0  0  0  0  0  0  0  0  0  0  0
   25.2650   63.8520   -5.2830 H   0  0  0  0  0  0  0  0  0  0  0  0
   25.2330   63.6450   -7.7760 H   0  0  0  0  0  0  0  0  0  0  0  0
   15.4360   60.9840   -9.3670 H   0  0  0  0  0  0  0  0  0  0  0  0
  1  2  1  0  0  0  0
  2  3  1  0  0  0  0
  3 25  1  0  0  0  0
  3  4  2  0  0  0  0
  4 24  1  0  0  0  0
  5  4  1  0  0  0  0
  5 26  1  0  0  0  0
  6  5  2  0  0  0  0
  7  2  2  0  0  0  0
  7  6  1  0  0  0  0
  8 28  1  6  0  0  0
  8  6  1  0  0  0  0
  8 16  1  0  0  0  0
  9 10  1  0  0  0  0
  9  8  1  0  0  0  0
 10 31  1  6  0  0  0
 10 21  1  0  0  0  0
 10 11  1  0  0  0  0
 11 33  1  0  0  0  0
 11 12  1  0  0  0  0
 12 13  1  0  0  0  0
 13 14  2  0  0  0  0
 13 20  1  0  0  0  0
 14 17  1  0  0  0  0
 15 34  1  0  0  0  0
 15 14  1  0  0  0  0
 16 12  2  0  0  0  0
 16 15  1  0  0  0  0
 17 35  1  0  0  0  0
 17 18  2  0  0  0  0
 18 36  1  0  0  0  0
 19 37  1  0  0  0  0
 19 18  1  0  0  0  0
 20 19  2  0  0  0  0
 21 23  1  0  0  0  0
 22 21  2  0  0  0  0
 25 39  1  0  0  0  0
 27  7  1  0  0  0  0
 29  9  1  0  0  0  0
 30  9  1  0  0  0  0
 32 11  1  0  0  0  0
 38 20  1  0  0  0  0
M  END
>  <Pose>
1

>  <Score>
-5.96

$$$$
