
 OpenBabel03202210193D

 47 50  0  0  1  0  0  0  0  0999 V2000
   20.7920   62.9290  -11.2960 B   0  0  0  0  0  0  0  0  0  0  0  0
   21.0160   63.3340   -9.4310 C   0  0  0  0  0  0  0  0  0  0  0  0
   22.2430   63.4510   -8.8820 C   0  0  0  0  0  0  0  0  0  0  0  0
   22.3960   63.6880   -7.4850 C   0  0  0  0  0  0  0  0  0  0  0  0
   21.2740   63.7810   -6.7370 C   0  0  0  0  0  0  0  0  0  0  0  0
   20.0280   63.6460   -7.3170 C   0  0  0  0  0  0  0  0  0  0  0  0
   19.8830   63.4270   -8.6520 C   0  0  0  0  0  0  0  0  0  0  0  0
   23.7550   63.3880   -6.9930 C   0  0  0  0  0  0  0  0  0  0  0  0
   23.9930   63.0430   -5.6510 N   0  0  2  0  0  4  0  0  0  0  0  0
   23.4890   61.8940   -5.0880 C   0  0  0  0  0  0  0  0  0  0  0  0
   23.9810   61.6830   -3.7290 N   0  0  2  0  0  0  0  0  0  0  0  0
   23.5960   62.8420   -2.9400 C   0  0  0  0  0  0  0  0  0  0  0  0
   24.0760   64.0800   -3.5180 N   0  0  2  0  0  0  0  0  0  0  0  0
   23.6730   64.2770   -4.8540 C   0  0  0  0  0  0  0  0  0  0  0  0
   25.5220   64.0840   -3.4290 C   0  0  0  0  0  0  0  0  0  0  0  0
   25.9960   62.8780   -4.2000 C   0  0  2  0  0  0  0  0  0  0  0  0
   25.4960   63.0050   -5.5910 C   0  0  0  0  0  0  0  0  0  0  0  0
   25.4170   61.5780   -3.6490 C   0  0  0  0  0  0  0  0  0  0  0  0
   23.3600   63.3480   -9.6330 O   0  0  0  0  0  0  0  0  0  0  0  0
   23.5710   64.0750  -10.8590 C   0  0  0  0  0  0  0  0  0  0  0  0
   23.8450   63.2940  -12.0630 C   0  0  0  0  0  0  0  0  0  0  0  0
   23.5580   62.1160  -12.2200 O   0  0  0  0  0  0  0  0  0  0  0  0
   24.4530   63.9580  -13.1330 O   0  0  0  0  0  0  0  0  0  0  0  0
   25.6900   63.5720  -13.6710 C   0  0  0  0  0  0  0  0  0  0  0  0
   21.3490   63.9160   -5.6590 H   0  0  0  0  0  0  0  0  0  0  0  0
   19.1350   63.7140   -6.6560 H   0  0  0  0  0  0  0  0  0  0  0  0
   18.9100   63.3660   -9.1110 H   0  0  0  0  0  0  0  0  0  0  0  0
   24.5760   63.8480   -7.5510 H   0  0  0  0  0  0  0  0  0  0  0  0
   23.9310   62.2360   -7.4780 H   0  0  0  0  0  0  0  0  0  0  0  0
   23.6380   61.0160   -5.7220 H   0  0  0  0  0  0  0  0  0  0  0  0
   22.3800   62.0160   -4.9720 H   0  0  0  0  0  0  0  0  0  0  0  0
   24.1090   62.7530   -1.9570 H   0  0  0  0  0  0  0  0  0  0  0  0
   22.5140   62.8590   -2.7440 H   0  0  0  0  0  0  0  0  0  0  0  0
   22.6040   64.5110   -4.9150 H   0  0  0  0  0  0  0  0  0  0  0  0
   24.3070   65.0770   -5.3210 H   0  0  0  0  0  0  0  0  0  0  0  0
   25.8860   64.9780   -4.0050 H   0  0  0  0  0  0  0  0  0  0  0  0
   25.8920   64.0550   -2.4070 H   0  0  0  0  0  0  0  0  0  0  0  0
   27.1070   62.8190   -4.2620 H   0  0  0  0  0  0  0  0  0  0  0  0
   25.8340   63.9210   -6.1250 H   0  0  0  0  0  0  0  0  0  0  0  0
   25.7450   62.1050   -6.2230 H   0  0  0  0  0  0  0  0  0  0  0  0
   25.7130   61.5200   -2.6000 H   0  0  0  0  0  0  0  0  0  0  0  0
   25.8060   60.7760   -4.2910 H   0  0  0  0  0  0  0  0  0  0  0  0
   24.3330   64.8920  -10.6500 H   0  0  0  0  0  0  0  0  0  0  0  0
   22.6140   64.6550  -11.0720 H   0  0  0  0  0  0  0  0  0  0  0  0
   25.8350   64.0130  -14.6800 H   0  0  0  0  0  0  0  0  0  0  0  0
   25.7420   62.4610  -13.6960 H   0  0  0  0  0  0  0  0  0  0  0  0
   26.4650   63.9770  -12.9620 H   0  0  0  0  0  0  0  0  0  0  0  0
  1  2  1  0  0  0  0
  2  3  2  0  0  0  0
  2  7  1  0  0  0  0
  3  4  1  0  0  0  0
  4  8  1  0  0  0  0
  4  5  2  0  0  0  0
  5 25  1  0  0  0  0
  6  5  1  0  0  0  0
  6 26  1  0  0  0  0
  7  6  2  0  0  0  0
  9  8  1  6  0  0  0
  9 17  1  0  0  0  0
  9 10  1  0  0  0  0
  9 14  1  0  0  0  0
 10 31  1  0  0  0  0
 11 10  1  6  0  0  0
 11 18  1  0  0  0  0
 11 12  1  0  0  0  0
 12 33  1  0  0  0  0
 12 32  1  0  0  0  0
 13 14  1  6  0  0  0
 13 15  1  0  0  0  0
 13 12  1  0  0  0  0
 15 37  1  0  0  0  0
 16 38  1  1  0  0  0
 16 18  1  0  0  0  0
 16 15  1  0  0  0  0
 17 16  1  0  0  0  0
 18 41  1  0  0  0  0
 19  3  1  0  0  0  0
 20 43  1  0  0  0  0
 20 19  1  0  0  0  0
 21 20  1  0  0  0  0
 22 21  2  0  0  0  0
 23 21  1  0  0  0  0
 24 23  1  0  0  0  0
 24 47  1  0  0  0  0
 27  7  1  0  0  0  0
 28  8  1  0  0  0  0
 29  8  1  0  0  0  0
 30 10  1  0  0  0  0
 34 14  1  0  0  0  0
 35 14  1  0  0  0  0
 36 15  1  0  0  0  0
 39 17  1  0  0  0  0
 40 17  1  0  0  0  0
 42 18  1  0  0  0  0
 44 20  1  0  0  0  0
 45 24  1  0  0  0  0
 46 24  1  0  0  0  0
M  END
>  <Pose>
1

>  <Score>
-5.08

$$$$
