
 OpenBabel03202210193D

 52 55  0  0  0  0  0  0  0  0999 V2000
   18.1170   60.1900   -9.8490 B   0  0  0  0  0  0  0  0  0  0  0  0
   17.1880   61.7920  -10.2990 C   0  0  0  0  0  0  0  0  0  0  0  0
   15.8140   61.7860  -10.4570 C   0  0  0  0  0  0  0  0  0  0  0  0
   15.1620   62.9660  -10.7840 C   0  0  0  0  0  0  0  0  0  0  0  0
   15.8900   64.1220  -10.9500 C   0  0  0  0  0  0  0  0  0  0  0  0
   17.2670   64.0880  -10.7840 C   0  0  0  0  0  0  0  0  0  0  0  0
   17.9370   62.9340  -10.4590 C   0  0  0  0  0  0  0  0  0  0  0  0
   19.3710   62.9430  -10.3040 C   0  0  0  0  0  0  0  0  0  0  0  0
   19.9950   62.5940   -9.2270 N   0  0  0  0  0  0  0  0  0  0  0  0
   21.4160   62.6360   -9.1690 N   0  0  0  0  0  0  0  0  0  0  0  0
   22.0990   63.4130   -8.2110 C   0  0  0  0  0  0  0  0  0  0  0  0
   22.8350   62.8030   -7.2770 N   0  0  0  0  0  4  0  0  0  0  0  0
   23.5100   63.4950   -6.3210 C   0  0  0  0  0  0  0  0  0  0  0  0
   23.4350   64.8350   -6.3180 N   0  0  0  0  0  0  0  0  0  0  0  0
   22.7040   65.4770   -7.2420 C   0  0  0  0  0  0  0  0  0  0  0  0
   22.0390   64.7480   -8.1860 N   0  0  0  0  0  0  0  0  0  0  0  0
   22.6190   66.9020   -7.2470 N   0  0  0  0  0  0  0  0  0  0  0  0
   23.7690   67.7680   -7.3490 C   0  0  0  0  0  0  0  0  0  0  0  0
   23.6870   68.8920   -6.3380 C   0  0  0  0  0  0  0  0  0  0  0  0
   22.5510   68.8130   -5.5460 O   0  0  0  0  0  0  0  0  0  0  0  0
   21.4140   68.8280   -6.3770 C   0  0  0  0  0  0  0  0  0  0  0  0
   21.3140   67.5210   -7.1390 C   0  0  0  0  0  0  0  0  0  0  0  0
   24.2600   62.7540   -5.3850 N   0  0  0  0  0  0  0  0  0  0  0  0
   25.4020   62.0030   -5.8330 C   0  0  0  0  0  0  0  0  0  0  0  0
   26.5790   62.5180   -4.9890 C   0  0  0  0  0  0  0  0  0  0  0  0
   26.2550   62.2000   -3.6690 O   0  0  0  0  0  0  0  0  0  0  0  0
   25.1900   62.9580   -3.1950 C   0  0  0  0  0  0  0  0  0  0  0  0
   23.9180   62.7180   -3.9840 C   0  0  0  0  0  0  0  0  0  0  0  0
   15.1990   65.2780  -11.2790 O   0  0  0  0  0  0  0  0  0  0  0  0
   15.0870   60.6220  -10.2890 O   0  0  0  0  0  0  0  0  0  0  0  0
   14.0870   62.9420  -10.9020 H   0  0  0  0  0  0  0  0  0  0  0  0
   17.7760   65.0310  -10.9280 H   0  0  0  0  0  0  0  0  0  0  0  0
   20.0100   63.2600  -11.1280 H   0  0  0  0  0  0  0  0  0  0  0  0
   21.9830   62.0830   -9.8450 H   0  0  0  0  0  0  0  0  0  0  0  0
   23.7240   68.2470   -8.3700 H   0  0  0  0  0  0  0  0  0  0  0  0
   24.7310   67.2310   -7.2380 H   0  0  0  0  0  0  0  0  0  0  0  0
   23.6640   69.8970   -6.8330 H   0  0  0  0  0  0  0  0  0  0  0  0
   24.5660   68.8540   -5.6380 H   0  0  0  0  0  0  0  0  0  0  0  0
   20.5370   68.9560   -5.7030 H   0  0  0  0  0  0  0  0  0  0  0  0
   21.4580   69.6960   -7.0950 H   0  0  0  0  0  0  0  0  0  0  0  0
   20.9560   67.7110   -8.1630 H   0  0  0  0  0  0  0  0  0  0  0  0
   20.6010   66.8400   -6.5900 H   0  0  0  0  0  0  0  0  0  0  0  0
   25.5940   62.1880   -6.9110 H   0  0  0  0  0  0  0  0  0  0  0  0
   25.2250   60.9240   -5.6210 H   0  0  0  0  0  0  0  0  0  0  0  0
   27.5280   62.0600   -5.2550 H   0  0  0  0  0  0  0  0  0  0  0  0
   26.5710   63.6330   -5.1390 H   0  0  0  0  0  0  0  0  0  0  0  0
   25.4220   64.0330   -3.1110 H   0  0  0  0  0  0  0  0  0  0  0  0
   24.9760   62.5780   -2.1660 H   0  0  0  0  0  0  0  0  0  0  0  0
   23.5640   61.6800   -3.7440 H   0  0  0  0  0  0  0  0  0  0  0  0
   23.1730   63.4800   -3.7040 H   0  0  0  0  0  0  0  0  0  0  0  0
   15.0510   66.0520  -10.6450 H   0  0  0  0  0  0  0  0  0  0  0  0
   14.5360   60.2850  -11.0680 H   0  0  0  0  0  0  0  0  0  0  0  0
  2  1  1  0  0  0  0
  3  2  1  0  0  0  0
  3 30  1  0  0  0  0
  4  3  2  0  0  0  0
  5  4  1  0  0  0  0
  5  6  2  0  0  0  0
  6  7  1  0  0  0  0
  7  8  1  0  0  0  0
  7  2  2  0  0  0  0
  8  9  2  0  0  0  0
  9 10  1  0  0  0  0
 10 11  1  0  0  0  0
 11 16  1  0  0  0  0
 11 12  2  0  0  0  0
 12 13  2  0  0  0  0
 13 14  1  0  0  0  0
 13 23  1  0  0  0  0
 15 14  2  0  0  0  0
 16 15  1  0  0  0  0
 17 15  1  0  0  0  0
 17 22  1  0  0  0  0
 18 17  1  0  0  0  0
 18 36  1  0  0  0  0
 18 19  1  0  0  0  0
 19 38  1  0  0  0  0
 19 20  1  0  0  0  0
 21 39  1  0  0  0  0
 21 20  1  0  0  0  0
 22 42  1  0  0  0  0
 22 21  1  0  0  0  0
 23 28  1  0  0  0  0
 24 44  1  0  0  0  0
 24 23  1  0  0  0  0
 24 25  1  0  0  0  0
 25 26  1  0  0  0  0
 26 27  1  0  0  0  0
 27 47  1  0  0  0  0
 27 48  1  0  0  0  0
 28 49  1  0  0  0  0
 28 50  1  0  0  0  0
 28 27  1  0  0  0  0
 29  5  1  0  0  0  0
 29 51  1  0  0  0  0
 31  4  1  0  0  0  0
 32  6  1  0  0  0  0
 33  8  1  0  0  0  0
 34 10  1  0  0  0  0
 35 18  1  0  0  0  0
 37 19  1  0  0  0  0
 40 21  1  0  0  0  0
 41 22  1  0  0  0  0
 43 24  1  0  0  0  0
 45 25  1  0  0  0  0
 46 25  1  0  0  0  0
 52 30  1  0  0  0  0
M  END
>  <Pose>
1

>  <Score>
-8.96

$$$$
