
 OpenBabel03202210193D

 46 49  0  0  1  0  0  0  0  0999 V2000
   24.8780   63.4000   -2.4940 B   0  0  0  0  0  0  0  0  0  0  0  0
   24.3970   63.4120   -4.3380 C   0  0  0  0  0  0  0  0  0  0  0  0
   25.2930   62.8870   -5.2610 C   0  0  0  0  0  0  0  0  0  0  0  0
   24.9240   62.9060   -6.5790 C   0  0  0  0  0  0  0  0  0  0  0  0
   23.7320   63.4060   -7.0570 C   0  0  0  0  0  0  0  0  0  0  0  0
   22.8600   63.9250   -6.0970 C   0  0  0  0  0  0  0  0  0  0  0  0
   23.1870   63.9290   -4.7550 C   0  0  0  0  0  0  0  0  0  0  0  0
   23.3660   63.4190   -8.4300 N   0  0  0  0  0  0  0  0  0  0  0  0
   22.0090   63.2910   -8.9050 C   0  0  0  0  0  0  0  0  0  0  0  0
   22.0420   64.1220  -10.1690 C   0  0  1  0  0  0  0  0  0  0  0  0
   23.3360   63.6430  -10.8010 C   0  0  0  0  0  0  0  0  0  0  0  0
   24.1810   63.5450   -9.5820 C   0  0  0  0  0  0  0  0  0  0  0  0
   25.4300   63.5700   -9.5860 O   0  0  0  0  0  0  0  0  0  0  0  0
   20.8740   63.8630  -11.0370 C   0  0  0  0  0  0  0  0  0  0  0  0
   21.0060   63.3170  -12.1590 O   0  0  0  0  0  0  0  0  0  0  0  0
   19.5910   64.2380  -10.5880 N   0  0  0  0  0  0  0  0  0  0  0  0
   19.0320   63.6680   -9.3870 C   0  0  0  0  0  0  0  0  0  0  0  0
   18.3820   62.3560   -9.6660 C   0  0  0  0  0  0  0  0  0  0  0  0
   17.1400   62.1330  -10.1620 N   0  0  0  0  0  0  0  0  0  0  0  0
   16.9330   60.8090  -10.2680 C   0  0  0  0  0  0  0  0  0  0  0  0
   18.0790   60.2320   -9.8260 N   0  0  0  0  0  0  0  0  0  0  0  0
   18.9470   61.1550   -9.4640 N   0  0  0  0  0  0  0  0  0  0  0  0
   15.5650   60.5250  -10.8140 C   0  0  0  0  0  0  0  0  0  0  0  0
   14.8740   61.8600  -10.6510 C   0  0  0  0  0  0  0  0  0  0  0  0
   15.9820   62.8900  -10.6030 C   0  0  0  0  0  0  0  0  0  0  0  0
   26.5900   62.3400   -4.7800 C   0  0  0  0  0  0  0  0  0  0  0  0
   25.6410   62.4870   -7.2950 H   0  0  0  0  0  0  0  0  0  0  0  0
   21.9000   64.3420   -6.3570 H   0  0  0  0  0  0  0  0  0  0  0  0
   22.5240   64.3240   -4.0000 H   0  0  0  0  0  0  0  0  0  0  0  0
   21.8360   62.2100   -9.1180 H   0  0  0  0  0  0  0  0  0  0  0  0
   21.2640   63.6770   -8.1790 H   0  0  0  0  0  0  0  0  0  0  0  0
   22.1440   65.1760   -9.8600 H   0  0  0  0  0  0  0  0  0  0  0  0
   23.6750   64.4600  -11.4700 H   0  0  0  0  0  0  0  0  0  0  0  0
   23.2110   62.6880  -11.3120 H   0  0  0  0  0  0  0  0  0  0  0  0
   19.0350   64.9320  -11.1190 H   0  0  0  0  0  0  0  0  0  0  0  0
   19.7850   63.5320   -8.5910 H   0  0  0  0  0  0  0  0  0  0  0  0
   18.2560   64.3580   -8.9540 H   0  0  0  0  0  0  0  0  0  0  0  0
   15.6520   60.2130  -11.8640 H   0  0  0  0  0  0  0  0  0  0  0  0
   15.0140   59.8060  -10.1730 H   0  0  0  0  0  0  0  0  0  0  0  0
   14.2330   61.8930   -9.7440 H   0  0  0  0  0  0  0  0  0  0  0  0
   14.2020   61.9940  -11.5160 H   0  0  0  0  0  0  0  0  0  0  0  0
   15.7620   63.7190   -9.9110 H   0  0  0  0  0  0  0  0  0  0  0  0
   16.1020   63.3090  -11.6220 H   0  0  0  0  0  0  0  0  0  0  0  0
   27.2200   62.0580   -5.6440 H   0  0  0  0  0  0  0  0  0  0  0  0
   27.0970   63.0430   -4.0920 H   0  0  0  0  0  0  0  0  0  0  0  0
   26.3370   61.3740   -4.2670 H   0  0  0  0  0  0  0  0  0  0  0  0
  2  1  1  0  0  0  0
  3 26  1  0  0  0  0
  3  2  2  0  0  0  0
  4  3  1  0  0  0  0
  5  4  2  0  0  0  0
  5  6  1  0  0  0  0
  6  7  2  0  0  0  0
  7  2  1  0  0  0  0
  7 29  1  0  0  0  0
  8  5  1  0  0  0  0
  9  8  1  0  0  0  0
  9 31  1  0  0  0  0
 10 32  1  1  0  0  0
 10  9  1  0  0  0  0
 11 10  1  0  0  0  0
 11 12  1  0  0  0  0
 12  8  1  0  0  0  0
 13 12  2  0  0  0  0
 14 16  1  0  0  0  0
 14 10  1  0  0  0  0
 15 14  2  0  0  0  0
 16 17  1  0  0  0  0
 17 37  1  0  0  0  0
 17 36  1  0  0  0  0
 18 22  2  0  0  0  0
 18 17  1  0  0  0  0
 19 18  1  0  0  0  0
 20 19  1  0  0  0  0
 20 21  2  0  0  0  0
 21 22  1  0  0  0  0
 23 24  1  0  0  0  0
 23 20  1  0  0  0  0
 23 39  1  0  0  0  0
 24 25  1  0  0  0  0
 24 40  1  0  0  0  0
 25 19  1  0  0  0  0
 25 42  1  0  0  0  0
 26 46  1  0  0  0  0
 26 45  1  0  0  0  0
 27  4  1  0  0  0  0
 28  6  1  0  0  0  0
 30  9  1  0  0  0  0
 33 11  1  0  0  0  0
 34 11  1  0  0  0  0
 35 16  1  0  0  0  0
 38 23  1  0  0  0  0
 41 24  1  0  0  0  0
 43 25  1  0  0  0  0
 44 26  1  0  0  0  0
M  END
>  <Pose>
1

>  <Score>
-7.39

$$$$
