
 OpenBabel03202210193D

 41 43  0  0  1  0  0  0  0  0999 V2000
   22.2970   66.9770   -6.7860 B   0  0  0  0  0  0  0  0  0  0  0  0
   23.0890   65.2470   -6.5130 C   0  0  0  0  0  0  0  0  0  0  0  0
   23.1560   64.4160   -7.6410 C   0  0  0  0  0  0  0  0  0  0  0  0
   23.7290   63.1820   -7.4170 C   0  0  0  0  0  0  0  0  0  0  0  0
   24.2000   62.8080   -6.1570 C   0  0  0  0  0  0  0  0  0  0  0  0
   24.1240   63.6400   -5.0660 C   0  0  0  0  0  0  0  0  0  0  0  0
   23.5550   64.8730   -5.2770 C   0  0  0  0  0  0  0  0  0  0  0  0
   24.6340   63.2210   -3.7250 C   0  0  0  0  0  0  0  0  0  0  0  0
   22.6590   64.8590   -8.8880 N   0  0  0  0  0  0  0  0  0  0  0  0
   22.1770   64.0960   -9.9530 C   0  0  0  0  0  0  0  0  0  0  0  0
   22.8200   63.1390  -10.4060 O   0  0  0  0  0  0  0  0  0  0  0  0
   20.8720   64.4440  -10.5480 C   0  0  0  0  0  0  0  0  0  0  0  0
   19.8810   63.4180  -10.5220 N   0  0  1  0  0  4  0  0  0  0  0  0
   18.6110   64.0400  -10.1150 C   0  0  0  0  0  0  0  0  0  0  0  0
   17.4990   63.1660  -10.6410 C   0  0  0  0  0  0  0  0  0  0  0  0
   17.9530   61.7870  -10.4620 N   0  0  1  0  0  0  0  0  0  0  0  0
   18.8420   61.5200  -11.5900 C   0  0  0  0  0  0  0  0  0  0  0  0
   19.6990   62.7580  -11.8120 C   0  0  0  0  0  0  0  0  0  0  0  0
   18.7670   61.7050   -9.2590 C   0  0  0  0  0  0  0  0  0  0  0  0
   20.1210   62.3750   -9.5460 C   0  0  0  0  0  0  0  0  0  0  0  0
   23.8190   62.4780   -8.2370 H   0  0  0  0  0  0  0  0  0  0  0  0
   24.6510   61.8270   -5.9960 H   0  0  0  0  0  0  0  0  0  0  0  0
   23.4780   65.5560   -4.4350 H   0  0  0  0  0  0  0  0  0  0  0  0
   24.1530   63.8060   -2.9140 H   0  0  0  0  0  0  0  0  0  0  0  0
   25.7160   63.3440   -3.6410 H   0  0  0  0  0  0  0  0  0  0  0  0
   24.2960   62.1720   -3.5840 H   0  0  0  0  0  0  0  0  0  0  0  0
   22.6510   65.9130   -9.0310 H   0  0  0  0  0  0  0  0  0  0  0  0
   20.9980   64.7220  -11.6390 H   0  0  0  0  0  0  0  0  0  0  0  0
   20.4130   65.3380  -10.0550 H   0  0  0  0  0  0  0  0  0  0  0  0
   18.6370   64.1020   -9.0120 H   0  0  0  0  0  0  0  0  0  0  0  0
   18.5600   65.0730  -10.5150 H   0  0  0  0  0  0  0  0  0  0  0  0
   17.3530   63.4080  -11.7070 H   0  0  0  0  0  0  0  0  0  0  0  0
   16.5500   63.3210  -10.0540 H   0  0  0  0  0  0  0  0  0  0  0  0
   18.2310   61.3870  -12.5050 H   0  0  0  0  0  0  0  0  0  0  0  0
   19.4880   60.6290  -11.4010 H   0  0  0  0  0  0  0  0  0  0  0  0
   20.6740   62.4030  -12.1510 H   0  0  0  0  0  0  0  0  0  0  0  0
   19.2290   63.4880  -12.4890 H   0  0  0  0  0  0  0  0  0  0  0  0
   18.2160   62.2020   -8.4490 H   0  0  0  0  0  0  0  0  0  0  0  0
   18.9160   60.6350   -9.0010 H   0  0  0  0  0  0  0  0  0  0  0  0
   20.7630   61.5760   -9.9810 H   0  0  0  0  0  0  0  0  0  0  0  0
   20.4800   62.7520   -8.5830 H   0  0  0  0  0  0  0  0  0  0  0  0
  1  2  1  0  0  0  0
  2  7  1  0  0  0  0
  3  4  1  0  0  0  0
  3  2  2  0  0  0  0
  4  5  2  0  0  0  0
  5 22  1  0  0  0  0
  5  6  1  0  0  0  0
  6  8  1  0  0  0  0
  7  6  2  0  0  0  0
  7 23  1  0  0  0  0
  8 25  1  0  0  0  0
  8 26  1  0  0  0  0
  8 24  1  0  0  0  0
  9  3  1  0  0  0  0
 10  9  1  0  0  0  0
 11 10  2  0  0  0  0
 12 29  1  0  0  0  0
 12 10  1  0  0  0  0
 13 12  1  6  0  0  0
 13 14  1  0  0  0  0
 13 20  1  0  0  0  0
 14 30  1  0  0  0  0
 15 16  1  0  0  0  0
 15 14  1  0  0  0  0
 15 33  1  0  0  0  0
 16 17  1  6  0  0  0
 16 19  1  0  0  0  0
 17 35  1  0  0  0  0
 18 17  1  0  0  0  0
 18 13  1  0  0  0  0
 19 39  1  0  0  0  0
 19 38  1  0  0  0  0
 20 19  1  0  0  0  0
 20 41  1  0  0  0  0
 21  4  1  0  0  0  0
 27  9  1  0  0  0  0
 28 12  1  0  0  0  0
 31 14  1  0  0  0  0
 32 15  1  0  0  0  0
 34 17  1  0  0  0  0
 36 18  1  0  0  0  0
 37 18  1  0  0  0  0
 40 20  1  0  0  0  0
M  END
>  <Pose>
1

>  <Score>
-5.55

$$$$
