
 OpenBabel03202210193D

 35 38  0  0  0  0  0  0  0  0999 V2000
   20.3370   62.4010  -12.3400 B   0  0  0  0  0  0  0  0  0  0  0  0
   21.3870   63.3510  -11.0750 C   0  0  0  0  0  0  0  0  0  0  0  0
   20.9770   63.8130   -9.8510 C   0  0  0  0  0  0  0  0  0  0  0  0
   22.0370   64.4200   -9.2990 N   0  0  0  0  0  0  0  0  0  0  0  0
   23.0630   64.3470  -10.1240 N   0  0  0  0  0  0  0  0  0  0  0  0
   22.7040   63.6870  -11.2490 C   0  0  0  0  0  0  0  0  0  0  0  0
   23.5870   63.3950  -12.4350 C   0  0  0  0  0  0  0  0  0  0  0  0
   22.0370   65.0500   -7.9990 C   0  0  0  0  0  0  0  0  0  0  0  0
   23.1360   64.5090   -7.1260 C   0  0  0  0  0  0  0  0  0  0  0  0
   24.4570   64.7360   -7.2450 N   0  0  0  0  0  0  0  0  0  0  0  0
   25.1080   64.0810   -6.2820 N   0  0  0  0  0  0  0  0  0  0  0  0
   24.2120   63.4160   -5.5240 C   0  0  0  0  0  0  0  0  0  0  0  0
   23.0100   63.6960   -6.0630 N   0  0  0  0  0  0  0  0  0  0  0  0
   24.6590   62.6620   -4.4570 C   0  0  0  0  0  0  0  0  0  0  0  0
   25.9980   62.5600   -4.1350 C   0  0  0  0  0  0  0  0  0  0  0  0
   26.1560   61.7650   -3.0580 N   0  0  0  0  0  0  0  0  0  0  0  0
   24.9550   61.3630   -2.6900 N   0  0  0  0  0  0  0  0  0  0  0  0
   24.0060   61.8880   -3.5200 C   0  0  0  0  0  0  0  0  0  0  0  0
   27.3930   61.3930   -2.3910 C   0  0  0  0  0  0  0  0  0  0  0  0
   26.8580   63.2380   -4.9160 N   0  0  0  0  0  0  0  0  0  0  0  0
   26.4110   63.9790   -5.9640 C   0  0  0  0  0  0  0  0  0  0  0  0
   19.6010   63.6490   -9.2830 C   0  0  0  0  0  0  0  0  0  0  0  0
   23.0580   63.7540  -13.3290 H   0  0  0  0  0  0  0  0  0  0  0  0
   23.7760   62.3220  -12.5450 H   0  0  0  0  0  0  0  0  0  0  0  0
   24.5140   63.9960  -12.3390 H   0  0  0  0  0  0  0  0  0  0  0  0
   21.0430   64.8920   -7.4960 H   0  0  0  0  0  0  0  0  0  0  0  0
   22.1760   66.1410   -8.0800 H   0  0  0  0  0  0  0  0  0  0  0  0
   22.9480   61.7390   -3.4700 H   0  0  0  0  0  0  0  0  0  0  0  0
   27.6090   62.0500   -1.5160 H   0  0  0  0  0  0  0  0  0  0  0  0
   27.4240   60.3200   -2.1270 H   0  0  0  0  0  0  0  0  0  0  0  0
   28.2570   61.5480   -3.0980 H   0  0  0  0  0  0  0  0  0  0  0  0
   27.1120   64.5300   -6.5990 H   0  0  0  0  0  0  0  0  0  0  0  0
   19.6330   62.7910   -8.6040 H   0  0  0  0  0  0  0  0  0  0  0  0
   18.8770   63.4530  -10.0990 H   0  0  0  0  0  0  0  0  0  0  0  0
   19.2500   64.5920   -8.7920 H   0  0  0  0  0  0  0  0  0  0  0  0
  1  2  1  0  0  0  0
  2  3  2  0  0  0  0
  3  4  1  0  0  0  0
  3 22  1  0  0  0  0
  4  8  1  0  0  0  0
  5  4  1  0  0  0  0
  6  2  1  0  0  0  0
  6  5  2  0  0  0  0
  7 25  1  0  0  0  0
  7  6  1  0  0  0  0
  8 26  1  0  0  0  0
  8  9  1  0  0  0  0
  9 13  1  0  0  0  0
 10  9  2  0  0  0  0
 10 11  1  0  0  0  0
 11 21  1  0  0  0  0
 11 12  1  0  0  0  0
 12 14  1  0  0  0  0
 13 12  2  0  0  0  0
 14 15  2  0  0  0  0
 14 18  1  0  0  0  0
 15 16  1  0  0  0  0
 16 17  1  0  0  0  0
 16 19  1  0  0  0  0
 18 28  1  0  0  0  0
 18 17  2  0  0  0  0
 19 30  1  0  0  0  0
 19 29  1  0  0  0  0
 20 15  1  0  0  0  0
 21 20  2  0  0  0  0
 22 35  1  0  0  0  0
 22 33  1  0  0  0  0
 23  7  1  0  0  0  0
 24  7  1  0  0  0  0
 27  8  1  0  0  0  0
 31 19  1  0  0  0  0
 32 21  1  0  0  0  0
 34 22  1  0  0  0  0
M  END
>  <Pose>
1

>  <Score>
-6.96

$$$$
