
 OpenBabel03202210193D

 40 43  0  0  0  0  0  0  0  0999 V2000
   16.8990   64.1340  -10.4590 B   0  0  0  0  0  0  0  0  0  0  0  0
   18.0360   62.6030  -10.3570 C   0  0  0  0  0  0  0  0  0  0  0  0
   19.3820   62.5250  -10.5050 C   0  0  0  0  0  0  0  0  0  0  0  0
   19.7570   61.2070  -10.3650 N   0  0  0  0  0  0  0  0  0  0  0  0
   18.6630   60.5280  -10.1400 N   0  0  0  0  0  0  0  0  0  0  0  0
   17.5770   61.2920  -10.1180 C   0  0  0  0  0  0  0  0  0  0  0  0
   21.0950   60.6840  -10.4490 C   0  0  0  0  0  0  0  0  0  0  0  0
   20.3580   63.6080  -10.7490 C   0  0  0  0  0  0  0  0  0  0  0  0
   20.8350   63.6870  -11.9420 O   0  0  0  0  0  0  0  0  0  0  0  0
   20.7690   64.5150   -9.7770 N   0  0  0  0  0  0  0  0  0  0  0  0
   21.6500   64.2280   -8.7040 C   0  0  0  0  0  0  0  0  0  0  0  0
   21.9170   65.2740   -7.7970 C   0  0  0  0  0  0  0  0  0  0  0  0
   21.4630   66.5560   -7.7640 N   0  0  0  0  0  0  0  0  0  0  0  0
   22.0000   67.1240   -6.7270 O   0  0  0  0  0  0  0  0  0  0  0  0
   22.7670   66.2900   -6.0960 N   0  0  0  0  0  0  0  0  0  0  0  0
   22.7530   65.1080   -6.7240 C   0  0  0  0  0  0  0  0  0  0  0  0
   23.3890   63.9120   -6.4610 C   0  0  0  0  0  0  0  0  0  0  0  0
   23.1250   62.8890   -7.3520 C   0  0  0  0  0  0  0  0  0  0  0  0
   22.2770   63.0460   -8.4460 C   0  0  0  0  0  0  0  0  0  0  0  0
   24.2500   63.7270   -5.3640 N   0  0  0  0  0  0  0  0  0  0  0  0
   25.5650   63.1380   -5.6060 C   0  0  0  0  0  0  0  0  0  0  0  0
   26.2880   62.8480   -4.3200 C   0  0  0  0  0  0  0  0  0  0  0  0
   25.5300   62.3680   -3.3040 O   0  0  0  0  0  0  0  0  0  0  0  0
   24.2220   62.7500   -3.2290 C   0  0  0  0  0  0  0  0  0  0  0  0
   24.0210   64.0450   -3.9870 C   0  0  0  0  0  0  0  0  0  0  0  0
   16.5480   61.0500   -9.9620 H   0  0  0  0  0  0  0  0  0  0  0  0
   21.7800   61.2690   -9.7940 H   0  0  0  0  0  0  0  0  0  0  0  0
   21.4640   60.7720  -11.4860 H   0  0  0  0  0  0  0  0  0  0  0  0
   21.0850   59.6210  -10.1730 H   0  0  0  0  0  0  0  0  0  0  0  0
   20.3610   65.4940   -9.8670 H   0  0  0  0  0  0  0  0  0  0  0  0
   23.6130   61.9430   -7.1650 H   0  0  0  0  0  0  0  0  0  0  0  0
   22.1180   62.2100   -9.0960 H   0  0  0  0  0  0  0  0  0  0  0  0
   25.4820   62.1800   -6.1630 H   0  0  0  0  0  0  0  0  0  0  0  0
   26.2040   63.8260   -6.2070 H   0  0  0  0  0  0  0  0  0  0  0  0
   27.0690   62.0730   -4.5630 H   0  0  0  0  0  0  0  0  0  0  0  0
   26.8800   63.7640   -4.0510 H   0  0  0  0  0  0  0  0  0  0  0  0
   23.6050   61.9680   -3.7440 H   0  0  0  0  0  0  0  0  0  0  0  0
   23.8430   62.8800   -2.1890 H   0  0  0  0  0  0  0  0  0  0  0  0
   24.8760   64.7230   -3.6860 H   0  0  0  0  0  0  0  0  0  0  0  0
   23.1230   64.5730   -3.7260 H   0  0  0  0  0  0  0  0  0  0  0  0
  1  2  1  0  0  0  0
  2  6  1  0  0  0  0
  3  4  1  0  0  0  0
  3  2  2  0  0  0  0
  4  5  1  0  0  0  0
  5  6  2  0  0  0  0
  6 26  1  0  0  0  0
  7  4  1  0  0  0  0
  7 29  1  0  0  0  0
  7 27  1  0  0  0  0
  8  3  1  0  0  0  0
  8 10  1  0  0  0  0
  9  8  2  0  0  0  0
 10 11  1  0  0  0  0
 11 19  2  0  0  0  0
 11 12  1  0  0  0  0
 12 13  2  0  0  0  0
 12 16  1  0  0  0  0
 13 14  1  0  0  0  0
 14 15  1  0  0  0  0
 16 17  1  0  0  0  0
 16 15  2  0  0  0  0
 17 20  1  0  0  0  0
 18 31  1  0  0  0  0
 18 17  2  0  0  0  0
 19 18  1  0  0  0  0
 20 25  1  0  0  0  0
 21 20  1  0  0  0  0
 21 22  1  0  0  0  0
 22 36  1  0  0  0  0
 22 23  1  0  0  0  0
 23 24  1  0  0  0  0
 24 38  1  0  0  0  0
 25 40  1  0  0  0  0
 25 39  1  0  0  0  0
 25 24  1  0  0  0  0
 28  7  1  0  0  0  0
 30 10  1  0  0  0  0
 32 19  1  0  0  0  0
 33 21  1  0  0  0  0
 34 21  1  0  0  0  0
 35 22  1  0  0  0  0
 37 24  1  0  0  0  0
M  END
>  <Pose>
1

>  <Score>
-7.76

$$$$
