
 OpenBabel03202210193D

 36 39  0  0  0  0  0  0  0  0999 V2000
   16.8980   62.9570   -7.8840 B   0  0  0  0  0  0  0  0  0  0  0  0
   18.4580   62.9670   -8.9560 C   0  0  0  0  0  0  0  0  0  0  0  0
   19.5010   63.8480   -8.6490 C   0  0  0  0  0  0  0  0  0  0  0  0
   20.6240   63.8410   -9.4360 C   0  0  0  0  0  0  0  0  0  0  0  0
   20.7320   62.9920  -10.5060 C   0  0  0  0  0  0  0  0  0  0  0  0
   19.6880   62.1050  -10.8180 C   0  0  0  0  0  0  0  0  0  0  0  0
   18.5570   62.1120  -10.0260 C   0  0  0  0  0  0  0  0  0  0  0  0
   21.9170   63.0440  -11.2790 N   0  0  0  0  0  0  0  0  0  0  0  0
   21.9510   63.4220  -12.5430 N   0  0  0  0  0  0  0  0  0  0  0  0
   23.1800   63.3760  -13.0120 N   0  0  0  0  0  0  0  0  0  0  0  0
   23.9760   62.9600  -12.0400 N   0  0  0  0  0  0  0  0  0  0  0  0
   23.1920   62.7570  -10.9760 C   0  0  0  0  0  0  0  0  0  0  0  0
   21.7900   64.7580   -9.1510 C   0  0  0  0  0  0  0  0  0  0  0  0
   22.3350   65.2810  -10.1760 O   0  0  0  0  0  0  0  0  0  0  0  0
   22.1660   64.9550   -7.8430 N   0  0  0  0  0  0  0  0  0  0  0  0
   22.5400   65.1520   -6.5440 C   0  0  0  0  0  0  0  0  0  0  0  0
   23.7700   64.3620   -6.1290 C   0  0  0  0  0  0  0  0  0  0  0  0
   23.8860   63.6530   -4.9850 N   0  0  0  0  0  0  0  0  0  0  0  0
   25.0920   63.0750   -4.9200 C   0  0  0  0  0  0  0  0  0  0  0  0
   25.7300   63.4340   -6.0450 N   0  0  0  0  0  0  0  0  0  0  0  0
   24.9290   64.2170   -6.7820 N   0  0  0  0  0  0  0  0  0  0  0  0
   25.4450   62.2820   -3.8190 C   0  0  0  0  0  0  0  0  0  0  0  0
   24.5590   62.0900   -2.7960 C   0  0  0  0  0  0  0  0  0  0  0  0
   23.3150   62.6860   -2.8640 C   0  0  0  0  0  0  0  0  0  0  0  0
   22.9990   63.4650   -3.9680 C   0  0  0  0  0  0  0  0  0  0  0  0
   19.4310   64.5270   -7.8110 H   0  0  0  0  0  0  0  0  0  0  0  0
   19.8130   61.4540  -11.6650 H   0  0  0  0  0  0  0  0  0  0  0  0
   17.7500   61.4280  -10.2680 H   0  0  0  0  0  0  0  0  0  0  0  0
   23.5360   62.4180  -10.0190 H   0  0  0  0  0  0  0  0  0  0  0  0
   22.2630   66.2960   -8.0600 H   0  0  0  0  0  0  0  0  0  0  0  0
   21.7670   64.9300   -5.7530 H   0  0  0  0  0  0  0  0  0  0  0  0
   22.8420   66.2160   -6.2820 H   0  0  0  0  0  0  0  0  0  0  0  0
   26.4320   61.8450   -3.8170 H   0  0  0  0  0  0  0  0  0  0  0  0
   24.8010   61.4760   -1.9170 H   0  0  0  0  0  0  0  0  0  0  0  0
   22.5780   62.5750   -2.1030 H   0  0  0  0  0  0  0  0  0  0  0  0
   22.0400   63.9500   -4.0580 H   0  0  0  0  0  0  0  0  0  0  0  0
  2  3  1  0  0  0  0
  2  1  1  0  0  0  0
  3 26  1  0  0  0  0
  4 13  1  0  0  0  0
  4  3  2  0  0  0  0
  5  4  1  0  0  0  0
  6  5  2  0  0  0  0
  6  7  1  0  0  0  0
  7  2  2  0  0  0  0
  8 12  1  0  0  0  0
  8  5  1  0  0  0  0
  9  8  1  0  0  0  0
 10  9  2  0  0  0  0
 10 11  1  0  0  0  0
 11 12  2  0  0  0  0
 12 29  1  0  0  0  0
 13 15  1  0  0  0  0
 14 13  2  0  0  0  0
 15 16  1  0  0  0  0
 16 32  1  0  0  0  0
 16 17  1  0  0  0  0
 16 31  1  0  0  0  0
 17 18  1  0  0  0  0
 18 19  1  0  0  0  0
 18 25  1  0  0  0  0
 19 22  1  0  0  0  0
 20 19  2  0  0  0  0
 21 17  2  0  0  0  0
 21 20  1  0  0  0  0
 22 33  1  0  0  0  0
 22 23  2  0  0  0  0
 23 34  1  0  0  0  0
 24 23  1  0  0  0  0
 24 35  1  0  0  0  0
 25 24  2  0  0  0  0
 27  6  1  0  0  0  0
 28  7  1  0  0  0  0
 30 15  1  0  0  0  0
 36 25  1  0  0  0  0
M  END
>  <Pose>
1

>  <Score>
-6.89

$$$$
