
 OpenBabel03202210193D

 48 51  0  0  0  0  0  0  0  0999 V2000
   23.7750   64.3960   -7.1920 B   0  0  0  0  0  0  0  0  0  0  0  0
   22.6470   63.9260   -8.6530 C   0  0  0  0  0  0  0  0  0  0  0  0
   21.7440   62.9030   -8.6460 C   0  0  0  0  0  0  0  0  0  0  0  0
   20.9380   62.5830   -9.7170 C   0  0  0  0  0  0  0  0  0  0  0  0
   21.0720   63.3680  -10.8660 C   0  0  0  0  0  0  0  0  0  0  0  0
   21.9600   64.4060  -10.9300 C   0  0  0  0  0  0  0  0  0  0  0  0
   22.7470   64.6810   -9.8180 C   0  0  0  0  0  0  0  0  0  0  0  0
   20.2720   63.0720  -11.9520 O   0  0  0  0  0  0  0  0  0  0  0  0
   20.5230   61.9290  -12.7280 C   0  0  0  0  0  0  0  0  0  0  0  0
   19.9720   61.4980   -9.6820 C   0  0  0  0  0  0  0  0  0  0  0  0
   18.7000   61.5850   -9.9560 C   0  0  0  0  0  0  0  0  0  0  0  0
   18.0570   62.7530  -10.3350 O   0  0  0  0  0  0  0  0  0  0  0  0
   16.7080   62.5480  -10.5610 C   0  0  0  0  0  0  0  0  0  0  0  0
   16.3760   61.2300  -10.3430 C   0  0  0  0  0  0  0  0  0  0  0  0
   15.0750   60.8070  -10.5110 C   0  0  0  0  0  0  0  0  0  0  0  0
   14.1120   61.7140  -10.8960 C   0  0  0  0  0  0  0  0  0  0  0  0
   14.4770   63.0580  -11.1120 C   0  0  0  0  0  0  0  0  0  0  0  0
   15.7550   63.4980  -10.9540 C   0  0  0  0  0  0  0  0  0  0  0  0
   16.1890   64.8490  -11.1790 C   0  0  0  0  0  0  0  0  0  0  0  0
   16.6710   65.6780  -10.1510 N   0  0  0  0  0  4  0  0  0  0  0  0
   16.0900   66.9910  -10.0790 C   0  0  0  0  0  0  0  0  0  0  0  0
   14.7640   67.0400   -9.3620 C   0  0  0  0  0  0  0  0  0  0  0  0
   14.2800   65.7890   -9.0040 O   0  0  0  0  0  0  0  0  0  0  0  0
   15.2430   65.2170   -8.1800 C   0  0  0  0  0  0  0  0  0  0  0  0
   16.5770   65.0400   -8.8250 C   0  0  0  0  0  0  0  0  0  0  0  0
   13.3950   63.8640  -11.4990 O   0  0  0  0  0  0  0  0  0  0  0  0
   17.6320   60.5800   -9.9530 C   0  0  0  0  0  0  0  0  0  0  0  0
   17.7830   59.3730   -9.6630 O   0  0  0  0  0  0  0  0  0  0  0  0
   21.6670   62.3120   -7.7290 H   0  0  0  0  0  0  0  0  0  0  0  0
   22.1050   65.0480  -11.8060 H   0  0  0  0  0  0  0  0  0  0  0  0
   23.4650   65.5140   -9.8570 H   0  0  0  0  0  0  0  0  0  0  0  0
   20.0850   62.0670  -13.7640 H   0  0  0  0  0  0  0  0  0  0  0  0
   19.9830   61.0550  -12.2820 H   0  0  0  0  0  0  0  0  0  0  0  0
   21.6020   61.7350  -12.9020 H   0  0  0  0  0  0  0  0  0  0  0  0
   20.3370   60.4980   -9.3950 H   0  0  0  0  0  0  0  0  0  0  0  0
   14.8240   59.7610  -10.3370 H   0  0  0  0  0  0  0  0  0  0  0  0
   13.0790   61.4430  -11.0440 H   0  0  0  0  0  0  0  0  0  0  0  0
   16.9770   64.9110  -12.0120 H   0  0  0  0  0  0  0  0  0  0  0  0
   15.3500   65.4660  -11.6840 H   0  0  0  0  0  0  0  0  0  0  0  0
   17.6990   65.7990  -10.2640 H   0  0  0  0  0  0  0  0  0  0  0  0
   16.8050   67.6030   -9.4510 H   0  0  0  0  0  0  0  0  0  0  0  0
   16.0550   67.4740  -11.0550 H   0  0  0  0  0  0  0  0  0  0  0  0
   14.8120   67.6370   -8.4060 H   0  0  0  0  0  0  0  0  0  0  0  0
   14.0240   67.5770   -9.9870 H   0  0  0  0  0  0  0  0  0  0  0  0
   14.8660   64.1780   -7.9400 H   0  0  0  0  0  0  0  0  0  0  0  0
   15.2880   65.7800   -7.2030 H   0  0  0  0  0  0  0  0  0  0  0  0
   16.8820   63.9770   -8.9230 H   0  0  0  0  0  0  0  0  0  0  0  0
   17.3360   65.5000   -8.1590 H   0  0  0  0  0  0  0  0  0  0  0  0
  2  3  1  0  0  0  0
  2  1  1  0  0  0  0
  3 29  1  0  0  0  0
  4 10  1  0  0  0  0
  4  3  2  0  0  0  0
  5  4  1  0  0  0  0
  6  5  2  0  0  0  0
  6  7  1  0  0  0  0
  7  2  2  0  0  0  0
  8  5  1  0  0  0  0
  9 33  1  0  0  0  0
  9  8  1  0  0  0  0
 10 35  1  0  0  0  0
 11 27  1  0  0  0  0
 11 10  2  0  0  0  0
 12 11  1  0  0  0  0
 13 14  1  0  0  0  0
 13 12  1  0  0  0  0
 14 27  1  0  0  0  0
 15 14  2  0  0  0  0
 15 36  1  0  0  0  0
 16 15  1  0  0  0  0
 17 18  1  0  0  0  0
 17 16  2  0  0  0  0
 18 13  2  0  0  0  0
 19 18  1  0  0  0  0
 19 20  1  0  0  0  0
 20 21  1  0  0  0  0
 20 25  1  0  0  0  0
 21 41  1  0  0  0  0
 21 22  1  0  0  0  0
 22 23  1  0  0  0  0
 22 43  1  0  0  0  0
 23 24  1  0  0  0  0
 24 45  1  0  0  0  0
 24 46  1  0  0  0  0
 25 24  1  0  0  0  0
 25 48  1  0  0  0  0
 26 17  1  0  0  0  0
 27 28  2  0  0  0  0
 30  6  1  0  0  0  0
 31  7  1  0  0  0  0
 32  9  1  0  0  0  0
 34  9  1  0  0  0  0
 37 16  1  0  0  0  0
 38 19  1  0  0  0  0
 39 19  1  0  0  0  0
 40 20  1  0  0  0  0
 42 21  1  0  0  0  0
 44 22  1  0  0  0  0
 47 25  1  0  0  0  0
M  END
>  <Pose>
1

>  <Score>
-4.70

$$$$
