
 OpenBabel03202210193D

 54 57  0  0  0  0  0  0  0  0999 V2000
   14.6690   60.8930  -10.4730 B   0  0  0  0  0  0  0  0  0  0  0  0
   15.9300   62.3160  -10.5990 C   0  0  0  0  0  0  0  0  0  0  0  0
   17.2570   62.1180  -10.2890 C   0  0  0  0  0  0  0  0  0  0  0  0
   18.1670   63.1440  -10.3800 C   0  0  0  0  0  0  0  0  0  0  0  0
   17.7140   64.3790  -10.7910 C   0  0  0  0  0  0  0  0  0  0  0  0
   16.3700   64.5930  -11.1070 C   0  0  0  0  0  0  0  0  0  0  0  0
   15.4570   63.5550  -11.0140 C   0  0  0  0  0  0  0  0  0  0  0  0
   18.6550   65.3980  -10.8730 O   0  0  0  0  0  0  0  0  0  0  0  0
   18.9400   66.1080  -12.0560 C   0  0  0  0  0  0  0  0  0  0  0  0
   19.5750   62.9470  -10.0550 C   0  0  0  0  0  0  0  0  0  0  0  0
   20.0460   63.0720   -8.8720 N   0  0  0  0  0  0  0  0  0  0  0  0
   21.3900   62.8870   -8.5440 N   0  0  0  0  0  0  0  0  0  0  0  0
   22.0890   63.7470   -7.6520 C   0  0  0  0  0  0  0  0  0  0  0  0
   22.0770   65.0930   -7.7630 N   0  0  0  0  0  4  0  0  0  0  0  0
   22.7460   65.8740   -6.9080 C   0  0  0  0  0  0  0  0  0  0  0  0
   23.4420   65.2900   -5.9190 N   0  0  0  0  0  0  0  0  0  0  0  0
   23.4990   63.9420   -5.7480 C   0  0  0  0  0  0  0  0  0  0  0  0
   22.7940   63.2110   -6.6550 N   0  0  0  0  0  0  0  0  0  0  0  0
   24.2290   63.3370   -4.7100 N   0  0  0  0  0  0  0  0  0  0  0  0
   23.9950   63.6740   -3.3370 C   0  0  0  0  0  0  0  0  0  0  0  0
   25.3450   64.0560   -2.7350 C   0  0  0  0  0  0  0  0  0  0  0  0
   26.1970   62.9850   -2.9390 O   0  0  0  0  0  0  0  0  0  0  0  0
   26.4990   62.7830   -4.2650 C   0  0  0  0  0  0  0  0  0  0  0  0
   25.2350   62.3620   -5.0150 C   0  0  0  0  0  0  0  0  0  0  0  0
   22.7330   67.2900   -7.0240 N   0  0  0  0  0  0  0  0  0  0  0  0
   23.9430   68.0660   -7.1820 C   0  0  0  0  0  0  0  0  0  0  0  0
   23.9060   69.3240   -6.3280 C   0  0  0  0  0  0  0  0  0  0  0  0
   22.6650   69.9600   -6.4450 O   0  0  0  0  0  0  0  0  0  0  0  0
   21.6390   69.1560   -6.0090 C   0  0  0  0  0  0  0  0  0  0  0  0
   21.4820   68.0130   -6.9880 C   0  0  0  0  0  0  0  0  0  0  0  0
   17.6350   61.1420   -9.9610 H   0  0  0  0  0  0  0  0  0  0  0  0
   16.0310   65.5800  -11.4310 H   0  0  0  0  0  0  0  0  0  0  0  0
   14.4270   63.7430  -11.2640 H   0  0  0  0  0  0  0  0  0  0  0  0
   19.7690   65.5600  -12.5710 H   0  0  0  0  0  0  0  0  0  0  0  0
   18.0600   66.2630  -12.6990 H   0  0  0  0  0  0  0  0  0  0  0  0
   19.3520   67.1050  -11.7800 H   0  0  0  0  0  0  0  0  0  0  0  0
   20.2710   62.6800  -10.8380 H   0  0  0  0  0  0  0  0  0  0  0  0
   21.8730   62.0640   -8.9970 H   0  0  0  0  0  0  0  0  0  0  0  0
   23.2620   64.5160   -3.2360 H   0  0  0  0  0  0  0  0  0  0  0  0
   23.6390   62.7710   -2.7910 H   0  0  0  0  0  0  0  0  0  0  0  0
   25.1680   64.1590   -1.6450 H   0  0  0  0  0  0  0  0  0  0  0  0
   25.7120   64.9980   -3.1490 H   0  0  0  0  0  0  0  0  0  0  0  0
   26.8530   63.7170   -4.7630 H   0  0  0  0  0  0  0  0  0  0  0  0
   27.2400   61.9820   -4.3470 H   0  0  0  0  0  0  0  0  0  0  0  0
   25.4300   62.2630   -6.0980 H   0  0  0  0  0  0  0  0  0  0  0  0
   24.9380   61.3860   -4.5620 H   0  0  0  0  0  0  0  0  0  0  0  0
   23.9300   68.4360   -8.2470 H   0  0  0  0  0  0  0  0  0  0  0  0
   24.8520   67.5010   -6.9550 H   0  0  0  0  0  0  0  0  0  0  0  0
   24.1390   69.0340   -5.2950 H   0  0  0  0  0  0  0  0  0  0  0  0
   24.6480   70.0400   -6.7640 H   0  0  0  0  0  0  0  0  0  0  0  0
   21.8830   68.7970   -4.9890 H   0  0  0  0  0  0  0  0  0  0  0  0
   20.7310   69.7620   -5.9320 H   0  0  0  0  0  0  0  0  0  0  0  0
   21.3070   68.4490   -7.9760 H   0  0  0  0  0  0  0  0  0  0  0  0
   20.6430   67.3500   -6.7220 H   0  0  0  0  0  0  0  0  0  0  0  0
  2  1  1  0  0  0  0
  2  3  1  0  0  0  0
  3 31  1  0  0  0  0
  4  3  2  0  0  0  0
  4 10  1  0  0  0  0
  5  4  1  0  0  0  0
  6  7  1  0  0  0  0
  6  5  2  0  0  0  0
  7  2  2  0  0  0  0
  8  5  1  0  0  0  0
  9 36  1  0  0  0  0
  9  8  1  0  0  0  0
 10 11  2  0  0  0  0
 11 12  1  0  0  0  0
 12 13  1  0  0  0  0
 13 18  1  0  0  0  0
 14 13  2  0  0  0  0
 14 15  2  0  0  0  0
 15 16  1  0  0  0  0
 16 17  2  0  0  0  0
 17 19  1  0  0  0  0
 18 17  1  0  0  0  0
 19 20  1  0  0  0  0
 20 39  1  0  0  0  0
 20 40  1  0  0  0  0
 20 21  1  0  0  0  0
 21 41  1  0  0  0  0
 22 21  1  0  0  0  0
 23 22  1  0  0  0  0
 24 19  1  0  0  0  0
 24 46  1  0  0  0  0
 24 23  1  0  0  0  0
 25 30  1  0  0  0  0
 25 15  1  0  0  0  0
 26 25  1  0  0  0  0
 26 48  1  0  0  0  0
 26 27  1  0  0  0  0
 27 49  1  0  0  0  0
 28 27  1  0  0  0  0
 28 29  1  0  0  0  0
 29 52  1  0  0  0  0
 29 51  1  0  0  0  0
 30 54  1  0  0  0  0
 30 29  1  0  0  0  0
 32  6  1  0  0  0  0
 33  7  1  0  0  0  0
 34  9  1  0  0  0  0
 35  9  1  0  0  0  0
 37 10  1  0  0  0  0
 38 12  1  0  0  0  0
 42 21  1  0  0  0  0
 43 23  1  0  0  0  0
 44 23  1  0  0  0  0
 45 24  1  0  0  0  0
 47 26  1  0  0  0  0
 50 27  1  0  0  0  0
 53 30  1  0  0  0  0
M  END
>  <Pose>
1

>  <Score>
-7.83

$$$$
