
 OpenBabel03202210193D

 50 53  0  0  0  0  0  0  0  0999 V2000
   27.3440   62.0150   -5.0340 B   0  0  0  0  0  0  0  0  0  0  0  0
   25.5760   62.5980   -4.6390 C   0  0  0  0  0  0  0  0  0  0  0  0
   24.7560   63.1680   -5.6040 C   0  0  0  0  0  0  0  0  0  0  0  0
   23.4830   63.5890   -5.3220 C   0  0  0  0  0  0  0  0  0  0  0  0
   23.0000   63.4430   -4.0420 C   0  0  0  0  0  0  0  0  0  0  0  0
   23.8060   62.8810   -3.0850 C   0  0  0  0  0  0  0  0  0  0  0  0
   25.0980   62.4490   -3.3560 C   0  0  0  0  0  0  0  0  0  0  0  0
   22.6480   64.1830   -6.3610 C   0  0  0  0  0  0  0  0  0  0  0  0
   22.0310   65.2650   -6.1800 O   0  0  0  0  0  0  0  0  0  0  0  0
   22.5260   63.5020   -7.6510 C   0  0  0  0  0  0  0  0  0  0  0  0
   21.2030   63.4080   -8.1320 N   0  0  0  0  0  0  0  0  0  0  0  0
   20.2480   62.8320   -7.2610 C   0  0  0  0  0  0  0  0  0  0  0  0
   18.8900   62.6370   -7.8190 C   0  0  0  0  0  0  0  0  0  0  0  0
   18.9380   61.9310   -9.0590 N   0  0  0  0  0  0  0  0  0  0  0  0
   20.1650   61.9360   -9.8030 C   0  0  0  0  0  0  0  0  0  0  0  0
   21.0510   63.1270   -9.5170 C   0  0  0  0  0  0  0  0  0  0  0  0
   17.8100   61.2510   -9.5900 C   0  0  0  0  0  0  0  0  0  0  0  0
   16.8590   61.9790  -10.1720 C   0  0  0  0  0  0  0  0  0  0  0  0
   16.6610   63.3600  -10.4190 N   0  0  0  0  0  0  0  0  0  0  0  0
   15.4190   63.4410  -11.0900 N   0  0  0  0  0  0  0  0  0  0  0  0
   14.8910   62.1370  -11.2380 C   0  0  0  0  0  0  0  0  0  0  0  0
   15.7020   61.2320  -10.7130 C   0  0  0  0  0  0  0  0  0  0  0  0
   15.6540   59.8150  -10.5950 N   0  0  0  0  0  0  0  0  0  0  0  0
   16.6010   59.1580  -10.0230 C   0  0  0  0  0  0  0  0  0  0  0  0
   17.7260   59.8150   -9.4890 N   0  0  0  0  0  0  0  0  0  0  0  0
   13.6050   61.7670  -11.8870 C   0  0  0  0  0  0  0  0  0  0  0  0
   17.5400   64.4460  -10.0590 C   0  0  0  0  0  0  0  0  0  0  0  0
   25.1940   63.2540   -6.5880 H   0  0  0  0  0  0  0  0  0  0  0  0
   21.9840   63.7870   -3.8450 H   0  0  0  0  0  0  0  0  0  0  0  0
   23.4460   62.7570   -2.0740 H   0  0  0  0  0  0  0  0  0  0  0  0
   25.7150   62.0020   -2.5620 H   0  0  0  0  0  0  0  0  0  0  0  0
   22.9810   62.4770   -7.5850 H   0  0  0  0  0  0  0  0  0  0  0  0
   23.1510   64.0170   -8.4400 H   0  0  0  0  0  0  0  0  0  0  0  0
   20.6580   61.9190   -6.7920 H   0  0  0  0  0  0  0  0  0  0  0  0
   20.1390   63.5570   -6.3930 H   0  0  0  0  0  0  0  0  0  0  0  0
   18.4500   63.6510   -8.0190 H   0  0  0  0  0  0  0  0  0  0  0  0
   18.2100   62.1810   -7.0730 H   0  0  0  0  0  0  0  0  0  0  0  0
   20.7170   60.9900   -9.8180 H   0  0  0  0  0  0  0  0  0  0  0  0
   19.8410   62.0790  -10.8830 H   0  0  0  0  0  0  0  0  0  0  0  0
   22.0490   62.8960   -9.9450 H   0  0  0  0  0  0  0  0  0  0  0  0
   20.7000   64.0510  -10.0250 H   0  0  0  0  0  0  0  0  0  0  0  0
   15.0200   64.3530  -11.3960 H   0  0  0  0  0  0  0  0  0  0  0  0
   16.5040   58.0560   -9.9620 H   0  0  0  0  0  0  0  0  0  0  0  0
   18.5120   59.3310   -9.0210 H   0  0  0  0  0  0  0  0  0  0  0  0
   12.9660   62.6670  -11.9710 H   0  0  0  0  0  0  0  0  0  0  0  0
   13.1200   60.9150  -11.4060 H   0  0  0  0  0  0  0  0  0  0  0  0
   13.8490   61.4610  -12.9420 H   0  0  0  0  0  0  0  0  0  0  0  0
   17.9210   64.4200   -9.0430 H   0  0  0  0  0  0  0  0  0  0  0  0
   18.3010   64.5850  -10.8560 H   0  0  0  0  0  0  0  0  0  0  0  0
   16.8810   65.3750  -10.0890 H   0  0  0  0  0  0  0  0  0  0  0  0
  1  2  1  0  0  0  0
  2  7  1  0  0  0  0
  3  4  1  0  0  0  0
  3  2  2  0  0  0  0
  4  5  2  0  0  0  0
  5 29  1  0  0  0  0
  5  6  1  0  0  0  0
  6 30  1  0  0  0  0
  7  6  2  0  0  0  0
  7 31  1  0  0  0  0
  8  9  2  0  0  0  0
  8  4  1  0  0  0  0
 10 32  1  0  0  0  0
 10  8  1  0  0  0  0
 11 10  1  0  0  0  0
 11 12  1  0  0  0  0
 12 34  1  0  0  0  0
 12 35  1  0  0  0  0
 13 12  1  0  0  0  0
 13 37  1  0  0  0  0
 14 13  1  0  0  0  0
 15 16  1  0  0  0  0
 15 14  1  0  0  0  0
 16 11  1  0  0  0  0
 17 25  1  0  0  0  0
 17 14  1  0  0  0  0
 18 17  2  0  0  0  0
 19 18  1  0  0  0  0
 19 27  1  0  0  0  0
 20 19  1  0  0  0  0
 21 20  1  0  0  0  0
 21 22  2  0  0  0  0
 22 23  1  0  0  0  0
 22 18  1  0  0  0  0
 23 24  2  0  0  0  0
 24 43  1  0  0  0  0
 24 25  1  0  0  0  0
 25 44  1  0  0  0  0
 26 46  1  0  0  0  0
 26 21  1  0  0  0  0
 27 48  1  0  0  0  0
 28  3  1  0  0  0  0
 33 10  1  0  0  0  0
 36 13  1  0  0  0  0
 38 15  1  0  0  0  0
 39 15  1  0  0  0  0
 40 16  1  0  0  0  0
 41 16  1  0  0  0  0
 42 20  1  0  0  0  0
 45 26  1  0  0  0  0
 47 26  1  0  0  0  0
 49 27  1  0  0  0  0
 50 27  1  0  0  0  0
M  END
>  <Pose>
1

>  <Score>
-7.08

$$$$
