
 OpenBabel03202210193D

 52 55  0  0  1  0  0  0  0  0999 V2000
   12.2460   62.1020  -14.7770 B   0  0  0  0  0  0  0  0  0  0  0  0
   13.2010   62.7010  -13.2150 C   0  0  0  0  0  0  0  0  0  0  0  0
   13.9520   61.8030  -12.4930 C   0  0  0  0  0  0  0  0  0  0  0  0
   14.6240   62.2350  -11.3700 C   0  0  0  0  0  0  0  0  0  0  0  0
   14.5550   63.5330  -10.9760 C   0  0  0  0  0  0  0  0  0  0  0  0
   13.8050   64.4110  -11.7100 C   0  0  0  0  0  0  0  0  0  0  0  0
   13.1000   64.0280  -12.8530 C   0  0  0  0  0  0  0  0  0  0  0  0
   15.4690   61.2180  -10.6400 C   0  0  0  0  0  0  0  0  0  0  0  0
   15.0400   60.0770  -10.6240 O   0  0  0  0  0  0  0  0  0  0  0  0
   16.6350   61.7530  -10.1000 N   0  0  0  0  0  0  0  0  0  0  0  0
   17.6610   62.3890  -10.8420 C   0  0  1  0  0  0  0  0  0  0  0  0
   17.6280   63.9090  -10.8070 C   0  0  0  0  0  0  0  0  0  0  0  0
   19.0040   61.9190  -10.5340 C   0  0  0  0  0  0  0  0  0  0  0  0
   19.1910   60.6630  -10.5700 O   0  0  0  0  0  0  0  0  0  0  0  0
   20.0700   62.8000  -10.1920 N   0  0  0  0  0  0  0  0  0  0  0  0
   20.0710   63.5860   -8.9850 C   0  0  0  0  0  0  0  0  0  0  0  0
   21.2500   62.9850   -8.1830 C   0  0  0  0  0  0  0  0  0  0  0  0
   22.4830   63.4890   -8.8850 C   0  0  2  0  0  0  0  0  0  0  0  0
   23.5940   62.6670   -8.4080 N   0  0  0  0  0  0  0  0  0  0  0  0
   23.7460   62.6910   -7.0020 C   0  0  0  0  0  0  0  0  0  0  0  0
   24.0990   64.0660   -6.4630 C   0  0  0  0  0  0  0  0  0  0  0  0
   23.4670   65.1420   -7.2500 C   0  0  0  0  0  0  0  0  0  0  0  0
   23.4900   66.4690   -7.0450 N   0  0  0  0  0  0  0  0  0  0  0  0
   22.7720   67.0410   -8.0380 C   0  0  0  0  0  0  0  0  0  0  0  0
   22.3120   66.0540   -8.8470 N   0  0  0  0  0  0  0  0  0  0  0  0
   22.7260   64.8600   -8.3810 C   0  0  0  0  0  0  0  0  0  0  0  0
   22.4500   63.4070  -10.3700 C   0  0  0  0  0  0  0  0  0  0  0  0
   21.2050   62.9280  -11.0350 C   0  0  0  0  0  0  0  0  0  0  0  0
   14.0490   60.7450  -12.7770 H   0  0  0  0  0  0  0  0  0  0  0  0
   15.1140   63.8670  -10.0770 H   0  0  0  0  0  0  0  0  0  0  0  0
   13.7240   65.4630  -11.4250 H   0  0  0  0  0  0  0  0  0  0  0  0
   12.5150   64.7180  -13.4480 H   0  0  0  0  0  0  0  0  0  0  0  0
   16.8210   61.6480   -9.0570 H   0  0  0  0  0  0  0  0  0  0  0  0
   17.3970   62.1880  -11.9250 H   0  0  0  0  0  0  0  0  0  0  0  0
   18.6860   64.3000  -10.9370 H   0  0  0  0  0  0  0  0  0  0  0  0
   17.0930   64.3240  -11.7370 H   0  0  0  0  0  0  0  0  0  0  0  0
   17.2220   64.3360   -9.9160 H   0  0  0  0  0  0  0  0  0  0  0  0
   19.1980   63.4880   -8.3230 H   0  0  0  0  0  0  0  0  0  0  0  0
   20.3160   64.6360   -9.0980 H   0  0  0  0  0  0  0  0  0  0  0  0
   21.1500   63.4690   -7.1930 H   0  0  0  0  0  0  0  0  0  0  0  0
   21.1670   61.9160   -8.0610 H   0  0  0  0  0  0  0  0  0  0  0  0
   24.4880   62.8770   -8.9200 H   0  0  0  0  0  0  0  0  0  0  0  0
   22.8700   62.2580   -6.5090 H   0  0  0  0  0  0  0  0  0  0  0  0
   24.6050   62.0390   -6.7330 H   0  0  0  0  0  0  0  0  0  0  0  0
   25.2100   64.2320   -6.4980 H   0  0  0  0  0  0  0  0  0  0  0  0
   23.7670   64.0940   -5.4010 H   0  0  0  0  0  0  0  0  0  0  0  0
   22.6050   68.1190   -8.1530 H   0  0  0  0  0  0  0  0  0  0  0  0
   21.7370   66.3090   -9.6750 H   0  0  0  0  0  0  0  0  0  0  0  0
   22.6680   64.4170  -10.7750 H   0  0  0  0  0  0  0  0  0  0  0  0
   23.2990   62.7630  -10.7520 H   0  0  0  0  0  0  0  0  0  0  0  0
   21.3600   61.9590  -11.5310 H   0  0  0  0  0  0  0  0  0  0  0  0
   20.8990   63.6370  -11.8670 H   0  0  0  0  0  0  0  0  0  0  0  0
  1  2  1  0  0  0  0
  2  7  2  0  0  0  0
  2  3  1  0  0  0  0
  3  4  2  0  0  0  0
  4  5  1  0  0  0  0
  4  8  1  0  0  0  0
  5 30  1  0  0  0  0
  6 31  1  0  0  0  0
  6  5  2  0  0  0  0
  7  6  1  0  0  0  0
  8  9  2  0  0  0  0
  8 10  1  0  0  0  0
 10 33  1  0  0  0  0
 11 34  1  6  0  0  0
 11 12  1  0  0  0  0
 11 13  1  0  0  0  0
 11 10  1  0  0  0  0
 12 37  1  0  0  0  0
 13 15  1  0  0  0  0
 14 13  2  0  0  0  0
 15 16  1  0  0  0  0
 16 38  1  0  0  0  0
 16 17  1  0  0  0  0
 17 41  1  0  0  0  0
 17 40  1  0  0  0  0
 18 19  1  0  0  0  0
 18 26  1  1  0  0  0
 18 17  1  0  0  0  0
 19 20  1  0  0  0  0
 20 44  1  0  0  0  0
 20 43  1  0  0  0  0
 20 21  1  0  0  0  0
 21 46  1  0  0  0  0
 22 23  1  0  0  0  0
 22 21  1  0  0  0  0
 24 23  2  0  0  0  0
 25 26  1  0  0  0  0
 25 24  1  0  0  0  0
 26 22  2  0  0  0  0
 27 18  1  0  0  0  0
 28 27  1  0  0  0  0
 28 15  1  0  0  0  0
 29  3  1  0  0  0  0
 32  7  1  0  0  0  0
 35 12  1  0  0  0  0
 36 12  1  0  0  0  0
 39 16  1  0  0  0  0
 42 19  1  0  0  0  0
 45 21  1  0  0  0  0
 47 24  1  0  0  0  0
 48 25  1  0  0  0  0
 49 27  1  0  0  0  0
 50 27  1  0  0  0  0
 51 28  1  0  0  0  0
 52 28  1  0  0  0  0
M  END
>  <Pose>
1

>  <Score>
-7.11

$$$$
