
 OpenBabel03202210193D

 49 52  0  0  0  0  0  0  0  0999 V2000
   23.1730   62.1700   -1.6160 B   0  0  0  0  0  0  0  0  0  0  0  0
   24.2590   62.4380   -3.1360 C   0  0  0  0  0  0  0  0  0  0  0  0
   23.7800   63.1970   -4.1930 C   0  0  0  0  0  0  0  0  0  0  0  0
   24.5410   63.4060   -5.3120 C   0  0  0  0  0  0  0  0  0  0  0  0
   25.7940   62.8880   -5.4470 C   0  0  0  0  0  0  0  0  0  0  0  0
   26.2850   62.1210   -4.3860 C   0  0  0  0  0  0  0  0  0  0  0  0
   25.5200   61.9090   -3.2540 C   0  0  0  0  0  0  0  0  0  0  0  0
   24.0470   64.2580   -6.4510 C   0  0  0  0  0  0  0  0  0  0  0  0
   24.2300   65.5120   -6.2600 O   0  0  0  0  0  0  0  0  0  0  0  0
   23.4980   63.6530   -7.4910 N   0  0  0  0  0  0  0  0  0  0  0  0
   22.9230   63.0190   -8.5810 C   0  0  0  0  0  0  0  0  0  0  0  0
   21.4500   63.3200   -8.6830 C   0  0  0  0  0  0  0  0  0  0  0  0
   20.8000   63.1740   -7.5880 O   0  0  0  0  0  0  0  0  0  0  0  0
   20.8110   63.7280   -9.8620 N   0  0  0  0  0  0  0  0  0  0  0  0
   21.0710   63.1310  -11.1330 C   0  0  0  0  0  0  0  0  0  0  0  0
   19.8440   63.0440  -11.9960 C   0  0  0  0  0  0  0  0  0  0  0  0
   18.5330   63.0950  -11.2430 C   0  0  0  0  0  0  0  0  0  0  0  0
   17.5400   63.2930  -12.2900 N   0  0  0  0  0  0  0  0  0  0  0  0
   16.1880   63.1710  -11.8970 C   0  0  0  0  0  0  0  0  0  0  0  0
   15.8950   62.4770  -10.6180 C   0  0  0  0  0  0  0  0  0  0  0  0
   16.9530   61.4760  -10.2760 C   0  0  0  0  0  0  0  0  0  0  0  0
   16.8890   60.2770   -9.6970 N   0  0  0  0  0  0  0  0  0  0  0  0
   18.1600   59.8260   -9.6450 C   0  0  0  0  0  0  0  0  0  0  0  0
   19.0020   60.7350  -10.1830 N   0  0  0  0  0  0  0  0  0  0  0  0
   18.2490   61.7970  -10.5920 C   0  0  0  0  0  0  0  0  0  0  0  0
   18.4550   64.2070  -10.2280 C   0  0  0  0  0  0  0  0  0  0  0  0
   19.8090   64.7870   -9.8620 C   0  0  0  0  0  0  0  0  0  0  0  0
   22.8060   63.6260   -4.1350 H   0  0  0  0  0  0  0  0  0  0  0  0
   26.3670   63.0690   -6.3330 H   0  0  0  0  0  0  0  0  0  0  0  0
   27.2680   61.6930   -4.4540 H   0  0  0  0  0  0  0  0  0  0  0  0
   25.9010   61.3180   -2.4340 H   0  0  0  0  0  0  0  0  0  0  0  0
   22.7660   62.8370   -6.6470 H   0  0  0  0  0  0  0  0  0  0  0  0
   23.0300   61.8820   -8.4970 H   0  0  0  0  0  0  0  0  0  0  0  0
   23.4510   63.2390   -9.5410 H   0  0  0  0  0  0  0  0  0  0  0  0
   21.7770   63.8420  -11.6630 H   0  0  0  0  0  0  0  0  0  0  0  0
   21.6430   62.1860  -11.0780 H   0  0  0  0  0  0  0  0  0  0  0  0
   19.8510   63.8460  -12.7420 H   0  0  0  0  0  0  0  0  0  0  0  0
   19.8780   62.0480  -12.4880 H   0  0  0  0  0  0  0  0  0  0  0  0
   17.7550   64.2630  -12.6620 H   0  0  0  0  0  0  0  0  0  0  0  0
   15.6570   62.5930  -12.7130 H   0  0  0  0  0  0  0  0  0  0  0  0
   15.7060   64.1930  -11.9210 H   0  0  0  0  0  0  0  0  0  0  0  0
   15.7800   63.2260   -9.8010 H   0  0  0  0  0  0  0  0  0  0  0  0
   14.8840   61.9840  -10.6860 H   0  0  0  0  0  0  0  0  0  0  0  0
   18.4200   58.8740   -9.2250 H   0  0  0  0  0  0  0  0  0  0  0  0
   20.0280   60.6330  -10.2650 H   0  0  0  0  0  0  0  0  0  0  0  0
   18.0360   63.7870   -9.2630 H   0  0  0  0  0  0  0  0  0  0  0  0
   17.8160   65.0480  -10.5390 H   0  0  0  0  0  0  0  0  0  0  0  0
   20.0980   65.6180  -10.5470 H   0  0  0  0  0  0  0  0  0  0  0  0
   19.7280   65.1760   -8.8300 H   0  0  0  0  0  0  0  0  0  0  0  0
  2  1  1  0  0  0  0
  3 28  1  0  0  0  0
  3  2  2  0  0  0  0
  4  3  1  0  0  0  0
  5  4  2  0  0  0  0
  5  6  1  0  0  0  0
  6  7  2  0  0  0  0
  7  2  1  0  0  0  0
  7 31  1  0  0  0  0
  8  9  2  0  0  0  0
  8  4  1  0  0  0  0
 10 32  1  0  0  0  0
 10  8  1  0  0  0  0
 11 33  1  0  0  0  0
 11 10  1  0  0  0  0
 12 11  1  0  0  0  0
 12 13  2  0  0  0  0
 14 27  1  0  0  0  0
 14 12  1  0  0  0  0
 15 36  1  0  0  0  0
 15 14  1  0  0  0  0
 16 17  1  0  0  0  0
 16 15  1  0  0  0  0
 17 25  1  0  0  0  0
 17 26  1  0  0  0  0
 18 19  1  0  0  0  0
 18 17  1  0  0  0  0
 19 20  1  0  0  0  0
 20 21  1  0  0  0  0
 20 42  1  0  0  0  0
 21 22  1  0  0  0  0
 22 23  2  0  0  0  0
 23 44  1  0  0  0  0
 24 23  1  0  0  0  0
 25 21  2  0  0  0  0
 25 24  1  0  0  0  0
 26 27  1  0  0  0  0
 26 46  1  0  0  0  0
 27 49  1  0  0  0  0
 29  5  1  0  0  0  0
 30  6  1  0  0  0  0
 34 11  1  0  0  0  0
 35 15  1  0  0  0  0
 37 16  1  0  0  0  0
 38 16  1  0  0  0  0
 39 18  1  0  0  0  0
 40 19  1  0  0  0  0
 41 19  1  0  0  0  0
 43 20  1  0  0  0  0
 45 24  1  0  0  0  0
 47 26  1  0  0  0  0
 48 27  1  0  0  0  0
M  END
>  <Pose>
1

>  <Score>
-7.58

$$$$
