
 OpenBabel03202210193D

 42 45  0  0  1  0  0  0  0  0999 V2000
   24.6890   63.0600   -4.1910 B   0  0  0  0  0  0  0  0  0  0  0  0
   23.8170   63.8170   -5.7010 C   0  0  0  0  0  0  0  0  0  0  0  0
   23.6350   63.1240   -6.8720 C   0  0  0  0  0  0  0  0  0  0  0  0
   23.0230   63.6790   -7.9700 C   0  0  0  0  0  0  0  0  0  0  0  0
   22.5740   64.9730   -7.9000 C   0  0  0  0  0  0  0  0  0  0  0  0
   22.7380   65.7100   -6.7340 C   0  0  0  0  0  0  0  0  0  0  0  0
   23.3500   65.1280   -5.6600 C   0  0  0  0  0  0  0  0  0  0  0  0
   22.8420   62.8880   -9.2470 C   0  0  0  0  0  0  0  0  0  0  0  0
   23.9310   62.3380   -9.5980 O   0  0  0  0  0  0  0  0  0  0  0  0
   21.6050   62.8540   -9.8420 N   0  0  0  0  0  0  0  0  0  0  0  0
   20.4100   62.8160  -10.4200 C   0  0  2  0  0  0  0  0  0  0  0  0
   19.3750   63.8070   -9.7720 C   0  0  0  0  0  0  0  0  0  0  0  0
   18.1240   63.3680  -10.2900 N   0  0  0  0  0  0  0  0  0  0  0  0
   18.2510   61.9910  -10.7440 C   0  0  1  0  0  0  0  0  0  0  0  0
   19.5450   61.5360  -10.2040 C   0  0  0  0  0  0  0  0  0  0  0  0
   17.0540   61.2200  -10.3730 C   0  0  0  0  0  0  0  0  0  0  0  0
   17.1800   60.0510   -9.9690 O   0  0  0  0  0  0  0  0  0  0  0  0
   15.7700   61.8020  -10.4770 N   0  0  0  0  0  0  0  0  0  0  0  0
   15.6090   63.2220  -10.2590 C   0  0  2  0  0  0  0  0  0  0  0  0
   14.4760   63.6480  -11.1720 C   0  0  0  0  0  0  0  0  0  0  0  0
   13.9780   62.3850  -11.7810 C   0  0  0  0  0  0  0  0  0  0  0  0
   14.4300   61.3110  -10.7790 C   0  0  0  0  0  0  0  0  0  0  0  0
   16.8460   63.9750  -10.4410 C   0  0  0  0  0  0  0  0  0  0  0  0
   16.7980   65.2190  -10.7440 O   0  0  0  0  0  0  0  0  0  0  0  0
   23.9750   62.0990   -6.9550 H   0  0  0  0  0  0  0  0  0  0  0  0
   22.0980   65.4670   -8.7170 H   0  0  0  0  0  0  0  0  0  0  0  0
   22.3670   66.7420   -6.7090 H   0  0  0  0  0  0  0  0  0  0  0  0
   23.4880   65.6880   -4.7330 H   0  0  0  0  0  0  0  0  0  0  0  0
   21.9870   61.7190  -10.5230 H   0  0  0  0  0  0  0  0  0  0  0  0
   20.2400   63.0350  -11.5120 H   0  0  0  0  0  0  0  0  0  0  0  0
   19.5180   63.6940   -8.6990 H   0  0  0  0  0  0  0  0  0  0  0  0
   19.6770   64.8180  -10.0820 H   0  0  0  0  0  0  0  0  0  0  0  0
   18.3070   61.9600  -11.8610 H   0  0  0  0  0  0  0  0  0  0  0  0
   20.0210   60.6970  -10.7450 H   0  0  0  0  0  0  0  0  0  0  0  0
   19.5480   61.3700   -9.1160 H   0  0  0  0  0  0  0  0  0  0  0  0
   15.2160   63.4240   -9.2150 H   0  0  0  0  0  0  0  0  0  0  0  0
   14.8760   64.3600  -11.9580 H   0  0  0  0  0  0  0  0  0  0  0  0
   13.6420   64.1330  -10.6330 H   0  0  0  0  0  0  0  0  0  0  0  0
   14.4960   62.2390  -12.7590 H   0  0  0  0  0  0  0  0  0  0  0  0
   12.8790   62.3530  -11.9330 H   0  0  0  0  0  0  0  0  0  0  0  0
   13.7600   61.3190   -9.9230 H   0  0  0  0  0  0  0  0  0  0  0  0
   14.3970   60.3550  -11.2920 H   0  0  0  0  0  0  0  0  0  0  0  0
  2  7  1  0  0  0  0
  2  1  1  0  0  0  0
  3  2  2  0  0  0  0
  4  5  2  0  0  0  0
  4  3  1  0  0  0  0
  5  6  1  0  0  0  0
  6 27  1  0  0  0  0
  6  7  2  0  0  0  0
  7 28  1  0  0  0  0
  8  4  1  0  0  0  0
  9  8  2  0  0  0  0
 10  8  1  0  0  0  0
 11 30  1  6  0  0  0
 11 15  1  0  0  0  0
 11 10  1  0  0  0  0
 11 12  1  0  0  0  0
 12 31  1  0  0  0  0
 13 12  1  0  0  0  0
 14 33  1  6  0  0  0
 14 16  1  0  0  0  0
 14 13  1  0  0  0  0
 14 15  1  0  0  0  0
 15 35  1  0  0  0  0
 16 17  2  0  0  0  0
 18 16  1  0  0  0  0
 18 19  1  0  0  0  0
 19 36  1  1  0  0  0
 20 38  1  0  0  0  0
 20 19  1  0  0  0  0
 21 20  1  0  0  0  0
 21 22  1  0  0  0  0
 22 18  1  0  0  0  0
 22 41  1  0  0  0  0
 23 13  1  0  0  0  0
 23 19  1  0  0  0  0
 24 23  2  0  0  0  0
 25  3  1  0  0  0  0
 26  5  1  0  0  0  0
 29 10  1  0  0  0  0
 32 12  1  0  0  0  0
 34 15  1  0  0  0  0
 37 20  1  0  0  0  0
 39 21  1  0  0  0  0
 40 21  1  0  0  0  0
 42 22  1  0  0  0  0
M  END
>  <Pose>
1

>  <Score>
-8.14

$$$$
