
 OpenBabel03202210193D

 42 45  0  0  1  0  0  0  0  0999 V2000
   14.2520   61.8930  -10.8520 B   0  0  0  0  0  0  0  0  0  0  0  0
   15.9750   62.6890  -10.7490 C   0  0  0  0  0  0  0  0  0  0  0  0
   17.0950   61.9760  -10.4060 C   0  0  0  0  0  0  0  0  0  0  0  0
   18.3500   62.5250  -10.3250 C   0  0  0  0  0  0  0  0  0  0  0  0
   18.4600   63.8650  -10.6060 C   0  0  0  0  0  0  0  0  0  0  0  0
   17.3400   64.6320  -10.9600 C   0  0  0  0  0  0  0  0  0  0  0  0
   16.0930   64.0320  -11.0300 C   0  0  0  0  0  0  0  0  0  0  0  0
   19.5270   61.7560   -9.9610 C   0  0  0  0  0  0  0  0  0  0  0  0
   19.4220   60.4880  -10.1040 O   0  0  0  0  0  0  0  0  0  0  0  0
   20.7380   62.2990   -9.4780 N   0  0  0  0  0  0  0  0  0  0  0  0
   20.7270   63.4550   -8.6600 C   0  0  2  0  0  0  0  0  0  0  0  0
   21.1010   64.7270   -9.3440 C   0  0  0  0  0  0  0  0  0  0  0  0
   21.4790   65.6030   -8.2220 N   0  0  0  0  0  0  0  0  0  0  0  0
   21.6360   64.7990   -7.0190 C   0  0  1  0  0  0  0  0  0  0  0  0
   21.7860   63.4060   -7.5480 C   0  0  0  0  0  0  0  0  0  0  0  0
   22.8010   65.2970   -6.2930 C   0  0  0  0  0  0  0  0  0  0  0  0
   23.5480   64.5280   -5.6770 O   0  0  0  0  0  0  0  0  0  0  0  0
   23.0870   66.7030   -6.2920 N   0  0  0  0  0  0  0  0  0  0  0  0
   22.0470   67.5630   -6.8020 C   0  0  1  0  0  0  0  0  0  0  0  0
   22.5070   68.9620   -6.8370 C   0  0  0  0  0  0  0  0  0  0  0  0
   23.7110   68.9310   -5.9170 C   0  0  0  0  0  0  0  0  0  0  0  0
   24.1920   67.5200   -5.8970 C   0  0  0  0  0  0  0  0  0  0  0  0
   21.6970   67.0100   -8.1560 C   0  0  0  0  0  0  0  0  0  0  0  0
   21.6040   67.7450   -9.1650 O   0  0  0  0  0  0  0  0  0  0  0  0
   17.0120   60.9120  -10.1820 H   0  0  0  0  0  0  0  0  0  0  0  0
   19.4080   64.3790  -10.5660 H   0  0  0  0  0  0  0  0  0  0  0  0
   17.4270   65.6860  -11.1810 H   0  0  0  0  0  0  0  0  0  0  0  0
   15.2580   64.6620  -11.3060 H   0  0  0  0  0  0  0  0  0  0  0  0
   21.6320   61.8410   -9.7310 H   0  0  0  0  0  0  0  0  0  0  0  0
   19.7640   63.6190   -8.1360 H   0  0  0  0  0  0  0  0  0  0  0  0
   22.0240   64.5090   -9.9520 H   0  0  0  0  0  0  0  0  0  0  0  0
   20.3280   65.1680   -9.9710 H   0  0  0  0  0  0  0  0  0  0  0  0
   20.6850   64.9050   -6.4340 H   0  0  0  0  0  0  0  0  0  0  0  0
   22.7890   63.2790   -7.9590 H   0  0  0  0  0  0  0  0  0  0  0  0
   21.4940   62.6360   -6.8050 H   0  0  0  0  0  0  0  0  0  0  0  0
   21.1110   67.4080   -6.1970 H   0  0  0  0  0  0  0  0  0  0  0  0
   21.7350   69.6040   -6.3430 H   0  0  0  0  0  0  0  0  0  0  0  0
   22.7290   69.3780   -7.8280 H   0  0  0  0  0  0  0  0  0  0  0  0
   23.3950   69.2070   -4.8700 H   0  0  0  0  0  0  0  0  0  0  0  0
   24.4370   69.6690   -6.2820 H   0  0  0  0  0  0  0  0  0  0  0  0
   25.0600   67.4470   -6.5920 H   0  0  0  0  0  0  0  0  0  0  0  0
   24.5540   67.2730   -4.8560 H   0  0  0  0  0  0  0  0  0  0  0  0
  1  2  1  0  0  0  0
  2  3  1  0  0  0  0
  3  4  2  0  0  0  0
  3 25  1  0  0  0  0
  4  8  1  0  0  0  0
  5 26  1  0  0  0  0
  5  4  1  0  0  0  0
  6  5  2  0  0  0  0
  7  6  1  0  0  0  0
  7  2  2  0  0  0  0
  8 10  1  0  0  0  0
  9  8  2  0  0  0  0
 10 11  1  0  0  0  0
 11 30  1  1  0  0  0
 11 15  1  0  0  0  0
 12 11  1  0  0  0  0
 12 13  1  0  0  0  0
 13 23  1  0  0  0  0
 13 14  1  0  0  0  0
 14 33  1  1  0  0  0
 14 16  1  0  0  0  0
 15 14  1  0  0  0  0
 15 35  1  0  0  0  0
 16 18  1  0  0  0  0
 16 17  2  0  0  0  0
 18 22  1  0  0  0  0
 19 18  1  0  0  0  0
 19 36  1  1  0  0  0
 20 19  1  0  0  0  0
 20 37  1  0  0  0  0
 20 21  1  0  0  0  0
 21 22  1  0  0  0  0
 21 39  1  0  0  0  0
 22 42  1  0  0  0  0
 23 19  1  0  0  0  0
 24 23  2  0  0  0  0
 27  6  1  0  0  0  0
 28  7  1  0  0  0  0
 29 10  1  0  0  0  0
 31 12  1  0  0  0  0
 32 12  1  0  0  0  0
 34 15  1  0  0  0  0
 38 20  1  0  0  0  0
 40 21  1  0  0  0  0
 41 22  1  0  0  0  0
M  END
>  <Pose>
1

>  <Score>
-6.66

$$$$
