
 OpenBabel03202210193D

 35 38  0  0  1  0  0  0  0  0999 V2000
   26.7400   61.8870   -4.8110 B   0  0  0  0  0  0  0  0  0  0  0  0
   25.0690   62.7350   -4.4750 C   0  0  0  0  0  0  0  0  0  0  0  0
   24.6950   63.7920   -5.2670 C   0  0  0  0  0  0  0  0  0  0  0  0
   23.4810   64.4430   -5.0640 C   0  0  0  0  0  0  0  0  0  0  0  0
   22.6760   64.0030   -4.0600 C   0  0  0  0  0  0  0  0  0  0  0  0
   23.0560   62.9410   -3.2690 C   0  0  0  0  0  0  0  0  0  0  0  0
   24.2480   62.2830   -3.4480 C   0  0  0  0  0  0  0  0  0  0  0  0
   23.1320   65.5580   -5.9220 C   0  0  0  0  0  0  0  0  0  0  0  0
   23.9760   66.4600   -6.0620 O   0  0  0  0  0  0  0  0  0  0  0  0
   21.8880   65.6180   -6.5740 N   0  0  0  0  0  0  0  0  0  0  0  0
   21.6090   65.1070   -7.8570 N   0  0  0  0  0  0  0  0  0  0  0  0
   20.9160   65.9020   -8.8380 C   0  0  0  0  0  0  0  0  0  0  0  0
   20.4830   67.0910   -8.7160 O   0  0  0  0  0  0  0  0  0  0  0  0
   20.7760   65.1150  -10.0480 C   0  0  1  0  0  0  0  0  0  0  0  0
   21.8170   63.9820   -9.9480 C   0  0  2  0  0  0  0  0  0  0  0  0
   21.1450   62.7620  -10.4890 C   0  0  2  0  0  0  0  0  0  0  0  0
   19.9750   63.3710  -11.2860 C   0  0  0  0  0  0  0  0  0  0  0  0
   19.5210   64.2560  -10.1060 C   0  0  1  0  0  0  0  0  0  0  0  0
   19.5370   63.2280   -9.0250 C   0  0  0  0  0  0  0  0  0  0  0  0
   20.3150   62.1920   -9.3660 C   0  0  0  0  0  0  0  0  0  0  0  0
   21.8850   63.8630   -8.4380 C   0  0  0  0  0  0  0  0  0  0  0  0
   22.1490   62.8000   -7.8330 O   0  0  0  0  0  0  0  0  0  0  0  0
   25.3570   64.1240   -6.0640 H   0  0  0  0  0  0  0  0  0  0  0  0
   21.7360   64.4670   -3.8610 H   0  0  0  0  0  0  0  0  0  0  0  0
   22.4170   62.5760   -2.4550 H   0  0  0  0  0  0  0  0  0  0  0  0
   24.5920   61.4580   -2.8670 H   0  0  0  0  0  0  0  0  0  0  0  0
   21.1080   66.0970   -6.0210 H   0  0  0  0  0  0  0  0  0  0  0  0
   20.8540   65.6680  -10.9850 H   0  0  0  0  0  0  0  0  0  0  0  0
   22.7760   64.2430  -10.3820 H   0  0  0  0  0  0  0  0  0  0  0  0
   21.7410   62.0670  -11.0230 H   0  0  0  0  0  0  0  0  0  0  0  0
   19.2130   62.6160  -11.5140 H   0  0  0  0  0  0  0  0  0  0  0  0
   20.3060   63.9620  -12.1380 H   0  0  0  0  0  0  0  0  0  0  0  0
   18.6040   64.7660  -10.2790 H   0  0  0  0  0  0  0  0  0  0  0  0
   19.0010   63.2770   -8.0720 H   0  0  0  0  0  0  0  0  0  0  0  0
   20.4080   61.2020   -9.0100 H   0  0  0  0  0  0  0  0  0  0  0  0
  1  2  1  0  0  0  0
  2  7  1  0  0  0  0
  3  4  1  0  0  0  0
  3  2  2  0  0  0  0
  4  5  2  0  0  0  0
  5 24  1  0  0  0  0
  5  6  1  0  0  0  0
  6 25  1  0  0  0  0
  7  6  2  0  0  0  0
  7 26  1  0  0  0  0
  8  4  1  0  0  0  0
  9  8  2  0  0  0  0
 10 27  1  0  0  0  0
 10  8  1  0  0  0  0
 11 10  1  0  0  0  0
 12 13  2  0  0  0  0
 12 11  1  0  0  0  0
 14 28  1  6  0  0  0
 14 15  1  0  0  0  0
 14 12  1  0  0  0  0
 15 29  1  6  0  0  0
 15 21  1  0  0  0  0
 16 30  1  6  0  0  0
 16 15  1  0  0  0  0
 16 20  1  0  0  0  0
 17 16  1  0  0  0  0
 17 18  1  0  0  0  0
 18 33  1  6  0  0  0
 18 14  1  0  0  0  0
 18 19  1  0  0  0  0
 19 34  1  0  0  0  0
 20 19  1  0  0  0  0
 20 35  1  0  0  0  0
 21 11  1  0  0  0  0
 21 22  2  0  0  0  0
 23  3  1  0  0  0  0
 31 17  1  0  0  0  0
 32 17  1  0  0  0  0
M  END
>  <Pose>
1

>  <Score>
-5.69

$$$$
