
 OpenBabel03202210193D

 44 47  0  0  0  0  0  0  0  0999 V2000
   15.3770   60.5380  -10.5700 B   0  0  0  0  0  0  0  0  0  0  0  0
   16.4490   62.1020  -10.3570 C   0  0  0  0  0  0  0  0  0  0  0  0
   17.8400   61.9390  -10.3160 C   0  0  0  0  0  0  0  0  0  0  0  0
   18.7060   63.0350  -10.1810 C   0  0  0  0  0  0  0  0  0  0  0  0
   18.1330   64.2700  -10.0810 C   0  0  0  0  0  0  0  0  0  0  0  0
   16.7350   64.4620  -10.1200 C   0  0  0  0  0  0  0  0  0  0  0  0
   15.8950   63.3260  -10.2630 C   0  0  0  0  0  0  0  0  0  0  0  0
   20.1420   62.8680  -10.5330 C   0  0  0  0  0  0  0  0  0  0  0  0
   21.0890   63.1620   -9.6350 C   0  0  0  0  0  0  0  0  0  0  0  0
   20.8910   63.6190   -8.3990 O   0  0  0  0  0  0  0  0  0  0  0  0
   22.1350   63.7810   -7.7380 C   0  0  0  0  0  0  0  0  0  0  0  0
   23.1610   63.4230   -8.5450 C   0  0  0  0  0  0  0  0  0  0  0  0
   24.4500   63.4520   -8.0180 C   0  0  0  0  0  0  0  0  0  0  0  0
   24.6630   63.8520   -6.7360 C   0  0  0  0  0  0  0  0  0  0  0  0
   23.5980   64.2410   -5.9480 C   0  0  0  0  0  0  0  0  0  0  0  0
   22.3000   64.2320   -6.4000 C   0  0  0  0  0  0  0  0  0  0  0  0
   21.1780   65.0070   -5.9120 C   0  0  0  0  0  0  0  0  0  0  0  0
   20.7990   66.2730   -5.6490 N   0  0  0  0  0  4  0  0  0  0  0  0
   20.9730   66.9800   -4.4560 C   0  0  0  0  0  0  0  0  0  0  0  0
   22.2300   67.8770   -4.4380 C   0  0  0  0  0  0  0  0  0  0  0  0
   22.1740   68.9130   -5.3400 O   0  0  0  0  0  0  0  0  0  0  0  0
   21.5810   68.4700   -6.5270 C   0  0  0  0  0  0  0  0  0  0  0  0
   21.6480   67.0440   -6.6990 C   0  0  0  0  0  0  0  0  0  0  0  0
   23.8680   64.6550   -4.6420 O   0  0  0  0  0  0  0  0  0  0  0  0
   22.5380   63.0120   -9.8260 C   0  0  0  0  0  0  0  0  0  0  0  0
   23.1270   62.6240  -10.8520 O   0  0  0  0  0  0  0  0  0  0  0  0
   18.2040   60.9700  -10.4290 H   0  0  0  0  0  0  0  0  0  0  0  0
   18.7050   65.1540   -9.9830 H   0  0  0  0  0  0  0  0  0  0  0  0
   16.2260   65.3970  -10.0610 H   0  0  0  0  0  0  0  0  0  0  0  0
   14.8380   63.4510  -10.3130 H   0  0  0  0  0  0  0  0  0  0  0  0
   20.4390   62.5470  -11.5050 H   0  0  0  0  0  0  0  0  0  0  0  0
   25.2620   63.1680   -8.6340 H   0  0  0  0  0  0  0  0  0  0  0  0
   25.6910   63.8630   -6.3090 H   0  0  0  0  0  0  0  0  0  0  0  0
   20.4330   64.8090   -6.9750 H   0  0  0  0  0  0  0  0  0  0  0  0
   20.4700   64.2080   -5.3340 H   0  0  0  0  0  0  0  0  0  0  0  0
   19.7830   66.4300   -6.0080 H   0  0  0  0  0  0  0  0  0  0  0  0
   20.9950   66.3690   -3.5380 H   0  0  0  0  0  0  0  0  0  0  0  0
   20.1070   67.7520   -4.3060 H   0  0  0  0  0  0  0  0  0  0  0  0
   23.1270   67.2310   -4.5240 H   0  0  0  0  0  0  0  0  0  0  0  0
   22.2110   68.3530   -3.4110 H   0  0  0  0  0  0  0  0  0  0  0  0
   20.5730   68.8490   -6.7170 H   0  0  0  0  0  0  0  0  0  0  0  0
   22.2240   68.9030   -7.3710 H   0  0  0  0  0  0  0  0  0  0  0  0
   22.6840   66.5840   -6.5140 H   0  0  0  0  0  0  0  0  0  0  0  0
   21.2770   66.6840   -7.6180 H   0  0  0  0  0  0  0  0  0  0  0  0
  1  2  1  0  0  0  0
  2  3  2  0  0  0  0
  2  7  1  0  0  0  0
  3  4  1  0  0  0  0
  4  5  2  0  0  0  0
  5 28  1  0  0  0  0
  6  5  1  0  0  0  0
  6 29  1  0  0  0  0
  7  6  2  0  0  0  0
  8  4  1  0  0  0  0
  8  9  2  0  0  0  0
  9 10  1  0  0  0  0
 10 11  1  0  0  0  0
 11 16  1  0  0  0  0
 12 13  1  0  0  0  0
 12 11  2  0  0  0  0
 13 14  2  0  0  0  0
 14 33  1  0  0  0  0
 14 15  1  0  0  0  0
 15 24  1  0  0  0  0
 16 15  2  0  0  0  0
 16 17  1  0  0  0  0
 17 18  1  0  0  0  0
 17 35  1  0  0  0  0
 18 19  1  0  0  0  0
 19 20  1  0  0  0  0
 19 38  1  0  0  0  0
 19 37  1  0  0  0  0
 20 40  1  0  0  0  0
 21 20  1  0  0  0  0
 22 21  1  0  0  0  0
 23 22  1  0  0  0  0
 23 43  1  0  0  0  0
 23 18  1  0  0  0  0
 25  9  1  0  0  0  0
 25 12  1  0  0  0  0
 26 25  2  0  0  0  0
 27  3  1  0  0  0  0
 30  7  1  0  0  0  0
 31  8  1  0  0  0  0
 32 13  1  0  0  0  0
 34 17  1  0  0  0  0
 36 18  1  0  0  0  0
 39 20  1  0  0  0  0
 41 22  1  0  0  0  0
 42 22  1  0  0  0  0
 44 23  1  0  0  0  0
M  END
>  <Pose>
1

>  <Score>
-5.51

$$$$
