
 OpenBabel03202210193D

 52 55  0  0  0  0  0  0  0  0999 V2000
   23.0680   63.7210  -16.8580 B   0  0  0  0  0  0  0  0  0  0  0  0
   24.3670   63.5660  -15.4560 C   0  0  0  0  0  0  0  0  0  0  0  0
   23.9960   63.5770  -14.1120 C   0  0  0  0  0  0  0  0  0  0  0  0
   24.9740   63.4960  -13.1400 C   0  0  0  0  0  0  0  0  0  0  0  0
   26.2910   63.3970  -13.5490 C   0  0  0  0  0  0  0  0  0  0  0  0
   26.6090   63.3860  -14.8760 C   0  0  0  0  0  0  0  0  0  0  0  0
   25.6860   63.4760  -15.8850 C   0  0  0  0  0  0  0  0  0  0  0  0
   24.7420   63.6360  -11.6890 C   0  0  0  0  0  0  0  0  0  0  0  0
   23.6220   64.0830  -11.1940 N   0  0  0  0  0  0  0  0  0  0  0  0
   23.3100   64.2660   -9.9300 N   0  0  0  0  0  0  0  0  0  0  0  0
   22.4930   64.2050   -8.8380 C   0  0  0  0  0  0  0  0  0  0  0  0
   21.3840   64.7570   -8.6690 O   0  0  0  0  0  0  0  0  0  0  0  0
   23.0060   63.3350   -7.7000 C   0  0  0  0  0  0  0  0  0  0  0  0
   23.4420   62.1220   -7.6800 N   0  0  0  0  0  0  0  0  0  0  0  0
   23.9740   61.8490   -6.4930 N   0  0  0  0  0  0  0  0  0  0  0  0
   23.8800   62.9570   -5.7100 N   0  0  0  0  0  0  0  0  0  0  0  0
   23.2760   63.8790   -6.3830 C   0  0  0  0  0  0  0  0  0  0  0  0
   22.8170   65.2390   -6.1160 C   0  0  0  0  0  0  0  0  0  0  0  0
   23.4940   66.3760   -6.5450 N   0  0  0  0  0  0  0  0  0  0  0  0
   23.3970   67.2290   -7.5760 C   0  0  0  0  0  0  0  0  0  0  0  0
   22.8590   68.5850   -7.0430 C   0  0  0  0  0  0  0  0  0  0  0  0
   22.1300   68.3110   -5.8560 N   0  0  0  0  0  0  0  0  0  0  0  0
   23.0070   67.9350   -4.7890 C   0  0  0  0  0  0  0  0  0  0  0  0
   24.1290   67.0780   -5.3890 C   0  0  0  0  0  0  0  0  0  0  0  0
   21.0310   69.1110   -5.5160 C   0  0  0  0  0  0  0  0  0  0  0  0
   24.7960   63.0390   -4.5820 C   0  0  0  0  0  0  0  0  0  0  0  0
   24.6390   64.2420   -3.8010 N   0  0  0  0  0  0  0  0  0  0  0  0
   25.4470   64.2690   -2.8510 O   0  0  0  0  0  0  0  0  0  0  0  0
   26.1770   63.1960   -2.8830 N   0  0  0  0  0  0  0  0  0  0  0  0
   25.7550   62.4340   -3.9720 C   0  0  0  0  0  0  0  0  0  0  0  0
   26.3840   61.2000   -4.2360 N   0  0  0  0  0  0  0  0  0  0  0  0
   22.9690   63.6590  -13.8440 H   0  0  0  0  0  0  0  0  0  0  0  0
   27.0410   63.3260  -12.7680 H   0  0  0  0  0  0  0  0  0  0  0  0
   27.6700   63.2910  -15.2010 H   0  0  0  0  0  0  0  0  0  0  0  0
   25.9830   63.4740  -16.9140 H   0  0  0  0  0  0  0  0  0  0  0  0
   25.5220   63.4690  -10.9770 H   0  0  0  0  0  0  0  0  0  0  0  0
   24.3640   64.6750   -9.4620 H   0  0  0  0  0  0  0  0  0  0  0  0
   21.7540   65.2340   -6.7530 H   0  0  0  0  0  0  0  0  0  0  0  0
   22.3860   65.4050   -5.1250 H   0  0  0  0  0  0  0  0  0  0  0  0
   22.8970   66.9710   -8.4890 H   0  0  0  0  0  0  0  0  0  0  0  0
   24.4780   67.4900   -7.9270 H   0  0  0  0  0  0  0  0  0  0  0  0
   23.6900   69.2360   -6.8410 H   0  0  0  0  0  0  0  0  0  0  0  0
   22.1830   68.9650   -7.8140 H   0  0  0  0  0  0  0  0  0  0  0  0
   22.5140   67.3250   -3.9700 H   0  0  0  0  0  0  0  0  0  0  0  0
   23.4180   68.8270   -4.3050 H   0  0  0  0  0  0  0  0  0  0  0  0
   24.5790   66.3870   -4.7230 H   0  0  0  0  0  0  0  0  0  0  0  0
   24.8750   67.7260   -5.8100 H   0  0  0  0  0  0  0  0  0  0  0  0
   20.9180   69.9020   -6.3140 H   0  0  0  0  0  0  0  0  0  0  0  0
   20.0980   68.4650   -5.5620 H   0  0  0  0  0  0  0  0  0  0  0  0
   21.1140   69.5940   -4.5420 H   0  0  0  0  0  0  0  0  0  0  0  0
   25.7470   60.5170   -4.7780 H   0  0  0  0  0  0  0  0  0  0  0  0
   27.2950   60.8470   -4.0160 H   0  0  0  0  0  0  0  0  0  0  0  0
  1  2  1  0  0  0  0
  2  3  1  0  0  0  0
  3 32  1  0  0  0  0
  3  4  2  0  0  0  0
  4  8  1  0  0  0  0
  5  4  1  0  0  0  0
  5 33  1  0  0  0  0
  6  5  2  0  0  0  0
  7  2  2  0  0  0  0
  7  6  1  0  0  0  0
  8  9  2  0  0  0  0
  8 36  1  0  0  0  0
  9 10  1  0  0  0  0
 10 37  1  0  0  0  0
 10 11  1  0  0  0  0
 11 12  2  0  0  0  0
 11 13  1  0  0  0  0
 13 14  1  0  0  0  0
 13 17  2  0  0  0  0
 14 15  2  0  0  0  0
 15 16  1  0  0  0  0
 16 26  1  0  0  0  0
 17 18  1  0  0  0  0
 17 16  1  0  0  0  0
 18 39  1  0  0  0  0
 19 18  1  0  0  0  0
 19 24  1  0  0  0  0
 20 21  1  0  0  0  0
 20 19  1  0  0  0  0
 21 42  1  0  0  0  0
 21 22  1  0  0  0  0
 22 25  1  0  0  0  0
 22 23  1  0  0  0  0
 23 45  1  0  0  0  0
 23 44  1  0  0  0  0
 24 23  1  0  0  0  0
 24 46  1  0  0  0  0
 25 50  1  0  0  0  0
 26 30  1  0  0  0  0
 26 27  2  0  0  0  0
 27 28  1  0  0  0  0
 29 28  1  0  0  0  0
 30 29  2  0  0  0  0
 31 52  1  0  0  0  0
 31 30  1  0  0  0  0
 34  6  1  0  0  0  0
 35  7  1  0  0  0  0
 38 18  1  0  0  0  0
 40 20  1  0  0  0  0
 41 20  1  0  0  0  0
 43 21  1  0  0  0  0
 47 24  1  0  0  0  0
 48 25  1  0  0  0  0
 49 25  1  0  0  0  0
 51 31  1  0  0  0  0
M  END
>  <Pose>
1

>  <Score>
-7.05

$$$$
