
 OpenBabel03202210193D

 50 53  0  0  0  0  0  0  0  0999 V2000
   24.5750   71.2640   -1.9640 B   0  0  0  0  0  0  0  0  0  0  0  0
   24.7360   71.1250   -3.8670 C   0  0  0  0  0  0  0  0  0  0  0  0
   23.9860   70.2250   -4.5840 C   0  0  0  0  0  0  0  0  0  0  0  0
   24.0680   70.0870   -5.9590 C   0  0  0  0  0  0  0  0  0  0  0  0
   24.9590   70.9160   -6.6060 C   0  0  0  0  0  0  0  0  0  0  0  0
   25.7380   71.8410   -5.9160 C   0  0  0  0  0  0  0  0  0  0  0  0
   25.6200   71.9390   -4.5450 C   0  0  0  0  0  0  0  0  0  0  0  0
   23.2560   69.1230   -6.6890 C   0  0  0  0  0  0  0  0  0  0  0  0
   22.6420   68.1530   -6.1350 N   0  0  0  0  0  0  0  0  0  0  0  0
   21.8590   67.2130   -6.8110 N   0  0  0  0  0  0  0  0  0  0  0  0
   22.2920   65.8680   -6.9770 C   0  0  0  0  0  0  0  0  0  0  0  0
   22.9420   65.2450   -5.9890 N   0  0  0  0  0  4  0  0  0  0  0  0
   23.3830   63.9600   -6.0840 C   0  0  0  0  0  0  0  0  0  0  0  0
   23.1230   63.3390   -7.2540 N   0  0  0  0  0  0  0  0  0  0  0  0
   22.4750   63.9110   -8.2840 C   0  0  0  0  0  0  0  0  0  0  0  0
   22.0710   65.1930   -8.1040 N   0  0  0  0  0  0  0  0  0  0  0  0
   22.2160   63.2430   -9.4920 N   0  0  0  0  0  0  0  0  0  0  0  0
   20.8810   63.0580   -9.9920 C   0  0  0  0  0  0  0  0  0  0  0  0
   20.9780   63.2230  -11.5150 C   0  0  0  0  0  0  0  0  0  0  0  0
   22.0550   64.0410  -11.8450 O   0  0  0  0  0  0  0  0  0  0  0  0
   23.2830   63.4770  -11.6040 C   0  0  0  0  0  0  0  0  0  0  0  0
   23.3020   62.7180  -10.2700 C   0  0  0  0  0  0  0  0  0  0  0  0
   24.0670   63.3230   -5.0250 N   0  0  0  0  0  0  0  0  0  0  0  0
   25.3400   62.6950   -5.2460 C   0  0  0  0  0  0  0  0  0  0  0  0
   26.3080   63.2860   -4.2270 C   0  0  0  0  0  0  0  0  0  0  0  0
   25.7850   62.9860   -2.9720 O   0  0  0  0  0  0  0  0  0  0  0  0
   24.6100   63.6690   -2.7150 C   0  0  0  0  0  0  0  0  0  0  0  0
   23.5110   63.2840   -3.7000 C   0  0  0  0  0  0  0  0  0  0  0  0
   23.2780   69.5680   -4.0750 H   0  0  0  0  0  0  0  0  0  0  0  0
   25.0780   70.8650   -7.6880 H   0  0  0  0  0  0  0  0  0  0  0  0
   26.4400   72.4930   -6.4190 H   0  0  0  0  0  0  0  0  0  0  0  0
   26.2300   72.6610   -4.0310 H   0  0  0  0  0  0  0  0  0  0  0  0
   23.1760   69.2390   -7.7600 H   0  0  0  0  0  0  0  0  0  0  0  0
   20.9430   67.5230   -7.1960 H   0  0  0  0  0  0  0  0  0  0  0  0
   20.1550   63.7770   -9.5670 H   0  0  0  0  0  0  0  0  0  0  0  0
   20.5970   62.0060   -9.8160 H   0  0  0  0  0  0  0  0  0  0  0  0
   20.0650   63.7560  -11.8240 H   0  0  0  0  0  0  0  0  0  0  0  0
   21.0490   62.2540  -12.0230 H   0  0  0  0  0  0  0  0  0  0  0  0
   23.6810   62.8670  -12.4170 H   0  0  0  0  0  0  0  0  0  0  0  0
   24.0130   64.3260  -11.4560 H   0  0  0  0  0  0  0  0  0  0  0  0
   24.2430   62.8830   -9.7370 H   0  0  0  0  0  0  0  0  0  0  0  0
   23.1450   61.6210  -10.5010 H   0  0  0  0  0  0  0  0  0  0  0  0
   25.7130   62.8030   -6.2760 H   0  0  0  0  0  0  0  0  0  0  0  0
   25.2260   61.6150   -4.9540 H   0  0  0  0  0  0  0  0  0  0  0  0
   26.2610   64.3810   -4.3490 H   0  0  0  0  0  0  0  0  0  0  0  0
   27.3120   62.8680   -4.3130 H   0  0  0  0  0  0  0  0  0  0  0  0
   24.8500   64.7590   -2.7880 H   0  0  0  0  0  0  0  0  0  0  0  0
   24.2960   63.4120   -1.6850 H   0  0  0  0  0  0  0  0  0  0  0  0
   23.2310   62.2380   -3.4580 H   0  0  0  0  0  0  0  0  0  0  0  0
   22.6580   63.9670   -3.5580 H   0  0  0  0  0  0  0  0  0  0  0  0
  2  1  1  0  0  0  0
  3 29  1  0  0  0  0
  3  2  2  0  0  0  0
  4  3  1  0  0  0  0
  5  4  2  0  0  0  0
  5  6  1  0  0  0  0
  6  7  2  0  0  0  0
  7 32  1  0  0  0  0
  7  2  1  0  0  0  0
  8  9  2  0  0  0  0
  8  4  1  0  0  0  0
 10  9  1  0  0  0  0
 11 10  1  0  0  0  0
 11 12  2  0  0  0  0
 13 12  2  0  0  0  0
 13 23  1  0  0  0  0
 14 13  1  0  0  0  0
 15 16  1  0  0  0  0
 15 14  2  0  0  0  0
 16 11  1  0  0  0  0
 17 15  1  0  0  0  0
 18 36  1  0  0  0  0
 18 35  1  0  0  0  0
 18 17  1  0  0  0  0
 19 18  1  0  0  0  0
 20 21  1  0  0  0  0
 20 19  1  0  0  0  0
 21 40  1  0  0  0  0
 21 22  1  0  0  0  0
 22 41  1  0  0  0  0
 22 17  1  0  0  0  0
 23 28  1  0  0  0  0
 24 23  1  0  0  0  0
 24 44  1  0  0  0  0
 24 25  1  0  0  0  0
 25 26  1  0  0  0  0
 26 27  1  0  0  0  0
 27 48  1  0  0  0  0
 28 50  1  0  0  0  0
 28 49  1  0  0  0  0
 28 27  1  0  0  0  0
 30  5  1  0  0  0  0
 31  6  1  0  0  0  0
 33  8  1  0  0  0  0
 34 10  1  0  0  0  0
 37 19  1  0  0  0  0
 38 19  1  0  0  0  0
 39 21  1  0  0  0  0
 42 22  1  0  0  0  0
 43 24  1  0  0  0  0
 45 25  1  0  0  0  0
 46 25  1  0  0  0  0
 47 27  1  0  0  0  0
M  END
>  <Pose>
1

>  <Score>
-7.43

$$$$
