
 OpenBabel03202210193D

 61 64  0  0  1  0  0  0  0  0999 V2000
   25.7530   68.6300   -7.5330 B   0  0  0  0  0  0  0  0  0  0  0  0
   24.0370   67.8840   -7.1530 C   0  0  0  0  0  0  0  0  0  0  0  0
   23.8110   66.5540   -6.9740 C   0  0  0  0  0  0  0  0  0  0  0  0
   22.5840   65.9750   -6.6980 C   0  0  0  0  0  0  0  0  0  0  0  0
   21.4870   66.8260   -6.5960 C   0  0  0  0  0  0  0  0  0  0  0  0
   21.6810   68.1830   -6.7720 C   0  0  0  0  0  0  0  0  0  0  0  0
   22.9220   68.7310   -7.0470 C   0  0  0  0  0  0  0  0  0  0  0  0
   22.5190   64.5170   -6.5560 C   0  0  1  0  0  0  0  0  0  0  0  0
   22.2620   64.1500   -5.2130 N   0  0  0  0  0  0  0  0  0  0  0  0
   20.9880   63.5330   -5.1220 C   0  0  0  0  0  0  0  0  0  0  0  0
   20.4280   63.1760   -4.0390 O   0  0  0  0  0  0  0  0  0  0  0  0
   20.4530   63.3810   -6.4570 C   0  0  0  0  0  0  0  0  0  0  0  0
   19.3230   62.8610   -6.6630 O   0  0  0  0  0  0  0  0  0  0  0  0
   21.4330   63.9230   -7.3790 C   0  0  0  0  0  0  0  0  0  0  0  0
   21.3110   63.9160   -8.6870 C   0  0  0  0  0  0  0  0  0  0  0  0
   22.2790   64.5220   -9.4540 O   0  0  0  0  0  0  0  0  0  0  0  0
   20.1880   63.2790   -9.3300 C   0  0  0  0  0  0  0  0  0  0  0  0
   18.9290   63.8840   -9.4910 C   0  0  0  0  0  0  0  0  0  0  0  0
   18.1240   63.0480  -10.1570 N   0  0  0  0  0  0  0  0  0  0  0  0
   18.8240   61.9580  -10.4140 N   0  0  0  0  0  0  0  0  0  0  0  0
   20.0720   62.0580   -9.9340 C   0  0  0  0  0  0  0  0  0  0  0  0
   16.7740   63.2740  -10.5390 C   0  0  0  0  0  0  0  0  0  0  0  0
   15.8410   62.2690  -10.3230 C   0  0  0  0  0  0  0  0  0  0  0  0
   14.5110   62.4240  -10.6590 C   0  0  0  0  0  0  0  0  0  0  0  0
   14.0490   63.6090  -11.2340 C   0  0  0  0  0  0  0  0  0  0  0  0
   14.9790   64.6110  -11.4500 C   0  0  0  0  0  0  0  0  0  0  0  0
   16.2950   64.4320  -11.1070 C   0  0  0  0  0  0  0  0  0  0  0  0
   18.5910   65.2460   -8.9850 C   0  0  0  0  0  0  0  0  0  0  0  0
   23.1690   64.3360   -4.0460 C   0  0  0  0  0  0  0  0  0  0  0  0
   23.8710   63.0380   -3.7390 C   0  0  0  0  0  0  0  0  0  0  0  0
   25.3570   63.1730   -3.6380 C   0  0  0  0  0  0  0  0  0  0  0  0
   26.0780   63.1480   -4.8670 N   0  0  0  0  0  4  0  0  0  0  0  0
   27.1360   62.1960   -4.9630 C   0  0  0  0  0  0  0  0  0  0  0  0
   25.1580   62.9050   -5.9900 C   0  0  0  0  0  0  0  0  0  0  0  0
   24.7050   65.9060   -7.0650 H   0  0  0  0  0  0  0  0  0  0  0  0
   20.5180   66.4130   -6.3860 H   0  0  0  0  0  0  0  0  0  0  0  0
   20.8160   68.8470   -6.6900 H   0  0  0  0  0  0  0  0  0  0  0  0
   23.0760   69.7950   -7.1870 H   0  0  0  0  0  0  0  0  0  0  0  0
   23.5080   64.0850   -6.8540 H   0  0  0  0  0  0  0  0  0  0  0  0
   20.8630   61.3110  -10.0210 H   0  0  0  0  0  0  0  0  0  0  0  0
   16.2290   61.3430   -9.8660 H   0  0  0  0  0  0  0  0  0  0  0  0
   13.8070   61.6220  -10.4740 H   0  0  0  0  0  0  0  0  0  0  0  0
   12.9920   63.7050  -11.4940 H   0  0  0  0  0  0  0  0  0  0  0  0
   14.6040   65.5310  -11.9020 H   0  0  0  0  0  0  0  0  0  0  0  0
   16.9860   65.2420  -11.2900 H   0  0  0  0  0  0  0  0  0  0  0  0
   19.4590   65.9370   -9.1130 H   0  0  0  0  0  0  0  0  0  0  0  0
   18.2190   65.2200   -7.9450 H   0  0  0  0  0  0  0  0  0  0  0  0
   17.7730   65.6850   -9.6070 H   0  0  0  0  0  0  0  0  0  0  0  0
   23.8520   65.1840   -4.2310 H   0  0  0  0  0  0  0  0  0  0  0  0
   22.5100   64.5480   -3.1550 H   0  0  0  0  0  0  0  0  0  0  0  0
   23.5320   62.7870   -2.6870 H   0  0  0  0  0  0  0  0  0  0  0  0
   23.5130   62.2010   -4.3420 H   0  0  0  0  0  0  0  0  0  0  0  0
   25.7910   62.3520   -2.9840 H   0  0  0  0  0  0  0  0  0  0  0  0
   25.6110   64.1240   -3.0830 H   0  0  0  0  0  0  0  0  0  0  0  0
   26.4780   64.1140   -5.0650 H   0  0  0  0  0  0  0  0  0  0  0  0
   27.0220   61.5240   -5.8570 H   0  0  0  0  0  0  0  0  0  0  0  0
   27.3610   61.6150   -4.0480 H   0  0  0  0  0  0  0  0  0  0  0  0
   28.0920   62.7580   -5.1780 H   0  0  0  0  0  0  0  0  0  0  0  0
   25.1820   63.7300   -6.7200 H   0  0  0  0  0  0  0  0  0  0  0  0
   24.1340   62.8330   -5.5580 H   0  0  0  0  0  0  0  0  0  0  0  0
   25.3720   61.9150   -6.4520 H   0  0  0  0  0  0  0  0  0  0  0  0
  1  2  1  0  0  0  0
  2  7  2  0  0  0  0
  2  3  1  0  0  0  0
  3  4  2  0  0  0  0
  4  5  1  0  0  0  0
  4  8  1  0  0  0  0
  5 36  1  0  0  0  0
  6 37  1  0  0  0  0
  6  5  2  0  0  0  0
  7  6  1  0  0  0  0
  8 39  1  6  0  0  0
  8  9  1  0  0  0  0
  9 10  1  0  0  0  0
  9 29  1  0  0  0  0
 10 11  2  0  0  0  0
 12 10  1  0  0  0  0
 13 12  2  0  0  0  0
 14  8  1  0  0  0  0
 14 12  1  0  0  0  0
 15 14  2  0  0  0  0
 16 15  1  0  0  0  0
 17 15  1  0  0  0  0
 18 17  2  0  0  0  0
 18 28  1  0  0  0  0
 19 18  1  0  0  0  0
 20 19  1  0  0  0  0
 20 21  2  0  0  0  0
 21 17  1  0  0  0  0
 22 23  1  0  0  0  0
 22 19  1  0  0  0  0
 23 41  1  0  0  0  0
 24 42  1  0  0  0  0
 24 23  2  0  0  0  0
 25 24  1  0  0  0  0
 26 25  2  0  0  0  0
 26 27  1  0  0  0  0
 27 22  2  0  0  0  0
 28 47  1  0  0  0  0
 29 30  1  0  0  0  0
 29 50  1  0  0  0  0
 30 31  1  0  0  0  0
 30 51  1  0  0  0  0
 31 54  1  0  0  0  0
 31 53  1  0  0  0  0
 32 31  1  0  0  0  0
 33 32  1  0  0  0  0
 33 57  1  0  0  0  0
 34 60  1  0  0  0  0
 34 32  1  0  0  0  0
 35  3  1  0  0  0  0
 38  7  1  0  0  0  0
 40 21  1  0  0  0  0
 43 25  1  0  0  0  0
 44 26  1  0  0  0  0
 45 27  1  0  0  0  0
 46 28  1  0  0  0  0
 48 28  1  0  0  0  0
 49 29  1  0  0  0  0
 52 30  1  0  0  0  0
 55 32  1  0  0  0  0
 56 33  1  0  0  0  0
 58 33  1  0  0  0  0
 59 34  1  0  0  0  0
 61 34  1  0  0  0  0
M  END
>  <Pose>
1

>  <Score>
-5.40

$$$$
