
 OpenBabel03202210193D

 56 59  0  0  1  0  0  0  0  0999 V2000
   23.7000   69.8170   -6.0080 B   0  0  0  0  0  0  0  0  0  0  0  0
   22.4130   68.5100   -6.5380 C   0  0  0  0  0  0  0  0  0  0  0  0
   22.7930   67.2070   -6.8400 C   0  0  0  0  0  0  0  0  0  0  0  0
   21.8880   66.2400   -7.2260 C   0  0  0  0  0  0  0  0  0  0  0  0
   20.5590   66.6340   -7.3010 C   0  0  0  0  0  0  0  0  0  0  0  0
   20.1610   67.9210   -7.0070 C   0  0  0  0  0  0  0  0  0  0  0  0
   21.0980   68.8470   -6.6270 C   0  0  0  0  0  0  0  0  0  0  0  0
   22.2980   64.8450   -7.5480 C   0  0  2  0  0  0  0  0  0  0  0  0
   21.1870   63.9940   -7.8540 N   0  0  0  0  0  0  0  0  0  0  0  0
   20.7730   63.4200   -6.6240 C   0  0  0  0  0  0  0  0  0  0  0  0
   19.6550   62.8940   -6.3980 O   0  0  0  0  0  0  0  0  0  0  0  0
   21.8740   63.5340   -5.6380 C   0  0  0  0  0  0  0  0  0  0  0  0
   21.8830   63.1430   -4.4590 O   0  0  0  0  0  0  0  0  0  0  0  0
   22.9470   64.2050   -6.3480 C   0  0  0  0  0  0  0  0  0  0  0  0
   24.2280   64.2180   -6.0520 C   0  0  0  0  0  0  0  0  0  0  0  0
   25.1180   64.8590   -6.8880 O   0  0  0  0  0  0  0  0  0  0  0  0
   24.7380   63.5830   -4.8640 C   0  0  0  0  0  0  0  0  0  0  0  0
   24.5950   64.0230   -3.5810 C   0  0  0  0  0  0  0  0  0  0  0  0
   25.1040   63.2870   -2.5270 C   0  0  0  0  0  0  0  0  0  0  0  0
   25.7730   62.0950   -2.6860 C   0  0  0  0  0  0  0  0  0  0  0  0
   25.9170   61.6510   -3.9840 C   0  0  0  0  0  0  0  0  0  0  0  0
   25.4190   62.3680   -5.0440 C   0  0  0  0  0  0  0  0  0  0  0  0
   26.3130   61.3210   -1.5330 C   0  0  0  0  0  0  0  0  0  0  0  0
   20.5640   63.7420   -9.1690 C   0  0  0  0  0  0  0  0  0  0  0  0
   20.4360   62.2530   -9.3240 C   0  0  0  0  0  0  0  0  0  0  0  0
   19.7080   61.8230  -10.4620 N   0  0  0  0  0  4  0  0  0  0  0  0
   18.6480   60.8890  -10.2170 C   0  0  0  0  0  0  0  0  0  0  0  0
   17.3060   61.5240   -9.9750 C   0  0  0  0  0  0  0  0  0  0  0  0
   17.0340   62.5840  -10.8110 O   0  0  0  0  0  0  0  0  0  0  0  0
   17.9970   63.5630  -10.7440 C   0  0  0  0  0  0  0  0  0  0  0  0
   19.2920   62.9690  -11.2300 C   0  0  0  0  0  0  0  0  0  0  0  0
   23.8240   66.9680   -6.7630 H   0  0  0  0  0  0  0  0  0  0  0  0
   19.8130   65.9200   -7.5970 H   0  0  0  0  0  0  0  0  0  0  0  0
   19.1170   68.1950   -7.0750 H   0  0  0  0  0  0  0  0  0  0  0  0
   20.7850   69.8670   -6.3930 H   0  0  0  0  0  0  0  0  0  0  0  0
   22.9680   64.8710   -8.4070 H   0  0  0  0  0  0  0  0  0  0  0  0
   24.0990   64.9760   -3.4250 H   0  0  0  0  0  0  0  0  0  0  0  0
   24.9760   63.6600   -1.5180 H   0  0  0  0  0  0  0  0  0  0  0  0
   26.4500   60.7040   -4.1210 H   0  0  0  0  0  0  0  0  0  0  0  0
   25.5680   61.9610   -6.0410 H   0  0  0  0  0  0  0  0  0  0  0  0
   25.6840   61.4600   -0.6130 H   0  0  0  0  0  0  0  0  0  0  0  0
   26.2180   60.2190   -1.7610 H   0  0  0  0  0  0  0  0  0  0  0  0
   27.3680   61.5120   -1.3390 H   0  0  0  0  0  0  0  0  0  0  0  0
   19.5330   64.1650   -9.1600 H   0  0  0  0  0  0  0  0  0  0  0  0
   21.2290   64.2170   -9.8930 H   0  0  0  0  0  0  0  0  0  0  0  0
   19.9980   61.8780   -8.3520 H   0  0  0  0  0  0  0  0  0  0  0  0
   21.4740   61.8410   -9.3300 H   0  0  0  0  0  0  0  0  0  0  0  0
   20.4040   61.3230  -11.0930 H   0  0  0  0  0  0  0  0  0  0  0  0
   18.8550   60.2340   -9.3470 H   0  0  0  0  0  0  0  0  0  0  0  0
   18.5190   60.2010  -11.0820 H   0  0  0  0  0  0  0  0  0  0  0  0
   16.5140   60.7520  -10.1610 H   0  0  0  0  0  0  0  0  0  0  0  0
   17.1530   61.8500   -8.9320 H   0  0  0  0  0  0  0  0  0  0  0  0
   18.0860   64.0340   -9.7460 H   0  0  0  0  0  0  0  0  0  0  0  0
   17.7200   64.3710  -11.4530 H   0  0  0  0  0  0  0  0  0  0  0  0
   20.1350   63.7020  -11.1880 H   0  0  0  0  0  0  0  0  0  0  0  0
   19.1650   62.7070  -12.3020 H   0  0  0  0  0  0  0  0  0  0  0  0
  2  1  1  0  0  0  0
  3 32  1  0  0  0  0
  3  2  2  0  0  0  0
  4  3  1  0  0  0  0
  5  4  2  0  0  0  0
  5  6  1  0  0  0  0
  6  7  2  0  0  0  0
  7  2  1  0  0  0  0
  7 35  1  0  0  0  0
  8 36  1  6  0  0  0
  8  4  1  0  0  0  0
  8 14  1  0  0  0  0
  9  8  1  0  0  0  0
  9 10  1  0  0  0  0
 10 11  2  0  0  0  0
 10 12  1  0  0  0  0
 12 13  2  0  0  0  0
 14 15  2  0  0  0  0
 14 12  1  0  0  0  0
 15 17  1  0  0  0  0
 16 15  1  0  0  0  0
 17 18  1  0  0  0  0
 18 37  1  0  0  0  0
 18 19  2  0  0  0  0
 19 38  1  0  0  0  0
 20 19  1  0  0  0  0
 20 23  1  0  0  0  0
 21 20  2  0  0  0  0
 22 17  2  0  0  0  0
 22 21  1  0  0  0  0
 23 43  1  0  0  0  0
 23 41  1  0  0  0  0
 24 44  1  0  0  0  0
 24  9  1  0  0  0  0
 25 24  1  0  0  0  0
 25 46  1  0  0  0  0
 26 27  1  0  0  0  0
 26 25  1  0  0  0  0
 27 28  1  0  0  0  0
 27 49  1  0  0  0  0
 28 52  1  0  0  0  0
 29 30  1  0  0  0  0
 29 28  1  0  0  0  0
 30 53  1  0  0  0  0
 31 55  1  0  0  0  0
 31 30  1  0  0  0  0
 31 26  1  0  0  0  0
 33  5  1  0  0  0  0
 34  6  1  0  0  0  0
 39 21  1  0  0  0  0
 40 22  1  0  0  0  0
 42 23  1  0  0  0  0
 45 24  1  0  0  0  0
 47 25  1  0  0  0  0
 48 26  1  0  0  0  0
 50 27  1  0  0  0  0
 51 28  1  0  0  0  0
 54 30  1  0  0  0  0
 56 31  1  0  0  0  0
M  END
>  <Pose>
1

>  <Score>
-4.58

$$$$
