
 OpenBabel03202210193D

 56 59  0  0  1  0  0  0  0  0999 V2000
   23.9770   63.8620  -13.6730 B   0  0  0  0  0  0  0  0  0  0  0  0
   24.3670   63.4010  -11.8710 C   0  0  0  0  0  0  0  0  0  0  0  0
   23.3960   63.3650  -10.8800 C   0  0  0  0  0  0  0  0  0  0  0  0
   23.6880   63.0340   -9.5760 C   0  0  0  0  0  0  0  0  0  0  0  0
   24.9820   62.7360   -9.2660 C   0  0  0  0  0  0  0  0  0  0  0  0
   25.9710   62.7690  -10.2590 C   0  0  0  0  0  0  0  0  0  0  0  0
   25.6770   63.1000  -11.5620 C   0  0  0  0  0  0  0  0  0  0  0  0
   22.6120   63.0060   -8.5540 C   0  0  1  0  0  0  0  0  0  0  0  0
   22.8680   63.9880   -7.5120 N   0  0  0  0  0  0  0  0  0  0  0  0
   22.1870   65.1990   -7.9010 C   0  0  0  0  0  0  0  0  0  0  0  0
   22.4360   66.3390   -7.4380 O   0  0  0  0  0  0  0  0  0  0  0  0
   21.1990   64.8300   -8.8930 C   0  0  0  0  0  0  0  0  0  0  0  0
   20.3810   65.5850   -9.5050 O   0  0  0  0  0  0  0  0  0  0  0  0
   21.2930   63.3900   -9.0920 C   0  0  0  0  0  0  0  0  0  0  0  0
   20.3750   62.6340   -9.6760 C   0  0  0  0  0  0  0  0  0  0  0  0
   20.7360   61.2760   -9.7930 O   0  0  0  0  0  0  0  0  0  0  0  0
   19.0930   63.1140  -10.1650 C   0  0  0  0  0  0  0  0  0  0  0  0
   18.9070   63.8850  -11.2880 C   0  0  0  0  0  0  0  0  0  0  0  0
   17.6600   64.2840  -11.7240 C   0  0  0  0  0  0  0  0  0  0  0  0
   16.5270   63.9170  -11.0330 C   0  0  0  0  0  0  0  0  0  0  0  0
   16.6940   63.1420   -9.9030 C   0  0  0  0  0  0  0  0  0  0  0  0
   17.9460   62.7490   -9.4750 C   0  0  0  0  0  0  0  0  0  0  0  0
   14.9190   64.4130  -11.5720 Cl  0  0  0  0  0  0  0  0  0  0  0  0
   23.7220   63.8010   -6.3840 C   0  0  0  0  0  0  0  0  0  0  0  0
   23.2790   64.2680   -5.0580 C   0  0  0  0  0  0  0  0  0  0  0  0
   24.0920   63.9720   -3.8530 C   0  0  0  0  0  0  0  0  0  0  0  0
   25.4510   63.5880   -4.0320 N   0  0  0  0  0  4  0  0  0  0  0  0
   25.9260   62.8340   -2.9000 C   0  0  0  0  0  0  0  0  0  0  0  0
   25.7730   61.3370   -3.0720 C   0  0  0  0  0  0  0  0  0  0  0  0
   26.5940   60.8870   -4.1090 O   0  0  0  0  0  0  0  0  0  0  0  0
   26.8500   61.9130   -5.0210 C   0  0  0  0  0  0  0  0  0  0  0  0
   25.5640   62.6700   -5.2080 C   0  0  0  0  0  0  0  0  0  0  0  0
   22.3820   63.6040  -11.1480 H   0  0  0  0  0  0  0  0  0  0  0  0
   25.2540   62.4730   -8.2680 H   0  0  0  0  0  0  0  0  0  0  0  0
   26.9890   62.5340  -10.0210 H   0  0  0  0  0  0  0  0  0  0  0  0
   26.4450   63.1270  -12.3380 H   0  0  0  0  0  0  0  0  0  0  0  0
   22.6100   62.0090   -8.0680 H   0  0  0  0  0  0  0  0  0  0  0  0
   19.7660   64.2150  -11.8490 H   0  0  0  0  0  0  0  0  0  0  0  0
   17.5180   64.8900  -12.6090 H   0  0  0  0  0  0  0  0  0  0  0  0
   15.7910   62.8640   -9.3720 H   0  0  0  0  0  0  0  0  0  0  0  0
   18.0650   62.1390   -8.5800 H   0  0  0  0  0  0  0  0  0  0  0  0
   24.6930   64.3420   -6.6420 H   0  0  0  0  0  0  0  0  0  0  0  0
   23.9820   62.6850   -6.3320 H   0  0  0  0  0  0  0  0  0  0  0  0
   22.1880   63.9450   -4.8590 H   0  0  0  0  0  0  0  0  0  0  0  0
   23.1720   65.4170   -5.0780 H   0  0  0  0  0  0  0  0  0  0  0  0
   23.6130   63.1660   -3.2280 H   0  0  0  0  0  0  0  0  0  0  0  0
   24.0930   64.8750   -3.1520 H   0  0  0  0  0  0  0  0  0  0  0  0
   26.0550   64.3660   -4.2870 H   0  0  0  0  0  0  0  0  0  0  0  0
   25.3760   63.1370   -1.9840 H   0  0  0  0  0  0  0  0  0  0  0  0
   26.9960   63.0470   -2.7300 H   0  0  0  0  0  0  0  0  0  0  0  0
   24.7050   61.0970   -3.2410 H   0  0  0  0  0  0  0  0  0  0  0  0
   26.0850   60.8550   -2.1440 H   0  0  0  0  0  0  0  0  0  0  0  0
   27.6400   62.5530   -4.5940 H   0  0  0  0  0  0  0  0  0  0  0  0
   27.2110   61.4520   -5.9650 H   0  0  0  0  0  0  0  0  0  0  0  0
   24.6890   61.9900   -5.1750 H   0  0  0  0  0  0  0  0  0  0  0  0
   25.6070   63.2890   -6.1240 H   0  0  0  0  0  0  0  0  0  0  0  0
  1  2  1  0  0  0  0
  2  7  2  0  0  0  0
  2  3  1  0  0  0  0
  3  4  2  0  0  0  0
  4  5  1  0  0  0  0
  4  8  1  0  0  0  0
  5 34  1  0  0  0  0
  6 35  1  0  0  0  0
  6  5  2  0  0  0  0
  7  6  1  0  0  0  0
  8 37  1  1  0  0  0
  8  9  1  0  0  0  0
  9 24  1  0  0  0  0
 10  9  1  0  0  0  0
 10 11  2  0  0  0  0
 12 10  1  0  0  0  0
 13 12  2  0  0  0  0
 14 12  1  0  0  0  0
 14  8  1  0  0  0  0
 15 14  2  0  0  0  0
 16 15  1  0  0  0  0
 17 15  1  0  0  0  0
 17 22  1  0  0  0  0
 18 17  2  0  0  0  0
 19 18  1  0  0  0  0
 19 20  2  0  0  0  0
 20 21  1  0  0  0  0
 21 22  2  0  0  0  0
 21 40  1  0  0  0  0
 22 41  1  0  0  0  0
 23 20  1  0  0  0  0
 24 43  1  0  0  0  0
 24 25  1  0  0  0  0
 25 44  1  0  0  0  0
 25 26  1  0  0  0  0
 26 46  1  0  0  0  0
 26 47  1  0  0  0  0
 27 26  1  0  0  0  0
 27 28  1  0  0  0  0
 28 50  1  0  0  0  0
 28 49  1  0  0  0  0
 29 28  1  0  0  0  0
 29 52  1  0  0  0  0
 30 29  1  0  0  0  0
 31 53  1  0  0  0  0
 31 30  1  0  0  0  0
 32 55  1  0  0  0  0
 32 31  1  0  0  0  0
 32 27  1  0  0  0  0
 33  3  1  0  0  0  0
 36  7  1  0  0  0  0
 38 18  1  0  0  0  0
 39 19  1  0  0  0  0
 42 24  1  0  0  0  0
 45 25  1  0  0  0  0
 48 27  1  0  0  0  0
 51 29  1  0  0  0  0
 54 31  1  0  0  0  0
 56 32  1  0  0  0  0
M  END
>  <Pose>
1

>  <Score>
-5.38

$$$$
