
 OpenBabel03202210193D

 62 66  0  0  1  0  0  0  0  0999 V2000
   25.9050   66.8530  -11.6460 B   0  0  0  0  0  0  0  0  0  0  0  0
   24.7810   65.3330  -11.3350 C   0  0  0  0  0  0  0  0  0  0  0  0
   23.8190   65.3570  -10.3590 C   0  0  0  0  0  0  0  0  0  0  0  0
   22.9670   64.2680  -10.0880 C   0  0  0  0  0  0  0  0  0  0  0  0
   23.1970   63.1810  -10.9020 C   0  0  0  0  0  0  0  0  0  0  0  0
   24.1580   63.1340  -11.8890 C   0  0  0  0  0  0  0  0  0  0  0  0
   24.9670   64.2240  -12.1160 C   0  0  0  0  0  0  0  0  0  0  0  0
   21.9820   64.3890   -9.0560 C   0  0  2  0  0  0  0  0  0  0  0  0
   22.2820   64.0370   -7.7120 N   0  0  0  0  0  0  0  0  0  0  0  0
   20.9970   64.2010   -7.0250 C   0  0  0  0  0  0  0  0  0  0  0  0
   20.8360   64.4720   -5.8250 O   0  0  0  0  0  0  0  0  0  0  0  0
   19.9560   63.9780   -8.0430 C   0  0  0  0  0  0  0  0  0  0  0  0
   18.7130   64.0130   -7.8980 O   0  0  0  0  0  0  0  0  0  0  0  0
   20.6790   63.6970   -9.2810 C   0  0  0  0  0  0  0  0  0  0  0  0
   20.2610   62.9740  -10.2880 C   0  0  0  0  0  0  0  0  0  0  0  0
   21.1610   62.7850  -11.3600 O   0  0  0  0  0  0  0  0  0  0  0  0
   18.9330   62.3810  -10.3430 C   0  0  0  0  0  0  0  0  0  0  0  0
   17.7160   62.9240  -10.4900 N   0  0  0  0  0  0  0  0  0  0  0  0
   16.7870   61.9660  -10.4340 C   0  0  0  0  0  0  0  0  0  0  0  0
   17.4340   60.7860  -10.2480 N   0  0  0  0  0  0  0  0  0  0  0  0
   18.7560   60.9970  -10.1870 C   0  0  0  0  0  0  0  0  0  0  0  0
   19.8200   59.9730   -9.9930 C   0  0  0  0  0  0  0  0  0  0  0  0
   15.4310   62.2530  -10.5740 C   0  0  0  0  0  0  0  0  0  0  0  0
   15.0840   63.5750  -10.7770 C   0  0  0  0  0  0  0  0  0  0  0  0
   16.0710   64.5410  -10.8310 C   0  0  0  0  0  0  0  0  0  0  0  0
   17.4020   64.2340  -10.6890 C   0  0  0  0  0  0  0  0  0  0  0  0
   14.4420   61.1490  -10.5020 C   0  0  0  0  0  0  0  0  0  0  0  0
   23.4900   63.6500   -7.0040 C   0  0  0  0  0  0  0  0  0  0  0  0
   23.4980   63.9570   -5.5470 C   0  0  0  0  0  0  0  0  0  0  0  0
   23.8010   62.8000   -4.7270 N   0  0  0  0  0  4  0  0  0  0  0  0
   25.1250   62.2880   -5.0030 C   0  0  0  0  0  0  0  0  0  0  0  0
   26.1760   63.2380   -4.4210 C   0  0  0  0  0  0  0  0  0  0  0  0
   26.0120   63.1800   -3.0320 O   0  0  0  0  0  0  0  0  0  0  0  0
   24.7980   63.8470   -2.7660 C   0  0  0  0  0  0  0  0  0  0  0  0
   23.6170   63.0840   -3.3180 C   0  0  0  0  0  0  0  0  0  0  0  0
   23.7220   66.2750   -9.7700 H   0  0  0  0  0  0  0  0  0  0  0  0
   22.5910   62.3220  -10.7800 H   0  0  0  0  0  0  0  0  0  0  0  0
   24.3090   62.2620  -12.5070 H   0  0  0  0  0  0  0  0  0  0  0  0
   25.7320   64.2420  -12.8730 H   0  0  0  0  0  0  0  0  0  0  0  0
   21.6730   65.4900   -9.0010 H   0  0  0  0  0  0  0  0  0  0  0  0
   20.0280   59.8910   -8.9070 H   0  0  0  0  0  0  0  0  0  0  0  0
   20.7250   60.3330  -10.4980 H   0  0  0  0  0  0  0  0  0  0  0  0
   19.4810   58.9900  -10.4050 H   0  0  0  0  0  0  0  0  0  0  0  0
   14.0250   63.8330  -10.8920 H   0  0  0  0  0  0  0  0  0  0  0  0
   15.8080   65.5770  -10.9900 H   0  0  0  0  0  0  0  0  0  0  0  0
   18.1810   64.9760  -10.7290 H   0  0  0  0  0  0  0  0  0  0  0  0
   13.4170   61.5730  -10.4970 H   0  0  0  0  0  0  0  0  0  0  0  0
   14.6050   60.5710   -9.5560 H   0  0  0  0  0  0  0  0  0  0  0  0
   14.5020   60.4580  -11.3470 H   0  0  0  0  0  0  0  0  0  0  0  0
   23.5920   62.5460   -7.1110 H   0  0  0  0  0  0  0  0  0  0  0  0
   24.3880   64.0650   -7.5320 H   0  0  0  0  0  0  0  0  0  0  0  0
   24.3600   64.6860   -5.4030 H   0  0  0  0  0  0  0  0  0  0  0  0
   22.6410   64.4440   -5.1190 H   0  0  0  0  0  0  0  0  0  0  0  0
   23.1290   62.0300   -4.9660 H   0  0  0  0  0  0  0  0  0  0  0  0
   25.2610   62.3270   -6.1010 H   0  0  0  0  0  0  0  0  0  0  0  0
   25.2640   61.2580   -4.6760 H   0  0  0  0  0  0  0  0  0  0  0  0
   27.1790   62.9550   -4.7530 H   0  0  0  0  0  0  0  0  0  0  0  0
   25.9050   64.2640   -4.7210 H   0  0  0  0  0  0  0  0  0  0  0  0
   24.8490   64.8080   -3.3320 H   0  0  0  0  0  0  0  0  0  0  0  0
   24.6500   64.0220   -1.7000 H   0  0  0  0  0  0  0  0  0  0  0  0
   22.7370   63.7550   -3.2350 H   0  0  0  0  0  0  0  0  0  0  0  0
   23.3830   62.1720   -2.7350 H   0  0  0  0  0  0  0  0  0  0  0  0
  1  2  1  0  0  0  0
  2  3  1  0  0  0  0
  3  4  2  0  0  0  0
  3 36  1  0  0  0  0
  4  8  1  0  0  0  0
  5 37  1  0  0  0  0
  5  4  1  0  0  0  0
  6  5  2  0  0  0  0
  7  6  1  0  0  0  0
  7  2  2  0  0  0  0
  8 40  1  1  0  0  0
  8  9  1  0  0  0  0
  9 10  1  0  0  0  0
  9 28  1  0  0  0  0
 10 11  2  0  0  0  0
 12 13  2  0  0  0  0
 12 10  1  0  0  0  0
 14  8  1  0  0  0  0
 14 12  1  0  0  0  0
 15 14  2  0  0  0  0
 16 15  1  0  0  0  0
 17 15  1  0  0  0  0
 17 21  2  0  0  0  0
 18 19  1  0  0  0  0
 18 17  1  0  0  0  0
 19 20  2  0  0  0  0
 20 21  1  0  0  0  0
 21 22  1  0  0  0  0
 22 41  1  0  0  0  0
 23 27  1  0  0  0  0
 23 19  1  0  0  0  0
 24 23  2  0  0  0  0
 25 24  1  0  0  0  0
 25 26  2  0  0  0  0
 26 18  1  0  0  0  0
 27 47  1  0  0  0  0
 27 48  1  0  0  0  0
 28 29  1  0  0  0  0
 29 52  1  0  0  0  0
 29 53  1  0  0  0  0
 29 30  1  0  0  0  0
 30 35  1  0  0  0  0
 31 30  1  0  0  0  0
 31 56  1  0  0  0  0
 31 32  1  0  0  0  0
 32 33  1  0  0  0  0
 33 34  1  0  0  0  0
 34 60  1  0  0  0  0
 35 61  1  0  0  0  0
 35 34  1  0  0  0  0
 35 62  1  0  0  0  0
 38  6  1  0  0  0  0
 39  7  1  0  0  0  0
 42 22  1  0  0  0  0
 43 22  1  0  0  0  0
 44 24  1  0  0  0  0
 45 25  1  0  0  0  0
 46 26  1  0  0  0  0
 49 27  1  0  0  0  0
 50 28  1  0  0  0  0
 51 28  1  0  0  0  0
 54 30  1  0  0  0  0
 55 31  1  0  0  0  0
 57 32  1  0  0  0  0
 58 32  1  0  0  0  0
 59 34  1  0  0  0  0
M  END
>  <Pose>
1

>  <Score>
-5.29

$$$$
