
 OpenBabel03202210193D

 53 56  0  0  1  0  0  0  0  0999 V2000
   25.7860   63.2700  -11.0650 B   0  0  0  0  0  0  0  0  0  0  0  0
   23.8820   63.2650  -11.2970 C   0  0  0  0  0  0  0  0  0  0  0  0
   23.0200   63.3200  -10.2120 C   0  0  0  0  0  0  0  0  0  0  0  0
   21.6490   63.3160  -10.3440 C   0  0  0  0  0  0  0  0  0  0  0  0
   21.1340   63.2530  -11.6250 C   0  0  0  0  0  0  0  0  0  0  0  0
   21.9880   63.1960  -12.7290 C   0  0  0  0  0  0  0  0  0  0  0  0
   23.3610   63.2010  -12.5730 C   0  0  0  0  0  0  0  0  0  0  0  0
   20.7710   63.3780   -9.1390 C   0  0  2  0  0  0  0  0  0  0  0  0
   21.2500   62.4900   -8.0900 N   0  0  0  0  0  0  0  0  0  0  0  0
   20.8850   61.1780   -8.5800 C   0  0  0  0  0  0  0  0  0  0  0  0
   21.4270   60.0930   -8.2790 O   0  0  0  0  0  0  0  0  0  0  0  0
   19.7640   61.3180   -9.5000 C   0  0  0  0  0  0  0  0  0  0  0  0
   19.1240   60.4600  -10.1610 O   0  0  0  0  0  0  0  0  0  0  0  0
   19.4640   62.7480   -9.5490 C   0  0  0  0  0  0  0  0  0  0  0  0
   18.3610   63.3520   -9.8850 C   0  0  0  0  0  0  0  0  0  0  0  0
   18.3500   64.7640   -9.8810 O   0  0  0  0  0  0  0  0  0  0  0  0
   17.1790   62.5910  -10.2490 C   0  0  0  0  0  0  0  0  0  0  0  0
   17.1470   61.2860  -10.2830 O   0  0  0  0  0  0  0  0  0  0  0  0
   15.9710   60.8510  -10.6430 C   0  0  0  0  0  0  0  0  0  0  0  0
   15.1690   61.9300  -10.8640 C   0  0  0  0  0  0  0  0  0  0  0  0
   15.9480   63.0650  -10.6110 C   0  0  0  0  0  0  0  0  0  0  0  0
   21.9410   62.7560   -6.8570 C   0  0  0  0  0  0  0  0  0  0  0  0
   22.3330   64.2040   -6.6750 C   0  0  0  0  0  0  0  0  0  0  0  0
   23.1980   64.3380   -5.4840 C   0  0  0  0  0  0  0  0  0  0  0  0
   23.7030   63.0950   -4.9490 N   0  0  0  0  0  4  0  0  0  0  0  0
   24.9500   62.6950   -5.5580 C   0  0  0  0  0  0  0  0  0  0  0  0
   26.1700   63.0860   -4.8020 C   0  0  0  0  0  0  0  0  0  0  0  0
   26.0980   62.9300   -3.4340 O   0  0  0  0  0  0  0  0  0  0  0  0
   24.9580   63.4850   -2.8680 C   0  0  0  0  0  0  0  0  0  0  0  0
   23.6980   62.9890   -3.5290 C   0  0  0  0  0  0  0  0  0  0  0  0
   23.4360   63.3700   -9.2070 H   0  0  0  0  0  0  0  0  0  0  0  0
   20.0620   63.2490  -11.7420 H   0  0  0  0  0  0  0  0  0  0  0  0
   21.5730   63.1480  -13.7180 H   0  0  0  0  0  0  0  0  0  0  0  0
   24.0460   63.1580  -13.4110 H   0  0  0  0  0  0  0  0  0  0  0  0
   20.5480   64.3900   -8.8230 H   0  0  0  0  0  0  0  0  0  0  0  0
   15.7120   59.7940  -10.7390 H   0  0  0  0  0  0  0  0  0  0  0  0
   14.1420   61.9160  -11.1710 H   0  0  0  0  0  0  0  0  0  0  0  0
   15.5850   64.0720  -10.7130 H   0  0  0  0  0  0  0  0  0  0  0  0
   21.2610   62.4980   -5.9900 H   0  0  0  0  0  0  0  0  0  0  0  0
   22.8140   62.0750   -6.7070 H   0  0  0  0  0  0  0  0  0  0  0  0
   21.4080   64.8020   -6.5060 H   0  0  0  0  0  0  0  0  0  0  0  0
   22.8280   64.4770   -7.6340 H   0  0  0  0  0  0  0  0  0  0  0  0
   22.6720   64.8250   -4.6210 H   0  0  0  0  0  0  0  0  0  0  0  0
   24.0510   65.0010   -5.7320 H   0  0  0  0  0  0  0  0  0  0  0  0
   23.0000   62.3660   -5.2930 H   0  0  0  0  0  0  0  0  0  0  0  0
   24.9800   61.5950   -5.7340 H   0  0  0  0  0  0  0  0  0  0  0  0
   24.9970   63.1630   -6.5650 H   0  0  0  0  0  0  0  0  0  0  0  0
   27.0060   62.4060   -5.1470 H   0  0  0  0  0  0  0  0  0  0  0  0
   26.5530   64.1120   -5.0840 H   0  0  0  0  0  0  0  0  0  0  0  0
   24.9230   63.1180   -1.8090 H   0  0  0  0  0  0  0  0  0  0  0  0
   24.9590   64.5760   -2.8200 H   0  0  0  0  0  0  0  0  0  0  0  0
   23.6260   61.8970   -3.2380 H   0  0  0  0  0  0  0  0  0  0  0  0
   22.8260   63.4570   -3.0810 H   0  0  0  0  0  0  0  0  0  0  0  0
  2  1  1  0  0  0  0
  2  3  1  0  0  0  0
  3 31  1  0  0  0  0
  4  3  2  0  0  0  0
  4  8  1  0  0  0  0
  5  4  1  0  0  0  0
  6  7  1  0  0  0  0
  6  5  2  0  0  0  0
  7  2  2  0  0  0  0
  8 35  1  1  0  0  0
  8  9  1  0  0  0  0
  9 22  1  0  0  0  0
 10 11  2  0  0  0  0
 10  9  1  0  0  0  0
 12 10  1  0  0  0  0
 13 12  2  0  0  0  0
 14 12  1  0  0  0  0
 14  8  1  0  0  0  0
 15 16  1  0  0  0  0
 15 14  2  0  0  0  0
 17 15  1  0  0  0  0
 18 17  1  0  0  0  0
 19 18  1  0  0  0  0
 20 19  2  0  0  0  0
 20 21  1  0  0  0  0
 21 17  2  0  0  0  0
 22 40  1  0  0  0  0
 22 23  1  0  0  0  0
 22 39  1  0  0  0  0
 23 41  1  0  0  0  0
 23 24  1  0  0  0  0
 24 25  1  0  0  0  0
 24 43  1  0  0  0  0
 25 30  1  0  0  0  0
 26 25  1  0  0  0  0
 26 27  1  0  0  0  0
 27 28  1  0  0  0  0
 28 29  1  0  0  0  0
 29 51  1  0  0  0  0
 29 50  1  0  0  0  0
 30 52  1  0  0  0  0
 30 53  1  0  0  0  0
 30 29  1  0  0  0  0
 32  5  1  0  0  0  0
 33  6  1  0  0  0  0
 34  7  1  0  0  0  0
 36 19  1  0  0  0  0
 37 20  1  0  0  0  0
 38 21  1  0  0  0  0
 42 23  1  0  0  0  0
 44 24  1  0  0  0  0
 45 25  1  0  0  0  0
 46 26  1  0  0  0  0
 47 26  1  0  0  0  0
 48 27  1  0  0  0  0
 49 27  1  0  0  0  0
M  END
>  <Pose>
1

>  <Score>
-5.57

$$$$
