
 OpenBabel03202210193D

 58 61  0  0  1  0  0  0  0  0999 V2000
   21.5970   67.6420   -6.8830 B   0  0  0  0  0  0  0  0  0  0  0  0
   22.2940   65.8490   -6.9460 C   0  0  0  0  0  0  0  0  0  0  0  0
   22.0740   65.0600   -8.0380 C   0  0  0  0  0  0  0  0  0  0  0  0
   22.5500   63.7520   -8.1480 C   0  0  0  0  0  0  0  0  0  0  0  0
   23.2680   63.2960   -7.0650 C   0  0  0  0  0  0  0  0  0  0  0  0
   23.4990   64.0910   -5.9450 C   0  0  0  0  0  0  0  0  0  0  0  0
   23.0100   65.3650   -5.8900 C   0  0  0  0  0  0  0  0  0  0  0  0
   22.2890   62.9330   -9.3590 C   0  0  2  0  0  0  0  0  0  0  0  0
   22.8460   63.5020  -10.5700 N   0  0  0  0  0  0  0  0  0  0  0  0
   21.8680   64.4540  -11.0400 C   0  0  0  0  0  0  0  0  0  0  0  0
   22.1040   65.4260  -11.7980 O   0  0  0  0  0  0  0  0  0  0  0  0
   20.5820   64.0560  -10.4610 C   0  0  0  0  0  0  0  0  0  0  0  0
   19.4570   64.6010  -10.6030 O   0  0  0  0  0  0  0  0  0  0  0  0
   20.8080   62.8660   -9.6480 C   0  0  0  0  0  0  0  0  0  0  0  0
   19.9170   61.9700   -9.2590 C   0  0  0  0  0  0  0  0  0  0  0  0
   20.3200   60.9190   -8.4740 O   0  0  0  0  0  0  0  0  0  0  0  0
   18.5000   62.0750   -9.6540 C   0  0  0  0  0  0  0  0  0  0  0  0
   17.8100   63.1810   -9.7170 O   0  0  0  0  0  0  0  0  0  0  0  0
   16.5860   63.0080  -10.0890 C   0  0  0  0  0  0  0  0  0  0  0  0
   16.4230   61.6600  -10.3000 C   0  0  0  0  0  0  0  0  0  0  0  0
   17.6380   61.0700  -10.0230 C   0  0  0  0  0  0  0  0  0  0  0  0
   15.1870   61.2100  -10.7080 C   0  0  0  0  0  0  0  0  0  0  0  0
   14.1270   62.0720  -10.9050 C   0  0  0  0  0  0  0  0  0  0  0  0
   14.3390   63.4360  -10.6790 C   0  0  0  0  0  0  0  0  0  0  0  0
   15.5560   63.9220  -10.2720 C   0  0  0  0  0  0  0  0  0  0  0  0
   15.7220   65.2670  -10.0640 O   0  0  0  0  0  0  0  0  0  0  0  0
   15.4590   66.2910  -10.9690 C   0  0  0  0  0  0  0  0  0  0  0  0
   24.1160   63.2210  -11.1940 C   0  0  0  0  0  0  0  0  0  0  0  0
   24.0240   63.2970  -12.6990 C   0  0  0  0  0  0  0  0  0  0  0  0
   25.2880   63.6520  -13.3930 C   0  0  0  0  0  0  0  0  0  0  0  0
   25.2930   63.4130  -14.8020 N   0  0  0  0  0  4  0  0  0  0  0  0
   24.5220   62.2090  -15.1260 C   0  0  0  0  0  0  0  0  0  0  0  0
   26.6120   63.2950  -15.3430 C   0  0  0  0  0  0  0  0  0  0  0  0
   21.5110   65.4210   -8.8880 H   0  0  0  0  0  0  0  0  0  0  0  0
   23.6790   62.3220   -7.0340 H   0  0  0  0  0  0  0  0  0  0  0  0
   24.0620   63.7340   -5.0920 H   0  0  0  0  0  0  0  0  0  0  0  0
   23.1580   66.0300   -5.0410 H   0  0  0  0  0  0  0  0  0  0  0  0
   22.7150   61.9320   -9.1470 H   0  0  0  0  0  0  0  0  0  0  0  0
   17.8700   60.0220  -10.0830 H   0  0  0  0  0  0  0  0  0  0  0  0
   15.0680   60.1490  -10.8700 H   0  0  0  0  0  0  0  0  0  0  0  0
   13.1650   61.6990  -11.2240 H   0  0  0  0  0  0  0  0  0  0  0  0
   13.4620   64.0750  -10.8520 H   0  0  0  0  0  0  0  0  0  0  0  0
   15.6670   66.0400  -12.0270 H   0  0  0  0  0  0  0  0  0  0  0  0
   15.9810   67.2440  -10.7110 H   0  0  0  0  0  0  0  0  0  0  0  0
   14.3680   66.5130  -10.9260 H   0  0  0  0  0  0  0  0  0  0  0  0
   24.8710   63.9530  -10.8430 H   0  0  0  0  0  0  0  0  0  0  0  0
   24.3920   62.1780  -10.9310 H   0  0  0  0  0  0  0  0  0  0  0  0
   23.6600   62.3010  -13.0980 H   0  0  0  0  0  0  0  0  0  0  0  0
   23.1810   63.9940  -12.9790 H   0  0  0  0  0  0  0  0  0  0  0  0
   26.1050   63.0780  -12.8880 H   0  0  0  0  0  0  0  0  0  0  0  0
   25.4990   64.7370  -13.2140 H   0  0  0  0  0  0  0  0  0  0  0  0
   24.8030   64.1820  -15.3440 H   0  0  0  0  0  0  0  0  0  0  0  0
   24.2590   62.2490  -16.1980 H   0  0  0  0  0  0  0  0  0  0  0  0
   25.0520   61.2870  -14.8390 H   0  0  0  0  0  0  0  0  0  0  0  0
   23.5730   62.2060  -14.5220 H   0  0  0  0  0  0  0  0  0  0  0  0
   27.1620   64.2420  -15.1770 H   0  0  0  0  0  0  0  0  0  0  0  0
   27.1760   62.4690  -14.8630 H   0  0  0  0  0  0  0  0  0  0  0  0
   26.5270   63.0620  -16.4370 H   0  0  0  0  0  0  0  0  0  0  0  0
  2  1  1  0  0  0  0
  2  7  1  0  0  0  0
  3  2  2  0  0  0  0
  4  3  1  0  0  0  0
  4  5  2  0  0  0  0
  5 35  1  0  0  0  0
  5  6  1  0  0  0  0
  6  7  2  0  0  0  0
  6 36  1  0  0  0  0
  7 37  1  0  0  0  0
  8 38  1  1  0  0  0
  8  4  1  0  0  0  0
  9  8  1  0  0  0  0
 10  9  1  0  0  0  0
 10 12  1  0  0  0  0
 11 10  2  0  0  0  0
 12 14  1  0  0  0  0
 13 12  2  0  0  0  0
 14  8  1  0  0  0  0
 14 15  2  0  0  0  0
 15 16  1  0  0  0  0
 17 15  1  0  0  0  0
 18 17  1  0  0  0  0
 19 18  1  0  0  0  0
 20 19  2  0  0  0  0
 20 21  1  0  0  0  0
 21 17  2  0  0  0  0
 22 20  1  0  0  0  0
 23 22  2  0  0  0  0
 23 24  1  0  0  0  0
 24 25  2  0  0  0  0
 25 19  1  0  0  0  0
 25 26  1  0  0  0  0
 27 45  1  0  0  0  0
 27 44  1  0  0  0  0
 27 26  1  0  0  0  0
 28 47  1  0  0  0  0
 28 46  1  0  0  0  0
 28  9  1  0  0  0  0
 29 28  1  0  0  0  0
 30 51  1  0  0  0  0
 30 50  1  0  0  0  0
 30 29  1  0  0  0  0
 31 30  1  0  0  0  0
 32 54  1  0  0  0  0
 32 31  1  0  0  0  0
 32 55  1  0  0  0  0
 33 56  1  0  0  0  0
 33 57  1  0  0  0  0
 33 31  1  0  0  0  0
 34  3  1  0  0  0  0
 39 21  1  0  0  0  0
 40 22  1  0  0  0  0
 41 23  1  0  0  0  0
 42 24  1  0  0  0  0
 43 27  1  0  0  0  0
 48 29  1  0  0  0  0
 49 29  1  0  0  0  0
 52 31  1  0  0  0  0
 53 32  1  0  0  0  0
 58 33  1  0  0  0  0
M  END
>  <Pose>
1

>  <Score>
-5.75

$$$$
