
 OpenBabel03202210193D

 38 41  0  0  1  0  0  0  0  0999 V2000
   26.1010   62.5990   -4.8200 B   0  0  0  0  0  0  0  0  0  0  0  0
   24.5860   63.2790   -5.7540 C   0  0  0  0  0  0  0  0  0  0  0  0
   24.1370   62.6950   -6.9160 C   0  0  0  0  0  0  0  0  0  0  0  0
   23.0250   63.1700   -7.6270 C   0  0  0  0  0  0  0  0  0  0  0  0
   22.3970   64.2640   -7.1020 C   0  0  0  0  0  0  0  0  0  0  0  0
   22.8600   64.8500   -5.9220 C   0  0  0  0  0  0  0  0  0  0  0  0
   23.9400   64.3690   -5.2520 C   0  0  0  0  0  0  0  0  0  0  0  0
   22.6340   62.5110   -8.8090 N   0  0  0  0  0  0  0  0  0  0  0  0
   23.2170   62.6940  -10.0720 C   0  0  0  0  0  0  0  0  0  0  0  0
   24.2220   62.1080  -10.4990 O   0  0  0  0  0  0  0  0  0  0  0  0
   22.6010   63.6820  -11.0260 C   0  0  2  0  0  0  0  0  0  0  0  0
   21.4530   64.4620  -10.4390 C   0  0  0  0  0  0  0  0  0  0  0  0
   20.4810   63.5290  -11.0270 N   0  0  2  0  0  0  0  0  0  0  0  0
   21.5430   63.1070  -11.9210 C   0  0  0  0  0  0  0  0  0  0  0  0
   19.1140   63.2390  -10.7650 C   0  0  1  0  0  0  0  0  0  0  0  0
   18.1380   64.1750  -10.9020 N   0  0  0  0  0  0  0  0  0  0  0  0
   16.8320   63.8710  -10.6450 C   0  0  0  0  0  0  0  0  0  0  0  0
   16.4710   62.6460  -10.2510 N   0  0  0  0  0  0  0  0  0  0  0  0
   17.3770   61.6790  -10.0950 C   0  0  0  0  0  0  0  0  0  0  0  0
   17.2710   60.3900   -9.7150 N   0  0  0  0  0  0  0  0  0  0  0  0
   18.4890   59.8960   -9.7350 N   0  0  0  0  0  0  0  0  0  0  0  0
   19.3680   60.8300  -10.1150 N   0  0  0  0  0  0  0  0  0  0  0  0
   18.6960   61.9880  -10.3560 C   0  0  0  0  0  0  0  0  0  0  0  0
   16.0620   59.6550   -9.3490 C   0  0  0  0  0  0  0  0  0  0  0  0
   24.6670   61.8290   -7.2940 H   0  0  0  0  0  0  0  0  0  0  0  0
   21.5220   64.7010   -7.5920 H   0  0  0  0  0  0  0  0  0  0  0  0
   22.3160   65.7270   -5.5460 H   0  0  0  0  0  0  0  0  0  0  0  0
   24.2820   64.8430   -4.3340 H   0  0  0  0  0  0  0  0  0  0  0  0
   21.8130   61.8070   -8.7130 H   0  0  0  0  0  0  0  0  0  0  0  0
   23.3390   64.3550  -11.4950 H   0  0  0  0  0  0  0  0  0  0  0  0
   21.3450   64.4070   -9.3360 H   0  0  0  0  0  0  0  0  0  0  0  0
   21.2900   65.4610  -10.8540 H   0  0  0  0  0  0  0  0  0  0  0  0
   21.6400   62.0070  -12.0370 H   0  0  0  0  0  0  0  0  0  0  0  0
   21.4330   63.6080  -12.8940 H   0  0  0  0  0  0  0  0  0  0  0  0
   16.1120   64.6640  -10.7760 H   0  0  0  0  0  0  0  0  0  0  0  0
   16.1560   58.5820   -9.5790 H   0  0  0  0  0  0  0  0  0  0  0  0
   15.1830   60.0160   -9.9600 H   0  0  0  0  0  0  0  0  0  0  0  0
   15.7840   59.8020   -8.3040 H   0  0  0  0  0  0  0  0  0  0  0  0
  2  7  1  0  0  0  0
  2  1  1  0  0  0  0
  3  2  2  0  0  0  0
  4  5  2  0  0  0  0
  4  3  1  0  0  0  0
  5  6  1  0  0  0  0
  6 27  1  0  0  0  0
  6  7  2  0  0  0  0
  7 28  1  0  0  0  0
  8 29  1  0  0  0  0
  8  4  1  0  0  0  0
  9  8  1  0  0  0  0
 10  9  2  0  0  0  0
 11 30  1  6  0  0  0
 11 12  1  0  0  0  0
 11  9  1  0  0  0  0
 12 31  1  0  0  0  0
 13 14  1  6  0  0  0
 13 15  1  0  0  0  0
 13 12  1  0  0  0  0
 14 11  1  0  0  0  0
 15 16  1  6  0  0  0
 15 23  1  0  0  0  0
 16 17  2  0  0  0  0
 17 18  1  0  0  0  0
 18 19  1  0  0  0  0
 19 20  1  0  0  0  0
 20 24  1  0  0  0  0
 21 20  1  0  0  0  0
 22 21  2  0  0  0  0
 23 22  1  0  0  0  0
 23 19  2  0  0  0  0
 24 38  1  0  0  0  0
 25  3  1  0  0  0  0
 26  5  1  0  0  0  0
 32 12  1  0  0  0  0
 33 14  1  0  0  0  0
 34 14  1  0  0  0  0
 35 17  1  0  0  0  0
 36 24  1  0  0  0  0
 37 24  1  0  0  0  0
M  END
>  <Pose>
1

>  <Score>
-8.10

$$$$
