
 OpenBabel03202210193D

 25 28  0  0  1  0  0  0  0  0999 V2000
   23.4140   64.6710   -7.0130 B   0  0  0  0  0  0  0  0  0  0  0  0
   22.5880   64.2100   -8.6680 C   0  0  0  0  0  0  0  0  0  0  0  0
   21.2210   64.3330   -8.8590 C   0  0  0  0  0  0  0  0  0  0  0  0
   20.5600   64.0220  -10.0160 C   0  0  0  0  0  0  0  0  0  0  0  0
   21.3950   63.5480  -11.0500 C   0  0  0  0  0  0  0  0  0  0  0  0
   22.7530   63.4140  -10.8960 C   0  0  0  0  0  0  0  0  0  0  0  0
   23.3570   63.7450   -9.7040 C   0  0  0  0  0  0  0  0  0  0  0  0
   19.1730   64.1330  -10.2520 N   0  0  0  0  0  0  0  0  0  0  0  0
   18.2650   63.0480  -10.2340 C   0  0  1  0  0  0  0  0  0  0  0  0
   18.5220   61.7910   -9.8890 N   0  0  0  0  0  0  0  0  0  0  0  0
   17.6260   60.7900   -9.8860 C   0  0  0  0  0  0  0  0  0  0  0  0
   17.6330   59.4780   -9.5920 N   0  0  0  0  0  0  0  0  0  0  0  0
   16.4620   58.9500   -9.7620 O   0  0  0  0  0  0  0  0  0  0  0  0
   15.6730   59.8820  -10.1650 N   0  0  0  0  0  0  0  0  0  0  0  0
   16.3180   61.0550  -10.2680 C   0  0  0  0  0  0  0  0  0  0  0  0
   16.0100   62.3110  -10.6240 N   0  0  0  0  0  0  0  0  0  0  0  0
   14.8410   62.8070  -11.0220 N   0  0  0  0  0  0  0  0  0  0  0  0
   15.0290   64.1130  -11.2670 N   0  0  0  0  0  0  0  0  0  0  0  0
   16.3080   64.3990  -11.0170 N   0  0  0  0  0  0  0  0  0  0  0  0
   16.9310   63.2880  -10.6160 C   0  0  0  0  0  0  0  0  0  0  0  0
   20.6780   64.7010   -8.0180 H   0  0  0  0  0  0  0  0  0  0  0  0
   20.9560   63.2810  -11.9920 H   0  0  0  0  0  0  0  0  0  0  0  0
   23.3820   63.0450  -11.7030 H   0  0  0  0  0  0  0  0  0  0  0  0
   24.4210   63.6410   -9.5770 H   0  0  0  0  0  0  0  0  0  0  0  0
   18.8170   65.1100  -10.4550 H   0  0  0  0  0  0  0  0  0  0  0  0
  2  1  1  0  0  0  0
  3  2  1  0  0  0  0
  3 21  1  0  0  0  0
  4  3  2  0  0  0  0
  5  6  2  0  0  0  0
  5  4  1  0  0  0  0
  6  7  1  0  0  0  0
  7 24  1  0  0  0  0
  7  2  2  0  0  0  0
  8  4  1  0  0  0  0
  9  8  1  1  0  0  0
  9 10  1  0  0  0  0
 10 11  2  0  0  0  0
 11 12  1  0  0  0  0
 13 12  1  0  0  0  0
 14 13  1  0  0  0  0
 15 14  2  0  0  0  0
 15 11  1  0  0  0  0
 16 20  1  0  0  0  0
 16 15  1  0  0  0  0
 17 16  1  0  0  0  0
 18 17  2  0  0  0  0
 18 19  1  0  0  0  0
 19 20  2  0  0  0  0
 20  9  1  0  0  0  0
 22  5  1  0  0  0  0
 23  6  1  0  0  0  0
 25  8  1  0  0  0  0
M  END
>  <Pose>
1

>  <Score>
-8.23

$$$$
