
 OpenBabel03202210193D

 38 41  0  0  0  0  0  0  0  0999 V2000
   26.8400   62.3190   -5.0470 B   0  0  0  0  0  0  0  0  0  0  0  0
   25.1090   63.0100   -5.4460 C   0  0  0  0  0  0  0  0  0  0  0  0
   24.6790   63.1460   -6.7700 C   0  0  0  0  0  0  0  0  0  0  0  0
   23.4310   63.6440   -7.0550 C   0  0  0  0  0  0  0  0  0  0  0  0
   22.6210   64.0030   -6.0000 C   0  0  0  0  0  0  0  0  0  0  0  0
   23.0400   63.8720   -4.6710 C   0  0  0  0  0  0  0  0  0  0  0  0
   24.2920   63.3710   -4.3970 C   0  0  0  0  0  0  0  0  0  0  0  0
   22.9430   63.8030   -8.3950 N   0  0  0  0  0  0  0  0  0  0  0  0
   23.3660   64.5960   -9.3430 N   0  0  0  0  0  0  0  0  0  0  0  0
   22.6430   64.4410  -10.4400 N   0  0  0  0  0  0  0  0  0  0  0  0
   21.7000   63.4990  -10.1960 C   0  0  0  0  0  0  0  0  0  0  0  0
   21.9080   63.1070   -8.8930 C   0  0  0  0  0  0  0  0  0  0  0  0
   20.6790   62.9980  -11.1070 C   0  0  0  0  0  0  0  0  0  0  0  0
   21.0080   62.1200  -11.9430 O   0  0  0  0  0  0  0  0  0  0  0  0
   19.3450   63.4540  -11.0890 N   0  0  0  0  0  0  0  0  0  0  0  0
   18.6180   63.8090   -9.8910 C   0  0  0  0  0  0  0  0  0  0  0  0
   17.1440   63.9310  -10.1670 C   0  0  0  0  0  0  0  0  0  0  0  0
   16.2360   62.9380  -10.3220 N   0  0  0  0  0  0  0  0  0  0  0  0
   15.0300   63.4690  -10.5510 C   0  0  0  0  0  0  0  0  0  0  0  0
   15.2060   64.8120  -10.5380 N   0  0  0  0  0  0  0  0  0  0  0  0
   16.4740   65.0890  -10.3070 N   0  0  0  0  0  0  0  0  0  0  0  0
   13.9890   62.3930  -10.7310 C   0  0  0  0  0  0  0  0  0  0  0  0
   14.8660   61.1920  -11.0150 C   0  0  0  0  0  0  0  0  0  0  0  0
   16.1810   61.4860  -10.3180 C   0  0  0  0  0  0  0  0  0  0  0  0
   25.3140   62.8640   -7.5950 H   0  0  0  0  0  0  0  0  0  0  0  0
   21.6400   64.3950   -6.2170 H   0  0  0  0  0  0  0  0  0  0  0  0
   22.3900   64.1600   -3.8410 H   0  0  0  0  0  0  0  0  0  0  0  0
   24.6230   63.2670   -3.3710 H   0  0  0  0  0  0  0  0  0  0  0  0
   21.3230   62.3590   -8.3690 H   0  0  0  0  0  0  0  0  0  0  0  0
   18.8470   63.5410  -12.0030 H   0  0  0  0  0  0  0  0  0  0  0  0
   18.8060   63.0770   -9.0840 H   0  0  0  0  0  0  0  0  0  0  0  0
   18.9420   64.8400   -9.5610 H   0  0  0  0  0  0  0  0  0  0  0  0
   13.3140   62.6450  -11.5520 H   0  0  0  0  0  0  0  0  0  0  0  0
   13.4650   62.2130   -9.7580 H   0  0  0  0  0  0  0  0  0  0  0  0
   14.4730   60.2620  -10.5590 H   0  0  0  0  0  0  0  0  0  0  0  0
   14.9780   61.1270  -12.1170 H   0  0  0  0  0  0  0  0  0  0  0  0
   16.2250   61.0410   -9.3120 H   0  0  0  0  0  0  0  0  0  0  0  0
   16.9850   61.0250  -10.9250 H   0  0  0  0  0  0  0  0  0  0  0  0
  2  1  1  0  0  0  0
  2  7  1  0  0  0  0
  3  2  2  0  0  0  0
  4  3  1  0  0  0  0
  4  5  2  0  0  0  0
  5  6  1  0  0  0  0
  6  7  2  0  0  0  0
  6 27  1  0  0  0  0
  7 28  1  0  0  0  0
  8  4  1  0  0  0  0
  9  8  1  0  0  0  0
 10 11  1  0  0  0  0
 10  9  2  0  0  0  0
 11 12  2  0  0  0  0
 12  8  1  0  0  0  0
 12 29  1  0  0  0  0
 13 15  1  0  0  0  0
 13 11  1  0  0  0  0
 14 13  2  0  0  0  0
 15 16  1  0  0  0  0
 16 32  1  0  0  0  0
 16 31  1  0  0  0  0
 17 16  1  0  0  0  0
 18 24  1  0  0  0  0
 18 17  1  0  0  0  0
 19 20  2  0  0  0  0
 19 18  1  0  0  0  0
 20 21  1  0  0  0  0
 21 17  2  0  0  0  0
 22 19  1  0  0  0  0
 22 34  1  0  0  0  0
 23 22  1  0  0  0  0
 23 35  1  0  0  0  0
 23 24  1  0  0  0  0
 24 37  1  0  0  0  0
 25  3  1  0  0  0  0
 26  5  1  0  0  0  0
 30 15  1  0  0  0  0
 33 22  1  0  0  0  0
 36 23  1  0  0  0  0
 38 24  1  0  0  0  0
M  END
>  <Pose>
1

>  <Score>
-7.43

$$$$
