
 OpenBabel03202210193D

 37 40  0  0  1  0  0  0  0  0999 V2000
   27.3730   61.9010   -5.1890 B   0  0  0  0  0  0  0  0  0  0  0  0
   25.6700   62.7150   -4.9140 C   0  0  0  0  0  0  0  0  0  0  0  0
   24.8270   63.0370   -5.9470 C   0  0  0  0  0  0  0  0  0  0  0  0
   23.5780   63.6300   -5.7740 C   0  0  0  0  0  0  0  0  0  0  0  0
   23.2180   63.8860   -4.4600 C   0  0  0  0  0  0  0  0  0  0  0  0
   24.0550   63.5680   -3.4180 C   0  0  0  0  0  0  0  0  0  0  0  0
   25.3000   62.9750   -3.6100 C   0  0  0  0  0  0  0  0  0  0  0  0
   22.7420   63.9460   -6.8690 N   0  0  0  0  0  0  0  0  0  0  0  0
   22.4230   65.2330   -7.4340 C   0  0  0  0  0  0  0  0  0  0  0  0
   22.5380   66.3220   -6.8040 O   0  0  0  0  0  0  0  0  0  0  0  0
   21.9650   65.0530   -8.8100 C   0  0  2  0  0  0  0  0  0  0  0  0
   20.9750   65.8760   -9.2720 O   0  0  0  0  0  0  0  0  0  0  0  0
   20.2700   65.0340  -10.1280 N   0  0  0  0  0  0  0  0  0  0  0  0
   20.2070   63.7590   -9.5340 C   0  0  0  0  0  0  0  0  0  0  0  0
   21.2490   63.7280   -8.6930 C   0  0  0  0  0  0  0  0  0  0  0  0
   21.9990   63.0090   -7.6690 C   0  0  0  0  0  0  0  0  0  0  0  0
   21.9940   61.7710   -7.5100 O   0  0  0  0  0  0  0  0  0  0  0  0
   19.2760   62.6700   -9.7870 C   0  0  0  0  0  0  0  0  0  0  0  0
   17.9080   62.8340  -10.0240 C   0  0  0  0  0  0  0  0  0  0  0  0
   17.3780   61.6460  -10.2390 N   0  0  0  0  0  0  0  0  0  0  0  0
   18.3420   60.7330  -10.1500 N   0  0  0  0  0  0  0  0  0  0  0  0
   19.4930   61.3240   -9.8770 C   0  0  0  0  0  0  0  0  0  0  0  0
   15.9740   61.3500  -10.5210 C   0  0  0  0  0  0  0  0  0  0  0  0
   17.1650   64.1160  -10.0080 C   0  0  0  0  0  0  0  0  0  0  0  0
   25.1100   62.8420   -6.9760 H   0  0  0  0  0  0  0  0  0  0  0  0
   22.2530   64.3470   -4.2770 H   0  0  0  0  0  0  0  0  0  0  0  0
   23.7980   63.7600   -2.3680 H   0  0  0  0  0  0  0  0  0  0  0  0
   25.9480   62.7330   -2.7850 H   0  0  0  0  0  0  0  0  0  0  0  0
   22.8160   64.9660   -9.5220 H   0  0  0  0  0  0  0  0  0  0  0  0
   19.8640   65.2990  -11.0350 H   0  0  0  0  0  0  0  0  0  0  0  0
   20.4430   60.8400   -9.7470 H   0  0  0  0  0  0  0  0  0  0  0  0
   15.9020   60.7410  -11.4590 H   0  0  0  0  0  0  0  0  0  0  0  0
   15.4680   60.8360   -9.6870 H   0  0  0  0  0  0  0  0  0  0  0  0
   15.4430   62.3160  -10.7110 H   0  0  0  0  0  0  0  0  0  0  0  0
   17.7950   64.9410   -9.5930 H   0  0  0  0  0  0  0  0  0  0  0  0
   16.8110   64.3080  -11.0360 H   0  0  0  0  0  0  0  0  0  0  0  0
   16.2910   63.9590   -9.3530 H   0  0  0  0  0  0  0  0  0  0  0  0
  1  2  1  0  0  0  0
  2  7  1  0  0  0  0
  3  4  1  0  0  0  0
  3  2  2  0  0  0  0
  4  5  2  0  0  0  0
  5 26  1  0  0  0  0
  5  6  1  0  0  0  0
  6 27  1  0  0  0  0
  7  6  2  0  0  0  0
  7 28  1  0  0  0  0
  8  4  1  0  0  0  0
  9  8  1  0  0  0  0
  9 10  2  0  0  0  0
 11 29  1  6  0  0  0
 11 15  1  0  0  0  0
 11  9  1  0  0  0  0
 12 11  1  0  0  0  0
 13 14  1  0  0  0  0
 13 12  1  0  0  0  0
 14 15  2  0  0  0  0
 15 16  1  0  0  0  0
 16 17  2  0  0  0  0
 16  8  1  0  0  0  0
 18 14  1  0  0  0  0
 19 24  1  0  0  0  0
 19 18  2  0  0  0  0
 20 21  1  0  0  0  0
 20 19  1  0  0  0  0
 21 22  2  0  0  0  0
 22 18  1  0  0  0  0
 22 31  1  0  0  0  0
 23 20  1  0  0  0  0
 23 33  1  0  0  0  0
 24 35  1  0  0  0  0
 24 37  1  0  0  0  0
 25  3  1  0  0  0  0
 30 13  1  0  0  0  0
 32 23  1  0  0  0  0
 34 23  1  0  0  0  0
 36 24  1  0  0  0  0
M  END
>  <Pose>
1

>  <Score>
-7.52

$$$$
