
 OpenBabel03202210193D

 52 55  0  0  1  0  0  0  0  0999 V2000
   23.8920   61.8380   -1.5140 B   0  0  0  0  0  0  0  0  0  0  0  0
   24.7830   62.3170   -3.1090 C   0  0  0  0  0  0  0  0  0  0  0  0
   24.0570   62.8890   -4.1480 C   0  0  0  0  0  0  0  0  0  0  0  0
   24.6390   63.2660   -5.3440 C   0  0  0  0  0  0  0  0  0  0  0  0
   25.9940   63.0410   -5.4480 C   0  0  0  0  0  0  0  0  0  0  0  0
   26.7750   62.4790   -4.4590 C   0  0  0  0  0  0  0  0  0  0  0  0
   26.1520   62.1190   -3.2840 C   0  0  0  0  0  0  0  0  0  0  0  0
   23.8480   63.8500   -6.3590 N   0  0  0  0  0  0  0  0  0  0  0  0
   23.1300   63.1040   -7.3820 C   0  0  0  0  0  0  0  0  0  0  0  0
   21.7850   63.8480   -7.2420 C   0  0  1  0  0  0  0  0  0  0  0  0
   22.3190   65.2560   -7.5280 C   0  0  0  0  0  0  0  0  0  0  0  0
   23.5290   65.2030   -6.6610 C   0  0  0  0  0  0  0  0  0  0  0  0
   24.1710   66.2000   -6.2580 O   0  0  0  0  0  0  0  0  0  0  0  0
   20.7970   63.3850   -8.1960 C   0  0  0  0  0  0  0  0  0  0  0  0
   19.9250   62.5710   -7.8020 O   0  0  0  0  0  0  0  0  0  0  0  0
   20.8320   63.8520   -9.5270 N   0  0  0  0  0  0  0  0  0  0  0  0
   19.9410   64.8850  -10.0360 C   0  0  0  0  0  0  0  0  0  0  0  0
   19.7440   64.6700  -11.5320 C   0  0  0  0  0  0  0  0  0  0  0  0
   19.9050   63.2850  -11.9260 N   0  0  0  0  0  0  0  0  0  0  0  0
   21.2660   62.9090  -11.7710 C   0  0  0  0  0  0  0  0  0  0  0  0
   21.8220   63.2510  -10.4310 C   0  0  0  0  0  0  0  0  0  0  0  0
   18.9250   62.4370  -11.3460 C   0  0  0  0  0  0  0  0  0  0  0  0
   17.5520   62.5780  -11.9520 C   0  0  0  0  0  0  0  0  0  0  0  0
   16.6420   63.3610  -11.1660 N   0  0  0  0  0  0  0  0  0  0  0  0
   16.8270   64.5750  -10.6440 C   0  0  0  0  0  0  0  0  0  0  0  0
   15.7210   64.9480   -9.9660 N   0  0  0  0  0  0  0  0  0  0  0  0
   14.8230   63.9600  -10.0570 C   0  0  0  0  0  0  0  0  0  0  0  0
   15.4100   62.9710  -10.8100 C   0  0  0  0  0  0  0  0  0  0  0  0
   22.9990   63.0520   -4.0330 H   0  0  0  0  0  0  0  0  0  0  0  0
   26.4850   63.3200   -6.3670 H   0  0  0  0  0  0  0  0  0  0  0  0
   27.8380   62.3090   -4.5560 H   0  0  0  0  0  0  0  0  0  0  0  0
   26.7200   61.6720   -2.4710 H   0  0  0  0  0  0  0  0  0  0  0  0
   23.0070   62.0370   -7.1250 H   0  0  0  0  0  0  0  0  0  0  0  0
   23.5820   63.2910   -8.3620 H   0  0  0  0  0  0  0  0  0  0  0  0
   21.5300   63.7680   -6.1830 H   0  0  0  0  0  0  0  0  0  0  0  0
   22.5590   65.3550   -8.6020 H   0  0  0  0  0  0  0  0  0  0  0  0
   21.6020   66.0240   -7.1930 H   0  0  0  0  0  0  0  0  0  0  0  0
   20.4310   65.8580   -9.8340 H   0  0  0  0  0  0  0  0  0  0  0  0
   18.9530   64.9010   -9.5800 H   0  0  0  0  0  0  0  0  0  0  0  0
   20.4890   65.2690  -12.0550 H   0  0  0  0  0  0  0  0  0  0  0  0
   18.7440   65.0190  -11.8700 H   0  0  0  0  0  0  0  0  0  0  0  0
   21.3920   61.8190  -11.9800 H   0  0  0  0  0  0  0  0  0  0  0  0
   21.8400   63.4560  -12.5710 H   0  0  0  0  0  0  0  0  0  0  0  0
   22.2610   62.3390   -9.9710 H   0  0  0  0  0  0  0  0  0  0  0  0
   22.6550   64.0020  -10.5680 H   0  0  0  0  0  0  0  0  0  0  0  0
   19.1850   61.3530  -11.4380 H   0  0  0  0  0  0  0  0  0  0  0  0
   18.8360   62.6340  -10.2360 H   0  0  0  0  0  0  0  0  0  0  0  0
   17.6420   62.9640  -13.0010 H   0  0  0  0  0  0  0  0  0  0  0  0
   17.1620   61.5260  -12.0840 H   0  0  0  0  0  0  0  0  0  0  0  0
   17.6980   65.1960  -10.7270 H   0  0  0  0  0  0  0  0  0  0  0  0
   13.8240   63.9690   -9.6060 H   0  0  0  0  0  0  0  0  0  0  0  0
   14.8970   62.0360  -11.0460 H   0  0  0  0  0  0  0  0  0  0  0  0
  2  1  1  0  0  0  0
  3 29  1  0  0  0  0
  3  2  2  0  0  0  0
  4  3  1  0  0  0  0
  5  4  2  0  0  0  0
  5  6  1  0  0  0  0
  6  7  2  0  0  0  0
  7  2  1  0  0  0  0
  7 32  1  0  0  0  0
  8  4  1  0  0  0  0
  9 10  1  0  0  0  0
  9 33  1  0  0  0  0
  9  8  1  0  0  0  0
 10 35  1  1  0  0  0
 11 10  1  0  0  0  0
 11 37  1  0  0  0  0
 11 12  1  0  0  0  0
 12  8  1  0  0  0  0
 12 13  2  0  0  0  0
 14 15  2  0  0  0  0
 14 10  1  0  0  0  0
 16 14  1  0  0  0  0
 17 38  1  0  0  0  0
 17 39  1  0  0  0  0
 17 16  1  0  0  0  0
 18 17  1  0  0  0  0
 19 20  1  0  0  0  0
 19 18  1  0  0  0  0
 19 22  1  0  0  0  0
 20 21  1  0  0  0  0
 21 44  1  0  0  0  0
 21 16  1  0  0  0  0
 22 47  1  0  0  0  0
 23 22  1  0  0  0  0
 23 24  1  0  0  0  0
 24 28  1  0  0  0  0
 24 25  1  0  0  0  0
 25 26  2  0  0  0  0
 27 26  1  0  0  0  0
 27 51  1  0  0  0  0
 28 27  2  0  0  0  0
 30  5  1  0  0  0  0
 31  6  1  0  0  0  0
 34  9  1  0  0  0  0
 36 11  1  0  0  0  0
 40 18  1  0  0  0  0
 41 18  1  0  0  0  0
 42 20  1  0  0  0  0
 43 20  1  0  0  0  0
 45 21  1  0  0  0  0
 46 22  1  0  0  0  0
 48 23  1  0  0  0  0
 49 23  1  0  0  0  0
 50 25  1  0  0  0  0
 52 28  1  0  0  0  0
M  END
>  <Pose>
1

>  <Score>
-5.32

$$$$
