
 OpenBabel03202210193D

 41 44  0  0  1  0  0  0  0  0999 V2000
   14.5610   61.5920  -10.9810 B   0  0  0  0  0  0  0  0  0  0  0  0
   16.2670   62.3490  -10.5800 C   0  0  0  0  0  0  0  0  0  0  0  0
   17.3300   61.5560  -10.2070 C   0  0  0  0  0  0  0  0  0  0  0  0
   18.5770   62.0550   -9.9090 C   0  0  0  0  0  0  0  0  0  0  0  0
   18.8110   63.4040   -9.9750 C   0  0  0  0  0  0  0  0  0  0  0  0
   17.7490   64.2120  -10.3490 C   0  0  0  0  0  0  0  0  0  0  0  0
   16.5050   63.7040  -10.6460 C   0  0  0  0  0  0  0  0  0  0  0  0
   20.0980   63.9870   -9.6680 C   0  0  0  0  0  0  0  0  0  0  0  0
   20.2630   65.2300   -9.8950 O   0  0  0  0  0  0  0  0  0  0  0  0
   21.2500   63.2640   -9.1120 C   0  0  1  0  0  0  0  0  0  0  0  0
   22.4900   63.6670   -9.7550 N   0  0  0  0  0  0  0  0  0  0  0  0
   22.8660   64.4580  -10.8220 N   0  0  0  0  0  0  0  0  0  0  0  0
   24.0890   64.7360  -11.1070 C   0  0  0  0  0  0  0  0  0  0  0  0
   25.1530   64.1970  -10.2910 C   0  0  0  0  0  0  0  0  0  0  0  0
   24.8770   63.4140   -9.2750 C   0  0  0  0  0  0  0  0  0  0  0  0
   23.5180   63.0420   -8.9270 C   0  0  1  0  0  0  0  0  0  0  0  0
   23.0590   63.4190   -7.5630 C   0  0  2  0  0  0  0  0  0  0  0  0
   21.5470   63.6450   -7.6780 C   0  0  1  0  0  0  0  0  0  0  0  0
   21.3840   65.0740   -7.4200 C   0  0  0  0  0  0  0  0  0  0  0  0
   20.3470   65.7500   -7.6680 O   0  0  0  0  0  0  0  0  0  0  0  0
   22.5770   65.5760   -6.8490 N   0  0  0  0  0  0  0  0  0  0  0  0
   23.6480   64.6660   -7.0600 C   0  0  0  0  0  0  0  0  0  0  0  0
   24.8680   64.8780   -6.8580 O   0  0  0  0  0  0  0  0  0  0  0  0
   22.7130   66.8290   -6.1450 C   0  0  0  0  0  0  0  0  0  0  0  0
   22.1750   68.0040   -6.9040 C   0  0  0  0  0  0  0  0  0  0  0  0
   17.1880   60.4710  -10.1410 H   0  0  0  0  0  0  0  0  0  0  0  0
   19.4060   61.3980   -9.6180 H   0  0  0  0  0  0  0  0  0  0  0  0
   17.9050   65.3010  -10.4110 H   0  0  0  0  0  0  0  0  0  0  0  0
   15.7060   64.3670  -10.9320 H   0  0  0  0  0  0  0  0  0  0  0  0
   21.0660   62.1940   -9.1610 H   0  0  0  0  0  0  0  0  0  0  0  0
   24.3660   65.3770  -11.9580 H   0  0  0  0  0  0  0  0  0  0  0  0
   26.1850   64.4580  -10.5420 H   0  0  0  0  0  0  0  0  0  0  0  0
   25.6910   63.0280   -8.6700 H   0  0  0  0  0  0  0  0  0  0  0  0
   23.4010   61.9350   -9.1140 H   0  0  0  0  0  0  0  0  0  0  0  0
   23.2970   62.6220   -6.8240 H   0  0  0  0  0  0  0  0  0  0  0  0
   21.0920   62.9920   -6.9270 H   0  0  0  0  0  0  0  0  0  0  0  0
   23.7720   67.0500   -5.8780 H   0  0  0  0  0  0  0  0  0  0  0  0
   22.1660   66.8020   -5.1640 H   0  0  0  0  0  0  0  0  0  0  0  0
   22.2170   67.8590   -8.0060 H   0  0  0  0  0  0  0  0  0  0  0  0
   21.1400   68.2550   -6.5650 H   0  0  0  0  0  0  0  0  0  0  0  0
   22.7850   68.9190   -6.6830 H   0  0  0  0  0  0  0  0  0  0  0  0
  1  2  1  0  0  0  0
  2  3  1  0  0  0  0
  3 26  1  0  0  0  0
  3  4  2  0  0  0  0
  4 27  1  0  0  0  0
  5  4  1  0  0  0  0
  5  8  1  0  0  0  0
  6  5  2  0  0  0  0
  7  2  2  0  0  0  0
  7  6  1  0  0  0  0
  8 10  1  0  0  0  0
  9  8  2  0  0  0  0
 10 30  1  6  0  0  0
 10 18  1  0  0  0  0
 11 10  1  0  0  0  0
 11 16  1  0  0  0  0
 12 11  1  0  0  0  0
 13 12  2  0  0  0  0
 13 14  1  0  0  0  0
 14 15  2  0  0  0  0
 15 16  1  0  0  0  0
 15 33  1  0  0  0  0
 16 34  1  6  0  0  0
 16 17  1  0  0  0  0
 17 22  1  0  0  0  0
 17 35  1  1  0  0  0
 18 17  1  0  0  0  0
 18 19  1  0  0  0  0
 18 36  1  1  0  0  0
 19 21  1  0  0  0  0
 20 19  2  0  0  0  0
 21 24  1  0  0  0  0
 22 23  2  0  0  0  0
 22 21  1  0  0  0  0
 24 37  1  0  0  0  0
 24 38  1  0  0  0  0
 25 41  1  0  0  0  0
 25 40  1  0  0  0  0
 25 24  1  0  0  0  0
 28  6  1  0  0  0  0
 29  7  1  0  0  0  0
 31 13  1  0  0  0  0
 32 14  1  0  0  0  0
 39 25  1  0  0  0  0
M  END
>  <Pose>
1

>  <Score>
-5.05

$$$$
