
 OpenBabel03202210193D

 42 45  0  0  1  0  0  0  0  0999 V2000
   25.7630   62.4760   -3.6910 B   0  0  0  0  0  0  0  0  0  0  0  0
   24.5830   63.1270   -5.0270 C   0  0  0  0  0  0  0  0  0  0  0  0
   23.4790   63.8770   -4.6620 C   0  0  0  0  0  0  0  0  0  0  0  0
   22.5910   64.3740   -5.5910 C   0  0  0  0  0  0  0  0  0  0  0  0
   22.7790   64.1370   -6.9340 C   0  0  0  0  0  0  0  0  0  0  0  0
   23.8640   63.4000   -7.3010 C   0  0  0  0  0  0  0  0  0  0  0  0
   24.7710   62.8890   -6.3760 C   0  0  0  0  0  0  0  0  0  0  0  0
   21.8080   64.6840   -7.9030 C   0  0  0  0  0  0  0  0  0  0  0  0
   21.4900   65.8890   -7.8270 O   0  0  0  0  0  0  0  0  0  0  0  0
   21.2350   63.8690   -8.9110 N   0  0  0  0  0  0  0  0  0  0  0  0
   21.0240   64.4030  -10.2170 C   0  0  2  0  0  0  0  0  0  0  0  0
   19.7440   65.1960  -10.3400 C   0  0  0  0  0  0  0  0  0  0  0  0
   18.7480   64.1700  -10.5940 N   0  0  0  0  0  0  0  0  0  0  0  0
   19.3920   63.0290  -11.2150 C   0  0  1  0  0  0  0  0  0  0  0  0
   20.8670   63.2500  -11.1770 C   0  0  0  0  0  0  0  0  0  0  0  0
   18.9620   61.8320  -10.4500 C   0  0  0  0  0  0  0  0  0  0  0  0
   19.7470   60.9310  -10.0720 O   0  0  0  0  0  0  0  0  0  0  0  0
   17.5970   61.6710  -10.1130 N   0  0  0  0  0  0  0  0  0  0  0  0
   16.6960   62.7950   -9.9590 C   0  0  2  0  0  0  0  0  0  0  0  0
   15.5580   62.3660  -10.8300 C   0  0  0  0  0  0  0  0  0  0  0  0
   15.4550   60.8760  -10.4850 C   0  0  0  0  0  0  0  0  0  0  0  0
   16.8040   60.5000   -9.8640 C   0  0  0  0  0  0  0  0  0  0  0  0
   17.3480   64.0630  -10.3730 C   0  0  0  0  0  0  0  0  0  0  0  0
   16.6400   65.1140  -10.5420 O   0  0  0  0  0  0  0  0  0  0  0  0
   23.2850   64.0920   -3.6240 H   0  0  0  0  0  0  0  0  0  0  0  0
   21.7180   64.9670   -5.2910 H   0  0  0  0  0  0  0  0  0  0  0  0
   24.0590   63.1850   -8.3200 H   0  0  0  0  0  0  0  0  0  0  0  0
   25.6290   62.3060   -6.6820 H   0  0  0  0  0  0  0  0  0  0  0  0
   20.9550   62.8710   -8.7340 H   0  0  0  0  0  0  0  0  0  0  0  0
   21.9050   65.0070  -10.5100 H   0  0  0  0  0  0  0  0  0  0  0  0
   19.8400   65.8750  -11.2000 H   0  0  0  0  0  0  0  0  0  0  0  0
   19.5610   65.7800   -9.4430 H   0  0  0  0  0  0  0  0  0  0  0  0
   19.0420   62.8770  -12.2700 H   0  0  0  0  0  0  0  0  0  0  0  0
   21.4680   62.3800  -10.9130 H   0  0  0  0  0  0  0  0  0  0  0  0
   21.2200   63.6240  -12.1780 H   0  0  0  0  0  0  0  0  0  0  0  0
   16.3320   62.8970   -8.9160 H   0  0  0  0  0  0  0  0  0  0  0  0
   14.6440   62.9030  -10.5520 H   0  0  0  0  0  0  0  0  0  0  0  0
   15.8080   62.4980  -11.9170 H   0  0  0  0  0  0  0  0  0  0  0  0
   15.2450   60.2750  -11.3930 H   0  0  0  0  0  0  0  0  0  0  0  0
   14.6850   60.6930   -9.7220 H   0  0  0  0  0  0  0  0  0  0  0  0
   16.6950   60.2910   -8.7820 H   0  0  0  0  0  0  0  0  0  0  0  0
   17.2040   59.5870  -10.3450 H   0  0  0  0  0  0  0  0  0  0  0  0
  2  3  1  0  0  0  0
  2  1  1  0  0  0  0
  3 25  1  0  0  0  0
  4 26  1  0  0  0  0
  4  3  2  0  0  0  0
  5  4  1  0  0  0  0
  6  5  2  0  0  0  0
  6  7  1  0  0  0  0
  7  2  2  0  0  0  0
  8  9  2  0  0  0  0
  8  5  1  0  0  0  0
 10 29  1  0  0  0  0
 10  8  1  0  0  0  0
 11 30  1  6  0  0  0
 11 10  1  0  0  0  0
 12 11  1  0  0  0  0
 12 32  1  0  0  0  0
 13 23  1  0  0  0  0
 13 12  1  0  0  0  0
 14 33  1  6  0  0  0
 14 15  1  0  0  0  0
 14 13  1  0  0  0  0
 14 16  1  0  0  0  0
 15 34  1  0  0  0  0
 15 11  1  0  0  0  0
 16 18  1  0  0  0  0
 16 17  2  0  0  0  0
 18 19  1  0  0  0  0
 18 22  1  0  0  0  0
 19 36  1  1  0  0  0
 20 37  1  0  0  0  0
 20 21  1  0  0  0  0
 20 19  1  0  0  0  0
 21 22  1  0  0  0  0
 21 40  1  0  0  0  0
 22 41  1  0  0  0  0
 23 19  1  0  0  0  0
 24 23  2  0  0  0  0
 27  6  1  0  0  0  0
 28  7  1  0  0  0  0
 31 12  1  0  0  0  0
 35 15  1  0  0  0  0
 38 20  1  0  0  0  0
 39 21  1  0  0  0  0
 42 22  1  0  0  0  0
M  END
>  <Pose>
1

>  <Score>
-6.88

$$$$
