
 OpenBabel03202210193D

 49 52  0  0  1  0  0  0  0  0999 V2000
   18.6540   60.8810  -12.5260 B   0  0  0  0  0  0  0  0  0  0  0  0
   19.5500   62.1450  -11.4180 C   0  0  0  0  0  0  0  0  0  0  0  0
   19.0650   62.5520  -10.1940 C   0  0  0  0  0  0  0  0  0  0  0  0
   19.7260   63.4690   -9.4060 C   0  0  0  0  0  0  0  0  0  0  0  0
   20.9390   64.0330   -9.8230 C   0  0  0  0  0  0  0  0  0  0  0  0
   21.4100   63.6150  -11.0500 C   0  0  0  0  0  0  0  0  0  0  0  0
   20.7420   62.6890  -11.8480 C   0  0  0  0  0  0  0  0  0  0  0  0
   21.6280   64.9720   -8.9560 C   0  0  0  0  0  0  0  0  0  0  0  0
   22.5720   64.5540   -8.1540 C   0  0  0  0  0  0  0  0  0  0  0  0
   23.3950   65.3480   -7.1860 C   0  0  2  0  0  0  0  0  0  0  0  0
   23.4800   64.4140   -6.0700 N   0  0  0  0  0  0  0  0  0  0  0  0
   23.6620   63.1270   -6.6950 C   0  0  0  0  0  0  0  0  0  0  0  0
   24.2150   62.1560   -6.1540 O   0  0  0  0  0  0  0  0  0  0  0  0
   23.0830   63.1950   -8.0460 C   0  0  0  0  0  0  0  0  0  0  0  0
   23.0400   62.2870   -8.9170 O   0  0  0  0  0  0  0  0  0  0  0  0
   23.4110   64.7240   -4.6710 C   0  0  0  0  0  0  0  0  0  0  0  0
   24.7870   64.9580   -4.0690 C   0  0  0  0  0  0  0  0  0  0  0  0
   25.0320   63.8610   -3.0340 C   0  0  0  0  0  0  0  0  0  0  0  0
   25.7600   62.7430   -3.6020 N   0  0  0  0  0  0  0  0  0  0  0  0
   25.6440   61.4340   -3.2760 C   0  0  0  0  0  0  0  0  0  0  0  0
   26.4930   60.7200   -4.0340 N   0  0  0  0  0  0  0  0  0  0  0  0
   27.1660   61.5420   -4.8530 C   0  0  0  0  0  0  0  0  0  0  0  0
   26.6920   62.8060   -4.5660 C   0  0  0  0  0  0  0  0  0  0  0  0
   22.7100   66.6150   -6.8300 C   0  0  0  0  0  0  0  0  0  0  0  0
   21.3960   66.5650   -6.5580 N   0  0  0  0  0  0  0  0  0  0  0  0
   20.6780   67.6370   -6.2160 C   0  0  0  0  0  0  0  0  0  0  0  0
   21.3220   68.8500   -6.1400 C   0  0  0  0  0  0  0  0  0  0  0  0
   22.6670   68.9480   -6.4100 C   0  0  0  0  0  0  0  0  0  0  0  0
   23.3590   67.8170   -6.7570 C   0  0  0  0  0  0  0  0  0  0  0  0
   21.3000   66.3420   -8.9550 O   0  0  0  0  0  0  0  0  0  0  0  0
   18.1260   62.1140   -9.8720 H   0  0  0  0  0  0  0  0  0  0  0  0
   19.3410   63.7870   -8.4410 H   0  0  0  0  0  0  0  0  0  0  0  0
   22.3520   64.0070  -11.4080 H   0  0  0  0  0  0  0  0  0  0  0  0
   21.1680   62.3940  -12.8170 H   0  0  0  0  0  0  0  0  0  0  0  0
   24.3900   65.5720   -7.6000 H   0  0  0  0  0  0  0  0  0  0  0  0
   23.0210   63.8140   -4.1400 H   0  0  0  0  0  0  0  0  0  0  0  0
   22.7760   65.5630   -4.3970 H   0  0  0  0  0  0  0  0  0  0  0  0
   25.5950   64.8830   -4.8050 H   0  0  0  0  0  0  0  0  0  0  0  0
   24.8160   65.9140   -3.5170 H   0  0  0  0  0  0  0  0  0  0  0  0
   25.6060   64.3290   -2.2020 H   0  0  0  0  0  0  0  0  0  0  0  0
   24.0560   63.5290   -2.5860 H   0  0  0  0  0  0  0  0  0  0  0  0
   24.9850   61.0060   -2.5350 H   0  0  0  0  0  0  0  0  0  0  0  0
   26.6270   59.6700   -4.0060 H   0  0  0  0  0  0  0  0  0  0  0  0
   27.9200   61.3080   -5.5890 H   0  0  0  0  0  0  0  0  0  0  0  0
   27.0190   63.7310   -5.0470 H   0  0  0  0  0  0  0  0  0  0  0  0
   19.6060   67.5860   -5.9950 H   0  0  0  0  0  0  0  0  0  0  0  0
   20.7440   69.7380   -5.8610 H   0  0  0  0  0  0  0  0  0  0  0  0
   23.1820   69.8970   -6.3530 H   0  0  0  0  0  0  0  0  0  0  0  0
   24.4270   67.8270   -6.9750 H   0  0  0  0  0  0  0  0  0  0  0  0
  1  2  1  0  0  0  0
  2  3  1  0  0  0  0
  3 31  1  0  0  0  0
  3  4  2  0  0  0  0
  4 32  1  0  0  0  0
  5  4  1  0  0  0  0
  5  8  1  0  0  0  0
  6  5  2  0  0  0  0
  7  2  2  0  0  0  0
  7  6  1  0  0  0  0
  8 30  1  0  0  0  0
  8  9  2  0  0  0  0
  9 14  1  0  0  0  0
  9 10  1  0  0  0  0
 10 35  1  6  0  0  0
 10 24  1  0  0  0  0
 10 11  1  0  0  0  0
 11 16  1  0  0  0  0
 12 13  2  0  0  0  0
 12 11  1  0  0  0  0
 14 12  1  0  0  0  0
 15 14  2  0  0  0  0
 16 37  1  0  0  0  0
 16 36  1  0  0  0  0
 16 17  1  0  0  0  0
 17 39  1  0  0  0  0
 17 18  1  0  0  0  0
 18 41  1  0  0  0  0
 18 40  1  0  0  0  0
 19 20  1  0  0  0  0
 19 18  1  0  0  0  0
 20 42  1  0  0  0  0
 21 43  1  0  0  0  0
 21 20  1  0  0  0  0
 22 23  2  0  0  0  0
 22 21  1  0  0  0  0
 23 19  1  0  0  0  0
 24 29  2  0  0  0  0
 24 25  1  0  0  0  0
 25 26  2  0  0  0  0
 26 27  1  0  0  0  0
 26 46  1  0  0  0  0
 27 47  1  0  0  0  0
 28 48  1  0  0  0  0
 28 27  2  0  0  0  0
 29 28  1  0  0  0  0
 33  6  1  0  0  0  0
 34  7  1  0  0  0  0
 38 17  1  0  0  0  0
 44 22  1  0  0  0  0
 45 23  1  0  0  0  0
 49 29  1  0  0  0  0
M  END
>  <Pose>
1

>  <Score>
-5.23

$$$$
