
 OpenBabel03202210193D

 55 58  0  0  1  0  0  0  0  0999 V2000
   14.6600   61.3660  -10.7200 B   0  0  0  0  0  0  0  0  0  0  0  0
   16.3020   62.3240  -10.4290 C   0  0  0  0  0  0  0  0  0  0  0  0
   16.2640   63.6970  -10.5110 C   0  0  0  0  0  0  0  0  0  0  0  0
   17.4180   64.4000  -10.3080 C   0  0  0  0  0  0  0  0  0  0  0  0
   18.6140   63.7430  -10.0220 C   0  0  0  0  0  0  0  0  0  0  0  0
   18.6380   62.3900   -9.9440 C   0  0  0  0  0  0  0  0  0  0  0  0
   17.4810   61.6680  -10.1470 C   0  0  0  0  0  0  0  0  0  0  0  0
   19.7820   64.5960   -9.8760 C   0  0  0  0  0  0  0  0  0  0  0  0
   20.9460   64.1000   -9.5500 C   0  0  0  0  0  0  0  0  0  0  0  0
   22.2380   64.8520   -9.3700 C   0  0  2  0  0  0  0  0  0  0  0  0
   22.9110   64.1120   -8.3590 N   0  0  0  0  0  0  0  0  0  0  0  0
   22.4790   62.7350   -8.4820 C   0  0  0  0  0  0  0  0  0  0  0  0
   23.0530   61.7130   -8.0340 O   0  0  0  0  0  0  0  0  0  0  0  0
   21.2310   62.7180   -9.2360 C   0  0  1  0  0  0  0  0  0  0  0  0
   20.5610   61.6710   -9.5310 O   0  0  0  0  0  0  0  0  0  0  0  0
   23.9000   64.4590   -7.3550 C   0  0  0  0  0  0  0  0  0  0  0  0
   23.3940   64.5320   -5.9510 C   0  0  0  0  0  0  0  0  0  0  0  0
   24.3540   64.0370   -4.9780 N   0  0  0  0  0  4  0  0  0  0  0  0
   25.1510   62.9440   -5.5450 C   0  0  0  0  0  0  0  0  0  0  0  0
   26.2110   62.6360   -4.4790 C   0  0  0  0  0  0  0  0  0  0  0  0
   25.6540   62.2480   -3.2850 O   0  0  0  0  0  0  0  0  0  0  0  0
   24.6980   63.1230   -2.7930 C   0  0  0  0  0  0  0  0  0  0  0  0
   23.6690   63.4850   -3.8360 C   0  0  0  0  0  0  0  0  0  0  0  0
   22.0010   66.2710   -9.1370 C   0  0  0  0  0  0  0  0  0  0  0  0
   21.5100   66.8250   -7.9850 C   0  0  0  0  0  0  0  0  0  0  0  0
   21.3240   68.1760   -7.8420 C   0  0  0  0  0  0  0  0  0  0  0  0
   21.6350   69.0130   -8.8790 C   0  0  0  0  0  0  0  0  0  0  0  0
   22.1380   68.5090  -10.0750 C   0  0  0  0  0  0  0  0  0  0  0  0
   22.3120   67.1530  -10.1850 C   0  0  0  0  0  0  0  0  0  0  0  0
   20.8150   68.6780   -6.6280 N   0  0  0  0  0  0  0  0  0  0  0  0
   19.6040   68.5650   -6.3100 O   0  0  0  0  0  0  0  0  0  0  0  0
   21.6800   69.3120   -5.7660 O   0  0  0  0  0  0  0  0  0  0  0  0
   19.6870   65.9910  -10.0830 O   0  0  0  0  0  0  0  0  0  0  0  0
   15.3450   64.2490  -10.7330 H   0  0  0  0  0  0  0  0  0  0  0  0
   17.3970   65.5040  -10.3720 H   0  0  0  0  0  0  0  0  0  0  0  0
   19.5870   61.8690   -9.7480 H   0  0  0  0  0  0  0  0  0  0  0  0
   17.5030   60.5770  -10.0830 H   0  0  0  0  0  0  0  0  0  0  0  0
   22.8170   64.7020  -10.3180 H   0  0  0  0  0  0  0  0  0  0  0  0
   24.2830   65.4700   -7.6220 H   0  0  0  0  0  0  0  0  0  0  0  0
   24.7590   63.7550   -7.3720 H   0  0  0  0  0  0  0  0  0  0  0  0
   22.4210   64.1120   -5.7450 H   0  0  0  0  0  0  0  0  0  0  0  0
   23.2650   65.6570   -5.7570 H   0  0  0  0  0  0  0  0  0  0  0  0
   25.0290   64.7350   -4.6570 H   0  0  0  0  0  0  0  0  0  0  0  0
   25.7070   63.2660   -6.4450 H   0  0  0  0  0  0  0  0  0  0  0  0
   24.5720   62.0270   -5.6800 H   0  0  0  0  0  0  0  0  0  0  0  0
   26.9050   61.8630   -4.8140 H   0  0  0  0  0  0  0  0  0  0  0  0
   26.7920   63.5910   -4.3640 H   0  0  0  0  0  0  0  0  0  0  0  0
   24.1420   62.5510   -1.9940 H   0  0  0  0  0  0  0  0  0  0  0  0
   25.1150   64.0230   -2.3190 H   0  0  0  0  0  0  0  0  0  0  0  0
   23.0050   64.2650   -3.4240 H   0  0  0  0  0  0  0  0  0  0  0  0
   23.0880   62.5800   -4.1280 H   0  0  0  0  0  0  0  0  0  0  0  0
   21.2570   66.1740   -7.1700 H   0  0  0  0  0  0  0  0  0  0  0  0
   21.5130   70.0860   -8.8300 H   0  0  0  0  0  0  0  0  0  0  0  0
   22.3860   69.1780  -10.9020 H   0  0  0  0  0  0  0  0  0  0  0  0
   22.7090   66.7570  -11.1310 H   0  0  0  0  0  0  0  0  0  0  0  0
  1  2  1  0  0  0  0
  2  7  1  0  0  0  0
  3  2  2  0  0  0  0
  3  4  1  0  0  0  0
  4  5  2  0  0  0  0
  5  6  1  0  0  0  0
  5  8  1  0  0  0  0
  7 37  1  0  0  0  0
  7  6  2  0  0  0  0
  8  9  2  0  0  0  0
  9 10  1  0  0  0  0
  9 14  1  0  0  0  0
 10 38  1  6  0  0  0
 10 24  1  0  0  0  0
 10 11  1  0  0  0  0
 11 16  1  0  0  0  0
 12 11  1  0  0  0  0
 12 13  2  0  0  0  0
 14 15  1  1  0  0  0
 14 12  1  0  0  0  0
 16 17  1  0  0  0  0
 17 42  1  0  0  0  0
 17 41  1  0  0  0  0
 17 18  1  0  0  0  0
 18 43  1  0  0  0  0
 18 23  1  0  0  0  0
 19 18  1  0  0  0  0
 19 20  1  0  0  0  0
 20 47  1  0  0  0  0
 20 21  1  0  0  0  0
 21 22  1  0  0  0  0
 22 49  1  0  0  0  0
 22 48  1  0  0  0  0
 23 50  1  0  0  0  0
 23 22  1  0  0  0  0
 24 25  1  0  0  0  0
 25 26  2  0  0  0  0
 25 52  1  0  0  0  0
 26 30  1  0  0  0  0
 27 53  1  0  0  0  0
 27 26  1  0  0  0  0
 28 27  2  0  0  0  0
 29 28  1  0  0  0  0
 29 24  2  0  0  0  0
 30 31  2  0  0  0  0
 30 32  2  0  0  0  0
 33  8  1  0  0  0  0
 34  3  1  0  0  0  0
 35  4  1  0  0  0  0
 36 15  1  0  0  0  0
 39 16  1  0  0  0  0
 40 16  1  0  0  0  0
 44 19  1  0  0  0  0
 45 19  1  0  0  0  0
 46 20  1  0  0  0  0
 51 23  1  0  0  0  0
 54 28  1  0  0  0  0
 55 29  1  0  0  0  0
M  END
>  <Pose>
1

>  <Score>
-4.64

$$$$
