
 OpenBabel03202210193D

 53 56  0  0  1  0  0  0  0  0999 V2000
   25.6790   62.8180   -2.7990 B   0  0  0  0  0  0  0  0  0  0  0  0
   24.7810   63.3470   -4.4090 C   0  0  0  0  0  0  0  0  0  0  0  0
   23.4860   63.8120   -4.3830 C   0  0  0  0  0  0  0  0  0  0  0  0
   22.8430   64.1920   -5.5510 C   0  0  0  0  0  0  0  0  0  0  0  0
   23.4660   64.1210   -6.7770 C   0  0  0  0  0  0  0  0  0  0  0  0
   24.7600   63.6560   -6.8000 C   0  0  0  0  0  0  0  0  0  0  0  0
   25.4150   63.2710   -5.6260 C   0  0  0  0  0  0  0  0  0  0  0  0
   22.7970   64.5490   -7.9940 C   0  0  0  0  0  0  0  0  0  0  0  0
   22.8110   63.8870   -9.1350 C   0  0  0  0  0  0  0  0  0  0  0  0
   22.1760   64.2190  -10.4420 C   0  0  1  0  0  0  0  0  0  0  0  0
   23.1370   63.6790  -11.4190 N   0  0  0  0  0  0  0  0  0  0  0  0
   23.6470   62.5060  -10.8160 C   0  0  0  0  0  0  0  0  0  0  0  0
   24.1650   61.5640  -11.4280 O   0  0  0  0  0  0  0  0  0  0  0  0
   23.4580   62.5990   -9.3720 C   0  0  0  0  0  0  0  0  0  0  0  0
   23.7540   61.7910   -8.4560 O   0  0  0  0  0  0  0  0  0  0  0  0
   23.3930   64.3040  -12.6660 C   0  0  0  0  0  0  0  0  0  0  0  0
   24.7630   64.2750  -13.2060 C   0  0  0  0  0  0  0  0  0  0  0  0
   25.1590   63.0730  -13.8750 N   0  0  0  0  0  4  0  0  0  0  0  0
   26.4480   63.0880  -14.4700 C   0  0  0  0  0  0  0  0  0  0  0  0
   26.2930   63.1880  -15.9720 C   0  0  0  0  0  0  0  0  0  0  0  0
   25.2720   64.0580  -16.3420 O   0  0  0  0  0  0  0  0  0  0  0  0
   24.0210   63.5860  -15.9890 C   0  0  0  0  0  0  0  0  0  0  0  0
   24.1860   62.6150  -14.8420 C   0  0  0  0  0  0  0  0  0  0  0  0
   20.8260   63.6780  -10.6090 C   0  0  0  0  0  0  0  0  0  0  0  0
   19.7860   64.0650   -9.7550 C   0  0  0  0  0  0  0  0  0  0  0  0
   18.5110   63.6000   -9.8580 C   0  0  0  0  0  0  0  0  0  0  0  0
   18.1870   62.6930  -10.8490 C   0  0  0  0  0  0  0  0  0  0  0  0
   19.1810   62.2960  -11.6980 C   0  0  0  0  0  0  0  0  0  0  0  0
   20.4900   62.7740  -11.5910 C   0  0  0  0  0  0  0  0  0  0  0  0
   22.0800   65.7610   -7.9570 O   0  0  0  0  0  0  0  0  0  0  0  0
   22.9840   63.8740   -3.4310 H   0  0  0  0  0  0  0  0  0  0  0  0
   21.8230   64.5610   -5.5500 H   0  0  0  0  0  0  0  0  0  0  0  0
   25.3600   63.5710   -7.6940 H   0  0  0  0  0  0  0  0  0  0  0  0
   26.4370   62.9050   -5.6530 H   0  0  0  0  0  0  0  0  0  0  0  0
   22.1140   65.3230  -10.5330 H   0  0  0  0  0  0  0  0  0  0  0  0
   22.6720   63.8690  -13.4110 H   0  0  0  0  0  0  0  0  0  0  0  0
   23.0270   65.3710  -12.5750 H   0  0  0  0  0  0  0  0  0  0  0  0
   25.4590   64.3660  -12.3160 H   0  0  0  0  0  0  0  0  0  0  0  0
   25.0330   65.1260  -13.8500 H   0  0  0  0  0  0  0  0  0  0  0  0
   25.1730   62.3280  -13.1120 H   0  0  0  0  0  0  0  0  0  0  0  0
   27.1230   63.8740  -14.0700 H   0  0  0  0  0  0  0  0  0  0  0  0
   26.9700   62.1060  -14.2740 H   0  0  0  0  0  0  0  0  0  0  0  0
   26.1300   62.1540  -16.3480 H   0  0  0  0  0  0  0  0  0  0  0  0
   27.2720   63.5250  -16.3780 H   0  0  0  0  0  0  0  0  0  0  0  0
   23.5520   63.0520  -16.8390 H   0  0  0  0  0  0  0  0  0  0  0  0
   23.3400   64.4230  -15.7330 H   0  0  0  0  0  0  0  0  0  0  0  0
   23.1940   62.4000  -14.3490 H   0  0  0  0  0  0  0  0  0  0  0  0
   24.4840   61.6450  -15.2860 H   0  0  0  0  0  0  0  0  0  0  0  0
   20.0150   64.7770   -8.9680 H   0  0  0  0  0  0  0  0  0  0  0  0
   17.7410   63.9270   -9.1760 H   0  0  0  0  0  0  0  0  0  0  0  0
   17.1680   62.3270  -10.9240 H   0  0  0  0  0  0  0  0  0  0  0  0
   18.9830   61.5940  -12.4850 H   0  0  0  0  0  0  0  0  0  0  0  0
   21.2180   62.4260  -12.2820 H   0  0  0  0  0  0  0  0  0  0  0  0
  2  3  1  0  0  0  0
  2  1  1  0  0  0  0
  3 31  1  0  0  0  0
  4 32  1  0  0  0  0
  4  3  2  0  0  0  0
  5  4  1  0  0  0  0
  6  5  2  0  0  0  0
  6  7  1  0  0  0  0
  7  2  2  0  0  0  0
  8 30  1  0  0  0  0
  8  5  1  0  0  0  0
  9  8  2  0  0  0  0
 10 35  1  6  0  0  0
 10  9  1  0  0  0  0
 11 12  1  0  0  0  0
 11 10  1  0  0  0  0
 12 14  1  0  0  0  0
 13 12  2  0  0  0  0
 14  9  1  0  0  0  0
 14 15  2  0  0  0  0
 16 37  1  0  0  0  0
 16 11  1  0  0  0  0
 17 16  1  0  0  0  0
 17 38  1  0  0  0  0
 18 17  1  0  0  0  0
 18 40  1  0  0  0  0
 19 42  1  0  0  0  0
 19 41  1  0  0  0  0
 19 18  1  0  0  0  0
 20 19  1  0  0  0  0
 21 22  1  0  0  0  0
 21 20  1  0  0  0  0
 22 46  1  0  0  0  0
 22 23  1  0  0  0  0
 23 47  1  0  0  0  0
 23 18  1  0  0  0  0
 24 10  1  0  0  0  0
 24 25  1  0  0  0  0
 25 49  1  0  0  0  0
 26 25  2  0  0  0  0
 26 50  1  0  0  0  0
 27 26  1  0  0  0  0
 28 29  1  0  0  0  0
 28 27  2  0  0  0  0
 29 24  2  0  0  0  0
 33  6  1  0  0  0  0
 34  7  1  0  0  0  0
 36 16  1  0  0  0  0
 39 17  1  0  0  0  0
 43 20  1  0  0  0  0
 44 20  1  0  0  0  0
 45 22  1  0  0  0  0
 48 23  1  0  0  0  0
 51 27  1  0  0  0  0
 52 28  1  0  0  0  0
 53 29  1  0  0  0  0
M  END
>  <Pose>
1

>  <Score>
-4.87

$$$$
