
 OpenBabel03202210193D

 48 51  0  0  1  0  0  0  0  0999 V2000
   14.2310   63.2990  -11.2120 B   0  0  0  0  0  0  0  0  0  0  0  0
   16.0560   63.1870  -10.6440 C   0  0  0  0  0  0  0  0  0  0  0  0
   16.7740   64.3460  -10.4570 C   0  0  0  0  0  0  0  0  0  0  0  0
   18.0800   64.2590  -10.0510 C   0  0  0  0  0  0  0  0  0  0  0  0
   18.6570   63.0320   -9.8360 C   0  0  0  0  0  0  0  0  0  0  0  0
   17.9090   61.8970  -10.0340 C   0  0  0  0  0  0  0  0  0  0  0  0
   16.5850   61.9330  -10.4440 C   0  0  0  0  0  0  0  0  0  0  0  0
   20.0980   62.9390   -9.3920 C   0  0  1  0  0  0  0  0  0  0  0  0
   20.6710   61.8960  -10.0940 O   0  0  0  0  0  0  0  0  0  0  0  0
   20.7930   64.2550   -9.5690 C   0  0  0  0  0  0  0  0  0  0  0  0
   21.8240   64.4900   -8.6010 N   0  0  0  0  0  0  0  0  0  0  0  0
   21.9220   65.6600   -7.9250 C   0  0  0  0  0  0  0  0  0  0  0  0
   23.0200   65.5330   -7.0900 C   0  0  0  0  0  0  0  0  0  0  0  0
   23.3540   66.5930   -6.2670 C   0  0  0  0  0  0  0  0  0  0  0  0
   22.6160   67.7820   -6.2570 C   0  0  0  0  0  0  0  0  0  0  0  0
   21.5240   67.8610   -7.1110 C   0  0  0  0  0  0  0  0  0  0  0  0
   21.1700   66.8240   -7.9380 C   0  0  0  0  0  0  0  0  0  0  0  0
   23.5910   64.3020   -7.2540 N   0  0  0  0  0  0  0  0  0  0  0  0
   22.8240   63.6860   -8.1930 C   0  0  2  0  0  0  0  0  0  0  0  0
   23.0520   62.4880   -8.6160 N   0  0  0  0  0  0  0  0  0  0  0  0
   24.7560   63.8570   -6.5500 C   0  0  0  0  0  0  0  0  0  0  0  0
   24.4560   63.2830   -5.1930 C   0  0  0  0  0  0  0  0  0  0  0  0
   25.3970   62.4690   -4.5870 C   0  0  0  0  0  0  0  0  0  0  0  0
   25.1960   61.9050   -3.3420 C   0  0  0  0  0  0  0  0  0  0  0  0
   24.0110   62.1800   -2.7060 C   0  0  0  0  0  0  0  0  0  0  0  0
   23.0620   62.9820   -3.2840 C   0  0  0  0  0  0  0  0  0  0  0  0
   23.2920   63.5250   -4.5190 C   0  0  0  0  0  0  0  0  0  0  0  0
   16.2980   65.3320  -10.6330 H   0  0  0  0  0  0  0  0  0  0  0  0
   18.6580   65.1630   -9.8980 H   0  0  0  0  0  0  0  0  0  0  0  0
   18.3580   60.9020   -9.8690 H   0  0  0  0  0  0  0  0  0  0  0  0
   16.0000   61.0210  -10.5980 H   0  0  0  0  0  0  0  0  0  0  0  0
   20.0760   62.6150   -8.3180 H   0  0  0  0  0  0  0  0  0  0  0  0
   21.4620   61.5190   -9.6630 H   0  0  0  0  0  0  0  0  0  0  0  0
   21.3130   64.1960  -10.5700 H   0  0  0  0  0  0  0  0  0  0  0  0
   20.1050   65.1050   -9.6530 H   0  0  0  0  0  0  0  0  0  0  0  0
   24.2060   66.4820   -5.6120 H   0  0  0  0  0  0  0  0  0  0  0  0
   22.9120   68.5730   -5.6050 H   0  0  0  0  0  0  0  0  0  0  0  0
   20.9410   68.7760   -7.1150 H   0  0  0  0  0  0  0  0  0  0  0  0
   20.3150   66.9230   -8.5880 H   0  0  0  0  0  0  0  0  0  0  0  0
   22.4070   62.0730   -9.3540 H   0  0  0  0  0  0  0  0  0  0  0  0
   23.8030   61.8650   -8.3100 H   0  0  0  0  0  0  0  0  0  0  0  0
   25.4760   64.6920   -6.3860 H   0  0  0  0  0  0  0  0  0  0  0  0
   25.2490   63.0580   -7.1400 H   0  0  0  0  0  0  0  0  0  0  0  0
   26.3570   62.2230   -5.0710 H   0  0  0  0  0  0  0  0  0  0  0  0
   25.9540   61.2620   -2.8740 H   0  0  0  0  0  0  0  0  0  0  0  0
   23.8040   61.7610   -1.7230 H   0  0  0  0  0  0  0  0  0  0  0  0
   22.1230   63.1740   -2.7330 H   0  0  0  0  0  0  0  0  0  0  0  0
   22.5410   64.1420   -4.9520 H   0  0  0  0  0  0  0  0  0  0  0  0
  1  2  1  0  0  0  0
  2  3  2  0  0  0  0
  2  7  1  0  0  0  0
  3  4  1  0  0  0  0
  4 29  1  0  0  0  0
  4  5  2  0  0  0  0
  5  8  1  0  0  0  0
  6 30  1  0  0  0  0
  6  5  1  0  0  0  0
  7  6  2  0  0  0  0
  8 32  1  1  0  0  0
  9 33  1  0  0  0  0
  9  8  1  0  0  0  0
 10  8  1  0  0  0  0
 10 11  1  0  0  0  0
 11 19  1  0  0  0  0
 11 12  1  0  0  0  0
 12 13  1  0  0  0  0
 13 14  2  0  0  0  0
 14 15  1  0  0  0  0
 14 36  1  0  0  0  0
 15 37  1  0  0  0  0
 16 15  2  0  0  0  0
 17 12  2  0  0  0  0
 17 16  1  0  0  0  0
 18 13  1  0  0  0  0
 18 21  1  0  0  0  0
 19 20  1  6  0  0  0
 19 18  1  0  0  0  0
 20 41  1  0  0  0  0
 21 42  1  0  0  0  0
 21 22  1  0  0  0  0
 22 23  2  0  0  0  0
 22 27  1  0  0  0  0
 23 24  1  0  0  0  0
 24 45  1  0  0  0  0
 24 25  2  0  0  0  0
 25 46  1  0  0  0  0
 26 47  1  0  0  0  0
 26 25  1  0  0  0  0
 27 26  2  0  0  0  0
 28  3  1  0  0  0  0
 31  7  1  0  0  0  0
 34 10  1  0  0  0  0
 35 10  1  0  0  0  0
 38 16  1  0  0  0  0
 39 17  1  0  0  0  0
 40 20  1  0  0  0  0
 43 21  1  0  0  0  0
 44 23  1  0  0  0  0
 48 27  1  0  0  0  0
M  END
>  <Pose>
1

>  <Score>
-7.99

$$$$
