
 OpenBabel03202210193D

 44 47  0  0  0  0  0  0  0  0999 V2000
   14.2570   63.2980  -10.6870 B   0  0  0  0  0  0  0  0  0  0  0  0
   16.1750   63.1860  -10.7600 C   0  0  0  0  0  0  0  0  0  0  0  0
   16.8470   62.1360  -10.1780 C   0  0  0  0  0  0  0  0  0  0  0  0
   18.2260   62.0550  -10.2280 C   0  0  0  0  0  0  0  0  0  0  0  0
   18.9920   63.0200  -10.8620 C   0  0  0  0  0  0  0  0  0  0  0  0
   18.3150   64.0680  -11.4430 C   0  0  0  0  0  0  0  0  0  0  0  0
   16.9220   64.1560  -11.3960 C   0  0  0  0  0  0  0  0  0  0  0  0
   20.4460   62.9010  -10.8990 C   0  0  0  0  0  0  0  0  0  0  0  0
   21.1580   63.1510   -9.7930 C   0  0  0  0  0  0  0  0  0  0  0  0
   20.5880   63.5250   -8.5870 O   0  0  0  0  0  0  0  0  0  0  0  0
   21.5530   63.7230   -7.6040 C   0  0  0  0  0  0  0  0  0  0  0  0
   22.7740   63.4810   -8.1570 C   0  0  0  0  0  0  0  0  0  0  0  0
   23.9150   63.6050   -7.3920 C   0  0  0  0  0  0  0  0  0  0  0  0
   23.7620   63.9760   -6.0810 C   0  0  0  0  0  0  0  0  0  0  0  0
   22.5070   64.2260   -5.5100 C   0  0  0  0  0  0  0  0  0  0  0  0
   21.3610   64.1080   -6.2550 C   0  0  0  0  0  0  0  0  0  0  0  0
   19.9840   64.3370   -5.7990 C   0  0  0  0  0  0  0  0  0  0  0  0
   19.3150   63.2920   -5.1270 N   0  0  0  0  0  4  0  0  0  0  0  0
   18.3500   63.7810   -4.1650 C   0  0  0  0  0  0  0  0  0  0  0  0
   17.0240   64.0310   -4.8610 C   0  0  0  0  0  0  0  0  0  0  0  0
   16.3970   62.8070   -5.0370 O   0  0  0  0  0  0  0  0  0  0  0  0
   17.3850   61.8510   -5.2910 C   0  0  0  0  0  0  0  0  0  0  0  0
   18.5290   62.4790   -6.0710 C   0  0  0  0  0  0  0  0  0  0  0  0
   22.4390   64.5990   -4.1670 O   0  0  0  0  0  0  0  0  0  0  0  0
   22.5770   63.1100   -9.5650 C   0  0  0  0  0  0  0  0  0  0  0  0
   23.4430   62.8090  -10.4250 O   0  0  0  0  0  0  0  0  0  0  0  0
   16.2390   61.3860   -9.6840 H   0  0  0  0  0  0  0  0  0  0  0  0
   18.7510   61.2220   -9.7650 H   0  0  0  0  0  0  0  0  0  0  0  0
   18.8610   64.8410  -11.9480 H   0  0  0  0  0  0  0  0  0  0  0  0
   16.3780   64.9760  -11.8480 H   0  0  0  0  0  0  0  0  0  0  0  0
   21.0070   62.6140  -11.7870 H   0  0  0  0  0  0  0  0  0  0  0  0
   24.8950   63.4150   -7.8160 H   0  0  0  0  0  0  0  0  0  0  0  0
   24.6320   64.0800   -5.4600 H   0  0  0  0  0  0  0  0  0  0  0  0
   19.3890   64.7520   -6.6470 H   0  0  0  0  0  0  0  0  0  0  0  0
   20.0510   65.1990   -5.0640 H   0  0  0  0  0  0  0  0  0  0  0  0
   19.9770   62.6150   -4.6960 H   0  0  0  0  0  0  0  0  0  0  0  0
   18.2320   63.1350   -3.2760 H   0  0  0  0  0  0  0  0  0  0  0  0
   18.6840   64.7750   -3.8010 H   0  0  0  0  0  0  0  0  0  0  0  0
   17.2260   64.5400   -5.8220 H   0  0  0  0  0  0  0  0  0  0  0  0
   16.4480   64.7140   -4.1840 H   0  0  0  0  0  0  0  0  0  0  0  0
   16.8970   61.0380   -5.8600 H   0  0  0  0  0  0  0  0  0  0  0  0
   17.7650   61.3960   -4.3450 H   0  0  0  0  0  0  0  0  0  0  0  0
   19.1640   61.6560   -6.4610 H   0  0  0  0  0  0  0  0  0  0  0  0
   18.1200   63.0590   -6.8980 H   0  0  0  0  0  0  0  0  0  0  0  0
  2  1  1  0  0  0  0
  2  3  1  0  0  0  0
  3 27  1  0  0  0  0
  4  3  2  0  0  0  0
  4 28  1  0  0  0  0
  5  4  1  0  0  0  0
  6  7  1  0  0  0  0
  6  5  2  0  0  0  0
  7  2  2  0  0  0  0
  8  5  1  0  0  0  0
  8  9  2  0  0  0  0
  9 25  1  0  0  0  0
  9 10  1  0  0  0  0
 10 11  1  0  0  0  0
 11 16  1  0  0  0  0
 12 11  2  0  0  0  0
 12 13  1  0  0  0  0
 13 14  2  0  0  0  0
 14 15  1  0  0  0  0
 14 33  1  0  0  0  0
 15 24  1  0  0  0  0
 16 17  1  0  0  0  0
 16 15  2  0  0  0  0
 17 18  1  0  0  0  0
 17 35  1  0  0  0  0
 18 36  1  0  0  0  0
 18 19  1  0  0  0  0
 19 38  1  0  0  0  0
 19 37  1  0  0  0  0
 20 40  1  0  0  0  0
 20 19  1  0  0  0  0
 21 20  1  0  0  0  0
 22 21  1  0  0  0  0
 22 42  1  0  0  0  0
 23 22  1  0  0  0  0
 23 18  1  0  0  0  0
 25 12  1  0  0  0  0
 26 25  2  0  0  0  0
 29  6  1  0  0  0  0
 30  7  1  0  0  0  0
 31  8  1  0  0  0  0
 32 13  1  0  0  0  0
 34 17  1  0  0  0  0
 39 20  1  0  0  0  0
 41 22  1  0  0  0  0
 43 23  1  0  0  0  0
 44 23  1  0  0  0  0
M  END
>  <Pose>
1

>  <Score>
-3.15

$$$$
