
 OpenBabel03202210193D

 42 45  0  0  0  0  0  0  0  0999 V2000
   14.1830   63.5780  -11.2460 B   0  0  0  0  0  0  0  0  0  0  0  0
   15.9660   63.1220  -10.7420 C   0  0  0  0  0  0  0  0  0  0  0  0
   16.9590   64.0890  -10.6760 C   0  0  0  0  0  0  0  0  0  0  0  0
   18.2580   63.7810  -10.3140 C   0  0  0  0  0  0  0  0  0  0  0  0
   18.6110   62.4850  -10.0030 C   0  0  0  0  0  0  0  0  0  0  0  0
   17.6170   61.5310  -10.0710 C   0  0  0  0  0  0  0  0  0  0  0  0
   16.3180   61.8260  -10.4300 C   0  0  0  0  0  0  0  0  0  0  0  0
   19.9740   62.1360   -9.6180 C   0  0  0  0  0  0  0  0  0  0  0  0
   20.6580   62.8060   -8.7770 N   0  0  0  0  0  0  0  0  0  0  0  0
   21.9460   62.5210   -8.3790 N   0  0  0  0  0  0  0  0  0  0  0  0
   23.0310   63.1950   -8.9920 C   0  0  0  0  0  0  0  0  0  0  0  0
   22.9350   63.5420  -10.1900 O   0  0  0  0  0  0  0  0  0  0  0  0
   24.2730   63.4940   -8.2320 C   0  0  0  0  0  0  0  0  0  0  0  0
   24.0200   64.4310   -7.1550 N   0  0  0  0  0  0  0  0  0  0  0  0
   23.6480   65.7140   -7.4490 N   0  0  0  0  0  0  0  0  0  0  0  0
   23.4920   66.3920   -6.3030 C   0  0  0  0  0  0  0  0  0  0  0  0
   23.7670   65.5220   -5.3320 N   0  0  0  0  0  0  0  0  0  0  0  0
   24.1000   64.2850   -5.8590 C   0  0  0  0  0  0  0  0  0  0  0  0
   24.4430   63.1540   -5.0220 C   0  0  0  0  0  0  0  0  0  0  0  0
   25.6590   62.4870   -5.1490 N   0  0  0  0  0  0  0  0  0  0  0  0
   25.7240   61.5460   -4.2920 O   0  0  0  0  0  0  0  0  0  0  0  0
   24.6580   61.5150   -3.5930 N   0  0  0  0  0  0  0  0  0  0  0  0
   23.8280   62.5130   -4.0250 C   0  0  0  0  0  0  0  0  0  0  0  0
   22.5830   62.7150   -3.4180 N   0  0  0  0  0  0  0  0  0  0  0  0
   23.1030   67.7870   -6.1430 C   0  0  0  0  0  0  0  0  0  0  0  0
   23.8500   68.7840   -5.6610 N   0  0  0  0  0  0  0  0  0  0  0  0
   23.1450   69.9020   -5.6740 O   0  0  0  0  0  0  0  0  0  0  0  0
   21.9530   69.6800   -6.1500 N   0  0  0  0  0  0  0  0  0  0  0  0
   21.8910   68.3480   -6.4580 C   0  0  0  0  0  0  0  0  0  0  0  0
   20.7430   67.7190   -7.0050 N   0  0  0  0  0  0  0  0  0  0  0  0
   16.7020   65.0980  -10.9150 H   0  0  0  0  0  0  0  0  0  0  0  0
   19.0350   64.5540  -10.2660 H   0  0  0  0  0  0  0  0  0  0  0  0
   17.9190   60.5060   -9.8190 H   0  0  0  0  0  0  0  0  0  0  0  0
   15.5580   61.0320  -10.4720 H   0  0  0  0  0  0  0  0  0  0  0  0
   20.4240   61.2650  -10.0700 H   0  0  0  0  0  0  0  0  0  0  0  0
   22.1120   61.7980   -7.6140 H   0  0  0  0  0  0  0  0  0  0  0  0
   24.9360   62.6760   -8.0220 H   0  0  0  0  0  0  0  0  0  0  0  0
   24.9130   64.1080   -8.9910 H   0  0  0  0  0  0  0  0  0  0  0  0
   22.4390   63.5590   -2.8170 H   0  0  0  0  0  0  0  0  0  0  0  0
   21.7650   62.0800   -3.5270 H   0  0  0  0  0  0  0  0  0  0  0  0
   20.1630   67.0700   -6.4030 H   0  0  0  0  0  0  0  0  0  0  0  0
   20.4210   67.8530   -7.9820 H   0  0  0  0  0  0  0  0  0  0  0  0
  1  2  1  0  0  0  0
  2  3  2  0  0  0  0
  2  7  1  0  0  0  0
  3  4  1  0  0  0  0
  4 32  1  0  0  0  0
  4  5  2  0  0  0  0
  5  8  1  0  0  0  0
  6  5  1  0  0  0  0
  6 33  1  0  0  0  0
  7  6  2  0  0  0  0
  8  9  2  0  0  0  0
  9 10  1  0  0  0  0
 10 36  1  0  0  0  0
 11 10  1  0  0  0  0
 11 13  1  0  0  0  0
 12 11  2  0  0  0  0
 13 37  1  0  0  0  0
 13 14  1  0  0  0  0
 14 18  1  0  0  0  0
 15 14  1  0  0  0  0
 15 16  2  0  0  0  0
 16 25  1  0  0  0  0
 16 17  1  0  0  0  0
 18 17  2  0  0  0  0
 18 19  1  0  0  0  0
 19 23  1  0  0  0  0
 20 19  2  0  0  0  0
 20 21  1  0  0  0  0
 21 22  1  0  0  0  0
 23 22  2  0  0  0  0
 23 24  1  0  0  0  0
 24 39  1  0  0  0  0
 25 26  2  0  0  0  0
 27 26  1  0  0  0  0
 28 27  1  0  0  0  0
 29 28  2  0  0  0  0
 29 25  1  0  0  0  0
 30 29  1  0  0  0  0
 30 41  1  0  0  0  0
 31  3  1  0  0  0  0
 34  7  1  0  0  0  0
 35  8  1  0  0  0  0
 38 13  1  0  0  0  0
 40 24  1  0  0  0  0
 42 30  1  0  0  0  0
M  END
>  <Pose>
1

>  <Score>
-11.75

$$$$
