
 OpenBabel03202210193D

 50 54  0  0  1  0  0  0  0  0999 V2000
   14.0000   61.8710  -10.6700 B   0  0  0  0  0  0  0  0  0  0  0  0
   15.8730   62.1380  -10.5270 C   0  0  0  0  0  0  0  0  0  0  0  0
   16.4090   63.4060  -10.6450 C   0  0  0  0  0  0  0  0  0  0  0  0
   17.7840   63.5990  -10.5390 C   0  0  0  0  0  0  0  0  0  0  0  0
   18.6480   62.5510  -10.3160 C   0  0  0  0  0  0  0  0  0  0  0  0
   18.1060   61.2910  -10.1990 C   0  0  0  0  0  0  0  0  0  0  0  0
   16.7290   61.0790  -10.3040 C   0  0  0  0  0  0  0  0  0  0  0  0
   20.0890   62.7530  -10.2060 C   0  0  0  0  0  0  0  0  0  0  0  0
   20.8250   62.7150   -9.0760 N   0  0  0  0  0  0  0  0  0  0  0  0
   22.1300   62.9470   -9.3620 C   0  0  1  0  0  0  0  0  0  0  0  0
   22.2430   63.1390  -10.6870 N   0  0  0  0  0  0  0  0  0  0  0  0
   20.9990   63.0210  -11.2080 C   0  0  0  0  0  0  0  0  0  0  0  0
   23.5500   63.3650  -10.9200 C   0  0  0  0  0  0  0  0  0  0  0  0
   24.2580   63.3160   -9.7390 C   0  0  0  0  0  0  0  0  0  0  0  0
   25.6330   63.5160   -9.6910 C   0  0  0  0  0  0  0  0  0  0  0  0
   26.3230   63.7720  -10.8540 C   0  0  0  0  0  0  0  0  0  0  0  0
   25.6070   63.8190  -12.0300 C   0  0  0  0  0  0  0  0  0  0  0  0
   24.2440   63.6250  -12.1060 C   0  0  0  0  0  0  0  0  0  0  0  0
   23.3340   63.0510   -8.7770 N   0  0  0  0  0  0  0  0  0  0  0  0
   23.6850   62.9200   -7.3780 C   0  0  0  0  0  0  0  0  0  0  0  0
   24.0870   64.2480   -6.7750 C   0  0  0  0  0  0  0  0  0  0  0  0
   24.6530   64.0530   -5.4710 N   0  0  0  0  0  4  0  0  0  0  0  0
   25.7670   63.1300   -5.5380 C   0  0  0  0  0  0  0  0  0  0  0  0
   25.7340   62.0970   -4.4380 C   0  0  0  0  0  0  0  0  0  0  0  0
   25.5810   62.7480   -3.2120 O   0  0  0  0  0  0  0  0  0  0  0  0
   24.4290   63.5040   -3.1620 C   0  0  0  0  0  0  0  0  0  0  0  0
   23.7290   63.5600   -4.4940 C   0  0  0  0  0  0  0  0  0  0  0  0
   15.7330   64.2400  -10.8210 H   0  0  0  0  0  0  0  0  0  0  0  0
   18.1590   64.5970  -10.6370 H   0  0  0  0  0  0  0  0  0  0  0  0
   18.7320   60.4310  -10.0240 H   0  0  0  0  0  0  0  0  0  0  0  0
   16.3150   60.0730  -10.2080 H   0  0  0  0  0  0  0  0  0  0  0  0
   20.4680   62.5350   -8.1160 H   0  0  0  0  0  0  0  0  0  0  0  0
   20.7420   63.1200  -12.2530 H   0  0  0  0  0  0  0  0  0  0  0  0
   26.1240   63.4640   -8.7390 H   0  0  0  0  0  0  0  0  0  0  0  0
   27.4130   63.9350  -10.8550 H   0  0  0  0  0  0  0  0  0  0  0  0
   26.1380   64.0190  -12.9440 H   0  0  0  0  0  0  0  0  0  0  0  0
   23.6750   63.6580  -13.0040 H   0  0  0  0  0  0  0  0  0  0  0  0
   22.8030   62.5420   -6.8070 H   0  0  0  0  0  0  0  0  0  0  0  0
   24.4900   62.1670   -7.2730 H   0  0  0  0  0  0  0  0  0  0  0  0
   23.2310   64.9180   -6.6850 H   0  0  0  0  0  0  0  0  0  0  0  0
   24.8520   64.6930   -7.4390 H   0  0  0  0  0  0  0  0  0  0  0  0
   25.0420   64.9570   -5.1010 H   0  0  0  0  0  0  0  0  0  0  0  0
   25.7790   62.5970   -6.5300 H   0  0  0  0  0  0  0  0  0  0  0  0
   26.7470   63.6520   -5.4660 H   0  0  0  0  0  0  0  0  0  0  0  0
   26.7210   61.5900   -4.4460 H   0  0  0  0  0  0  0  0  0  0  0  0
   24.9450   61.3510   -4.6320 H   0  0  0  0  0  0  0  0  0  0  0  0
   23.7440   62.9910   -2.4300 H   0  0  0  0  0  0  0  0  0  0  0  0
   24.6080   64.5410   -2.8000 H   0  0  0  0  0  0  0  0  0  0  0  0
   22.9120   64.3280   -4.3830 H   0  0  0  0  0  0  0  0  0  0  0  0
   23.3130   62.5700   -4.7260 H   0  0  0  0  0  0  0  0  0  0  0  0
  1  2  1  0  0  0  0
  2  7  1  0  0  0  0
  3  4  1  0  0  0  0
  3  2  2  0  0  0  0
  4  5  2  0  0  0  0
  5  8  1  0  0  0  0
  5  6  1  0  0  0  0
  6 30  1  0  0  0  0
  7 31  1  0  0  0  0
  7  6  2  0  0  0  0
  8  9  1  0  0  0  0
  9 32  1  0  0  0  0
 10 11  1  1  0  0  0
 10  9  1  0  0  0  0
 10 19  1  0  0  0  0
 12 11  1  0  0  0  0
 12  8  2  0  0  0  0
 13 11  1  0  0  0  0
 13 14  1  0  0  0  0
 14 15  2  0  0  0  0
 14 19  1  0  0  0  0
 15 34  1  0  0  0  0
 16 15  1  0  0  0  0
 17 16  2  0  0  0  0
 18 17  1  0  0  0  0
 18 13  2  0  0  0  0
 19 20  1  0  0  0  0
 20 39  1  0  0  0  0
 20 38  1  0  0  0  0
 20 21  1  0  0  0  0
 21 40  1  0  0  0  0
 21 22  1  0  0  0  0
 22 42  1  0  0  0  0
 22 27  1  0  0  0  0
 23 22  1  0  0  0  0
 23 44  1  0  0  0  0
 23 24  1  0  0  0  0
 24 25  1  0  0  0  0
 25 26  1  0  0  0  0
 26 48  1  0  0  0  0
 26 47  1  0  0  0  0
 27 49  1  0  0  0  0
 27 26  1  0  0  0  0
 28  3  1  0  0  0  0
 29  4  1  0  0  0  0
 33 12  1  0  0  0  0
 35 16  1  0  0  0  0
 36 17  1  0  0  0  0
 37 18  1  0  0  0  0
 41 21  1  0  0  0  0
 43 23  1  0  0  0  0
 45 24  1  0  0  0  0
 46 24  1  0  0  0  0
 50 27  1  0  0  0  0
M  END
>  <Pose>
1

>  <Score>
-6.11

$$$$
