
 OpenBabel03202210193D

 41 44  0  0  0  0  0  0  0  0999 V2000
   24.2400   63.3370   -6.6380 B   0  0  0  0  0  0  0  0  0  0  0  0
   22.6170   63.4720   -7.6040 C   0  0  0  0  0  0  0  0  0  0  0  0
   21.4850   63.9460   -6.9750 C   0  0  0  0  0  0  0  0  0  0  0  0
   20.3180   64.0430   -7.6670 C   0  0  0  0  0  0  0  0  0  0  0  0
   20.2120   63.6790   -9.0110 C   0  0  0  0  0  0  0  0  0  0  0  0
   21.3730   63.2140   -9.5750 C   0  0  0  0  0  0  0  0  0  0  0  0
   22.5770   63.0940   -8.9280 C   0  0  0  0  0  0  0  0  0  0  0  0
   18.8880   63.6690   -9.6020 C   0  0  0  0  0  0  0  0  0  0  0  0
   17.9450   62.7680   -9.8460 N   0  0  0  0  0  0  0  0  0  0  0  0
   16.8690   63.3480  -10.4340 C   0  0  0  0  0  0  0  0  0  0  0  0
   17.1710   64.6530  -10.5640 N   0  0  0  0  0  0  0  0  0  0  0  0
   18.3530   64.8660  -10.0850 N   0  0  0  0  0  0  0  0  0  0  0  0
   15.9020   62.4600  -10.6960 N   0  0  0  0  0  0  0  0  0  0  0  0
   16.3780   61.2850  -10.2700 C   0  0  0  0  0  0  0  0  0  0  0  0
   17.6640   61.4400   -9.7330 C   0  0  0  0  0  0  0  0  0  0  0  0
   18.3470   60.4000   -9.2840 N   0  0  0  0  0  0  0  0  0  0  0  0
   17.7460   59.1720   -9.3510 C   0  0  0  0  0  0  0  0  0  0  0  0
   18.3570   58.1620   -8.9310 O   0  0  0  0  0  0  0  0  0  0  0  0
   16.5170   58.9930   -9.8490 N   0  0  0  0  0  0  0  0  0  0  0  0
   15.8090   60.0350  -10.3180 C   0  0  0  0  0  0  0  0  0  0  0  0
   14.6520   59.9050  -10.7950 O   0  0  0  0  0  0  0  0  0  0  0  0
   19.7130   60.3920   -8.8260 C   0  0  0  0  0  0  0  0  0  0  0  0
   14.6160   62.7140  -11.3040 C   0  0  0  0  0  0  0  0  0  0  0  0
   14.3800   64.1840  -11.5760 C   0  0  0  0  0  0  0  0  0  0  0  0
   14.2510   64.4460  -12.9340 O   0  0  0  0  0  0  0  0  0  0  0  0
   12.9010   64.3080  -13.2590 C   0  0  0  0  0  0  0  0  0  0  0  0
   21.5090   64.2440   -5.9330 H   0  0  0  0  0  0  0  0  0  0  0  0
   19.4320   64.4210   -7.1510 H   0  0  0  0  0  0  0  0  0  0  0  0
   21.3240   62.8740  -10.6270 H   0  0  0  0  0  0  0  0  0  0  0  0
   23.4390   62.7240   -9.4350 H   0  0  0  0  0  0  0  0  0  0  0  0
   16.0590   58.0600   -9.8980 H   0  0  0  0  0  0  0  0  0  0  0  0
   20.3830   60.9890   -9.4640 H   0  0  0  0  0  0  0  0  0  0  0  0
   19.8440   60.4780   -7.7400 H   0  0  0  0  0  0  0  0  0  0  0  0
   20.1460   59.3290   -9.0180 H   0  0  0  0  0  0  0  0  0  0  0  0
   13.8030   62.3430  -10.6930 H   0  0  0  0  0  0  0  0  0  0  0  0
   14.6330   62.1690  -12.2750 H   0  0  0  0  0  0  0  0  0  0  0  0
   15.2620   64.7620  -11.2010 H   0  0  0  0  0  0  0  0  0  0  0  0
   13.5080   64.5090  -11.0070 H   0  0  0  0  0  0  0  0  0  0  0  0
   12.2920   65.0350  -12.6630 H   0  0  0  0  0  0  0  0  0  0  0  0
   12.5280   63.2750  -13.1080 H   0  0  0  0  0  0  0  0  0  0  0  0
   12.7310   64.5480  -14.3450 H   0  0  0  0  0  0  0  0  0  0  0  0
  2  3  1  0  0  0  0
  2  1  1  0  0  0  0
  3 27  1  0  0  0  0
  4 28  1  0  0  0  0
  4  3  2  0  0  0  0
  5  4  1  0  0  0  0
  6  5  2  0  0  0  0
  6  7  1  0  0  0  0
  7  2  2  0  0  0  0
  8  5  1  0  0  0  0
  9 15  1  0  0  0  0
  9  8  1  0  0  0  0
 10  9  1  0  0  0  0
 11 10  2  0  0  0  0
 11 12  1  0  0  0  0
 12  8  2  0  0  0  0
 13 10  1  0  0  0  0
 13 14  1  0  0  0  0
 14 15  2  0  0  0  0
 15 16  1  0  0  0  0
 16 22  1  0  0  0  0
 17 16  1  0  0  0  0
 17 18  2  0  0  0  0
 19 17  1  0  0  0  0
 20 14  1  0  0  0  0
 20 19  1  0  0  0  0
 21 20  2  0  0  0  0
 22 33  1  0  0  0  0
 23 13  1  0  0  0  0
 23 35  1  0  0  0  0
 24 23  1  0  0  0  0
 24 37  1  0  0  0  0
 24 38  1  0  0  0  0
 25 24  1  0  0  0  0
 26 40  1  0  0  0  0
 26 25  1  0  0  0  0
 26 39  1  0  0  0  0
 29  6  1  0  0  0  0
 30  7  1  0  0  0  0
 31 19  1  0  0  0  0
 32 22  1  0  0  0  0
 34 22  1  0  0  0  0
 36 23  1  0  0  0  0
 41 26  1  0  0  0  0
M  END
>  <Pose>
1

>  <Score>
-6.13

$$$$
