
 OpenBabel03202210193D

 57 60  0  0  0  0  0  0  0  0999 V2000
   14.2070   61.7760  -11.2350 B   0  0  0  0  0  0  0  0  0  0  0  0
   15.9760   62.1160  -10.5920 C   0  0  0  0  0  0  0  0  0  0  0  0
   16.3330   63.4020  -10.3120 C   0  0  0  0  0  0  0  0  0  0  0  0
   17.6060   63.6600   -9.8510 C   0  0  0  0  0  0  0  0  0  0  0  0
   18.5630   62.6690   -9.6520 C   0  0  0  0  0  0  0  0  0  0  0  0
   18.1780   61.3860   -9.9400 C   0  0  0  0  0  0  0  0  0  0  0  0
   16.8870   61.0970  -10.4110 C   0  0  0  0  0  0  0  0  0  0  0  0
   19.8960   62.9430   -9.1850 C   0  0  0  0  0  0  0  0  0  0  0  0
   20.1250   63.2720   -7.8700 C   0  0  0  0  0  0  0  0  0  0  0  0
   21.3250   63.5570   -7.4020 O   0  0  0  0  0  0  0  0  0  0  0  0
   22.3820   63.5450   -8.1730 C   0  0  0  0  0  0  0  0  0  0  0  0
   22.2230   63.2280   -9.4750 C   0  0  0  0  0  0  0  0  0  0  0  0
   23.3170   63.2090  -10.3120 C   0  0  0  0  0  0  0  0  0  0  0  0
   24.5460   63.5170   -9.7880 C   0  0  0  0  0  0  0  0  0  0  0  0
   24.7010   63.8470   -8.4280 C   0  0  0  0  0  0  0  0  0  0  0  0
   23.6340   63.8710   -7.5810 C   0  0  0  0  0  0  0  0  0  0  0  0
   23.6370   64.1660   -6.1680 C   0  0  0  0  0  0  0  0  0  0  0  0
   24.2050   63.3190   -5.2010 N   0  0  0  0  0  4  0  0  0  0  0  0
   23.8150   63.6640   -3.8800 C   0  0  0  0  0  0  0  0  0  0  0  0
   24.7180   63.3420   -2.7550 C   0  0  0  0  0  0  0  0  0  0  0  0
   26.0420   63.1080   -3.1420 N   0  0  0  0  0  0  0  0  0  0  0  0
   26.2820   62.3100   -4.2630 C   0  0  0  0  0  0  0  0  0  0  0  0
   25.4970   62.7870   -5.4440 C   0  0  0  0  0  0  0  0  0  0  0  0
   27.1050   63.6720   -2.4220 C   0  0  0  0  0  0  0  0  0  0  0  0
   26.0120   64.1290   -8.0800 O   0  0  0  0  0  0  0  0  0  0  0  0
   21.0000   62.9170  -10.0380 C   0  0  0  0  0  0  0  0  0  0  0  0
   20.8570   62.6280  -11.2300 O   0  0  0  0  0  0  0  0  0  0  0  0
   18.9750   63.3030   -6.9530 C   0  0  0  0  0  0  0  0  0  0  0  0
   18.9940   62.5330   -5.9600 O   0  0  0  0  0  0  0  0  0  0  0  0
   17.8970   64.1160   -7.1200 O   0  0  0  0  0  0  0  0  0  0  0  0
   16.8640   64.1420   -6.1650 C   0  0  0  0  0  0  0  0  0  0  0  0
   16.0430   62.8890   -6.2950 C   0  0  0  0  0  0  0  0  0  0  0  0
   15.5940   64.1990  -10.4640 H   0  0  0  0  0  0  0  0  0  0  0  0
   17.8810   64.6620   -9.6350 H   0  0  0  0  0  0  0  0  0  0  0  0
   18.8380   60.5400   -9.8230 H   0  0  0  0  0  0  0  0  0  0  0  0
   16.5910   60.0890  -10.6380 H   0  0  0  0  0  0  0  0  0  0  0  0
   23.1720   62.9500  -11.3590 H   0  0  0  0  0  0  0  0  0  0  0  0
   25.4090   63.5040  -10.4300 H   0  0  0  0  0  0  0  0  0  0  0  0
   22.5530   64.3870   -5.8150 H   0  0  0  0  0  0  0  0  0  0  0  0
   24.0970   65.2000   -6.0070 H   0  0  0  0  0  0  0  0  0  0  0  0
   23.5760   62.3840   -5.3560 H   0  0  0  0  0  0  0  0  0  0  0  0
   23.5780   64.7650   -3.8470 H   0  0  0  0  0  0  0  0  0  0  0  0
   22.7830   63.2230   -3.6230 H   0  0  0  0  0  0  0  0  0  0  0  0
   24.3320   62.4660   -2.1350 H   0  0  0  0  0  0  0  0  0  0  0  0
   24.7350   64.1720   -1.9780 H   0  0  0  0  0  0  0  0  0  0  0  0
   26.0710   61.2150   -4.1070 H   0  0  0  0  0  0  0  0  0  0  0  0
   27.3750   62.3400   -4.5070 H   0  0  0  0  0  0  0  0  0  0  0  0
   26.1030   63.4870   -6.0520 H   0  0  0  0  0  0  0  0  0  0  0  0
   25.4450   61.8720   -6.1360 H   0  0  0  0  0  0  0  0  0  0  0  0
   27.8720   64.0520   -3.1300 H   0  0  0  0  0  0  0  0  0  0  0  0
   26.7390   64.6000   -1.8930 H   0  0  0  0  0  0  0  0  0  0  0  0
   27.5470   63.0510   -1.6190 H   0  0  0  0  0  0  0  0  0  0  0  0
   17.2640   64.2690   -5.1260 H   0  0  0  0  0  0  0  0  0  0  0  0
   16.2160   65.0570   -6.3110 H   0  0  0  0  0  0  0  0  0  0  0  0
   14.9430   63.1130   -6.2490 H   0  0  0  0  0  0  0  0  0  0  0  0
   16.3420   62.3570   -7.2150 H   0  0  0  0  0  0  0  0  0  0  0  0
   16.3320   62.2400   -5.4270 H   0  0  0  0  0  0  0  0  0  0  0  0
  1  2  1  0  0  0  0
  2  7  2  0  0  0  0
  2  3  1  0  0  0  0
  3  4  2  0  0  0  0
  4  5  1  0  0  0  0
  4 34  1  0  0  0  0
  5  8  1  0  0  0  0
  6 35  1  0  0  0  0
  6  5  2  0  0  0  0
  7  6  1  0  0  0  0
  8  9  2  0  0  0  0
  9 10  1  0  0  0  0
  9 28  1  0  0  0  0
 11 16  1  0  0  0  0
 11 10  1  0  0  0  0
 12 11  2  0  0  0  0
 13 14  2  0  0  0  0
 13 12  1  0  0  0  0
 14 15  1  0  0  0  0
 15 25  1  0  0  0  0
 15 16  2  0  0  0  0
 16 17  1  0  0  0  0
 17 40  1  0  0  0  0
 17 39  1  0  0  0  0
 17 18  1  0  0  0  0
 18 19  1  0  0  0  0
 19 42  1  0  0  0  0
 19 43  1  0  0  0  0
 19 20  1  0  0  0  0
 20 44  1  0  0  0  0
 20 45  1  0  0  0  0
 21 20  1  0  0  0  0
 21 24  1  0  0  0  0
 22 46  1  0  0  0  0
 22 21  1  0  0  0  0
 23 18  1  0  0  0  0
 23 22  1  0  0  0  0
 24 51  1  0  0  0  0
 24 52  1  0  0  0  0
 26 12  1  0  0  0  0
 26  8  1  0  0  0  0
 27 26  2  0  0  0  0
 28 29  2  0  0  0  0
 30 28  1  0  0  0  0
 30 31  1  0  0  0  0
 31 53  1  0  0  0  0
 32 55  1  0  0  0  0
 32 31  1  0  0  0  0
 32 57  1  0  0  0  0
 33  3  1  0  0  0  0
 36  7  1  0  0  0  0
 37 13  1  0  0  0  0
 38 14  1  0  0  0  0
 41 18  1  0  0  0  0
 47 22  1  0  0  0  0
 48 23  1  0  0  0  0
 49 23  1  0  0  0  0
 50 24  1  0  0  0  0
 54 31  1  0  0  0  0
 56 32  1  0  0  0  0
M  END
>  <Pose>
1

>  <Score>
-3.97

$$$$
