
 OpenBabel03202210193D

 61 65  0  0  1  0  0  0  0  0999 V2000
   25.7880   63.2200  -15.2190 B   0  0  0  0  0  0  0  0  0  0  0  0
   25.4420   63.2880  -13.3340 C   0  0  0  0  0  0  0  0  0  0  0  0
   26.4680   63.2210  -12.4260 C   0  0  0  0  0  0  0  0  0  0  0  0
   26.2130   63.2700  -11.0460 C   0  0  0  0  0  0  0  0  0  0  0  0
   24.9620   63.3850  -10.5300 C   0  0  0  0  0  0  0  0  0  0  0  0
   23.9340   63.4540  -11.4710 C   0  0  0  0  0  0  0  0  0  0  0  0
   24.1750   63.4060  -12.8350 C   0  0  0  0  0  0  0  0  0  0  0  0
   24.6110   63.3980   -9.1100 C   0  0  0  0  0  0  0  0  0  0  0  0
   25.4220   62.8390   -8.1050 C   0  0  0  0  0  0  0  0  0  0  0  0
   24.8780   63.0240   -6.8970 N   0  0  0  0  0  0  0  0  0  0  0  0
   25.0450   62.7970   -5.5710 C   0  0  0  0  0  0  0  0  0  0  0  0
   23.9530   63.3490   -4.9480 C   0  0  0  0  0  0  0  0  0  0  0  0
   23.1530   63.8940   -5.9060 N   0  0  0  0  0  0  0  0  0  0  0  0
   23.7400   63.6830   -7.0990 C   0  0  1  0  0  0  0  0  0  0  0  0
   23.5730   63.9140   -8.4500 N   0  0  0  0  0  0  0  0  0  0  0  0
   22.4360   64.6330   -8.9840 C   0  0  0  0  0  0  0  0  0  0  0  0
   21.1340   63.8710   -8.9040 C   0  0  0  0  0  0  0  0  0  0  0  0
   20.2980   64.0840  -10.1410 C   0  0  0  0  0  0  0  0  0  0  0  0
   19.4420   62.9840  -10.4890 N   0  0  0  0  0  0  0  0  0  0  0  0
   18.8310   63.3430  -11.7590 C   0  0  0  0  0  0  0  0  0  0  0  0
   17.3710   63.0970  -11.8380 C   0  0  0  0  0  0  0  0  0  0  0  0
   16.5980   63.5130  -10.7000 N   0  0  0  0  0  4  0  0  0  0  0  0
   17.3780   63.6440   -9.4870 C   0  0  0  0  0  0  0  0  0  0  0  0
   18.4770   62.6020   -9.5120 C   0  0  0  0  0  0  0  0  0  0  0  0
   15.7600   64.6310  -10.9980 C   0  0  0  0  0  0  0  0  0  0  0  0
   14.6130   64.3650  -11.9110 C   0  0  0  0  0  0  0  0  0  0  0  0
   14.8640   64.6990  -13.2410 O   0  0  0  0  0  0  0  0  0  0  0  0
   23.8750   63.2570   -3.5740 C   0  0  0  0  0  0  0  0  0  0  0  0
   24.8630   62.6280   -2.8260 C   0  0  0  0  0  0  0  0  0  0  0  0
   25.9530   62.0780   -3.4500 C   0  0  0  0  0  0  0  0  0  0  0  0
   26.0310   62.1720   -4.8450 C   0  0  0  0  0  0  0  0  0  0  0  0
   27.4840   63.1280  -12.7810 H   0  0  0  0  0  0  0  0  0  0  0  0
   27.0770   63.2280  -10.4300 H   0  0  0  0  0  0  0  0  0  0  0  0
   22.9270   63.5420  -11.1010 H   0  0  0  0  0  0  0  0  0  0  0  0
   23.3500   63.4610  -13.5220 H   0  0  0  0  0  0  0  0  0  0  0  0
   26.3680   62.3230   -8.3000 H   0  0  0  0  0  0  0  0  0  0  0  0
   22.2510   64.3830   -5.7150 H   0  0  0  0  0  0  0  0  0  0  0  0
   22.2530   65.5510   -8.3050 H   0  0  0  0  0  0  0  0  0  0  0  0
   22.5760   65.0700   -9.9530 H   0  0  0  0  0  0  0  0  0  0  0  0
   21.4370   62.7820   -8.9400 H   0  0  0  0  0  0  0  0  0  0  0  0
   20.5780   63.9920   -7.9810 H   0  0  0  0  0  0  0  0  0  0  0  0
   20.9450   64.2780  -11.0210 H   0  0  0  0  0  0  0  0  0  0  0  0
   19.7100   65.0400  -10.0110 H   0  0  0  0  0  0  0  0  0  0  0  0
   19.0810   64.3620  -12.1000 H   0  0  0  0  0  0  0  0  0  0  0  0
   19.3210   62.6610  -12.5140 H   0  0  0  0  0  0  0  0  0  0  0  0
   17.1940   62.0150  -12.1120 H   0  0  0  0  0  0  0  0  0  0  0  0
   17.0000   63.6570  -12.7470 H   0  0  0  0  0  0  0  0  0  0  0  0
   15.9290   62.7060  -10.4960 H   0  0  0  0  0  0  0  0  0  0  0  0
   16.7310   63.4130   -8.6070 H   0  0  0  0  0  0  0  0  0  0  0  0
   17.8340   64.6170   -9.3330 H   0  0  0  0  0  0  0  0  0  0  0  0
   18.0640   61.5940   -9.7850 H   0  0  0  0  0  0  0  0  0  0  0  0
   18.8820   62.5040   -8.5100 H   0  0  0  0  0  0  0  0  0  0  0  0
   16.3210   65.5060  -11.4380 H   0  0  0  0  0  0  0  0  0  0  0  0
   15.3370   65.0400  -10.0390 H   0  0  0  0  0  0  0  0  0  0  0  0
   14.4720   63.2430  -11.9160 H   0  0  0  0  0  0  0  0  0  0  0  0
   13.6480   64.7690  -11.5520 H   0  0  0  0  0  0  0  0  0  0  0  0
   15.7910   64.9760  -13.3420 H   0  0  0  0  0  0  0  0  0  0  0  0
   23.0340   63.6770   -3.0460 H   0  0  0  0  0  0  0  0  0  0  0  0
   24.8080   62.5520   -1.7560 H   0  0  0  0  0  0  0  0  0  0  0  0
   26.7240   61.5870   -2.8730 H   0  0  0  0  0  0  0  0  0  0  0  0
   26.8800   61.7450   -5.3540 H   0  0  0  0  0  0  0  0  0  0  0  0
  1  2  1  0  0  0  0
  2  7  2  0  0  0  0
  2  3  1  0  0  0  0
  3  4  2  0  0  0  0
  4  5  1  0  0  0  0
  4 33  1  0  0  0  0
  5  8  1  0  0  0  0
  6 34  1  0  0  0  0
  6  5  2  0  0  0  0
  7  6  1  0  0  0  0
  8 15  1  0  0  0  0
  8  9  2  0  0  0  0
  9 10  1  0  0  0  0
 10 11  1  0  0  0  0
 11 12  2  0  0  0  0
 11 31  1  0  0  0  0
 12 28  1  0  0  0  0
 13 37  1  0  0  0  0
 13 12  1  0  0  0  0
 14 15  1  1  0  0  0
 14 10  1  0  0  0  0
 14 13  1  0  0  0  0
 16 17  1  0  0  0  0
 16 15  1  0  0  0  0
 16 38  1  0  0  0  0
 17 41  1  0  0  0  0
 18 43  1  0  0  0  0
 18 17  1  0  0  0  0
 19 18  1  0  0  0  0
 19 24  1  0  0  0  0
 20 19  1  0  0  0  0
 21 20  1  0  0  0  0
 21 22  1  0  0  0  0
 22 48  1  0  0  0  0
 22 23  1  0  0  0  0
 23 50  1  0  0  0  0
 23 49  1  0  0  0  0
 24 23  1  0  0  0  0
 24 52  1  0  0  0  0
 25 22  1  0  0  0  0
 25 54  1  0  0  0  0
 26 56  1  0  0  0  0
 26 25  1  0  0  0  0
 27 26  1  0  0  0  0
 28 58  1  0  0  0  0
 28 29  2  0  0  0  0
 29 59  1  0  0  0  0
 30 60  1  0  0  0  0
 30 29  1  0  0  0  0
 31 30  2  0  0  0  0
 32  3  1  0  0  0  0
 35  7  1  0  0  0  0
 36  9  1  0  0  0  0
 39 16  1  0  0  0  0
 40 17  1  0  0  0  0
 42 18  1  0  0  0  0
 44 20  1  0  0  0  0
 45 20  1  0  0  0  0
 46 21  1  0  0  0  0
 47 21  1  0  0  0  0
 51 24  1  0  0  0  0
 53 25  1  0  0  0  0
 55 26  1  0  0  0  0
 57 27  1  0  0  0  0
 61 31  1  0  0  0  0
M  END
>  <Pose>
1

>  <Score>
-5.97

$$$$
