
 OpenBabel03202210193D

 60 63  0  0  1  0  0  0  0  0999 V2000
   22.8270   69.6680   -6.2430 B   0  0  0  0  0  0  0  0  0  0  0  0
   22.4830   67.8440   -6.6850 C   0  0  0  0  0  0  0  0  0  0  0  0
   23.3580   66.8620   -6.2850 C   0  0  0  0  0  0  0  0  0  0  0  0
   23.1080   65.5250   -6.6060 C   0  0  0  0  0  0  0  0  0  0  0  0
   21.9950   65.1600   -7.3220 C   0  0  0  0  0  0  0  0  0  0  0  0
   21.1370   66.1650   -7.7090 C   0  0  0  0  0  0  0  0  0  0  0  0
   21.3690   67.4930   -7.4000 C   0  0  0  0  0  0  0  0  0  0  0  0
   21.7410   63.7610   -7.6370 C   0  0  2  0  0  0  0  0  0  0  0  0
   22.9050   63.1340   -8.2280 N   0  0  0  0  0  0  0  0  0  0  0  0
   22.9300   63.5410   -9.5970 C   0  0  0  0  0  0  0  0  0  0  0  0
   23.9380   63.6140  -10.3440 O   0  0  0  0  0  0  0  0  0  0  0  0
   21.5480   63.8510   -9.9450 C   0  0  0  0  0  0  0  0  0  0  0  0
   21.0700   64.2510  -11.0360 O   0  0  0  0  0  0  0  0  0  0  0  0
   20.7370   63.6160   -8.7550 C   0  0  0  0  0  0  0  0  0  0  0  0
   19.4480   63.3790   -8.7090 C   0  0  0  0  0  0  0  0  0  0  0  0
   18.8910   63.2400   -7.4260 O   0  0  0  0  0  0  0  0  0  0  0  0
   18.6110   63.2550   -9.8970 C   0  0  0  0  0  0  0  0  0  0  0  0
   17.3750   63.8450  -10.0370 C   0  0  0  0  0  0  0  0  0  0  0  0
   16.5660   63.7150  -11.1520 C   0  0  0  0  0  0  0  0  0  0  0  0
   17.0120   62.9510  -12.1920 C   0  0  0  0  0  0  0  0  0  0  0  0
   18.2570   62.3350  -12.0950 C   0  0  0  0  0  0  0  0  0  0  0  0
   19.0360   62.4880  -10.9680 C   0  0  0  0  0  0  0  0  0  0  0  0
   15.3600   64.3770  -11.1200 O   0  0  0  0  0  0  0  0  0  0  0  0
   14.1070   63.8490  -10.8510 C   0  0  0  0  0  0  0  0  0  0  0  0
   23.8820   62.2500   -7.5700 C   0  0  0  0  0  0  0  0  0  0  0  0
   24.1000   62.6880   -6.1130 C   0  0  0  0  0  0  0  0  0  0  0  0
   25.3300   63.5470   -6.0360 C   0  0  0  0  0  0  0  0  0  0  0  0
   25.7460   63.6500   -4.6580 N   0  0  0  0  0  4  0  0  0  0  0  0
   26.6920   62.6560   -4.2580 C   0  0  0  0  0  0  0  0  0  0  0  0
   26.0930   61.2980   -4.1180 C   0  0  0  0  0  0  0  0  0  0  0  0
   25.0240   61.3160   -3.2390 O   0  0  0  0  0  0  0  0  0  0  0  0
   24.0570   62.1720   -3.7670 C   0  0  0  0  0  0  0  0  0  0  0  0
   24.6230   63.5790   -3.7410 C   0  0  0  0  0  0  0  0  0  0  0  0
   24.2260   67.1690   -5.7260 H   0  0  0  0  0  0  0  0  0  0  0  0
   23.8180   64.8060   -6.2710 H   0  0  0  0  0  0  0  0  0  0  0  0
   20.2680   65.8500   -8.2710 H   0  0  0  0  0  0  0  0  0  0  0  0
   20.6710   68.2510   -7.7160 H   0  0  0  0  0  0  0  0  0  0  0  0
   21.3910   63.2270   -6.7340 H   0  0  0  0  0  0  0  0  0  0  0  0
   17.0200   64.4630   -9.2300 H   0  0  0  0  0  0  0  0  0  0  0  0
   16.3950   62.8330  -13.0760 H   0  0  0  0  0  0  0  0  0  0  0  0
   18.5550   61.7390  -12.9580 H   0  0  0  0  0  0  0  0  0  0  0  0
   20.0110   61.9770  -10.9450 H   0  0  0  0  0  0  0  0  0  0  0  0
   13.3050   64.2580  -11.5290 H   0  0  0  0  0  0  0  0  0  0  0  0
   14.1340   62.7560  -10.8820 H   0  0  0  0  0  0  0  0  0  0  0  0
   13.7970   64.1740   -9.8360 H   0  0  0  0  0  0  0  0  0  0  0  0
   24.8450   62.3800   -8.0620 H   0  0  0  0  0  0  0  0  0  0  0  0
   23.4460   61.2490   -7.6160 H   0  0  0  0  0  0  0  0  0  0  0  0
   23.2580   63.2660   -5.7400 H   0  0  0  0  0  0  0  0  0  0  0  0
   24.2340   61.7960   -5.4650 H   0  0  0  0  0  0  0  0  0  0  0  0
   26.0990   63.0450   -6.6680 H   0  0  0  0  0  0  0  0  0  0  0  0
   25.1150   64.5350   -6.4370 H   0  0  0  0  0  0  0  0  0  0  0  0
   26.1760   64.5940   -4.5180 H   0  0  0  0  0  0  0  0  0  0  0  0
   27.5300   62.6360   -4.9900 H   0  0  0  0  0  0  0  0  0  0  0  0
   27.1360   62.9720   -3.2820 H   0  0  0  0  0  0  0  0  0  0  0  0
   25.6930   60.9530   -5.1050 H   0  0  0  0  0  0  0  0  0  0  0  0
   26.8910   60.5900   -3.7960 H   0  0  0  0  0  0  0  0  0  0  0  0
   23.1080   62.1520   -3.1970 H   0  0  0  0  0  0  0  0  0  0  0  0
   23.8050   61.9210   -4.8210 H   0  0  0  0  0  0  0  0  0  0  0  0
   25.0150   63.7390   -2.7180 H   0  0  0  0  0  0  0  0  0  0  0  0
   23.8460   64.3220   -3.9720 H   0  0  0  0  0  0  0  0  0  0  0  0
  2  3  1  0  0  0  0
  2  1  1  0  0  0  0
  3 34  1  0  0  0  0
  4  3  2  0  0  0  0
  4 35  1  0  0  0  0
  5  4  1  0  0  0  0
  6  7  1  0  0  0  0
  6  5  2  0  0  0  0
  7  2  2  0  0  0  0
  8  5  1  0  0  0  0
  8 38  1  1  0  0  0
  9  8  1  0  0  0  0
  9 25  1  0  0  0  0
 10  9  1  0  0  0  0
 11 10  2  0  0  0  0
 12 10  1  0  0  0  0
 12 14  1  0  0  0  0
 13 12  2  0  0  0  0
 14 15  2  0  0  0  0
 14  8  1  0  0  0  0
 15 16  1  0  0  0  0
 17 15  1  0  0  0  0
 18 17  1  0  0  0  0
 18 39  1  0  0  0  0
 19 23  1  0  0  0  0
 19 18  2  0  0  0  0
 20 21  2  0  0  0  0
 20 19  1  0  0  0  0
 21 22  1  0  0  0  0
 22 42  1  0  0  0  0
 22 17  2  0  0  0  0
 23 24  1  0  0  0  0
 24 45  1  0  0  0  0
 25 26  1  0  0  0  0
 26 27  1  0  0  0  0
 26 48  1  0  0  0  0
 26 49  1  0  0  0  0
 27 28  1  0  0  0  0
 28 52  1  0  0  0  0
 28 29  1  0  0  0  0
 28 33  1  0  0  0  0
 29 30  1  0  0  0  0
 29 54  1  0  0  0  0
 30 56  1  0  0  0  0
 30 31  1  0  0  0  0
 32 33  1  0  0  0  0
 32 31  1  0  0  0  0
 32 57  1  0  0  0  0
 33 59  1  0  0  0  0
 36  6  1  0  0  0  0
 37  7  1  0  0  0  0
 40 20  1  0  0  0  0
 41 21  1  0  0  0  0
 43 24  1  0  0  0  0
 44 24  1  0  0  0  0
 46 25  1  0  0  0  0
 47 25  1  0  0  0  0
 50 27  1  0  0  0  0
 51 27  1  0  0  0  0
 53 29  1  0  0  0  0
 55 30  1  0  0  0  0
 58 32  1  0  0  0  0
 60 33  1  0  0  0  0
M  END
>  <Pose>
1

>  <Score>
-6.03

$$$$
