
 OpenBabel03202210193D

 56 59  0  0  1  0  0  0  0  0999 V2000
   16.1320   61.2090  -10.5340 B   0  0  0  0  0  0  0  0  0  0  0  0
   17.7650   62.1670  -10.2450 C   0  0  0  0  0  0  0  0  0  0  0  0
   17.9790   63.4150  -10.7890 C   0  0  0  0  0  0  0  0  0  0  0  0
   19.1510   64.0790  -10.5700 C   0  0  0  0  0  0  0  0  0  0  0  0
   20.1870   63.5380   -9.7940 C   0  0  0  0  0  0  0  0  0  0  0  0
   19.9720   62.3160   -9.2630 C   0  0  0  0  0  0  0  0  0  0  0  0
   18.7760   61.6320   -9.4840 C   0  0  0  0  0  0  0  0  0  0  0  0
   21.3500   64.3220   -9.6270 C   0  0  1  0  0  0  0  0  0  0  0  0
   22.0480   64.5990   -8.4460 N   0  0  0  0  0  0  0  0  0  0  0  0
   23.0070   65.6470   -8.8510 C   0  0  0  0  0  0  0  0  0  0  0  0
   23.4720   66.5740   -8.1310 O   0  0  0  0  0  0  0  0  0  0  0  0
   23.2860   65.3600  -10.2620 C   0  0  0  0  0  0  0  0  0  0  0  0
   24.0630   65.9790  -11.0510 O   0  0  0  0  0  0  0  0  0  0  0  0
   22.4720   64.1750  -10.5960 C   0  0  0  0  0  0  0  0  0  0  0  0
   22.7370   63.2420  -11.4820 C   0  0  0  0  0  0  0  0  0  0  0  0
   21.8940   62.1460  -11.6240 O   0  0  0  0  0  0  0  0  0  0  0  0
   23.8940   63.2880  -12.3620 C   0  0  0  0  0  0  0  0  0  0  0  0
   23.8790   63.5720  -13.6910 C   0  0  0  0  0  0  0  0  0  0  0  0
   25.0650   63.6280  -14.4110 C   0  0  0  0  0  0  0  0  0  0  0  0
   26.2710   63.3980  -13.7880 C   0  0  0  0  0  0  0  0  0  0  0  0
   26.3290   63.1070  -12.4450 C   0  0  0  0  0  0  0  0  0  0  0  0
   25.1300   63.0570  -11.7470 C   0  0  0  0  0  0  0  0  0  0  0  0
   27.5660   63.4500  -14.5290 C   0  0  0  0  0  0  0  0  0  0  0  0
   22.0400   64.1820   -7.0520 C   0  0  0  0  0  0  0  0  0  0  0  0
   22.8180   65.0890   -6.1360 C   0  0  0  0  0  0  0  0  0  0  0  0
   23.9370   64.4600   -5.5130 N   0  0  0  0  0  4  0  0  0  0  0  0
   24.5740   63.5410   -6.4370 C   0  0  0  0  0  0  0  0  0  0  0  0
   25.7730   62.9310   -5.7590 C   0  0  0  0  0  0  0  0  0  0  0  0
   25.2710   62.0860   -4.7570 O   0  0  0  0  0  0  0  0  0  0  0  0
   24.6220   62.8710   -3.8330 C   0  0  0  0  0  0  0  0  0  0  0  0
   23.4430   63.6080   -4.4130 C   0  0  0  0  0  0  0  0  0  0  0  0
   17.1680   63.8290  -11.3930 H   0  0  0  0  0  0  0  0  0  0  0  0
   19.2750   65.0750  -11.0260 H   0  0  0  0  0  0  0  0  0  0  0  0
   20.6610   61.7640   -8.6360 H   0  0  0  0  0  0  0  0  0  0  0  0
   18.5890   60.6450   -9.0630 H   0  0  0  0  0  0  0  0  0  0  0  0
   20.9650   65.4150   -9.9310 H   0  0  0  0  0  0  0  0  0  0  0  0
   22.9230   63.7230  -14.1940 H   0  0  0  0  0  0  0  0  0  0  0  0
   25.0390   63.8560  -15.4680 H   0  0  0  0  0  0  0  0  0  0  0  0
   27.2780   62.9190  -11.9300 H   0  0  0  0  0  0  0  0  0  0  0  0
   25.1240   62.8300  -10.6820 H   0  0  0  0  0  0  0  0  0  0  0  0
   28.0490   62.4550  -14.5930 H   0  0  0  0  0  0  0  0  0  0  0  0
   27.3810   63.8140  -15.5780 H   0  0  0  0  0  0  0  0  0  0  0  0
   28.2670   64.1750  -14.0670 H   0  0  0  0  0  0  0  0  0  0  0  0
   20.9750   64.2420   -6.6820 H   0  0  0  0  0  0  0  0  0  0  0  0
   22.4190   63.1730   -6.9200 H   0  0  0  0  0  0  0  0  0  0  0  0
   23.2320   65.9630   -6.7410 H   0  0  0  0  0  0  0  0  0  0  0  0
   22.1300   65.5400   -5.3650 H   0  0  0  0  0  0  0  0  0  0  0  0
   24.6170   65.1290   -5.1250 H   0  0  0  0  0  0  0  0  0  0  0  0
   24.8950   63.9820   -7.3810 H   0  0  0  0  0  0  0  0  0  0  0  0
   23.8470   62.7400   -6.6970 H   0  0  0  0  0  0  0  0  0  0  0  0
   26.4260   63.6960   -5.3200 H   0  0  0  0  0  0  0  0  0  0  0  0
   26.3610   62.3220   -6.4710 H   0  0  0  0  0  0  0  0  0  0  0  0
   24.2360   62.1830   -3.0340 H   0  0  0  0  0  0  0  0  0  0  0  0
   25.3210   63.5790   -3.3760 H   0  0  0  0  0  0  0  0  0  0  0  0
   22.7250   62.9070   -4.8710 H   0  0  0  0  0  0  0  0  0  0  0  0
   22.9660   64.1900   -3.6190 H   0  0  0  0  0  0  0  0  0  0  0  0
  1  2  1  0  0  0  0
  2  7  1  0  0  0  0
  3  4  1  0  0  0  0
  3  2  2  0  0  0  0
  4  5  2  0  0  0  0
  5  8  1  0  0  0  0
  5  6  1  0  0  0  0
  6 34  1  0  0  0  0
  7  6  2  0  0  0  0
  7 35  1  0  0  0  0
  8 36  1  6  0  0  0
  8  9  1  0  0  0  0
  9 24  1  0  0  0  0
 10  9  1  0  0  0  0
 10 11  2  0  0  0  0
 12 10  1  0  0  0  0
 13 12  2  0  0  0  0
 14 12  1  0  0  0  0
 14  8  1  0  0  0  0
 15 14  2  0  0  0  0
 16 15  1  0  0  0  0
 17 22  1  0  0  0  0
 17 15  1  0  0  0  0
 18 17  2  0  0  0  0
 19 20  2  0  0  0  0
 19 18  1  0  0  0  0
 20 21  1  0  0  0  0
 21 39  1  0  0  0  0
 21 22  2  0  0  0  0
 22 40  1  0  0  0  0
 23 43  1  0  0  0  0
 23 20  1  0  0  0  0
 24 45  1  0  0  0  0
 24 44  1  0  0  0  0
 24 25  1  0  0  0  0
 25 26  1  0  0  0  0
 25 47  1  0  0  0  0
 26 48  1  0  0  0  0
 26 31  1  0  0  0  0
 27 28  1  0  0  0  0
 27 26  1  0  0  0  0
 28 51  1  0  0  0  0
 28 29  1  0  0  0  0
 29 30  1  0  0  0  0
 30 54  1  0  0  0  0
 30 53  1  0  0  0  0
 31 30  1  0  0  0  0
 31 56  1  0  0  0  0
 32  3  1  0  0  0  0
 33  4  1  0  0  0  0
 37 18  1  0  0  0  0
 38 19  1  0  0  0  0
 41 23  1  0  0  0  0
 42 23  1  0  0  0  0
 46 25  1  0  0  0  0
 49 27  1  0  0  0  0
 50 27  1  0  0  0  0
 52 28  1  0  0  0  0
 55 31  1  0  0  0  0
M  END
>  <Pose>
1

>  <Score>
-4.33

$$$$
