
 OpenBabel03202210193D

 53 56  0  0  1  0  0  0  0  0999 V2000
   24.8370   63.6660   -4.0000 B   0  0  0  0  0  0  0  0  0  0  0  0
   24.2180   63.7720   -5.7960 C   0  0  0  0  0  0  0  0  0  0  0  0
   23.6160   64.8930   -6.3200 C   0  0  0  0  0  0  0  0  0  0  0  0
   23.1730   64.9330   -7.6500 C   0  0  0  0  0  0  0  0  0  0  0  0
   23.3250   63.8540   -8.4730 C   0  0  0  0  0  0  0  0  0  0  0  0
   23.9320   62.7450   -7.9210 C   0  0  0  0  0  0  0  0  0  0  0  0
   24.3740   62.6880   -6.6190 C   0  0  0  0  0  0  0  0  0  0  0  0
   22.8830   63.8350   -9.8150 C   0  0  1  0  0  0  0  0  0  0  0  0
   23.5900   63.1770  -10.8520 N   0  0  0  0  0  0  0  0  0  0  0  0
   22.7430   63.3860  -12.0220 C   0  0  0  0  0  0  0  0  0  0  0  0
   23.1320   63.4460  -13.2200 O   0  0  0  0  0  0  0  0  0  0  0  0
   21.3790   63.5060  -11.5090 C   0  0  0  0  0  0  0  0  0  0  0  0
   20.3150   63.6870  -12.1560 O   0  0  0  0  0  0  0  0  0  0  0  0
   21.4860   63.3670  -10.0550 C   0  0  0  0  0  0  0  0  0  0  0  0
   20.5760   62.9000   -9.2190 C   0  0  0  0  0  0  0  0  0  0  0  0
   20.8650   62.7750   -7.8700 O   0  0  0  0  0  0  0  0  0  0  0  0
   19.2380   62.4970   -9.6270 C   0  0  0  0  0  0  0  0  0  0  0  0
   19.0290   61.1120   -9.6570 C   0  0  0  0  0  0  0  0  0  0  0  0
   17.8090   60.5650   -9.9830 C   0  0  0  0  0  0  0  0  0  0  0  0
   16.7620   61.4290  -10.2870 C   0  0  0  0  0  0  0  0  0  0  0  0
   16.9750   62.7890  -10.2550 C   0  0  0  0  0  0  0  0  0  0  0  0
   18.2020   63.3270   -9.9270 C   0  0  0  0  0  0  0  0  0  0  0  0
   15.2160   60.7230  -10.7000 Cl  0  0  0  0  0  0  0  0  0  0  0  0
   24.8750   62.4750  -10.9200 C   0  0  0  0  0  0  0  0  0  0  0  0
   25.4860   62.4340  -12.2860 C   0  0  0  0  0  0  0  0  0  0  0  0
   26.8130   63.0050  -12.3240 N   0  0  0  0  0  4  0  0  0  0  0  0
   26.8040   64.4410  -12.3560 C   0  0  0  0  0  0  0  0  0  0  0  0
   26.3110   65.0180  -13.6510 C   0  0  0  0  0  0  0  0  0  0  0  0
   26.9790   64.4840  -14.7540 O   0  0  0  0  0  0  0  0  0  0  0  0
   26.7270   63.1040  -14.7330 C   0  0  0  0  0  0  0  0  0  0  0  0
   27.4640   62.5420  -13.5360 C   0  0  0  0  0  0  0  0  0  0  0  0
   23.4990   65.7340   -5.6700 H   0  0  0  0  0  0  0  0  0  0  0  0
   22.7340   65.8730   -7.9310 H   0  0  0  0  0  0  0  0  0  0  0  0
   24.1000   61.8270   -8.5060 H   0  0  0  0  0  0  0  0  0  0  0  0
   24.8470   61.7980   -6.2210 H   0  0  0  0  0  0  0  0  0  0  0  0
   22.8320   64.9330  -10.1650 H   0  0  0  0  0  0  0  0  0  0  0  0
   19.8260   60.4200   -9.4240 H   0  0  0  0  0  0  0  0  0  0  0  0
   17.6870   59.4890   -9.9950 H   0  0  0  0  0  0  0  0  0  0  0  0
   16.1430   63.4300  -10.4970 H   0  0  0  0  0  0  0  0  0  0  0  0
   18.3390   64.4020   -9.8780 H   0  0  0  0  0  0  0  0  0  0  0  0
   24.6710   61.3990  -10.6410 H   0  0  0  0  0  0  0  0  0  0  0  0
   25.6140   62.9280  -10.2380 H   0  0  0  0  0  0  0  0  0  0  0  0
   24.8580   63.1130  -12.9230 H   0  0  0  0  0  0  0  0  0  0  0  0
   25.4680   61.4700  -12.8030 H   0  0  0  0  0  0  0  0  0  0  0  0
   27.4030   62.7000  -11.5260 H   0  0  0  0  0  0  0  0  0  0  0  0
   26.2610   64.9090  -11.5290 H   0  0  0  0  0  0  0  0  0  0  0  0
   27.8770   64.7660  -12.2530 H   0  0  0  0  0  0  0  0  0  0  0  0
   25.2090   64.9300  -13.7640 H   0  0  0  0  0  0  0  0  0  0  0  0
   26.5610   66.1070  -13.6410 H   0  0  0  0  0  0  0  0  0  0  0  0
   27.0790   62.6120  -15.6620 H   0  0  0  0  0  0  0  0  0  0  0  0
   25.6450   62.9780  -14.6810 H   0  0  0  0  0  0  0  0  0  0  0  0
   27.5030   61.4240  -13.5730 H   0  0  0  0  0  0  0  0  0  0  0  0
   28.5040   62.9580  -13.5850 H   0  0  0  0  0  0  0  0  0  0  0  0
  2  1  1  0  0  0  0
  3  2  1  0  0  0  0
  3 32  1  0  0  0  0
  4  3  2  0  0  0  0
  5  6  2  0  0  0  0
  5  4  1  0  0  0  0
  6  7  1  0  0  0  0
  7 35  1  0  0  0  0
  7  2  2  0  0  0  0
  8 36  1  6  0  0  0
  8  5  1  0  0  0  0
  9  8  1  0  0  0  0
 10 12  1  0  0  0  0
 10  9  1  0  0  0  0
 11 10  2  0  0  0  0
 12 14  1  0  0  0  0
 13 12  2  0  0  0  0
 14  8  1  0  0  0  0
 14 15  2  0  0  0  0
 15 16  1  0  0  0  0
 17 15  1  0  0  0  0
 18 17  1  0  0  0  0
 18 37  1  0  0  0  0
 19 18  2  0  0  0  0
 20 21  2  0  0  0  0
 20 19  1  0  0  0  0
 21 22  1  0  0  0  0
 22 40  1  0  0  0  0
 22 17  2  0  0  0  0
 23 20  1  0  0  0  0
 24  9  1  0  0  0  0
 24 41  1  0  0  0  0
 24 42  1  0  0  0  0
 25 24  1  0  0  0  0
 26 25  1  0  0  0  0
 26 45  1  0  0  0  0
 27 26  1  0  0  0  0
 27 47  1  0  0  0  0
 27 46  1  0  0  0  0
 28 49  1  0  0  0  0
 28 27  1  0  0  0  0
 29 30  1  0  0  0  0
 29 28  1  0  0  0  0
 30 51  1  0  0  0  0
 30 31  1  0  0  0  0
 31 26  1  0  0  0  0
 33  4  1  0  0  0  0
 34  6  1  0  0  0  0
 38 19  1  0  0  0  0
 39 21  1  0  0  0  0
 43 25  1  0  0  0  0
 44 25  1  0  0  0  0
 48 28  1  0  0  0  0
 50 30  1  0  0  0  0
 52 31  1  0  0  0  0
 53 31  1  0  0  0  0
M  END
>  <Pose>
1

>  <Score>
-4.95

$$$$
