
 OpenBabel03202210193D

 55 58  0  0  1  0  0  0  0  0999 V2000
   24.4090   63.8450   -3.8440 B   0  0  0  0  0  0  0  0  0  0  0  0
   23.8700   63.8720   -5.6750 C   0  0  0  0  0  0  0  0  0  0  0  0
   23.8610   62.7360   -6.4550 C   0  0  0  0  0  0  0  0  0  0  0  0
   23.4680   62.7720   -7.7790 C   0  0  0  0  0  0  0  0  0  0  0  0
   23.0730   63.9150   -8.3880 C   0  0  0  0  0  0  0  0  0  0  0  0
   23.0860   65.0660   -7.5830 C   0  0  0  0  0  0  0  0  0  0  0  0
   23.4720   65.0530   -6.2620 C   0  0  0  0  0  0  0  0  0  0  0  0
   22.6640   64.0790   -9.7690 C   0  0  1  0  0  0  0  0  0  0  0  0
   23.5150   63.5710  -10.7960 N   0  0  0  0  0  0  0  0  0  0  0  0
   22.6680   63.4190  -11.9640 C   0  0  0  0  0  0  0  0  0  0  0  0
   23.0900   63.3500  -13.1480 O   0  0  0  0  0  0  0  0  0  0  0  0
   21.2910   63.3650  -11.5120 C   0  0  0  0  0  0  0  0  0  0  0  0
   20.2460   63.2350  -12.2190 O   0  0  0  0  0  0  0  0  0  0  0  0
   21.3320   63.4900  -10.0690 C   0  0  0  0  0  0  0  0  0  0  0  0
   20.3810   63.1170   -9.2310 C   0  0  0  0  0  0  0  0  0  0  0  0
   20.6600   63.2920   -7.8540 O   0  0  0  0  0  0  0  0  0  0  0  0
   19.1030   62.5630   -9.6330 C   0  0  0  0  0  0  0  0  0  0  0  0
   19.0350   61.1670   -9.7110 C   0  0  0  0  0  0  0  0  0  0  0  0
   17.8700   60.5040  -10.0390 C   0  0  0  0  0  0  0  0  0  0  0  0
   16.7550   61.2110  -10.2960 N   0  0  0  0  0  0  0  0  0  0  0  0
   16.7920   62.5580  -10.2280 C   0  0  0  0  0  0  0  0  0  0  0  0
   17.9620   63.2390   -9.8970 C   0  0  0  0  0  0  0  0  0  0  0  0
   24.9530   63.2980  -10.8340 C   0  0  0  0  0  0  0  0  0  0  0  0
   25.5610   63.2880  -12.1950 C   0  0  0  0  0  0  0  0  0  0  0  0
   27.0320   62.9040  -12.1580 C   0  0  0  0  0  0  0  0  0  0  0  0
   27.6920   63.2340  -13.4000 N   0  0  0  0  0  4  0  0  0  0  0  0
   28.1190   62.0620  -14.1300 C   0  0  0  0  0  0  0  0  0  0  0  0
   28.3930   62.5160  -15.5660 C   0  0  0  0  0  0  0  0  0  0  0  0
   27.1690   62.7030  -16.2090 O   0  0  0  0  0  0  0  0  0  0  0  0
   26.2340   63.3040  -15.3680 C   0  0  0  0  0  0  0  0  0  0  0  0
   26.9060   64.0740  -14.2500 C   0  0  0  0  0  0  0  0  0  0  0  0
   24.1740   61.8140   -5.9850 H   0  0  0  0  0  0  0  0  0  0  0  0
   23.4600   61.8390   -8.3600 H   0  0  0  0  0  0  0  0  0  0  0  0
   22.7850   66.0230   -7.9880 H   0  0  0  0  0  0  0  0  0  0  0  0
   23.4670   65.9770   -5.6690 H   0  0  0  0  0  0  0  0  0  0  0  0
   22.5340   65.1720  -10.0030 H   0  0  0  0  0  0  0  0  0  0  0  0
   19.9040   60.5570   -9.5130 H   0  0  0  0  0  0  0  0  0  0  0  0
   17.8090   59.4280  -10.1010 H   0  0  0  0  0  0  0  0  0  0  0  0
   15.8910   63.1330  -10.4350 H   0  0  0  0  0  0  0  0  0  0  0  0
   17.9240   64.3120   -9.8280 H   0  0  0  0  0  0  0  0  0  0  0  0
   25.1040   62.3080  -10.3730 H   0  0  0  0  0  0  0  0  0  0  0  0
   25.5200   64.0230  -10.2130 H   0  0  0  0  0  0  0  0  0  0  0  0
   25.0160   62.5560  -12.8750 H   0  0  0  0  0  0  0  0  0  0  0  0
   25.4870   64.2650  -12.6770 H   0  0  0  0  0  0  0  0  0  0  0  0
   27.5140   63.4760  -11.3640 H   0  0  0  0  0  0  0  0  0  0  0  0
   27.0790   61.8110  -12.0310 H   0  0  0  0  0  0  0  0  0  0  0  0
   28.5590   63.7640  -13.1430 H   0  0  0  0  0  0  0  0  0  0  0  0
   29.0590   61.6270  -13.7600 H   0  0  0  0  0  0  0  0  0  0  0  0
   27.3400   61.2880  -14.1460 H   0  0  0  0  0  0  0  0  0  0  0  0
   29.0490   61.8200  -16.0860 H   0  0  0  0  0  0  0  0  0  0  0  0
   28.8840   63.5050  -15.4860 H   0  0  0  0  0  0  0  0  0  0  0  0
   25.6210   64.0360  -15.9310 H   0  0  0  0  0  0  0  0  0  0  0  0
   25.5760   62.5240  -14.9220 H   0  0  0  0  0  0  0  0  0  0  0  0
   26.1340   64.5710  -13.6660 H   0  0  0  0  0  0  0  0  0  0  0  0
   27.5160   64.8720  -14.7470 H   0  0  0  0  0  0  0  0  0  0  0  0
  2  1  1  0  0  0  0
  3 32  1  0  0  0  0
  3  2  2  0  0  0  0
  4  3  1  0  0  0  0
  5  4  2  0  0  0  0
  5  6  1  0  0  0  0
  6  7  2  0  0  0  0
  7  2  1  0  0  0  0
  7 35  1  0  0  0  0
  8 36  1  6  0  0  0
  8  5  1  0  0  0  0
  9  8  1  0  0  0  0
 10 12  1  0  0  0  0
 10  9  1  0  0  0  0
 11 10  2  0  0  0  0
 12 14  1  0  0  0  0
 13 12  2  0  0  0  0
 14  8  1  0  0  0  0
 14 15  2  0  0  0  0
 15 16  1  0  0  0  0
 17 15  1  0  0  0  0
 18 17  1  0  0  0  0
 18 37  1  0  0  0  0
 19 18  2  0  0  0  0
 20 21  2  0  0  0  0
 20 19  1  0  0  0  0
 21 22  1  0  0  0  0
 22 40  1  0  0  0  0
 22 17  2  0  0  0  0
 23  9  1  0  0  0  0
 23 41  1  0  0  0  0
 23 42  1  0  0  0  0
 24 25  1  0  0  0  0
 24 23  1  0  0  0  0
 25 46  1  0  0  0  0
 25 45  1  0  0  0  0
 26 47  1  0  0  0  0
 26 25  1  0  0  0  0
 27 48  1  0  0  0  0
 27 26  1  0  0  0  0
 28 51  1  0  0  0  0
 28 27  1  0  0  0  0
 29 28  1  0  0  0  0
 29 30  1  0  0  0  0
 30 53  1  0  0  0  0
 30 31  1  0  0  0  0
 31 54  1  0  0  0  0
 31 26  1  0  0  0  0
 33  4  1  0  0  0  0
 34  6  1  0  0  0  0
 38 19  1  0  0  0  0
 39 21  1  0  0  0  0
 43 24  1  0  0  0  0
 44 24  1  0  0  0  0
 49 27  1  0  0  0  0
 50 28  1  0  0  0  0
 52 30  1  0  0  0  0
 55 31  1  0  0  0  0
M  END
>  <Pose>
1

>  <Score>
-5.86

$$$$
