
 OpenBabel03202210193D

 57 60  0  0  1  0  0  0  0  0999 V2000
   23.4010   70.5760   -6.1280 B   0  0  0  0  0  0  0  0  0  0  0  0
   22.9450   68.7100   -6.0980 C   0  0  0  0  0  0  0  0  0  0  0  0
   21.9330   68.2170   -6.9010 C   0  0  0  0  0  0  0  0  0  0  0  0
   21.6140   66.8610   -6.8680 C   0  0  0  0  0  0  0  0  0  0  0  0
   22.2740   65.9710   -6.0540 C   0  0  0  0  0  0  0  0  0  0  0  0
   23.2790   66.4830   -5.2620 C   0  0  0  0  0  0  0  0  0  0  0  0
   23.6030   67.8200   -5.2860 C   0  0  0  0  0  0  0  0  0  0  0  0
   21.9100   64.5370   -6.0240 C   0  0  1  0  0  0  0  0  0  0  0  0
   21.9280   63.9650   -7.3820 N   0  0  0  0  0  0  0  0  0  0  0  0
   23.3110   63.8350   -7.6950 C   0  0  0  0  0  0  0  0  0  0  0  0
   23.7760   63.8170   -8.8710 O   0  0  0  0  0  0  0  0  0  0  0  0
   24.0660   63.7280   -6.4510 C   0  0  0  0  0  0  0  0  0  0  0  0
   25.3020   63.5960   -6.3310 O   0  0  0  0  0  0  0  0  0  0  0  0
   23.0710   63.8050   -5.3970 C   0  0  0  0  0  0  0  0  0  0  0  0
   23.1360   63.3180   -4.1840 C   0  0  0  0  0  0  0  0  0  0  0  0
   22.0670   63.4360   -3.3080 O   0  0  0  0  0  0  0  0  0  0  0  0
   24.3220   62.6390   -3.6960 C   0  0  0  0  0  0  0  0  0  0  0  0
   24.8370   61.4250   -3.9760 N   0  0  0  0  0  0  0  0  0  0  0  0
   25.9430   61.1970   -3.2530 C   0  0  0  0  0  0  0  0  0  0  0  0
   26.1280   62.3010   -2.4970 N   0  0  0  0  0  0  0  0  0  0  0  0
   25.1850   63.1940   -2.7260 C   0  0  0  0  0  0  0  0  0  0  0  0
   24.9890   64.5520   -2.1250 C   0  0  0  0  0  0  0  0  0  0  0  0
   26.6920   60.0240   -3.3550 C   0  0  0  0  0  0  0  0  0  0  0  0
   26.3050   59.0360   -4.2300 C   0  0  0  0  0  0  0  0  0  0  0  0
   25.1700   59.2870   -4.9660 C   0  0  0  0  0  0  0  0  0  0  0  0
   24.4520   60.4530   -4.8430 C   0  0  0  0  0  0  0  0  0  0  0  0
   20.7800   63.6400   -8.1880 C   0  0  0  0  0  0  0  0  0  0  0  0
   20.6410   64.2430   -9.5300 C   0  0  0  0  0  0  0  0  0  0  0  0
   19.7280   63.6530  -10.5310 C   0  0  0  0  0  0  0  0  0  0  0  0
   19.9940   62.3200  -10.9810 N   0  0  0  0  0  4  0  0  0  0  0  0
   18.7890   61.5100  -10.6450 C   0  0  0  0  0  0  0  0  0  0  0  0
   20.0480   62.2900  -12.4280 C   0  0  0  0  0  0  0  0  0  0  0  0
   21.3950   68.9110   -7.5580 H   0  0  0  0  0  0  0  0  0  0  0  0
   20.8230   66.5030   -7.5050 H   0  0  0  0  0  0  0  0  0  0  0  0
   23.7950   65.7930   -4.6120 H   0  0  0  0  0  0  0  0  0  0  0  0
   24.3890   68.1780   -4.6550 H   0  0  0  0  0  0  0  0  0  0  0  0
   20.9730   64.3330   -5.5020 H   0  0  0  0  0  0  0  0  0  0  0  0
   23.9280   64.7730   -1.9650 H   0  0  0  0  0  0  0  0  0  0  0  0
   25.4610   65.3360   -2.7890 H   0  0  0  0  0  0  0  0  0  0  0  0
   25.5140   64.6100   -1.1500 H   0  0  0  0  0  0  0  0  0  0  0  0
   27.5790   59.8760   -2.7540 H   0  0  0  0  0  0  0  0  0  0  0  0
   26.8730   58.1140   -4.3270 H   0  0  0  0  0  0  0  0  0  0  0  0
   24.8650   58.5020   -5.6610 H   0  0  0  0  0  0  0  0  0  0  0  0
   23.5670   60.6390   -5.4190 H   0  0  0  0  0  0  0  0  0  0  0  0
   19.8260   63.7960   -7.6030 H   0  0  0  0  0  0  0  0  0  0  0  0
   20.8380   62.5090   -8.3470 H   0  0  0  0  0  0  0  0  0  0  0  0
   21.6480   64.4940   -9.9810 H   0  0  0  0  0  0  0  0  0  0  0  0
   20.2200   65.2990   -9.3310 H   0  0  0  0  0  0  0  0  0  0  0  0
   19.5900   64.3410  -11.4230 H   0  0  0  0  0  0  0  0  0  0  0  0
   18.6810   63.6560  -10.0870 H   0  0  0  0  0  0  0  0  0  0  0  0
   20.8130   61.8540  -10.5900 H   0  0  0  0  0  0  0  0  0  0  0  0
   18.9200   60.4720  -10.9770 H   0  0  0  0  0  0  0  0  0  0  0  0
   18.5980   61.5760   -9.5560 H   0  0  0  0  0  0  0  0  0  0  0  0
   17.9790   61.9600  -11.2560 H   0  0  0  0  0  0  0  0  0  0  0  0
   20.3540   63.2760  -12.8470 H   0  0  0  0  0  0  0  0  0  0  0  0
   20.8370   61.5690  -12.7220 H   0  0  0  0  0  0  0  0  0  0  0  0
   19.1130   61.9250  -12.8910 H   0  0  0  0  0  0  0  0  0  0  0  0
  1  2  1  0  0  0  0
  2  7  1  0  0  0  0
  3  4  1  0  0  0  0
  3  2  2  0  0  0  0
  4  5  2  0  0  0  0
  5  8  1  0  0  0  0
  5  6  1  0  0  0  0
  6 35  1  0  0  0  0
  7  6  2  0  0  0  0
  7 36  1  0  0  0  0
  8 37  1  1  0  0  0
  8 14  1  0  0  0  0
  9  8  1  0  0  0  0
 10  9  1  0  0  0  0
 10 12  1  0  0  0  0
 11 10  2  0  0  0  0
 12 13  2  0  0  0  0
 12 14  1  0  0  0  0
 14 15  2  0  0  0  0
 15 17  1  0  0  0  0
 15 16  1  0  0  0  0
 17 21  2  0  0  0  0
 18 17  1  0  0  0  0
 18 19  1  0  0  0  0
 19 20  2  0  0  0  0
 21 20  1  0  0  0  0
 21 22  1  0  0  0  0
 22 38  1  0  0  0  0
 22 40  1  0  0  0  0
 23 19  1  0  0  0  0
 23 41  1  0  0  0  0
 24 23  2  0  0  0  0
 25 26  2  0  0  0  0
 25 24  1  0  0  0  0
 26 18  1  0  0  0  0
 27 45  1  0  0  0  0
 27  9  1  0  0  0  0
 28 48  1  0  0  0  0
 28 27  1  0  0  0  0
 29 50  1  0  0  0  0
 29 28  1  0  0  0  0
 30 31  1  0  0  0  0
 30 51  1  0  0  0  0
 30 29  1  0  0  0  0
 31 53  1  0  0  0  0
 32 30  1  0  0  0  0
 33  3  1  0  0  0  0
 34  4  1  0  0  0  0
 39 22  1  0  0  0  0
 42 24  1  0  0  0  0
 43 25  1  0  0  0  0
 44 26  1  0  0  0  0
 46 27  1  0  0  0  0
 47 28  1  0  0  0  0
 49 29  1  0  0  0  0
 52 31  1  0  0  0  0
 54 31  1  0  0  0  0
 55 32  1  0  0  0  0
 56 32  1  0  0  0  0
 57 32  1  0  0  0  0
M  END
>  <Pose>
1

>  <Score>
-5.30

$$$$
