
 OpenBabel03202210193D

 62 66  0  0  1  0  0  0  0  0999 V2000
   25.4220   63.2590  -14.6710 B   0  0  0  0  0  0  0  0  0  0  0  0
   24.4320   63.4890  -13.0570 C   0  0  0  0  0  0  0  0  0  0  0  0
   23.8340   64.6910  -12.7260 C   0  0  0  0  0  0  0  0  0  0  0  0
   23.1180   64.8580  -11.5600 C   0  0  0  0  0  0  0  0  0  0  0  0
   22.9780   63.8190  -10.6850 C   0  0  0  0  0  0  0  0  0  0  0  0
   23.5660   62.6290  -11.0070 C   0  0  0  0  0  0  0  0  0  0  0  0
   24.2850   62.4430  -12.1660 C   0  0  0  0  0  0  0  0  0  0  0  0
   22.2320   63.9290   -9.4690 C   0  0  2  0  0  0  0  0  0  0  0  0
   22.7250   63.5140   -8.2230 N   0  0  0  0  0  0  0  0  0  0  0  0
   21.5900   63.7300   -7.3420 C   0  0  0  0  0  0  0  0  0  0  0  0
   21.6020   63.9570   -6.0840 O   0  0  0  0  0  0  0  0  0  0  0  0
   20.3810   63.6430   -8.1530 C   0  0  0  0  0  0  0  0  0  0  0  0
   19.1540   63.7650   -7.8340 O   0  0  0  0  0  0  0  0  0  0  0  0
   20.8560   63.3720   -9.5080 C   0  0  0  0  0  0  0  0  0  0  0  0
   20.2020   62.8170  -10.5110 C   0  0  0  0  0  0  0  0  0  0  0  0
   20.8110   62.6920  -11.7520 O   0  0  0  0  0  0  0  0  0  0  0  0
   18.8440   62.3110  -10.3810 C   0  0  0  0  0  0  0  0  0  0  0  0
   17.6930   62.9870  -10.5360 N   0  0  0  0  0  0  0  0  0  0  0  0
   16.6400   62.1530  -10.3690 C   0  0  0  0  0  0  0  0  0  0  0  0
   17.1550   60.9420  -10.1060 N   0  0  0  0  0  0  0  0  0  0  0  0
   18.4850   60.9910  -10.1030 C   0  0  0  0  0  0  0  0  0  0  0  0
   19.4770   59.9100   -9.8620 C   0  0  0  0  0  0  0  0  0  0  0  0
   15.3330   62.5840  -10.4630 C   0  0  0  0  0  0  0  0  0  0  0  0
   15.0410   63.9000  -10.7330 C   0  0  0  0  0  0  0  0  0  0  0  0
   16.1010   64.7620  -10.9040 C   0  0  0  0  0  0  0  0  0  0  0  0
   17.3710   64.2860  -10.8020 C   0  0  0  0  0  0  0  0  0  0  0  0
   23.9290   63.0180   -7.6390 C   0  0  0  0  0  0  0  0  0  0  0  0
   24.6470   63.7070   -6.5890 C   0  0  0  0  0  0  0  0  0  0  0  0
   24.0710   63.6670   -5.1930 C   0  0  0  0  0  0  0  0  0  0  0  0
   25.1170   63.7850   -4.1820 N   0  0  0  0  0  4  0  0  0  0  0  0
   26.1910   62.8490   -4.3420 C   0  0  0  0  0  0  0  0  0  0  0  0
   25.9750   61.5260   -3.6670 C   0  0  0  0  0  0  0  0  0  0  0  0
   24.6810   61.3110   -3.2740 O   0  0  0  0  0  0  0  0  0  0  0  0
   24.1240   62.3050   -2.5130 C   0  0  0  0  0  0  0  0  0  0  0  0
   24.5990   63.6790   -2.8520 C   0  0  0  0  0  0  0  0  0  0  0  0
   23.9390   65.5300  -13.4160 H   0  0  0  0  0  0  0  0  0  0  0  0
   22.6680   65.8620  -11.3700 H   0  0  0  0  0  0  0  0  0  0  0  0
   23.4880   61.7420  -10.3520 H   0  0  0  0  0  0  0  0  0  0  0  0
   24.7550   61.4830  -12.4190 H   0  0  0  0  0  0  0  0  0  0  0  0
   22.0380   65.0470   -9.3390 H   0  0  0  0  0  0  0  0  0  0  0  0
   20.2910   60.0120  -10.6060 H   0  0  0  0  0  0  0  0  0  0  0  0
   18.9660   58.9510  -10.0170 H   0  0  0  0  0  0  0  0  0  0  0  0
   19.8390   60.0120   -8.8230 H   0  0  0  0  0  0  0  0  0  0  0  0
   14.5190   61.8930  -10.3260 H   0  0  0  0  0  0  0  0  0  0  0  0
   14.0470   64.2780  -10.8160 H   0  0  0  0  0  0  0  0  0  0  0  0
   15.8900   65.7940  -11.1190 H   0  0  0  0  0  0  0  0  0  0  0  0
   18.2210   64.9750  -10.9290 H   0  0  0  0  0  0  0  0  0  0  0  0
   24.6700   62.7120   -8.4460 H   0  0  0  0  0  0  0  0  0  0  0  0
   23.6420   62.0010   -7.2180 H   0  0  0  0  0  0  0  0  0  0  0  0
   25.7690   63.6380   -6.5920 H   0  0  0  0  0  0  0  0  0  0  0  0
   24.5570   64.8220   -6.8510 H   0  0  0  0  0  0  0  0  0  0  0  0
   23.5820   62.6910   -4.9760 H   0  0  0  0  0  0  0  0  0  0  0  0
   23.4050   64.5360   -5.0650 H   0  0  0  0  0  0  0  0  0  0  0  0
   25.5300   64.7440   -4.3020 H   0  0  0  0  0  0  0  0  0  0  0  0
   26.5500   62.7240   -5.3840 H   0  0  0  0  0  0  0  0  0  0  0  0
   27.0730   63.3140   -3.8040 H   0  0  0  0  0  0  0  0  0  0  0  0
   26.7090   61.3260   -2.8370 H   0  0  0  0  0  0  0  0  0  0  0  0
   26.2200   60.7270   -4.4260 H   0  0  0  0  0  0  0  0  0  0  0  0
   24.2150   62.0970   -1.4110 H   0  0  0  0  0  0  0  0  0  0  0  0
   23.0110   62.2840   -2.7010 H   0  0  0  0  0  0  0  0  0  0  0  0
   25.4360   63.9260   -2.1540 H   0  0  0  0  0  0  0  0  0  0  0  0
   23.8380   64.4700   -2.7000 H   0  0  0  0  0  0  0  0  0  0  0  0
  1  2  1  0  0  0  0
  2  3  2  0  0  0  0
  2  7  1  0  0  0  0
  3  4  1  0  0  0  0
  4 37  1  0  0  0  0
  4  5  2  0  0  0  0
  5  8  1  0  0  0  0
  6  5  1  0  0  0  0
  6 38  1  0  0  0  0
  7  6  2  0  0  0  0
  8 40  1  1  0  0  0
  8  9  1  0  0  0  0
  9 27  1  0  0  0  0
  9 10  1  0  0  0  0
 10 11  2  0  0  0  0
 12 13  2  0  0  0  0
 12 10  1  0  0  0  0
 14  8  1  0  0  0  0
 14 12  1  0  0  0  0
 15 17  1  0  0  0  0
 15 14  2  0  0  0  0
 16 15  1  0  0  0  0
 17 21  2  0  0  0  0
 18 17  1  0  0  0  0
 18 19  1  0  0  0  0
 19 20  2  0  0  0  0
 20 21  1  0  0  0  0
 21 22  1  0  0  0  0
 22 43  1  0  0  0  0
 23 19  1  0  0  0  0
 23 44  1  0  0  0  0
 24 23  2  0  0  0  0
 25 26  2  0  0  0  0
 25 24  1  0  0  0  0
 26 18  1  0  0  0  0
 27 49  1  0  0  0  0
 27 28  1  0  0  0  0
 28 29  1  0  0  0  0
 29 53  1  0  0  0  0
 29 52  1  0  0  0  0
 29 30  1  0  0  0  0
 30 35  1  0  0  0  0
 31 30  1  0  0  0  0
 31 56  1  0  0  0  0
 31 32  1  0  0  0  0
 32 33  1  0  0  0  0
 32 57  1  0  0  0  0
 33 34  1  0  0  0  0
 34 59  1  0  0  0  0
 35 62  1  0  0  0  0
 35 34  1  0  0  0  0
 35 61  1  0  0  0  0
 36  3  1  0  0  0  0
 39  7  1  0  0  0  0
 41 22  1  0  0  0  0
 42 22  1  0  0  0  0
 45 24  1  0  0  0  0
 46 25  1  0  0  0  0
 47 26  1  0  0  0  0
 48 27  1  0  0  0  0
 50 28  1  0  0  0  0
 51 28  1  0  0  0  0
 54 30  1  0  0  0  0
 55 31  1  0  0  0  0
 58 32  1  0  0  0  0
 60 34  1  0  0  0  0
M  END
>  <Pose>
1

>  <Score>
-7.25

$$$$
