
 OpenBabel03202210193D

 54 57  0  0  1  0  0  0  0  0999 V2000
   25.0210   63.3580  -13.7270 B   0  0  0  0  0  0  0  0  0  0  0  0
   23.7840   63.4850  -12.2760 C   0  0  0  0  0  0  0  0  0  0  0  0
   22.4580   63.2710  -12.5200 C   0  0  0  0  0  0  0  0  0  0  0  0
   21.5570   63.3590  -11.4850 C   0  0  0  0  0  0  0  0  0  0  0  0
   21.9000   63.6530  -10.1840 C   0  0  0  0  0  0  0  0  0  0  0  0
   23.2620   63.8660   -9.9690 C   0  0  0  0  0  0  0  0  0  0  0  0
   24.1760   63.7820  -10.9920 C   0  0  0  0  0  0  0  0  0  0  0  0
   20.8960   63.7400   -9.0890 C   0  0  1  0  0  0  0  0  0  0  0  0
   19.7710   62.8750   -9.3150 N   0  0  0  0  0  0  0  0  0  0  0  0
   19.9020   61.7700   -8.4360 C   0  0  0  0  0  0  0  0  0  0  0  0
   19.2170   60.7090   -8.4820 O   0  0  0  0  0  0  0  0  0  0  0  0
   20.9600   62.0530   -7.4630 C   0  0  0  0  0  0  0  0  0  0  0  0
   21.3580   61.3160   -6.5280 O   0  0  0  0  0  0  0  0  0  0  0  0
   21.4760   63.3730   -7.7800 C   0  0  0  0  0  0  0  0  0  0  0  0
   22.2620   64.1010   -7.0030 C   0  0  0  0  0  0  0  0  0  0  0  0
   22.5940   65.3930   -7.4560 O   0  0  0  0  0  0  0  0  0  0  0  0
   22.8220   63.7000   -5.7370 C   0  0  0  0  0  0  0  0  0  0  0  0
   24.0590   63.3680   -5.3480 N   0  0  0  0  0  0  0  0  0  0  0  0
   24.0770   63.0200   -4.0490 C   0  0  0  0  0  0  0  0  0  0  0  0
   22.8170   63.1330   -3.5960 N   0  0  0  0  0  0  0  0  0  0  0  0
   22.0300   63.5430   -4.5920 C   0  0  0  0  0  0  0  0  0  0  0  0
   20.5640   63.7870   -4.4830 C   0  0  0  0  0  0  0  0  0  0  0  0
   25.2310   62.6440   -3.3700 C   0  0  0  0  0  0  0  0  0  0  0  0
   26.4120   62.6300   -4.0590 C   0  0  0  0  0  0  0  0  0  0  0  0
   26.3980   62.9890   -5.3940 C   0  0  0  0  0  0  0  0  0  0  0  0
   25.2290   63.3520   -6.0220 C   0  0  0  0  0  0  0  0  0  0  0  0
   18.6720   63.0880  -10.2820 C   0  0  0  0  0  0  0  0  0  0  0  0
   17.5620   63.8860   -9.6330 C   0  0  0  0  0  0  0  0  0  0  0  0
   16.9760   64.8480  -10.4990 N   0  0  0  0  0  4  0  0  0  0  0  0
   16.9150   64.2610  -11.8380 C   0  0  0  0  0  0  0  0  0  0  0  0
   15.6650   65.2840  -10.1300 C   0  0  0  0  0  0  0  0  0  0  0  0
   22.0880   63.0290  -13.5280 H   0  0  0  0  0  0  0  0  0  0  0  0
   20.5180   63.1840  -11.7180 H   0  0  0  0  0  0  0  0  0  0  0  0
   23.6140   64.1020   -8.9750 H   0  0  0  0  0  0  0  0  0  0  0  0
   25.2280   63.9490  -10.8110 H   0  0  0  0  0  0  0  0  0  0  0  0
   20.5240   64.7900   -9.1050 H   0  0  0  0  0  0  0  0  0  0  0  0
   20.3320   64.8740   -4.5350 H   0  0  0  0  0  0  0  0  0  0  0  0
   20.1030   63.2660   -5.3640 H   0  0  0  0  0  0  0  0  0  0  0  0
   20.1760   63.3090   -3.5840 H   0  0  0  0  0  0  0  0  0  0  0  0
   25.1420   62.3770   -2.3160 H   0  0  0  0  0  0  0  0  0  0  0  0
   27.3130   62.3380   -3.5340 H   0  0  0  0  0  0  0  0  0  0  0  0
   27.3250   62.9870   -5.9690 H   0  0  0  0  0  0  0  0  0  0  0  0
   25.1880   63.6380   -7.0670 H   0  0  0  0  0  0  0  0  0  0  0  0
   18.2950   62.1140  -10.6490 H   0  0  0  0  0  0  0  0  0  0  0  0
   19.1150   63.6510  -11.1130 H   0  0  0  0  0  0  0  0  0  0  0  0
   18.0150   64.3760   -8.7330 H   0  0  0  0  0  0  0  0  0  0  0  0
   16.8190   63.1530   -9.2150 H   0  0  0  0  0  0  0  0  0  0  0  0
   17.5770   65.7140  -10.5940 H   0  0  0  0  0  0  0  0  0  0  0  0
   16.2150   63.4140  -11.8680 H   0  0  0  0  0  0  0  0  0  0  0  0
   16.6460   65.0510  -12.5950 H   0  0  0  0  0  0  0  0  0  0  0  0
   17.9050   63.8740  -12.1640 H   0  0  0  0  0  0  0  0  0  0  0  0
   15.0990   65.4990  -11.0710 H   0  0  0  0  0  0  0  0  0  0  0  0
   15.0770   64.5120   -9.5920 H   0  0  0  0  0  0  0  0  0  0  0  0
   15.6930   66.2590   -9.5830 H   0  0  0  0  0  0  0  0  0  0  0  0
  1  2  1  0  0  0  0
  2  7  1  0  0  0  0
  3  2  2  0  0  0  0
  3  4  1  0  0  0  0
  4  5  2  0  0  0  0
  5  6  1  0  0  0  0
  5  8  1  0  0  0  0
  6 34  1  0  0  0  0
  7 35  1  0  0  0  0
  7  6  2  0  0  0  0
  8 36  1  1  0  0  0
  8 14  1  0  0  0  0
  9  8  1  0  0  0  0
  9 10  1  0  0  0  0
 10 12  1  0  0  0  0
 11 10  2  0  0  0  0
 12 13  2  0  0  0  0
 14 12  1  0  0  0  0
 14 15  2  0  0  0  0
 15 17  1  0  0  0  0
 16 15  1  0  0  0  0
 17 18  1  0  0  0  0
 17 21  2  0  0  0  0
 18 19  1  0  0  0  0
 19 20  2  0  0  0  0
 19 23  1  0  0  0  0
 21 22  1  0  0  0  0
 21 20  1  0  0  0  0
 22 39  1  0  0  0  0
 23 40  1  0  0  0  0
 24 41  1  0  0  0  0
 24 23  2  0  0  0  0
 25 24  1  0  0  0  0
 26 25  2  0  0  0  0
 26 18  1  0  0  0  0
 27 28  1  0  0  0  0
 27  9  1  0  0  0  0
 28 47  1  0  0  0  0
 28 46  1  0  0  0  0
 29 31  1  0  0  0  0
 29 28  1  0  0  0  0
 30 29  1  0  0  0  0
 31 53  1  0  0  0  0
 31 54  1  0  0  0  0
 32  3  1  0  0  0  0
 33  4  1  0  0  0  0
 37 22  1  0  0  0  0
 38 22  1  0  0  0  0
 42 25  1  0  0  0  0
 43 26  1  0  0  0  0
 44 27  1  0  0  0  0
 45 27  1  0  0  0  0
 48 29  1  0  0  0  0
 49 30  1  0  0  0  0
 50 30  1  0  0  0  0
 51 30  1  0  0  0  0
 52 31  1  0  0  0  0
M  END
>  <Pose>
1

>  <Score>
-4.89

$$$$
