
 OpenBabel03202210193D

 47 50  0  0  1  0  0  0  0  0999 V2000
   17.0080   58.5990   -9.5990 B   0  0  0  0  0  0  0  0  0  0  0  0
   17.9660   60.2610   -9.5470 C   0  0  0  0  0  0  0  0  0  0  0  0
   17.5110   61.3620  -10.2280 C   0  0  0  0  0  0  0  0  0  0  0  0
   18.1770   62.5340  -10.2020 C   0  0  0  0  0  0  0  0  0  0  0  0
   19.3940   62.6880   -9.4650 C   0  0  0  0  0  0  0  0  0  0  0  0
   19.8150   61.5600   -8.7970 C   0  0  0  0  0  0  0  0  0  0  0  0
   19.1340   60.3680   -8.8230 C   0  0  0  0  0  0  0  0  0  0  0  0
   20.0230   63.9030   -9.5760 N   0  0  0  0  0  0  0  0  0  0  0  0
   20.6270   65.0740   -9.6830 C   0  0  0  0  0  0  0  0  0  0  0  0
   20.1440   66.2620   -9.8610 O   0  0  0  0  0  0  0  0  0  0  0  0
   22.1670   65.1530   -9.6000 C   0  0  2  0  0  0  0  0  0  0  0  0
   22.6630   64.4850  -10.8480 C   0  0  0  0  0  0  0  0  0  0  0  0
   22.9770   63.0590  -10.6950 C   0  0  0  0  0  0  0  0  0  0  0  0
   22.8250   62.3100  -11.6980 O   0  0  0  0  0  0  0  0  0  0  0  0
   23.4330   62.5590   -9.4500 N   0  0  0  0  0  0  0  0  0  0  0  0
   23.2770   63.3310   -8.2790 C   0  0  0  0  0  0  0  0  0  0  0  0
   23.7370   62.8330   -7.0890 N   0  0  0  0  0  0  0  0  0  0  0  0
   23.6350   63.5140   -5.9460 C   0  0  0  0  0  0  0  0  0  0  0  0
   23.0590   64.7220   -5.9920 N   0  0  0  0  0  0  0  0  0  0  0  0
   22.5820   65.2640   -7.1500 C   0  0  0  0  0  0  0  0  0  0  0  0
   22.6760   64.5800   -8.3460 C   0  0  0  0  0  0  0  0  0  0  0  0
   21.9660   66.5480   -7.1450 N   0  0  0  0  0  0  0  0  0  0  0  0
   24.1260   62.9660   -4.7010 N   0  0  0  0  0  0  0  0  0  0  0  0
   23.2640   63.0440   -3.5750 C   0  0  0  0  0  0  0  0  0  0  0  0
   23.6100   62.0950   -2.4640 C   0  0  0  0  0  0  0  0  0  0  0  0
   24.6650   61.2510   -2.7950 O   0  0  0  0  0  0  0  0  0  0  0  0
   25.7600   61.9550   -3.2770 C   0  0  0  0  0  0  0  0  0  0  0  0
   25.4490   62.3750   -4.6900 C   0  0  0  0  0  0  0  0  0  0  0  0
   16.5820   61.2690  -10.8050 H   0  0  0  0  0  0  0  0  0  0  0  0
   17.8210   63.4110  -10.7470 H   0  0  0  0  0  0  0  0  0  0  0  0
   20.7550   61.6020   -8.2140 H   0  0  0  0  0  0  0  0  0  0  0  0
   19.4970   59.4910   -8.2760 H   0  0  0  0  0  0  0  0  0  0  0  0
   18.8260   64.4900   -9.8570 H   0  0  0  0  0  0  0  0  0  0  0  0
   22.4220   66.2560   -9.6900 H   0  0  0  0  0  0  0  0  0  0  0  0
   23.5780   65.0430  -11.1910 H   0  0  0  0  0  0  0  0  0  0  0  0
   21.8770   64.6010  -11.6400 H   0  0  0  0  0  0  0  0  0  0  0  0
   23.8950   61.6070   -9.3680 H   0  0  0  0  0  0  0  0  0  0  0  0
   22.1150   67.2460   -7.8790 H   0  0  0  0  0  0  0  0  0  0  0  0
   21.3300   66.7940   -6.3440 H   0  0  0  0  0  0  0  0  0  0  0  0
   23.3590   64.0970   -3.1790 H   0  0  0  0  0  0  0  0  0  0  0  0
   22.2040   62.9530   -3.9280 H   0  0  0  0  0  0  0  0  0  0  0  0
   23.8640   62.6360   -1.5180 H   0  0  0  0  0  0  0  0  0  0  0  0
   22.7330   61.4630   -2.2470 H   0  0  0  0  0  0  0  0  0  0  0  0
   26.6200   61.2240   -3.2550 H   0  0  0  0  0  0  0  0  0  0  0  0
   25.9990   62.8140   -2.6220 H   0  0  0  0  0  0  0  0  0  0  0  0
   26.2090   63.0800   -5.0950 H   0  0  0  0  0  0  0  0  0  0  0  0
   25.5000   61.4600   -5.3390 H   0  0  0  0  0  0  0  0  0  0  0  0
  1  2  1  0  0  0  0
  2  7  1  0  0  0  0
  3  4  1  0  0  0  0
  3  2  2  0  0  0  0
  4  5  2  0  0  0  0
  5  6  1  0  0  0  0
  6 31  1  0  0  0  0
  7  6  2  0  0  0  0
  7 32  1  0  0  0  0
  8  5  1  0  0  0  0
  9 11  1  0  0  0  0
  9  8  1  0  0  0  0
 10  9  2  0  0  0  0
 11 34  1  6  0  0  0
 11 21  1  0  0  0  0
 12 13  1  0  0  0  0
 12 11  1  0  0  0  0
 13 15  1  0  0  0  0
 14 13  2  0  0  0  0
 15 37  1  0  0  0  0
 15 16  1  0  0  0  0
 16 17  1  0  0  0  0
 17 18  2  0  0  0  0
 18 23  1  0  0  0  0
 19 18  1  0  0  0  0
 20 22  1  0  0  0  0
 20 19  2  0  0  0  0
 21 16  2  0  0  0  0
 21 20  1  0  0  0  0
 22 39  1  0  0  0  0
 23 28  1  0  0  0  0
 23 24  1  0  0  0  0
 24 40  1  0  0  0  0
 24 25  1  0  0  0  0
 25 43  1  0  0  0  0
 25 42  1  0  0  0  0
 26 25  1  0  0  0  0
 27 44  1  0  0  0  0
 27 26  1  0  0  0  0
 27 45  1  0  0  0  0
 28 27  1  0  0  0  0
 29  3  1  0  0  0  0
 30  4  1  0  0  0  0
 33  8  1  0  0  0  0
 35 12  1  0  0  0  0
 36 12  1  0  0  0  0
 38 22  1  0  0  0  0
 41 24  1  0  0  0  0
 46 28  1  0  0  0  0
 47 28  1  0  0  0  0
M  END
>  <Pose>
1

>  <Score>
-6.76

$$$$
