
 OpenBabel03202210193D

 47 50  0  0  1  0  0  0  0  0999 V2000
   26.7990   61.1770   -2.5670 B   0  0  0  0  0  0  0  0  0  0  0  0
   25.6190   62.1360   -3.7300 C   0  0  0  0  0  0  0  0  0  0  0  0
   26.0170   62.5230   -4.9920 C   0  0  0  0  0  0  0  0  0  0  0  0
   25.1760   63.2190   -5.8480 C   0  0  0  0  0  0  0  0  0  0  0  0
   23.8960   63.5500   -5.4570 C   0  0  0  0  0  0  0  0  0  0  0  0
   23.5040   63.1590   -4.1920 C   0  0  0  0  0  0  0  0  0  0  0  0
   24.3380   62.4680   -3.3390 C   0  0  0  0  0  0  0  0  0  0  0  0
   23.0340   64.2670   -6.3440 N   0  0  0  0  0  0  0  0  0  0  0  0
   22.3290   65.3570   -6.0950 N   0  0  0  0  0  0  0  0  0  0  0  0
   21.6450   65.7440   -7.1590 N   0  0  0  0  0  0  0  0  0  0  0  0
   21.8980   64.8770   -8.1760 C   0  0  0  0  0  0  0  0  0  0  0  0
   22.7770   63.9610   -7.6280 C   0  0  0  0  0  0  0  0  0  0  0  0
   23.2010   62.9740   -8.4260 N   0  0  0  0  0  0  0  0  0  0  0  0
   22.7830   62.8900   -9.7010 C   0  0  0  0  0  0  0  0  0  0  0  0
   21.9240   63.7830  -10.2440 N   0  0  0  0  0  0  0  0  0  0  0  0
   21.4750   64.7860   -9.4810 C   0  0  0  0  0  0  0  0  0  0  0  0
   20.6810   65.6130   -9.9800 O   0  0  0  0  0  0  0  0  0  0  0  0
   21.5310   63.6090  -11.6300 C   0  0  0  0  0  0  0  0  0  0  0  0
   20.4300   62.5850  -11.7340 C   0  0  0  0  0  0  0  0  0  0  0  0
   20.5740   61.5590  -12.4520 O   0  0  0  0  0  0  0  0  0  0  0  0
   19.2150   62.7530  -11.0290 N   0  0  0  0  0  0  0  0  0  0  0  0
   18.8840   61.9240   -9.8950 C   0  0  0  0  0  0  0  0  0  0  0  0
   17.4350   61.5010  -10.0650 C   0  0  2  0  0  0  0  0  0  0  0  0
   16.5710   62.5530  -10.2200 O   0  0  0  0  0  0  0  0  0  0  0  0
   17.1720   63.7760  -10.3950 C   0  0  1  0  0  0  0  0  0  0  0  0
   18.2710   63.7670  -11.4380 C   0  0  0  0  0  0  0  0  0  0  0  0
   16.2040   64.8820  -10.6920 C   0  0  0  0  0  0  0  0  0  0  0  0
   17.0460   60.7880   -8.7660 C   0  0  0  0  0  0  0  0  0  0  0  0
   27.0140   62.2680   -5.3050 H   0  0  0  0  0  0  0  0  0  0  0  0
   25.4960   63.5170   -6.8340 H   0  0  0  0  0  0  0  0  0  0  0  0
   22.5100   63.4040   -3.8590 H   0  0  0  0  0  0  0  0  0  0  0  0
   24.0270   62.1600   -2.3400 H   0  0  0  0  0  0  0  0  0  0  0  0
   23.1500   62.0700  -10.3310 H   0  0  0  0  0  0  0  0  0  0  0  0
   21.1440   64.5510  -12.0650 H   0  0  0  0  0  0  0  0  0  0  0  0
   22.3720   63.1980  -12.2260 H   0  0  0  0  0  0  0  0  0  0  0  0
   19.0340   62.4540   -8.9310 H   0  0  0  0  0  0  0  0  0  0  0  0
   19.5430   61.0410   -9.9270 H   0  0  0  0  0  0  0  0  0  0  0  0
   17.3990   60.7570  -10.8950 H   0  0  0  0  0  0  0  0  0  0  0  0
   17.6840   64.0410   -9.4250 H   0  0  0  0  0  0  0  0  0  0  0  0
   18.7170   64.7780  -11.4530 H   0  0  0  0  0  0  0  0  0  0  0  0
   17.9020   63.4990  -12.4420 H   0  0  0  0  0  0  0  0  0  0  0  0
   16.5690   65.8300  -10.2420 H   0  0  0  0  0  0  0  0  0  0  0  0
   16.0970   65.0730  -11.7880 H   0  0  0  0  0  0  0  0  0  0  0  0
   15.2070   64.6810  -10.2250 H   0  0  0  0  0  0  0  0  0  0  0  0
   17.9460   60.2420   -8.4310 H   0  0  0  0  0  0  0  0  0  0  0  0
   16.7580   61.4960   -7.9830 H   0  0  0  0  0  0  0  0  0  0  0  0
   16.2510   60.0240   -8.9730 H   0  0  0  0  0  0  0  0  0  0  0  0
  2  7  1  0  0  0  0
  2  1  1  0  0  0  0
  3  2  2  0  0  0  0
  4  5  2  0  0  0  0
  4  3  1  0  0  0  0
  5  6  1  0  0  0  0
  6 31  1  0  0  0  0
  6  7  2  0  0  0  0
  7 32  1  0  0  0  0
  8  9  1  0  0  0  0
  8  5  1  0  0  0  0
 10  9  2  0  0  0  0
 11 12  2  0  0  0  0
 11 10  1  0  0  0  0
 12  8  1  0  0  0  0
 13 12  1  0  0  0  0
 14 13  2  0  0  0  0
 15 14  1  0  0  0  0
 15 16  1  0  0  0  0
 16 11  1  0  0  0  0
 17 16  2  0  0  0  0
 18 15  1  0  0  0  0
 19 18  1  0  0  0  0
 19 21  1  0  0  0  0
 20 19  2  0  0  0  0
 21 22  1  0  0  0  0
 22 36  1  0  0  0  0
 23 38  1  6  0  0  0
 23 22  1  0  0  0  0
 23 28  1  0  0  0  0
 24 23  1  0  0  0  0
 25 24  1  0  0  0  0
 25 39  1  1  0  0  0
 26 21  1  0  0  0  0
 26 25  1  0  0  0  0
 27 25  1  0  0  0  0
 27 42  1  0  0  0  0
 27 44  1  0  0  0  0
 28 45  1  0  0  0  0
 28 46  1  0  0  0  0
 29  3  1  0  0  0  0
 30  4  1  0  0  0  0
 33 14  1  0  0  0  0
 34 18  1  0  0  0  0
 35 18  1  0  0  0  0
 37 22  1  0  0  0  0
 40 26  1  0  0  0  0
 41 26  1  0  0  0  0
 43 27  1  0  0  0  0
 47 28  1  0  0  0  0
M  END
>  <Pose>
1

>  <Score>
-7.21

$$$$
