
 OpenBabel03202210193D

 47 50  0  0  1  0  0  0  0  0999 V2000
   10.2420   63.3860  -15.7950 B   0  0  0  0  0  0  0  0  0  0  0  0
   11.6700   63.4270  -14.5190 C   0  0  0  0  0  0  0  0  0  0  0  0
   12.2670   62.2810  -14.0720 C   0  0  0  0  0  0  0  0  0  0  0  0
   13.3090   62.3180  -13.1400 C   0  0  0  0  0  0  0  0  0  0  0  0
   13.7740   63.4990  -12.6380 C   0  0  0  0  0  0  0  0  0  0  0  0
   13.1800   64.6460  -13.0800 C   0  0  0  0  0  0  0  0  0  0  0  0
   12.1340   64.6200  -14.0150 C   0  0  0  0  0  0  0  0  0  0  0  0
   14.8390   63.5420  -11.6860 N   0  0  0  0  0  0  0  0  0  0  0  0
   15.2630   62.5400  -10.7690 C   0  0  0  0  0  0  0  0  0  0  0  0
   14.6750   61.4550  -10.5700 O   0  0  0  0  0  0  0  0  0  0  0  0
   16.4940   62.9410  -10.0710 C   0  0  2  0  0  0  0  0  0  0  0  0
   16.4430   64.4600  -10.1840 C   0  0  0  0  0  0  0  0  0  0  0  0
   15.7210   64.6630  -11.4800 C   0  0  0  0  0  0  0  0  0  0  0  0
   15.9280   65.6710  -12.1810 O   0  0  0  0  0  0  0  0  0  0  0  0
   17.7200   62.4360  -10.6460 N   0  0  0  0  0  4  0  0  0  0  0  0
   18.4720   63.4620  -11.3280 C   0  0  0  0  0  0  0  0  0  0  0  0
   19.5910   64.0660  -10.5080 C   0  0  0  0  0  0  0  0  0  0  0  0
   20.2910   63.0590   -9.7530 N   0  0  0  0  0  0  0  0  0  0  0  0
   19.9540   61.7010  -10.1120 C   0  0  0  0  0  0  0  0  0  0  0  0
   18.4540   61.5880   -9.7790 C   0  0  0  0  0  0  0  0  0  0  0  0
   21.2100   63.3420   -8.7370 C   0  0  0  0  0  0  0  0  0  0  0  0
   20.8950   63.8380   -7.4880 C   0  0  0  0  0  0  0  0  0  0  0  0
   21.8500   64.1240   -6.5250 C   0  0  0  0  0  0  0  0  0  0  0  0
   23.1770   63.9190   -6.7920 C   0  0  0  0  0  0  0  0  0  0  0  0
   23.5480   63.4260   -8.0270 C   0  0  0  0  0  0  0  0  0  0  0  0
   22.5760   63.1470   -8.9710 C   0  0  0  0  0  0  0  0  0  0  0  0
   24.1870   64.1870   -5.8680 O   0  0  0  0  0  0  0  0  0  0  0  0
   11.9200   61.3450  -14.4510 H   0  0  0  0  0  0  0  0  0  0  0  0
   13.7100   61.3780  -12.8540 H   0  0  0  0  0  0  0  0  0  0  0  0
   13.4550   65.6190  -12.7600 H   0  0  0  0  0  0  0  0  0  0  0  0
   11.6710   65.5310  -14.3600 H   0  0  0  0  0  0  0  0  0  0  0  0
   16.4530   62.7360   -8.9750 H   0  0  0  0  0  0  0  0  0  0  0  0
   15.8990   64.9080   -9.3370 H   0  0  0  0  0  0  0  0  0  0  0  0
   17.4780   64.8410  -10.2420 H   0  0  0  0  0  0  0  0  0  0  0  0
   17.3780   61.8040  -11.4470 H   0  0  0  0  0  0  0  0  0  0  0  0
   17.7710   64.2830  -11.5930 H   0  0  0  0  0  0  0  0  0  0  0  0
   18.9060   63.0970  -12.2860 H   0  0  0  0  0  0  0  0  0  0  0  0
   20.3300   64.4860  -11.2520 H   0  0  0  0  0  0  0  0  0  0  0  0
   19.1810   64.8970   -9.9530 H   0  0  0  0  0  0  0  0  0  0  0  0
   20.0530   61.5920  -11.2110 H   0  0  0  0  0  0  0  0  0  0  0  0
   20.5090   60.9180   -9.6230 H   0  0  0  0  0  0  0  0  0  0  0  0
   18.2880   61.9210   -8.7250 H   0  0  0  0  0  0  0  0  0  0  0  0
   18.1140   60.5490   -9.8780 H   0  0  0  0  0  0  0  0  0  0  0  0
   19.8280   64.0020   -7.2580 H   0  0  0  0  0  0  0  0  0  0  0  0
   21.5330   64.5030   -5.5860 H   0  0  0  0  0  0  0  0  0  0  0  0
   24.5910   63.2540   -8.2700 H   0  0  0  0  0  0  0  0  0  0  0  0
   22.8430   62.7570   -9.9530 H   0  0  0  0  0  0  0  0  0  0  0  0
  1  2  1  0  0  0  0
  2  3  2  0  0  0  0
  2  7  1  0  0  0  0
  3  4  1  0  0  0  0
  4 29  1  0  0  0  0
  4  5  2  0  0  0  0
  5  8  1  0  0  0  0
  6 30  1  0  0  0  0
  6  5  1  0  0  0  0
  7  6  2  0  0  0  0
  8 13  1  0  0  0  0
  8  9  1  0  0  0  0
  9 10  2  0  0  0  0
  9 11  1  0  0  0  0
 11 32  1  1  0  0  0
 12 11  1  0  0  0  0
 12 33  1  0  0  0  0
 13 12  1  0  0  0  0
 14 13  2  0  0  0  0
 15 11  1  0  0  0  0
 15 20  1  0  0  0  0
 16 15  1  0  0  0  0
 16 17  1  0  0  0  0
 17 39  1  0  0  0  0
 17 18  1  0  0  0  0
 18 21  1  0  0  0  0
 19 20  1  0  0  0  0
 19 18  1  0  0  0  0
 19 41  1  0  0  0  0
 20 42  1  0  0  0  0
 21 22  1  0  0  0  0
 22 44  1  0  0  0  0
 22 23  2  0  0  0  0
 23 45  1  0  0  0  0
 24 23  1  0  0  0  0
 24 27  1  0  0  0  0
 25 24  2  0  0  0  0
 26 21  2  0  0  0  0
 26 25  1  0  0  0  0
 28  3  1  0  0  0  0
 31  7  1  0  0  0  0
 34 12  1  0  0  0  0
 35 15  1  0  0  0  0
 36 16  1  0  0  0  0
 37 16  1  0  0  0  0
 38 17  1  0  0  0  0
 40 19  1  0  0  0  0
 43 20  1  0  0  0  0
 46 25  1  0  0  0  0
 47 26  1  0  0  0  0
M  END
>  <Pose>
1

>  <Score>
-5.36

$$$$
