
 OpenBabel03202210193D

 56 59  0  0  1  0  0  0  0  0999 V2000
   13.9980   63.6750  -10.9450 B   0  0  0  0  0  0  0  0  0  0  0  0
   15.7600   63.0000  -10.6340 C   0  0  0  0  0  0  0  0  0  0  0  0
   16.8610   63.8230  -10.5830 C   0  0  0  0  0  0  0  0  0  0  0  0
   18.1480   63.3210  -10.3560 C   0  0  0  0  0  0  0  0  0  0  0  0
   18.3550   61.9800  -10.1730 C   0  0  0  0  0  0  0  0  0  0  0  0
   17.2460   61.1640  -10.2260 C   0  0  0  0  0  0  0  0  0  0  0  0
   15.9680   61.6500  -10.4500 C   0  0  0  0  0  0  0  0  0  0  0  0
   19.6770   61.4860   -9.9430 N   0  0  0  0  0  0  0  0  0  0  0  0
   20.8930   62.0050  -10.4900 C   0  0  0  0  0  0  0  0  0  0  0  0
   21.0410   62.6430  -11.5610 O   0  0  0  0  0  0  0  0  0  0  0  0
   21.9940   61.6560   -9.5550 C   0  0  2  0  0  0  0  0  0  0  0  0
   21.4350   60.6340   -8.5900 C   0  0  0  0  0  0  0  0  0  0  0  0
   20.0730   60.3850   -9.1340 C   0  0  0  0  0  0  0  0  0  0  0  0
   19.3510   59.3480   -8.9190 O   0  0  0  0  0  0  0  0  0  0  0  0
   22.4810   62.8240   -8.9400 N   0  0  2  0  0  0  0  0  0  0  0  0
   23.7020   62.7800   -8.2430 C   0  0  0  0  0  0  0  0  0  0  0  0
   23.9250   64.1360   -7.5600 C   0  0  0  0  0  0  0  0  0  0  0  0
   22.9130   64.3660   -6.4590 C   0  0  1  0  0  0  0  0  0  0  0  0
   21.5850   63.9010   -6.9020 C   0  0  0  0  0  0  0  0  0  0  0  0
   21.5210   63.7080   -8.3960 C   0  0  0  0  0  0  0  0  0  0  0  0
   23.4170   63.8110   -5.2710 N   0  0  0  0  0  0  0  0  0  0  0  0
   24.8050   63.6830   -5.1190 C   0  0  0  0  0  0  0  0  0  0  0  0
   25.0820   62.2030   -4.7990 C   0  0  0  0  0  0  0  0  0  0  0  0
   24.4440   61.9490   -3.4490 C   0  0  0  0  0  0  0  0  0  0  0  0
   23.4570   62.9950   -3.0500 C   0  0  0  0  0  0  0  0  0  0  0  0
   22.5840   63.4690   -4.2220 C   0  0  0  0  0  0  0  0  0  0  0  0
   22.8540   65.8600   -6.2770 C   0  0  0  0  0  0  0  0  0  0  0  0
   23.9250   66.5170   -6.1030 O   0  0  0  0  0  0  0  0  0  0  0  0
   21.6410   66.5880   -6.2900 N   0  0  0  0  0  0  0  0  0  0  0  0
   16.6900   64.8710  -10.7280 H   0  0  0  0  0  0  0  0  0  0  0  0
   18.9660   64.0340  -10.3310 H   0  0  0  0  0  0  0  0  0  0  0  0
   17.3770   60.1060  -10.0880 H   0  0  0  0  0  0  0  0  0  0  0  0
   15.1040   60.9840  -10.4880 H   0  0  0  0  0  0  0  0  0  0  0  0
   22.7620   61.1200  -10.1760 H   0  0  0  0  0  0  0  0  0  0  0  0
   21.2930   61.0350   -7.5640 H   0  0  0  0  0  0  0  0  0  0  0  0
   21.9830   59.6850   -8.6240 H   0  0  0  0  0  0  0  0  0  0  0  0
   23.6560   62.0010   -7.4420 H   0  0  0  0  0  0  0  0  0  0  0  0
   24.6120   62.6420   -8.8810 H   0  0  0  0  0  0  0  0  0  0  0  0
   23.6810   64.8870   -8.3590 H   0  0  0  0  0  0  0  0  0  0  0  0
   24.9600   64.2490   -7.2450 H   0  0  0  0  0  0  0  0  0  0  0  0
   20.8330   64.7200   -6.6880 H   0  0  0  0  0  0  0  0  0  0  0  0
   21.1770   63.0390   -6.3410 H   0  0  0  0  0  0  0  0  0  0  0  0
   20.4650   63.4650   -8.7150 H   0  0  0  0  0  0  0  0  0  0  0  0
   21.6940   64.7110   -8.8980 H   0  0  0  0  0  0  0  0  0  0  0  0
   25.3350   63.9470   -6.0350 H   0  0  0  0  0  0  0  0  0  0  0  0
   25.1350   64.2690   -4.2360 H   0  0  0  0  0  0  0  0  0  0  0  0
   24.5680   61.5480   -5.5490 H   0  0  0  0  0  0  0  0  0  0  0  0
   26.1680   62.0270   -4.8040 H   0  0  0  0  0  0  0  0  0  0  0  0
   24.0460   60.9160   -3.3670 H   0  0  0  0  0  0  0  0  0  0  0  0
   25.2940   61.9820   -2.7100 H   0  0  0  0  0  0  0  0  0  0  0  0
   22.7480   62.5330   -2.3100 H   0  0  0  0  0  0  0  0  0  0  0  0
   23.9200   63.8820   -2.5500 H   0  0  0  0  0  0  0  0  0  0  0  0
   21.9170   64.2350   -3.8100 H   0  0  0  0  0  0  0  0  0  0  0  0
   21.9360   62.6030   -4.4910 H   0  0  0  0  0  0  0  0  0  0  0  0
   21.3560   67.0870   -7.1420 H   0  0  0  0  0  0  0  0  0  0  0  0
   21.0320   66.6250   -5.4510 H   0  0  0  0  0  0  0  0  0  0  0  0
  1  2  1  0  0  0  0
  2  3  2  0  0  0  0
  2  7  1  0  0  0  0
  3  4  1  0  0  0  0
  4 31  1  0  0  0  0
  4  5  2  0  0  0  0
  5  8  1  0  0  0  0
  6  5  1  0  0  0  0
  6 32  1  0  0  0  0
  7  6  2  0  0  0  0
  8 13  1  0  0  0  0
  9  8  1  0  0  0  0
  9 11  1  0  0  0  0
 10  9  2  0  0  0  0
 11 34  1  6  0  0  0
 11 15  1  0  0  0  0
 11 12  1  0  0  0  0
 12 35  1  0  0  0  0
 13 14  2  0  0  0  0
 13 12  1  0  0  0  0
 15 20  1  1  0  0  0
 15 16  1  0  0  0  0
 16 17  1  0  0  0  0
 16 37  1  0  0  0  0
 17 40  1  0  0  0  0
 17 18  1  0  0  0  0
 18 27  1  1  0  0  0
 18 21  1  0  0  0  0
 19 41  1  0  0  0  0
 19 18  1  0  0  0  0
 19 42  1  0  0  0  0
 20 19  1  0  0  0  0
 21 22  1  0  0  0  0
 21 26  1  0  0  0  0
 22 23  1  0  0  0  0
 22 46  1  0  0  0  0
 23 24  1  0  0  0  0
 24 49  1  0  0  0  0
 24 25  1  0  0  0  0
 24 50  1  0  0  0  0
 25 52  1  0  0  0  0
 25 51  1  0  0  0  0
 26 53  1  0  0  0  0
 26 25  1  0  0  0  0
 27 28  2  0  0  0  0
 29 27  1  0  0  0  0
 29 56  1  0  0  0  0
 30  3  1  0  0  0  0
 33  7  1  0  0  0  0
 36 12  1  0  0  0  0
 38 16  1  0  0  0  0
 39 17  1  0  0  0  0
 43 20  1  0  0  0  0
 44 20  1  0  0  0  0
 45 22  1  0  0  0  0
 47 23  1  0  0  0  0
 48 23  1  0  0  0  0
 54 26  1  0  0  0  0
 55 29  1  0  0  0  0
M  END
>  <Pose>
1

>  <Score>
-4.49

$$$$
