
 OpenBabel03202210193D

 49 52  0  0  0  0  0  0  0  0999 V2000
   12.7320   62.2590  -11.4600 B   0  0  0  0  0  0  0  0  0  0  0  0
   14.5870   62.4690  -11.0300 C   0  0  0  0  0  0  0  0  0  0  0  0
   15.3750   61.3840  -10.7030 C   0  0  0  0  0  0  0  0  0  0  0  0
   16.7220   61.5420  -10.3920 C   0  0  0  0  0  0  0  0  0  0  0  0
   17.3200   62.7850  -10.3970 C   0  0  0  0  0  0  0  0  0  0  0  0
   16.5280   63.8650  -10.7230 C   0  0  0  0  0  0  0  0  0  0  0  0
   15.1930   63.7100  -11.0330 C   0  0  0  0  0  0  0  0  0  0  0  0
   18.6930   62.9850  -10.0840 N   0  0  0  0  0  0  0  0  0  0  0  0
   19.2730   63.8840   -9.2720 C   0  0  0  0  0  0  0  0  0  0  0  0
   18.6120   64.7380   -8.6280 O   0  0  0  0  0  0  0  0  0  0  0  0
   20.6490   63.7280   -9.2550 C   0  0  0  0  0  0  0  0  0  0  0  0
   20.9090   62.7160  -10.0730 C   0  0  0  0  0  0  0  0  0  0  0  0
   22.2430   62.5660  -10.0570 N   0  0  0  0  0  0  0  0  0  0  0  0
   22.7820   63.4630   -9.2510 N   0  0  0  0  0  0  0  0  0  0  0  0
   21.8190   64.1880   -8.7470 N   0  0  0  0  0  0  0  0  0  0  0  0
   21.9340   65.2860   -7.8190 C   0  0  0  0  0  0  0  0  0  0  0  0
   22.3150   64.7470   -6.4590 C   0  0  0  0  0  0  0  0  0  0  0  0
   21.4250   64.2710   -5.7200 O   0  0  0  0  0  0  0  0  0  0  0  0
   23.6530   64.7830   -6.0380 N   0  0  0  0  0  0  0  0  0  0  0  0
   24.2810   63.8390   -5.2010 C   0  0  0  0  0  0  0  0  0  0  0  0
   23.8640   63.4720   -3.9470 C   0  0  0  0  0  0  0  0  0  0  0  0
   24.5360   62.5520   -3.1690 C   0  0  0  0  0  0  0  0  0  0  0  0
   25.6780   61.9770   -3.6850 C   0  0  0  0  0  0  0  0  0  0  0  0
   26.1320   62.3200   -4.9480 C   0  0  0  0  0  0  0  0  0  0  0  0
   25.4510   63.2370   -5.7020 C   0  0  0  0  0  0  0  0  0  0  0  0
   26.3700   61.0450   -2.9170 O   0  0  0  0  0  0  0  0  0  0  0  0
   26.5270   59.7280   -3.4060 C   0  0  0  0  0  0  0  0  0  0  0  0
   24.0890   62.1980   -1.8980 O   0  0  0  0  0  0  0  0  0  0  0  0
   22.7440   61.7160   -1.7790 C   0  0  0  0  0  0  0  0  0  0  0  0
   19.7150   62.2550  -10.5860 C   0  0  0  0  0  0  0  0  0  0  0  0
   19.5890   61.2870  -11.4070 O   0  0  0  0  0  0  0  0  0  0  0  0
   14.8950   60.4060  -10.7020 H   0  0  0  0  0  0  0  0  0  0  0  0
   17.3280   60.6900  -10.1380 H   0  0  0  0  0  0  0  0  0  0  0  0
   17.0070   64.8420  -10.7250 H   0  0  0  0  0  0  0  0  0  0  0  0
   14.5900   64.5850  -11.2880 H   0  0  0  0  0  0  0  0  0  0  0  0
   22.8010   61.8650  -10.5830 H   0  0  0  0  0  0  0  0  0  0  0  0
   23.8150   63.5950   -9.0320 H   0  0  0  0  0  0  0  0  0  0  0  0
   20.9790   65.8470   -7.6920 H   0  0  0  0  0  0  0  0  0  0  0  0
   22.7400   65.9780   -8.1110 H   0  0  0  0  0  0  0  0  0  0  0  0
   24.2460   65.6030   -6.3920 H   0  0  0  0  0  0  0  0  0  0  0  0
   22.9670   63.9010   -3.5220 H   0  0  0  0  0  0  0  0  0  0  0  0
   27.0400   61.8470   -5.3250 H   0  0  0  0  0  0  0  0  0  0  0  0
   25.8240   63.5010   -6.7070 H   0  0  0  0  0  0  0  0  0  0  0  0
   26.9810   59.8240   -4.4210 H   0  0  0  0  0  0  0  0  0  0  0  0
   25.5430   59.2510   -3.4990 H   0  0  0  0  0  0  0  0  0  0  0  0
   27.2210   59.1730   -2.7330 H   0  0  0  0  0  0  0  0  0  0  0  0
   22.6390   60.7390   -2.3260 H   0  0  0  0  0  0  0  0  0  0  0  0
   22.4730   61.5740   -0.7130 H   0  0  0  0  0  0  0  0  0  0  0  0
   22.0330   62.4400   -2.2290 H   0  0  0  0  0  0  0  0  0  0  0  0
  1  2  1  0  0  0  0
  2  3  1  0  0  0  0
  3 32  1  0  0  0  0
  3  4  2  0  0  0  0
  4 33  1  0  0  0  0
  5  4  1  0  0  0  0
  5  8  1  0  0  0  0
  6  5  2  0  0  0  0
  7  2  2  0  0  0  0
  7  6  1  0  0  0  0
  8  9  1  0  0  0  0
  9 11  1  0  0  0  0
  9 10  2  0  0  0  0
 11 15  1  0  0  0  0
 12 13  1  0  0  0  0
 12 11  2  0  0  0  0
 13 14  1  0  0  0  0
 14 37  1  0  0  0  0
 14 15  1  0  0  0  0
 15 16  1  0  0  0  0
 16 38  1  0  0  0  0
 16 17  1  0  0  0  0
 17 19  1  0  0  0  0
 17 18  2  0  0  0  0
 19 20  1  0  0  0  0
 20 21  1  0  0  0  0
 21 41  1  0  0  0  0
 21 22  2  0  0  0  0
 22 28  1  0  0  0  0
 23 22  1  0  0  0  0
 23 26  1  0  0  0  0
 24 23  2  0  0  0  0
 25 20  2  0  0  0  0
 25 24  1  0  0  0  0
 27 26  1  0  0  0  0
 27 46  1  0  0  0  0
 28 29  1  0  0  0  0
 29 48  1  0  0  0  0
 30  8  1  0  0  0  0
 30 12  1  0  0  0  0
 31 30  2  0  0  0  0
 34  6  1  0  0  0  0
 35  7  1  0  0  0  0
 36 13  1  0  0  0  0
 39 16  1  0  0  0  0
 40 19  1  0  0  0  0
 42 24  1  0  0  0  0
 43 25  1  0  0  0  0
 44 27  1  0  0  0  0
 45 27  1  0  0  0  0
 47 29  1  0  0  0  0
 49 29  1  0  0  0  0
M  END
>  <Pose>
1

>  <Score>
-7.26

$$$$
