
 OpenBabel03202210193D

 49 52  0  0  0  0  0  0  0  0999 V2000
   12.8570   62.0080  -11.2400 B   0  0  0  0  0  0  0  0  0  0  0  0
   14.7260   62.2860  -10.8550 C   0  0  0  0  0  0  0  0  0  0  0  0
   15.5300   61.2460  -10.4530 C   0  0  0  0  0  0  0  0  0  0  0  0
   16.8890   61.4510  -10.1690 C   0  0  0  0  0  0  0  0  0  0  0  0
   17.4470   62.7010  -10.2900 C   0  0  0  0  0  0  0  0  0  0  0  0
   16.6200   63.7260  -10.6960 C   0  0  0  0  0  0  0  0  0  0  0  0
   15.2870   63.5360  -10.9740 C   0  0  0  0  0  0  0  0  0  0  0  0
   18.8310   62.9170  -10.0010 N   0  0  0  0  0  0  0  0  0  0  0  0
   19.4150   63.8650   -9.2630 C   0  0  0  0  0  0  0  0  0  0  0  0
   18.7810   64.7960   -8.6630 O   0  0  0  0  0  0  0  0  0  0  0  0
   20.7850   63.7500   -9.2090 C   0  0  0  0  0  0  0  0  0  0  0  0
   21.0520   62.6640   -9.9600 C   0  0  0  0  0  0  0  0  0  0  0  0
   22.3990   62.5270   -9.9230 N   0  0  0  0  0  0  0  0  0  0  0  0
   22.9320   63.4830   -9.1830 N   0  0  0  0  0  0  0  0  0  0  0  0
   21.9460   64.2360   -8.7420 N   0  0  0  0  0  0  0  0  0  0  0  0
   22.1090   65.3840   -7.8980 C   0  0  0  0  0  0  0  0  0  0  0  0
   22.7140   65.0830   -6.6030 C   0  0  0  0  0  0  0  0  0  0  0  0
   23.2250   65.9760   -5.8660 O   0  0  0  0  0  0  0  0  0  0  0  0
   22.7290   63.7380   -6.1710 N   0  0  0  0  0  0  0  0  0  0  0  0
   23.7810   63.3000   -5.3270 C   0  0  0  0  0  0  0  0  0  0  0  0
   23.4440   63.0050   -4.0290 C   0  0  0  0  0  0  0  0  0  0  0  0
   24.4310   62.5960   -3.1240 C   0  0  0  0  0  0  0  0  0  0  0  0
   25.7330   62.4910   -3.5360 C   0  0  0  0  0  0  0  0  0  0  0  0
   26.0900   62.7880   -4.8490 C   0  0  0  0  0  0  0  0  0  0  0  0
   25.0900   63.1890   -5.7210 C   0  0  0  0  0  0  0  0  0  0  0  0
   27.4200   62.6650   -5.1910 O   0  0  0  0  0  0  0  0  0  0  0  0
   28.4840   63.4360   -4.7250 C   0  0  0  0  0  0  0  0  0  0  0  0
   23.9800   62.3230   -1.8540 O   0  0  0  0  0  0  0  0  0  0  0  0
   24.4250   61.2760   -1.0720 C   0  0  0  0  0  0  0  0  0  0  0  0
   19.8730   62.1490  -10.4470 C   0  0  0  0  0  0  0  0  0  0  0  0
   19.7030   61.1470  -11.1820 O   0  0  0  0  0  0  0  0  0  0  0  0
   15.0990   60.2640  -10.3580 H   0  0  0  0  0  0  0  0  0  0  0  0
   17.5000   60.6180   -9.8510 H   0  0  0  0  0  0  0  0  0  0  0  0
   17.0870   64.7090  -10.7820 H   0  0  0  0  0  0  0  0  0  0  0  0
   14.6470   64.3530  -11.2950 H   0  0  0  0  0  0  0  0  0  0  0  0
   22.9180   61.7660  -10.4200 H   0  0  0  0  0  0  0  0  0  0  0  0
   23.9710   63.5710   -9.0180 H   0  0  0  0  0  0  0  0  0  0  0  0
   22.7180   66.1850   -8.3940 H   0  0  0  0  0  0  0  0  0  0  0  0
   21.1230   65.8940   -7.6920 H   0  0  0  0  0  0  0  0  0  0  0  0
   21.9630   63.0620   -6.4750 H   0  0  0  0  0  0  0  0  0  0  0  0
   22.3990   63.0910   -3.7050 H   0  0  0  0  0  0  0  0  0  0  0  0
   26.4770   62.1720   -2.8190 H   0  0  0  0  0  0  0  0  0  0  0  0
   25.3620   63.4180   -6.7450 H   0  0  0  0  0  0  0  0  0  0  0  0
   29.2620   63.5290   -5.5180 H   0  0  0  0  0  0  0  0  0  0  0  0
   29.0200   62.9270   -3.8700 H   0  0  0  0  0  0  0  0  0  0  0  0
   28.2030   64.4560   -4.4020 H   0  0  0  0  0  0  0  0  0  0  0  0
   24.5040   61.6020   -0.0080 H   0  0  0  0  0  0  0  0  0  0  0  0
   25.3880   60.8710   -1.3750 H   0  0  0  0  0  0  0  0  0  0  0  0
   23.6210   60.4800   -1.0820 H   0  0  0  0  0  0  0  0  0  0  0  0
  1  2  1  0  0  0  0
  2  3  1  0  0  0  0
  3 32  1  0  0  0  0
  3  4  2  0  0  0  0
  4 33  1  0  0  0  0
  5  4  1  0  0  0  0
  5  8  1  0  0  0  0
  6  5  2  0  0  0  0
  7  2  2  0  0  0  0
  7  6  1  0  0  0  0
  8  9  1  0  0  0  0
  9 11  1  0  0  0  0
  9 10  2  0  0  0  0
 11 15  1  0  0  0  0
 12 13  1  0  0  0  0
 12 11  2  0  0  0  0
 13 14  1  0  0  0  0
 14 37  1  0  0  0  0
 14 15  1  0  0  0  0
 15 16  1  0  0  0  0
 16 39  1  0  0  0  0
 16 17  1  0  0  0  0
 17 19  1  0  0  0  0
 17 18  2  0  0  0  0
 19 20  1  0  0  0  0
 20 21  1  0  0  0  0
 21 41  1  0  0  0  0
 21 22  2  0  0  0  0
 22 28  1  0  0  0  0
 23 22  1  0  0  0  0
 23 42  1  0  0  0  0
 24 23  2  0  0  0  0
 25 20  2  0  0  0  0
 25 24  1  0  0  0  0
 26 24  1  0  0  0  0
 26 27  1  0  0  0  0
 27 46  1  0  0  0  0
 27 45  1  0  0  0  0
 28 29  1  0  0  0  0
 29 47  1  0  0  0  0
 30  8  1  0  0  0  0
 30 12  1  0  0  0  0
 31 30  2  0  0  0  0
 34  6  1  0  0  0  0
 35  7  1  0  0  0  0
 36 13  1  0  0  0  0
 38 16  1  0  0  0  0
 40 19  1  0  0  0  0
 43 25  1  0  0  0  0
 44 27  1  0  0  0  0
 48 29  1  0  0  0  0
 49 29  1  0  0  0  0
M  END
>  <Pose>
1

>  <Score>
-7.38

$$$$
