
 OpenBabel03202210193D

 50 53  0  0  0  0  0  0  0  0999 V2000
    9.6890   66.9510  -16.9560 B   0  0  0  0  0  0  0  0  0  0  0  0
   10.7910   65.9290  -15.7900 C   0  0  0  0  0  0  0  0  0  0  0  0
   12.0910   65.5830  -16.0920 C   0  0  0  0  0  0  0  0  0  0  0  0
   12.8540   64.8500  -15.2370 C   0  0  0  0  0  0  0  0  0  0  0  0
   12.3520   64.4190  -14.0190 C   0  0  0  0  0  0  0  0  0  0  0  0
   11.0600   64.7570  -13.7060 C   0  0  0  0  0  0  0  0  0  0  0  0
   10.3050   65.4940  -14.5770 C   0  0  0  0  0  0  0  0  0  0  0  0
   13.1810   63.6530  -13.1480 N   0  0  0  0  0  0  0  0  0  0  0  0
   14.1320   64.1950  -12.3450 C   0  0  0  0  0  0  0  0  0  0  0  0
   14.4180   65.4290  -12.2510 O   0  0  0  0  0  0  0  0  0  0  0  0
   14.7600   63.1910  -11.6280 C   0  0  0  0  0  0  0  0  0  0  0  0
   14.1760   62.0590  -12.0110 C   0  0  0  0  0  0  0  0  0  0  0  0
   14.7750   61.0580  -11.3220 N   0  0  0  0  0  0  0  0  0  0  0  0
   15.7000   61.6090  -10.5430 N   0  0  0  0  0  0  0  0  0  0  0  0
   15.7210   62.9180  -10.7050 N   0  0  0  0  0  0  0  0  0  0  0  0
   16.5670   63.9150  -10.0600 C   0  0  0  0  0  0  0  0  0  0  0  0
   18.0110   63.6220  -10.3880 C   0  0  0  0  0  0  0  0  0  0  0  0
   18.3700   64.1310  -11.4790 O   0  0  0  0  0  0  0  0  0  0  0  0
   18.7820   62.8610   -9.5120 N   0  0  0  0  0  0  0  0  0  0  0  0
   20.0700   63.1720   -9.0110 C   0  0  0  0  0  0  0  0  0  0  0  0
   21.2470   63.0240   -9.7060 C   0  0  0  0  0  0  0  0  0  0  0  0
   22.4860   63.3540   -9.1390 C   0  0  0  0  0  0  0  0  0  0  0  0
   22.5780   63.8440   -7.8580 C   0  0  0  0  0  0  0  0  0  0  0  0
   21.4080   63.9960   -7.1540 C   0  0  0  0  0  0  0  0  0  0  0  0
   20.1880   63.6690   -7.7150 C   0  0  0  0  0  0  0  0  0  0  0  0
   23.8890   64.1740   -7.3080 C   0  0  0  0  0  0  0  0  0  0  0  0
   24.2840   65.3640   -7.3960 O   0  0  0  0  0  0  0  0  0  0  0  0
   24.7220   63.2760   -6.7030 O   0  0  0  0  0  0  0  0  0  0  0  0
   24.7890   63.0010   -5.3330 C   0  0  0  0  0  0  0  0  0  0  0  0
   26.2330   62.5660   -5.0460 C   0  0  0  0  0  0  0  0  0  0  0  0
   13.2040   62.3280  -12.9460 C   0  0  0  0  0  0  0  0  0  0  0  0
   12.4590   61.5040  -13.5200 O   0  0  0  0  0  0  0  0  0  0  0  0
   12.4830   65.9210  -17.0450 H   0  0  0  0  0  0  0  0  0  0  0  0
   13.8880   64.5940  -15.5160 H   0  0  0  0  0  0  0  0  0  0  0  0
   10.6370   64.4370  -12.7630 H   0  0  0  0  0  0  0  0  0  0  0  0
    9.2700   65.7720  -14.3390 H   0  0  0  0  0  0  0  0  0  0  0  0
   14.5410   60.0470  -11.3990 H   0  0  0  0  0  0  0  0  0  0  0  0
   16.3160   61.0790   -9.9030 H   0  0  0  0  0  0  0  0  0  0  0  0
   16.2880   64.9430  -10.3580 H   0  0  0  0  0  0  0  0  0  0  0  0
   16.3800   63.8280   -8.9690 H   0  0  0  0  0  0  0  0  0  0  0  0
   18.3410   61.9420   -9.1890 H   0  0  0  0  0  0  0  0  0  0  0  0
   21.2060   62.6450  -10.7050 H   0  0  0  0  0  0  0  0  0  0  0  0
   23.4000   63.2230   -9.7230 H   0  0  0  0  0  0  0  0  0  0  0  0
   21.4930   64.3860   -6.1390 H   0  0  0  0  0  0  0  0  0  0  0  0
   19.2730   63.8040   -7.1220 H   0  0  0  0  0  0  0  0  0  0  0  0
   24.5930   63.8800   -4.6880 H   0  0  0  0  0  0  0  0  0  0  0  0
   24.1160   62.1900   -4.9980 H   0  0  0  0  0  0  0  0  0  0  0  0
   26.8920   63.4780   -5.1330 H   0  0  0  0  0  0  0  0  0  0  0  0
   26.5920   61.8520   -5.8050 H   0  0  0  0  0  0  0  0  0  0  0  0
   26.3390   62.1100   -4.0600 H   0  0  0  0  0  0  0  0  0  0  0  0
  1  2  1  0  0  0  0
  2  7  1  0  0  0  0
  3  2  2  0  0  0  0
  3  4  1  0  0  0  0
  4  5  2  0  0  0  0
  5  6  1  0  0  0  0
  5  8  1  0  0  0  0
  6 35  1  0  0  0  0
  7 36  1  0  0  0  0
  7  6  2  0  0  0  0
  8 31  1  0  0  0  0
  8  9  1  0  0  0  0
  9 10  2  0  0  0  0
  9 11  1  0  0  0  0
 11 15  1  0  0  0  0
 12 11  2  0  0  0  0
 12 13  1  0  0  0  0
 13 14  1  0  0  0  0
 14 38  1  0  0  0  0
 15 14  1  0  0  0  0
 15 16  1  0  0  0  0
 16 40  1  0  0  0  0
 17 16  1  0  0  0  0
 17 19  1  0  0  0  0
 18 17  2  0  0  0  0
 19 41  1  0  0  0  0
 19 20  1  0  0  0  0
 20 25  1  0  0  0  0
 21 22  1  0  0  0  0
 21 20  2  0  0  0  0
 22 23  2  0  0  0  0
 23 26  1  0  0  0  0
 23 24  1  0  0  0  0
 24 44  1  0  0  0  0
 25 24  2  0  0  0  0
 25 45  1  0  0  0  0
 26 28  1  0  0  0  0
 27 26  2  0  0  0  0
 28 29  1  0  0  0  0
 29 30  1  0  0  0  0
 29 47  1  0  0  0  0
 29 46  1  0  0  0  0
 30 50  1  0  0  0  0
 31 12  1  0  0  0  0
 32 31  2  0  0  0  0
 33  3  1  0  0  0  0
 34  4  1  0  0  0  0
 37 13  1  0  0  0  0
 39 16  1  0  0  0  0
 42 21  1  0  0  0  0
 43 22  1  0  0  0  0
 48 30  1  0  0  0  0
 49 30  1  0  0  0  0
M  END
>  <Pose>
1

>  <Score>
-7.19

$$$$
