
 OpenBabel03202210193D

 48 51  0  0  0  0  0  0  0  0999 V2000
   12.9020   62.8910  -11.0420 B   0  0  0  0  0  0  0  0  0  0  0  0
   14.7710   62.9390  -10.6600 C   0  0  0  0  0  0  0  0  0  0  0  0
   15.5340   61.7930  -10.5780 C   0  0  0  0  0  0  0  0  0  0  0  0
   16.8920   61.8460  -10.3020 C   0  0  0  0  0  0  0  0  0  0  0  0
   17.5490   63.0410  -10.0970 C   0  0  0  0  0  0  0  0  0  0  0  0
   16.7870   64.1930  -10.1780 C   0  0  0  0  0  0  0  0  0  0  0  0
   15.4360   64.1410  -10.4520 C   0  0  0  0  0  0  0  0  0  0  0  0
   18.9430   63.1390   -9.8180 N   0  0  0  0  0  0  0  0  0  0  0  0
   19.5780   64.0750   -9.0580 C   0  0  0  0  0  0  0  0  0  0  0  0
   18.9890   65.0160   -8.4740 O   0  0  0  0  0  0  0  0  0  0  0  0
   20.9360   63.8430   -9.0260 C   0  0  0  0  0  0  0  0  0  0  0  0
   21.1370   62.7630   -9.7660 C   0  0  0  0  0  0  0  0  0  0  0  0
   22.4580   62.5110   -9.7540 N   0  0  0  0  0  0  0  0  0  0  0  0
   23.0450   63.4380   -9.0090 N   0  0  0  0  0  0  0  0  0  0  0  0
   22.1360   64.2740   -8.5450 N   0  0  0  0  0  0  0  0  0  0  0  0
   22.3330   65.4250   -7.7120 C   0  0  0  0  0  0  0  0  0  0  0  0
   22.6070   65.0790   -6.2670 C   0  0  0  0  0  0  0  0  0  0  0  0
   21.6040   65.0310   -5.5230 O   0  0  0  0  0  0  0  0  0  0  0  0
   23.8970   64.8280   -5.8020 N   0  0  0  0  0  0  0  0  0  0  0  0
   24.4050   63.7250   -5.0940 C   0  0  0  0  0  0  0  0  0  0  0  0
   23.6710   63.1670   -4.0480 C   0  0  0  0  0  0  0  0  0  0  0  0
   24.1360   62.1050   -3.3210 C   0  0  0  0  0  0  0  0  0  0  0  0
   25.3790   61.5420   -3.6120 C   0  0  0  0  0  0  0  0  0  0  0  0
   26.0770   62.1130   -4.6480 C   0  0  0  0  0  0  0  0  0  0  0  0
   25.6140   63.1800   -5.3830 C   0  0  0  0  0  0  0  0  0  0  0  0
   25.8100   60.4780   -2.8540 O   0  0  0  0  0  0  0  0  0  0  0  0
   25.5230   59.1340   -3.0640 C   0  0  0  0  0  0  0  0  0  0  0  0
   26.3770   58.4750   -4.0920 C   0  0  0  0  0  0  0  0  0  0  0  0
   19.9220   62.3320  -10.2490 C   0  0  0  0  0  0  0  0  0  0  0  0
   19.7160   61.3240  -10.9960 O   0  0  0  0  0  0  0  0  0  0  0  0
   15.0170   60.8490  -10.7390 H   0  0  0  0  0  0  0  0  0  0  0  0
   17.4860   60.9480  -10.2390 H   0  0  0  0  0  0  0  0  0  0  0  0
   17.3070   65.1310  -10.0150 H   0  0  0  0  0  0  0  0  0  0  0  0
   14.8640   65.0530  -10.5100 H   0  0  0  0  0  0  0  0  0  0  0  0
   22.9630   61.7410  -10.2260 H   0  0  0  0  0  0  0  0  0  0  0  0
   24.0880   63.4880   -8.8210 H   0  0  0  0  0  0  0  0  0  0  0  0
   23.2120   66.0200   -8.0790 H   0  0  0  0  0  0  0  0  0  0  0  0
   21.4340   66.0980   -7.6840 H   0  0  0  0  0  0  0  0  0  0  0  0
   24.6200   65.6000   -6.0150 H   0  0  0  0  0  0  0  0  0  0  0  0
   22.7100   63.5840   -3.8050 H   0  0  0  0  0  0  0  0  0  0  0  0
   23.5320   61.6890   -2.5030 H   0  0  0  0  0  0  0  0  0  0  0  0
   27.0430   61.7130   -4.9090 H   0  0  0  0  0  0  0  0  0  0  0  0
   26.2220   63.5850   -6.2040 H   0  0  0  0  0  0  0  0  0  0  0  0
   25.7010   58.5880   -2.0890 H   0  0  0  0  0  0  0  0  0  0  0  0
   24.4550   58.9720   -3.3260 H   0  0  0  0  0  0  0  0  0  0  0  0
   27.0570   57.6900   -3.7050 H   0  0  0  0  0  0  0  0  0  0  0  0
   25.7450   57.9610   -4.8540 H   0  0  0  0  0  0  0  0  0  0  0  0
   27.0110   59.1890   -4.6810 H   0  0  0  0  0  0  0  0  0  0  0  0
  1  2  1  0  0  0  0
  2  3  2  0  0  0  0
  2  7  1  0  0  0  0
  3  4  1  0  0  0  0
  4 32  1  0  0  0  0
  4  5  2  0  0  0  0
  5  8  1  0  0  0  0
  6  5  1  0  0  0  0
  6 33  1  0  0  0  0
  7  6  2  0  0  0  0
  8  9  1  0  0  0  0
  9 11  1  0  0  0  0
  9 10  2  0  0  0  0
 11 15  1  0  0  0  0
 12 13  1  0  0  0  0
 12 11  2  0  0  0  0
 13 14  1  0  0  0  0
 14 36  1  0  0  0  0
 14 15  1  0  0  0  0
 15 16  1  0  0  0  0
 16 38  1  0  0  0  0
 16 17  1  0  0  0  0
 17 19  1  0  0  0  0
 17 18  2  0  0  0  0
 19 20  1  0  0  0  0
 20 21  1  0  0  0  0
 21 40  1  0  0  0  0
 21 22  2  0  0  0  0
 22 41  1  0  0  0  0
 23 22  1  0  0  0  0
 23 26  1  0  0  0  0
 24 23  2  0  0  0  0
 25 20  2  0  0  0  0
 25 24  1  0  0  0  0
 27 26  1  0  0  0  0
 27 44  1  0  0  0  0
 28 46  1  0  0  0  0
 28 27  1  0  0  0  0
 29  8  1  0  0  0  0
 29 12  1  0  0  0  0
 30 29  2  0  0  0  0
 31  3  1  0  0  0  0
 34  7  1  0  0  0  0
 35 13  1  0  0  0  0
 37 16  1  0  0  0  0
 39 19  1  0  0  0  0
 42 24  1  0  0  0  0
 43 25  1  0  0  0  0
 45 27  1  0  0  0  0
 47 28  1  0  0  0  0
 48 28  1  0  0  0  0
M  END
>  <Pose>
1

>  <Score>
-7.20

$$$$
