
 OpenBabel03202210193D

 36 39  0  0  0  0  0  0  0  0999 V2000
   26.3970   62.2380   -2.3720 B   0  0  0  0  0  0  0  0  0  0  0  0
   25.2700   62.7850   -3.8190 C   0  0  0  0  0  0  0  0  0  0  0  0
   25.6830   62.6960   -5.1330 C   0  0  0  0  0  0  0  0  0  0  0  0
   24.8530   63.0990   -6.1750 C   0  0  0  0  0  0  0  0  0  0  0  0
   23.5910   63.5980   -5.9290 C   0  0  0  0  0  0  0  0  0  0  0  0
   23.1910   63.6810   -4.6110 C   0  0  0  0  0  0  0  0  0  0  0  0
   24.0090   63.2850   -3.5700 C   0  0  0  0  0  0  0  0  0  0  0  0
   22.7110   64.0200   -6.9800 N   0  0  0  0  0  0  0  0  0  0  0  0
   21.6780   63.3100   -7.4840 C   0  0  0  0  0  0  0  0  0  0  0  0
   21.2900   62.1500   -7.1340 O   0  0  0  0  0  0  0  0  0  0  0  0
   21.0410   64.0160   -8.4880 C   0  0  0  0  0  0  0  0  0  0  0  0
   21.7090   65.1670   -8.5800 C   0  0  0  0  0  0  0  0  0  0  0  0
   21.0860   65.8620   -9.5630 N   0  0  0  0  0  0  0  0  0  0  0  0
   20.0860   65.1300  -10.0250 N   0  0  0  0  0  0  0  0  0  0  0  0
   20.0330   63.9790   -9.3770 N   0  0  0  0  0  0  0  0  0  0  0  0
   19.0920   62.9190   -9.5870 C   0  0  0  0  0  0  0  0  0  0  0  0
   17.7800   63.1860   -9.9230 C   0  0  0  0  0  0  0  0  0  0  0  0
   16.8460   62.1800  -10.1330 C   0  0  0  0  0  0  0  0  0  0  0  0
   17.2150   60.8580  -10.0070 C   0  0  0  0  0  0  0  0  0  0  0  0
   18.5250   60.5880   -9.6720 C   0  0  0  0  0  0  0  0  0  0  0  0
   19.4550   61.5940   -9.4630 C   0  0  0  0  0  0  0  0  0  0  0  0
   16.2790   59.8040  -10.2160 N   0  0  0  0  0  0  0  0  0  0  0  0
   15.1980   59.9840  -10.8070 O   0  0  0  0  0  0  0  0  0  0  0  0
   16.5690   58.5580   -9.7580 O   0  0  0  0  0  0  0  0  0  0  0  0
   22.7350   65.1790   -7.6600 C   0  0  0  0  0  0  0  0  0  0  0  0
   23.5770   66.0870   -7.4470 O   0  0  0  0  0  0  0  0  0  0  0  0
   26.6800   62.3010   -5.3150 H   0  0  0  0  0  0  0  0  0  0  0  0
   25.1690   63.0310   -7.1900 H   0  0  0  0  0  0  0  0  0  0  0  0
   22.1950   64.0730   -4.4010 H   0  0  0  0  0  0  0  0  0  0  0  0
   23.6780   63.3560   -2.5290 H   0  0  0  0  0  0  0  0  0  0  0  0
   21.3730   66.8230   -9.8850 H   0  0  0  0  0  0  0  0  0  0  0  0
   19.4090   65.3840  -10.7910 H   0  0  0  0  0  0  0  0  0  0  0  0
   17.4710   64.2130  -10.0260 H   0  0  0  0  0  0  0  0  0  0  0  0
   15.8070   62.4120  -10.3990 H   0  0  0  0  0  0  0  0  0  0  0  0
   18.7960   59.5460   -9.5790 H   0  0  0  0  0  0  0  0  0  0  0  0
   20.4780   61.3710   -9.2010 H   0  0  0  0  0  0  0  0  0  0  0  0
  2  7  1  0  0  0  0
  2  1  1  0  0  0  0
  3  2  2  0  0  0  0
  4  5  2  0  0  0  0
  4  3  1  0  0  0  0
  5  6  1  0  0  0  0
  6 29  1  0  0  0  0
  6  7  2  0  0  0  0
  7 30  1  0  0  0  0
  8  5  1  0  0  0  0
  9 10  2  0  0  0  0
  9  8  1  0  0  0  0
 11  9  1  0  0  0  0
 12 11  2  0  0  0  0
 12 25  1  0  0  0  0
 13 12  1  0  0  0  0
 14 13  1  0  0  0  0
 14 15  1  0  0  0  0
 15 11  1  0  0  0  0
 16 21  1  0  0  0  0
 16 15  1  0  0  0  0
 17 16  2  0  0  0  0
 18 19  2  0  0  0  0
 18 17  1  0  0  0  0
 19 20  1  0  0  0  0
 20 35  1  0  0  0  0
 20 21  2  0  0  0  0
 21 36  1  0  0  0  0
 22 19  1  0  0  0  0
 22 24  2  0  0  0  0
 23 22  2  0  0  0  0
 25 26  2  0  0  0  0
 25  8  1  0  0  0  0
 27  3  1  0  0  0  0
 28  4  1  0  0  0  0
 31 13  1  0  0  0  0
 32 14  1  0  0  0  0
 33 17  1  0  0  0  0
 34 18  1  0  0  0  0
M  END
>  <Pose>
1

>  <Score>
-8.44

$$$$
