
 OpenBabel03202210193D

 38 42  0  0  1  0  0  0  0  0999 V2000
   24.4780   63.8700   -3.9360 B   0  0  0  0  0  0  0  0  0  0  0  0
   23.6460   63.9250   -5.6390 C   0  0  0  0  0  0  0  0  0  0  0  0
   24.4050   63.7430   -6.7700 C   0  0  0  0  0  0  0  0  0  0  0  0
   23.7750   63.7870   -7.9930 C   0  0  0  0  0  0  0  0  0  0  0  0
   22.4210   64.0080   -8.1140 C   0  0  0  0  0  0  0  0  0  0  0  0
   21.6520   64.1920   -6.9720 C   0  0  0  0  0  0  0  0  0  0  0  0
   22.2950   64.1450   -5.7340 C   0  0  0  0  0  0  0  0  0  0  0  0
   21.7760   64.0490   -9.3930 N   0  0  0  0  0  0  0  0  0  0  0  0
   20.7980   65.0200   -9.7310 C   0  0  0  0  0  0  0  0  0  0  0  0
   20.6440   66.1070   -9.1230 O   0  0  0  0  0  0  0  0  0  0  0  0
   20.0120   64.5330  -10.8970 C   0  0  2  0  0  0  0  0  0  0  0  0
   18.7560   63.8320  -10.4800 C   0  0  1  0  0  0  0  0  0  0  0  0
   18.6310   62.8910  -11.5260 O   0  0  0  0  0  0  0  0  0  0  0  0
   19.8650   62.2290  -11.3090 C   0  0  1  0  0  0  0  0  0  0  0  0
   20.8250   63.3610  -11.4480 C   0  0  2  0  0  0  0  0  0  0  0  0
   21.9690   63.1860  -10.5130 C   0  0  0  0  0  0  0  0  0  0  0  0
   22.9160   62.4170  -10.6970 O   0  0  0  0  0  0  0  0  0  0  0  0
   19.7180   61.9110   -9.8640 C   0  0  0  0  0  0  0  0  0  0  0  0
   19.0770   62.9540   -9.3450 C   0  0  0  0  0  0  0  0  0  0  0  0
   17.5710   64.6860  -10.3340 C   0  0  0  0  0  0  0  0  0  0  0  0
   16.5560   64.1120   -9.6190 O   0  0  0  0  0  0  0  0  0  0  0  0
   15.5150   63.8400  -10.4710 C   0  0  0  0  0  0  0  0  0  0  0  0
   15.9440   64.3030  -11.8240 C   0  0  0  0  0  0  0  0  0  0  0  0
   17.0650   65.0810  -11.5590 O   0  0  0  0  0  0  0  0  0  0  0  0
   25.4840   63.5650   -6.7300 H   0  0  0  0  0  0  0  0  0  0  0  0
   24.3540   63.6450   -8.9190 H   0  0  0  0  0  0  0  0  0  0  0  0
   20.5950   64.3630   -7.0820 H   0  0  0  0  0  0  0  0  0  0  0  0
   21.6970   64.2890   -4.8450 H   0  0  0  0  0  0  0  0  0  0  0  0
   19.8630   65.3320  -11.6220 H   0  0  0  0  0  0  0  0  0  0  0  0
   20.0170   61.3820  -11.9540 H   0  0  0  0  0  0  0  0  0  0  0  0
   21.1620   63.5570  -12.4660 H   0  0  0  0  0  0  0  0  0  0  0  0
   20.0850   61.0000   -9.4110 H   0  0  0  0  0  0  0  0  0  0  0  0
   18.8860   63.0360   -8.2790 H   0  0  0  0  0  0  0  0  0  0  0  0
   17.8890   65.6230   -9.8030 H   0  0  0  0  0  0  0  0  0  0  0  0
   14.5670   64.3370  -10.1840 H   0  0  0  0  0  0  0  0  0  0  0  0
   15.3870   62.7270  -10.5070 H   0  0  0  0  0  0  0  0  0  0  0  0
   15.1340   64.9210  -12.3100 H   0  0  0  0  0  0  0  0  0  0  0  0
   16.2380   63.4650  -12.5060 H   0  0  0  0  0  0  0  0  0  0  0  0
  2  1  1  0  0  0  0
  3 25  1  0  0  0  0
  3  2  2  0  0  0  0
  4  3  1  0  0  0  0
  5  4  2  0  0  0  0
  5  6  1  0  0  0  0
  6  7  2  0  0  0  0
  7  2  1  0  0  0  0
  7 28  1  0  0  0  0
  8  5  1  0  0  0  0
  9  8  1  0  0  0  0
  9 10  2  0  0  0  0
 11 29  1  6  0  0  0
 11 12  1  0  0  0  0
 11  9  1  0  0  0  0
 12 20  1  1  0  0  0
 12 19  1  0  0  0  0
 13 14  1  0  0  0  0
 13 12  1  0  0  0  0
 14 30  1  6  0  0  0
 14 18  1  0  0  0  0
 15 31  1  6  0  0  0
 15 14  1  0  0  0  0
 15 11  1  0  0  0  0
 15 16  1  0  0  0  0
 16  8  1  0  0  0  0
 17 16  2  0  0  0  0
 18 32  1  0  0  0  0
 18 19  2  0  0  0  0
 19 33  1  0  0  0  0
 20 34  1  0  0  0  0
 20 21  1  0  0  0  0
 22 35  1  0  0  0  0
 22 21  1  0  0  0  0
 23 24  1  0  0  0  0
 23 22  1  0  0  0  0
 24 20  1  0  0  0  0
 26  4  1  0  0  0  0
 27  6  1  0  0  0  0
 36 22  1  0  0  0  0
 37 23  1  0  0  0  0
 38 23  1  0  0  0  0
M  END
>  <Pose>
1

>  <Score>
-5.10

$$$$
