
 OpenBabel03202210193D

 41 44  0  0  1  0  0  0  0  0999 V2000
   24.8050   63.3330   -2.4970 B   0  0  0  0  0  0  0  0  0  0  0  0
   24.3240   63.3390   -4.3630 C   0  0  0  0  0  0  0  0  0  0  0  0
   23.1900   63.9960   -4.7680 C   0  0  0  0  0  0  0  0  0  0  0  0
   22.8660   63.9880   -6.0870 C   0  0  0  0  0  0  0  0  0  0  0  0
   23.6220   63.3460   -7.0750 C   0  0  0  0  0  0  0  0  0  0  0  0
   24.7490   62.6980   -6.6460 C   0  0  0  0  0  0  0  0  0  0  0  0
   25.0970   62.6930   -5.3080 C   0  0  0  0  0  0  0  0  0  0  0  0
   23.2110   63.3900   -8.4250 N   0  0  0  0  0  0  0  0  0  0  0  0
   24.0260   63.3440   -9.6130 C   0  0  0  0  0  0  0  0  0  0  0  0
   25.1780   62.8340   -9.7080 O   0  0  0  0  0  0  0  0  0  0  0  0
   23.2540   64.0060  -10.6890 C   0  0  1  0  0  0  0  0  0  0  0  0
   23.4600   63.4430  -12.0090 N   0  0  0  0  0  0  0  0  0  0  0  0
   22.1320   63.5910  -12.5160 N   0  0  0  0  0  0  0  0  0  0  0  0
   21.2100   63.2540  -11.4790 C   0  0  0  0  0  0  0  0  0  0  0  0
   21.8700   63.4980  -10.3520 C   0  0  0  0  0  0  0  0  0  0  0  0
   21.8610   63.4860   -8.8950 C   0  0  0  0  0  0  0  0  0  0  0  0
   20.7840   63.5530   -8.2400 O   0  0  0  0  0  0  0  0  0  0  0  0
   19.8440   62.7590  -11.6090 C   0  0  0  0  0  0  0  0  0  0  0  0
   19.5280   61.9150  -12.4810 O   0  0  0  0  0  0  0  0  0  0  0  0
   18.8190   63.1910  -10.7800 O   0  0  0  0  0  0  0  0  0  0  0  0
   18.1120   62.2930   -9.9370 C   0  0  0  0  0  0  0  0  0  0  0  0
   16.6680   62.2640  -10.3460 C   0  0  0  0  0  0  0  0  0  0  0  0
   15.9890   63.4500  -10.6190 C   0  0  0  0  0  0  0  0  0  0  0  0
   14.6750   63.4680  -11.0000 C   0  0  0  0  0  0  0  0  0  0  0  0
   13.9900   62.2610  -11.1160 C   0  0  0  0  0  0  0  0  0  0  0  0
   14.6640   61.0910  -10.8440 C   0  0  0  0  0  0  0  0  0  0  0  0
   16.0060   61.0850  -10.4580 C   0  0  0  0  0  0  0  0  0  0  0  0
   22.5770   64.5080   -4.0260 H   0  0  0  0  0  0  0  0  0  0  0  0
   21.9730   64.5060   -6.4100 H   0  0  0  0  0  0  0  0  0  0  0  0
   25.3870   62.1780   -7.3500 H   0  0  0  0  0  0  0  0  0  0  0  0
   25.9850   62.1840   -4.9610 H   0  0  0  0  0  0  0  0  0  0  0  0
   23.3070   65.0960  -10.6730 H   0  0  0  0  0  0  0  0  0  0  0  0
   23.5680   62.4020  -11.8490 H   0  0  0  0  0  0  0  0  0  0  0  0
   21.8690   63.8900  -13.4750 H   0  0  0  0  0  0  0  0  0  0  0  0
   18.5430   61.2920   -9.9210 H   0  0  0  0  0  0  0  0  0  0  0  0
   18.1380   62.7020   -8.9080 H   0  0  0  0  0  0  0  0  0  0  0  0
   16.5050   64.3810  -10.5340 H   0  0  0  0  0  0  0  0  0  0  0  0
   14.1430   64.3830  -11.2120 H   0  0  0  0  0  0  0  0  0  0  0  0
   12.9430   62.2390  -11.4150 H   0  0  0  0  0  0  0  0  0  0  0  0
   14.1920   60.1330  -10.9170 H   0  0  0  0  0  0  0  0  0  0  0  0
   16.5040   60.1500  -10.2530 H   0  0  0  0  0  0  0  0  0  0  0  0
  2  1  1  0  0  0  0
  3  2  1  0  0  0  0
  3 28  1  0  0  0  0
  4  3  2  0  0  0  0
  5  6  2  0  0  0  0
  5  4  1  0  0  0  0
  6  7  1  0  0  0  0
  7 31  1  0  0  0  0
  7  2  2  0  0  0  0
  8  5  1  0  0  0  0
  9  8  1  0  0  0  0
 10  9  2  0  0  0  0
 11 32  1  1  0  0  0
 11 15  1  0  0  0  0
 11  9  1  0  0  0  0
 12 33  1  0  0  0  0
 12 11  1  0  0  0  0
 13 12  1  0  0  0  0
 13 14  1  0  0  0  0
 14 15  2  0  0  0  0
 15 16  1  0  0  0  0
 16  8  1  0  0  0  0
 16 17  2  0  0  0  0
 18 14  1  0  0  0  0
 18 20  1  0  0  0  0
 19 18  2  0  0  0  0
 20 21  1  0  0  0  0
 21 35  1  0  0  0  0
 21 36  1  0  0  0  0
 22 21  1  0  0  0  0
 23 37  1  0  0  0  0
 23 22  2  0  0  0  0
 24 23  1  0  0  0  0
 25 24  2  0  0  0  0
 25 26  1  0  0  0  0
 26 27  2  0  0  0  0
 27 22  1  0  0  0  0
 27 41  1  0  0  0  0
 29  4  1  0  0  0  0
 30  6  1  0  0  0  0
 34 13  1  0  0  0  0
 38 24  1  0  0  0  0
 39 25  1  0  0  0  0
 40 26  1  0  0  0  0
M  END
>  <Pose>
1

>  <Score>
-6.72

$$$$
