
 OpenBabel03202210193D

 45 48  0  0  1  0  0  0  0  0999 V2000
   14.0070   63.1740  -10.7830 B   0  0  0  0  0  0  0  0  0  0  0  0
   15.9140   63.1810  -10.8090 C   0  0  0  0  0  0  0  0  0  0  0  0
   16.5900   62.0650  -10.3940 C   0  0  0  0  0  0  0  0  0  0  0  0
   17.9790   62.0630  -10.4100 C   0  0  0  0  0  0  0  0  0  0  0  0
   18.7020   63.1550  -10.8330 C   0  0  0  0  0  0  0  0  0  0  0  0
   18.0020   64.2680  -11.2460 C   0  0  0  0  0  0  0  0  0  0  0  0
   16.6170   64.2940  -11.2390 C   0  0  0  0  0  0  0  0  0  0  0  0
   20.1190   63.0620  -10.8180 N   0  0  0  0  0  0  0  0  0  0  0  0
   20.8300   62.5820  -11.9740 C   0  0  0  0  0  0  0  0  0  0  0  0
   20.1850   62.2430  -13.0040 O   0  0  0  0  0  0  0  0  0  0  0  0
   22.2350   62.5200  -11.8830 N   0  0  0  0  0  0  0  0  0  0  0  0
   22.9040   62.8560  -10.8600 C   0  0  0  0  0  0  0  0  0  0  0  0
   22.3480   63.3710   -9.5840 C   0  0  1  0  0  0  0  0  0  0  0  0
   22.8500   62.5100   -8.4770 C   0  0  0  0  0  0  0  0  0  0  0  0
   22.9790   63.1100   -7.1990 N   0  0  0  0  0  4  0  0  0  0  0  0
   22.3910   64.3830   -7.0520 C   0  0  0  0  0  0  0  0  0  0  0  0
   22.3460   65.2720   -8.1330 C   0  0  0  0  0  0  0  0  0  0  0  0
   21.7710   66.5020   -7.9720 C   0  0  0  0  0  0  0  0  0  0  0  0
   21.2180   66.9360   -6.7890 C   0  0  0  0  0  0  0  0  0  0  0  0
   21.2640   66.0570   -5.7280 C   0  0  0  0  0  0  0  0  0  0  0  0
   21.8420   64.8010   -5.8600 C   0  0  0  0  0  0  0  0  0  0  0  0
   20.6020   68.2770   -6.6530 C   0  0  0  0  0  0  0  0  0  0  0  0
   22.9530   64.7640   -9.3900 C   0  0  0  0  0  0  0  0  0  0  0  0
   24.3760   63.1350   -6.7320 C   0  0  0  0  0  0  0  0  0  0  0  0
   20.8730   63.4380   -9.6700 C   0  0  0  0  0  0  0  0  0  0  0  0
   20.1830   63.8530   -8.6810 O   0  0  0  0  0  0  0  0  0  0  0  0
   24.3100   62.7430  -10.9070 O   0  0  0  0  0  0  0  0  0  0  0  0
   16.0130   61.2110  -10.0640 H   0  0  0  0  0  0  0  0  0  0  0  0
   18.4530   61.1470  -10.0700 H   0  0  0  0  0  0  0  0  0  0  0  0
   18.5390   65.1460  -11.5860 H   0  0  0  0  0  0  0  0  0  0  0  0
   16.0410   65.1480  -11.5570 H   0  0  0  0  0  0  0  0  0  0  0  0
   22.2290   61.5830   -8.4600 H   0  0  0  0  0  0  0  0  0  0  0  0
   23.8770   62.1480   -8.7820 H   0  0  0  0  0  0  0  0  0  0  0  0
   22.4900   62.4770   -6.4980 H   0  0  0  0  0  0  0  0  0  0  0  0
   21.7550   67.1660   -8.8360 H   0  0  0  0  0  0  0  0  0  0  0  0
   20.8400   66.3620   -4.7770 H   0  0  0  0  0  0  0  0  0  0  0  0
   21.8670   64.1310   -5.0160 H   0  0  0  0  0  0  0  0  0  0  0  0
   20.5540   68.6350   -5.6280 H   0  0  0  0  0  0  0  0  0  0  0  0
   21.1130   68.9620   -7.3580 H   0  0  0  0  0  0  0  0  0  0  0  0
   19.5470   68.1670   -7.0390 H   0  0  0  0  0  0  0  0  0  0  0  0
   22.7480   65.4150  -10.2510 H   0  0  0  0  0  0  0  0  0  0  0  0
   24.0310   64.6020   -9.2100 H   0  0  0  0  0  0  0  0  0  0  0  0
   24.8890   64.0630   -7.0350 H   0  0  0  0  0  0  0  0  0  0  0  0
   24.8860   62.2260   -7.0980 H   0  0  0  0  0  0  0  0  0  0  0  0
   24.3700   63.1130   -5.6230 H   0  0  0  0  0  0  0  0  0  0  0  0
  2  1  1  0  0  0  0
  2  3  1  0  0  0  0
  3 28  1  0  0  0  0
  4  3  2  0  0  0  0
  4 29  1  0  0  0  0
  5  8  1  0  0  0  0
  5  4  1  0  0  0  0
  6  7  1  0  0  0  0
  6  5  2  0  0  0  0
  7  2  2  0  0  0  0
  8 25  1  0  0  0  0
  9 11  1  0  0  0  0
  9  8  1  0  0  0  0
 10  9  2  0  0  0  0
 11 12  1  0  0  0  0
 13 12  1  6  0  0  0
 13 23  1  0  0  0  0
 13 14  1  0  0  0  0
 14 32  1  0  0  0  0
 14 15  1  0  0  0  0
 15 16  1  0  0  0  0
 15 24  1  0  0  0  0
 15 34  1  0  0  0  0
 16 21  1  0  0  0  0
 17 18  1  0  0  0  0
 17 16  2  0  0  0  0
 18 19  2  0  0  0  0
 19 22  1  0  0  0  0
 19 20  1  0  0  0  0
 20 36  1  0  0  0  0
 21 20  2  0  0  0  0
 21 37  1  0  0  0  0
 22 38  1  0  0  0  0
 23 42  1  0  0  0  0
 23 17  1  0  0  0  0
 24 45  1  0  0  0  0
 25 13  1  0  0  0  0
 25 26  2  0  0  0  0
 27 12  2  0  0  0  0
 30  6  1  0  0  0  0
 31  7  1  0  0  0  0
 33 14  1  0  0  0  0
 35 18  1  0  0  0  0
 39 22  1  0  0  0  0
 40 22  1  0  0  0  0
 41 23  1  0  0  0  0
 43 24  1  0  0  0  0
 44 24  1  0  0  0  0
M  END
>  <Pose>
1

>  <Score>
-5.89

$$$$
