
 OpenBabel03202210193D

 50 53  0  0  0  0  0  0  0  0999 V2000
   26.5710   60.8540   -1.6920 B   0  0  0  0  0  0  0  0  0  0  0  0
   25.5650   61.9580   -2.8890 C   0  0  0  0  0  0  0  0  0  0  0  0
   24.4080   62.5900   -2.4660 C   0  0  0  0  0  0  0  0  0  0  0  0
   23.6880   63.3860   -3.3370 C   0  0  0  0  0  0  0  0  0  0  0  0
   24.0840   63.5820   -4.6450 C   0  0  0  0  0  0  0  0  0  0  0  0
   25.2350   62.9600   -5.0810 C   0  0  0  0  0  0  0  0  0  0  0  0
   25.9410   62.1690   -4.1970 C   0  0  0  0  0  0  0  0  0  0  0  0
   23.3220   64.3960   -5.4910 N   0  0  0  0  0  0  0  0  0  0  0  0
   22.9770   65.7200   -5.0770 C   0  0  0  0  0  0  0  0  0  0  0  0
   23.3890   66.1030   -3.9360 O   0  0  0  0  0  0  0  0  0  0  0  0
   22.2050   66.5430   -5.9320 N   0  0  0  0  0  0  0  0  0  0  0  0
   21.7330   66.1350   -7.2120 C   0  0  0  0  0  0  0  0  0  0  0  0
   21.0460   66.8930   -7.9520 O   0  0  0  0  0  0  0  0  0  0  0  0
   22.0710   64.7750   -7.6710 C   0  0  0  0  0  0  0  0  0  0  0  0
   21.6600   64.3360   -8.8500 C   0  0  0  0  0  0  0  0  0  0  0  0
   22.0020   63.0210   -9.2640 N   0  0  0  0  0  0  0  0  0  0  0  0
   21.3480   62.2950  -10.2470 N   0  0  0  0  0  0  0  0  0  0  0  0
   19.9400   62.1010  -10.3060 C   0  0  0  0  0  0  0  0  0  0  0  0
   19.0430   63.0500  -10.5950 N   0  0  0  0  0  0  0  0  0  0  0  0
   17.8080   62.5240  -10.5670 C   0  0  0  0  0  0  0  0  0  0  0  0
   17.9410   61.1800  -10.2450 C   0  0  0  0  0  0  0  0  0  0  0  0
   19.2500   60.9790  -10.0990 N   0  0  0  0  0  0  0  0  0  0  0  0
   16.8720   60.3700  -10.1380 N   0  0  0  0  0  0  0  0  0  0  0  0
   15.6570   60.8770  -10.3470 C   0  0  0  0  0  0  0  0  0  0  0  0
   14.6230   60.1470  -10.2570 O   0  0  0  0  0  0  0  0  0  0  0  0
   15.4550   62.1830  -10.6660 N   0  0  0  0  0  0  0  0  0  0  0  0
   16.5370   62.9890  -10.7710 C   0  0  0  0  0  0  0  0  0  0  0  0
   16.3560   64.1900  -11.0620 O   0  0  0  0  0  0  0  0  0  0  0  0
   14.1210   62.6820  -10.8850 C   0  0  0  0  0  0  0  0  0  0  0  0
   17.0890   58.9940   -9.8010 C   0  0  0  0  0  0  0  0  0  0  0  0
   19.2620   64.4670  -10.9070 C   0  0  0  0  0  0  0  0  0  0  0  0
   22.8680   63.9520   -6.7680 C   0  0  0  0  0  0  0  0  0  0  0  0
   23.1810   62.7850   -7.1160 O   0  0  0  0  0  0  0  0  0  0  0  0
   24.1180   62.4230   -1.4380 H   0  0  0  0  0  0  0  0  0  0  0  0
   22.7870   63.8450   -2.9180 H   0  0  0  0  0  0  0  0  0  0  0  0
   25.6030   63.0770   -6.1120 H   0  0  0  0  0  0  0  0  0  0  0  0
   26.8360   61.6980   -4.5770 H   0  0  0  0  0  0  0  0  0  0  0  0
   21.9740   67.5060   -5.5920 H   0  0  0  0  0  0  0  0  0  0  0  0
   21.0760   64.9400   -9.5090 H   0  0  0  0  0  0  0  0  0  0  0  0
   22.8260   62.5890   -8.7640 H   0  0  0  0  0  0  0  0  0  0  0  0
   21.9820   61.8750  -10.9870 H   0  0  0  0  0  0  0  0  0  0  0  0
   13.4210   61.8230  -10.9340 H   0  0  0  0  0  0  0  0  0  0  0  0
   14.0340   63.1980  -11.8670 H   0  0  0  0  0  0  0  0  0  0  0  0
   13.8430   63.3760  -10.0720 H   0  0  0  0  0  0  0  0  0  0  0  0
   16.9450   58.7860   -8.7220 H   0  0  0  0  0  0  0  0  0  0  0  0
   16.4090   58.3740  -10.4230 H   0  0  0  0  0  0  0  0  0  0  0  0
   18.1240   58.6910  -10.0620 H   0  0  0  0  0  0  0  0  0  0  0  0
   19.2750   64.5660  -12.0310 H   0  0  0  0  0  0  0  0  0  0  0  0
   18.4480   65.0950  -10.5440 H   0  0  0  0  0  0  0  0  0  0  0  0
   20.2660   64.7710  -10.5520 H   0  0  0  0  0  0  0  0  0  0  0  0
  2  3  1  0  0  0  0
  2  1  1  0  0  0  0
  3 34  1  0  0  0  0
  4 35  1  0  0  0  0
  4  3  2  0  0  0  0
  5  4  1  0  0  0  0
  6  5  2  0  0  0  0
  6  7  1  0  0  0  0
  7  2  2  0  0  0  0
  8  9  1  0  0  0  0
  8  5  1  0  0  0  0
  9 10  2  0  0  0  0
 11 38  1  0  0  0  0
 11  9  1  0  0  0  0
 12 11  1  0  0  0  0
 13 12  2  0  0  0  0
 14 12  1  0  0  0  0
 14 32  1  0  0  0  0
 15 14  2  0  0  0  0
 16 15  1  0  0  0  0
 16 40  1  0  0  0  0
 17 16  1  0  0  0  0
 18 17  1  0  0  0  0
 18 22  2  0  0  0  0
 19 20  1  0  0  0  0
 19 18  1  0  0  0  0
 20 21  2  0  0  0  0
 21 23  1  0  0  0  0
 21 22  1  0  0  0  0
 23 30  1  0  0  0  0
 24 25  2  0  0  0  0
 24 23  1  0  0  0  0
 26 24  1  0  0  0  0
 27 26  1  0  0  0  0
 27 20  1  0  0  0  0
 28 27  2  0  0  0  0
 29 26  1  0  0  0  0
 29 44  1  0  0  0  0
 30 45  1  0  0  0  0
 31 19  1  0  0  0  0
 31 50  1  0  0  0  0
 31 49  1  0  0  0  0
 32  8  1  0  0  0  0
 33 32  2  0  0  0  0
 36  6  1  0  0  0  0
 37  7  1  0  0  0  0
 39 15  1  0  0  0  0
 41 17  1  0  0  0  0
 42 29  1  0  0  0  0
 43 29  1  0  0  0  0
 46 30  1  0  0  0  0
 47 30  1  0  0  0  0
 48 31  1  0  0  0  0
M  END
>  <Pose>
1

>  <Score>
-9.18

$$$$
