
 OpenBabel03202210193D

 44 47  0  0  0  0  0  0  0  0999 V2000
   15.0650   62.5280  -10.6780 B   0  0  0  0  0  0  0  0  0  0  0  0
   16.9370   62.6960  -10.5210 C   0  0  0  0  0  0  0  0  0  0  0  0
   17.7460   61.6310  -10.1860 C   0  0  0  0  0  0  0  0  0  0  0  0
   19.1300   61.7800  -10.0760 C   0  0  0  0  0  0  0  0  0  0  0  0
   19.7060   63.0090  -10.3040 C   0  0  0  0  0  0  0  0  0  0  0  0
   18.8680   64.0480  -10.6350 C   0  0  0  0  0  0  0  0  0  0  0  0
   17.5090   63.9310  -10.7500 C   0  0  0  0  0  0  0  0  0  0  0  0
   21.0940   63.2600  -10.2150 N   0  0  0  0  0  0  0  0  0  0  0  0
   21.8670   63.3960  -11.4340 C   0  0  0  0  0  0  0  0  0  0  0  0
   23.3430   63.5950  -11.1770 C   0  0  0  0  0  0  0  0  0  0  0  0
   23.7450   62.5840  -10.0920 C   0  0  0  0  0  0  0  0  0  0  0  0
   23.1200   63.0640   -8.8880 N   0  0  0  0  0  0  0  0  0  0  0  0
   21.7960   63.3920   -8.9850 C   0  0  0  0  0  0  0  0  0  0  0  0
   21.3740   63.8180   -7.7840 N   0  0  0  0  0  0  0  0  0  0  0  0
   22.4440   63.7480   -6.9520 C   0  0  0  0  0  0  0  0  0  0  0  0
   23.5490   63.2720   -7.6390 C   0  0  0  0  0  0  0  0  0  0  0  0
   24.7630   63.1150   -7.0000 C   0  0  0  0  0  0  0  0  0  0  0  0
   25.7570   62.6730   -7.6690 O   0  0  0  0  0  0  0  0  0  0  0  0
   24.8660   63.4260   -5.6960 N   0  0  0  0  0  0  0  0  0  0  0  0
   23.7790   63.8850   -5.0530 C   0  0  0  0  0  0  0  0  0  0  0  0
   23.9200   64.1650   -3.8310 O   0  0  0  0  0  0  0  0  0  0  0  0
   22.5980   64.0460   -5.6490 N   0  0  0  0  0  0  0  0  0  0  0  0
   21.4400   64.5460   -4.9220 C   0  0  0  0  0  0  0  0  0  0  0  0
   26.1380   63.2620   -5.0140 C   0  0  0  0  0  0  0  0  0  0  0  0
   26.3520   61.8020   -4.7470 C   0  0  0  0  0  0  0  0  0  0  0  0
   27.2290   61.1620   -5.3720 O   0  0  0  0  0  0  0  0  0  0  0  0
   25.5780   61.1080   -3.7900 N   0  0  0  0  0  0  0  0  0  0  0  0
   17.3140   60.6520  -10.0020 H   0  0  0  0  0  0  0  0  0  0  0  0
   19.7250   60.9190   -9.8140 H   0  0  0  0  0  0  0  0  0  0  0  0
   19.2800   65.0510  -10.8280 H   0  0  0  0  0  0  0  0  0  0  0  0
   16.9030   64.7840  -11.0150 H   0  0  0  0  0  0  0  0  0  0  0  0
   21.7840   62.4380  -12.0240 H   0  0  0  0  0  0  0  0  0  0  0  0
   21.4610   64.1980  -12.0930 H   0  0  0  0  0  0  0  0  0  0  0  0
   23.5250   64.6360  -10.7930 H   0  0  0  0  0  0  0  0  0  0  0  0
   23.9110   63.3870  -12.0800 H   0  0  0  0  0  0  0  0  0  0  0  0
   24.8280   62.4760  -10.0140 H   0  0  0  0  0  0  0  0  0  0  0  0
   23.2230   61.6300  -10.3860 H   0  0  0  0  0  0  0  0  0  0  0  0
   20.6620   64.8880   -5.6020 H   0  0  0  0  0  0  0  0  0  0  0  0
   21.1160   63.8080   -4.1690 H   0  0  0  0  0  0  0  0  0  0  0  0
   21.8190   65.4350   -4.3420 H   0  0  0  0  0  0  0  0  0  0  0  0
   26.1460   63.8310   -4.0710 H   0  0  0  0  0  0  0  0  0  0  0  0
   26.9410   63.6100   -5.6800 H   0  0  0  0  0  0  0  0  0  0  0  0
   25.6090   60.0680   -3.6830 H   0  0  0  0  0  0  0  0  0  0  0  0
   24.9310   61.6170   -3.1380 H   0  0  0  0  0  0  0  0  0  0  0  0
  1  2  1  0  0  0  0
  2  3  1  0  0  0  0
  3  4  2  0  0  0  0
  3 28  1  0  0  0  0
  4 29  1  0  0  0  0
  5  8  1  0  0  0  0
  5  4  1  0  0  0  0
  6  5  2  0  0  0  0
  7  6  1  0  0  0  0
  7  2  2  0  0  0  0
  8 13  1  0  0  0  0
  9 10  1  0  0  0  0
  9  8  1  0  0  0  0
 10 34  1  0  0  0  0
 10 11  1  0  0  0  0
 11 36  1  0  0  0  0
 11 12  1  0  0  0  0
 12 16  1  0  0  0  0
 13 12  1  0  0  0  0
 13 14  2  0  0  0  0
 14 15  1  0  0  0  0
 15 22  1  0  0  0  0
 16 17  1  0  0  0  0
 16 15  2  0  0  0  0
 17 19  1  0  0  0  0
 18 17  2  0  0  0  0
 19 20  1  0  0  0  0
 19 24  1  0  0  0  0
 20 21  2  0  0  0  0
 22 20  1  0  0  0  0
 22 23  1  0  0  0  0
 23 40  1  0  0  0  0
 23 39  1  0  0  0  0
 24 25  1  0  0  0  0
 24 41  1  0  0  0  0
 25 27  1  0  0  0  0
 26 25  2  0  0  0  0
 27 43  1  0  0  0  0
 27 44  1  0  0  0  0
 30  6  1  0  0  0  0
 31  7  1  0  0  0  0
 32  9  1  0  0  0  0
 33  9  1  0  0  0  0
 35 10  1  0  0  0  0
 37 11  1  0  0  0  0
 38 23  1  0  0  0  0
 42 24  1  0  0  0  0
M  END
>  <Pose>
1

>  <Score>
-7.72

$$$$
