
 OpenBabel03202210193D

 47 51  0  0  1  0  0  0  0  0999 V2000
   14.7090   61.2200  -10.5850 B   0  0  0  0  0  0  0  0  0  0  0  0
   16.5640   61.6810  -10.3710 C   0  0  0  0  0  0  0  0  0  0  0  0
   17.5250   60.7300  -10.2000 C   0  0  0  0  0  0  0  0  0  0  0  0
   18.8580   61.1030  -10.0490 C   0  0  0  0  0  0  0  0  0  0  0  0
   19.2450   62.4270  -10.0660 C   0  0  0  0  0  0  0  0  0  0  0  0
   18.2460   63.3610  -10.2400 C   0  0  0  0  0  0  0  0  0  0  0  0
   16.9220   63.0190  -10.3920 C   0  0  0  0  0  0  0  0  0  0  0  0
   20.6160   62.7730   -9.9080 N   0  0  0  0  0  0  0  0  0  0  0  0
   21.4800   63.1310  -10.8530 N   0  0  0  0  0  0  0  0  0  0  0  0
   22.6870   63.3830  -10.3150 C   0  0  0  0  0  0  0  0  0  0  0  0
   23.7760   63.7620  -10.9720 C   0  0  0  0  0  0  0  0  0  0  0  0
   22.6120   63.1790   -8.9530 C   0  0  1  0  0  0  0  0  0  0  0  0
   23.5740   63.3140   -8.0350 C   0  0  0  0  0  0  0  0  0  0  0  0
   23.2420   63.0420   -6.6790 N   0  0  0  0  0  4  0  0  0  0  0  0
   24.2340   62.9920   -5.6440 C   0  0  2  0  0  0  0  0  0  0  0  0
   24.4240   61.5910   -5.1560 C   0  0  0  0  0  0  0  0  0  0  0  0
   25.5040   61.5690   -4.1800 N   0  0  1  0  0  0  0  0  0  0  0  0
   26.7110   62.0440   -4.8450 C   0  0  0  0  0  0  0  0  0  0  0  0
   26.5850   63.4170   -5.2670 N   0  0  2  0  0  0  0  0  0  0  0  0
   26.2060   64.2450   -4.1260 C   0  0  0  0  0  0  0  0  0  0  0  0
   24.9790   63.7850   -3.5150 N   0  0  2  0  0  0  0  0  0  0  0  0
   25.1560   62.4220   -3.0720 C   0  0  0  0  0  0  0  0  0  0  0  0
   23.8890   63.8620   -4.4580 C   0  0  0  0  0  0  0  0  0  0  0  0
   25.5380   63.5210   -6.2500 C   0  0  0  0  0  0  0  0  0  0  0  0
   21.2960   62.7980   -8.7430 C   0  0  0  0  0  0  0  0  0  0  0  0
   20.8210   62.5200   -7.6170 O   0  0  0  0  0  0  0  0  0  0  0  0
   17.2440   59.6920  -10.1840 H   0  0  0  0  0  0  0  0  0  0  0  0
   19.6160   60.3460   -9.9140 H   0  0  0  0  0  0  0  0  0  0  0  0
   18.5320   64.4010  -10.2560 H   0  0  0  0  0  0  0  0  0  0  0  0
   16.1290   63.7500  -10.5300 H   0  0  0  0  0  0  0  0  0  0  0  0
   21.2530   63.2070  -11.8640 H   0  0  0  0  0  0  0  0  0  0  0  0
   23.7400   63.8980  -12.0440 H   0  0  0  0  0  0  0  0  0  0  0  0
   24.7160   63.9510  -10.4930 H   0  0  0  0  0  0  0  0  0  0  0  0
   24.5540   63.6190   -8.3550 H   0  0  0  0  0  0  0  0  0  0  0  0
   22.2510   62.8780   -6.4480 H   0  0  0  0  0  0  0  0  0  0  0  0
   24.6170   60.9220   -6.0000 H   0  0  0  0  0  0  0  0  0  0  0  0
   23.4760   61.2760   -4.6620 H   0  0  0  0  0  0  0  0  0  0  0  0
   26.8870   61.4100   -5.7240 H   0  0  0  0  0  0  0  0  0  0  0  0
   27.5570   61.9950   -4.1190 H   0  0  0  0  0  0  0  0  0  0  0  0
   26.1680   65.2940   -4.4390 H   0  0  0  0  0  0  0  0  0  0  0  0
   27.0290   64.1400   -3.3890 H   0  0  0  0  0  0  0  0  0  0  0  0
   24.1980   62.0240   -2.6500 H   0  0  0  0  0  0  0  0  0  0  0  0
   25.9630   62.3540   -2.3230 H   0  0  0  0  0  0  0  0  0  0  0  0
   22.9690   63.4740   -3.9760 H   0  0  0  0  0  0  0  0  0  0  0  0
   23.7200   64.9200   -4.7510 H   0  0  0  0  0  0  0  0  0  0  0  0
   25.7620   62.8490   -7.1040 H   0  0  0  0  0  0  0  0  0  0  0  0
   25.3600   64.5720   -6.5540 H   0  0  0  0  0  0  0  0  0  0  0  0
  1  2  1  0  0  0  0
  2  3  1  0  0  0  0
  3 27  1  0  0  0  0
  3  4  2  0  0  0  0
  4 28  1  0  0  0  0
  5  4  1  0  0  0  0
  5  8  1  0  0  0  0
  6  5  2  0  0  0  0
  7  2  2  0  0  0  0
  7  6  1  0  0  0  0
  8 25  1  0  0  0  0
  9 10  1  0  0  0  0
  9  8  1  0  0  0  0
 10 12  1  0  0  0  0
 11 33  1  0  0  0  0
 11 10  2  0  0  0  0
 12 25  1  0  0  0  0
 12 13  1  1  0  0  0
 13 14  2  0  0  0  0
 14 35  1  0  0  0  0
 15 14  1  6  0  0  0
 15 16  1  0  0  0  0
 15 23  1  0  0  0  0
 16 37  1  0  0  0  0
 17 16  1  6  0  0  0
 17 22  1  0  0  0  0
 18 17  1  0  0  0  0
 18 39  1  0  0  0  0
 19 24  1  6  0  0  0
 19 18  1  0  0  0  0
 19 20  1  0  0  0  0
 20 21  1  0  0  0  0
 20 41  1  0  0  0  0
 21 23  1  6  0  0  0
 21 22  1  0  0  0  0
 22 42  1  0  0  0  0
 22 43  1  0  0  0  0
 23 44  1  0  0  0  0
 24 15  1  0  0  0  0
 25 26  2  0  0  0  0
 29  6  1  0  0  0  0
 30  7  1  0  0  0  0
 31  9  1  0  0  0  0
 32 11  1  0  0  0  0
 34 13  1  0  0  0  0
 36 16  1  0  0  0  0
 38 18  1  0  0  0  0
 40 20  1  0  0  0  0
 45 23  1  0  0  0  0
 46 24  1  0  0  0  0
 47 24  1  0  0  0  0
M  END
>  <Pose>
1

>  <Score>
-6.70

$$$$
