
 OpenBabel03202210193D

 49 52  0  0  1  0  0  0  0  0999 V2000
   12.4070   64.1630  -13.5130 B   0  0  0  0  0  0  0  0  0  0  0  0
   13.9080   63.8890  -12.3480 C   0  0  0  0  0  0  0  0  0  0  0  0
   14.8570   64.8790  -12.2140 C   0  0  0  0  0  0  0  0  0  0  0  0
   15.9500   64.6780  -11.3650 C   0  0  0  0  0  0  0  0  0  0  0  0
   16.0930   63.5070  -10.6600 C   0  0  0  0  0  0  0  0  0  0  0  0
   15.1360   62.5340  -10.8070 C   0  0  0  0  0  0  0  0  0  0  0  0
   14.0550   62.7160  -11.6380 C   0  0  0  0  0  0  0  0  0  0  0  0
   17.1730   63.3200   -9.8260 O   0  0  0  0  0  0  0  0  0  0  0  0
   18.4520   63.1720  -10.3730 C   0  0  0  0  0  0  0  0  0  0  0  0
   19.0360   61.8400  -10.1350 C   0  0  0  0  0  0  0  0  0  0  0  0
   18.4430   60.8210  -10.5300 O   0  0  0  0  0  0  0  0  0  0  0  0
   20.2690   61.7280   -9.4600 N   0  0  0  0  0  0  0  0  0  0  0  0
   20.9890   62.8610   -8.9790 C   0  0  0  0  0  0  0  0  0  0  0  0
   21.9780   62.7280   -8.0760 N   0  0  0  0  0  0  0  0  0  0  0  0
   22.6280   63.8000   -7.6550 C   0  0  0  0  0  0  0  0  0  0  0  0
   23.6320   63.9220   -6.7770 N   0  0  0  0  0  0  0  0  0  0  0  0
   23.9120   65.2440   -6.7240 C   0  0  0  0  0  0  0  0  0  0  0  0
   23.1030   65.9200   -7.5450 N   0  0  0  0  0  0  0  0  0  0  0  0
   22.2790   65.0620   -8.1510 C   0  0  0  0  0  0  0  0  0  0  0  0
   21.2640   65.2070   -9.0780 C   0  0  0  0  0  0  0  0  0  0  0  0
   20.6440   64.0890   -9.4660 N   0  0  0  0  0  0  0  0  0  0  0  0
   20.9610   66.4810   -9.5370 O   0  0  0  0  0  0  0  0  0  0  0  0
   24.3270   62.9570   -6.0150 C   0  0  2  0  0  0  0  0  0  0  0  0
   23.4900   62.3240   -5.0850 O   0  0  0  0  0  0  0  0  0  0  0  0
   23.7650   63.0150   -3.9080 C   0  0  2  0  0  0  0  0  0  0  0  0
   25.2850   62.9330   -3.8950 C   0  0  1  0  0  0  0  0  0  0  0  0
   25.5570   63.3790   -5.3290 C   0  0  1  0  0  0  0  0  0  0  0  0
   26.6990   62.7150   -5.8300 O   0  0  0  0  0  0  0  0  0  0  0  0
   25.8690   63.7350   -2.9550 O   0  0  0  0  0  0  0  0  0  0  0  0
   23.1520   62.3640   -2.7020 C   0  0  0  0  0  0  0  0  0  0  0  0
   21.8550   62.7330   -2.4720 O   0  0  0  0  0  0  0  0  0  0  0  0
   14.7370   65.7920  -12.7690 H   0  0  0  0  0  0  0  0  0  0  0  0
   16.6490   65.4950  -11.3120 H   0  0  0  0  0  0  0  0  0  0  0  0
   15.1810   61.5760  -10.2800 H   0  0  0  0  0  0  0  0  0  0  0  0
   13.2870   61.9620  -11.7700 H   0  0  0  0  0  0  0  0  0  0  0  0
   19.1230   63.9110   -9.8550 H   0  0  0  0  0  0  0  0  0  0  0  0
   18.4960   63.4520  -11.4460 H   0  0  0  0  0  0  0  0  0  0  0  0
   20.7030   60.7760   -9.2920 H   0  0  0  0  0  0  0  0  0  0  0  0
   24.6840   65.7270   -6.1070 H   0  0  0  0  0  0  0  0  0  0  0  0
   21.3630   66.7320  -10.4470 H   0  0  0  0  0  0  0  0  0  0  0  0
   24.6130   62.1110   -6.7140 H   0  0  0  0  0  0  0  0  0  0  0  0
   23.5200   64.0930   -3.9770 H   0  0  0  0  0  0  0  0  0  0  0  0
   25.6090   61.8750   -3.8130 H   0  0  0  0  0  0  0  0  0  0  0  0
   25.7980   64.4280   -5.3120 H   0  0  0  0  0  0  0  0  0  0  0  0
   26.5390   61.7530   -5.6590 H   0  0  0  0  0  0  0  0  0  0  0  0
   25.9830   64.6910   -3.2620 H   0  0  0  0  0  0  0  0  0  0  0  0
   23.8390   62.5400   -1.8510 H   0  0  0  0  0  0  0  0  0  0  0  0
   23.1780   61.2600   -2.8850 H   0  0  0  0  0  0  0  0  0  0  0  0
   21.2570   62.0600   -2.8910 H   0  0  0  0  0  0  0  0  0  0  0  0
  1  2  1  0  0  0  0
  2  3  2  0  0  0  0
  2  7  1  0  0  0  0
  3  4  1  0  0  0  0
  4 33  1  0  0  0  0
  4  5  2  0  0  0  0
  5  8  1  0  0  0  0
  6  5  1  0  0  0  0
  6 34  1  0  0  0  0
  7  6  2  0  0  0  0
  9 10  1  0  0  0  0
  9 36  1  0  0  0  0
  9  8  1  0  0  0  0
 10 12  1  0  0  0  0
 11 10  2  0  0  0  0
 12 38  1  0  0  0  0
 12 13  1  0  0  0  0
 13 14  2  0  0  0  0
 14 15  1  0  0  0  0
 15 16  1  0  0  0  0
 16 17  1  0  0  0  0
 16 23  1  0  0  0  0
 17 39  1  0  0  0  0
 18 17  2  0  0  0  0
 19 15  2  0  0  0  0
 19 18  1  0  0  0  0
 20 19  1  0  0  0  0
 21 20  2  0  0  0  0
 21 13  1  0  0  0  0
 22 20  1  0  0  0  0
 23 41  1  6  0  0  0
 23 27  1  0  0  0  0
 23 24  1  0  0  0  0
 24 25  1  0  0  0  0
 25 42  1  6  0  0  0
 25 26  1  0  0  0  0
 25 30  1  0  0  0  0
 26 43  1  1  0  0  0
 26 29  1  0  0  0  0
 27 44  1  6  0  0  0
 27 26  1  0  0  0  0
 28 45  1  0  0  0  0
 28 27  1  0  0  0  0
 30 31  1  0  0  0  0
 30 47  1  0  0  0  0
 32  3  1  0  0  0  0
 35  7  1  0  0  0  0
 37  9  1  0  0  0  0
 40 22  1  0  0  0  0
 46 29  1  0  0  0  0
 48 30  1  0  0  0  0
 49 31  1  0  0  0  0
M  END
>  <Pose>
1

>  <Score>
-9.34

$$$$
