
 OpenBabel03202210193D

 53 57  0  0  1  0  0  0  0  0999 V2000
   26.7890   63.8380   -7.0970 B   0  0  0  0  0  0  0  0  0  0  0  0
   25.7740   63.2380   -5.6090 C   0  0  0  0  0  0  0  0  0  0  0  0
   26.1940   62.1930   -4.8220 C   0  0  0  0  0  0  0  0  0  0  0  0
   25.4760   61.7550   -3.7540 C   0  0  0  0  0  0  0  0  0  0  0  0
   24.2840   62.3720   -3.4410 C   0  0  0  0  0  0  0  0  0  0  0  0
   23.8360   63.4380   -4.2280 C   0  0  0  0  0  0  0  0  0  0  0  0
   24.5650   63.8860   -5.3160 C   0  0  0  0  0  0  0  0  0  0  0  0
   24.1680   64.9570   -6.1530 N   0  0  0  0  0  0  0  0  0  0  0  0
   22.8710   65.1500   -6.6710 C   0  0  0  0  0  0  0  0  0  0  0  0
   21.8480   65.3740   -6.0030 O   0  0  0  0  0  0  0  0  0  0  0  0
   22.7020   65.0790   -8.1720 C   0  0  0  0  0  0  0  0  0  0  0  0
   21.6050   64.2140   -8.5420 N   0  0  0  0  0  0  0  0  0  0  0  0
   21.4170   63.0940   -7.7490 C   0  0  0  0  0  0  0  0  0  0  0  0
   20.8450   61.8530   -8.3170 C   0  0  0  0  0  0  0  0  0  0  0  0
   20.1740   62.1690   -9.5450 N   0  0  0  0  0  0  0  0  0  0  0  0
   21.0000   62.8570  -10.5060 C   0  0  0  0  0  0  0  0  0  0  0  0
   21.3040   64.2110   -9.9200 C   0  0  0  0  0  0  0  0  0  0  0  0
   18.8390   61.8780   -9.8680 C   0  0  1  0  0  0  0  0  0  0  0  0
   18.3230   60.6230   -9.8900 N   0  0  0  0  0  0  0  0  0  0  0  0
   17.0380   60.3760  -10.2020 C   0  0  0  0  0  0  0  0  0  0  0  0
   16.1930   61.3760  -10.5110 N   0  0  0  0  0  0  0  0  0  0  0  0
   16.6190   62.6560  -10.5140 C   0  0  0  0  0  0  0  0  0  0  0  0
   16.0060   63.8380  -10.7790 N   0  0  0  0  0  0  0  0  0  0  0  0
   16.9250   64.7730  -10.6230 N   0  0  0  0  0  0  0  0  0  0  0  0
   18.1040   64.2560  -10.2710 C   0  0  0  0  0  0  0  0  0  0  0  0
   17.9320   62.8920  -10.1940 C   0  0  0  0  0  0  0  0  0  0  0  0
   14.6020   64.0080  -11.1590 C   0  0  0  0  0  0  0  0  0  0  0  0
   23.5770   61.9130   -2.3580 O   0  0  0  0  0  0  0  0  0  0  0  0
   23.6830   60.6110   -1.8380 C   0  0  0  0  0  0  0  0  0  0  0  0
   24.8490   59.8500   -2.3820 C   0  0  0  0  0  0  0  0  0  0  0  0
   25.8610   60.7040   -2.9330 O   0  0  0  0  0  0  0  0  0  0  0  0
   27.1300   61.7020   -5.0590 H   0  0  0  0  0  0  0  0  0  0  0  0
   22.9090   63.8920   -3.9560 H   0  0  0  0  0  0  0  0  0  0  0  0
   24.9110   65.6790   -6.4140 H   0  0  0  0  0  0  0  0  0  0  0  0
   22.4740   66.1130   -8.4890 H   0  0  0  0  0  0  0  0  0  0  0  0
   23.6650   64.7770   -8.6280 H   0  0  0  0  0  0  0  0  0  0  0  0
   22.4050   62.8140   -7.2690 H   0  0  0  0  0  0  0  0  0  0  0  0
   20.7940   63.3830   -6.8480 H   0  0  0  0  0  0  0  0  0  0  0  0
   21.6270   61.0830   -8.5300 H   0  0  0  0  0  0  0  0  0  0  0  0
   20.1820   61.3720   -7.5700 H   0  0  0  0  0  0  0  0  0  0  0  0
   20.5290   62.9450  -11.4870 H   0  0  0  0  0  0  0  0  0  0  0  0
   21.9870   62.3370  -10.6230 H   0  0  0  0  0  0  0  0  0  0  0  0
   20.4670   64.9120  -10.1200 H   0  0  0  0  0  0  0  0  0  0  0  0
   22.1810   64.6090  -10.4760 H   0  0  0  0  0  0  0  0  0  0  0  0
   16.7360   59.3320  -10.1880 H   0  0  0  0  0  0  0  0  0  0  0  0
   19.0520   64.7350  -10.0670 H   0  0  0  0  0  0  0  0  0  0  0  0
   14.1150   64.8310  -10.6050 H   0  0  0  0  0  0  0  0  0  0  0  0
   14.4990   64.2470  -12.2420 H   0  0  0  0  0  0  0  0  0  0  0  0
   14.0870   63.0360  -11.0020 H   0  0  0  0  0  0  0  0  0  0  0  0
   23.7090   60.6740   -0.7160 H   0  0  0  0  0  0  0  0  0  0  0  0
   22.7380   60.0580   -2.1080 H   0  0  0  0  0  0  0  0  0  0  0  0
   24.4940   59.2160   -3.2430 H   0  0  0  0  0  0  0  0  0  0  0  0
   25.2830   59.1550   -1.6520 H   0  0  0  0  0  0  0  0  0  0  0  0
  1  2  1  0  0  0  0
  2  7  2  0  0  0  0
  2  3  1  0  0  0  0
  3  4  2  0  0  0  0
  4  5  1  0  0  0  0
  4 31  1  0  0  0  0
  5 28  1  0  0  0  0
  6 33  1  0  0  0  0
  6  5  2  0  0  0  0
  7  6  1  0  0  0  0
  8  7  1  0  0  0  0
  9  8  1  0  0  0  0
  9 10  2  0  0  0  0
 11  9  1  0  0  0  0
 12 11  1  0  0  0  0
 12 13  1  0  0  0  0
 13 37  1  0  0  0  0
 13 38  1  0  0  0  0
 14 13  1  0  0  0  0
 14 40  1  0  0  0  0
 15 14  1  0  0  0  0
 16 17  1  0  0  0  0
 16 15  1  0  0  0  0
 17 12  1  0  0  0  0
 18 15  1  1  0  0  0
 19 18  1  0  0  0  0
 20 45  1  0  0  0  0
 20 19  2  0  0  0  0
 21 20  1  0  0  0  0
 22 21  1  0  0  0  0
 22 26  2  0  0  0  0
 23 24  1  0  0  0  0
 23 22  1  0  0  0  0
 24 25  2  0  0  0  0
 25 26  1  0  0  0  0
 25 46  1  0  0  0  0
 26 18  1  0  0  0  0
 27 49  1  0  0  0  0
 27 23  1  0  0  0  0
 27 47  1  0  0  0  0
 28 29  1  0  0  0  0
 29 50  1  0  0  0  0
 30 29  1  0  0  0  0
 30 53  1  0  0  0  0
 31 30  1  0  0  0  0
 32  3  1  0  0  0  0
 34  8  1  0  0  0  0
 35 11  1  0  0  0  0
 36 11  1  0  0  0  0
 39 14  1  0  0  0  0
 41 16  1  0  0  0  0
 42 16  1  0  0  0  0
 43 17  1  0  0  0  0
 44 17  1  0  0  0  0
 48 27  1  0  0  0  0
 51 29  1  0  0  0  0
 52 30  1  0  0  0  0
M  END
>  <Pose>
1

>  <Score>
-6.99

$$$$
