
 OpenBabel03202210193D

 44 47  0  0  0  0  0  0  0  0999 V2000
   14.3170   64.2590  -11.0590 B   0  0  0  0  0  0  0  0  0  0  0  0
   15.9640   63.3420  -10.7710 C   0  0  0  0  0  0  0  0  0  0  0  0
   17.1630   64.0340  -10.7860 C   0  0  0  0  0  0  0  0  0  0  0  0
   18.3760   63.3940  -10.5800 C   0  0  0  0  0  0  0  0  0  0  0  0
   18.3160   62.0320  -10.3590 C   0  0  0  0  0  0  0  0  0  0  0  0
   17.1420   61.3200  -10.3390 C   0  0  0  0  0  0  0  0  0  0  0  0
   15.9540   61.9780  -10.5460 C   0  0  0  0  0  0  0  0  0  0  0  0
   19.5230   61.3890  -10.1530 C   0  0  0  0  0  0  0  0  0  0  0  0
   19.5380   60.1310   -9.9440 O   0  0  0  0  0  0  0  0  0  0  0  0
   20.6860   62.1290  -10.1790 C   0  0  0  0  0  0  0  0  0  0  0  0
   20.6810   63.4860  -10.4030 C   0  0  0  0  0  0  0  0  0  0  0  0
   19.5130   64.0470  -10.5930 O   0  0  0  0  0  0  0  0  0  0  0  0
   21.9460   64.2310  -10.4220 C   0  0  0  0  0  0  0  0  0  0  0  0
   22.3850   64.6220  -11.5420 O   0  0  0  0  0  0  0  0  0  0  0  0
   22.6780   64.5200   -9.2530 N   0  0  0  0  0  0  0  0  0  0  0  0
   23.7500   65.4810   -9.3220 C   0  0  0  0  0  0  0  0  0  0  0  0
   23.6020   66.6000   -8.3130 C   0  0  0  0  0  0  0  0  0  0  0  0
   22.9350   66.0910   -7.1730 N   0  0  0  0  0  0  0  0  0  0  0  0
   23.2280   64.7350   -6.9230 C   0  0  0  0  0  0  0  0  0  0  0  0
   22.4380   63.9200   -7.9630 C   0  0  0  0  0  0  0  0  0  0  0  0
   21.6170   66.5310   -6.9480 C   0  0  0  0  0  0  0  0  0  0  0  0
   21.4580   67.9630   -6.7100 C   0  0  0  0  0  0  0  0  0  0  0  0
   20.3150   68.6540   -6.8490 N   0  0  0  0  0  0  0  0  0  0  0  0
   20.5710   69.8790   -6.5540 O   0  0  0  0  0  0  0  0  0  0  0  0
   21.8290   70.0380   -6.2240 N   0  0  0  0  0  0  0  0  0  0  0  0
   22.4350   68.8330   -6.3110 C   0  0  0  0  0  0  0  0  0  0  0  0
   23.8700   68.5280   -6.0290 C   0  0  0  0  0  0  0  0  0  0  0  0
   17.1490   65.0930  -10.9620 H   0  0  0  0  0  0  0  0  0  0  0  0
   17.1720   60.2550  -10.1600 H   0  0  0  0  0  0  0  0  0  0  0  0
   15.0130   61.4250  -10.5330 H   0  0  0  0  0  0  0  0  0  0  0  0
   21.6270   61.6090  -10.0150 H   0  0  0  0  0  0  0  0  0  0  0  0
   23.8590   65.8930  -10.3620 H   0  0  0  0  0  0  0  0  0  0  0  0
   24.7230   64.9510   -9.0960 H   0  0  0  0  0  0  0  0  0  0  0  0
   23.0580   67.4600   -8.7830 H   0  0  0  0  0  0  0  0  0  0  0  0
   24.6270   66.9910   -8.0430 H   0  0  0  0  0  0  0  0  0  0  0  0
   24.3000   64.5520   -7.1380 H   0  0  0  0  0  0  0  0  0  0  0  0
   22.9670   64.3540   -5.9340 H   0  0  0  0  0  0  0  0  0  0  0  0
   22.7800   62.8650   -7.9640 H   0  0  0  0  0  0  0  0  0  0  0  0
   21.3650   63.8970   -7.6920 H   0  0  0  0  0  0  0  0  0  0  0  0
   21.1770   65.9630   -6.1020 H   0  0  0  0  0  0  0  0  0  0  0  0
   20.9910   66.2500   -7.8420 H   0  0  0  0  0  0  0  0  0  0  0  0
   23.9850   67.4640   -5.6890 H   0  0  0  0  0  0  0  0  0  0  0  0
   24.4360   68.6610   -6.9540 H   0  0  0  0  0  0  0  0  0  0  0  0
   24.2350   69.1490   -5.1830 H   0  0  0  0  0  0  0  0  0  0  0  0
  1  2  1  0  0  0  0
  2  7  1  0  0  0  0
  3  2  2  0  0  0  0
  3  4  1  0  0  0  0
  4  5  2  0  0  0  0
  5  6  1  0  0  0  0
  5  8  1  0  0  0  0
  6 29  1  0  0  0  0
  7 30  1  0  0  0  0
  7  6  2  0  0  0  0
  8  9  2  0  0  0  0
 10  8  1  0  0  0  0
 10 31  1  0  0  0  0
 11 10  2  0  0  0  0
 12  4  1  0  0  0  0
 12 11  1  0  0  0  0
 13 11  1  0  0  0  0
 13 15  1  0  0  0  0
 14 13  2  0  0  0  0
 15 20  1  0  0  0  0
 16 15  1  0  0  0  0
 16 33  1  0  0  0  0
 16 17  1  0  0  0  0
 17 35  1  0  0  0  0
 17 18  1  0  0  0  0
 18 21  1  0  0  0  0
 18 19  1  0  0  0  0
 19 37  1  0  0  0  0
 20 39  1  0  0  0  0
 20 19  1  0  0  0  0
 21 22  1  0  0  0  0
 21 40  1  0  0  0  0
 22 26  1  0  0  0  0
 23 22  2  0  0  0  0
 23 24  1  0  0  0  0
 24 25  1  0  0  0  0
 26 25  2  0  0  0  0
 26 27  1  0  0  0  0
 27 42  1  0  0  0  0
 27 44  1  0  0  0  0
 28  3  1  0  0  0  0
 32 16  1  0  0  0  0
 34 17  1  0  0  0  0
 36 19  1  0  0  0  0
 38 20  1  0  0  0  0
 41 21  1  0  0  0  0
 43 27  1  0  0  0  0
M  END
>  <Pose>
1

>  <Score>
-5.49

$$$$
