
 OpenBabel03202210193D

 49 52  0  0  0  0  0  0  0  0999 V2000
   12.4090   63.8270  -11.3230 B   0  0  0  0  0  0  0  0  0  0  0  0
   14.0210   62.8730  -10.9580 C   0  0  0  0  0  0  0  0  0  0  0  0
   15.1950   63.5800  -10.7980 C   0  0  0  0  0  0  0  0  0  0  0  0
   16.3900   62.9370  -10.5310 C   0  0  0  0  0  0  0  0  0  0  0  0
   16.3680   61.5590  -10.4310 C   0  0  0  0  0  0  0  0  0  0  0  0
   15.1880   60.8620  -10.5920 C   0  0  0  0  0  0  0  0  0  0  0  0
   13.9910   61.4970  -10.8580 C   0  0  0  0  0  0  0  0  0  0  0  0
   17.7270   61.1300  -10.1510 C   0  0  0  0  0  0  0  0  0  0  0  0
   18.0660   59.9130   -9.9970 O   0  0  0  0  0  0  0  0  0  0  0  0
   18.5530   62.2820  -10.0880 N   0  0  0  0  0  0  0  0  0  0  0  0
   17.7620   63.4210  -10.3190 C   0  0  0  0  0  0  0  0  0  0  0  0
   18.1250   64.6290  -10.3440 O   0  0  0  0  0  0  0  0  0  0  0  0
   19.9740   62.2220   -9.8250 C   0  0  0  0  0  0  0  0  0  0  0  0
   20.8060   62.7750  -10.9220 C   0  0  0  0  0  0  0  0  0  0  0  0
   21.4220   64.0760  -10.4890 C   0  0  0  0  0  0  0  0  0  0  0  0
   22.6520   63.9290   -9.6780 C   0  0  0  0  0  0  0  0  0  0  0  0
   23.7670   63.5960  -10.1580 O   0  0  0  0  0  0  0  0  0  0  0  0
   22.6230   64.1690   -8.2570 N   0  0  0  0  0  0  0  0  0  0  0  0
   23.8360   64.1210   -7.4730 C   0  0  0  0  0  0  0  0  0  0  0  0
   23.9550   65.2380   -6.4910 C   0  0  0  0  0  0  0  0  0  0  0  0
   22.8390   66.1540   -6.4940 N   0  0  0  0  0  0  0  0  0  0  0  0
   21.4910   65.7990   -6.8490 C   0  0  0  0  0  0  0  0  0  0  0  0
   21.3920   64.4670   -7.5510 C   0  0  0  0  0  0  0  0  0  0  0  0
   23.0920   67.5110   -6.1150 C   0  0  0  0  0  0  0  0  0  0  0  0
   23.3010   67.8620   -4.8180 N   0  0  0  0  0  0  0  0  0  0  0  0
   23.5400   69.1120   -4.4240 C   0  0  0  0  0  0  0  0  0  0  0  0
   23.5790   70.1180   -5.3790 C   0  0  0  0  0  0  0  0  0  0  0  0
   23.3740   69.8030   -6.6800 N   0  0  0  0  0  0  0  0  0  0  0  0
   23.1370   68.5300   -7.0390 C   0  0  0  0  0  0  0  0  0  0  0  0
   15.2520   64.6650  -10.8690 H   0  0  0  0  0  0  0  0  0  0  0  0
   15.2220   59.7820  -10.5040 H   0  0  0  0  0  0  0  0  0  0  0  0
   13.0870   60.9200  -10.9790 H   0  0  0  0  0  0  0  0  0  0  0  0
   20.2340   61.1670   -9.6520 H   0  0  0  0  0  0  0  0  0  0  0  0
   20.1530   62.8310   -8.8890 H   0  0  0  0  0  0  0  0  0  0  0  0
   20.2810   62.8640  -11.8890 H   0  0  0  0  0  0  0  0  0  0  0  0
   21.6710   62.0820  -11.1490 H   0  0  0  0  0  0  0  0  0  0  0  0
   21.6560   64.7350  -11.3580 H   0  0  0  0  0  0  0  0  0  0  0  0
   20.6920   64.6470   -9.8770 H   0  0  0  0  0  0  0  0  0  0  0  0
   24.7210   64.0330   -8.1320 H   0  0  0  0  0  0  0  0  0  0  0  0
   23.7960   63.1470   -6.9070 H   0  0  0  0  0  0  0  0  0  0  0  0
   24.0320   64.8460   -5.4360 H   0  0  0  0  0  0  0  0  0  0  0  0
   24.8990   65.8070   -6.6510 H   0  0  0  0  0  0  0  0  0  0  0  0
   20.8800   65.7610   -5.9440 H   0  0  0  0  0  0  0  0  0  0  0  0
   21.1450   66.5720   -7.5870 H   0  0  0  0  0  0  0  0  0  0  0  0
   20.5070   64.4080   -8.2150 H   0  0  0  0  0  0  0  0  0  0  0  0
   21.3060   63.6740   -6.7520 H   0  0  0  0  0  0  0  0  0  0  0  0
   23.7040   69.3730   -3.3860 H   0  0  0  0  0  0  0  0  0  0  0  0
   23.7670   71.1310   -5.0980 H   0  0  0  0  0  0  0  0  0  0  0  0
   22.9780   68.3150   -8.0830 H   0  0  0  0  0  0  0  0  0  0  0  0
  1  2  1  0  0  0  0
  2  7  2  0  0  0  0
  2  3  1  0  0  0  0
  3  4  2  0  0  0  0
  4  5  1  0  0  0  0
  4 11  1  0  0  0  0
  5  8  1  0  0  0  0
  6 31  1  0  0  0  0
  6  5  2  0  0  0  0
  7  6  1  0  0  0  0
  8 10  1  0  0  0  0
  8  9  2  0  0  0  0
 10 13  1  0  0  0  0
 11 10  1  0  0  0  0
 12 11  2  0  0  0  0
 13 33  1  0  0  0  0
 13 34  1  0  0  0  0
 14 15  1  0  0  0  0
 14 13  1  0  0  0  0
 15 38  1  0  0  0  0
 15 16  1  0  0  0  0
 16 18  1  0  0  0  0
 17 16  2  0  0  0  0
 18 23  1  0  0  0  0
 18 19  1  0  0  0  0
 19 40  1  0  0  0  0
 19 20  1  0  0  0  0
 20 41  1  0  0  0  0
 21 20  1  0  0  0  0
 21 24  1  0  0  0  0
 22 21  1  0  0  0  0
 22 43  1  0  0  0  0
 23 22  1  0  0  0  0
 23 46  1  0  0  0  0
 24 25  1  0  0  0  0
 25 26  2  0  0  0  0
 26 47  1  0  0  0  0
 27 48  1  0  0  0  0
 27 26  1  0  0  0  0
 28 27  2  0  0  0  0
 29 28  1  0  0  0  0
 29 24  2  0  0  0  0
 30  3  1  0  0  0  0
 32  7  1  0  0  0  0
 35 14  1  0  0  0  0
 36 14  1  0  0  0  0
 37 15  1  0  0  0  0
 39 19  1  0  0  0  0
 42 20  1  0  0  0  0
 44 22  1  0  0  0  0
 45 23  1  0  0  0  0
 49 29  1  0  0  0  0
M  END
>  <Pose>
1

>  <Score>
-6.89

$$$$
