
 OpenBabel03202210193D

 44 47  0  0  0  0  0  0  0  0999 V2000
   19.3930   58.5820   -9.1990 B   0  0  0  0  0  0  0  0  0  0  0  0
   18.1430   59.9280   -9.6890 C   0  0  0  0  0  0  0  0  0  0  0  0
   18.5510   61.2260  -10.0200 C   0  0  0  0  0  0  0  0  0  0  0  0
   17.6490   62.2060  -10.3760 C   0  0  0  0  0  0  0  0  0  0  0  0
   16.2840   61.8960  -10.4090 C   0  0  0  0  0  0  0  0  0  0  0  0
   15.8920   60.6060  -10.0800 C   0  0  0  0  0  0  0  0  0  0  0  0
   16.8070   59.6430   -9.7270 C   0  0  0  0  0  0  0  0  0  0  0  0
   15.5240   63.0350  -10.7980 N   0  0  0  0  0  0  0  0  0  0  0  0
   16.4470   64.0910  -11.0140 C   0  0  0  0  0  0  0  0  0  0  0  0
   16.2410   65.2840  -11.3700 O   0  0  0  0  0  0  0  0  0  0  0  0
   17.8180   63.6010  -10.7560 C   0  0  0  0  0  0  0  0  0  0  0  0
   18.9130   64.2730  -10.8490 N   0  0  0  0  0  0  0  0  0  0  0  0
   20.1610   63.7060  -10.5790 N   0  0  0  0  0  0  0  0  0  0  0  0
   20.8530   63.9310   -9.3630 C   0  0  0  0  0  0  0  0  0  0  0  0
   20.3360   63.5500   -8.2880 O   0  0  0  0  0  0  0  0  0  0  0  0
   22.1480   64.5960   -9.3670 C   0  0  0  0  0  0  0  0  0  0  0  0
   22.7530   64.6710   -8.0510 N   0  0  0  0  0  0  0  0  0  0  0  0
   22.8680   65.7410   -7.2840 N   0  0  0  0  0  0  0  0  0  0  0  0
   23.4760   65.4320   -6.1500 N   0  0  0  0  0  0  0  0  0  0  0  0
   23.7660   64.1200   -6.1800 C   0  0  0  0  0  0  0  0  0  0  0  0
   23.3080   63.6850   -7.3610 N   0  0  0  0  0  0  0  0  0  0  0  0
   24.4400   63.3770   -5.1200 C   0  0  0  0  0  0  0  0  0  0  0  0
   23.7920   63.1330   -3.9280 C   0  0  0  0  0  0  0  0  0  0  0  0
   24.4340   62.4220   -2.9110 C   0  0  0  0  0  0  0  0  0  0  0  0
   25.7180   61.9470   -3.0620 C   0  0  0  0  0  0  0  0  0  0  0  0
   26.3700   62.1910   -4.2580 C   0  0  0  0  0  0  0  0  0  0  0  0
   25.7240   62.8990   -5.2630 C   0  0  0  0  0  0  0  0  0  0  0  0
   14.0920   63.1780  -10.9650 C   0  0  0  0  0  0  0  0  0  0  0  0
   13.6390   62.4350  -12.1300 C   0  0  0  0  0  0  0  0  0  0  0  0
   13.2510   61.8150  -13.0860 C   0  0  0  0  0  0  0  0  0  0  0  0
   19.6150   61.4290   -9.9830 H   0  0  0  0  0  0  0  0  0  0  0  0
   14.8510   60.3220  -10.0910 H   0  0  0  0  0  0  0  0  0  0  0  0
   16.4990   58.6230   -9.4660 H   0  0  0  0  0  0  0  0  0  0  0  0
   20.5950   63.1040  -11.3070 H   0  0  0  0  0  0  0  0  0  0  0  0
   22.0650   65.6140   -9.7930 H   0  0  0  0  0  0  0  0  0  0  0  0
   22.8240   64.0340  -10.0560 H   0  0  0  0  0  0  0  0  0  0  0  0
   22.7770   63.4990   -3.7850 H   0  0  0  0  0  0  0  0  0  0  0  0
   23.9250   62.2280   -1.9680 H   0  0  0  0  0  0  0  0  0  0  0  0
   26.2010   61.3920   -2.2500 H   0  0  0  0  0  0  0  0  0  0  0  0
   27.3820   61.8190   -4.3840 H   0  0  0  0  0  0  0  0  0  0  0  0
   26.2240   63.0970   -6.2080 H   0  0  0  0  0  0  0  0  0  0  0  0
   13.5300   62.8030  -10.0750 H   0  0  0  0  0  0  0  0  0  0  0  0
   13.8590   64.2690  -11.0300 H   0  0  0  0  0  0  0  0  0  0  0  0
   12.9050   61.2480  -13.9330 H   0  0  0  0  0  0  0  0  0  0  0  0
  2  1  1  0  0  0  0
  3 31  1  0  0  0  0
  3  2  2  0  0  0  0
  4  3  1  0  0  0  0
  5  4  2  0  0  0  0
  5  6  1  0  0  0  0
  6  7  2  0  0  0  0
  7  2  1  0  0  0  0
  7 33  1  0  0  0  0
  8  5  1  0  0  0  0
  9  8  1  0  0  0  0
  9 11  1  0  0  0  0
 10  9  2  0  0  0  0
 11  4  1  0  0  0  0
 12 11  2  0  0  0  0
 12 13  1  0  0  0  0
 13 14  1  0  0  0  0
 14 15  2  0  0  0  0
 16 14  1  0  0  0  0
 16 17  1  0  0  0  0
 17 21  1  0  0  0  0
 17 18  1  0  0  0  0
 18 19  1  0  0  0  0
 20 19  2  0  0  0  0
 20 22  1  0  0  0  0
 21 20  1  0  0  0  0
 22 23  1  0  0  0  0
 23 37  1  0  0  0  0
 23 24  2  0  0  0  0
 24 38  1  0  0  0  0
 25 24  1  0  0  0  0
 25 39  1  0  0  0  0
 26 25  2  0  0  0  0
 27 22  2  0  0  0  0
 27 26  1  0  0  0  0
 28  8  1  0  0  0  0
 28 42  1  0  0  0  0
 29 28  1  0  0  0  0
 30 29  3  0  0  0  0
 32  6  1  0  0  0  0
 34 13  1  0  0  0  0
 35 16  1  0  0  0  0
 36 16  1  0  0  0  0
 40 26  1  0  0  0  0
 41 27  1  0  0  0  0
 43 28  1  0  0  0  0
 44 30  1  0  0  0  0
M  END
>  <Pose>
1

>  <Score>
-7.62

$$$$
