
 OpenBabel03202210193D

 58 61  0  0  0  0  0  0  0  0999 V2000
   23.8000   63.3030  -12.7430 B   0  0  0  0  0  0  0  0  0  0  0  0
   23.5420   63.5270  -10.8650 C   0  0  0  0  0  0  0  0  0  0  0  0
   22.2590   63.5550  -10.2980 C   0  0  0  0  0  0  0  0  0  0  0  0
   22.1960   63.7110   -8.9430 C   0  0  0  0  0  0  0  0  0  0  0  0
   23.2990   63.8430   -8.1260 C   0  0  0  0  0  0  0  0  0  0  0  0
   24.5560   63.8210   -8.6850 C   0  0  0  0  0  0  0  0  0  0  0  0
   24.6630   63.6560  -10.0740 C   0  0  0  0  0  0  0  0  0  0  0  0
   22.9330   63.9910   -6.7600 N   0  0  0  0  0  0  0  0  0  0  0  0
   21.4820   63.9570   -6.7270 C   0  0  0  0  0  0  0  0  0  0  0  0
   20.7840   64.0420   -5.6950 O   0  0  0  0  0  0  0  0  0  0  0  0
   21.0470   63.7960   -8.0970 C   0  0  0  0  0  0  0  0  0  0  0  0
   19.8620   63.8730   -8.5680 N   0  0  0  0  0  0  0  0  0  0  0  0
   19.1830   63.9140   -9.5160 N   0  0  0  0  0  0  0  0  0  0  0  0
   18.3730   63.9780  -10.6720 C   0  0  0  0  0  0  0  0  0  0  0  0
   18.6030   63.7870  -11.8450 O   0  0  0  0  0  0  0  0  0  0  0  0
   16.9400   64.3910  -10.2660 C   0  0  0  0  0  0  0  0  0  0  0  0
   16.0940   63.5900  -11.1180 O   0  0  0  0  0  0  0  0  0  0  0  0
   15.1990   64.3410  -11.9330 N   0  0  0  0  0  0  0  0  0  0  0  0
   14.1580   63.8110  -12.4430 C   0  0  0  0  0  0  0  0  0  0  0  0
   13.2740   64.5900  -13.2790 C   0  0  0  0  0  0  0  0  0  0  0  0
   13.4790   65.8750  -13.6580 C   0  0  0  0  0  0  0  0  0  0  0  0
   12.4480   66.4810  -14.4200 C   0  0  0  0  0  0  0  0  0  0  0  0
   11.3070   65.9200  -14.8150 C   0  0  0  0  0  0  0  0  0  0  0  0
   11.1520   64.6360  -14.4160 C   0  0  0  0  0  0  0  0  0  0  0  0
   12.0030   63.8990  -13.6850 C   0  0  0  0  0  0  0  0  0  0  0  0
   10.3770   66.6380  -15.5750 O   0  0  0  0  0  0  0  0  0  0  0  0
   10.7320   67.1640  -16.8490 C   0  0  0  0  0  0  0  0  0  0  0  0
   23.7230   64.0990   -5.5440 C   0  0  0  0  0  0  0  0  0  0  0  0
   24.4220   62.9410   -5.2750 N   0  0  0  0  0  0  0  0  0  0  0  0
   25.7230   62.9550   -5.8100 C   0  0  0  0  0  0  0  0  0  0  0  0
   26.7130   62.4300   -4.7680 C   0  0  0  0  0  0  0  0  0  0  0  0
   26.4240   63.2200   -3.6220 O   0  0  0  0  0  0  0  0  0  0  0  0
   25.2420   62.7530   -3.0310 C   0  0  0  0  0  0  0  0  0  0  0  0
   24.2030   62.3340   -4.0240 C   0  0  0  0  0  0  0  0  0  0  0  0
   21.4810   63.4240  -10.9570 H   0  0  0  0  0  0  0  0  0  0  0  0
   25.4710   63.9090   -8.1070 H   0  0  0  0  0  0  0  0  0  0  0  0
   25.6370   63.6640  -10.5100 H   0  0  0  0  0  0  0  0  0  0  0  0
   19.9660   64.8910  -10.1180 H   0  0  0  0  0  0  0  0  0  0  0  0
   16.8980   63.7340   -9.2880 H   0  0  0  0  0  0  0  0  0  0  0  0
   16.7520   65.3550  -10.0610 H   0  0  0  0  0  0  0  0  0  0  0  0
   13.9010   62.7710  -12.2500 H   0  0  0  0  0  0  0  0  0  0  0  0
   14.3610   66.4090  -13.4010 H   0  0  0  0  0  0  0  0  0  0  0  0
   12.6600   67.5270  -14.7130 H   0  0  0  0  0  0  0  0  0  0  0  0
   10.1840   64.1690  -14.7470 H   0  0  0  0  0  0  0  0  0  0  0  0
   11.9370   62.9030  -13.3620 H   0  0  0  0  0  0  0  0  0  0  0  0
   10.7230   66.3500  -17.6220 H   0  0  0  0  0  0  0  0  0  0  0  0
    9.8890   67.8640  -17.1510 H   0  0  0  0  0  0  0  0  0  0  0  0
   11.6700   67.7440  -16.8520 H   0  0  0  0  0  0  0  0  0  0  0  0
   22.9960   64.4180   -4.7680 H   0  0  0  0  0  0  0  0  0  0  0  0
   24.3690   65.0160   -5.6840 H   0  0  0  0  0  0  0  0  0  0  0  0
   25.8100   62.3770   -6.7610 H   0  0  0  0  0  0  0  0  0  0  0  0
   26.0050   63.9870   -6.0700 H   0  0  0  0  0  0  0  0  0  0  0  0
   27.7070   62.6840   -5.1160 H   0  0  0  0  0  0  0  0  0  0  0  0
   26.5830   61.3730   -4.5570 H   0  0  0  0  0  0  0  0  0  0  0  0
   24.8320   63.5100   -2.3520 H   0  0  0  0  0  0  0  0  0  0  0  0
   25.5300   61.8580   -2.4270 H   0  0  0  0  0  0  0  0  0  0  0  0
   24.2290   61.1760   -4.1340 H   0  0  0  0  0  0  0  0  0  0  0  0
   23.1990   62.5380   -3.6410 H   0  0  0  0  0  0  0  0  0  0  0  0
  1  2  1  0  0  0  0
  2  3  2  0  0  0  0
  2  7  1  0  0  0  0
  3  4  1  0  0  0  0
  4  5  2  0  0  0  0
  4 11  1  0  0  0  0
  5  8  1  0  0  0  0
  6  5  1  0  0  0  0
  6 36  1  0  0  0  0
  7  6  2  0  0  0  0
  8  9  1  0  0  0  0
  8 28  1  0  0  0  0
  9 10  2  0  0  0  0
 11  9  1  0  0  0  0
 12 11  2  0  0  0  0
 13 12  1  0  0  0  0
 14 16  1  0  0  0  0
 14 13  1  0  0  0  0
 15 14  2  0  0  0  0
 16 40  1  0  0  0  0
 16 39  1  0  0  0  0
 17 16  1  0  0  0  0
 18 17  1  0  0  0  0
 19 41  1  0  0  0  0
 19 18  2  0  0  0  0
 20 19  1  0  0  0  0
 21 42  1  0  0  0  0
 21 20  1  0  0  0  0
 22 21  2  0  0  0  0
 23 22  1  0  0  0  0
 23 24  2  0  0  0  0
 24 25  1  0  0  0  0
 25 45  1  0  0  0  0
 25 20  2  0  0  0  0
 26 23  1  0  0  0  0
 27 26  1  0  0  0  0
 28 29  1  0  0  0  0
 28 49  1  0  0  0  0
 29 34  1  0  0  0  0
 30 29  1  0  0  0  0
 30 31  1  0  0  0  0
 31 54  1  0  0  0  0
 31 32  1  0  0  0  0
 32 33  1  0  0  0  0
 33 56  1  0  0  0  0
 33 55  1  0  0  0  0
 34 58  1  0  0  0  0
 34 33  1  0  0  0  0
 35  3  1  0  0  0  0
 37  7  1  0  0  0  0
 38 13  1  0  0  0  0
 43 22  1  0  0  0  0
 44 24  1  0  0  0  0
 46 27  1  0  0  0  0
 47 27  1  0  0  0  0
 48 27  1  0  0  0  0
 50 28  1  0  0  0  0
 51 30  1  0  0  0  0
 52 30  1  0  0  0  0
 53 31  1  0  0  0  0
 57 34  1  0  0  0  0
M  END
>  <Pose>
1

>  <Score>
-7.13

$$$$
