
 OpenBabel03202210193D

 59 62  0  0  0  0  0  0  0  0999 V2000
   26.1560   63.3750  -14.2580 B   0  0  0  0  0  0  0  0  0  0  0  0
   24.4130   63.3970  -13.4480 C   0  0  0  0  0  0  0  0  0  0  0  0
   24.2560   63.3860  -12.0820 C   0  0  0  0  0  0  0  0  0  0  0  0
   23.0170   63.4000  -11.4500 C   0  0  0  0  0  0  0  0  0  0  0  0
   21.8700   63.4260  -12.2490 C   0  0  0  0  0  0  0  0  0  0  0  0
   22.0270   63.4360  -13.6200 C   0  0  0  0  0  0  0  0  0  0  0  0
   23.2780   63.4220  -14.2310 C   0  0  0  0  0  0  0  0  0  0  0  0
   20.6970   63.4390  -11.4230 N   0  0  0  0  0  0  0  0  0  0  0  0
   21.1490   63.4190  -10.0750 C   0  0  0  0  0  0  0  0  0  0  0  0
   20.4110   63.4230   -9.0640 O   0  0  0  0  0  0  0  0  0  0  0  0
   22.5990   63.3950  -10.0600 C   0  0  0  0  0  0  0  0  0  0  0  0
   23.3670   63.3730   -9.0310 N   0  0  0  0  0  0  0  0  0  0  0  0
   22.8910   63.3700   -7.7250 N   0  0  0  0  0  0  0  0  0  0  0  0
   23.3940   64.3010   -6.7930 C   0  0  0  0  0  0  0  0  0  0  0  0
   24.4200   65.0210   -7.0520 O   0  0  0  0  0  0  0  0  0  0  0  0
   22.7880   64.5260   -5.4560 C   0  0  0  0  0  0  0  0  0  0  0  0
   23.8030   64.5360   -4.4530 O   0  0  0  0  0  0  0  0  0  0  0  0
   24.6020   63.4200   -4.2690 C   0  0  0  0  0  0  0  0  0  0  0  0
   24.2180   62.4300   -3.3900 C   0  0  0  0  0  0  0  0  0  0  0  0
   25.0260   61.3120   -3.2110 C   0  0  0  0  0  0  0  0  0  0  0  0
   26.2130   61.1850   -3.9070 C   0  0  0  0  0  0  0  0  0  0  0  0
   26.5800   62.1720   -4.7730 C   0  0  0  0  0  0  0  0  0  0  0  0
   25.7740   63.2850   -4.9500 C   0  0  0  0  0  0  0  0  0  0  0  0
   23.0460   62.5260   -2.6830 O   0  0  0  0  0  0  0  0  0  0  0  0
   21.8550   61.9840   -3.1970 C   0  0  0  0  0  0  0  0  0  0  0  0
   19.3320   63.4690  -11.9190 C   0  0  0  0  0  0  0  0  0  0  0  0
   18.4220   62.6350  -11.2180 N   0  0  0  0  0  0  0  0  0  0  0  0
   19.0040   61.6890  -10.3290 C   0  0  0  0  0  0  0  0  0  0  0  0
   17.9490   60.7870   -9.6820 C   0  0  0  0  0  0  0  0  0  0  0  0
   16.7320   60.9790  -10.4170 N   0  0  0  0  0  0  0  0  0  0  0  0
   16.1880   62.2930  -10.2690 C   0  0  0  0  0  0  0  0  0  0  0  0
   17.2460   63.2860  -10.7170 C   0  0  0  0  0  0  0  0  0  0  0  0
   15.7790   59.9180  -10.2540 C   0  0  0  0  0  0  0  0  0  0  0  0
   25.1520   63.3660  -11.4630 H   0  0  0  0  0  0  0  0  0  0  0  0
   21.1590   63.4570  -14.2880 H   0  0  0  0  0  0  0  0  0  0  0  0
   23.4080   63.4310  -15.3010 H   0  0  0  0  0  0  0  0  0  0  0  0
   22.1740   62.6850   -7.4480 H   0  0  0  0  0  0  0  0  0  0  0  0
   22.2430   65.4810   -5.3840 H   0  0  0  0  0  0  0  0  0  0  0  0
   22.0660   63.7270   -5.2140 H   0  0  0  0  0  0  0  0  0  0  0  0
   24.7100   60.5360   -2.5120 H   0  0  0  0  0  0  0  0  0  0  0  0
   26.8650   60.3190   -3.7850 H   0  0  0  0  0  0  0  0  0  0  0  0
   27.4910   62.0900   -5.3170 H   0  0  0  0  0  0  0  0  0  0  0  0
   26.1140   64.0330   -5.6470 H   0  0  0  0  0  0  0  0  0  0  0  0
   21.6150   62.3680   -4.2120 H   0  0  0  0  0  0  0  0  0  0  0  0
   22.0130   60.8820   -3.3310 H   0  0  0  0  0  0  0  0  0  0  0  0
   21.0510   62.1830   -2.4580 H   0  0  0  0  0  0  0  0  0  0  0  0
   18.9540   64.5180  -11.9940 H   0  0  0  0  0  0  0  0  0  0  0  0
   19.3770   63.1070  -12.9790 H   0  0  0  0  0  0  0  0  0  0  0  0
   19.6510   61.0050  -10.9150 H   0  0  0  0  0  0  0  0  0  0  0  0
   19.6450   62.1450   -9.5460 H   0  0  0  0  0  0  0  0  0  0  0  0
   18.2320   59.7250   -9.7210 H   0  0  0  0  0  0  0  0  0  0  0  0
   17.8780   61.0810   -8.6180 H   0  0  0  0  0  0  0  0  0  0  0  0
   15.8650   62.5440   -9.2420 H   0  0  0  0  0  0  0  0  0  0  0  0
   15.2770   62.3440  -10.9170 H   0  0  0  0  0  0  0  0  0  0  0  0
   17.5440   63.9350   -9.8510 H   0  0  0  0  0  0  0  0  0  0  0  0
   16.7990   63.8850  -11.5340 H   0  0  0  0  0  0  0  0  0  0  0  0
   15.2700   59.6840  -11.2280 H   0  0  0  0  0  0  0  0  0  0  0  0
   15.0110   60.1230   -9.4860 H   0  0  0  0  0  0  0  0  0  0  0  0
   16.3560   58.9930   -9.9970 H   0  0  0  0  0  0  0  0  0  0  0  0
  1  2  1  0  0  0  0
  2  3  1  0  0  0  0
  3 34  1  0  0  0  0
  3  4  2  0  0  0  0
  4 11  1  0  0  0  0
  5  4  1  0  0  0  0
  5  8  1  0  0  0  0
  6  5  2  0  0  0  0
  7  6  1  0  0  0  0
  7  2  2  0  0  0  0
  8  9  1  0  0  0  0
  9 11  1  0  0  0  0
  9 10  2  0  0  0  0
 11 12  2  0  0  0  0
 12 13  1  0  0  0  0
 13 37  1  0  0  0  0
 13 14  1  0  0  0  0
 14 16  1  0  0  0  0
 15 14  2  0  0  0  0
 16 38  1  0  0  0  0
 16 39  1  0  0  0  0
 16 17  1  0  0  0  0
 17 18  1  0  0  0  0
 18 19  1  0  0  0  0
 19 20  2  0  0  0  0
 19 24  1  0  0  0  0
 20 40  1  0  0  0  0
 21 41  1  0  0  0  0
 21 20  1  0  0  0  0
 22 21  2  0  0  0  0
 23 22  1  0  0  0  0
 23 18  2  0  0  0  0
 25 24  1  0  0  0  0
 25 46  1  0  0  0  0
 26  8  1  0  0  0  0
 26 27  1  0  0  0  0
 27 32  1  0  0  0  0
 27 28  1  0  0  0  0
 28 29  1  0  0  0  0
 28 50  1  0  0  0  0
 29 52  1  0  0  0  0
 30 31  1  0  0  0  0
 30 33  1  0  0  0  0
 30 29  1  0  0  0  0
 31 53  1  0  0  0  0
 32 31  1  0  0  0  0
 32 55  1  0  0  0  0
 33 59  1  0  0  0  0
 33 58  1  0  0  0  0
 35  6  1  0  0  0  0
 36  7  1  0  0  0  0
 42 22  1  0  0  0  0
 43 23  1  0  0  0  0
 44 25  1  0  0  0  0
 45 25  1  0  0  0  0
 47 26  1  0  0  0  0
 48 26  1  0  0  0  0
 49 28  1  0  0  0  0
 51 29  1  0  0  0  0
 54 31  1  0  0  0  0
 56 32  1  0  0  0  0
 57 33  1  0  0  0  0
M  END
>  <Pose>
1

>  <Score>
-7.10

$$$$
