
 OpenBabel03202210193D

 45 48  0  0  1  0  0  0  0  0999 V2000
   19.5960   62.9580  -11.6420 B   0  0  0  0  0  0  0  0  0  0  0  0
   21.0390   63.3630  -10.4330 C   0  0  0  0  0  0  0  0  0  0  0  0
   20.8640   63.9990   -9.2390 C   0  0  0  0  0  0  0  0  0  0  0  0
   21.9230   64.2970   -8.4200 C   0  0  0  0  0  0  0  0  0  0  0  0
   23.1670   63.9290   -8.8470 C   0  0  0  0  0  0  0  0  0  0  0  0
   23.3740   63.2720  -10.0670 C   0  0  0  0  0  0  0  0  0  0  0  0
   22.3010   62.9790  -10.8830 C   0  0  0  0  0  0  0  0  0  0  0  0
   24.1650   64.3310   -7.9290 N   0  0  0  0  0  0  0  0  0  0  0  0
   23.5250   64.9840   -6.8780 C   0  0  0  0  0  0  0  0  0  0  0  0
   24.1300   65.4870   -5.8960 O   0  0  0  0  0  0  0  0  0  0  0  0
   22.0350   64.9780   -7.1180 C   0  0  2  0  0  0  0  0  0  0  0  0
   21.4740   64.2890   -5.9660 C   0  0  0  0  0  0  0  0  0  0  0  0
   20.6880   64.9630   -5.0820 C   0  0  0  0  0  0  0  0  0  0  0  0
   20.3290   64.0660   -4.1210 N   0  0  0  0  0  0  0  0  0  0  0  0
   20.8620   62.9030   -4.3920 N   0  0  0  0  0  0  0  0  0  0  0  0
   21.5930   62.9600   -5.5290 C   0  0  0  0  0  0  0  0  0  0  0  0
   22.3160   61.8140   -6.1370 C   0  0  0  0  0  0  0  0  0  0  0  0
   23.6120   61.5740   -5.4650 C   0  0  0  0  0  0  0  0  0  0  0  0
   24.5670   60.9090   -5.9410 O   0  0  0  0  0  0  0  0  0  0  0  0
   23.7850   62.1230   -4.2140 O   0  0  0  0  0  0  0  0  0  0  0  0
   24.9510   62.0650   -3.4350 C   0  0  0  0  0  0  0  0  0  0  0  0
   25.3740   63.4620   -3.0470 C   0  0  0  0  0  0  0  0  0  0  0  0
   20.3730   66.3290   -5.2250 O   0  0  0  0  0  0  0  0  0  0  0  0
   20.9070   66.9770   -6.3220 C   0  0  0  0  0  0  0  0  0  0  0  0
   21.6680   66.3850   -7.1980 C   0  0  0  0  0  0  0  0  0  0  0  0
   22.1920   67.1620   -8.3250 C   0  0  0  0  0  0  0  0  0  0  0  0
   22.5940   67.7560   -9.2190 N   0  0  0  0  0  0  0  0  0  0  0  0
   20.5860   68.3810   -6.4710 N   0  0  0  0  0  0  0  0  0  0  0  0
   25.6180   64.0990   -8.0610 C   0  0  0  0  0  0  0  0  0  0  0  0
   19.8810   64.2710   -8.9380 H   0  0  0  0  0  0  0  0  0  0  0  0
   24.3510   62.9730  -10.4140 H   0  0  0  0  0  0  0  0  0  0  0  0
   22.4440   62.4740  -11.8270 H   0  0  0  0  0  0  0  0  0  0  0  0
   20.7640   62.0080   -3.8300 H   0  0  0  0  0  0  0  0  0  0  0  0
   21.7430   60.8740   -6.0720 H   0  0  0  0  0  0  0  0  0  0  0  0
   22.4760   61.9840   -7.2320 H   0  0  0  0  0  0  0  0  0  0  0  0
   25.8090   61.6600   -4.0630 H   0  0  0  0  0  0  0  0  0  0  0  0
   24.8170   61.3980   -2.5740 H   0  0  0  0  0  0  0  0  0  0  0  0
   24.7210   64.1940   -3.6080 H   0  0  0  0  0  0  0  0  0  0  0  0
   26.3990   63.6850   -3.3380 H   0  0  0  0  0  0  0  0  0  0  0  0
   25.1630   63.6730   -1.9720 H   0  0  0  0  0  0  0  0  0  0  0  0
   20.7200   68.9080   -7.3510 H   0  0  0  0  0  0  0  0  0  0  0  0
   20.2010   68.8740   -5.6490 H   0  0  0  0  0  0  0  0  0  0  0  0
   25.8290   63.0300   -7.7960 H   0  0  0  0  0  0  0  0  0  0  0  0
   25.9550   64.3410   -9.0880 H   0  0  0  0  0  0  0  0  0  0  0  0
   26.1360   64.7190   -7.3170 H   0  0  0  0  0  0  0  0  0  0  0  0
  1  2  1  0  0  0  0
  2  3  1  0  0  0  0
  3 30  1  0  0  0  0
  3  4  2  0  0  0  0
  5  4  1  0  0  0  0
  5  8  1  0  0  0  0
  6  5  2  0  0  0  0
  7  2  2  0  0  0  0
  7  6  1  0  0  0  0
  8  9  1  0  0  0  0
  9 10  2  0  0  0  0
 11  4  1  6  0  0  0
 11  9  1  0  0  0  0
 11 12  1  0  0  0  0
 12 16  2  0  0  0  0
 12 13  1  0  0  0  0
 13 14  2  0  0  0  0
 15 14  1  0  0  0  0
 15 33  1  0  0  0  0
 16 15  1  0  0  0  0
 17 34  1  0  0  0  0
 17 16  1  0  0  0  0
 17 18  1  0  0  0  0
 18 20  1  0  0  0  0
 19 18  2  0  0  0  0
 20 21  1  0  0  0  0
 21 22  1  0  0  0  0
 21 37  1  0  0  0  0
 22 40  1  0  0  0  0
 23 13  1  0  0  0  0
 24 23  1  0  0  0  0
 25 11  1  0  0  0  0
 25 24  2  0  0  0  0
 26 25  1  0  0  0  0
 27 26  3  0  0  0  0
 28 24  1  0  0  0  0
 28 42  1  0  0  0  0
 29  8  1  0  0  0  0
 29 43  1  0  0  0  0
 29 45  1  0  0  0  0
 31  6  1  0  0  0  0
 32  7  1  0  0  0  0
 35 17  1  0  0  0  0
 36 21  1  0  0  0  0
 38 22  1  0  0  0  0
 39 22  1  0  0  0  0
 41 28  1  0  0  0  0
 44 29  1  0  0  0  0
M  END
>  <Pose>
1

>  <Score>
-3.36

$$$$
