
 OpenBabel03202210193D

 36 39  0  0  1  0  0  0  0  0999 V2000
   24.7160   63.5850  -13.2650 B   0  0  0  0  0  0  0  0  0  0  0  0
   23.2970   63.4660  -11.9670 C   0  0  0  0  0  0  0  0  0  0  0  0
   23.5060   63.8140  -10.6580 C   0  0  0  0  0  0  0  0  0  0  0  0
   22.4750   63.7220   -9.7470 C   0  0  0  0  0  0  0  0  0  0  0  0
   21.2630   63.2770  -10.2010 C   0  0  0  0  0  0  0  0  0  0  0  0
   21.0500   62.9190  -11.5480 C   0  0  0  0  0  0  0  0  0  0  0  0
   22.0850   63.0180  -12.4390 C   0  0  0  0  0  0  0  0  0  0  0  0
   20.3040   63.2360   -9.1480 N   0  0  0  0  0  0  0  0  0  0  0  0
   20.9330   63.6730   -7.9760 C   0  0  0  0  0  0  0  0  0  0  0  0
   20.3770   63.7640   -6.8390 O   0  0  0  0  0  0  0  0  0  0  0  0
   22.3650   64.0100   -8.2960 C   0  0  2  0  0  0  0  0  0  0  0  0
   22.5230   65.4250   -7.9790 C   0  0  0  0  0  0  0  0  0  0  0  0
   23.3710   65.8390   -7.0000 C   0  0  0  0  0  0  0  0  0  0  0  0
   23.2840   67.2010   -6.9600 N   0  0  0  0  0  0  0  0  0  0  0  0
   22.4270   67.6300   -7.8630 N   0  0  0  0  0  0  0  0  0  0  0  0
   21.9350   66.5760   -8.5110 C   0  0  0  0  0  0  0  0  0  0  0  0
   20.9330   66.5320   -9.6220 C   0  0  0  0  0  0  0  0  0  0  0  0
   24.1420   64.9530   -6.2410 O   0  0  0  0  0  0  0  0  0  0  0  0
   23.9890   63.6040   -6.5450 C   0  0  0  0  0  0  0  0  0  0  0  0
   23.1900   63.1450   -7.4730 C   0  0  0  0  0  0  0  0  0  0  0  0
   23.1560   61.6840   -7.6580 C   0  0  0  0  0  0  0  0  0  0  0  0
   23.1110   60.5280   -7.8190 N   0  0  0  0  0  0  0  0  0  0  0  0
   24.7650   62.6330   -5.7870 N   0  0  0  0  0  0  0  0  0  0  0  0
   18.9000   62.8110   -9.2580 C   0  0  0  0  0  0  0  0  0  0  0  0
   24.4670   64.1640  -10.3170 H   0  0  0  0  0  0  0  0  0  0  0  0
   20.0900   62.5680  -11.9040 H   0  0  0  0  0  0  0  0  0  0  0  0
   21.9470   62.7460  -13.4970 H   0  0  0  0  0  0  0  0  0  0  0  0
   22.1420   68.6200   -8.0770 H   0  0  0  0  0  0  0  0  0  0  0  0
   20.6510   67.5970   -9.8260 H   0  0  0  0  0  0  0  0  0  0  0  0
   21.3940   66.1710  -10.5740 H   0  0  0  0  0  0  0  0  0  0  0  0
   20.0150   66.0140   -9.3470 H   0  0  0  0  0  0  0  0  0  0  0  0
   25.7930   62.7860   -5.8110 H   0  0  0  0  0  0  0  0  0  0  0  0
   24.3490   61.8610   -5.2710 H   0  0  0  0  0  0  0  0  0  0  0  0
   18.7640   61.9450   -8.5820 H   0  0  0  0  0  0  0  0  0  0  0  0
   18.3130   63.6530   -8.8240 H   0  0  0  0  0  0  0  0  0  0  0  0
   18.6180   62.6200  -10.2930 H   0  0  0  0  0  0  0  0  0  0  0  0
  1  2  1  0  0  0  0
  2  3  1  0  0  0  0
  3 25  1  0  0  0  0
  3  4  2  0  0  0  0
  5  4  1  0  0  0  0
  5  8  1  0  0  0  0
  6  5  2  0  0  0  0
  7  2  2  0  0  0  0
  7  6  1  0  0  0  0
  8  9  1  0  0  0  0
  9 10  2  0  0  0  0
 11  4  1  6  0  0  0
 11 12  1  0  0  0  0
 11  9  1  0  0  0  0
 11 20  1  0  0  0  0
 12 13  1  0  0  0  0
 13 14  2  0  0  0  0
 13 18  1  0  0  0  0
 15 14  1  0  0  0  0
 16 12  2  0  0  0  0
 16 15  1  0  0  0  0
 17 31  1  0  0  0  0
 17 16  1  0  0  0  0
 19 18  1  0  0  0  0
 19 23  1  0  0  0  0
 20 19  2  0  0  0  0
 21 20  1  0  0  0  0
 22 21  3  0  0  0  0
 23 33  1  0  0  0  0
 24  8  1  0  0  0  0
 24 35  1  0  0  0  0
 24 34  1  0  0  0  0
 26  6  1  0  0  0  0
 27  7  1  0  0  0  0
 28 15  1  0  0  0  0
 29 17  1  0  0  0  0
 30 17  1  0  0  0  0
 32 23  1  0  0  0  0
 36 24  1  0  0  0  0
M  END
>  <Pose>
1

>  <Score>
-4.81

$$$$
