
 OpenBabel03202210193D

 41 44  0  0  1  0  0  0  0  0999 V2000
   24.1760   63.3290  -12.3290 B   0  0  0  0  0  0  0  0  0  0  0  0
   22.7960   63.3450  -11.0240 C   0  0  0  0  0  0  0  0  0  0  0  0
   22.9440   63.9170   -9.7830 C   0  0  0  0  0  0  0  0  0  0  0  0
   21.8820   63.8870   -8.8800 C   0  0  0  0  0  0  0  0  0  0  0  0
   20.6860   63.3160   -9.1600 C   0  0  0  0  0  0  0  0  0  0  0  0
   20.5350   62.7350  -10.4220 C   0  0  0  0  0  0  0  0  0  0  0  0
   21.5730   62.7550  -11.3270 C   0  0  0  0  0  0  0  0  0  0  0  0
   19.7780   63.4190   -8.0800 N   0  0  0  0  0  0  0  0  0  0  0  0
   20.4360   64.1010   -7.0380 C   0  0  0  0  0  0  0  0  0  0  0  0
   19.9470   64.3830   -5.9090 O   0  0  0  0  0  0  0  0  0  0  0  0
   21.8150   64.4390   -7.4890 C   0  0  1  0  0  0  0  0  0  0  0  0
   22.8210   63.7600   -6.6330 C   0  0  0  0  0  0  0  0  0  0  0  0
   23.7770   64.3920   -6.0560 C   0  0  0  0  0  0  0  0  0  0  0  0
   23.9630   65.8290   -6.1870 N   0  0  0  0  0  0  0  0  0  0  0  0
   23.0130   66.4870   -6.9990 C   0  0  0  0  0  0  0  0  0  0  0  0
   22.0330   65.8650   -7.5940 C   0  0  0  0  0  0  0  0  0  0  0  0
   21.1300   66.6770   -8.4000 C   0  0  0  0  0  0  0  0  0  0  0  0
   20.3960   67.3090   -9.0360 N   0  0  0  0  0  0  0  0  0  0  0  0
   23.1490   67.9250   -7.1670 N   0  0  0  0  0  0  0  0  0  0  0  0
   24.5990   63.4130   -5.2780 C   0  0  0  0  0  0  0  0  0  0  0  0
   24.0010   62.1880   -5.4850 O   0  0  0  0  0  0  0  0  0  0  0  0
   22.9130   62.3020   -6.2960 C   0  0  0  0  0  0  0  0  0  0  0  0
   22.1090   61.4160   -6.7140 O   0  0  0  0  0  0  0  0  0  0  0  0
   24.6500   63.8240   -3.8190 C   0  0  0  0  0  0  0  0  0  0  0  0
   26.0130   63.3460   -5.8260 C   0  0  0  0  0  0  0  0  0  0  0  0
   18.3970   62.9190   -8.0150 C   0  0  0  0  0  0  0  0  0  0  0  0
   23.8900   64.3750   -9.5450 H   0  0  0  0  0  0  0  0  0  0  0  0
   19.5770   62.2780  -10.6440 H   0  0  0  0  0  0  0  0  0  0  0  0
   21.4130   62.2920  -12.2950 H   0  0  0  0  0  0  0  0  0  0  0  0
   24.7520   66.2870   -5.7000 H   0  0  0  0  0  0  0  0  0  0  0  0
   23.4260   68.4720   -6.3260 H   0  0  0  0  0  0  0  0  0  0  0  0
   22.9780   68.3800   -8.0740 H   0  0  0  0  0  0  0  0  0  0  0  0
   23.9280   63.2390   -3.1960 H   0  0  0  0  0  0  0  0  0  0  0  0
   25.6880   63.7130   -3.4560 H   0  0  0  0  0  0  0  0  0  0  0  0
   24.3820   64.8910   -3.7740 H   0  0  0  0  0  0  0  0  0  0  0  0
   26.0450   62.6160   -6.6580 H   0  0  0  0  0  0  0  0  0  0  0  0
   26.7250   63.0540   -5.0330 H   0  0  0  0  0  0  0  0  0  0  0  0
   26.3450   64.3290   -6.2140 H   0  0  0  0  0  0  0  0  0  0  0  0
   17.7110   63.8080   -7.9640 H   0  0  0  0  0  0  0  0  0  0  0  0
   18.1440   62.3870   -8.9590 H   0  0  0  0  0  0  0  0  0  0  0  0
   18.2370   62.2680   -7.1550 H   0  0  0  0  0  0  0  0  0  0  0  0
  1  2  1  0  0  0  0
  2  3  1  0  0  0  0
  3 27  1  0  0  0  0
  3  4  2  0  0  0  0
  5  4  1  0  0  0  0
  5  8  1  0  0  0  0
  6  5  2  0  0  0  0
  7  2  2  0  0  0  0
  7  6  1  0  0  0  0
  8 26  1  0  0  0  0
  8  9  1  0  0  0  0
  9 10  2  0  0  0  0
 11  4  1  6  0  0  0
 11  9  1  0  0  0  0
 11 12  1  0  0  0  0
 12 22  1  0  0  0  0
 12 13  2  0  0  0  0
 13 20  1  0  0  0  0
 14 13  1  0  0  0  0
 14 30  1  0  0  0  0
 15 14  1  0  0  0  0
 16 11  1  0  0  0  0
 16 15  2  0  0  0  0
 17 16  1  0  0  0  0
 18 17  3  0  0  0  0
 19 15  1  0  0  0  0
 19 31  1  0  0  0  0
 20 24  1  0  0  0  0
 21 20  1  0  0  0  0
 22 21  1  0  0  0  0
 23 22  2  0  0  0  0
 24 35  1  0  0  0  0
 24 34  1  0  0  0  0
 24 33  1  0  0  0  0
 25 20  1  0  0  0  0
 25 37  1  0  0  0  0
 26 39  1  0  0  0  0
 26 41  1  0  0  0  0
 28  6  1  0  0  0  0
 29  7  1  0  0  0  0
 32 19  1  0  0  0  0
 36 25  1  0  0  0  0
 38 25  1  0  0  0  0
 40 26  1  0  0  0  0
M  END
>  <Pose>
1

>  <Score>
-4.46

$$$$
