
 OpenBabel03202210193D

 46 49  0  0  0  0  0  0  0  0999 V2000
   16.1510   66.4860  -11.2000 B   0  0  0  0  0  0  0  0  0  0  0  0
   15.6650   64.6420  -11.0330 C   0  0  0  0  0  0  0  0  0  0  0  0
   16.5990   63.6990  -10.6060 C   0  0  0  0  0  0  0  0  0  0  0  0
   16.3090   62.3580  -10.4700 C   0  0  0  0  0  0  0  0  0  0  0  0
   15.0280   61.9660  -10.7780 C   0  0  0  0  0  0  0  0  0  0  0  0
   14.0620   62.8870  -11.2110 C   0  0  0  0  0  0  0  0  0  0  0  0
   14.3980   64.2100  -11.3300 C   0  0  0  0  0  0  0  0  0  0  0  0
   14.9500   60.5620  -10.5730 N   0  0  0  0  0  0  0  0  0  0  0  0
   16.1960   60.0580  -10.1300 C   0  0  0  0  0  0  0  0  0  0  0  0
   16.5080   58.8760   -9.8470 O   0  0  0  0  0  0  0  0  0  0  0  0
   17.1140   61.2060  -10.0510 C   0  0  0  0  0  0  0  0  0  0  0  0
   18.3740   61.1640   -9.6780 C   0  0  0  0  0  0  0  0  0  0  0  0
   19.2350   62.2680   -9.6070 N   0  0  0  0  0  0  0  0  0  0  0  0
   20.6040   62.1790   -9.4340 N   0  0  0  0  0  0  0  0  0  0  0  0
   21.4600   63.3070   -9.3250 C   0  0  0  0  0  0  0  0  0  0  0  0
   21.0160   64.3950   -9.7240 O   0  0  0  0  0  0  0  0  0  0  0  0
   22.8270   63.2370   -8.7640 C   0  0  0  0  0  0  0  0  0  0  0  0
   22.8600   63.5250   -7.4070 N   0  0  0  0  0  0  0  0  0  0  0  0
   23.7800   63.3080   -6.4690 C   0  0  0  0  0  0  0  0  0  0  0  0
   23.2860   63.7400   -5.2450 C   0  0  0  0  0  0  0  0  0  0  0  0
   22.0500   64.2210   -5.4770 N   0  0  0  0  0  0  0  0  0  0  0  0
   21.7950   64.0950   -6.7590 C   0  0  0  0  0  0  0  0  0  0  0  0
   24.0620   63.6300   -4.1090 C   0  0  0  0  0  0  0  0  0  0  0  0
   23.5850   64.0280   -3.0140 O   0  0  0  0  0  0  0  0  0  0  0  0
   25.2710   63.1060   -4.2420 N   0  0  0  0  0  0  0  0  0  0  0  0
   25.7410   62.6940   -5.4330 C   0  0  0  0  0  0  0  0  0  0  0  0
   26.8920   62.2040   -5.5150 O   0  0  0  0  0  0  0  0  0  0  0  0
   25.0160   62.7800   -6.5830 N   0  0  0  0  0  0  0  0  0  0  0  0
   25.5600   62.3640   -7.8450 C   0  0  0  0  0  0  0  0  0  0  0  0
   26.1390   62.9640   -3.0610 C   0  0  0  0  0  0  0  0  0  0  0  0
   17.5940   64.0330  -10.3630 H   0  0  0  0  0  0  0  0  0  0  0  0
   13.0700   62.5420  -11.4420 H   0  0  0  0  0  0  0  0  0  0  0  0
   13.6290   64.9170  -11.6700 H   0  0  0  0  0  0  0  0  0  0  0  0
   14.0990   59.9710  -10.7230 H   0  0  0  0  0  0  0  0  0  0  0  0
   18.7850   60.2030   -9.4020 H   0  0  0  0  0  0  0  0  0  0  0  0
   18.7800   63.2170   -9.6950 H   0  0  0  0  0  0  0  0  0  0  0  0
   21.0510   61.2380   -9.3810 H   0  0  0  0  0  0  0  0  0  0  0  0
   23.2770   62.3290   -9.1460 H   0  0  0  0  0  0  0  0  0  0  0  0
   23.3970   64.0610   -9.3170 H   0  0  0  0  0  0  0  0  0  0  0  0
   20.8680   64.4070   -7.2170 H   0  0  0  0  0  0  0  0  0  0  0  0
   26.5810   61.9080   -7.5900 H   0  0  0  0  0  0  0  0  0  0  0  0
   25.0820   61.5420   -8.3540 H   0  0  0  0  0  0  0  0  0  0  0  0
   25.9000   63.2200   -8.4730 H   0  0  0  0  0  0  0  0  0  0  0  0
   25.5430   62.4970   -2.2520 H   0  0  0  0  0  0  0  0  0  0  0  0
   26.4580   63.9600   -2.6830 H   0  0  0  0  0  0  0  0  0  0  0  0
   27.0320   62.3490   -3.2910 H   0  0  0  0  0  0  0  0  0  0  0  0
  1  2  1  0  0  0  0
  2  3  1  0  0  0  0
  3  4  2  0  0  0  0
  3 31  1  0  0  0  0
  4 11  1  0  0  0  0
  5  8  1  0  0  0  0
  5  4  1  0  0  0  0
  6  5  2  0  0  0  0
  7  6  1  0  0  0  0
  7  2  2  0  0  0  0
  8  9  1  0  0  0  0
  9 11  1  0  0  0  0
  9 10  2  0  0  0  0
 11 12  2  0  0  0  0
 12 13  1  0  0  0  0
 12 35  1  0  0  0  0
 13 14  1  0  0  0  0
 14 37  1  0  0  0  0
 14 15  1  0  0  0  0
 15 17  1  0  0  0  0
 16 15  2  0  0  0  0
 17 18  1  0  0  0  0
 18 22  1  0  0  0  0
 18 19  1  0  0  0  0
 19 20  2  0  0  0  0
 20 23  1  0  0  0  0
 21 20  1  0  0  0  0
 22 21  2  0  0  0  0
 23 24  2  0  0  0  0
 25 23  1  0  0  0  0
 25 30  1  0  0  0  0
 26 25  1  0  0  0  0
 27 26  2  0  0  0  0
 28 19  1  0  0  0  0
 28 26  1  0  0  0  0
 29 41  1  0  0  0  0
 29 28  1  0  0  0  0
 30 45  1  0  0  0  0
 30 44  1  0  0  0  0
 32  6  1  0  0  0  0
 33  7  1  0  0  0  0
 34  8  1  0  0  0  0
 36 13  1  0  0  0  0
 38 17  1  0  0  0  0
 39 17  1  0  0  0  0
 40 22  1  0  0  0  0
 42 29  1  0  0  0  0
 43 29  1  0  0  0  0
 46 30  1  0  0  0  0
M  END
>  <Pose>
1

>  <Score>
-9.32

$$$$
