
 OpenBabel03202210193D

 51 56  0  0  1  0  0  0  0  0999 V2000
   25.5070   62.8280   -5.0190 B   0  0  0  0  0  0  0  0  0  0  0  0
   24.1600   63.8160   -5.9410 C   0  0  0  0  0  0  0  0  0  0  0  0
   23.7480   63.4820   -7.2250 C   0  0  0  0  0  0  0  0  0  0  0  0
   22.7810   64.1950   -7.8810 C   0  0  0  0  0  0  0  0  0  0  0  0
   22.2220   65.2720   -7.2100 C   0  0  0  0  0  0  0  0  0  0  0  0
   22.6260   65.6090   -5.9350 C   0  0  0  0  0  0  0  0  0  0  0  0
   23.5990   64.8860   -5.2870 C   0  0  0  0  0  0  0  0  0  0  0  0
   21.2320   65.9010   -8.0280 N   0  0  0  0  0  0  0  0  0  0  0  0
   21.1540   65.2100   -9.2560 C   0  0  0  0  0  0  0  0  0  0  0  0
   20.3830   65.5090  -10.1790 O   0  0  0  0  0  0  0  0  0  0  0  0
   22.1420   64.1120   -9.1920 C   0  0  1  0  0  0  0  0  0  0  0  0
   23.0080   64.2560  -10.3240 N   0  0  2  0  0  0  0  0  0  0  0  0
   22.2050   63.7760  -11.4480 C   0  0  2  0  0  0  0  0  0  0  0  0
   21.3220   62.7010  -10.9060 C   0  0  1  0  0  0  0  0  0  0  0  0
   21.5190   62.7590   -9.4300 C   0  0  2  0  0  0  0  0  0  0  0  0
   20.1800   62.6250   -8.8650 C   0  0  0  0  0  0  0  0  0  0  0  0
   19.8980   62.4790   -7.6550 O   0  0  0  0  0  0  0  0  0  0  0  0
   19.2290   62.6870   -9.8990 N   0  0  0  0  0  0  0  0  0  0  0  0
   19.8710   62.9760  -11.1510 C   0  0  0  0  0  0  0  0  0  0  0  0
   19.3600   63.3750  -12.2270 O   0  0  0  0  0  0  0  0  0  0  0  0
   17.8200   62.4940   -9.7590 C   0  0  0  0  0  0  0  0  0  0  0  0
   16.9720   63.5700  -10.3340 C   0  0  2  0  0  0  0  0  0  0  0  0
   16.7740   64.6470   -9.4790 O   0  0  0  0  0  0  0  0  0  0  0  0
   15.7850   65.3900  -10.1100 C   0  0  0  0  0  0  0  0  0  0  0  0
   14.8290   64.4380  -10.7580 C   0  0  0  0  0  0  0  0  0  0  0  0
   15.6330   63.1400  -10.8260 C   0  0  0  0  0  0  0  0  0  0  0  0
   23.1950   63.1380  -12.4110 C   0  0  0  0  0  0  0  0  0  0  0  0
   24.5630   63.3260  -11.7880 C   0  0  0  0  0  0  0  0  0  0  0  0
   24.1790   63.4040  -10.3050 C   0  0  0  0  0  0  0  0  0  0  0  0
   24.2490   62.6180   -7.6650 H   0  0  0  0  0  0  0  0  0  0  0  0
   22.1950   66.4610   -5.3870 H   0  0  0  0  0  0  0  0  0  0  0  0
   23.9160   65.1640   -4.2650 H   0  0  0  0  0  0  0  0  0  0  0  0
   20.6620   66.7500   -7.7380 H   0  0  0  0  0  0  0  0  0  0  0  0
   21.6600   64.6040  -11.9260 H   0  0  0  0  0  0  0  0  0  0  0  0
   21.5770   61.6960  -11.3380 H   0  0  0  0  0  0  0  0  0  0  0  0
   22.2340   61.9970   -9.0600 H   0  0  0  0  0  0  0  0  0  0  0  0
   17.5580   61.5430  -10.2720 H   0  0  0  0  0  0  0  0  0  0  0  0
   17.5040   62.3490   -8.6970 H   0  0  0  0  0  0  0  0  0  0  0  0
   17.5280   63.9880  -11.2190 H   0  0  0  0  0  0  0  0  0  0  0  0
   15.2170   65.9230   -9.2960 H   0  0  0  0  0  0  0  0  0  0  0  0
   16.1950   66.1550  -10.7990 H   0  0  0  0  0  0  0  0  0  0  0  0
   14.5220   64.7520  -11.7770 H   0  0  0  0  0  0  0  0  0  0  0  0
   13.9550   64.2330  -10.1050 H   0  0  0  0  0  0  0  0  0  0  0  0
   15.1580   62.3320  -10.2730 H   0  0  0  0  0  0  0  0  0  0  0  0
   15.6920   62.7990  -11.9020 H   0  0  0  0  0  0  0  0  0  0  0  0
   23.1190   63.5440  -13.4260 H   0  0  0  0  0  0  0  0  0  0  0  0
   23.0290   62.0350  -12.4990 H   0  0  0  0  0  0  0  0  0  0  0  0
   25.0690   64.2400  -12.1050 H   0  0  0  0  0  0  0  0  0  0  0  0
   25.2270   62.4730  -11.9210 H   0  0  0  0  0  0  0  0  0  0  0  0
   25.0170   63.8180   -9.7440 H   0  0  0  0  0  0  0  0  0  0  0  0
   23.9840   62.3670  -10.0110 H   0  0  0  0  0  0  0  0  0  0  0  0
  2  7  1  0  0  0  0
  2  1  1  0  0  0  0
  3  2  2  0  0  0  0
  4  3  1  0  0  0  0
  4  5  2  0  0  0  0
  5  6  1  0  0  0  0
  6 31  1  0  0  0  0
  6  7  2  0  0  0  0
  7 32  1  0  0  0  0
  8 33  1  0  0  0  0
  8  5  1  0  0  0  0
  9  8  1  0  0  0  0
 10  9  2  0  0  0  0
 11  9  1  6  0  0  0
 11  4  1  0  0  0  0
 12 29  1  1  0  0  0
 12 11  1  0  0  0  0
 13 34  1  6  0  0  0
 13 14  1  0  0  0  0
 13 12  1  0  0  0  0
 14 35  1  6  0  0  0
 14 15  1  0  0  0  0
 15 11  1  0  0  0  0
 15 36  1  1  0  0  0
 15 16  1  0  0  0  0
 16 17  2  0  0  0  0
 18 21  1  0  0  0  0
 18 16  1  0  0  0  0
 19 14  1  0  0  0  0
 19 18  1  0  0  0  0
 20 19  2  0  0  0  0
 21 38  1  0  0  0  0
 22 39  1  6  0  0  0
 22 21  1  0  0  0  0
 22 23  1  0  0  0  0
 24 23  1  0  0  0  0
 24 40  1  0  0  0  0
 25 24  1  0  0  0  0
 25 43  1  0  0  0  0
 26 25  1  0  0  0  0
 26 22  1  0  0  0  0
 26 44  1  0  0  0  0
 27 28  1  0  0  0  0
 27 13  1  0  0  0  0
 28 29  1  0  0  0  0
 29 51  1  0  0  0  0
 29 50  1  0  0  0  0
 30  3  1  0  0  0  0
 37 21  1  0  0  0  0
 41 24  1  0  0  0  0
 42 25  1  0  0  0  0
 45 26  1  0  0  0  0
 46 27  1  0  0  0  0
 47 27  1  0  0  0  0
 48 28  1  0  0  0  0
 49 28  1  0  0  0  0
M  END
>  <Pose>
1

>  <Score>
-5.90

$$$$
