
 OpenBabel03202210193D

 53 57  0  0  1  0  0  0  0  0999 V2000
   18.5280   68.2100  -10.5660 B   0  0  0  0  0  0  0  0  0  0  0  0
   18.3050   66.3200  -10.4180 C   0  0  0  0  0  0  0  0  0  0  0  0
   19.3600   65.4390  -10.5140 C   0  0  0  0  0  0  0  0  0  0  0  0
   19.1890   64.0500  -10.4110 C   0  0  0  0  0  0  0  0  0  0  0  0
   17.9130   63.5850  -10.2060 C   0  0  0  0  0  0  0  0  0  0  0  0
   16.8460   64.4670  -10.1080 C   0  0  0  0  0  0  0  0  0  0  0  0
   17.0250   65.8290  -10.2110 C   0  0  0  0  0  0  0  0  0  0  0  0
   17.8930   62.1720  -10.1380 N   0  0  0  0  0  0  0  0  0  0  0  0
   19.2180   61.7210  -10.3090 C   0  0  0  0  0  0  0  0  0  0  0  0
   19.5260   60.4960  -10.2980 O   0  0  0  0  0  0  0  0  0  0  0  0
   20.0910   62.9000  -10.4880 C   0  0  1  0  0  0  0  0  0  0  0  0
   20.7620   62.8470  -11.7900 N   0  0  0  0  0  0  0  0  0  0  0  0
   22.0500   63.4720  -11.5900 C   0  0  1  0  0  0  0  0  0  0  0  0
   22.4130   63.3320  -10.1640 C   0  0  2  0  0  0  0  0  0  0  0  0
   21.1640   62.8250   -9.4670 C   0  0  1  0  0  0  0  0  0  0  0  0
   21.0250   63.6430   -8.2680 C   0  0  0  0  0  0  0  0  0  0  0  0
   20.0550   63.6400   -7.4700 O   0  0  0  0  0  0  0  0  0  0  0  0
   22.1840   64.4890   -8.1070 N   0  0  0  0  0  0  0  0  0  0  0  0
   22.7250   64.5810   -9.4410 C   0  0  0  0  0  0  0  0  0  0  0  0
   23.3470   65.5570   -9.8860 O   0  0  0  0  0  0  0  0  0  0  0  0
   22.7150   65.0800   -6.9200 C   0  0  0  0  0  0  0  0  0  0  0  0
   22.6300   64.2500   -5.6730 C   0  0  0  0  0  0  0  0  0  0  0  0
   23.9230   63.7690   -5.1560 C   0  0  0  0  0  0  0  0  0  0  0  0
   24.1970   63.8810   -3.7980 C   0  0  0  0  0  0  0  0  0  0  0  0
   25.3720   63.4180   -3.3060 C   0  0  0  0  0  0  0  0  0  0  0  0
   26.3210   62.8340   -4.0940 C   0  0  0  0  0  0  0  0  0  0  0  0
   26.0360   62.7270   -5.4470 C   0  0  0  0  0  0  0  0  0  0  0  0
   24.8600   63.1860   -5.9670 C   0  0  0  0  0  0  0  0  0  0  0  0
   23.0680   62.8880  -12.5400 C   0  0  1  0  0  0  0  0  0  0  0  0
   24.2350   63.6270  -12.4930 O   0  0  0  0  0  0  0  0  0  0  0  0
   23.3050   61.4180  -12.2960 C   0  0  0  0  0  0  0  0  0  0  0  0
   20.3450   65.8480  -10.6730 H   0  0  0  0  0  0  0  0  0  0  0  0
   15.8290   64.1100   -9.9450 H   0  0  0  0  0  0  0  0  0  0  0  0
   16.1990   66.5370  -10.1360 H   0  0  0  0  0  0  0  0  0  0  0  0
   17.0380   61.5690   -9.9860 H   0  0  0  0  0  0  0  0  0  0  0  0
   20.2080   63.3420  -12.5260 H   0  0  0  0  0  0  0  0  0  0  0  0
   21.9500   64.5410  -11.8490 H   0  0  0  0  0  0  0  0  0  0  0  0
   23.2700   62.6460   -9.9780 H   0  0  0  0  0  0  0  0  0  0  0  0
   21.3780   61.7810   -9.1290 H   0  0  0  0  0  0  0  0  0  0  0  0
   23.7980   65.3290   -7.1420 H   0  0  0  0  0  0  0  0  0  0  0  0
   22.1940   66.0510   -6.7020 H   0  0  0  0  0  0  0  0  0  0  0  0
   21.9620   63.3630   -5.8350 H   0  0  0  0  0  0  0  0  0  0  0  0
   22.0800   64.8450   -4.8850 H   0  0  0  0  0  0  0  0  0  0  0  0
   23.4640   64.3420   -3.1340 H   0  0  0  0  0  0  0  0  0  0  0  0
   25.5410   63.5310   -2.2240 H   0  0  0  0  0  0  0  0  0  0  0  0
   27.2570   62.4630   -3.7120 H   0  0  0  0  0  0  0  0  0  0  0  0
   26.7920   62.2560   -6.0770 H   0  0  0  0  0  0  0  0  0  0  0  0
   24.6370   63.1040   -7.0130 H   0  0  0  0  0  0  0  0  0  0  0  0
   22.6410   62.9830  -13.5640 H   0  0  0  0  0  0  0  0  0  0  0  0
   24.0850   64.5760  -12.6630 H   0  0  0  0  0  0  0  0  0  0  0  0
   22.5400   60.7780  -12.7570 H   0  0  0  0  0  0  0  0  0  0  0  0
   23.4160   61.1680  -11.2350 H   0  0  0  0  0  0  0  0  0  0  0  0
   24.2740   61.1590  -12.7910 H   0  0  0  0  0  0  0  0  0  0  0  0
  1  2  1  0  0  0  0
  2  7  1  0  0  0  0
  3  2  2  0  0  0  0
  3  4  1  0  0  0  0
  4  5  2  0  0  0  0
  5  8  1  0  0  0  0
  5  6  1  0  0  0  0
  6 33  1  0  0  0  0
  7 34  1  0  0  0  0
  7  6  2  0  0  0  0
  8 35  1  0  0  0  0
  9 10  2  0  0  0  0
  9  8  1  0  0  0  0
 11  4  1  1  0  0  0
 11  9  1  0  0  0  0
 11 15  1  0  0  0  0
 12 13  1  0  0  0  0
 12 11  1  0  0  0  0
 13 37  1  6  0  0  0
 13 14  1  0  0  0  0
 14 38  1  1  0  0  0
 14 15  1  0  0  0  0
 14 19  1  0  0  0  0
 15 39  1  1  0  0  0
 15 16  1  0  0  0  0
 16 18  1  0  0  0  0
 16 17  2  0  0  0  0
 18 21  1  0  0  0  0
 19 18  1  0  0  0  0
 20 19  2  0  0  0  0
 21 41  1  0  0  0  0
 21 22  1  0  0  0  0
 22 23  1  0  0  0  0
 22 43  1  0  0  0  0
 23 24  1  0  0  0  0
 24 25  2  0  0  0  0
 24 44  1  0  0  0  0
 25 45  1  0  0  0  0
 26 46  1  0  0  0  0
 26 25  1  0  0  0  0
 27 26  2  0  0  0  0
 28 27  1  0  0  0  0
 28 23  2  0  0  0  0
 29 49  1  6  0  0  0
 29 30  1  0  0  0  0
 29 31  1  0  0  0  0
 29 13  1  0  0  0  0
 31 52  1  0  0  0  0
 32  3  1  0  0  0  0
 36 12  1  0  0  0  0
 40 21  1  0  0  0  0
 42 22  1  0  0  0  0
 47 27  1  0  0  0  0
 48 28  1  0  0  0  0
 50 30  1  0  0  0  0
 51 31  1  0  0  0  0
 53 31  1  0  0  0  0
M  END
>  <Pose>
1

>  <Score>
-5.64

$$$$
