
 OpenBabel03202210193D

 39 42  0  0  1  0  0  0  0  0999 V2000
   15.5480   64.2900  -10.5720 B   0  0  0  0  0  0  0  0  0  0  0  0
   17.4250   63.9650  -10.6210 C   0  0  0  0  0  0  0  0  0  0  0  0
   18.0610   63.6670   -9.4520 C   0  0  0  0  0  0  0  0  0  0  0  0
   19.4250   63.4260   -9.4580 C   0  0  0  0  0  0  0  0  0  0  0  0
   20.1420   63.4870  -10.6470 C   0  0  0  0  0  0  0  0  0  0  0  0
   19.5130   63.7870  -11.8370 C   0  0  0  0  0  0  0  0  0  0  0  0
   18.1570   64.0190  -11.7830 C   0  0  0  0  0  0  0  0  0  0  0  0
   21.5310   63.2600  -10.7750 N   0  0  0  0  0  0  0  0  0  0  0  0
   22.0660   62.8970  -11.9460 N   0  0  0  0  0  0  0  0  0  0  0  0
   23.3480   62.7700  -11.7310 N   0  0  0  0  0  0  0  0  0  0  0  0
   23.6340   63.0400  -10.4680 N   0  0  0  0  0  0  0  0  0  0  0  0
   22.4640   63.3580   -9.8430 C   0  0  0  0  0  0  0  0  0  0  0  0
   22.4210   63.7240   -8.3840 C   0  0  2  0  0  0  0  0  0  0  0  0
   21.2790   63.0950   -7.7270 N   0  0  0  0  0  0  0  0  0  0  0  0
   19.9070   63.1250   -8.1040 C   0  0  0  0  0  0  0  0  0  0  0  0
   19.0420   62.8780   -7.2190 O   0  0  0  0  0  0  0  0  0  0  0  0
   22.1710   65.2060   -8.3340 C   0  0  0  0  0  0  0  0  0  0  0  0
   22.5960   65.7450   -7.0070 C   0  0  0  0  0  0  0  0  0  0  0  0
   23.9470   65.5470   -6.9020 O   0  0  0  0  0  0  0  0  0  0  0  0
   24.3500   64.2400   -6.8360 C   0  0  0  0  0  0  0  0  0  0  0  0
   23.6810   63.2870   -7.7310 C   0  0  0  0  0  0  0  0  0  0  0  0
   22.3670   67.2620   -6.9800 C   0  0  0  0  0  0  0  0  0  0  0  0
   21.8140   65.1820   -5.8510 C   0  0  0  0  0  0  0  0  0  0  0  0
   17.5580   63.6040   -8.4940 H   0  0  0  0  0  0  0  0  0  0  0  0
   20.1040   63.8250  -12.7410 H   0  0  0  0  0  0  0  0  0  0  0  0
   17.6530   64.2540  -12.7050 H   0  0  0  0  0  0  0  0  0  0  0  0
   21.4780   62.5330   -6.8440 H   0  0  0  0  0  0  0  0  0  0  0  0
   21.0760   65.3740   -8.4580 H   0  0  0  0  0  0  0  0  0  0  0  0
   22.7470   65.7430   -9.1160 H   0  0  0  0  0  0  0  0  0  0  0  0
   24.2530   63.9300   -5.7520 H   0  0  0  0  0  0  0  0  0  0  0  0
   25.4700   64.2430   -7.0010 H   0  0  0  0  0  0  0  0  0  0  0  0
   24.4230   62.9370   -8.5100 H   0  0  0  0  0  0  0  0  0  0  0  0
   23.4700   62.3420   -7.1470 H   0  0  0  0  0  0  0  0  0  0  0  0
   22.5440   67.7160   -7.9690 H   0  0  0  0  0  0  0  0  0  0  0  0
   22.8930   67.7350   -6.1500 H   0  0  0  0  0  0  0  0  0  0  0  0
   21.2650   67.3810   -6.7740 H   0  0  0  0  0  0  0  0  0  0  0  0
   21.8270   65.9490   -5.0220 H   0  0  0  0  0  0  0  0  0  0  0  0
   22.2750   64.2790   -5.4050 H   0  0  0  0  0  0  0  0  0  0  0  0
   20.7540   65.0430   -6.1010 H   0  0  0  0  0  0  0  0  0  0  0  0
  2  1  1  0  0  0  0
  2  3  1  0  0  0  0
  3 24  1  0  0  0  0
  4  3  2  0  0  0  0
  4 15  1  0  0  0  0
  5  4  1  0  0  0  0
  6  7  1  0  0  0  0
  6  5  2  0  0  0  0
  7  2  2  0  0  0  0
  8  5  1  0  0  0  0
  8 12  1  0  0  0  0
  9 10  2  0  0  0  0
  9  8  1  0  0  0  0
 10 11  1  0  0  0  0
 11 12  2  0  0  0  0
 13 12  1  6  0  0  0
 13 17  1  0  0  0  0
 13 21  1  0  0  0  0
 13 14  1  0  0  0  0
 14 27  1  0  0  0  0
 15 14  1  0  0  0  0
 15 16  2  0  0  0  0
 17 18  1  0  0  0  0
 18 22  1  0  0  0  0
 18 19  1  0  0  0  0
 18 23  1  0  0  0  0
 19 20  1  0  0  0  0
 20 30  1  0  0  0  0
 21 33  1  0  0  0  0
 21 20  1  0  0  0  0
 22 36  1  0  0  0  0
 22 35  1  0  0  0  0
 23 38  1  0  0  0  0
 23 37  1  0  0  0  0
 25  6  1  0  0  0  0
 26  7  1  0  0  0  0
 28 17  1  0  0  0  0
 29 17  1  0  0  0  0
 31 20  1  0  0  0  0
 32 21  1  0  0  0  0
 34 22  1  0  0  0  0
 39 23  1  0  0  0  0
M  END
>  <Pose>
1

>  <Score>
-5.89

$$$$
