
 OpenBabel03202210193D

 44 47  0  0  0  0  0  0  0  0999 V2000
   14.5850   61.2480  -10.6640 B   0  0  0  0  0  0  0  0  0  0  0  0
   16.0950   62.3890  -10.5680 C   0  0  0  0  0  0  0  0  0  0  0  0
   17.3010   61.9490  -10.0550 C   0  0  0  0  0  0  0  0  0  0  0  0
   18.4310   62.7420   -9.9770 C   0  0  0  0  0  0  0  0  0  0  0  0
   18.3370   64.0380  -10.4400 C   0  0  0  0  0  0  0  0  0  0  0  0
   17.1530   64.5360  -10.9650 C   0  0  0  0  0  0  0  0  0  0  0  0
   16.0520   63.7150  -11.0230 C   0  0  0  0  0  0  0  0  0  0  0  0
   19.4120   64.8250  -10.3760 O   0  0  0  0  0  0  0  0  0  0  0  0
   20.5430   64.4370   -9.9010 C   0  0  0  0  0  0  0  0  0  0  0  0
   21.5720   65.1790   -9.8380 O   0  0  0  0  0  0  0  0  0  0  0  0
   20.7020   63.1540   -9.4210 C   0  0  0  0  0  0  0  0  0  0  0  0
   19.6240   62.2990   -9.4620 C   0  0  0  0  0  0  0  0  0  0  0  0
   21.9760   62.7210   -8.8490 C   0  0  0  0  0  0  0  0  0  0  0  0
   22.7860   61.8140   -9.5140 C   0  0  0  0  0  0  0  0  0  0  0  0
   24.0110   61.4590   -8.9890 C   0  0  0  0  0  0  0  0  0  0  0  0
   24.6980   60.6230   -9.6580 O   0  0  0  0  0  0  0  0  0  0  0  0
   24.4250   61.9630   -7.8670 O   0  0  0  0  0  0  0  0  0  0  0  0
   23.7270   62.8030   -7.2050 C   0  0  0  0  0  0  0  0  0  0  0  0
   22.4640   63.2210   -7.6680 C   0  0  0  0  0  0  0  0  0  0  0  0
   21.7360   64.1100   -6.9320 C   0  0  0  0  0  0  0  0  0  0  0  0
   22.2890   64.5760   -5.7340 C   0  0  0  0  0  0  0  0  0  0  0  0
   23.5320   64.1490   -5.3100 C   0  0  0  0  0  0  0  0  0  0  0  0
   24.2920   63.2520   -6.0260 C   0  0  0  0  0  0  0  0  0  0  0  0
   25.6180   62.9320   -5.5700 C   0  0  0  0  0  0  0  0  0  0  0  0
   25.9380   61.7960   -4.8060 N   0  0  0  0  0  4  0  0  0  0  0  0
   27.2810   61.2920   -4.8940 C   0  0  0  0  0  0  0  0  0  0  0  0
   25.4600   61.9050   -3.4040 C   0  0  0  0  0  0  0  0  0  0  0  0
   23.9990   64.6850   -4.0910 O   0  0  0  0  0  0  0  0  0  0  0  0
   17.4060   60.9160   -9.6910 H   0  0  0  0  0  0  0  0  0  0  0  0
   17.1480   65.5610  -11.2990 H   0  0  0  0  0  0  0  0  0  0  0  0
   15.0950   64.0350  -11.4190 H   0  0  0  0  0  0  0  0  0  0  0  0
   19.6750   61.2610   -9.0730 H   0  0  0  0  0  0  0  0  0  0  0  0
   22.4180   61.3910  -10.4460 H   0  0  0  0  0  0  0  0  0  0  0  0
   20.7490   64.4260   -7.2470 H   0  0  0  0  0  0  0  0  0  0  0  0
   21.6920   65.2860   -5.1800 H   0  0  0  0  0  0  0  0  0  0  0  0
   25.9490   63.8310   -4.9220 H   0  0  0  0  0  0  0  0  0  0  0  0
   26.3570   63.0160   -6.4160 H   0  0  0  0  0  0  0  0  0  0  0  0
   25.3540   60.9950   -5.1870 H   0  0  0  0  0  0  0  0  0  0  0  0
   27.9410   61.6070   -4.0450 H   0  0  0  0  0  0  0  0  0  0  0  0
   27.7780   61.4680   -5.8750 H   0  0  0  0  0  0  0  0  0  0  0  0
   27.3240   60.1530   -4.7960 H   0  0  0  0  0  0  0  0  0  0  0  0
   24.9950   62.9090   -3.2240 H   0  0  0  0  0  0  0  0  0  0  0  0
   24.6010   61.2150   -3.1960 H   0  0  0  0  0  0  0  0  0  0  0  0
   26.2500   61.6250   -2.7030 H   0  0  0  0  0  0  0  0  0  0  0  0
  1  2  1  0  0  0  0
  2  3  1  0  0  0  0
  3  4  2  0  0  0  0
  3 29  1  0  0  0  0
  4 12  1  0  0  0  0
  5  8  1  0  0  0  0
  5  4  1  0  0  0  0
  6  5  2  0  0  0  0
  7  6  1  0  0  0  0
  7  2  2  0  0  0  0
  8  9  1  0  0  0  0
  9 10  2  0  0  0  0
  9 11  1  0  0  0  0
 11 13  1  0  0  0  0
 12 11  2  0  0  0  0
 12 32  1  0  0  0  0
 13 19  1  0  0  0  0
 14 15  1  0  0  0  0
 14 13  2  0  0  0  0
 15 17  1  0  0  0  0
 16 15  2  0  0  0  0
 17 18  1  0  0  0  0
 18 23  1  0  0  0  0
 19 18  2  0  0  0  0
 19 20  1  0  0  0  0
 20 21  2  0  0  0  0
 21 22  1  0  0  0  0
 21 35  1  0  0  0  0
 22 28  1  0  0  0  0
 23 24  1  0  0  0  0
 23 22  2  0  0  0  0
 24 36  1  0  0  0  0
 24 25  1  0  0  0  0
 25 27  1  0  0  0  0
 26 25  1  0  0  0  0
 26 41  1  0  0  0  0
 26 39  1  0  0  0  0
 27 42  1  0  0  0  0
 27 43  1  0  0  0  0
 27 44  1  0  0  0  0
 30  6  1  0  0  0  0
 31  7  1  0  0  0  0
 33 14  1  0  0  0  0
 34 20  1  0  0  0  0
 37 24  1  0  0  0  0
 38 25  1  0  0  0  0
 40 26  1  0  0  0  0
M  END
>  <Pose>
1

>  <Score>
-5.46

$$$$
