
 OpenBabel03202210193D

 51 54  0  0  0  0  0  0  0  0999 V2000
   22.3230   63.7960  -14.8340 B   0  0  0  0  0  0  0  0  0  0  0  0
   22.6710   63.4770  -12.9850 C   0  0  0  0  0  0  0  0  0  0  0  0
   21.6650   63.6310  -12.0350 C   0  0  0  0  0  0  0  0  0  0  0  0
   21.9170   63.3990  -10.6900 C   0  0  0  0  0  0  0  0  0  0  0  0
   23.1750   63.0120  -10.2820 C   0  0  0  0  0  0  0  0  0  0  0  0
   23.4230   62.7810   -8.9680 N   0  0  0  0  0  0  0  0  0  0  0  0
   22.4660   62.9180   -8.0320 C   0  0  0  0  0  0  0  0  0  0  0  0
   21.2510   63.2950   -8.4470 N   0  0  0  0  0  0  0  0  0  0  0  0
   20.9350   63.5420   -9.7310 C   0  0  0  0  0  0  0  0  0  0  0  0
   19.5820   63.9450  -10.0770 C   0  0  0  0  0  0  0  0  0  0  0  0
   18.5860   62.9930  -10.2470 C   0  0  0  0  0  0  0  0  0  0  0  0
   17.2900   63.3380  -10.5620 C   0  0  0  0  0  0  0  0  0  0  0  0
   16.9240   64.6590  -10.7210 C   0  0  0  0  0  0  0  0  0  0  0  0
   17.9220   65.6110  -10.5500 C   0  0  0  0  0  0  0  0  0  0  0  0
   19.2150   65.2570  -10.2370 C   0  0  0  0  0  0  0  0  0  0  0  0
   19.0240   61.2940  -10.0500 Cl  0  0  0  0  0  0  0  0  0  0  0  0
   22.7650   62.6630   -6.6540 N   0  0  0  0  0  4  0  0  0  0  0  0
   21.5650   62.7500   -5.8660 C   0  0  0  0  0  0  0  0  0  0  0  0
   21.0870   64.1410   -5.6230 C   0  0  0  0  0  0  0  0  0  0  0  0
   22.0810   65.1360   -5.9570 N   0  0  0  0  0  0  0  0  0  0  0  0
   23.4570   64.8090   -5.6510 C   0  0  0  0  0  0  0  0  0  0  0  0
   23.8470   63.4530   -6.1530 C   0  0  0  0  0  0  0  0  0  0  0  0
   21.6570   66.3490   -6.5510 C   0  0  0  0  0  0  0  0  0  0  0  0
   20.5080   66.4620   -7.0300 O   0  0  0  0  0  0  0  0  0  0  0  0
   22.6480   67.4640   -6.5690 C   0  0  0  0  0  0  0  0  0  0  0  0
   22.0150   68.7690   -6.1900 C   0  0  0  0  0  0  0  0  0  0  0  0
   22.9940   69.8300   -5.9090 C   0  0  0  0  0  0  0  0  0  0  0  0
   24.0220   69.6090   -5.2370 O   0  0  0  0  0  0  0  0  0  0  0  0
   22.7730   71.1010   -6.4000 O   0  0  0  0  0  0  0  0  0  0  0  0
   24.1630   62.8660  -11.2480 C   0  0  0  0  0  0  0  0  0  0  0  0
   23.9340   63.0910  -12.5880 C   0  0  0  0  0  0  0  0  0  0  0  0
   20.6900   63.9250  -12.3470 H   0  0  0  0  0  0  0  0  0  0  0  0
   16.5150   62.5950  -10.6950 H   0  0  0  0  0  0  0  0  0  0  0  0
   15.9060   64.9390  -10.9680 H   0  0  0  0  0  0  0  0  0  0  0  0
   17.6580   66.6510  -10.6710 H   0  0  0  0  0  0  0  0  0  0  0  0
   19.9350   66.0470  -10.1140 H   0  0  0  0  0  0  0  0  0  0  0  0
   23.0460   61.6370   -6.6330 H   0  0  0  0  0  0  0  0  0  0  0  0
   20.7830   62.1470   -6.3630 H   0  0  0  0  0  0  0  0  0  0  0  0
   21.7900   62.2510   -4.8880 H   0  0  0  0  0  0  0  0  0  0  0  0
   20.8750   64.2740   -4.5250 H   0  0  0  0  0  0  0  0  0  0  0  0
   20.1360   64.2960   -6.1700 H   0  0  0  0  0  0  0  0  0  0  0  0
   24.1620   65.5860   -6.0120 H   0  0  0  0  0  0  0  0  0  0  0  0
   23.5000   64.7680   -4.5230 H   0  0  0  0  0  0  0  0  0  0  0  0
   24.3350   62.8570   -5.3340 H   0  0  0  0  0  0  0  0  0  0  0  0
   24.6020   63.5500   -6.9680 H   0  0  0  0  0  0  0  0  0  0  0  0
   23.4320   67.2360   -5.8180 H   0  0  0  0  0  0  0  0  0  0  0  0
   23.1610   67.5400   -7.5490 H   0  0  0  0  0  0  0  0  0  0  0  0
   21.4330   68.5980   -5.2500 H   0  0  0  0  0  0  0  0  0  0  0  0
   21.2870   69.0820   -6.9650 H   0  0  0  0  0  0  0  0  0  0  0  0
   25.1380   62.5690  -10.9360 H   0  0  0  0  0  0  0  0  0  0  0  0
   24.6900   62.9830  -13.3550 H   0  0  0  0  0  0  0  0  0  0  0  0
  1  2  1  0  0  0  0
  2 31  2  0  0  0  0
  2  3  1  0  0  0  0
  3  4  2  0  0  0  0
  4  5  1  0  0  0  0
  4  9  1  0  0  0  0
  5  6  1  0  0  0  0
  6  7  2  0  0  0  0
  7 17  1  0  0  0  0
  8  7  1  0  0  0  0
  9  8  2  0  0  0  0
 10  9  1  0  0  0  0
 11 10  2  0  0  0  0
 11 16  1  0  0  0  0
 12 11  1  0  0  0  0
 13 12  2  0  0  0  0
 13 14  1  0  0  0  0
 14 15  2  0  0  0  0
 15 36  1  0  0  0  0
 15 10  1  0  0  0  0
 17 37  1  0  0  0  0
 17 22  1  0  0  0  0
 17 18  1  0  0  0  0
 18 19  1  0  0  0  0
 18 39  1  0  0  0  0
 19 40  1  0  0  0  0
 20 21  1  0  0  0  0
 20 19  1  0  0  0  0
 21 43  1  0  0  0  0
 22 21  1  0  0  0  0
 22 44  1  0  0  0  0
 23 20  1  0  0  0  0
 24 23  2  0  0  0  0
 25 23  1  0  0  0  0
 25 26  1  0  0  0  0
 25 46  1  0  0  0  0
 26 27  1  0  0  0  0
 26 48  1  0  0  0  0
 27 28  1  0  0  0  0
 29 27  2  0  0  0  0
 30 50  1  0  0  0  0
 30  5  2  0  0  0  0
 31 30  1  0  0  0  0
 32  3  1  0  0  0  0
 33 12  1  0  0  0  0
 34 13  1  0  0  0  0
 35 14  1  0  0  0  0
 38 18  1  0  0  0  0
 41 19  1  0  0  0  0
 42 21  1  0  0  0  0
 45 22  1  0  0  0  0
 47 25  1  0  0  0  0
 49 26  1  0  0  0  0
 51 31  1  0  0  0  0
M  END
>  <Pose>
1

>  <Score>
-5.04

$$$$
