
 OpenBabel03202210193D

 54 57  0  0  0  0  0  0  0  0999 V2000
   19.7420   62.1230  -15.4970 B   0  0  0  0  0  0  0  0  0  0  0  0
   20.4930   62.5350  -13.7870 C   0  0  0  0  0  0  0  0  0  0  0  0
   19.8020   62.3150  -12.6090 C   0  0  0  0  0  0  0  0  0  0  0  0
   20.3150   62.6000  -11.3630 C   0  0  0  0  0  0  0  0  0  0  0  0
   21.5850   63.1360  -11.2520 C   0  0  0  0  0  0  0  0  0  0  0  0
   22.1060   63.4320  -10.0360 N   0  0  0  0  0  0  0  0  0  0  0  0
   21.4310   63.2240   -8.8930 C   0  0  0  0  0  0  0  0  0  0  0  0
   20.1960   62.7030   -8.9990 N   0  0  0  0  0  0  0  0  0  0  0  0
   19.6300   62.3900  -10.1890 C   0  0  0  0  0  0  0  0  0  0  0  0
   18.2890   61.8300  -10.2460 C   0  0  0  0  0  0  0  0  0  0  0  0
   17.1900   62.5950  -10.6040 C   0  0  0  0  0  0  0  0  0  0  0  0
   15.9070   62.0790  -10.6430 C   0  0  0  0  0  0  0  0  0  0  0  0
   15.7430   60.7310  -10.3040 C   0  0  0  0  0  0  0  0  0  0  0  0
   16.8150   59.9420   -9.9430 C   0  0  0  0  0  0  0  0  0  0  0  0
   18.0570   60.4910   -9.9170 C   0  0  0  0  0  0  0  0  0  0  0  0
   17.4240   64.2840  -11.0250 Cl  0  0  0  0  0  0  0  0  0  0  0  0
   22.0100   63.5470   -7.6330 N   0  0  0  0  0  4  0  0  0  0  0  0
   21.6800   64.8990   -7.2420 C   0  0  0  0  0  0  0  0  0  0  0  0
   21.9060   65.0360   -5.7690 C   0  0  0  0  0  0  0  0  0  0  0  0
   22.7070   63.9160   -5.3180 N   0  0  0  0  0  0  0  0  0  0  0  0
   23.8520   63.5470   -6.1310 C   0  0  0  0  0  0  0  0  0  0  0  0
   23.4440   63.4200   -7.6040 C   0  0  0  0  0  0  0  0  0  0  0  0
   22.3450   63.2510   -4.1350 C   0  0  0  0  0  0  0  0  0  0  0  0
   21.1250   63.2000   -3.8400 O   0  0  0  0  0  0  0  0  0  0  0  0
   23.3300   62.6270   -3.2490 C   0  0  0  0  0  0  0  0  0  0  0  0
   24.7080   63.1100   -3.5980 C   0  0  0  0  0  0  0  0  0  0  0  0
   25.7700   62.0580   -3.3650 C   0  0  0  0  0  0  0  0  0  0  0  0
   26.7510   61.9720   -4.4640 C   0  0  0  0  0  0  0  0  0  0  0  0
   26.8330   60.8840   -5.0820 O   0  0  0  0  0  0  0  0  0  0  0  0
   27.5400   63.0680   -4.7800 O   0  0  0  0  0  0  0  0  0  0  0  0
   22.2820   63.3570  -12.4200 C   0  0  0  0  0  0  0  0  0  0  0  0
   21.7590   63.0670  -13.6740 C   0  0  0  0  0  0  0  0  0  0  0  0
   18.8070   61.9060  -12.7160 H   0  0  0  0  0  0  0  0  0  0  0  0
   15.0490   62.6830  -10.9250 H   0  0  0  0  0  0  0  0  0  0  0  0
   14.7250   60.3280  -10.3360 H   0  0  0  0  0  0  0  0  0  0  0  0
   16.6740   58.8870   -9.6810 H   0  0  0  0  0  0  0  0  0  0  0  0
   18.8990   59.8790   -9.6300 H   0  0  0  0  0  0  0  0  0  0  0  0
   21.6180   62.8800   -6.9360 H   0  0  0  0  0  0  0  0  0  0  0  0
   20.6190   65.0660   -7.5210 H   0  0  0  0  0  0  0  0  0  0  0  0
   22.3070   65.5820   -7.8520 H   0  0  0  0  0  0  0  0  0  0  0  0
   20.9130   65.0540   -5.2750 H   0  0  0  0  0  0  0  0  0  0  0  0
   22.4110   65.9980   -5.5370 H   0  0  0  0  0  0  0  0  0  0  0  0
   24.5630   64.3980   -6.0780 H   0  0  0  0  0  0  0  0  0  0  0  0
   24.3770   62.6610   -5.7690 H   0  0  0  0  0  0  0  0  0  0  0  0
   23.9590   64.1530   -8.2340 H   0  0  0  0  0  0  0  0  0  0  0  0
   23.7600   62.4190   -7.9250 H   0  0  0  0  0  0  0  0  0  0  0  0
   23.1690   62.9020   -2.1660 H   0  0  0  0  0  0  0  0  0  0  0  0
   23.2680   61.5200   -3.2630 H   0  0  0  0  0  0  0  0  0  0  0  0
   24.7820   63.3810   -4.6820 H   0  0  0  0  0  0  0  0  0  0  0  0
   24.9800   64.0160   -3.0380 H   0  0  0  0  0  0  0  0  0  0  0  0
   25.2530   61.0810   -3.2870 H   0  0  0  0  0  0  0  0  0  0  0  0
   26.2630   62.2500   -2.3780 H   0  0  0  0  0  0  0  0  0  0  0  0
   23.2770   63.7770  -12.3350 H   0  0  0  0  0  0  0  0  0  0  0  0
   22.2960   63.2360  -14.5930 H   0  0  0  0  0  0  0  0  0  0  0  0
  1  2  1  0  0  0  0
  2 32  2  0  0  0  0
  2  3  1  0  0  0  0
  3  4  2  0  0  0  0
  4  5  1  0  0  0  0
  4  9  1  0  0  0  0
  5  6  1  0  0  0  0
  6  7  2  0  0  0  0
  7 17  1  0  0  0  0
  8  7  1  0  0  0  0
  9  8  2  0  0  0  0
 10  9  1  0  0  0  0
 10 15  1  0  0  0  0
 11 10  2  0  0  0  0
 12 11  1  0  0  0  0
 12 13  2  0  0  0  0
 13 14  1  0  0  0  0
 14 15  2  0  0  0  0
 14 36  1  0  0  0  0
 15 37  1  0  0  0  0
 16 11  1  0  0  0  0
 17 22  1  0  0  0  0
 17 18  1  0  0  0  0
 17 38  1  0  0  0  0
 18 19  1  0  0  0  0
 19 42  1  0  0  0  0
 19 20  1  0  0  0  0
 19 41  1  0  0  0  0
 20 23  1  0  0  0  0
 21 43  1  0  0  0  0
 21 44  1  0  0  0  0
 21 20  1  0  0  0  0
 22 21  1  0  0  0  0
 23 24  2  0  0  0  0
 23 25  1  0  0  0  0
 25 47  1  0  0  0  0
 26 27  1  0  0  0  0
 26 25  1  0  0  0  0
 26 50  1  0  0  0  0
 27 51  1  0  0  0  0
 27 52  1  0  0  0  0
 28 27  1  0  0  0  0
 29 28  2  0  0  0  0
 30 28  1  0  0  0  0
 31 53  1  0  0  0  0
 31  5  2  0  0  0  0
 32 31  1  0  0  0  0
 33  3  1  0  0  0  0
 34 12  1  0  0  0  0
 35 13  1  0  0  0  0
 39 18  1  0  0  0  0
 40 18  1  0  0  0  0
 45 22  1  0  0  0  0
 46 22  1  0  0  0  0
 48 25  1  0  0  0  0
 49 26  1  0  0  0  0
 54 32  1  0  0  0  0
M  END
>  <Pose>
1

>  <Score>
-5.83

$$$$
