
 OpenBabel03202210193D

 51 54  0  0  0  0  0  0  0  0999 V2000
   17.3710   64.4440  -10.0590 B   0  0  0  0  0  0  0  0  0  0  0  0
   15.9550   63.4980  -10.9420 C   0  0  0  0  0  0  0  0  0  0  0  0
   15.0420   64.2110  -11.6850 C   0  0  0  0  0  0  0  0  0  0  0  0
   14.0100   63.5690  -12.3240 C   0  0  0  0  0  0  0  0  0  0  0  0
   12.9770   63.9380  -13.1050 N   0  0  0  0  0  0  0  0  0  0  0  0
   12.2540   62.8610  -13.4670 C   0  0  0  0  0  0  0  0  0  0  0  0
   12.8680   61.8140  -12.8890 N   0  0  0  0  0  0  0  0  0  0  0  0
   13.9460   62.2120  -12.1820 C   0  0  0  0  0  0  0  0  0  0  0  0
   14.8740   61.4810  -11.4260 C   0  0  0  0  0  0  0  0  0  0  0  0
   15.9100   62.1220  -10.7850 C   0  0  0  0  0  0  0  0  0  0  0  0
   16.9050   61.4870  -10.0110 N   0  0  0  0  0  0  0  0  0  0  0  0
   18.2950   61.5910  -10.1540 C   0  0  0  0  0  0  0  0  0  0  0  0
   19.0090   60.5570  -10.1720 O   0  0  0  0  0  0  0  0  0  0  0  0
   19.0100   62.8650  -10.2900 C   0  0  0  0  0  0  0  0  0  0  0  0
   20.2540   63.0020   -9.6450 N   0  0  0  0  0  0  0  0  0  0  0  0
   21.3330   63.5620  -10.3760 C   0  0  0  0  0  0  0  0  0  0  0  0
   22.6880   63.2300   -9.7510 C   0  0  0  0  0  0  0  0  0  0  0  0
   22.6550   63.6280   -8.4090 N   0  0  0  0  0  0  0  0  0  0  0  0
   21.4360   64.0850   -7.8650 C   0  0  0  0  0  0  0  0  0  0  0  0
   20.2010   63.3330   -8.2610 C   0  0  0  0  0  0  0  0  0  0  0  0
   23.6510   63.1220   -7.5790 C   0  0  0  0  0  0  0  0  0  0  0  0
   24.3680   64.0440   -6.6970 C   0  0  0  0  0  0  0  0  0  0  0  0
   24.2600   65.2940   -7.0070 O   0  0  0  0  0  0  0  0  0  0  0  0
   25.1390   63.7410   -5.5810 N   0  0  0  0  0  0  0  0  0  0  0  0
   24.8240   62.6510   -4.6610 C   0  0  0  0  0  0  0  0  0  0  0  0
   25.8810   61.9970   -3.8740 C   0  0  0  0  0  0  0  0  0  0  0  0
   24.9150   62.9380   -3.1780 C   0  0  0  0  0  0  0  0  0  0  0  0
   11.1040   62.8530  -14.2800 O   0  0  0  0  0  0  0  0  0  0  0  0
   15.1050   65.2840  -11.7890 H   0  0  0  0  0  0  0  0  0  0  0  0
   12.5560   60.8060  -12.9700 H   0  0  0  0  0  0  0  0  0  0  0  0
   14.7600   60.4250  -11.3590 H   0  0  0  0  0  0  0  0  0  0  0  0
   16.5860   60.8610   -9.2090 H   0  0  0  0  0  0  0  0  0  0  0  0
   19.1880   62.9900  -11.4040 H   0  0  0  0  0  0  0  0  0  0  0  0
   18.3770   63.7430  -10.0080 H   0  0  0  0  0  0  0  0  0  0  0  0
   21.2510   64.6900  -10.2300 H   0  0  0  0  0  0  0  0  0  0  0  0
   21.2820   63.4010  -11.4430 H   0  0  0  0  0  0  0  0  0  0  0  0
   23.4250   63.8770  -10.2990 H   0  0  0  0  0  0  0  0  0  0  0  0
   22.8860   62.1760   -9.8770 H   0  0  0  0  0  0  0  0  0  0  0  0
   21.5050   64.2260   -6.7600 H   0  0  0  0  0  0  0  0  0  0  0  0
   21.2810   65.1390   -8.2540 H   0  0  0  0  0  0  0  0  0  0  0  0
   20.0040   62.4580   -7.6030 H   0  0  0  0  0  0  0  0  0  0  0  0
   19.3330   64.0240   -8.1100 H   0  0  0  0  0  0  0  0  0  0  0  0
   23.1690   62.2940   -6.9460 H   0  0  0  0  0  0  0  0  0  0  0  0
   24.3960   62.4890   -8.1850 H   0  0  0  0  0  0  0  0  0  0  0  0
   25.9940   64.2920   -5.3660 H   0  0  0  0  0  0  0  0  0  0  0  0
   23.9460   62.0320   -4.9290 H   0  0  0  0  0  0  0  0  0  0  0  0
   25.7710   60.9250   -3.5750 H   0  0  0  0  0  0  0  0  0  0  0  0
   26.9210   62.3200   -3.8700 H   0  0  0  0  0  0  0  0  0  0  0  0
   25.3060   63.9160   -2.8250 H   0  0  0  0  0  0  0  0  0  0  0  0
   24.1440   62.5060   -2.4950 H   0  0  0  0  0  0  0  0  0  0  0  0
   10.2680   62.4380  -13.8480 H   0  0  0  0  0  0  0  0  0  0  0  0
  2 10  1  0  0  0  0
  2  1  1  0  0  0  0
  3  2  2  0  0  0  0
  4  8  2  0  0  0  0
  4  3  1  0  0  0  0
  5  4  1  0  0  0  0
  6  5  2  0  0  0  0
  6  7  1  0  0  0  0
  7  8  1  0  0  0  0
  8  9  1  0  0  0  0
  9 31  1  0  0  0  0
  9 10  2  0  0  0  0
 10 11  1  0  0  0  0
 11 32  1  0  0  0  0
 12 11  1  0  0  0  0
 13 12  2  0  0  0  0
 14 12  1  0  0  0  0
 14 34  1  0  0  0  0
 14 15  1  0  0  0  0
 15 20  1  0  0  0  0
 16 35  1  0  0  0  0
 16 17  1  0  0  0  0
 16 15  1  0  0  0  0
 17 18  1  0  0  0  0
 18 19  1  0  0  0  0
 18 21  1  0  0  0  0
 19 39  1  0  0  0  0
 20 42  1  0  0  0  0
 20 19  1  0  0  0  0
 20 41  1  0  0  0  0
 21 43  1  0  0  0  0
 21 22  1  0  0  0  0
 22 24  1  0  0  0  0
 23 22  2  0  0  0  0
 24 45  1  0  0  0  0
 24 25  1  0  0  0  0
 25 26  1  0  0  0  0
 25 27  1  0  0  0  0
 26 48  1  0  0  0  0
 26 47  1  0  0  0  0
 26 27  1  0  0  0  0
 27 49  1  0  0  0  0
 27 50  1  0  0  0  0
 28 51  1  0  0  0  0
 28  6  1  0  0  0  0
 29  3  1  0  0  0  0
 30  7  1  0  0  0  0
 33 14  1  0  0  0  0
 36 16  1  0  0  0  0
 37 17  1  0  0  0  0
 38 17  1  0  0  0  0
 40 19  1  0  0  0  0
 44 21  1  0  0  0  0
 46 25  1  0  0  0  0
M  END
>  <Pose>
1

>  <Score>
-8.71

$$$$
