
 OpenBabel03202210193D

 43 46  0  0  1  0  0  0  0  0999 V2000
   14.1920   64.0400  -11.0880 B   0  0  0  0  0  0  0  0  0  0  0  0
   15.9730   63.4930  -10.6430 C   0  0  0  0  0  0  0  0  0  0  0  0
   16.2920   62.1450  -10.4940 C   0  0  0  0  0  0  0  0  0  0  0  0
   17.5920   61.8330  -10.1720 C   0  0  0  0  0  0  0  0  0  0  0  0
   18.2250   60.6660   -9.9580 N   0  0  0  0  0  0  0  0  0  0  0  0
   19.5030   60.8960   -9.6720 N   0  0  0  0  0  0  0  0  0  0  0  0
   19.7710   62.2100   -9.6840 C   0  0  0  0  0  0  0  0  0  0  0  0
   18.5370   62.8080  -10.0070 C   0  0  0  0  0  0  0  0  0  0  0  0
   18.2350   64.1330  -10.1510 C   0  0  0  0  0  0  0  0  0  0  0  0
   16.9440   64.4700  -10.4710 C   0  0  0  0  0  0  0  0  0  0  0  0
   20.9720   62.8990   -9.4360 N   0  0  0  0  0  0  0  0  0  0  0  0
   21.2650   63.4950   -8.1140 C   0  0  0  0  0  0  0  0  0  0  0  0
   21.9500   64.8040   -8.4750 C   0  0  2  0  0  0  0  0  0  0  0  0
   22.6890   64.4540   -9.7490 C   0  0  0  0  0  0  0  0  0  0  0  0
   22.0830   63.2040  -10.2760 C   0  0  0  0  0  0  0  0  0  0  0  0
   22.4570   62.5390  -11.2520 O   0  0  0  0  0  0  0  0  0  0  0  0
   22.8200   65.1200   -7.3310 C   0  0  0  0  0  0  0  0  0  0  0  0
   22.4000   65.7940   -6.3620 O   0  0  0  0  0  0  0  0  0  0  0  0
   24.1570   64.6370   -7.3530 N   0  0  0  0  0  0  0  0  0  0  0  0
   24.5000   63.3270   -6.8440 C   0  0  0  0  0  0  0  0  0  0  0  0
   25.3690   63.3920   -5.6060 C   0  0  0  0  0  0  0  0  0  0  0  0
   24.6550   62.8470   -4.4350 C   0  0  0  0  0  0  0  0  0  0  0  0
   23.4490   63.2750   -4.0290 N   0  0  0  0  0  0  0  0  0  0  0  0
   23.0600   62.5940   -2.9510 C   0  0  0  0  0  0  0  0  0  0  0  0
   24.0420   61.7020   -2.6510 N   0  0  0  0  0  0  0  0  0  0  0  0
   25.0070   61.8650   -3.5610 C   0  0  0  0  0  0  0  0  0  0  0  0
   15.4970   61.4360  -10.6380 H   0  0  0  0  0  0  0  0  0  0  0  0
   20.1770   60.1320   -9.4700 H   0  0  0  0  0  0  0  0  0  0  0  0
   19.0210   64.8750  -10.0120 H   0  0  0  0  0  0  0  0  0  0  0  0
   16.6730   65.5070  -10.5930 H   0  0  0  0  0  0  0  0  0  0  0  0
   20.3370   63.6600   -7.5770 H   0  0  0  0  0  0  0  0  0  0  0  0
   21.9100   62.7930   -7.5750 H   0  0  0  0  0  0  0  0  0  0  0  0
   21.2310   65.6160   -8.6180 H   0  0  0  0  0  0  0  0  0  0  0  0
   22.3970   65.2470  -10.5020 H   0  0  0  0  0  0  0  0  0  0  0  0
   23.7710   64.4520   -9.6770 H   0  0  0  0  0  0  0  0  0  0  0  0
   24.8940   65.2550   -7.7450 H   0  0  0  0  0  0  0  0  0  0  0  0
   23.5780   62.7940   -6.5760 H   0  0  0  0  0  0  0  0  0  0  0  0
   25.0230   62.7260   -7.6190 H   0  0  0  0  0  0  0  0  0  0  0  0
   26.2490   62.7480   -5.7990 H   0  0  0  0  0  0  0  0  0  0  0  0
   25.7910   64.4090   -5.4340 H   0  0  0  0  0  0  0  0  0  0  0  0
   22.1350   62.7270   -2.4170 H   0  0  0  0  0  0  0  0  0  0  0  0
   23.9740   61.0460   -1.8400 H   0  0  0  0  0  0  0  0  0  0  0  0
   25.9140   61.2870   -3.5760 H   0  0  0  0  0  0  0  0  0  0  0  0
  1  2  1  0  0  0  0
  2  3  2  0  0  0  0
  2 10  1  0  0  0  0
  3  4  1  0  0  0  0
  4  8  1  0  0  0  0
  4  5  2  0  0  0  0
  5  6  1  0  0  0  0
  6 28  1  0  0  0  0
  7  6  1  0  0  0  0
  7 11  1  0  0  0  0
  8  7  2  0  0  0  0
  9 29  1  0  0  0  0
  9  8  1  0  0  0  0
 10  9  2  0  0  0  0
 11 12  1  0  0  0  0
 12 31  1  0  0  0  0
 12 32  1  0  0  0  0
 13 33  1  6  0  0  0
 13 12  1  0  0  0  0
 13 17  1  0  0  0  0
 14 35  1  0  0  0  0
 14 13  1  0  0  0  0
 15 14  1  0  0  0  0
 15 11  1  0  0  0  0
 16 15  2  0  0  0  0
 17 18  2  0  0  0  0
 19 17  1  0  0  0  0
 19 20  1  0  0  0  0
 20 37  1  0  0  0  0
 20 21  1  0  0  0  0
 21 40  1  0  0  0  0
 21 22  1  0  0  0  0
 22 23  1  0  0  0  0
 22 26  2  0  0  0  0
 23 24  2  0  0  0  0
 24 25  1  0  0  0  0
 24 41  1  0  0  0  0
 25 42  1  0  0  0  0
 26 25  1  0  0  0  0
 27  3  1  0  0  0  0
 30 10  1  0  0  0  0
 34 14  1  0  0  0  0
 36 19  1  0  0  0  0
 38 20  1  0  0  0  0
 39 21  1  0  0  0  0
 43 26  1  0  0  0  0
M  END
>  <Pose>
1

>  <Score>
-9.69

$$$$
