
 OpenBabel03202210193D

 38 41  0  0  0  0  0  0  0  0999 V2000
   25.7320   63.0650   -2.7020 B   0  0  0  0  0  0  0  0  0  0  0  0
   24.7930   63.2800   -4.3550 C   0  0  0  0  0  0  0  0  0  0  0  0
   23.4470   63.5680   -4.3620 C   0  0  0  0  0  0  0  0  0  0  0  0
   22.8160   63.7130   -5.5190 N   0  0  0  0  0  0  0  0  0  0  0  0
   23.3920   63.6020   -6.7350 C   0  0  0  0  0  0  0  0  0  0  0  0
   24.7280   63.3160   -6.7210 N   0  0  0  0  0  0  0  0  0  0  0  0
   25.4180   63.1580   -5.5780 C   0  0  0  0  0  0  0  0  0  0  0  0
   22.7050   63.7590   -7.9440 N   0  0  0  0  0  0  0  0  0  0  0  0
   22.7300   63.1370   -9.2370 C   0  0  0  0  0  0  0  0  0  0  0  0
   21.2310   63.3650   -9.2430 C   0  0  0  0  0  0  0  0  0  0  0  0
   21.6660   64.6010   -8.4640 C   0  0  0  0  0  0  0  0  0  0  0  0
   20.6200   63.6420  -10.5810 C   0  0  0  0  0  0  0  0  0  0  0  0
   19.2180   63.3260  -10.5020 N   0  0  0  0  0  0  0  0  0  0  0  0
   18.2680   64.3450  -10.4410 N   0  0  0  0  0  0  0  0  0  0  0  0
   16.8740   64.0830  -10.3630 C   0  0  0  0  0  0  0  0  0  0  0  0
   16.0180   65.0850  -10.3070 C   0  0  0  0  0  0  0  0  0  0  0  0
   15.5980   66.5000  -10.2750 C   0  0  0  0  0  0  0  0  0  0  0  0
   14.5580   65.4840  -10.2210 C   0  0  0  0  0  0  0  0  0  0  0  0
   16.3870   62.7180  -10.3430 C   0  0  0  0  0  0  0  0  0  0  0  0
   17.2700   61.7340  -10.4000 C   0  0  0  0  0  0  0  0  0  0  0  0
   18.7220   61.9960  -10.4820 C   0  0  0  0  0  0  0  0  0  0  0  0
   19.5420   61.0420  -10.5350 O   0  0  0  0  0  0  0  0  0  0  0  0
   22.9680   63.6610   -3.3930 H   0  0  0  0  0  0  0  0  0  0  0  0
   26.4770   62.9320   -5.5540 H   0  0  0  0  0  0  0  0  0  0  0  0
   23.1760   63.7720  -10.0540 H   0  0  0  0  0  0  0  0  0  0  0  0
   23.0410   62.0800   -9.2730 H   0  0  0  0  0  0  0  0  0  0  0  0
   20.7260   62.6280   -8.6110 H   0  0  0  0  0  0  0  0  0  0  0  0
   22.0030   65.4000   -9.1600 H   0  0  0  0  0  0  0  0  0  0  0  0
   20.9260   64.9750   -7.7370 H   0  0  0  0  0  0  0  0  0  0  0  0
   21.1040   63.0130  -11.3630 H   0  0  0  0  0  0  0  0  0  0  0  0
   20.7210   64.6840  -10.8780 H   0  0  0  0  0  0  0  0  0  0  0  0
   18.6340   65.3420  -10.4560 H   0  0  0  0  0  0  0  0  0  0  0  0
   15.7800   67.0840   -9.3400 H   0  0  0  0  0  0  0  0  0  0  0  0
   15.6800   67.1220  -11.1810 H   0  0  0  0  0  0  0  0  0  0  0  0
   14.0540   65.2840   -9.2430 H   0  0  0  0  0  0  0  0  0  0  0  0
   13.9570   65.2210  -11.1220 H   0  0  0  0  0  0  0  0  0  0  0  0
   15.3040   62.4940  -10.2820 H   0  0  0  0  0  0  0  0  0  0  0  0
   16.8920   60.7240  -10.3840 H   0  0  0  0  0  0  0  0  0  0  0  0
  2  1  1  0  0  0  0
  3  2  2  0  0  0  0
  3 23  1  0  0  0  0
  4  3  1  0  0  0  0
  5  6  1  0  0  0  0
  5  4  2  0  0  0  0
  6  7  2  0  0  0  0
  7 24  1  0  0  0  0
  7  2  1  0  0  0  0
  8  5  1  0  0  0  0
  9  8  1  0  0  0  0
 10  9  1  0  0  0  0
 10 27  1  0  0  0  0
 10 11  1  0  0  0  0
 11  8  1  0  0  0  0
 11 29  1  0  0  0  0
 12 13  1  0  0  0  0
 12 10  1  0  0  0  0
 13 21  1  0  0  0  0
 13 14  1  0  0  0  0
 14 15  1  0  0  0  0
 15 19  1  0  0  0  0
 15 16  2  0  0  0  0
 16 17  1  0  0  0  0
 16 18  1  0  0  0  0
 17 18  1  0  0  0  0
 17 33  1  0  0  0  0
 18 35  1  0  0  0  0
 19 37  1  0  0  0  0
 20 38  1  0  0  0  0
 20 19  2  0  0  0  0
 21 20  1  0  0  0  0
 22 21  2  0  0  0  0
 25  9  1  0  0  0  0
 26  9  1  0  0  0  0
 28 11  1  0  0  0  0
 30 12  1  0  0  0  0
 31 12  1  0  0  0  0
 32 14  1  0  0  0  0
 34 17  1  0  0  0  0
 36 18  1  0  0  0  0
M  END
>  <Pose>
1

>  <Score>
-6.88

$$$$
