
 OpenBabel03202210193D

 43 46  0  0  0  0  0  0  0  0999 V2000
   24.6910   63.1190   -5.6410 B   0  0  0  0  0  0  0  0  0  0  0  0
   23.4830   64.0480   -6.7930 C   0  0  0  0  0  0  0  0  0  0  0  0
   22.9470   65.2380   -6.4170 C   0  0  0  0  0  0  0  0  0  0  0  0
   22.1040   65.8970   -7.2100 N   0  0  0  0  0  0  0  0  0  0  0  0
   21.7740   65.3820   -8.4030 C   0  0  0  0  0  0  0  0  0  0  0  0
   22.2920   64.1680   -8.8400 C   0  0  0  0  0  0  0  0  0  0  0  0
   23.1640   63.4810   -8.0260 C   0  0  0  0  0  0  0  0  0  0  0  0
   21.8880   63.6910  -10.1410 C   0  0  0  0  0  0  0  0  0  0  0  0
   22.2580   64.2710  -11.1750 O   0  0  0  0  0  0  0  0  0  0  0  0
   21.0220   62.5010  -10.2730 N   0  0  0  0  0  0  0  0  0  0  0  0
   19.9440   62.4380   -9.3870 C   0  0  0  0  0  0  0  0  0  0  0  0
   18.6310   61.9100   -9.6890 C   0  0  0  0  0  0  0  0  0  0  0  0
   18.5710   60.4900   -9.4570 C   0  0  0  0  0  0  0  0  0  0  0  0
   17.4280   59.8190   -9.6960 C   0  0  0  0  0  0  0  0  0  0  0  0
   16.2810   60.4810  -10.1710 C   0  0  0  0  0  0  0  0  0  0  0  0
   16.3210   61.8360  -10.3950 C   0  0  0  0  0  0  0  0  0  0  0  0
   17.5060   62.5470  -10.1480 C   0  0  0  0  0  0  0  0  0  0  0  0
   17.5380   64.0250  -10.2940 C   0  0  0  0  0  0  0  0  0  0  0  0
   16.1560   64.6690  -10.3050 C   0  0  0  0  0  0  0  0  0  0  0  0
   15.2450   63.9620  -11.1750 N   0  0  0  0  0  0  0  0  0  0  0  0
   15.1630   62.5530  -10.9200 C   0  0  0  0  0  0  0  0  0  0  0  0
   14.0690   62.0050  -11.1710 O   0  0  0  0  0  0  0  0  0  0  0  0
   14.4820   64.6220  -12.2130 C   0  0  0  0  0  0  0  0  0  0  0  0
   15.1790   59.7400  -10.3850 O   0  0  0  0  0  0  0  0  0  0  0  0
   17.6660   58.4720   -9.3830 O   0  0  0  0  0  0  0  0  0  0  0  0
   19.0490   58.2620   -9.1860 C   0  0  0  0  0  0  0  0  0  0  0  0
   19.5270   59.5790   -8.9990 O   0  0  0  0  0  0  0  0  0  0  0  0
   23.1770   65.7160   -5.4500 H   0  0  0  0  0  0  0  0  0  0  0  0
   21.0900   65.8910   -9.0770 H   0  0  0  0  0  0  0  0  0  0  0  0
   23.5860   62.5410   -8.3360 H   0  0  0  0  0  0  0  0  0  0  0  0
   21.3770   61.8600  -10.9980 H   0  0  0  0  0  0  0  0  0  0  0  0
   20.3440   61.8840   -8.4340 H   0  0  0  0  0  0  0  0  0  0  0  0
   19.8300   63.4920   -8.8900 H   0  0  0  0  0  0  0  0  0  0  0  0
   18.0370   64.3690  -11.2060 H   0  0  0  0  0  0  0  0  0  0  0  0
   18.0140   64.4980   -9.4010 H   0  0  0  0  0  0  0  0  0  0  0  0
   16.3250   65.7190  -10.6510 H   0  0  0  0  0  0  0  0  0  0  0  0
   15.7930   64.6490   -9.2540 H   0  0  0  0  0  0  0  0  0  0  0  0
   15.1940   64.8150  -13.0530 H   0  0  0  0  0  0  0  0  0  0  0  0
   14.1150   65.5990  -11.8530 H   0  0  0  0  0  0  0  0  0  0  0  0
   13.6990   63.9470  -12.5840 H   0  0  0  0  0  0  0  0  0  0  0  0
   14.4890   59.7980  -11.0530 H   0  0  0  0  0  0  0  0  0  0  0  0
   19.2500   57.6170   -8.3060 H   0  0  0  0  0  0  0  0  0  0  0  0
   19.4420   57.7890  -10.1000 H   0  0  0  0  0  0  0  0  0  0  0  0
  2  3  1  0  0  0  0
  2  1  1  0  0  0  0
  3 28  1  0  0  0  0
  4  3  2  0  0  0  0
  5  4  1  0  0  0  0
  6  5  2  0  0  0  0
  6  7  1  0  0  0  0
  7  2  2  0  0  0  0
  8  6  1  0  0  0  0
  9  8  2  0  0  0  0
 10  8  1  0  0  0  0
 10 11  1  0  0  0  0
 11 33  1  0  0  0  0
 11 32  1  0  0  0  0
 12 13  1  0  0  0  0
 12 11  1  0  0  0  0
 13 27  1  0  0  0  0
 14 13  2  0  0  0  0
 14 25  1  0  0  0  0
 15 14  1  0  0  0  0
 16 15  2  0  0  0  0
 16 17  1  0  0  0  0
 17 12  2  0  0  0  0
 18 17  1  0  0  0  0
 18 35  1  0  0  0  0
 19 18  1  0  0  0  0
 19 37  1  0  0  0  0
 20 21  1  0  0  0  0
 20 19  1  0  0  0  0
 21 16  1  0  0  0  0
 22 21  2  0  0  0  0
 23 39  1  0  0  0  0
 23 20  1  0  0  0  0
 24 15  1  0  0  0  0
 25 26  1  0  0  0  0
 26 27  1  0  0  0  0
 26 42  1  0  0  0  0
 29  5  1  0  0  0  0
 30  7  1  0  0  0  0
 31 10  1  0  0  0  0
 34 18  1  0  0  0  0
 36 19  1  0  0  0  0
 38 23  1  0  0  0  0
 40 23  1  0  0  0  0
 41 24  1  0  0  0  0
 43 26  1  0  0  0  0
M  END
>  <Pose>
1

>  <Score>
-8.00

$$$$
