
 OpenBabel03202210193D

 45 39  0  0  1  0  0  0  0  0999 V2000
   20.9940   65.0660   -9.4550 B   0  0  0  0  0  0  0  0  0  0  0  0
   22.1860   64.5420   -8.0640 C   0  0  0  0  0  0  0  0  0  0  0  0
   22.5270   65.3910   -7.0330 C   0  0  0  0  0  0  0  0  0  0  0  0
   23.3680   65.0290   -6.0480 N   0  0  0  0  0  0  0  0  0  0  0  0
   23.8930   63.7950   -6.0720 C   0  0  2  0  0  0  0  0  0  0  0  0
   23.6030   62.8880   -7.0660 C   0  0  0  0  0  0  0  0  0  0  0  0
   22.7440   63.2830   -8.0570 C   0  0  0  0  0  0  0  0  0  0  0  0
   24.1820   61.5500   -7.0760 C   0  0  0  0  0  0  0  0  0  0  0  0
   23.9960   60.8020   -8.0670 O   0  0  0  0  0  0  0  0  0  0  0  0
   24.9290   61.1480   -5.9790 O   0  0  0  0  0  0  0  0  0  0  0  0
   25.2570   63.7750   -5.0570 N   0  0  0  0  0  0  0  0  0  0  0  0
   24.4370   63.9600   -3.8460 C   0  0  0  0  0  0  0  0  0  0  0  0
   24.2040   65.4220   -3.6470 C   0  0  0  0  0  0  0  0  0  0  0  0
   23.4570   65.9720   -4.8320 C   0  0  0  0  0  0  0  0  0  0  0  0
   23.4560   65.0960   -6.0150 C   0  0  0  0  0  0  0  0  0  0  0  0
   24.3260   64.0340   -6.1280 C   0  0  0  0  0  0  0  0  0  0  0  0
   24.2740   63.2820   -7.2250 N   0  0  0  0  0  0  0  0  0  0  0  0
   23.4120   63.5010   -8.2410 C   0  0  2  0  0  0  0  0  0  0  0  0
   22.5260   64.5550   -8.1620 C   0  0  0  0  0  0  0  0  0  0  0  0
   22.5440   65.3600   -7.0450 C   0  0  0  0  0  0  0  0  0  0  0  0
   21.6280   66.4470   -6.9680 N   0  0  0  0  0  0  0  0  0  0  0  0
   21.6330   64.7840   -9.2110 C   0  0  0  0  0  0  0  0  0  0  0  0
   21.5990   63.9910  -10.3360 C   0  0  0  0  0  0  0  0  0  0  0  0
   22.4880   62.9380  -10.4100 C   0  0  0  0  0  0  0  0  0  0  0  0
   23.3750   62.7100   -9.3690 C   0  0  0  0  0  0  0  0  0  0  0  0
   25.6760   62.3880   -5.0460 C   0  0  0  0  0  0  0  0  0  0  0  0
   22.0760   66.3910   -7.0510 H   0  0  0  0  0  0  0  0  0  0  0  0
   24.5680   63.5120   -5.2760 H   0  0  0  0  0  0  0  0  0  0  0  0
   22.4640   62.6300   -8.8760 H   0  0  0  0  0  0  0  0  0  0  0  0
   26.0530   64.4350   -5.0630 H   0  0  0  0  0  0  0  0  0  0  0  0
   24.9460   63.5530   -2.9560 H   0  0  0  0  0  0  0  0  0  0  0  0
   23.4750   63.4400   -4.0580 H   0  0  0  0  0  0  0  0  0  0  0  0
   23.6570   65.5850   -2.6930 H   0  0  0  0  0  0  0  0  0  0  0  0
   25.2210   65.9040   -3.5450 H   0  0  0  0  0  0  0  0  0  0  0  0
   22.4230   66.2010   -4.4770 H   0  0  0  0  0  0  0  0  0  0  0  0
   23.9090   66.9730   -5.0530 H   0  0  0  0  0  0  0  0  0  0  0  0
   21.6580   67.1450   -7.7430 H   0  0  0  0  0  0  0  0  0  0  0  0
   20.9460   66.5910   -6.2100 H   0  0  0  0  0  0  0  0  0  0  0  0
   20.9420   65.6040   -9.1530 H   0  0  0  0  0  0  0  0  0  0  0  0
   20.8880   64.2050  -11.1310 H   0  0  0  0  0  0  0  0  0  0  0  0
   22.4490   62.3250  -11.3000 H   0  0  0  0  0  0  0  0  0  0  0  0
   24.0600   61.8730   -9.4590 H   0  0  0  0  0  0  0  0  0  0  0  0
   24.7810   61.7590   -5.2300 H   0  0  0  0  0  0  0  0  0  0  0  0
   26.4620   62.2310   -5.8300 H   0  0  0  0  0  0  0  0  0  0  0  0
   26.0700   62.1830   -4.0310 H   0  0  0  0  0  0  0  0  0  0  0  0
  1 22  1  0  0  0  0
  1 39  1  0  0  0  0
  2 20  1  0  0  0  0
  5 16  1  1  0  0  0
  5  4  1  0  0  0  0
  8 10  1  0  0  0  0
  9  8  2  0  0  0  0
 10 43  1  0  0  0  0
 12 13  1  0  0  0  0
 12 31  1  0  0  0  0
 13 34  1  0  0  0  0
 13 33  1  0  0  0  0
 14 35  1  0  0  0  0
 14 13  1  0  0  0  0
 15 14  1  0  0  0  0
 16 15  1  0  0  0  0
 17  6  1  0  0  0  0
 17  5  1  0  0  0  0
 18  7  1  1  0  0  0
 18  6  1  0  0  0  0
 19  7  1  0  0  0  0
 20  4  2  0  0  0  0
 21 38  1  0  0  0  0
 23  1  1  0  0  0  0
 24 23  2  0  0  0  0
 24 25  1  0  0  0  0
 25 29  1  0  0  0  0
 25 18  1  0  0  0  0
 26 45  1  0  0  0  0
 27 21  1  0  0  0  0
 28 11  1  0  0  0  0
 30 11  1  0  0  0  0
 32 12  1  0  0  0  0
 36 14  1  0  0  0  0
 37 21  1  0  0  0  0
 40 23  1  0  0  0  0
 41 24  1  0  0  0  0
 42 25  1  0  0  0  0
 44 26  1  0  0  0  0
M  END
>  <Pose>
1

>  <Score>
-5.75

$$$$
