
 OpenBabel03202210193D

 44 47  0  0  1  0  0  0  0  0999 V2000
   13.8040   61.1120   -9.7560 B   0  0  0  0  0  0  0  0  0  0  0  0
   15.0280   62.4890  -10.2740 C   0  0  0  0  0  0  0  0  0  0  0  0
   16.3820   62.2490  -10.3940 C   0  0  0  0  0  0  0  0  0  0  0  0
   17.2760   63.2370  -10.7700 C   0  0  0  0  0  0  0  0  0  0  0  0
   16.7450   64.4840  -11.0200 C   0  0  0  0  0  0  0  0  0  0  0  0
   15.4010   64.7620  -10.9110 C   0  0  0  0  0  0  0  0  0  0  0  0
   14.5190   63.7620  -10.5340 C   0  0  0  0  0  0  0  0  0  0  0  0
   14.7280   66.5140  -11.2740 B   0  0  0  0  0  0  0  0  0  0  0  0
   18.6350   62.7210  -10.8210 C   0  0  0  0  0  0  0  0  0  0  0  0
   19.7320   63.3080  -11.1220 N   0  0  0  0  0  0  0  0  0  0  0  0
   20.9670   62.6540  -11.1220 N   0  0  0  0  0  0  0  0  0  0  0  0
   22.1100   63.3920  -11.5030 C   0  0  0  0  0  0  0  0  0  0  0  0
   22.3190   63.6600  -12.7050 O   0  0  0  0  0  0  0  0  0  0  0  0
   23.1140   63.8840  -10.5070 C   0  0  0  0  0  0  0  0  0  0  0  0
   23.3360   62.9330   -9.4530 N   0  0  0  0  0  0  0  0  0  0  0  0
   22.9800   63.1840   -8.1000 C   0  0  0  0  0  0  0  0  0  0  0  0
   21.9180   62.6880   -7.6640 O   0  0  0  0  0  0  0  0  0  0  0  0
   23.8060   64.0110   -7.1700 C   0  0  2  0  0  0  0  0  0  0  0  0
   24.7990   63.2550   -6.5420 O   0  0  0  0  0  0  0  0  0  0  0  0
   24.8080   62.9160   -5.1910 C   0  0  0  0  0  0  0  0  0  0  0  0
   24.0110   63.6590   -4.3590 C   0  0  0  0  0  0  0  0  0  0  0  0
   24.0010   63.3430   -3.0010 C   0  0  0  0  0  0  0  0  0  0  0  0
   24.7570   62.3210   -2.4740 C   0  0  0  0  0  0  0  0  0  0  0  0
   25.5480   61.5940   -3.3430 C   0  0  0  0  0  0  0  0  0  0  0  0
   25.5620   61.9010   -4.6830 C   0  0  0  0  0  0  0  0  0  0  0  0
   23.2560   64.6760   -4.8730 O   0  0  0  0  0  0  0  0  0  0  0  0
   22.9770   64.8230   -6.2380 C   0  0  0  0  0  0  0  0  0  0  0  0
   18.5360   61.3060  -10.4450 C   0  0  0  0  0  0  0  0  0  0  0  0
   19.5230   60.5260  -10.3780 O   0  0  0  0  0  0  0  0  0  0  0  0
   17.1630   61.0750  -10.1980 N   0  0  0  0  0  0  0  0  0  0  0  0
   17.4010   65.2850  -11.3150 H   0  0  0  0  0  0  0  0  0  0  0  0
   13.4750   63.9540  -10.4450 H   0  0  0  0  0  0  0  0  0  0  0  0
   20.9780   61.6500  -10.8420 H   0  0  0  0  0  0  0  0  0  0  0  0
   24.0610   64.0080  -11.0760 H   0  0  0  0  0  0  0  0  0  0  0  0
   22.8360   64.8900  -10.1220 H   0  0  0  0  0  0  0  0  0  0  0  0
   23.7750   62.0020   -9.6440 H   0  0  0  0  0  0  0  0  0  0  0  0
   24.3560   64.7230   -7.8530 H   0  0  0  0  0  0  0  0  0  0  0  0
   23.3640   63.9430   -2.3630 H   0  0  0  0  0  0  0  0  0  0  0  0
   24.7190   62.1090   -1.4160 H   0  0  0  0  0  0  0  0  0  0  0  0
   26.1520   60.7760   -2.9140 H   0  0  0  0  0  0  0  0  0  0  0  0
   26.1910   61.3180   -5.3410 H   0  0  0  0  0  0  0  0  0  0  0  0
   23.0600   65.9240   -6.4970 H   0  0  0  0  0  0  0  0  0  0  0  0
   21.9020   64.5660   -6.3810 H   0  0  0  0  0  0  0  0  0  0  0  0
   16.7700   60.1640   -9.9100 H   0  0  0  0  0  0  0  0  0  0  0  0
  2  1  1  0  0  0  0
  3  2  1  0  0  0  0
  3 30  1  0  0  0  0
  4  3  2  0  0  0  0
  5  6  2  0  0  0  0
  5  4  1  0  0  0  0
  6  7  1  0  0  0  0
  7 32  1  0  0  0  0
  7  2  2  0  0  0  0
  8  6  1  0  0  0  0
  9  4  1  0  0  0  0
  9 28  1  0  0  0  0
 10 11  1  0  0  0  0
 10  9  2  0  0  0  0
 11 33  1  0  0  0  0
 12 11  1  0  0  0  0
 12 14  1  0  0  0  0
 13 12  2  0  0  0  0
 14 35  1  0  0  0  0
 14 15  1  0  0  0  0
 15 16  1  0  0  0  0
 16 17  2  0  0  0  0
 16 18  1  0  0  0  0
 18 37  1  6  0  0  0
 18 19  1  0  0  0  0
 18 27  1  0  0  0  0
 19 20  1  0  0  0  0
 20 25  2  0  0  0  0
 20 21  1  0  0  0  0
 21 22  2  0  0  0  0
 22 23  1  0  0  0  0
 22 38  1  0  0  0  0
 23 39  1  0  0  0  0
 24 40  1  0  0  0  0
 24 23  2  0  0  0  0
 25 24  1  0  0  0  0
 26 21  1  0  0  0  0
 27 26  1  0  0  0  0
 28 29  2  0  0  0  0
 28 30  1  0  0  0  0
 30 44  1  0  0  0  0
 31  5  1  0  0  0  0
 34 14  1  0  0  0  0
 36 15  1  0  0  0  0
 41 25  1  0  0  0  0
 42 27  1  0  0  0  0
 43 27  1  0  0  0  0
M  END
>  <Pose>
1

>  <Score>
-8.57

$$$$
