
 OpenBabel03202210193D

 31 34  0  0  0  0  0  0  0  0999 V2000
   19.2470   62.1930  -10.3010 B   0  0  0  0  0  0  0  0  0  0  0  0
   20.7470   63.1700   -9.6040 C   0  0  0  0  0  0  0  0  0  0  0  0
   21.7940   63.4260  -10.4630 C   0  0  0  0  0  0  0  0  0  0  0  0
   22.8660   64.1250   -9.9650 C   0  0  0  0  0  0  0  0  0  0  0  0
   22.8780   64.5500   -8.6350 C   0  0  0  0  0  0  0  0  0  0  0  0
   21.8380   64.2990   -7.7700 C   0  0  0  0  0  0  0  0  0  0  0  0
   20.7520   63.5870   -8.2880 C   0  0  0  0  0  0  0  0  0  0  0  0
   21.8230   64.7410   -6.3520 C   0  0  0  0  0  0  0  0  0  0  0  0
   22.3790   63.7020   -5.5200 N   0  0  0  0  0  0  0  0  0  0  0  0
   23.8100   63.5450   -5.4870 C   0  0  0  0  0  0  0  0  0  0  0  0
   24.6060   64.2900   -6.2670 N   0  0  0  0  0  0  0  0  0  0  0  0
   25.9410   64.1370   -6.2290 C   0  0  0  0  0  0  0  0  0  0  0  0
   26.5390   63.2060   -5.3850 C   0  0  0  0  0  0  0  0  0  0  0  0
   25.7410   62.4690   -4.6120 N   0  0  0  0  0  0  0  0  0  0  0  0
   24.3920   62.6210   -4.6480 C   0  0  0  0  0  0  0  0  0  0  0  0
   23.8600   61.7530   -3.7710 N   0  0  0  0  0  0  0  0  0  0  0  0
   24.8240   61.0610   -3.1860 N   0  0  0  0  0  0  0  0  0  0  0  0
   25.9720   61.5040   -3.7050 C   0  0  0  0  0  0  0  0  0  0  0  0
   23.7750   64.2510  -11.0170 O   0  0  0  0  0  0  0  0  0  0  0  0
   23.4870   63.2010  -11.9540 C   0  0  0  0  0  0  0  0  0  0  0  0
   22.0610   63.1380  -11.8070 O   0  0  0  0  0  0  0  0  0  0  0  0
   23.7360   65.0880   -8.2890 H   0  0  0  0  0  0  0  0  0  0  0  0
   19.9060   63.3580   -7.6620 H   0  0  0  0  0  0  0  0  0  0  0  0
   20.7520   64.8710   -6.0370 H   0  0  0  0  0  0  0  0  0  0  0  0
   22.3430   65.7120   -6.2150 H   0  0  0  0  0  0  0  0  0  0  0  0
   21.7830   63.0750   -4.9530 H   0  0  0  0  0  0  0  0  0  0  0  0
   26.6020   64.7220   -6.8440 H   0  0  0  0  0  0  0  0  0  0  0  0
   27.6040   63.0870   -5.3590 H   0  0  0  0  0  0  0  0  0  0  0  0
   26.9440   61.1110   -3.4080 H   0  0  0  0  0  0  0  0  0  0  0  0
   23.7940   63.4490  -12.9680 H   0  0  0  0  0  0  0  0  0  0  0  0
   23.8960   62.2510  -11.5600 H   0  0  0  0  0  0  0  0  0  0  0  0
  1  2  1  0  0  0  0
  2  7  1  0  0  0  0
  3  4  1  0  0  0  0
  3  2  2  0  0  0  0
  4  5  2  0  0  0  0
  5 22  1  0  0  0  0
  5  6  1  0  0  0  0
  6  8  1  0  0  0  0
  7  6  2  0  0  0  0
  7 23  1  0  0  0  0
  8 25  1  0  0  0  0
  8 24  1  0  0  0  0
  8  9  1  0  0  0  0
  9 10  1  0  0  0  0
  9 26  1  0  0  0  0
 10 15  1  0  0  0  0
 11 12  1  0  0  0  0
 11 10  2  0  0  0  0
 12 13  2  0  0  0  0
 13 28  1  0  0  0  0
 13 14  1  0  0  0  0
 14 18  1  0  0  0  0
 15 14  1  0  0  0  0
 15 16  2  0  0  0  0
 16 17  1  0  0  0  0
 18 29  1  0  0  0  0
 18 17  2  0  0  0  0
 19  4  1  0  0  0  0
 20 21  1  0  0  0  0
 20 31  1  0  0  0  0
 20 19  1  0  0  0  0
 21  3  1  0  0  0  0
 27 12  1  0  0  0  0
 30 20  1  0  0  0  0
M  END
>  <Pose>
1

>  <Score>
-7.46

$$$$
