
 OpenBabel03202210193D

 46 49  0  0  0  0  0  0  0  0999 V2000
   22.9850   63.4020  -10.9090 B   0  0  0  0  0  0  0  0  0  0  0  0
   22.9360   63.4840   -8.9820 C   0  0  0  0  0  0  0  0  0  0  0  0
   21.8720   63.7710   -8.2090 N   0  0  0  0  0  0  0  0  0  0  0  0
   22.2350   63.7300   -6.9170 C   0  0  0  0  0  0  0  0  0  0  0  0
   23.5770   63.4040   -6.8780 C   0  0  0  0  0  0  0  0  0  0  0  0
   23.9690   63.2630   -8.1510 N   0  0  0  0  0  0  0  0  0  0  0  0
   24.1830   63.2970   -5.6780 N   0  0  0  0  0  0  0  0  0  0  0  0
   23.5320   63.4920   -4.5100 C   0  0  0  0  0  0  0  0  0  0  0  0
   24.1390   63.3810   -3.4030 O   0  0  0  0  0  0  0  0  0  0  0  0
   22.2240   63.8100   -4.5110 N   0  0  0  0  0  0  0  0  0  0  0  0
   21.6100   63.9190   -5.7020 C   0  0  0  0  0  0  0  0  0  0  0  0
   20.3970   64.2110   -5.7150 O   0  0  0  0  0  0  0  0  0  0  0  0
   21.5470   64.0140   -3.2450 C   0  0  0  0  0  0  0  0  0  0  0  0
   25.5900   62.9560   -5.6460 C   0  0  0  0  0  0  0  0  0  0  0  0
   20.5820   64.0570   -8.7380 C   0  0  0  0  0  0  0  0  0  0  0  0
   20.0700   63.1590   -9.8050 C   0  0  0  0  0  0  0  0  0  0  0  0
   18.7000   63.2910  -10.1740 N   0  0  0  0  0  0  0  0  0  0  0  0
   17.7960   62.2810  -10.2170 C   0  0  0  0  0  0  0  0  0  0  0  0
   16.5800   62.7750  -10.6220 C   0  0  0  0  0  0  0  0  0  0  0  0
   16.7830   64.0890  -10.8150 N   0  0  0  0  0  0  0  0  0  0  0  0
   18.0580   64.4020  -10.5460 C   0  0  0  0  0  0  0  0  0  0  0  0
   18.8880   66.1380  -10.6630 B   0  0  0  0  0  0  0  0  0  0  0  0
   15.4700   62.0020  -10.7610 N   0  0  0  0  0  0  0  0  0  0  0  0
   15.6050   60.6940  -10.4810 C   0  0  0  0  0  0  0  0  0  0  0  0
   14.5830   59.9660  -10.6060 O   0  0  0  0  0  0  0  0  0  0  0  0
   16.7700   60.1540  -10.0800 N   0  0  0  0  0  0  0  0  0  0  0  0
   17.8520   60.9190   -9.9470 C   0  0  0  0  0  0  0  0  0  0  0  0
   18.9730   60.4770   -9.5760 O   0  0  0  0  0  0  0  0  0  0  0  0
   16.8630   58.7390   -9.7910 C   0  0  0  0  0  0  0  0  0  0  0  0
   14.1960   62.5620  -11.1920 C   0  0  0  0  0  0  0  0  0  0  0  0
   20.6210   64.6010   -3.3890 H   0  0  0  0  0  0  0  0  0  0  0  0
   21.2500   63.0540   -2.7640 H   0  0  0  0  0  0  0  0  0  0  0  0
   22.2520   64.5510   -2.5770 H   0  0  0  0  0  0  0  0  0  0  0  0
   26.0610   63.5470   -4.8150 H   0  0  0  0  0  0  0  0  0  0  0  0
   26.0780   63.2440   -6.5820 H   0  0  0  0  0  0  0  0  0  0  0  0
   25.7050   61.8770   -5.4010 H   0  0  0  0  0  0  0  0  0  0  0  0
   19.7800   64.0720   -7.9400 H   0  0  0  0  0  0  0  0  0  0  0  0
   20.6070   65.1320   -9.0810 H   0  0  0  0  0  0  0  0  0  0  0  0
   20.2870   62.1090   -9.4780 H   0  0  0  0  0  0  0  0  0  0  0  0
   20.6940   63.2530  -10.7480 H   0  0  0  0  0  0  0  0  0  0  0  0
   17.9080   58.3710   -9.8410 H   0  0  0  0  0  0  0  0  0  0  0  0
   16.5050   58.4990   -8.7500 H   0  0  0  0  0  0  0  0  0  0  0  0
   16.2980   58.1280  -10.5410 H   0  0  0  0  0  0  0  0  0  0  0  0
   14.0050   63.5580  -10.7410 H   0  0  0  0  0  0  0  0  0  0  0  0
   14.1240   62.5860  -12.3020 H   0  0  0  0  0  0  0  0  0  0  0  0
   13.4030   61.8930  -10.7950 H   0  0  0  0  0  0  0  0  0  0  0  0
  1  2  1  0  0  0  0
  2  3  1  0  0  0  0
  2  6  2  0  0  0  0
  3  4  1  0  0  0  0
  4  5  2  0  0  0  0
  4 11  1  0  0  0  0
  5  7  1  0  0  0  0
  6  5  1  0  0  0  0
  7 14  1  0  0  0  0
  7  8  1  0  0  0  0
  8  9  2  0  0  0  0
 10  8  1  0  0  0  0
 10 13  1  0  0  0  0
 11 10  1  0  0  0  0
 12 11  2  0  0  0  0
 13 32  1  0  0  0  0
 13 33  1  0  0  0  0
 14 36  1  0  0  0  0
 14 34  1  0  0  0  0
 15  3  1  0  0  0  0
 15 37  1  0  0  0  0
 16 39  1  0  0  0  0
 16 15  1  0  0  0  0
 17 16  1  0  0  0  0
 18 17  1  0  0  0  0
 18 27  1  0  0  0  0
 19 18  2  0  0  0  0
 20 19  1  0  0  0  0
 20 21  2  0  0  0  0
 21 17  1  0  0  0  0
 22 21  1  0  0  0  0
 23 19  1  0  0  0  0
 23 24  1  0  0  0  0
 24 26  1  0  0  0  0
 25 24  2  0  0  0  0
 26 27  1  0  0  0  0
 26 29  1  0  0  0  0
 27 28  2  0  0  0  0
 29 42  1  0  0  0  0
 30 46  1  0  0  0  0
 30 23  1  0  0  0  0
 30 44  1  0  0  0  0
 31 13  1  0  0  0  0
 35 14  1  0  0  0  0
 38 15  1  0  0  0  0
 40 16  1  0  0  0  0
 41 29  1  0  0  0  0
 43 29  1  0  0  0  0
 45 30  1  0  0  0  0
M  END
>  <Pose>
1

>  <Score>
-7.64

$$$$
