
 OpenBabel03202210193D

 43 46  0  0  0  0  0  0  0  0999 V2000
   22.9820   63.2730  -12.4660 B   0  0  0  0  0  0  0  0  0  0  0  0
   22.5300   63.4970  -10.6300 C   0  0  0  0  0  0  0  0  0  0  0  0
   21.2450   63.4200  -10.1680 N   0  0  0  0  0  0  0  0  0  0  0  0
   21.3460   63.6300   -8.8410 C   0  0  0  0  0  0  0  0  0  0  0  0
   22.6650   63.8360   -8.4720 C   0  0  0  0  0  0  0  0  0  0  0  0
   23.3730   63.7450   -9.6180 N   0  0  0  0  0  0  0  0  0  0  0  0
   23.0710   64.0650   -7.2110 N   0  0  0  0  0  0  0  0  0  0  0  0
   22.1130   64.0880   -6.2660 C   0  0  0  0  0  0  0  0  0  0  0  0
   22.4470   64.3020   -5.0530 O   0  0  0  0  0  0  0  0  0  0  0  0
   20.8190   63.8910   -6.5800 N   0  0  0  0  0  0  0  0  0  0  0  0
   20.4050   63.6590   -7.8570 C   0  0  0  0  0  0  0  0  0  0  0  0
   19.2010   63.4770   -8.1320 O   0  0  0  0  0  0  0  0  0  0  0  0
   24.4510   64.2800   -6.8340 C   0  0  0  0  0  0  0  0  0  0  0  0
   20.0840   63.1480  -10.9920 C   0  0  0  0  0  0  0  0  0  0  0  0
   19.4270   61.8310  -10.7000 C   0  0  0  0  0  0  0  0  0  0  0  0
   18.4350   61.8620   -9.5740 C   0  0  0  0  0  0  0  0  0  0  0  0
   17.1040   61.5450  -10.0730 N   0  0  0  0  0  0  0  0  0  0  0  0
   16.2010   62.3740  -10.6450 C   0  0  0  0  0  0  0  0  0  0  0  0
   15.0610   61.6800  -10.9790 C   0  0  0  0  0  0  0  0  0  0  0  0
   15.2870   60.4090  -10.5990 N   0  0  0  0  0  0  0  0  0  0  0  0
   16.5200   60.3360  -10.0530 C   0  0  0  0  0  0  0  0  0  0  0  0
   17.3660   58.7770   -9.3440 B   0  0  0  0  0  0  0  0  0  0  0  0
   13.9890   62.2450  -11.5650 N   0  0  0  0  0  0  0  0  0  0  0  0
   14.0710   63.5730  -11.8240 C   0  0  0  0  0  0  0  0  0  0  0  0
   13.0630   64.1090  -12.3770 O   0  0  0  0  0  0  0  0  0  0  0  0
   15.1710   64.2910  -11.5130 N   0  0  0  0  0  0  0  0  0  0  0  0
   16.2400   63.7140  -10.9260 C   0  0  0  0  0  0  0  0  0  0  0  0
   17.2770   64.3530  -10.6240 O   0  0  0  0  0  0  0  0  0  0  0  0
   12.7990   61.4680  -11.9020 C   0  0  0  0  0  0  0  0  0  0  0  0
   20.0650   63.9060   -5.8610 H   0  0  0  0  0  0  0  0  0  0  0  0
   25.0820   64.5160   -7.7170 H   0  0  0  0  0  0  0  0  0  0  0  0
   24.4920   65.2090   -6.1970 H   0  0  0  0  0  0  0  0  0  0  0  0
   24.8980   63.4070   -6.3190 H   0  0  0  0  0  0  0  0  0  0  0  0
   20.3450   63.2660  -12.0670 H   0  0  0  0  0  0  0  0  0  0  0  0
   19.3200   63.9360  -10.7280 H   0  0  0  0  0  0  0  0  0  0  0  0
   20.1730   61.0170  -10.5640 H   0  0  0  0  0  0  0  0  0  0  0  0
   18.8430   61.5300  -11.6220 H   0  0  0  0  0  0  0  0  0  0  0  0
   18.6810   61.0220   -8.8580 H   0  0  0  0  0  0  0  0  0  0  0  0
   18.4290   62.8170   -9.0500 H   0  0  0  0  0  0  0  0  0  0  0  0
   15.1770   65.3060  -11.7360 H   0  0  0  0  0  0  0  0  0  0  0  0
   13.0220   60.7150  -12.6870 H   0  0  0  0  0  0  0  0  0  0  0  0
   12.4050   60.9260  -11.0200 H   0  0  0  0  0  0  0  0  0  0  0  0
   12.0640   62.1730  -12.3200 H   0  0  0  0  0  0  0  0  0  0  0  0
  1  2  1  0  0  0  0
  2  3  1  0  0  0  0
  2  6  2  0  0  0  0
  3  4  1  0  0  0  0
  4  5  2  0  0  0  0
  4 11  1  0  0  0  0
  5  7  1  0  0  0  0
  6  5  1  0  0  0  0
  7 13  1  0  0  0  0
  7  8  1  0  0  0  0
  8  9  2  0  0  0  0
 10  8  1  0  0  0  0
 10 30  1  0  0  0  0
 11 10  1  0  0  0  0
 12 11  2  0  0  0  0
 13 33  1  0  0  0  0
 13 32  1  0  0  0  0
 14 35  1  0  0  0  0
 14 15  1  0  0  0  0
 14  3  1  0  0  0  0
 15 36  1  0  0  0  0
 15 16  1  0  0  0  0
 16 39  1  0  0  0  0
 16 38  1  0  0  0  0
 17 21  1  0  0  0  0
 17 16  1  0  0  0  0
 18 17  1  0  0  0  0
 19 18  2  0  0  0  0
 19 20  1  0  0  0  0
 20 21  2  0  0  0  0
 21 22  1  0  0  0  0
 23 19  1  0  0  0  0
 24 23  1  0  0  0  0
 24 26  1  0  0  0  0
 25 24  2  0  0  0  0
 26 27  1  0  0  0  0
 27 18  1  0  0  0  0
 27 28  2  0  0  0  0
 29 23  1  0  0  0  0
 29 42  1  0  0  0  0
 31 13  1  0  0  0  0
 34 14  1  0  0  0  0
 37 15  1  0  0  0  0
 40 26  1  0  0  0  0
 41 29  1  0  0  0  0
 43 29  1  0  0  0  0
M  END
>  <Pose>
1

>  <Score>
-7.98

$$$$
