
 OpenBabel03202210193D

 50 54  0  0  1  0  0  0  0  0999 V2000
   24.4630   70.8540   -5.7850 B   0  0  0  0  0  0  0  0  0  0  0  0
   23.2260   69.4180   -6.0730 C   0  0  0  0  0  0  0  0  0  0  0  0
   23.4970   68.1020   -6.1470 N   0  0  0  0  0  0  0  0  0  0  0  0
   22.3870   67.4050   -6.3550 N   0  0  0  0  0  0  0  0  0  0  0  0
   21.3970   68.3150   -6.4130 C   0  0  0  0  0  0  0  0  0  0  0  0
   21.8910   69.5510   -6.2420 N   0  0  0  0  0  0  0  0  0  0  0  0
   22.2600   65.9550   -6.4950 C   0  0  2  0  0  0  0  0  0  0  0  0
   21.9750   65.6170   -7.9410 C   0  0  0  0  0  0  0  0  0  0  0  0
   22.0590   64.1300   -8.1310 C   0  0  2  0  0  0  0  0  0  0  0  0
   20.9000   63.5310   -7.3230 C   0  0  0  0  0  0  0  0  0  0  0  0
   21.0640   63.9270   -5.8780 C   0  0  2  0  0  0  0  0  0  0  0  0
   21.1030   65.4200   -5.6790 C   0  0  0  0  0  0  0  0  0  0  0  0
   22.3170   63.3030   -5.3510 C   0  0  0  0  0  0  0  0  0  0  0  0
   23.4900   63.8370   -6.1420 C   0  0  2  0  0  0  0  0  0  0  0  0
   23.5180   65.3210   -5.9900 C   0  0  0  0  0  0  0  0  0  0  0  0
   23.3130   63.5120   -7.6090 C   0  0  0  0  0  0  0  0  0  0  0  0
   21.8910   63.7550   -9.5510 C   0  0  0  0  0  0  0  0  0  0  0  0
   22.6680   64.2690  -10.3940 O   0  0  0  0  0  0  0  0  0  0  0  0
   20.8770   62.8370   -9.9520 N   0  0  0  0  0  0  0  0  0  0  0  0
   19.5080   63.1660  -10.1330 C   0  0  0  0  0  0  0  0  0  0  0  0
   18.4840   62.2620  -10.0950 C   0  0  0  0  0  0  0  0  0  0  0  0
   17.3370   62.9490  -10.3090 N   0  0  0  0  0  0  0  0  0  0  0  0
   17.6290   64.2220  -10.4730 N   0  0  0  0  0  0  0  0  0  0  0  0
   18.9500   64.4050  -10.3750 C   0  0  0  0  0  0  0  0  0  0  0  0
   15.9830   62.4250  -10.3590 C   0  0  0  0  0  0  0  0  0  0  0  0
   18.4840   60.8300   -9.8780 C   0  0  0  0  0  0  0  0  0  0  0  0
   19.5580   60.1850   -9.7810 O   0  0  0  0  0  0  0  0  0  0  0  0
   17.2980   60.0560   -9.7600 N   0  0  0  0  0  0  0  0  0  0  0  0
   20.3550   68.0870   -6.5730 H   0  0  0  0  0  0  0  0  0  0  0  0
   20.8950   65.8970   -8.1100 H   0  0  0  0  0  0  0  0  0  0  0  0
   22.5570   66.1990   -8.6550 H   0  0  0  0  0  0  0  0  0  0  0  0
   20.9000   62.4390   -7.3800 H   0  0  0  0  0  0  0  0  0  0  0  0
   19.9270   63.9030   -7.6650 H   0  0  0  0  0  0  0  0  0  0  0  0
   20.2040   63.5350   -5.3060 H   0  0  0  0  0  0  0  0  0  0  0  0
   20.1410   65.8990   -5.9330 H   0  0  0  0  0  0  0  0  0  0  0  0
   21.2940   65.6070   -4.6110 H   0  0  0  0  0  0  0  0  0  0  0  0
   22.2500   62.1910   -5.4130 H   0  0  0  0  0  0  0  0  0  0  0  0
   22.4570   63.5470   -4.2830 H   0  0  0  0  0  0  0  0  0  0  0  0
   24.4500   63.4180   -5.8110 H   0  0  0  0  0  0  0  0  0  0  0  0
   23.6290   65.5760   -4.9260 H   0  0  0  0  0  0  0  0  0  0  0  0
   24.3950   65.7060   -6.5490 H   0  0  0  0  0  0  0  0  0  0  0  0
   24.1750   63.9210   -8.1750 H   0  0  0  0  0  0  0  0  0  0  0  0
   23.2150   62.4170   -7.6860 H   0  0  0  0  0  0  0  0  0  0  0  0
   21.1810   61.8600  -10.1180 H   0  0  0  0  0  0  0  0  0  0  0  0
   19.5000   65.3470  -10.4640 H   0  0  0  0  0  0  0  0  0  0  0  0
   15.2710   63.2680  -10.2750 H   0  0  0  0  0  0  0  0  0  0  0  0
   15.8380   61.8450   -9.4060 H   0  0  0  0  0  0  0  0  0  0  0  0
   15.7960   61.8130  -11.2650 H   0  0  0  0  0  0  0  0  0  0  0  0
   17.3760   59.0070   -9.9020 H   0  0  0  0  0  0  0  0  0  0  0  0
   16.3560   60.4370   -9.5480 H   0  0  0  0  0  0  0  0  0  0  0  0
  2  1  1  0  0  0  0
  3  2  2  0  0  0  0
  4  3  1  0  0  0  0
  5  4  1  0  0  0  0
  5  6  2  0  0  0  0
  6  2  1  0  0  0  0
  7  4  1  1  0  0  0
  7 15  1  0  0  0  0
  7 12  1  0  0  0  0
  8  7  1  0  0  0  0
  9 17  1  6  0  0  0
  9  8  1  0  0  0  0
  9 16  1  0  0  0  0
  9 10  1  0  0  0  0
 10 11  1  0  0  0  0
 11 12  1  0  0  0  0
 11 13  1  0  0  0  0
 11 34  1  1  0  0  0
 12 36  1  0  0  0  0
 13 38  1  0  0  0  0
 14 15  1  0  0  0  0
 14 39  1  1  0  0  0
 14 13  1  0  0  0  0
 15 40  1  0  0  0  0
 16 14  1  0  0  0  0
 18 17  2  0  0  0  0
 19 17  1  0  0  0  0
 20 21  2  0  0  0  0
 20 19  1  0  0  0  0
 21 26  1  0  0  0  0
 22 21  1  0  0  0  0
 23 24  2  0  0  0  0
 23 22  1  0  0  0  0
 24 20  1  0  0  0  0
 25 22  1  0  0  0  0
 25 46  1  0  0  0  0
 25 47  1  0  0  0  0
 26 27  2  0  0  0  0
 26 28  1  0  0  0  0
 28 50  1  0  0  0  0
 29  5  1  0  0  0  0
 30  8  1  0  0  0  0
 31  8  1  0  0  0  0
 32 10  1  0  0  0  0
 33 10  1  0  0  0  0
 35 12  1  0  0  0  0
 37 13  1  0  0  0  0
 41 15  1  0  0  0  0
 42 16  1  0  0  0  0
 43 16  1  0  0  0  0
 44 19  1  0  0  0  0
 45 24  1  0  0  0  0
 48 25  1  0  0  0  0
 49 28  1  0  0  0  0
M  END
>  <Pose>
1

>  <Score>
-8.22

$$$$
