
 OpenBabel03202210193D

 53 56  0  0  1  0  0  0  0  0999 V2000
   15.5840   64.3530  -11.2470 B   0  0  0  0  0  0  0  0  0  0  0  0
   15.3380   62.5400  -10.7500 C   0  0  0  0  0  0  0  0  0  0  0  0
   14.1870   61.8530  -10.6340 N   0  0  0  0  0  0  0  0  0  0  0  0
   14.3940   60.6220  -10.2520 N   0  0  0  0  0  0  0  0  0  0  0  0
   15.7230   60.4630  -10.1030 C   0  0  0  0  0  0  0  0  0  0  0  0
   16.4880   59.4250   -9.7260 N   0  0  0  0  0  0  0  0  0  0  0  0
   17.8180   59.5080   -9.6400 C   0  0  0  0  0  0  0  0  0  0  0  0
   18.4150   60.6560   -9.9380 N   0  0  0  0  0  0  0  0  0  0  0  0
   17.7320   61.7580  -10.3280 C   0  0  0  0  0  0  0  0  0  0  0  0
   16.3470   61.6670  -10.4150 C   0  0  0  0  0  0  0  0  0  0  0  0
   18.3940   62.9420  -10.6690 N   0  0  0  0  0  0  0  0  0  0  0  0
   18.9200   63.1600  -11.9860 C   0  0  0  0  0  0  0  0  0  0  0  0
   20.4400   63.0600  -11.8290 C   0  0  0  0  0  0  0  0  0  0  0  0
   20.8350   63.2640  -10.4300 N   0  0  0  0  0  0  0  0  0  0  0  0
   20.0770   64.3840   -9.8670 C   0  0  0  0  0  0  0  0  0  0  0  0
   18.6170   63.9980   -9.7120 C   0  0  0  0  0  0  0  0  0  0  0  0
   22.2420   63.6310  -10.4510 C   0  0  2  0  0  0  0  0  0  0  0  0
   22.8670   62.9400  -11.6940 C   0  0  0  0  0  0  0  0  0  0  0  0
   22.9390   63.1440   -9.2470 C   0  0  0  0  0  0  0  0  0  0  0  0
   23.7610   62.1640   -9.4880 O   0  0  0  0  0  0  0  0  0  0  0  0
   22.8200   63.5900   -7.9210 N   0  0  0  0  0  0  0  0  0  0  0  0
   21.8280   64.4520   -7.3540 C   0  0  0  0  0  0  0  0  0  0  0  0
   22.3820   65.5330   -6.4500 C   0  0  0  0  0  0  0  0  0  0  0  0
   23.5730   65.1230   -5.6540 C   0  0  0  0  0  0  0  0  0  0  0  0
   24.5710   64.3340   -6.4750 C   0  0  0  0  0  0  0  0  0  0  0  0
   23.8410   63.1100   -6.9620 C   0  0  0  0  0  0  0  0  0  0  0  0
   13.4370   59.5520  -10.0060 C   0  0  0  0  0  0  0  0  0  0  0  0
   18.4200   58.6270   -9.3220 H   0  0  0  0  0  0  0  0  0  0  0  0
   18.7800   64.2630  -12.2180 H   0  0  0  0  0  0  0  0  0  0  0  0
   18.5490   62.5070  -12.7710 H   0  0  0  0  0  0  0  0  0  0  0  0
   20.7130   62.0170  -12.0750 H   0  0  0  0  0  0  0  0  0  0  0  0
   20.9850   63.7200  -12.5270 H   0  0  0  0  0  0  0  0  0  0  0  0
   20.4820   64.5720   -8.8620 H   0  0  0  0  0  0  0  0  0  0  0  0
   20.1300   65.2730  -10.5010 H   0  0  0  0  0  0  0  0  0  0  0  0
   18.3730   63.7540   -8.6840 H   0  0  0  0  0  0  0  0  0  0  0  0
   17.9710   64.8640  -10.0470 H   0  0  0  0  0  0  0  0  0  0  0  0
   22.3680   64.7120  -10.5450 H   0  0  0  0  0  0  0  0  0  0  0  0
   22.3060   62.0140  -11.9230 H   0  0  0  0  0  0  0  0  0  0  0  0
   23.9060   62.6450  -11.4750 H   0  0  0  0  0  0  0  0  0  0  0  0
   22.8630   63.6280  -12.5490 H   0  0  0  0  0  0  0  0  0  0  0  0
   21.1890   63.7700   -6.7020 H   0  0  0  0  0  0  0  0  0  0  0  0
   21.1510   64.9280   -8.0530 H   0  0  0  0  0  0  0  0  0  0  0  0
   21.5650   65.7720   -5.7170 H   0  0  0  0  0  0  0  0  0  0  0  0
   22.5470   66.4600   -7.0130 H   0  0  0  0  0  0  0  0  0  0  0  0
   23.2590   64.5320   -4.7760 H   0  0  0  0  0  0  0  0  0  0  0  0
   24.0800   66.0250   -5.2850 H   0  0  0  0  0  0  0  0  0  0  0  0
   24.9220   64.9720   -7.3230 H   0  0  0  0  0  0  0  0  0  0  0  0
   25.4170   64.0740   -5.8180 H   0  0  0  0  0  0  0  0  0  0  0  0
   24.5070   62.3690   -7.4130 H   0  0  0  0  0  0  0  0  0  0  0  0
   23.3190   62.6550   -6.0990 H   0  0  0  0  0  0  0  0  0  0  0  0
   13.4120   59.2740   -8.9210 H   0  0  0  0  0  0  0  0  0  0  0  0
   13.7950   58.6630  -10.5530 H   0  0  0  0  0  0  0  0  0  0  0  0
   12.4140   59.8650  -10.2640 H   0  0  0  0  0  0  0  0  0  0  0  0
  1  2  1  0  0  0  0
  2  3  2  0  0  0  0
  2 10  1  0  0  0  0
  3  4  1  0  0  0  0
  4  5  1  0  0  0  0
  4 27  1  0  0  0  0
  5  6  1  0  0  0  0
  6  7  2  0  0  0  0
  7 28  1  0  0  0  0
  8  7  1  0  0  0  0
  9  8  2  0  0  0  0
 10  9  1  0  0  0  0
 10  5  2  0  0  0  0
 11  9  1  0  0  0  0
 11 16  1  0  0  0  0
 12 13  1  0  0  0  0
 12 11  1  0  0  0  0
 13 14  1  0  0  0  0
 14 15  1  0  0  0  0
 15 16  1  0  0  0  0
 15 33  1  0  0  0  0
 16 35  1  0  0  0  0
 17 37  1  6  0  0  0
 17 14  1  0  0  0  0
 17 19  1  0  0  0  0
 18 39  1  0  0  0  0
 18 17  1  0  0  0  0
 19 21  1  0  0  0  0
 20 19  2  0  0  0  0
 21 22  1  0  0  0  0
 21 26  1  0  0  0  0
 22 41  1  0  0  0  0
 22 23  1  0  0  0  0
 23 43  1  0  0  0  0
 23 24  1  0  0  0  0
 24 46  1  0  0  0  0
 24 45  1  0  0  0  0
 25 48  1  0  0  0  0
 25 24  1  0  0  0  0
 26 25  1  0  0  0  0
 26 50  1  0  0  0  0
 27 51  1  0  0  0  0
 29 12  1  0  0  0  0
 30 12  1  0  0  0  0
 31 13  1  0  0  0  0
 32 13  1  0  0  0  0
 34 15  1  0  0  0  0
 36 16  1  0  0  0  0
 38 18  1  0  0  0  0
 40 18  1  0  0  0  0
 42 22  1  0  0  0  0
 44 23  1  0  0  0  0
 47 25  1  0  0  0  0
 49 26  1  0  0  0  0
 52 27  1  0  0  0  0
 53 27  1  0  0  0  0
M  END
>  <Pose>
1

>  <Score>
-7.47

$$$$
