
 OpenBabel03202210193D

 49 52  0  0  0  0  0  0  0  0999 V2000
   13.9850   62.8940  -10.9210 B   0  0  0  0  0  0  0  0  0  0  0  0
   15.8800   62.9750  -10.5950 C   0  0  0  0  0  0  0  0  0  0  0  0
   16.7210   61.9990  -10.4260 O   0  0  0  0  0  0  0  0  0  0  0  0
   17.9280   62.4140  -10.2280 C   0  0  0  0  0  0  0  0  0  0  0  0
   17.9130   63.8140  -10.2670 C   0  0  0  0  0  0  0  0  0  0  0  0
   16.5960   64.1460  -10.5020 C   0  0  0  0  0  0  0  0  0  0  0  0
   19.0960   61.6010  -10.0060 C   0  0  0  0  0  0  0  0  0  0  0  0
   19.0030   60.3460  -10.1540 O   0  0  0  0  0  0  0  0  0  0  0  0
   20.3600   62.1290   -9.6260 N   0  0  0  0  0  0  0  0  0  0  0  0
   20.5910   63.5310   -9.4700 C   0  0  0  0  0  0  0  0  0  0  0  0
   21.2570   63.8870   -8.1770 C   0  0  0  0  0  0  0  0  0  0  0  0
   22.7210   63.9930   -8.2900 C   0  0  0  0  0  0  0  0  0  0  0  0
   23.2020   64.0070   -9.4710 O   0  0  0  0  0  0  0  0  0  0  0  0
   23.5820   64.0780   -7.1630 N   0  0  0  0  0  0  0  0  0  0  0  0
   23.9300   65.3660   -6.6300 C   0  0  0  0  0  0  0  0  0  0  0  0
   24.1310   65.3790   -5.1460 C   0  0  0  0  0  0  0  0  0  0  0  0
   24.5030   64.0410   -4.5780 C   0  0  0  0  0  0  0  0  0  0  0  0
   25.3030   64.1930   -3.4010 N   0  0  0  0  0  0  0  0  0  0  0  0
   25.7370   62.9680   -2.8210 C   0  0  0  0  0  0  0  0  0  0  0  0
   24.6990   61.8980   -2.7310 C   0  0  0  0  0  0  0  0  0  0  0  0
   23.3820   62.3150   -3.2770 C   0  0  0  0  0  0  0  0  0  0  0  0
   22.1490   61.8540   -3.0660 N   0  0  0  0  0  0  0  0  0  0  0  0
   21.2790   62.5640   -3.7960 C   0  0  0  0  0  0  0  0  0  0  0  0
   21.9520   63.4940   -4.4870 N   0  0  0  0  0  0  0  0  0  0  0  0
   23.2450   63.3470   -4.1730 C   0  0  0  0  0  0  0  0  0  0  0  0
   25.1690   63.1870   -5.6440 C   0  0  0  0  0  0  0  0  0  0  0  0
   24.0650   62.8160   -6.6120 C   0  0  0  0  0  0  0  0  0  0  0  0
   18.7390   64.4760  -10.1410 H   0  0  0  0  0  0  0  0  0  0  0  0
   16.1690   65.1550  -10.6020 H   0  0  0  0  0  0  0  0  0  0  0  0
   21.1350   61.4600   -9.4580 H   0  0  0  0  0  0  0  0  0  0  0  0
   21.1390   63.9680  -10.3250 H   0  0  0  0  0  0  0  0  0  0  0  0
   19.5760   64.0280   -9.4960 H   0  0  0  0  0  0  0  0  0  0  0  0
   20.8790   64.9070   -7.8840 H   0  0  0  0  0  0  0  0  0  0  0  0
   20.9190   63.2000   -7.3760 H   0  0  0  0  0  0  0  0  0  0  0  0
   23.1530   66.0900   -6.9470 H   0  0  0  0  0  0  0  0  0  0  0  0
   24.8800   65.6830   -7.1120 H   0  0  0  0  0  0  0  0  0  0  0  0
   23.1780   65.6960   -4.6750 H   0  0  0  0  0  0  0  0  0  0  0  0
   24.8920   66.1240   -4.8240 H   0  0  0  0  0  0  0  0  0  0  0  0
   26.1420   64.7620   -3.6510 H   0  0  0  0  0  0  0  0  0  0  0  0
   26.0570   63.1990   -1.7630 H   0  0  0  0  0  0  0  0  0  0  0  0
   26.6620   62.5770   -3.3090 H   0  0  0  0  0  0  0  0  0  0  0  0
   25.0450   60.9960   -3.3040 H   0  0  0  0  0  0  0  0  0  0  0  0
   24.5270   61.5350   -1.6960 H   0  0  0  0  0  0  0  0  0  0  0  0
   20.1950   62.4570   -3.8630 H   0  0  0  0  0  0  0  0  0  0  0  0
   21.5390   64.2170   -5.1610 H   0  0  0  0  0  0  0  0  0  0  0  0
   25.6710   62.3050   -5.2170 H   0  0  0  0  0  0  0  0  0  0  0  0
   25.8980   63.8040   -6.2440 H   0  0  0  0  0  0  0  0  0  0  0  0
   23.2130   62.3200   -6.1240 H   0  0  0  0  0  0  0  0  0  0  0  0
   24.5370   62.1950   -7.3980 H   0  0  0  0  0  0  0  0  0  0  0  0
  1  2  1  0  0  0  0
  2  6  2  0  0  0  0
  2  3  1  0  0  0  0
  3  4  1  0  0  0  0
  4  7  1  0  0  0  0
  5  4  2  0  0  0  0
  5 28  1  0  0  0  0
  6  5  1  0  0  0  0
  7  9  1  0  0  0  0
  8  7  2  0  0  0  0
  9 10  1  0  0  0  0
  9 30  1  0  0  0  0
 10 11  1  0  0  0  0
 11 33  1  0  0  0  0
 11 34  1  0  0  0  0
 12 11  1  0  0  0  0
 12 14  1  0  0  0  0
 13 12  2  0  0  0  0
 14 15  1  0  0  0  0
 14 27  1  0  0  0  0
 15 16  1  0  0  0  0
 16 38  1  0  0  0  0
 16 37  1  0  0  0  0
 16 17  1  0  0  0  0
 17 25  1  0  0  0  0
 17 18  1  0  0  0  0
 18 19  1  0  0  0  0
 19 20  1  0  0  0  0
 19 40  1  0  0  0  0
 20 43  1  0  0  0  0
 21 22  1  0  0  0  0
 21 20  1  0  0  0  0
 23 22  2  0  0  0  0
 24 25  1  0  0  0  0
 24 23  1  0  0  0  0
 25 21  2  0  0  0  0
 26 46  1  0  0  0  0
 26 17  1  0  0  0  0
 27 48  1  0  0  0  0
 27 26  1  0  0  0  0
 29  6  1  0  0  0  0
 31 10  1  0  0  0  0
 32 10  1  0  0  0  0
 35 15  1  0  0  0  0
 36 15  1  0  0  0  0
 39 18  1  0  0  0  0
 41 19  1  0  0  0  0
 42 20  1  0  0  0  0
 44 23  1  0  0  0  0
 45 24  1  0  0  0  0
 47 26  1  0  0  0  0
 49 27  1  0  0  0  0
M  END
>  <Pose>
1

>  <Score>
-7.96

$$$$
