
 OpenBabel03202210193D

 49 52  0  0  0  0  0  0  0  0999 V2000
   14.0790   62.2560  -11.1910 B   0  0  0  0  0  0  0  0  0  0  0  0
   15.9150   62.5190  -10.6430 C   0  0  0  0  0  0  0  0  0  0  0  0
   16.8880   61.6840  -10.7030 O   0  0  0  0  0  0  0  0  0  0  0  0
   17.9940   62.1900  -10.2480 C   0  0  0  0  0  0  0  0  0  0  0  0
   17.7170   63.4790   -9.8520 C   0  0  0  0  0  0  0  0  0  0  0  0
   16.3850   63.6910  -10.1040 C   0  0  0  0  0  0  0  0  0  0  0  0
   19.3200   61.5530  -10.1510 C   0  0  0  0  0  0  0  0  0  0  0  0
   19.4000   60.4190   -9.6570 O   0  0  0  0  0  0  0  0  0  0  0  0
   20.4900   62.2070  -10.6080 N   0  0  0  0  0  0  0  0  0  0  0  0
   21.6890   61.4380  -10.8690 C   0  0  0  0  0  0  0  0  0  0  0  0
   22.8480   61.8770  -10.0070 C   0  0  0  0  0  0  0  0  0  0  0  0
   22.6390   63.3080   -9.7280 N   0  0  0  0  0  0  0  0  0  0  0  0
   22.0610   64.0730  -10.7800 C   0  0  0  0  0  0  0  0  0  0  0  0
   20.5860   63.6350  -10.8430 C   0  0  0  0  0  0  0  0  0  0  0  0
   23.0310   63.7730   -8.4500 C   0  0  0  0  0  0  0  0  0  0  0  0
   23.7240   62.9810   -7.5850 N   0  0  0  0  0  0  0  0  0  0  0  0
   24.1010   63.4080   -6.3700 C   0  0  0  0  0  0  0  0  0  0  0  0
   23.7940   64.6600   -5.9670 N   0  0  0  0  0  0  0  0  0  0  0  0
   23.1140   65.5130   -6.7530 C   0  0  0  0  0  0  0  0  0  0  0  0
   22.7360   65.0330   -8.0150 C   0  0  0  0  0  0  0  0  0  0  0  0
   22.7660   66.8970   -6.3300 C   0  0  0  0  0  0  0  0  0  0  0  0
   24.8220   62.5450   -5.5070 N   0  0  0  0  0  0  0  0  0  0  0  0
   26.0510   61.8920   -5.8870 C   0  0  0  0  0  0  0  0  0  0  0  0
   27.1140   62.1630   -4.8650 C   0  0  0  0  0  0  0  0  0  0  0  0
   26.6190   62.7600   -3.7070 O   0  0  0  0  0  0  0  0  0  0  0  0
   25.4900   62.0870   -3.2500 C   0  0  0  0  0  0  0  0  0  0  0  0
   24.3150   62.2940   -4.1750 C   0  0  0  0  0  0  0  0  0  0  0  0
   18.4250   64.2040   -9.4160 H   0  0  0  0  0  0  0  0  0  0  0  0
   15.8330   64.6140   -9.9090 H   0  0  0  0  0  0  0  0  0  0  0  0
   21.9800   61.4650  -11.9380 H   0  0  0  0  0  0  0  0  0  0  0  0
   21.5160   60.3500  -10.6170 H   0  0  0  0  0  0  0  0  0  0  0  0
   22.9150   61.3270   -9.0700 H   0  0  0  0  0  0  0  0  0  0  0  0
   23.8160   61.8480  -10.5860 H   0  0  0  0  0  0  0  0  0  0  0  0
   22.1170   65.1420  -10.5690 H   0  0  0  0  0  0  0  0  0  0  0  0
   22.5370   63.8120  -11.7580 H   0  0  0  0  0  0  0  0  0  0  0  0
   20.0780   64.2540  -10.1100 H   0  0  0  0  0  0  0  0  0  0  0  0
   20.1490   63.8380  -11.8390 H   0  0  0  0  0  0  0  0  0  0  0  0
   22.1920   65.7330   -8.6230 H   0  0  0  0  0  0  0  0  0  0  0  0
   21.6660   67.0290   -6.3110 H   0  0  0  0  0  0  0  0  0  0  0  0
   23.2640   67.1050   -5.3840 H   0  0  0  0  0  0  0  0  0  0  0  0
   23.1810   67.5800   -7.1070 H   0  0  0  0  0  0  0  0  0  0  0  0
   26.4170   62.2780   -6.8770 H   0  0  0  0  0  0  0  0  0  0  0  0
   25.8900   60.7870   -5.9840 H   0  0  0  0  0  0  0  0  0  0  0  0
   27.5940   61.1970   -4.5470 H   0  0  0  0  0  0  0  0  0  0  0  0
   27.9180   62.8050   -5.2790 H   0  0  0  0  0  0  0  0  0  0  0  0
   25.2280   62.4610   -2.2450 H   0  0  0  0  0  0  0  0  0  0  0  0
   25.7240   60.9940   -3.1350 H   0  0  0  0  0  0  0  0  0  0  0  0
   23.6890   63.1370   -3.8010 H   0  0  0  0  0  0  0  0  0  0  0  0
   23.7130   61.3510   -4.1820 H   0  0  0  0  0  0  0  0  0  0  0  0
  1  2  1  0  0  0  0
  2  6  2  0  0  0  0
  3  2  1  0  0  0  0
  3  4  1  0  0  0  0
  4  7  1  0  0  0  0
  4  5  2  0  0  0  0
  5 28  1  0  0  0  0
  6 29  1  0  0  0  0
  6  5  1  0  0  0  0
  7  8  2  0  0  0  0
  9  7  1  0  0  0  0
 10 31  1  0  0  0  0
 10  9  1  0  0  0  0
 10 11  1  0  0  0  0
 11 12  1  0  0  0  0
 11 32  1  0  0  0  0
 12 15  1  0  0  0  0
 13 34  1  0  0  0  0
 13 12  1  0  0  0  0
 14 13  1  0  0  0  0
 14  9  1  0  0  0  0
 14 36  1  0  0  0  0
 15 20  2  0  0  0  0
 15 16  1  0  0  0  0
 16 17  2  0  0  0  0
 17 18  1  0  0  0  0
 17 22  1  0  0  0  0
 19 21  1  0  0  0  0
 19 18  2  0  0  0  0
 20 19  1  0  0  0  0
 21 39  1  0  0  0  0
 21 40  1  0  0  0  0
 22 27  1  0  0  0  0
 23 22  1  0  0  0  0
 23 24  1  0  0  0  0
 24 44  1  0  0  0  0
 24 25  1  0  0  0  0
 25 26  1  0  0  0  0
 26 47  1  0  0  0  0
 26 46  1  0  0  0  0
 27 48  1  0  0  0  0
 27 26  1  0  0  0  0
 30 10  1  0  0  0  0
 33 11  1  0  0  0  0
 35 13  1  0  0  0  0
 37 14  1  0  0  0  0
 38 20  1  0  0  0  0
 41 21  1  0  0  0  0
 42 23  1  0  0  0  0
 43 23  1  0  0  0  0
 45 24  1  0  0  0  0
 49 27  1  0  0  0  0
M  END
>  <Pose>
1

>  <Score>
-7.02

$$$$
