
 OpenBabel03202210193D

 43 46  0  0  0  0  0  0  0  0999 V2000
   27.5750   61.7450   -5.1110 B   0  0  0  0  0  0  0  0  0  0  0  0
   25.8660   62.4920   -4.8420 C   0  0  0  0  0  0  0  0  0  0  0  0
   25.2660   63.3130   -5.8010 C   0  0  0  0  0  0  0  0  0  0  0  0
   24.0220   63.8310   -5.5590 C   0  0  0  0  0  0  0  0  0  0  0  0
   23.4230   63.4980   -4.3410 C   0  0  0  0  0  0  0  0  0  0  0  0
   24.0200   62.7330   -3.4830 O   0  0  0  0  0  0  0  0  0  0  0  0
   25.1870   62.2280   -3.6770 C   0  0  0  0  0  0  0  0  0  0  0  0
   25.6840   61.4970   -2.7820 O   0  0  0  0  0  0  0  0  0  0  0  0
   23.3170   64.6930   -6.4890 C   0  0  0  0  0  0  0  0  0  0  0  0
   23.6470   65.9620   -6.3390 O   0  0  0  0  0  0  0  0  0  0  0  0
   22.3840   64.4310   -7.4810 N   0  0  0  0  0  0  0  0  0  0  0  0
   22.7590   64.6700   -8.8980 C   0  0  0  0  0  0  0  0  0  0  0  0
   22.5520   63.3910   -9.6750 C   0  0  0  0  0  0  0  0  0  0  0  0
   21.2120   62.9730   -9.5530 N   0  0  0  0  0  0  0  0  0  0  0  0
   20.4480   63.8420   -8.7250 C   0  0  0  0  0  0  0  0  0  0  0  0
   21.0680   63.9460   -7.3110 C   0  0  0  0  0  0  0  0  0  0  0  0
   20.5380   62.6450  -10.7690 C   0  0  0  0  0  0  0  0  0  0  0  0
   19.0710   62.5450  -10.6780 C   0  0  0  0  0  0  0  0  0  0  0  0
   18.3870   61.4070  -10.4010 C   0  0  0  0  0  0  0  0  0  0  0  0
   17.0150   61.4120  -10.3410 C   0  0  0  0  0  0  0  0  0  0  0  0
   16.3330   62.5780  -10.5630 C   0  0  0  0  0  0  0  0  0  0  0  0
   17.0050   63.7460  -10.8460 C   0  0  0  0  0  0  0  0  0  0  0  0
   18.3610   63.7110  -10.8990 C   0  0  0  0  0  0  0  0  0  0  0  0
   14.9730   62.3460  -10.4530 O   0  0  0  0  0  0  0  0  0  0  0  0
   14.8050   60.9380  -10.5230 C   0  0  0  0  0  0  0  0  0  0  0  0
   16.0490   60.4270  -10.0840 O   0  0  0  0  0  0  0  0  0  0  0  0
   25.8300   63.4880   -6.6860 H   0  0  0  0  0  0  0  0  0  0  0  0
   22.4130   63.8860   -4.0810 H   0  0  0  0  0  0  0  0  0  0  0  0
   23.8360   64.9600   -8.9130 H   0  0  0  0  0  0  0  0  0  0  0  0
   22.1510   65.4700   -9.3130 H   0  0  0  0  0  0  0  0  0  0  0  0
   22.8210   63.5970  -10.7580 H   0  0  0  0  0  0  0  0  0  0  0  0
   23.3100   62.6180   -9.3830 H   0  0  0  0  0  0  0  0  0  0  0  0
   20.2870   64.8590   -9.0690 H   0  0  0  0  0  0  0  0  0  0  0  0
   19.4420   63.3530   -8.5990 H   0  0  0  0  0  0  0  0  0  0  0  0
   20.9540   62.9570   -6.8450 H   0  0  0  0  0  0  0  0  0  0  0  0
   20.4390   64.6700   -6.7220 H   0  0  0  0  0  0  0  0  0  0  0  0
   20.7480   63.4890  -11.4930 H   0  0  0  0  0  0  0  0  0  0  0  0
   20.9300   61.7430  -11.2690 H   0  0  0  0  0  0  0  0  0  0  0  0
   18.9020   60.4820  -10.2200 H   0  0  0  0  0  0  0  0  0  0  0  0
   16.4590   64.6580  -11.0190 H   0  0  0  0  0  0  0  0  0  0  0  0
   18.8770   64.6410  -11.1220 H   0  0  0  0  0  0  0  0  0  0  0  0
   14.5180   60.5880  -11.5130 H   0  0  0  0  0  0  0  0  0  0  0  0
   14.0460   60.5830   -9.7910 H   0  0  0  0  0  0  0  0  0  0  0  0
  1  2  1  0  0  0  0
  2  7  1  0  0  0  0
  3  4  1  0  0  0  0
  3  2  2  0  0  0  0
  4  5  2  0  0  0  0
  5 28  1  0  0  0  0
  5  6  1  0  0  0  0
  7  6  1  0  0  0  0
  7  8  2  0  0  0  0
  9 10  2  0  0  0  0
  9  4  1  0  0  0  0
 11 16  1  0  0  0  0
 11  9  1  0  0  0  0
 12 11  1  0  0  0  0
 13 14  1  0  0  0  0
 13 32  1  0  0  0  0
 13 12  1  0  0  0  0
 14 15  1  0  0  0  0
 15 34  1  0  0  0  0
 15 16  1  0  0  0  0
 16 35  1  0  0  0  0
 16 36  1  0  0  0  0
 17 18  1  0  0  0  0
 17 14  1  0  0  0  0
 18 19  1  0  0  0  0
 19 20  2  0  0  0  0
 19 39  1  0  0  0  0
 20 26  1  0  0  0  0
 21 24  1  0  0  0  0
 21 20  1  0  0  0  0
 22 21  2  0  0  0  0
 23 22  1  0  0  0  0
 23 18  2  0  0  0  0
 25 24  1  0  0  0  0
 25 26  1  0  0  0  0
 25 43  1  0  0  0  0
 27  3  1  0  0  0  0
 29 12  1  0  0  0  0
 30 12  1  0  0  0  0
 31 13  1  0  0  0  0
 33 15  1  0  0  0  0
 37 17  1  0  0  0  0
 38 17  1  0  0  0  0
 40 22  1  0  0  0  0
 41 23  1  0  0  0  0
 42 25  1  0  0  0  0
M  END
>  <Pose>
1

>  <Score>
-6.82

$$$$
