
 OpenBabel03202210193D

 64 67  0  0  1  0  0  0  0  0999 V2000
   12.6910   64.1360  -11.4650 B   0  0  0  0  0  0  0  0  0  0  0  0
   14.3820   64.5440  -12.2150 C   0  0  0  0  0  0  0  0  0  0  0  0
   15.5310   64.1390  -11.5350 C   0  0  0  0  0  0  0  0  0  0  0  0
   16.7560   64.3900  -12.0010 N   0  0  0  0  0  0  0  0  0  0  0  0
   16.8270   65.0670  -13.1870 C   0  0  0  0  0  0  0  0  0  0  0  0
   17.9620   65.3270  -13.6700 O   0  0  0  0  0  0  0  0  0  0  0  0
   15.7380   65.4680  -13.8640 N   0  0  0  0  0  0  0  0  0  0  0  0
   14.4970   65.2230  -13.4070 C   0  0  0  0  0  0  0  0  0  0  0  0
   13.4640   65.6030  -14.0490 O   0  0  0  0  0  0  0  0  0  0  0  0
   17.9620   64.0190  -11.3780 C   0  0  1  0  0  0  0  0  0  0  0  0
   17.7850   63.6750   -9.8900 C   0  0  1  0  0  0  0  0  0  0  0  0
   19.1950   63.8350   -9.3050 C   0  0  0  0  0  0  0  0  0  0  0  0
   20.1930   63.0420  -10.1010 C   0  0  2  0  0  0  0  0  0  0  0  0
   19.5250   62.2560  -11.0080 O   0  0  0  0  0  0  0  0  0  0  0  0
   18.7960   62.9560  -11.9660 C   0  0  0  0  0  0  0  0  0  0  0  0
   20.8670   62.0980   -9.1150 C   0  0  0  0  0  0  0  0  0  0  0  0
   22.0060   62.8080   -8.4280 C   0  0  0  0  0  0  0  0  0  0  0  0
   21.8130   64.2660   -8.4920 N   0  0  0  0  0  0  0  0  0  0  0  0
   21.9200   64.8410   -9.8000 C   0  0  0  0  0  0  0  0  0  0  0  0
   21.2570   63.8500  -10.7540 C   0  0  0  0  0  0  0  0  0  0  0  0
   21.5090   65.0310   -7.3660 C   0  0  0  0  0  0  0  0  0  0  0  0
   20.7450   64.5650   -6.4340 O   0  0  0  0  0  0  0  0  0  0  0  0
   22.0140   66.3790   -7.1560 C   0  0  1  0  0  0  0  0  0  0  0  0
   21.0420   67.1950   -6.4710 N   0  0  0  0  0  0  0  0  0  0  0  0
   21.0320   68.5740   -6.2960 C   0  0  0  0  0  0  0  0  0  0  0  0
   21.3550   69.1760   -5.2510 O   0  0  0  0  0  0  0  0  0  0  0  0
   20.6060   69.4940   -7.4260 C   0  0  0  0  0  0  0  0  0  0  0  0
   23.3370   66.3750   -6.3280 C   0  0  0  0  0  0  0  0  0  0  0  0
   23.8670   65.0030   -6.2340 C   0  0  0  0  0  0  0  0  0  0  0  0
   24.7350   64.3750   -7.0110 N   0  0  0  0  0  0  0  0  0  0  0  0
   24.9620   63.1040   -6.5790 C   0  0  0  0  0  0  0  0  0  0  0  0
   24.1980   62.9390   -5.4830 N   0  0  0  0  0  0  0  0  0  0  0  0
   23.5220   64.0850   -5.2560 C   0  0  0  0  0  0  0  0  0  0  0  0
   16.9400   64.5560   -9.2510 O   0  0  0  0  0  0  0  0  0  0  0  0
   17.2560   62.2880   -9.7100 C   0  0  0  0  0  0  0  0  0  0  0  0
   15.4640   63.6060  -10.5940 H   0  0  0  0  0  0  0  0  0  0  0  0
   15.8790   65.9850  -14.7720 H   0  0  0  0  0  0  0  0  0  0  0  0
   18.6150   64.9470  -11.3490 H   0  0  0  0  0  0  0  0  0  0  0  0
   19.1400   63.5440   -8.2370 H   0  0  0  0  0  0  0  0  0  0  0  0
   19.4000   64.9210   -9.3480 H   0  0  0  0  0  0  0  0  0  0  0  0
   19.5630   63.3920  -12.6750 H   0  0  0  0  0  0  0  0  0  0  0  0
   18.2890   62.1850  -12.5720 H   0  0  0  0  0  0  0  0  0  0  0  0
   20.1880   61.7230   -8.3450 H   0  0  0  0  0  0  0  0  0  0  0  0
   21.2180   61.2210   -9.7000 H   0  0  0  0  0  0  0  0  0  0  0  0
   22.9890   62.6260   -8.9160 H   0  0  0  0  0  0  0  0  0  0  0  0
   22.0800   62.5360   -7.3660 H   0  0  0  0  0  0  0  0  0  0  0  0
   21.4390   65.8420   -9.9070 H   0  0  0  0  0  0  0  0  0  0  0  0
   22.9890   64.9680  -10.0520 H   0  0  0  0  0  0  0  0  0  0  0  0
   20.9480   64.4360  -11.6240 H   0  0  0  0  0  0  0  0  0  0  0  0
   22.0600   63.1600  -11.0840 H   0  0  0  0  0  0  0  0  0  0  0  0
   22.3460   66.9400   -8.0620 H   0  0  0  0  0  0  0  0  0  0  0  0
   20.2310   66.6480   -6.0460 H   0  0  0  0  0  0  0  0  0  0  0  0
   20.1100   70.3860   -7.0410 H   0  0  0  0  0  0  0  0  0  0  0  0
   21.5070   69.7960   -8.0020 H   0  0  0  0  0  0  0  0  0  0  0  0
   19.9420   68.9440   -8.1100 H   0  0  0  0  0  0  0  0  0  0  0  0
   24.0760   67.0280   -6.7760 H   0  0  0  0  0  0  0  0  0  0  0  0
   23.0890   66.7640   -5.3050 H   0  0  0  0  0  0  0  0  0  0  0  0
   25.6330   62.3830   -7.0430 H   0  0  0  0  0  0  0  0  0  0  0  0
   24.1690   62.0470   -4.9320 H   0  0  0  0  0  0  0  0  0  0  0  0
   22.8350   64.2160   -4.4330 H   0  0  0  0  0  0  0  0  0  0  0  0
   16.7550   64.2230   -8.3360 H   0  0  0  0  0  0  0  0  0  0  0  0
   16.2380   62.2760   -9.2300 H   0  0  0  0  0  0  0  0  0  0  0  0
   17.1290   61.7360  -10.6750 H   0  0  0  0  0  0  0  0  0  0  0  0
   17.9060   61.6780   -9.0800 H   0  0  0  0  0  0  0  0  0  0  0  0
  2  3  2  0  0  0  0
  2  1  1  0  0  0  0
  3 36  1  0  0  0  0
  4  3  1  0  0  0  0
  4 10  1  0  0  0  0
  5  4  1  0  0  0  0
  6  5  2  0  0  0  0
  7  8  1  0  0  0  0
  7  5  1  0  0  0  0
  8  2  1  0  0  0  0
  9  8  2  0  0  0  0
 10 38  1  6  0  0  0
 10 11  1  0  0  0  0
 11 35  1  0  0  0  0
 11 12  1  0  0  0  0
 11 34  1  1  0  0  0
 12 39  1  0  0  0  0
 13 14  1  6  0  0  0
 13 12  1  0  0  0  0
 13 16  1  0  0  0  0
 15 10  1  0  0  0  0
 15 14  1  0  0  0  0
 16 17  1  0  0  0  0
 16 43  1  0  0  0  0
 17 46  1  0  0  0  0
 18 17  1  0  0  0  0
 18 21  1  0  0  0  0
 19 18  1  0  0  0  0
 20 13  1  0  0  0  0
 20 19  1  0  0  0  0
 21 23  1  0  0  0  0
 21 22  2  0  0  0  0
 23 51  1  6  0  0  0
 23 24  1  0  0  0  0
 23 28  1  0  0  0  0
 24 25  1  0  0  0  0
 24 52  1  0  0  0  0
 25 26  2  0  0  0  0
 27 53  1  0  0  0  0
 27 25  1  0  0  0  0
 28 29  1  0  0  0  0
 28 57  1  0  0  0  0
 29 33  2  0  0  0  0
 30 31  2  0  0  0  0
 30 29  1  0  0  0  0
 31 32  1  0  0  0  0
 32 33  1  0  0  0  0
 32 59  1  0  0  0  0
 33 60  1  0  0  0  0
 34 61  1  0  0  0  0
 35 62  1  0  0  0  0
 35 64  1  0  0  0  0
 37  7  1  0  0  0  0
 40 12  1  0  0  0  0
 41 15  1  0  0  0  0
 42 15  1  0  0  0  0
 44 16  1  0  0  0  0
 45 17  1  0  0  0  0
 47 19  1  0  0  0  0
 48 19  1  0  0  0  0
 49 20  1  0  0  0  0
 50 20  1  0  0  0  0
 54 27  1  0  0  0  0
 55 27  1  0  0  0  0
 56 28  1  0  0  0  0
 58 31  1  0  0  0  0
 63 35  1  0  0  0  0
M  END
>  <Pose>
1

>  <Score>
-6.14

$$$$
