
 OpenBabel03202210193D

 37 40  0  0  1  0  0  0  0  0999 V2000
   14.9240   63.7590  -10.7840 B   0  0  0  0  0  0  0  0  0  0  0  0
   16.7410   63.2940  -10.3680 C   0  0  0  0  0  0  0  0  0  0  0  0
   17.7310   64.2490  -10.2970 C   0  0  0  0  0  0  0  0  0  0  0  0
   19.0200   63.9360  -10.0040 N   0  0  0  0  0  0  0  0  0  0  0  0
   20.1300   64.6460   -9.8780 N   0  0  0  0  0  0  0  0  0  0  0  0
   21.1820   63.8740   -9.5720 C   0  0  0  0  0  0  0  0  0  0  0  0
   20.6490   62.5860   -9.5090 C   0  0  0  0  0  0  0  0  0  0  0  0
   19.2970   62.6380   -9.7820 C   0  0  0  0  0  0  0  0  0  0  0  0
   18.3280   61.6870   -9.8480 N   0  0  0  0  0  0  0  0  0  0  0  0
   17.0490   61.9720  -10.1360 C   0  0  0  0  0  0  0  0  0  0  0  0
   22.5880   64.2380   -9.3430 C   0  0  0  0  0  0  0  0  0  0  0  0
   23.3000   64.5860  -10.3230 O   0  0  0  0  0  0  0  0  0  0  0  0
   23.1840   64.2190   -8.0570 N   0  0  0  0  0  0  0  0  0  0  0  0
   23.9520   63.1010   -7.6460 C   0  0  0  0  0  0  0  0  0  0  0  0
   23.9780   62.8950   -6.1780 C   0  0  2  0  0  0  0  0  0  0  0  0
   23.2550   63.8570   -5.3960 N   0  0  2  0  0  0  0  0  0  0  0  0
   23.5490   65.2140   -5.8180 C   0  0  0  0  0  0  0  0  0  0  0  0
   22.9740   65.3640   -7.2140 C   0  0  0  0  0  0  0  0  0  0  0  0
   23.6420   63.5590   -4.0500 C   0  0  0  0  0  0  0  0  0  0  0  0
   25.1010   63.1820   -4.1270 C   0  0  0  0  0  0  0  0  0  0  0  0
   25.3800   62.9910   -5.6010 C   0  0  0  0  0  0  0  0  0  0  0  0
   17.4640   65.2780  -10.4820 H   0  0  0  0  0  0  0  0  0  0  0  0
   21.2520   61.7210   -9.2790 H   0  0  0  0  0  0  0  0  0  0  0  0
   16.2750   61.2000  -10.1870 H   0  0  0  0  0  0  0  0  0  0  0  0
   24.9970   63.2020   -8.0310 H   0  0  0  0  0  0  0  0  0  0  0  0
   23.5700   62.1670   -8.1640 H   0  0  0  0  0  0  0  0  0  0  0  0
   23.5620   61.8940   -5.9190 H   0  0  0  0  0  0  0  0  0  0  0  0
   22.9940   65.8930   -5.1440 H   0  0  0  0  0  0  0  0  0  0  0  0
   24.6120   65.4750   -5.7550 H   0  0  0  0  0  0  0  0  0  0  0  0
   23.4050   66.2540   -7.7160 H   0  0  0  0  0  0  0  0  0  0  0  0
   21.8640   65.5830   -7.1200 H   0  0  0  0  0  0  0  0  0  0  0  0
   23.0350   62.6660   -3.7280 H   0  0  0  0  0  0  0  0  0  0  0  0
   23.4640   64.3940   -3.3450 H   0  0  0  0  0  0  0  0  0  0  0  0
   25.7130   63.9900   -3.6770 H   0  0  0  0  0  0  0  0  0  0  0  0
   25.3110   62.2570   -3.5480 H   0  0  0  0  0  0  0  0  0  0  0  0
   25.9580   62.0820   -5.8160 H   0  0  0  0  0  0  0  0  0  0  0  0
   25.8740   63.8800   -6.0370 H   0  0  0  0  0  0  0  0  0  0  0  0
  1  2  1  0  0  0  0
  2  3  2  0  0  0  0
  2 10  1  0  0  0  0
  3  4  1  0  0  0  0
  4  5  1  0  0  0  0
  4  8  1  0  0  0  0
  5  6  2  0  0  0  0
  6  7  1  0  0  0  0
  6 11  1  0  0  0  0
  7 23  1  0  0  0  0
  8  7  2  0  0  0  0
  9  8  1  0  0  0  0
 10  9  2  0  0  0  0
 11 13  1  0  0  0  0
 12 11  2  0  0  0  0
 13 14  1  0  0  0  0
 13 18  1  0  0  0  0
 14 15  1  0  0  0  0
 15 27  1  1  0  0  0
 15 21  1  0  0  0  0
 15 16  1  0  0  0  0
 16 17  1  6  0  0  0
 16 19  1  0  0  0  0
 17 29  1  0  0  0  0
 17 28  1  0  0  0  0
 18 31  1  0  0  0  0
 18 17  1  0  0  0  0
 19 32  1  0  0  0  0
 19 33  1  0  0  0  0
 20 19  1  0  0  0  0
 20 34  1  0  0  0  0
 20 35  1  0  0  0  0
 21 20  1  0  0  0  0
 22  3  1  0  0  0  0
 24 10  1  0  0  0  0
 25 14  1  0  0  0  0
 26 14  1  0  0  0  0
 30 18  1  0  0  0  0
 36 21  1  0  0  0  0
 37 21  1  0  0  0  0
M  END
>  <Pose>
1

>  <Score>
-6.48

$$$$
