
 OpenBabel03202210193D

 40 43  0  0  0  0  0  0  0  0999 V2000
   13.0730   60.2710  -11.5910 B   0  0  0  0  0  0  0  0  0  0  0  0
   14.5850   61.3060  -11.0240 C   0  0  0  0  0  0  0  0  0  0  0  0
   15.7690   60.7110  -10.6470 C   0  0  0  0  0  0  0  0  0  0  0  0
   16.8540   61.4050  -10.2420 N   0  0  0  0  0  0  0  0  0  0  0  0
   16.8440   62.7490  -10.1790 C   0  0  0  0  0  0  0  0  0  0  0  0
   17.9140   63.4560   -9.7770 N   0  0  0  0  0  0  0  0  0  0  0  0
   19.0810   62.8760   -9.4070 C   0  0  0  0  0  0  0  0  0  0  0  0
   19.1130   61.4990   -9.4630 C   0  0  0  0  0  0  0  0  0  0  0  0
   17.9950   60.7830   -9.8810 C   0  0  0  0  0  0  0  0  0  0  0  0
   18.0130   59.5440   -9.9350 O   0  0  0  0  0  0  0  0  0  0  0  0
   20.2500   63.6840   -8.9710 C   0  0  0  0  0  0  0  0  0  0  0  0
   21.4130   62.9260   -8.7640 O   0  0  0  0  0  0  0  0  0  0  0  0
   22.6860   63.2890   -9.1500 C   0  0  0  0  0  0  0  0  0  0  0  0
   23.2290   62.7050  -10.1090 O   0  0  0  0  0  0  0  0  0  0  0  0
   23.3720   64.3720   -8.4080 C   0  0  0  0  0  0  0  0  0  0  0  0
   23.8030   63.9190   -7.1170 N   0  0  0  0  0  0  0  0  0  0  0  0
   24.9650   63.1690   -6.8430 C   0  0  0  0  0  0  0  0  0  0  0  0
   25.8470   62.7440   -7.6340 O   0  0  0  0  0  0  0  0  0  0  0  0
   25.0210   62.9210   -5.3860 C   0  0  0  0  0  0  0  0  0  0  0  0
   23.9230   63.5110   -4.8230 C   0  0  0  0  0  0  0  0  0  0  0  0
   23.6900   63.4570   -3.4790 C   0  0  0  0  0  0  0  0  0  0  0  0
   24.5900   62.7900   -2.6840 C   0  0  0  0  0  0  0  0  0  0  0  0
   25.7000   62.1940   -3.2510 C   0  0  0  0  0  0  0  0  0  0  0  0
   25.9430   62.2430   -4.6070 C   0  0  0  0  0  0  0  0  0  0  0  0
   23.1450   64.1430   -5.8910 C   0  0  0  0  0  0  0  0  0  0  0  0
   22.0630   64.7790   -5.7070 O   0  0  0  0  0  0  0  0  0  0  0  0
   15.6560   63.3810  -10.5550 C   0  0  0  0  0  0  0  0  0  0  0  0
   14.5440   62.6830  -10.9700 C   0  0  0  0  0  0  0  0  0  0  0  0
   15.8040   59.6200  -10.6890 H   0  0  0  0  0  0  0  0  0  0  0  0
   20.0260   60.9630   -9.1800 H   0  0  0  0  0  0  0  0  0  0  0  0
   20.4850   64.4790   -9.7050 H   0  0  0  0  0  0  0  0  0  0  0  0
   20.0300   64.2200   -8.0050 H   0  0  0  0  0  0  0  0  0  0  0  0
   22.5840   65.1600   -8.2400 H   0  0  0  0  0  0  0  0  0  0  0  0
   24.1980   64.8220   -9.0020 H   0  0  0  0  0  0  0  0  0  0  0  0
   22.8230   63.9250   -3.0480 H   0  0  0  0  0  0  0  0  0  0  0  0
   24.3870   62.7600   -1.6250 H   0  0  0  0  0  0  0  0  0  0  0  0
   26.3720   61.6830   -2.5750 H   0  0  0  0  0  0  0  0  0  0  0  0
   26.8060   61.7800   -5.0560 H   0  0  0  0  0  0  0  0  0  0  0  0
   15.6580   64.4560  -10.5010 H   0  0  0  0  0  0  0  0  0  0  0  0
   13.6260   63.1770  -11.2600 H   0  0  0  0  0  0  0  0  0  0  0  0
  1  2  1  0  0  0  0
  2 28  2  0  0  0  0
  2  3  1  0  0  0  0
  3  4  1  0  0  0  0
  4  5  1  0  0  0  0
  4  9  1  0  0  0  0
  5  6  1  0  0  0  0
  6  7  2  0  0  0  0
  7 11  1  0  0  0  0
  8  7  1  0  0  0  0
  8 30  1  0  0  0  0
  9  8  1  0  0  0  0
 10  9  2  0  0  0  0
 11 12  1  0  0  0  0
 11 32  1  0  0  0  0
 13 12  1  0  0  0  0
 13 15  1  0  0  0  0
 14 13  2  0  0  0  0
 15 33  1  0  0  0  0
 15 16  1  0  0  0  0
 16 17  1  0  0  0  0
 16 25  1  0  0  0  0
 17 19  1  0  0  0  0
 18 17  2  0  0  0  0
 19 20  2  0  0  0  0
 19 24  1  0  0  0  0
 20 21  1  0  0  0  0
 21 35  1  0  0  0  0
 21 22  2  0  0  0  0
 22 36  1  0  0  0  0
 23 22  1  0  0  0  0
 23 37  1  0  0  0  0
 24 23  2  0  0  0  0
 25 26  2  0  0  0  0
 25 20  1  0  0  0  0
 27 39  1  0  0  0  0
 27  5  2  0  0  0  0
 28 27  1  0  0  0  0
 29  3  1  0  0  0  0
 31 11  1  0  0  0  0
 34 15  1  0  0  0  0
 38 24  1  0  0  0  0
 40 28  1  0  0  0  0
M  END
>  <Pose>
1

>  <Score>
-6.06

$$$$
