
 OpenBabel03202210193D

 45 48  0  0  0  0  0  0  0  0999 V2000
   14.1900   62.0750  -11.1410 B   0  0  0  0  0  0  0  0  0  0  0  0
   15.8990   62.7630  -10.6370 C   0  0  0  0  0  0  0  0  0  0  0  0
   16.9140   61.8800  -10.3400 C   0  0  0  0  0  0  0  0  0  0  0  0
   18.1180   62.3600   -9.9840 N   0  0  0  0  0  0  0  0  0  0  0  0
   18.3600   63.6850   -9.9120 C   0  0  0  0  0  0  0  0  0  0  0  0
   19.5810   64.1480   -9.5510 N   0  0  0  0  0  0  0  0  0  0  0  0
   20.5990   63.3240   -9.2520 C   0  0  0  0  0  0  0  0  0  0  0  0
   20.3720   61.9690   -9.3220 C   0  0  0  0  0  0  0  0  0  0  0  0
   19.1110   61.4910   -9.6930 C   0  0  0  0  0  0  0  0  0  0  0  0
   18.8950   60.2700   -9.7590 O   0  0  0  0  0  0  0  0  0  0  0  0
   21.9330   63.8440   -8.8590 C   0  0  0  0  0  0  0  0  0  0  0  0
   22.1080   63.6380   -7.4700 O   0  0  0  0  0  0  0  0  0  0  0  0
   21.3360   64.2610   -6.5190 C   0  0  0  0  0  0  0  0  0  0  0  0
   20.1020   64.3770   -6.7360 O   0  0  0  0  0  0  0  0  0  0  0  0
   21.8570   64.8130   -5.2410 C   0  0  0  0  0  0  0  0  0  0  0  0
   22.6210   63.8550   -4.4990 N   0  0  0  0  0  0  0  0  0  0  0  0
   22.1480   63.0330   -3.4340 C   0  0  0  0  0  0  0  0  0  0  0  0
   20.9640   63.0340   -2.9880 O   0  0  0  0  0  0  0  0  0  0  0  0
   23.2320   62.2300   -2.9800 N   0  0  0  0  0  0  0  0  0  0  0  0
   24.4360   62.6560   -3.6480 C   0  0  0  0  0  0  0  0  0  0  0  0
   25.3890   63.3800   -2.7330 C   0  0  0  0  0  0  0  0  0  0  0  0
   26.6970   63.2840   -3.4550 C   0  0  0  0  0  0  0  0  0  0  0  0
   26.5660   62.2240   -4.5100 C   0  0  0  0  0  0  0  0  0  0  0  0
   25.2640   61.5320   -4.1730 C   0  0  0  0  0  0  0  0  0  0  0  0
   24.0050   63.5640   -4.7080 C   0  0  0  0  0  0  0  0  0  0  0  0
   24.6790   64.0350   -5.6540 O   0  0  0  0  0  0  0  0  0  0  0  0
   17.3470   64.5760  -10.2080 C   0  0  0  0  0  0  0  0  0  0  0  0
   16.0960   64.1340  -10.5760 C   0  0  0  0  0  0  0  0  0  0  0  0
   16.7670   60.8070  -10.3840 H   0  0  0  0  0  0  0  0  0  0  0  0
   21.1750   61.2820   -9.0860 H   0  0  0  0  0  0  0  0  0  0  0  0
   22.7180   63.2840   -9.4020 H   0  0  0  0  0  0  0  0  0  0  0  0
   22.0010   64.9270   -9.1100 H   0  0  0  0  0  0  0  0  0  0  0  0
   22.4290   65.7480   -5.4370 H   0  0  0  0  0  0  0  0  0  0  0  0
   20.9540   65.1310   -4.6560 H   0  0  0  0  0  0  0  0  0  0  0  0
   23.1350   61.4720   -2.2830 H   0  0  0  0  0  0  0  0  0  0  0  0
   25.0570   64.4570   -2.7060 H   0  0  0  0  0  0  0  0  0  0  0  0
   25.4190   62.9830   -1.7170 H   0  0  0  0  0  0  0  0  0  0  0  0
   27.4800   62.9390   -2.7230 H   0  0  0  0  0  0  0  0  0  0  0  0
   26.9900   64.2750   -3.8710 H   0  0  0  0  0  0  0  0  0  0  0  0
   27.4150   61.5040   -4.4820 H   0  0  0  0  0  0  0  0  0  0  0  0
   26.5450   62.6390   -5.5490 H   0  0  0  0  0  0  0  0  0  0  0  0
   24.8330   61.0210   -5.0560 H   0  0  0  0  0  0  0  0  0  0  0  0
   25.4730   60.7890   -3.3670 H   0  0  0  0  0  0  0  0  0  0  0  0
   17.5690   65.6280  -10.1410 H   0  0  0  0  0  0  0  0  0  0  0  0
   15.2910   64.8150  -10.8130 H   0  0  0  0  0  0  0  0  0  0  0  0
  1  2  1  0  0  0  0
  2 28  2  0  0  0  0
  2  3  1  0  0  0  0
  3  4  1  0  0  0  0
  4  5  1  0  0  0  0
  4  9  1  0  0  0  0
  5  6  1  0  0  0  0
  6  7  2  0  0  0  0
  7 11  1  0  0  0  0
  8  7  1  0  0  0  0
  8 30  1  0  0  0  0
  9  8  1  0  0  0  0
 10  9  2  0  0  0  0
 11 12  1  0  0  0  0
 12 13  1  0  0  0  0
 13 15  1  0  0  0  0
 14 13  2  0  0  0  0
 15 34  1  0  0  0  0
 15 16  1  0  0  0  0
 16 17  1  0  0  0  0
 17 18  2  0  0  0  0
 17 19  1  0  0  0  0
 19 35  1  0  0  0  0
 20 19  1  0  0  0  0
 20 21  1  0  0  0  0
 21 36  1  0  0  0  0
 21 37  1  0  0  0  0
 22 21  1  0  0  0  0
 22 38  1  0  0  0  0
 23 40  1  0  0  0  0
 23 24  1  0  0  0  0
 23 22  1  0  0  0  0
 24 20  1  0  0  0  0
 24 43  1  0  0  0  0
 25 16  1  0  0  0  0
 25 20  1  0  0  0  0
 26 25  2  0  0  0  0
 27 44  1  0  0  0  0
 27  5  2  0  0  0  0
 28 27  1  0  0  0  0
 29  3  1  0  0  0  0
 31 11  1  0  0  0  0
 32 11  1  0  0  0  0
 33 15  1  0  0  0  0
 39 22  1  0  0  0  0
 41 23  1  0  0  0  0
 42 24  1  0  0  0  0
 45 28  1  0  0  0  0
M  END
>  <Pose>
1

>  <Score>
-7.85

$$$$
