
 OpenBabel03202210193D

 56 59  0  0  1  0  0  0  0  0999 V2000
   26.0920   71.2490   -3.8930 B   0  0  0  0  0  0  0  0  0  0  0  0
   24.5690   70.2270   -4.4760 C   0  0  0  0  0  0  0  0  0  0  0  0
   23.9490   69.3530   -3.5990 C   0  0  0  0  0  0  0  0  0  0  0  0
   22.8480   68.6110   -4.0150 C   0  0  0  0  0  0  0  0  0  0  0  0
   22.3500   68.7230   -5.2920 C   0  0  0  0  0  0  0  0  0  0  0  0
   22.9910   69.6000   -6.1380 C   0  0  0  0  0  0  0  0  0  0  0  0
   24.0790   70.3440   -5.7550 C   0  0  0  0  0  0  0  0  0  0  0  0
   21.2050   67.9580   -5.7380 C   0  0  0  0  0  0  0  0  0  0  0  0
   20.3500   68.5040   -6.4840 O   0  0  0  0  0  0  0  0  0  0  0  0
   20.9800   66.5380   -5.3580 C   0  0  0  0  0  0  0  0  0  0  0  0
   21.6990   65.6370   -6.2090 N   0  0  0  0  0  0  0  0  0  0  0  0
   21.8690   65.7470   -7.5070 N   0  0  0  0  0  0  0  0  0  0  0  0
   22.5960   64.7220   -7.9750 C   0  0  0  0  0  0  0  0  0  0  0  0
   22.8910   63.9410   -6.9260 N   0  0  0  0  0  0  0  0  0  0  0  0
   22.3270   64.5210   -5.8260 C   0  0  2  0  0  0  0  0  0  0  0  0
   22.3920   64.0130   -4.4570 C   0  0  0  0  0  0  0  0  0  0  0  0
   23.8070   63.8590   -3.9500 C   0  0  0  0  0  0  0  0  0  0  0  0
   24.5160   62.6910   -4.5990 C   0  0  0  0  0  0  0  0  0  0  0  0
   24.8570   62.9330   -6.0370 C   0  0  0  0  0  0  0  0  0  0  0  0
   23.6640   62.7150   -6.9570 C   0  0  0  0  0  0  0  0  0  0  0  0
   23.0090   64.4680   -9.3630 C   0  0  0  0  0  0  0  0  0  0  0  0
   21.9510   64.6870  -10.3010 N   0  0  0  0  0  0  0  0  0  0  0  0
   20.8180   63.8310  -10.4050 C   0  0  0  0  0  0  0  0  0  0  0  0
   19.8250   63.8060   -9.4520 C   0  0  0  0  0  0  0  0  0  0  0  0
   18.7360   62.9810   -9.5650 C   0  0  0  0  0  0  0  0  0  0  0  0
   18.6240   62.1610  -10.6440 C   0  0  0  0  0  0  0  0  0  0  0  0
   19.6160   62.1820  -11.5990 C   0  0  0  0  0  0  0  0  0  0  0  0
   20.7160   63.0090  -11.4960 C   0  0  0  0  0  0  0  0  0  0  0  0
   17.5440   61.3220  -10.7840 O   0  0  0  0  0  0  0  0  0  0  0  0
   17.2470   60.2980   -9.8680 C   0  0  0  0  0  0  0  0  0  0  0  0
   24.3430   69.2730   -2.6040 H   0  0  0  0  0  0  0  0  0  0  0  0
   22.3820   67.9400   -3.3150 H   0  0  0  0  0  0  0  0  0  0  0  0
   22.6080   69.7020   -7.1630 H   0  0  0  0  0  0  0  0  0  0  0  0
   24.5360   71.0110   -6.4590 H   0  0  0  0  0  0  0  0  0  0  0  0
   21.1700   66.3680   -4.2810 H   0  0  0  0  0  0  0  0  0  0  0  0
   19.8790   66.3550   -5.5320 H   0  0  0  0  0  0  0  0  0  0  0  0
   21.8680   64.6830   -3.7520 H   0  0  0  0  0  0  0  0  0  0  0  0
   21.9050   63.0030   -4.3340 H   0  0  0  0  0  0  0  0  0  0  0  0
   24.4060   64.7670   -4.0290 H   0  0  0  0  0  0  0  0  0  0  0  0
   23.7270   63.6140   -2.8620 H   0  0  0  0  0  0  0  0  0  0  0  0
   23.9870   61.7490   -4.4440 H   0  0  0  0  0  0  0  0  0  0  0  0
   25.4960   62.5890   -4.0500 H   0  0  0  0  0  0  0  0  0  0  0  0
   25.2290   63.9420   -6.2060 H   0  0  0  0  0  0  0  0  0  0  0  0
   25.6660   62.2050   -6.3170 H   0  0  0  0  0  0  0  0  0  0  0  0
   23.0770   61.8300   -6.6660 H   0  0  0  0  0  0  0  0  0  0  0  0
   24.0390   62.5530   -7.9790 H   0  0  0  0  0  0  0  0  0  0  0  0
   23.3540   63.4040   -9.4300 H   0  0  0  0  0  0  0  0  0  0  0  0
   23.8750   65.0900   -9.6440 H   0  0  0  0  0  0  0  0  0  0  0  0
   21.9860   65.4940  -10.9410 H   0  0  0  0  0  0  0  0  0  0  0  0
   19.9640   64.4880   -8.6020 H   0  0  0  0  0  0  0  0  0  0  0  0
   17.9860   62.9970   -8.7970 H   0  0  0  0  0  0  0  0  0  0  0  0
   19.5550   61.5350  -12.4780 H   0  0  0  0  0  0  0  0  0  0  0  0
   21.4960   63.0130  -12.2710 H   0  0  0  0  0  0  0  0  0  0  0  0
   16.5150   59.5970  -10.2880 H   0  0  0  0  0  0  0  0  0  0  0  0
   18.1840   59.7510   -9.6360 H   0  0  0  0  0  0  0  0  0  0  0  0
   16.8550   60.7050   -8.9080 H   0  0  0  0  0  0  0  0  0  0  0  0
  2  1  1  0  0  0  0
  2  3  1  0  0  0  0
  3 31  1  0  0  0  0
  4  3  2  0  0  0  0
  4 32  1  0  0  0  0
  5  4  1  0  0  0  0
  6  7  1  0  0  0  0
  6  5  2  0  0  0  0
  7  2  2  0  0  0  0
  8 10  1  0  0  0  0
  8  5  1  0  0  0  0
  9  8  2  0  0  0  0
 10 35  1  0  0  0  0
 11 15  1  0  0  0  0
 11 10  1  0  0  0  0
 12 11  1  0  0  0  0
 13 12  2  0  0  0  0
 13 14  1  0  0  0  0
 15 14  1  6  0  0  0
 15 16  1  0  0  0  0
 16 38  1  0  0  0  0
 16 17  1  0  0  0  0
 16 37  1  0  0  0  0
 17 40  1  0  0  0  0
 18 41  1  0  0  0  0
 18 42  1  0  0  0  0
 18 17  1  0  0  0  0
 19 18  1  0  0  0  0
 20 14  1  0  0  0  0
 20 45  1  0  0  0  0
 20 19  1  0  0  0  0
 21 13  1  0  0  0  0
 22 21  1  0  0  0  0
 23 22  1  0  0  0  0
 23 24  1  0  0  0  0
 24 50  1  0  0  0  0
 25 24  2  0  0  0  0
 25 51  1  0  0  0  0
 26 25  1  0  0  0  0
 27 28  1  0  0  0  0
 27 26  2  0  0  0  0
 28 23  2  0  0  0  0
 29 26  1  0  0  0  0
 29 30  1  0  0  0  0
 30 55  1  0  0  0  0
 30 56  1  0  0  0  0
 33  6  1  0  0  0  0
 34  7  1  0  0  0  0
 36 10  1  0  0  0  0
 39 17  1  0  0  0  0
 43 19  1  0  0  0  0
 44 19  1  0  0  0  0
 46 20  1  0  0  0  0
 47 21  1  0  0  0  0
 48 21  1  0  0  0  0
 49 22  1  0  0  0  0
 52 27  1  0  0  0  0
 53 28  1  0  0  0  0
 54 30  1  0  0  0  0
M  END
>  <Pose>
1

>  <Score>
-5.78

$$$$
