
 OpenBabel03202210193D

 53 56  0  0  1  0  0  0  0  0999 V2000
   23.9350   70.3050   -5.7090 B   0  0  0  0  0  0  0  0  0  0  0  0
   23.2070   68.6070   -6.1260 C   0  0  0  0  0  0  0  0  0  0  0  0
   23.9910   67.4780   -5.9820 C   0  0  0  0  0  0  0  0  0  0  0  0
   23.4770   66.2320   -6.2730 C   0  0  0  0  0  0  0  0  0  0  0  0
   22.1800   66.0920   -6.7100 C   0  0  0  0  0  0  0  0  0  0  0  0
   21.4110   67.2070   -6.8520 C   0  0  0  0  0  0  0  0  0  0  0  0
   21.9120   68.4830   -6.5620 C   0  0  0  0  0  0  0  0  0  0  0  0
   21.5830   64.7680   -7.0450 C   0  0  2  0  0  0  0  0  0  0  0  0
   22.6280   63.7830   -7.3150 N   0  0  0  0  0  4  0  0  0  0  0  0
   22.7980   63.6480   -8.6720 C   0  0  0  0  0  0  0  0  0  0  0  0
   23.3710   62.6890   -9.3540 C   0  0  0  0  0  0  0  0  0  0  0  0
   23.6150   62.4440  -10.8060 C   0  0  0  0  0  0  0  0  0  0  0  0
   22.9360   63.4200  -11.7140 C   0  0  0  0  0  0  0  0  0  0  0  0
   23.3420   64.8420  -11.4090 C   0  0  0  0  0  0  0  0  0  0  0  0
   22.3160   65.4890  -10.5000 C   0  0  0  0  0  0  0  0  0  0  0  0
   22.0970   64.7460   -9.3020 N   0  0  0  0  0  0  0  0  0  0  0  0
   20.9410   65.0370   -8.4440 C   0  0  0  0  0  0  0  0  0  0  0  0
   23.6320   63.6960   -6.3870 C   0  0  0  0  0  0  0  0  0  0  0  0
   24.9160   63.3170   -6.6370 C   0  0  0  0  0  0  0  0  0  0  0  0
   25.8560   63.0780   -5.6200 C   0  0  0  0  0  0  0  0  0  0  0  0
   25.5120   63.2220   -4.3010 C   0  0  0  0  0  0  0  0  0  0  0  0
   24.2070   63.6100   -4.0380 C   0  0  0  0  0  0  0  0  0  0  0  0
   23.2880   63.8420   -5.0390 C   0  0  0  0  0  0  0  0  0  0  0  0
   26.4210   62.9810   -3.2840 O   0  0  0  0  0  0  0  0  0  0  0  0
   26.4950   61.8000   -2.5250 C   0  0  0  0  0  0  0  0  0  0  0  0
   25.3760   60.8890   -3.0670 C   0  0  0  0  0  0  0  0  0  0  0  0
   20.6120   64.3150   -6.2380 O   0  0  0  0  0  0  0  0  0  0  0  0
   25.0110   67.5230   -5.6390 H   0  0  0  0  0  0  0  0  0  0  0  0
   24.1400   65.3730   -6.1350 H   0  0  0  0  0  0  0  0  0  0  0  0
   20.4000   67.1110   -7.1950 H   0  0  0  0  0  0  0  0  0  0  0  0
   21.3090   69.3750   -6.6650 H   0  0  0  0  0  0  0  0  0  0  0  0
   22.0270   62.8440   -7.0810 H   0  0  0  0  0  0  0  0  0  0  0  0
   23.7260   61.8400   -8.7740 H   0  0  0  0  0  0  0  0  0  0  0  0
   23.2680   61.4290  -11.0630 H   0  0  0  0  0  0  0  0  0  0  0  0
   24.7180   62.5630  -10.9800 H   0  0  0  0  0  0  0  0  0  0  0  0
   21.8650   63.2750  -11.7950 H   0  0  0  0  0  0  0  0  0  0  0  0
   23.3520   63.2080  -12.7440 H   0  0  0  0  0  0  0  0  0  0  0  0
   24.3490   64.8780  -11.0100 H   0  0  0  0  0  0  0  0  0  0  0  0
   23.3210   65.4410  -12.3710 H   0  0  0  0  0  0  0  0  0  0  0  0
   22.5090   66.5660  -10.3800 H   0  0  0  0  0  0  0  0  0  0  0  0
   21.3480   65.4270  -11.0860 H   0  0  0  0  0  0  0  0  0  0  0  0
   20.1330   64.3420   -8.6560 H   0  0  0  0  0  0  0  0  0  0  0  0
   20.6820   66.0840   -8.5490 H   0  0  0  0  0  0  0  0  0  0  0  0
   25.2970   63.2090   -7.6330 H   0  0  0  0  0  0  0  0  0  0  0  0
   26.8470   62.7730   -5.8960 H   0  0  0  0  0  0  0  0  0  0  0  0
   23.8550   63.7550   -3.0070 H   0  0  0  0  0  0  0  0  0  0  0  0
   22.2670   64.1250   -4.7380 H   0  0  0  0  0  0  0  0  0  0  0  0
   26.2680   62.0170   -1.4290 H   0  0  0  0  0  0  0  0  0  0  0  0
   27.4850   61.3360   -2.5570 H   0  0  0  0  0  0  0  0  0  0  0  0
   25.9230   60.1030   -3.6180 H   0  0  0  0  0  0  0  0  0  0  0  0
   24.7400   61.4330   -3.7860 H   0  0  0  0  0  0  0  0  0  0  0  0
   24.7210   60.5110   -2.2690 H   0  0  0  0  0  0  0  0  0  0  0  0
   20.6650   63.4320   -5.8440 H   0  0  0  0  0  0  0  0  0  0  0  0
  2  3  1  0  0  0  0
  2  1  1  0  0  0  0
  3 28  1  0  0  0  0
  4 29  1  0  0  0  0
  4  3  2  0  0  0  0
  5  4  1  0  0  0  0
  6  5  2  0  0  0  0
  6  7  1  0  0  0  0
  7  2  2  0  0  0  0
  8  5  1  0  0  0  0
  8 27  1  1  0  0  0
  9 32  1  0  0  0  0
  9  8  1  0  0  0  0
  9 18  1  0  0  0  0
 10  9  1  0  0  0  0
 11 33  1  0  0  0  0
 11 10  2  0  0  0  0
 12 11  1  0  0  0  0
 13 14  1  0  0  0  0
 13 12  1  0  0  0  0
 14 38  1  0  0  0  0
 14 15  1  0  0  0  0
 15 40  1  0  0  0  0
 15 16  1  0  0  0  0
 16 10  1  0  0  0  0
 16 17  1  0  0  0  0
 17  8  1  0  0  0  0
 18 23  1  0  0  0  0
 19 18  2  0  0  0  0
 19 20  1  0  0  0  0
 20 21  2  0  0  0  0
 21 22  1  0  0  0  0
 21 24  1  0  0  0  0
 22 46  1  0  0  0  0
 23 47  1  0  0  0  0
 23 22  2  0  0  0  0
 24 25  1  0  0  0  0
 25 48  1  0  0  0  0
 26 25  1  0  0  0  0
 26 52  1  0  0  0  0
 27 53  1  0  0  0  0
 30  6  1  0  0  0  0
 31  7  1  0  0  0  0
 34 12  1  0  0  0  0
 35 12  1  0  0  0  0
 36 13  1  0  0  0  0
 37 13  1  0  0  0  0
 39 14  1  0  0  0  0
 41 15  1  0  0  0  0
 42 17  1  0  0  0  0
 43 17  1  0  0  0  0
 44 19  1  0  0  0  0
 45 20  1  0  0  0  0
 49 25  1  0  0  0  0
 50 26  1  0  0  0  0
 51 26  1  0  0  0  0
M  END
>  <Pose>
1

>  <Score>
-4.15

$$$$
