
 OpenBabel03202210193D

 50 53  0  0  1  0  0  0  0  0999 V2000
   23.8570   62.9980   -3.4070 B   0  0  0  0  0  0  0  0  0  0  0  0
   23.1910   63.5880   -5.1020 C   0  0  0  0  0  0  0  0  0  0  0  0
   21.9060   64.0720   -5.1900 C   0  0  0  0  0  0  0  0  0  0  0  0
   21.3910   64.5080   -6.4120 C   0  0  0  0  0  0  0  0  0  0  0  0
   22.2370   64.4260   -7.5220 C   0  0  0  0  0  0  0  0  0  0  0  0
   23.5070   63.9480   -7.4460 C   0  0  0  0  0  0  0  0  0  0  0  0
   23.9990   63.5200   -6.2250 C   0  0  0  0  0  0  0  0  0  0  0  0
   21.7340   64.9180   -8.8210 C   0  0  1  0  0  0  0  0  0  0  0  0
   22.0560   63.9750   -9.8830 N   0  0  0  0  0  0  0  0  0  0  0  0
   23.2530   63.1430   -9.8600 C   0  0  0  0  0  0  0  0  0  0  0  0
   23.5400   62.4920  -11.1630 C   0  0  0  0  0  0  0  0  0  0  0  0
   23.5580   63.4400  -12.3340 C   0  0  0  0  0  0  0  0  0  0  0  0
   22.1800   63.3510  -12.9640 C   0  0  0  0  0  0  0  0  0  0  0  0
   21.0910   63.8020  -12.1490 C   0  0  0  0  0  0  0  0  0  0  0  0
   21.0340   64.0720  -10.8250 C   0  0  0  0  0  0  0  0  0  0  0  0
   19.8310   64.4950  -10.2270 N   0  0  0  0  0  4  0  0  0  0  0  0
   20.2490   64.9290   -8.9260 C   0  0  0  0  0  0  0  0  0  0  0  0
   18.9880   63.3440  -10.1720 C   0  0  0  0  0  0  0  0  0  0  0  0
   17.6180   63.4590  -10.3380 C   0  0  0  0  0  0  0  0  0  0  0  0
   16.8800   62.2920  -10.1900 C   0  0  0  0  0  0  0  0  0  0  0  0
   17.4290   61.0580   -9.8950 C   0  0  0  0  0  0  0  0  0  0  0  0
   18.8300   60.9900   -9.7350 C   0  0  0  0  0  0  0  0  0  0  0  0
   19.5340   62.1300   -9.8830 C   0  0  0  0  0  0  0  0  0  0  0  0
   17.0660   64.6680  -10.6310 O   0  0  0  0  0  0  0  0  0  0  0  0
   15.8060   65.0420  -10.1380 C   0  0  0  0  0  0  0  0  0  0  0  0
   22.3310   66.1100   -9.1370 O   0  0  0  0  0  0  0  0  0  0  0  0
   21.2500   64.1380   -4.3200 H   0  0  0  0  0  0  0  0  0  0  0  0
   20.3910   64.8960   -6.4220 H   0  0  0  0  0  0  0  0  0  0  0  0
   24.1630   63.8900   -8.3320 H   0  0  0  0  0  0  0  0  0  0  0  0
   25.0260   63.1310   -6.1710 H   0  0  0  0  0  0  0  0  0  0  0  0
   24.1060   63.8140   -9.6140 H   0  0  0  0  0  0  0  0  0  0  0  0
   23.1350   62.3010   -9.1230 H   0  0  0  0  0  0  0  0  0  0  0  0
   24.5750   62.0520  -11.1120 H   0  0  0  0  0  0  0  0  0  0  0  0
   22.8270   61.6510  -11.2920 H   0  0  0  0  0  0  0  0  0  0  0  0
   24.2790   63.0660  -13.1350 H   0  0  0  0  0  0  0  0  0  0  0  0
   23.7830   64.4840  -12.0400 H   0  0  0  0  0  0  0  0  0  0  0  0
   22.0410   62.2610  -13.2540 H   0  0  0  0  0  0  0  0  0  0  0  0
   22.2200   63.9270  -13.9300 H   0  0  0  0  0  0  0  0  0  0  0  0
   20.1590   63.9640  -12.6670 H   0  0  0  0  0  0  0  0  0  0  0  0
   19.3640   65.2950  -10.7130 H   0  0  0  0  0  0  0  0  0  0  0  0
   19.7540   64.3620   -8.1060 H   0  0  0  0  0  0  0  0  0  0  0  0
   19.9010   65.9660   -8.7800 H   0  0  0  0  0  0  0  0  0  0  0  0
   15.8060   62.4110  -10.3180 H   0  0  0  0  0  0  0  0  0  0  0  0
   16.8470   60.1610   -9.7840 H   0  0  0  0  0  0  0  0  0  0  0  0
   19.2630   60.0450   -9.4980 H   0  0  0  0  0  0  0  0  0  0  0  0
   20.6280   62.0130   -9.7280 H   0  0  0  0  0  0  0  0  0  0  0  0
   15.0790   64.2220  -10.3300 H   0  0  0  0  0  0  0  0  0  0  0  0
   15.8990   65.2150   -9.0570 H   0  0  0  0  0  0  0  0  0  0  0  0
   15.4780   65.9790  -10.6840 H   0  0  0  0  0  0  0  0  0  0  0  0
   22.9400   66.4510   -8.4480 H   0  0  0  0  0  0  0  0  0  0  0  0
  2  1  1  0  0  0  0
  3  2  1  0  0  0  0
  3 27  1  0  0  0  0
  4  3  2  0  0  0  0
  5  6  2  0  0  0  0
  5  4  1  0  0  0  0
  6  7  1  0  0  0  0
  7 30  1  0  0  0  0
  7  2  2  0  0  0  0
  8 26  1  6  0  0  0
  8  5  1  0  0  0  0
  9 10  1  0  0  0  0
  9  8  1  0  0  0  0
 10 31  1  0  0  0  0
 10 32  1  0  0  0  0
 11 33  1  0  0  0  0
 11 10  1  0  0  0  0
 12 36  1  0  0  0  0
 12 11  1  0  0  0  0
 13 12  1  0  0  0  0
 13 14  1  0  0  0  0
 14 15  2  0  0  0  0
 15 16  1  0  0  0  0
 15  9  1  0  0  0  0
 16 18  1  0  0  0  0
 16 17  1  0  0  0  0
 17  8  1  0  0  0  0
 17 42  1  0  0  0  0
 17 41  1  0  0  0  0
 18 23  1  0  0  0  0
 19 20  1  0  0  0  0
 19 18  2  0  0  0  0
 20 21  2  0  0  0  0
 21 44  1  0  0  0  0
 21 22  1  0  0  0  0
 22 45  1  0  0  0  0
 23 22  2  0  0  0  0
 23 46  1  0  0  0  0
 24 19  1  0  0  0  0
 24 25  1  0  0  0  0
 25 48  1  0  0  0  0
 26 50  1  0  0  0  0
 28  4  1  0  0  0  0
 29  6  1  0  0  0  0
 34 11  1  0  0  0  0
 35 12  1  0  0  0  0
 37 13  1  0  0  0  0
 38 13  1  0  0  0  0
 39 14  1  0  0  0  0
 40 16  1  0  0  0  0
 43 20  1  0  0  0  0
 47 25  1  0  0  0  0
 49 25  1  0  0  0  0
M  END
>  <Pose>
1

>  <Score>
-5.29

$$$$
