
 OpenBabel03202210193D

 47 50  0  0  1  0  0  0  0  0999 V2000
   20.7890   62.3970  -13.5710 B   0  0  0  0  0  0  0  0  0  0  0  0
   21.2830   62.9100  -11.7870 C   0  0  0  0  0  0  0  0  0  0  0  0
   22.6050   63.1680  -11.5030 C   0  0  0  0  0  0  0  0  0  0  0  0
   22.9510   63.5460  -10.2060 C   0  0  0  0  0  0  0  0  0  0  0  0
   22.0220   63.6710   -9.1950 C   0  0  0  0  0  0  0  0  0  0  0  0
   20.7020   63.4070   -9.5060 C   0  0  0  0  0  0  0  0  0  0  0  0
   20.3420   63.0320  -10.7870 C   0  0  0  0  0  0  0  0  0  0  0  0
   22.4590   64.0670   -7.8340 C   0  0  2  0  0  0  0  0  0  0  0  0
   22.3380   65.4880   -7.5880 N   0  0  0  0  0  0  0  0  0  0  0  0
   21.5120   66.5870   -8.0410 C   0  0  0  0  0  0  0  0  0  0  0  0
   21.2460   67.5940   -6.9410 C   0  0  0  0  0  0  0  0  0  0  0  0
   22.5570   68.1020   -6.4440 C   0  0  0  0  0  0  0  0  0  0  0  0
   23.4760   66.9970   -6.1010 C   0  0  0  0  0  0  0  0  0  0  0  0
   23.3640   65.7800   -6.6420 C   0  0  0  0  0  0  0  0  0  0  0  0
   24.1850   64.6560   -6.4180 N   0  0  0  0  0  4  0  0  0  0  0  0
   23.9260   63.8320   -7.6170 C   0  0  0  0  0  0  0  0  0  0  0  0
   23.9660   63.9290   -5.2530 C   0  0  0  0  0  0  0  0  0  0  0  0
   24.9570   63.2670   -4.5710 C   0  0  0  0  0  0  0  0  0  0  0  0
   24.6620   62.5400   -3.4160 C   0  0  0  0  0  0  0  0  0  0  0  0
   23.3790   62.4700   -2.9360 C   0  0  0  0  0  0  0  0  0  0  0  0
   22.3780   63.1330   -3.6130 C   0  0  0  0  0  0  0  0  0  0  0  0
   22.6750   63.8470   -4.7470 C   0  0  0  0  0  0  0  0  0  0  0  0
   26.2750   63.2850   -4.9810 O   0  0  0  0  0  0  0  0  0  0  0  0
   27.0800   62.1590   -4.8710 C   0  0  0  0  0  0  0  0  0  0  0  0
   21.7580   63.2990   -6.9100 O   0  0  0  0  0  0  0  0  0  0  0  0
   23.4040   63.0970  -12.2560 H   0  0  0  0  0  0  0  0  0  0  0  0
   23.9980   63.7590   -9.9470 H   0  0  0  0  0  0  0  0  0  0  0  0
   19.9630   63.5050   -8.6980 H   0  0  0  0  0  0  0  0  0  0  0  0
   19.3040   62.8280  -11.0210 H   0  0  0  0  0  0  0  0  0  0  0  0
   22.1010   67.1480   -8.8230 H   0  0  0  0  0  0  0  0  0  0  0  0
   20.5650   66.2210   -8.4920 H   0  0  0  0  0  0  0  0  0  0  0  0
   20.5590   67.2100   -6.1720 H   0  0  0  0  0  0  0  0  0  0  0  0
   20.7190   68.4550   -7.4320 H   0  0  0  0  0  0  0  0  0  0  0  0
   22.4520   68.8400   -5.6220 H   0  0  0  0  0  0  0  0  0  0  0  0
   23.0400   68.6300   -7.3180 H   0  0  0  0  0  0  0  0  0  0  0  0
   24.2590   67.2230   -5.3740 H   0  0  0  0  0  0  0  0  0  0  0  0
   25.2210   64.9070   -6.5410 H   0  0  0  0  0  0  0  0  0  0  0  0
   24.4880   64.2210   -8.4650 H   0  0  0  0  0  0  0  0  0  0  0  0
   24.1600   62.7800   -7.3760 H   0  0  0  0  0  0  0  0  0  0  0  0
   25.4080   62.0010   -2.8490 H   0  0  0  0  0  0  0  0  0  0  0  0
   23.1000   61.9130   -2.0280 H   0  0  0  0  0  0  0  0  0  0  0  0
   21.3730   63.0740   -3.2200 H   0  0  0  0  0  0  0  0  0  0  0  0
   21.8960   64.3560   -5.2680 H   0  0  0  0  0  0  0  0  0  0  0  0
   27.0250   61.6230   -3.8930 H   0  0  0  0  0  0  0  0  0  0  0  0
   28.1870   62.4030   -4.9840 H   0  0  0  0  0  0  0  0  0  0  0  0
   26.8430   61.4240   -5.6830 H   0  0  0  0  0  0  0  0  0  0  0  0
   22.2600   62.4550   -6.8050 H   0  0  0  0  0  0  0  0  0  0  0  0
  1  2  1  0  0  0  0
  2  3  2  0  0  0  0
  2  7  1  0  0  0  0
  3  4  1  0  0  0  0
  4 27  1  0  0  0  0
  4  5  2  0  0  0  0
  5  8  1  0  0  0  0
  6  5  1  0  0  0  0
  6 28  1  0  0  0  0
  7  6  2  0  0  0  0
  8 16  1  0  0  0  0
  8  9  1  0  0  0  0
  8 25  1  1  0  0  0
  9 14  1  0  0  0  0
 10  9  1  0  0  0  0
 10 11  1  0  0  0  0
 11 12  1  0  0  0  0
 11 32  1  0  0  0  0
 12 13  1  0  0  0  0
 12 34  1  0  0  0  0
 13 36  1  0  0  0  0
 14 15  1  0  0  0  0
 14 13  2  0  0  0  0
 15 17  1  0  0  0  0
 16 39  1  0  0  0  0
 16 15  1  0  0  0  0
 17 22  2  0  0  0  0
 17 18  1  0  0  0  0
 18 19  2  0  0  0  0
 19 20  1  0  0  0  0
 19 40  1  0  0  0  0
 20 41  1  0  0  0  0
 21 42  1  0  0  0  0
 21 20  2  0  0  0  0
 22 21  1  0  0  0  0
 23 24  1  0  0  0  0
 23 18  1  0  0  0  0
 24 44  1  0  0  0  0
 25 47  1  0  0  0  0
 26  3  1  0  0  0  0
 29  7  1  0  0  0  0
 30 10  1  0  0  0  0
 31 10  1  0  0  0  0
 33 11  1  0  0  0  0
 35 12  1  0  0  0  0
 37 15  1  0  0  0  0
 38 16  1  0  0  0  0
 43 22  1  0  0  0  0
 45 24  1  0  0  0  0
 46 24  1  0  0  0  0
M  END
>  <Pose>
1

>  <Score>
-5.27

$$$$
