
 OpenBabel03202210193D

 53 56  0  0  1  0  0  0  0  0999 V2000
   14.9380   61.6790  -10.9580 B   0  0  0  0  0  0  0  0  0  0  0  0
   16.7010   62.0800  -10.3230 C   0  0  0  0  0  0  0  0  0  0  0  0
   17.6580   61.0990  -10.1970 C   0  0  0  0  0  0  0  0  0  0  0  0
   18.9260   61.4010   -9.7220 C   0  0  0  0  0  0  0  0  0  0  0  0
   19.2930   62.6940   -9.3530 C   0  0  0  0  0  0  0  0  0  0  0  0
   18.3100   63.6270   -9.4980 C   0  0  0  0  0  0  0  0  0  0  0  0
   17.0300   63.3530   -9.9710 C   0  0  0  0  0  0  0  0  0  0  0  0
   20.5610   62.9220   -8.8630 N   0  0  0  0  0  4  0  0  0  0  0  0
   20.6980   63.7800   -7.7230 C   0  0  1  0  0  0  0  0  0  0  0  0
   20.5430   65.1410   -8.4000 C   0  0  0  0  0  0  0  0  0  0  0  0
   21.2800   64.9650   -9.6620 N   0  0  0  0  0  0  0  0  0  0  0  0
   21.7280   66.0880  -10.4070 C   0  0  0  0  0  0  0  0  0  0  0  0
   22.5170   65.7560  -11.6390 C   0  0  0  0  0  0  0  0  0  0  0  0
   23.5970   64.7700  -11.2880 C   0  0  0  0  0  0  0  0  0  0  0  0
   23.0500   63.4050  -11.7300 C   0  0  0  0  0  0  0  0  0  0  0  0
   22.1470   62.8990  -10.6770 C   0  0  0  0  0  0  0  0  0  0  0  0
   21.3880   63.5520   -9.8270 C   0  0  0  0  0  0  0  0  0  0  0  0
   19.8760   63.5570   -6.6650 O   0  0  0  0  0  0  0  0  0  0  0  0
   22.0880   63.7720   -7.1840 C   0  0  0  0  0  0  0  0  0  0  0  0
   22.5630   64.6170   -6.2270 C   0  0  0  0  0  0  0  0  0  0  0  0
   23.8910   64.5510   -5.7540 C   0  0  0  0  0  0  0  0  0  0  0  0
   24.7690   63.6180   -6.2500 C   0  0  0  0  0  0  0  0  0  0  0  0
   24.3020   62.7610   -7.2170 C   0  0  0  0  0  0  0  0  0  0  0  0
   23.0060   62.8290   -7.6750 C   0  0  0  0  0  0  0  0  0  0  0  0
   26.0920   63.5420   -5.7830 O   0  0  0  0  0  0  0  0  0  0  0  0
   26.4120   62.8860   -4.5790 C   0  0  0  0  0  0  0  0  0  0  0  0
   26.9240   61.4980   -4.8000 C   0  0  0  0  0  0  0  0  0  0  0  0
   17.3570   60.1020  -10.4890 H   0  0  0  0  0  0  0  0  0  0  0  0
   19.6110   60.5720   -9.6540 H   0  0  0  0  0  0  0  0  0  0  0  0
   18.4820   64.6390   -9.2390 H   0  0  0  0  0  0  0  0  0  0  0  0
   16.3000   64.1790  -10.0530 H   0  0  0  0  0  0  0  0  0  0  0  0
   20.9260   61.9620   -8.5710 H   0  0  0  0  0  0  0  0  0  0  0  0
   19.5350   65.4760   -8.5510 H   0  0  0  0  0  0  0  0  0  0  0  0
   21.0810   65.9500   -7.8840 H   0  0  0  0  0  0  0  0  0  0  0  0
   20.8490   66.6880  -10.7230 H   0  0  0  0  0  0  0  0  0  0  0  0
   22.4140   66.7060   -9.7410 H   0  0  0  0  0  0  0  0  0  0  0  0
   21.8090   65.3720  -12.3990 H   0  0  0  0  0  0  0  0  0  0  0  0
   23.0200   66.6860  -11.9640 H   0  0  0  0  0  0  0  0  0  0  0  0
   24.5670   64.9640  -11.7720 H   0  0  0  0  0  0  0  0  0  0  0  0
   23.7780   64.6710  -10.1980 H   0  0  0  0  0  0  0  0  0  0  0  0
   22.4820   63.4840  -12.6780 H   0  0  0  0  0  0  0  0  0  0  0  0
   23.9190   62.7400  -11.9200 H   0  0  0  0  0  0  0  0  0  0  0  0
   22.1550   61.8290  -10.5970 H   0  0  0  0  0  0  0  0  0  0  0  0
   20.2800   63.0150   -5.9630 H   0  0  0  0  0  0  0  0  0  0  0  0
   21.9180   65.3710   -5.8220 H   0  0  0  0  0  0  0  0  0  0  0  0
   24.2020   65.2540   -4.9930 H   0  0  0  0  0  0  0  0  0  0  0  0
   25.0250   62.0210   -7.5910 H   0  0  0  0  0  0  0  0  0  0  0  0
   22.6560   62.1470   -8.4480 H   0  0  0  0  0  0  0  0  0  0  0  0
   25.4390   62.7950   -4.0060 H   0  0  0  0  0  0  0  0  0  0  0  0
   27.0560   63.4920   -3.9000 H   0  0  0  0  0  0  0  0  0  0  0  0
   26.7550   61.1530   -5.8490 H   0  0  0  0  0  0  0  0  0  0  0  0
   26.4940   60.7370   -4.1180 H   0  0  0  0  0  0  0  0  0  0  0  0
   28.0240   61.5030   -4.5450 H   0  0  0  0  0  0  0  0  0  0  0  0
  1  2  1  0  0  0  0
  2  3  2  0  0  0  0
  2  7  1  0  0  0  0
  3  4  1  0  0  0  0
  4 29  1  0  0  0  0
  4  5  2  0  0  0  0
  5  8  1  0  0  0  0
  6  5  1  0  0  0  0
  6 30  1  0  0  0  0
  7  6  2  0  0  0  0
  8 32  1  0  0  0  0
  8  9  1  0  0  0  0
  9 19  1  0  0  0  0
  9 18  1  1  0  0  0
 10 34  1  0  0  0  0
 10  9  1  0  0  0  0
 11 10  1  0  0  0  0
 12 36  1  0  0  0  0
 12 11  1  0  0  0  0
 13 14  1  0  0  0  0
 13 12  1  0  0  0  0
 14 40  1  0  0  0  0
 15 14  1  0  0  0  0
 15 16  1  0  0  0  0
 16 43  1  0  0  0  0
 16 17  2  0  0  0  0
 17 11  1  0  0  0  0
 17  8  1  0  0  0  0
 18 44  1  0  0  0  0
 19 20  1  0  0  0  0
 20 45  1  0  0  0  0
 20 21  2  0  0  0  0
 21 46  1  0  0  0  0
 22 25  1  0  0  0  0
 22 21  1  0  0  0  0
 23 22  2  0  0  0  0
 24 23  1  0  0  0  0
 24 19  2  0  0  0  0
 25 26  1  0  0  0  0
 26 49  1  0  0  0  0
 26 50  1  0  0  0  0
 27 26  1  0  0  0  0
 27 53  1  0  0  0  0
 27 52  1  0  0  0  0
 28  3  1  0  0  0  0
 31  7  1  0  0  0  0
 33 10  1  0  0  0  0
 35 12  1  0  0  0  0
 37 13  1  0  0  0  0
 38 13  1  0  0  0  0
 39 14  1  0  0  0  0
 41 15  1  0  0  0  0
 42 15  1  0  0  0  0
 47 23  1  0  0  0  0
 48 24  1  0  0  0  0
 51 27  1  0  0  0  0
M  END
>  <Pose>
1

>  <Score>
-4.16

$$$$
