
 OpenBabel03202210193D

 55 58  0  0  1  0  0  0  0  0999 V2000
   21.8540   63.0030  -12.4340 B   0  0  0  0  0  0  0  0  0  0  0  0
   21.5990   63.3130  -10.5610 C   0  0  0  0  0  0  0  0  0  0  0  0
   22.6380   63.7210   -9.7470 C   0  0  0  0  0  0  0  0  0  0  0  0
   22.4500   63.9430   -8.4020 C   0  0  0  0  0  0  0  0  0  0  0  0
   21.1790   63.7370   -7.9080 C   0  0  0  0  0  0  0  0  0  0  0  0
   20.1360   63.3290   -8.7160 C   0  0  0  0  0  0  0  0  0  0  0  0
   20.3290   63.1090  -10.0630 C   0  0  0  0  0  0  0  0  0  0  0  0
   19.1960   62.6690  -10.9270 C   0  0  0  0  0  0  0  0  0  0  0  0
   21.0140   63.9680   -6.5440 O   0  0  0  0  0  0  0  0  0  0  0  0
   22.0620   64.0770   -5.6400 C   0  0  0  0  0  0  0  0  0  0  0  0
   23.3180   64.6720   -6.1790 C   0  0  2  0  0  0  0  0  0  0  0  0
   23.6050   64.3740   -7.6080 C   0  0  2  0  0  0  0  0  0  0  0  0
   24.1470   65.5080   -8.2610 O   0  0  0  0  0  0  0  0  0  0  0  0
   24.4030   64.0680   -5.3970 N   0  0  0  0  0  4  0  0  0  0  0  0
   24.8690   62.8380   -5.9370 C   0  0  0  0  0  0  0  0  0  0  0  0
   26.2100   62.5470   -5.2450 C   0  0  0  0  0  0  0  0  0  0  0  0
   25.9220   62.3620   -3.9040 O   0  0  0  0  0  0  0  0  0  0  0  0
   25.3520   63.4790   -3.3050 C   0  0  0  0  0  0  0  0  0  0  0  0
   24.0560   63.8830   -4.0210 C   0  0  0  0  0  0  0  0  0  0  0  0
   23.4050   66.1670   -5.9440 C   0  0  0  0  0  0  0  0  0  0  0  0
   22.8500   66.9520   -7.0030 N   0  0  0  0  0  4  0  0  0  0  0  0
   21.4000   66.9060   -7.0370 C   0  0  0  0  0  0  0  0  0  0  0  0
   20.7950   68.2860   -7.2470 C   0  0  0  0  0  0  0  0  0  0  0  0
   21.0820   69.1510   -6.2050 O   0  0  0  0  0  0  0  0  0  0  0  0
   22.3480   68.9100   -5.6800 C   0  0  0  0  0  0  0  0  0  0  0  0
   23.1970   68.3710   -6.8130 C   0  0  0  0  0  0  0  0  0  0  0  0
   23.6300   63.8710  -10.1870 H   0  0  0  0  0  0  0  0  0  0  0  0
   19.1480   63.1750   -8.3060 H   0  0  0  0  0  0  0  0  0  0  0  0
   19.0520   61.5680  -10.8540 H   0  0  0  0  0  0  0  0  0  0  0  0
   18.2470   63.1460  -10.6350 H   0  0  0  0  0  0  0  0  0  0  0  0
   19.4620   62.8860  -11.9830 H   0  0  0  0  0  0  0  0  0  0  0  0
   21.7000   64.6560   -4.7610 H   0  0  0  0  0  0  0  0  0  0  0  0
   22.2510   63.0390   -5.2320 H   0  0  0  0  0  0  0  0  0  0  0  0
   24.4080   63.5890   -7.7330 H   0  0  0  0  0  0  0  0  0  0  0  0
   23.5700   66.2950   -8.1760 H   0  0  0  0  0  0  0  0  0  0  0  0
   25.1860   64.7590   -5.4350 H   0  0  0  0  0  0  0  0  0  0  0  0
   25.0670   62.8260   -7.0070 H   0  0  0  0  0  0  0  0  0  0  0  0
   24.2030   61.9880   -5.6130 H   0  0  0  0  0  0  0  0  0  0  0  0
   26.5990   61.6180   -5.6580 H   0  0  0  0  0  0  0  0  0  0  0  0
   26.8400   63.4330   -5.4360 H   0  0  0  0  0  0  0  0  0  0  0  0
   25.1740   63.2360   -2.2480 H   0  0  0  0  0  0  0  0  0  0  0  0
   26.0580   64.3220   -3.4620 H   0  0  0  0  0  0  0  0  0  0  0  0
   23.3570   63.0420   -3.8420 H   0  0  0  0  0  0  0  0  0  0  0  0
   23.6950   64.8000   -3.5180 H   0  0  0  0  0  0  0  0  0  0  0  0
   22.9520   66.4830   -4.9920 H   0  0  0  0  0  0  0  0  0  0  0  0
   24.5030   66.4150   -5.8600 H   0  0  0  0  0  0  0  0  0  0  0  0
   23.1810   66.7160   -7.9510 H   0  0  0  0  0  0  0  0  0  0  0  0
   21.0380   66.5630   -6.0420 H   0  0  0  0  0  0  0  0  0  0  0  0
   21.0110   66.2740   -7.8610 H   0  0  0  0  0  0  0  0  0  0  0  0
   21.0090   68.6970   -8.2440 H   0  0  0  0  0  0  0  0  0  0  0  0
   19.6830   68.1230   -7.2180 H   0  0  0  0  0  0  0  0  0  0  0  0
   22.2220   68.1580   -4.8710 H   0  0  0  0  0  0  0  0  0  0  0  0
   22.7390   69.8670   -5.2970 H   0  0  0  0  0  0  0  0  0  0  0  0
   22.9760   68.9150   -7.7540 H   0  0  0  0  0  0  0  0  0  0  0  0
   24.2830   68.4930   -6.6220 H   0  0  0  0  0  0  0  0  0  0  0  0
  1  2  1  0  0  0  0
  2  7  2  0  0  0  0
  2  3  1  0  0  0  0
  3  4  2  0  0  0  0
  4  5  1  0  0  0  0
  4 12  1  0  0  0  0
  5  9  1  0  0  0  0
  6 28  1  0  0  0  0
  6  5  2  0  0  0  0
  7  6  1  0  0  0  0
  8 29  1  0  0  0  0
  8 30  1  0  0  0  0
  8  7  1  0  0  0  0
  9 10  1  0  0  0  0
 10 33  1  0  0  0  0
 10 32  1  0  0  0  0
 11 20  1  1  0  0  0
 11 10  1  0  0  0  0
 11 14  1  0  0  0  0
 12 34  1  6  0  0  0
 12 11  1  0  0  0  0
 13 35  1  0  0  0  0
 13 12  1  0  0  0  0
 14 19  1  0  0  0  0
 15 38  1  0  0  0  0
 15 14  1  0  0  0  0
 15 16  1  0  0  0  0
 16 17  1  0  0  0  0
 17 18  1  0  0  0  0
 18 41  1  0  0  0  0
 19 43  1  0  0  0  0
 19 44  1  0  0  0  0
 19 18  1  0  0  0  0
 20 46  1  0  0  0  0
 20 45  1  0  0  0  0
 21 26  1  0  0  0  0
 21 20  1  0  0  0  0
 22 21  1  0  0  0  0
 22 48  1  0  0  0  0
 23 51  1  0  0  0  0
 23 22  1  0  0  0  0
 23 24  1  0  0  0  0
 24 25  1  0  0  0  0
 25 53  1  0  0  0  0
 25 52  1  0  0  0  0
 26 55  1  0  0  0  0
 26 25  1  0  0  0  0
 27  3  1  0  0  0  0
 31  8  1  0  0  0  0
 36 14  1  0  0  0  0
 37 15  1  0  0  0  0
 39 16  1  0  0  0  0
 40 16  1  0  0  0  0
 42 18  1  0  0  0  0
 47 21  1  0  0  0  0
 49 22  1  0  0  0  0
 50 23  1  0  0  0  0
 54 26  1  0  0  0  0
M  END
>  <Pose>
1

>  <Score>
-7.14

$$$$
