
 OpenBabel03202210193D

 66 69  0  0  1  0  0  0  0  0999 V2000
   18.5870   63.1570   -9.3240 B   0  0  0  0  0  0  0  0  0  0  0  0
   20.4750   63.4210   -9.5250 C   0  0  0  0  0  0  0  0  0  0  0  0
   21.2460   63.7150   -8.4260 C   0  0  0  0  0  0  0  0  0  0  0  0
   22.6320   63.9160   -8.5300 C   0  0  0  0  0  0  0  0  0  0  0  0
   23.1760   63.8030   -9.7900 C   0  0  0  0  0  0  0  0  0  0  0  0
   22.4260   63.5110  -10.9090 C   0  0  0  0  0  0  0  0  0  0  0  0
   21.0700   63.3180  -10.7820 C   0  0  0  0  0  0  0  0  0  0  0  0
   20.1770   62.9980  -11.9260 C   0  0  0  0  0  0  0  0  0  0  0  0
   23.2070   63.3610  -12.6430 B   0  0  0  0  0  0  0  0  0  0  0  0
   23.4060   64.2260   -7.3450 C   0  0  0  0  0  0  0  0  0  0  0  0
   24.6370   64.3020   -7.4090 O   0  0  0  0  0  0  0  0  0  0  0  0
   22.7120   64.4500   -6.0640 C   0  0  1  0  0  0  0  0  0  0  0  0
   21.4930   63.5540   -6.0540 C   0  0  0  0  0  0  0  0  0  0  0  0
   20.6600   63.8190   -7.1680 O   0  0  0  0  0  0  0  0  0  0  0  0
   23.5770   64.2200   -4.8620 C   0  0  0  0  0  0  0  0  0  0  0  0
   23.4240   62.9730   -4.2180 N   0  0  0  0  0  4  0  0  0  0  0  0
   24.4840   62.0890   -4.6030 C   0  0  0  0  0  0  0  0  0  0  0  0
   25.8230   62.4280   -4.0530 C   0  0  2  0  0  0  0  0  0  0  0  0
   25.8710   63.4840   -3.0180 C   0  0  0  0  0  0  0  0  0  0  0  0
   24.6240   63.7340   -2.2650 C   0  0  0  0  0  0  0  0  0  0  0  0
   23.4160   63.0090   -2.7810 C   0  0  0  0  0  0  0  0  0  0  0  0
   26.7020   62.8840   -5.2230 C   0  0  0  0  0  0  0  0  0  0  0  0
   22.2370   65.8880   -6.0930 C   0  0  0  0  0  0  0  0  0  0  0  0
   22.6620   66.6470   -7.2200 N   0  0  0  0  0  4  0  0  0  0  0  0
   23.5450   67.7320   -6.7950 C   0  0  0  0  0  0  0  0  0  0  0  0
   22.8420   69.0560   -6.7320 C   0  0  1  0  0  0  0  0  0  0  0  0
   21.4700   68.8730   -6.1260 C   0  0  0  0  0  0  0  0  0  0  0  0
   20.6510   68.0630   -7.0830 C   0  0  0  0  0  0  0  0  0  0  0  0
   21.5850   67.2660   -7.9600 C   0  0  0  0  0  0  0  0  0  0  0  0
   23.6320   69.9360   -5.7540 C   0  0  0  0  0  0  0  0  0  0  0  0
   24.2440   63.9490   -9.9290 H   0  0  0  0  0  0  0  0  0  0  0  0
   19.7410   61.9910  -11.7450 H   0  0  0  0  0  0  0  0  0  0  0  0
   20.6690   63.0970  -12.8950 H   0  0  0  0  0  0  0  0  0  0  0  0
   19.3050   63.7090  -11.8400 H   0  0  0  0  0  0  0  0  0  0  0  0
   21.7750   62.4930   -6.1140 H   0  0  0  0  0  0  0  0  0  0  0  0
   20.9210   63.6580   -5.0900 H   0  0  0  0  0  0  0  0  0  0  0  0
   24.6260   64.2990   -5.2160 H   0  0  0  0  0  0  0  0  0  0  0  0
   23.4310   65.0740   -4.1700 H   0  0  0  0  0  0  0  0  0  0  0  0
   22.5220   62.5220   -4.5150 H   0  0  0  0  0  0  0  0  0  0  0  0
   24.1670   61.0540   -4.2750 H   0  0  0  0  0  0  0  0  0  0  0  0
   24.4940   62.0340   -5.7110 H   0  0  0  0  0  0  0  0  0  0  0  0
   26.2990   61.4870   -3.6890 H   0  0  0  0  0  0  0  0  0  0  0  0
   26.6760   63.2040   -2.2780 H   0  0  0  0  0  0  0  0  0  0  0  0
   26.2450   64.4640   -3.4430 H   0  0  0  0  0  0  0  0  0  0  0  0
   24.3910   64.8390   -2.2000 H   0  0  0  0  0  0  0  0  0  0  0  0
   24.7240   63.4340   -1.1790 H   0  0  0  0  0  0  0  0  0  0  0  0
   22.5140   63.3760   -2.3090 H   0  0  0  0  0  0  0  0  0  0  0  0
   23.5310   61.9350   -2.4440 H   0  0  0  0  0  0  0  0  0  0  0  0
   27.7680   62.5910   -5.0520 H   0  0  0  0  0  0  0  0  0  0  0  0
   26.2930   62.4970   -6.1660 H   0  0  0  0  0  0  0  0  0  0  0  0
   26.6530   63.9890   -5.2620 H   0  0  0  0  0  0  0  0  0  0  0  0
   22.6510   66.3600   -5.1570 H   0  0  0  0  0  0  0  0  0  0  0  0
   21.1220   65.9150   -5.9330 H   0  0  0  0  0  0  0  0  0  0  0  0
   23.2070   66.0660   -7.8630 H   0  0  0  0  0  0  0  0  0  0  0  0
   24.4220   67.8290   -7.4570 H   0  0  0  0  0  0  0  0  0  0  0  0
   23.9430   67.5340   -5.7640 H   0  0  0  0  0  0  0  0  0  0  0  0
   22.8270   69.6020   -7.6840 H   0  0  0  0  0  0  0  0  0  0  0  0
   21.0420   69.8850   -5.9770 H   0  0  0  0  0  0  0  0  0  0  0  0
   21.5920   68.4070   -5.1430 H   0  0  0  0  0  0  0  0  0  0  0  0
   19.8850   67.4400   -6.6310 H   0  0  0  0  0  0  0  0  0  0  0  0
   20.1160   68.7770   -7.7720 H   0  0  0  0  0  0  0  0  0  0  0  0
   22.0830   67.9590   -8.6990 H   0  0  0  0  0  0  0  0  0  0  0  0
   20.9780   66.5840   -8.5580 H   0  0  0  0  0  0  0  0  0  0  0  0
   24.7070   69.6430   -5.7660 H   0  0  0  0  0  0  0  0  0  0  0  0
   23.2010   69.8840   -4.7310 H   0  0  0  0  0  0  0  0  0  0  0  0
   23.5830   71.0030   -6.0550 H   0  0  0  0  0  0  0  0  0  0  0  0
  2  1  1  0  0  0  0
  2  3  1  0  0  0  0
  3 14  1  0  0  0  0
  4  3  2  0  0  0  0
  4 10  1  0  0  0  0
  5  4  1  0  0  0  0
  6  7  1  0  0  0  0
  6  5  2  0  0  0  0
  7  2  2  0  0  0  0
  8 34  1  0  0  0  0
  8 32  1  0  0  0  0
  8  7  1  0  0  0  0
  9  6  1  0  0  0  0
 10 12  1  0  0  0  0
 11 10  2  0  0  0  0
 12 23  1  1  0  0  0
 12 13  1  0  0  0  0
 12 15  1  0  0  0  0
 13 36  1  0  0  0  0
 14 13  1  0  0  0  0
 15 16  1  0  0  0  0
 15 38  1  0  0  0  0
 16 21  1  0  0  0  0
 17 40  1  0  0  0  0
 17 16  1  0  0  0  0
 17 18  1  0  0  0  0
 18 42  1  1  0  0  0
 18 19  1  0  0  0  0
 19 43  1  0  0  0  0
 19 20  1  0  0  0  0
 20 45  1  0  0  0  0
 20 46  1  0  0  0  0
 21 48  1  0  0  0  0
 21 47  1  0  0  0  0
 21 20  1  0  0  0  0
 22 49  1  0  0  0  0
 22 18  1  0  0  0  0
 23 53  1  0  0  0  0
 23 52  1  0  0  0  0
 24 25  1  0  0  0  0
 24 23  1  0  0  0  0
 25 26  1  0  0  0  0
 25 56  1  0  0  0  0
 26 57  1  6  0  0  0
 26 27  1  0  0  0  0
 26 30  1  0  0  0  0
 27 58  1  0  0  0  0
 27 59  1  0  0  0  0
 28 60  1  0  0  0  0
 28 27  1  0  0  0  0
 29 24  1  0  0  0  0
 29 28  1  0  0  0  0
 30 65  1  0  0  0  0
 31  5  1  0  0  0  0
 33  8  1  0  0  0  0
 35 13  1  0  0  0  0
 37 15  1  0  0  0  0
 39 16  1  0  0  0  0
 41 17  1  0  0  0  0
 44 19  1  0  0  0  0
 50 22  1  0  0  0  0
 51 22  1  0  0  0  0
 54 24  1  0  0  0  0
 55 25  1  0  0  0  0
 61 28  1  0  0  0  0
 62 29  1  0  0  0  0
 63 29  1  0  0  0  0
 64 30  1  0  0  0  0
 66 30  1  0  0  0  0
M  END
>  <Pose>
1

>  <Score>
-8.20

$$$$
