
 OpenBabel03202210193D

 60 63  0  0  0  0  0  0  0  0999 V2000
   22.4580   63.2770  -11.9120 B   0  0  0  0  0  0  0  0  0  0  0  0
   21.1290   63.3340  -10.5730 C   0  0  0  0  0  0  0  0  0  0  0  0
   21.5360   63.4900   -9.2710 C   0  0  0  0  0  0  0  0  0  0  0  0
   20.6400   63.5480   -8.1890 C   0  0  0  0  0  0  0  0  0  0  0  0
   19.2690   63.4390   -8.4510 C   0  0  0  0  0  0  0  0  0  0  0  0
   18.8760   63.2820   -9.7610 C   0  0  0  0  0  0  0  0  0  0  0  0
   19.7750   63.2280  -10.8110 C   0  0  0  0  0  0  0  0  0  0  0  0
   19.3150   63.0540  -12.2310 C   0  0  0  0  0  0  0  0  0  0  0  0
   17.0090   63.1360  -10.1160 B   0  0  0  0  0  0  0  0  0  0  0  0
   21.1280   63.7080   -6.8330 C   0  0  0  0  0  0  0  0  0  0  0  0
   20.4480   63.1630   -5.9280 O   0  0  0  0  0  0  0  0  0  0  0  0
   22.3670   64.4870   -6.6470 C   0  0  0  0  0  0  0  0  0  0  0  0
   23.3440   63.6650   -7.6010 C   0  0  0  0  0  0  0  0  0  0  0  0
   22.8620   63.6070   -8.8960 O   0  0  0  0  0  0  0  0  0  0  0  0
   22.9830   64.4490   -5.3360 C   0  0  0  0  0  0  0  0  0  0  0  0
   23.3280   63.3470   -4.5690 N   0  0  0  0  0  4  0  0  0  0  0  0
   23.1280   63.2870   -3.1750 C   0  0  0  0  0  0  0  0  0  0  0  0
   24.1160   62.3810   -2.4510 C   0  0  0  0  0  0  0  0  0  0  0  0
   25.5130   62.9090   -2.5260 C   0  0  0  0  0  0  0  0  0  0  0  0
   25.6880   63.5880   -3.8500 C   0  0  0  0  0  0  0  0  0  0  0  0
   24.7400   62.9960   -4.8400 C   0  0  0  0  0  0  0  0  0  0  0  0
   22.2100   65.8350   -7.2420 C   0  0  0  0  0  0  0  0  0  0  0  0
   22.1900   66.9820   -6.4360 N   0  0  0  0  0  4  0  0  0  0  0  0
   23.5740   67.3110   -6.0690 C   0  0  0  0  0  0  0  0  0  0  0  0
   23.6410   68.3500   -4.9690 C   0  0  0  0  0  0  0  0  0  0  0  0
   23.0550   69.6340   -5.5780 C   0  0  0  0  0  0  0  0  0  0  0  0
   21.6330   69.2630   -5.9310 C   0  0  0  0  0  0  0  0  0  0  0  0
   21.6930   68.2050   -7.0450 C   0  0  0  0  0  0  0  0  0  0  0  0
   18.5900   63.4820   -7.6230 H   0  0  0  0  0  0  0  0  0  0  0  0
   18.8330   64.0270  -12.5090 H   0  0  0  0  0  0  0  0  0  0  0  0
   20.1640   62.8050  -12.8670 H   0  0  0  0  0  0  0  0  0  0  0  0
   18.5140   62.2890  -12.2150 H   0  0  0  0  0  0  0  0  0  0  0  0
   23.3120   62.6490   -7.1580 H   0  0  0  0  0  0  0  0  0  0  0  0
   24.3440   64.0650   -7.4930 H   0  0  0  0  0  0  0  0  0  0  0  0
   22.3980   65.1470   -4.6340 H   0  0  0  0  0  0  0  0  0  0  0  0
   23.9500   65.0840   -5.4290 H   0  0  0  0  0  0  0  0  0  0  0  0
   22.8530   62.4300   -4.9600 H   0  0  0  0  0  0  0  0  0  0  0  0
   22.1010   62.8960   -2.9590 H   0  0  0  0  0  0  0  0  0  0  0  0
   23.1990   64.2350   -2.6350 H   0  0  0  0  0  0  0  0  0  0  0  0
   24.0790   61.3960   -2.9400 H   0  0  0  0  0  0  0  0  0  0  0  0
   23.8480   62.2540   -1.3990 H   0  0  0  0  0  0  0  0  0  0  0  0
   26.2940   62.1540   -2.3730 H   0  0  0  0  0  0  0  0  0  0  0  0
   25.5900   63.6820   -1.7040 H   0  0  0  0  0  0  0  0  0  0  0  0
   26.7110   63.3530   -4.2150 H   0  0  0  0  0  0  0  0  0  0  0  0
   25.6460   64.6920   -3.7980 H   0  0  0  0  0  0  0  0  0  0  0  0
   24.9900   63.2390   -5.9090 H   0  0  0  0  0  0  0  0  0  0  0  0
   24.8210   61.9000   -4.7470 H   0  0  0  0  0  0  0  0  0  0  0  0
   21.3410   65.8610   -7.9500 H   0  0  0  0  0  0  0  0  0  0  0  0
   23.0730   66.0170   -8.0060 H   0  0  0  0  0  0  0  0  0  0  0  0
   21.7020   66.9350   -5.5180 H   0  0  0  0  0  0  0  0  0  0  0  0
   24.0190   67.8140   -6.9770 H   0  0  0  0  0  0  0  0  0  0  0  0
   24.1980   66.4610   -5.8490 H   0  0  0  0  0  0  0  0  0  0  0  0
   23.0460   68.0210   -4.1000 H   0  0  0  0  0  0  0  0  0  0  0  0
   24.6900   68.5290   -4.7490 H   0  0  0  0  0  0  0  0  0  0  0  0
   23.1230   70.4690   -4.8810 H   0  0  0  0  0  0  0  0  0  0  0  0
   23.5880   69.7950   -6.5390 H   0  0  0  0  0  0  0  0  0  0  0  0
   21.1770   68.7200   -5.0540 H   0  0  0  0  0  0  0  0  0  0  0  0
   20.9930   70.1020   -6.2060 H   0  0  0  0  0  0  0  0  0  0  0  0
   20.6530   68.1610   -7.3960 H   0  0  0  0  0  0  0  0  0  0  0  0
   22.3960   68.5970   -7.7980 H   0  0  0  0  0  0  0  0  0  0  0  0
  1  2  1  0  0  0  0
  2  3  1  0  0  0  0
  3 14  1  0  0  0  0
  3  4  2  0  0  0  0
  4 10  1  0  0  0  0
  5  4  1  0  0  0  0
  5 29  1  0  0  0  0
  6  5  2  0  0  0  0
  7  2  2  0  0  0  0
  7  6  1  0  0  0  0
  8 32  1  0  0  0  0
  8  7  1  0  0  0  0
  9  6  1  0  0  0  0
 10 12  1  0  0  0  0
 10 11  2  0  0  0  0
 12 15  1  0  0  0  0
 13 34  1  0  0  0  0
 13 33  1  0  0  0  0
 13 12  1  0  0  0  0
 14 13  1  0  0  0  0
 15 35  1  0  0  0  0
 15 16  1  0  0  0  0
 16 17  1  0  0  0  0
 17 38  1  0  0  0  0
 17 39  1  0  0  0  0
 17 18  1  0  0  0  0
 18 41  1  0  0  0  0
 19 18  1  0  0  0  0
 19 42  1  0  0  0  0
 19 43  1  0  0  0  0
 20 45  1  0  0  0  0
 20 19  1  0  0  0  0
 21 47  1  0  0  0  0
 21 16  1  0  0  0  0
 21 20  1  0  0  0  0
 22 12  1  0  0  0  0
 22 23  1  0  0  0  0
 23 24  1  0  0  0  0
 23 50  1  0  0  0  0
 24 52  1  0  0  0  0
 24 25  1  0  0  0  0
 25 54  1  0  0  0  0
 25 53  1  0  0  0  0
 26 25  1  0  0  0  0
 26 55  1  0  0  0  0
 27 26  1  0  0  0  0
 27 57  1  0  0  0  0
 28 23  1  0  0  0  0
 28 27  1  0  0  0  0
 30  8  1  0  0  0  0
 31  8  1  0  0  0  0
 36 15  1  0  0  0  0
 37 16  1  0  0  0  0
 40 18  1  0  0  0  0
 44 20  1  0  0  0  0
 46 21  1  0  0  0  0
 48 22  1  0  0  0  0
 49 22  1  0  0  0  0
 51 24  1  0  0  0  0
 56 26  1  0  0  0  0
 58 27  1  0  0  0  0
 59 28  1  0  0  0  0
 60 28  1  0  0  0  0
M  END
>  <Pose>
1

>  <Score>
-7.47

$$$$
