
 OpenBabel03202210193D

 50 53  0  0  0  0  0  0  0  0999 V2000
   14.8480   63.8940  -11.5750 F   0  0  0  0  0  0  0  0  0  0  0  0
   16.0340   63.6480  -10.9510 C   0  0  0  0  0  0  0  0  0  0  0  0
   16.3740   62.3860  -10.5110 C   0  0  0  0  0  0  0  0  0  0  0  0
   17.5800   62.1590   -9.8800 C   0  0  0  0  0  0  0  0  0  0  0  0
   18.4960   63.1750   -9.6610 C   0  0  0  0  0  0  0  0  0  0  0  0
   18.1460   64.4330  -10.1050 C   0  0  0  0  0  0  0  0  0  0  0  0
   16.9340   64.6660  -10.7390 C   0  0  0  0  0  0  0  0  0  0  0  0
   19.7710   62.9400   -8.9960 C   0  0  0  0  0  0  0  0  0  0  0  0
   20.8710   62.9570   -9.6600 N   0  0  0  0  0  0  0  0  0  0  0  0
   22.1190   62.7420   -9.0930 N   0  0  0  0  0  0  0  0  0  0  0  0
   22.5350   63.4810   -7.9620 C   0  0  0  0  0  0  0  0  0  0  0  0
   22.2680   64.8040   -7.8880 N   0  0  0  0  0  4  0  0  0  0  0  0
   22.6390   65.5710   -6.8330 C   0  0  0  0  0  0  0  0  0  0  0  0
   23.2910   64.9510   -5.8480 N   0  0  0  0  0  0  0  0  0  0  0  0
   23.5910   63.6400   -5.8520 C   0  0  0  0  0  0  0  0  0  0  0  0
   23.1970   62.9340   -6.9270 N   0  0  0  0  0  0  0  0  0  0  0  0
   24.2890   63.0490   -4.7650 N   0  0  0  0  0  0  0  0  0  0  0  0
   25.6090   62.4960   -4.9960 C   0  0  0  0  0  0  0  0  0  0  0  0
   26.1330   61.8880   -3.7150 C   0  0  0  0  0  0  0  0  0  0  0  0
   26.0280   62.6990   -2.6210 O   0  0  0  0  0  0  0  0  0  0  0  0
   24.8670   63.4120   -2.4900 C   0  0  0  0  0  0  0  0  0  0  0  0
   23.7650   62.9590   -3.4340 C   0  0  0  0  0  0  0  0  0  0  0  0
   22.3320   66.9600   -6.8080 N   0  0  0  0  0  0  0  0  0  0  0  0
   21.0560   67.5150   -7.1930 C   0  0  0  0  0  0  0  0  0  0  0  0
   21.4140   68.5610   -8.2480 C   0  0  0  0  0  0  0  0  0  0  0  0
   22.0840   69.5680   -7.6590 O   0  0  0  0  0  0  0  0  0  0  0  0
   23.0840   69.3070   -6.8070 C   0  0  0  0  0  0  0  0  0  0  0  0
   23.3280   67.9140   -6.3790 C   0  0  0  0  0  0  0  0  0  0  0  0
   15.1310   60.9660  -10.8000 B   0  0  0  0  0  0  0  0  0  0  0  0
   17.8600   61.1600   -9.5270 H   0  0  0  0  0  0  0  0  0  0  0  0
   18.8660   65.2410   -9.9350 H   0  0  0  0  0  0  0  0  0  0  0  0
   16.6750   65.6680  -11.0830 H   0  0  0  0  0  0  0  0  0  0  0  0
   19.7770   62.7540   -7.9410 H   0  0  0  0  0  0  0  0  0  0  0  0
   22.7560   62.0370   -9.4980 H   0  0  0  0  0  0  0  0  0  0  0  0
   25.5600   61.6460   -5.7360 H   0  0  0  0  0  0  0  0  0  0  0  0
   26.2550   63.3140   -5.3280 H   0  0  0  0  0  0  0  0  0  0  0  0
   27.2340   61.7170   -3.8900 H   0  0  0  0  0  0  0  0  0  0  0  0
   25.7070   60.8840   -3.5540 H   0  0  0  0  0  0  0  0  0  0  0  0
   25.0780   64.4770   -2.7630 H   0  0  0  0  0  0  0  0  0  0  0  0
   24.5340   63.3550   -1.4290 H   0  0  0  0  0  0  0  0  0  0  0  0
   23.5880   61.8860   -3.2050 H   0  0  0  0  0  0  0  0  0  0  0  0
   22.8870   63.5890   -3.2830 H   0  0  0  0  0  0  0  0  0  0  0  0
   20.6790   68.0880   -6.3210 H   0  0  0  0  0  0  0  0  0  0  0  0
   20.3440   66.7720   -7.5760 H   0  0  0  0  0  0  0  0  0  0  0  0
   21.9940   68.0420   -9.0330 H   0  0  0  0  0  0  0  0  0  0  0  0
   20.4670   68.9750   -8.6990 H   0  0  0  0  0  0  0  0  0  0  0  0
   22.9310   69.9370   -5.8800 H   0  0  0  0  0  0  0  0  0  0  0  0
   24.0400   69.7330   -7.2400 H   0  0  0  0  0  0  0  0  0  0  0  0
   23.3590   67.8190   -5.2510 H   0  0  0  0  0  0  0  0  0  0  0  0
   24.3600   67.5740   -6.6890 H   0  0  0  0  0  0  0  0  0  0  0  0
  1  2  1  0  0  0  0
  2  7  2  0  0  0  0
  2  3  1  0  0  0  0
  3  4  2  0  0  0  0
  4  5  1  0  0  0  0
  4 30  1  0  0  0  0
  5  8  1  0  0  0  0
  6 31  1  0  0  0  0
  6  5  2  0  0  0  0
  7  6  1  0  0  0  0
  8 33  1  0  0  0  0
  9 10  1  0  0  0  0
  9  8  2  0  0  0  0
 10 11  1  0  0  0  0
 11 12  2  0  0  0  0
 11 16  1  0  0  0  0
 12 13  2  0  0  0  0
 13 23  1  0  0  0  0
 13 14  1  0  0  0  0
 15 14  2  0  0  0  0
 15 17  1  0  0  0  0
 16 15  1  0  0  0  0
 17 22  1  0  0  0  0
 18 17  1  0  0  0  0
 18 19  1  0  0  0  0
 19 38  1  0  0  0  0
 19 20  1  0  0  0  0
 20 21  1  0  0  0  0
 21 40  1  0  0  0  0
 22 42  1  0  0  0  0
 22 41  1  0  0  0  0
 22 21  1  0  0  0  0
 23 28  1  0  0  0  0
 24 23  1  0  0  0  0
 24 43  1  0  0  0  0
 25 26  1  0  0  0  0
 25 24  1  0  0  0  0
 26 27  1  0  0  0  0
 27 28  1  0  0  0  0
 27 47  1  0  0  0  0
 28 49  1  0  0  0  0
 29  3  1  0  0  0  0
 32  7  1  0  0  0  0
 34 10  1  0  0  0  0
 35 18  1  0  0  0  0
 36 18  1  0  0  0  0
 37 19  1  0  0  0  0
 39 21  1  0  0  0  0
 44 24  1  0  0  0  0
 45 25  1  0  0  0  0
 46 25  1  0  0  0  0
 48 27  1  0  0  0  0
 50 28  1  0  0  0  0
M  END
>  <Pose>
1

>  <Score>
-8.43

$$$$
