
 OpenBabel03202210193D

 41 44  0  0  0  0  0  0  0  0999 V2000
   26.7540   63.6420   -5.8150 F   0  0  0  0  0  0  0  0  0  0  0  0
   25.8110   63.0780   -5.0120 C   0  0  0  0  0  0  0  0  0  0  0  0
   24.5290   63.6520   -5.0120 C   0  0  0  0  0  0  0  0  0  0  0  0
   23.5840   63.0920   -4.2100 C   0  0  0  0  0  0  0  0  0  0  0  0
   23.8370   61.9720   -3.3900 C   0  0  0  0  0  0  0  0  0  0  0  0
   25.1050   61.4390   -3.4180 C   0  0  0  0  0  0  0  0  0  0  0  0
   26.0800   61.9900   -4.2220 C   0  0  0  0  0  0  0  0  0  0  0  0
   25.4110   60.3650   -2.6540 F   0  0  0  0  0  0  0  0  0  0  0  0
   24.2960   64.7650   -5.8340 N   0  0  0  0  0  0  0  0  0  0  0  0
   23.3220   64.8380   -6.8270 C   0  0  0  0  0  0  0  0  0  0  0  0
   23.2330   65.7620   -7.6420 O   0  0  0  0  0  0  0  0  0  0  0  0
   22.2930   63.7320   -6.9380 C   0  0  0  0  0  0  0  0  0  0  0  0
   22.1220   63.3860   -8.3320 N   0  0  0  0  0  0  0  0  0  0  0  0
   23.1320   63.1690   -9.1550 N   0  0  0  0  0  0  0  0  0  0  0  0
   22.5910   62.8890  -10.3280 N   0  0  0  0  0  0  0  0  0  0  0  0
   21.2440   62.9230  -10.2620 C   0  0  0  0  0  0  0  0  0  0  0  0
   20.9580   63.2400   -8.9880 C   0  0  0  0  0  0  0  0  0  0  0  0
   19.5840   63.2700   -8.9380 C   0  0  0  0  0  0  0  0  0  0  0  0
   18.9110   63.5320   -7.9060 O   0  0  0  0  0  0  0  0  0  0  0  0
   19.0320   62.9820  -10.1350 N   0  0  0  0  0  0  0  0  0  0  0  0
   20.0640   62.7640  -10.9670 C   0  0  0  0  0  0  0  0  0  0  0  0
   19.9630   62.4660  -12.1860 O   0  0  0  0  0  0  0  0  0  0  0  0
   17.6230   62.9310  -10.4170 C   0  0  0  0  0  0  0  0  0  0  0  0
   16.9260   61.7430  -10.3160 C   0  0  0  0  0  0  0  0  0  0  0  0
   15.5750   61.6460  -10.5780 C   0  0  0  0  0  0  0  0  0  0  0  0
   14.9220   62.8040  -10.9540 C   0  0  0  0  0  0  0  0  0  0  0  0
   15.5690   64.0230  -11.0720 C   0  0  0  0  0  0  0  0  0  0  0  0
   16.9210   64.0500  -10.7970 C   0  0  0  0  0  0  0  0  0  0  0  0
   13.0410   62.6460  -11.3130 B   0  0  0  0  0  0  0  0  0  0  0  0
   22.5870   63.4630   -4.1490 H   0  0  0  0  0  0  0  0  0  0  0  0
   23.0600   61.5570   -2.7670 H   0  0  0  0  0  0  0  0  0  0  0  0
   27.0890   61.5570   -4.2370 H   0  0  0  0  0  0  0  0  0  0  0  0
   24.9020   65.6460   -5.7090 H   0  0  0  0  0  0  0  0  0  0  0  0
   21.3230   64.0990   -6.5280 H   0  0  0  0  0  0  0  0  0  0  0  0
   22.6320   62.9080   -6.3090 H   0  0  0  0  0  0  0  0  0  0  0  0
   24.1690   63.2100   -8.9360 H   0  0  0  0  0  0  0  0  0  0  0  0
   23.1700   62.6710  -11.1810 H   0  0  0  0  0  0  0  0  0  0  0  0
   17.4900   60.8710  -10.0180 H   0  0  0  0  0  0  0  0  0  0  0  0
   15.0390   60.6900  -10.4910 H   0  0  0  0  0  0  0  0  0  0  0  0
   14.9980   64.8860  -11.3710 H   0  0  0  0  0  0  0  0  0  0  0  0
   17.4320   65.0020  -10.8880 H   0  0  0  0  0  0  0  0  0  0  0  0
  1  2  1  0  0  0  0
  2  3  2  0  0  0  0
  2  7  1  0  0  0  0
  3  4  1  0  0  0  0
  4 30  1  0  0  0  0
  4  5  2  0  0  0  0
  5 31  1  0  0  0  0
  6  5  1  0  0  0  0
  6  8  1  0  0  0  0
  7  6  2  0  0  0  0
  9 33  1  0  0  0  0
  9  3  1  0  0  0  0
 10  9  1  0  0  0  0
 11 10  2  0  0  0  0
 12 10  1  0  0  0  0
 12 34  1  0  0  0  0
 12 35  1  0  0  0  0
 13 12  1  0  0  0  0
 14 36  1  0  0  0  0
 14 13  1  0  0  0  0
 15 16  1  0  0  0  0
 15 14  1  0  0  0  0
 16 17  2  0  0  0  0
 17 18  1  0  0  0  0
 17 13  1  0  0  0  0
 18 19  2  0  0  0  0
 20 18  1  0  0  0  0
 21 16  1  0  0  0  0
 21 20  1  0  0  0  0
 22 21  2  0  0  0  0
 23 24  1  0  0  0  0
 23 20  1  0  0  0  0
 24 38  1  0  0  0  0
 25 39  1  0  0  0  0
 25 24  2  0  0  0  0
 26 25  1  0  0  0  0
 27 26  2  0  0  0  0
 27 28  1  0  0  0  0
 28 23  2  0  0  0  0
 29 26  1  0  0  0  0
 32  7  1  0  0  0  0
 37 15  1  0  0  0  0
 40 27  1  0  0  0  0
 41 28  1  0  0  0  0
M  END
>  <Pose>
1

>  <Score>
-7.16

$$$$
