
 OpenBabel03202210193D

 43 46  0  0  1  0  0  0  0  0999 V2000
   22.3760   67.8330   -6.3590 I   0  0  0  0  0  0  0  0  0  0  0  0
   22.4070   65.8730   -7.1390 C   0  0  0  0  0  0  0  0  0  0  0  0
   23.2010   64.9130   -6.5450 C   0  0  0  0  0  0  0  0  0  0  0  0
   23.2310   63.6140   -7.0500 C   0  0  0  0  0  0  0  0  0  0  0  0
   22.4540   63.3410   -8.1350 C   0  0  0  0  0  0  0  0  0  0  0  0
   21.6460   64.2870   -8.7520 C   0  0  0  0  0  0  0  0  0  0  0  0
   21.6300   65.5560   -8.2420 C   0  0  0  0  0  0  0  0  0  0  0  0
   20.8440   63.8620   -9.9320 C   0  0  2  0  0  0  0  0  0  0  0  0
   19.5550   64.5430   -9.8050 N   0  0  0  0  0  0  0  0  0  0  0  0
   18.3180   63.8680  -10.1460 C   0  0  0  0  0  0  0  0  0  0  0  0
   16.7160   64.4310  -10.4100 S   0  0  0  0  0  0  0  0  0  0  0  0
   15.9650   62.9490  -10.7490 C   0  0  0  0  0  0  0  0  0  0  0  0
   16.9860   62.0430  -10.6480 C   0  0  0  0  0  0  0  0  0  0  0  0
   18.2060   62.5280  -10.3340 C   0  0  0  0  0  0  0  0  0  0  0  0
   19.4710   61.7560  -10.1650 C   0  0  0  0  0  0  0  0  0  0  0  0
   19.5050   60.4970  -10.3130 O   0  0  0  0  0  0  0  0  0  0  0  0
   20.6570   62.4410   -9.8330 N   0  0  0  0  0  0  0  0  0  0  0  0
   16.5100   60.6200  -10.9220 C   0  0  0  0  0  0  0  0  0  0  0  0
   15.2880   60.3360  -10.0900 C   0  0  0  0  0  0  0  0  0  0  0  0
   14.3280   61.3890  -10.0870 N   0  0  0  0  0  4  0  0  0  0  0  0
   14.6030   62.4020  -11.1010 C   0  0  0  0  0  0  0  0  0  0  0  0
   14.4540   62.0860   -8.7970 C   0  0  0  0  0  0  0  0  0  0  0  0
   24.0490   62.6910   -6.4130 O   0  0  0  0  0  0  0  0  0  0  0  0
   24.8000   63.1150   -5.2910 C   0  0  0  0  0  0  0  0  0  0  0  0
   23.9760   65.2300   -5.4450 O   0  0  0  0  0  0  0  0  0  0  0  0
   22.4700   62.3320   -8.5380 H   0  0  0  0  0  0  0  0  0  0  0  0
   20.9940   66.2990   -8.7280 H   0  0  0  0  0  0  0  0  0  0  0  0
   21.3230   64.1660  -10.8820 H   0  0  0  0  0  0  0  0  0  0  0  0
   19.4840   65.5210   -9.4700 H   0  0  0  0  0  0  0  0  0  0  0  0
   21.4810   61.8850   -9.4850 H   0  0  0  0  0  0  0  0  0  0  0  0
   16.3170   60.5230  -11.9900 H   0  0  0  0  0  0  0  0  0  0  0  0
   17.2870   59.9010  -10.6060 H   0  0  0  0  0  0  0  0  0  0  0  0
   15.5380   60.0080   -9.0610 H   0  0  0  0  0  0  0  0  0  0  0  0
   14.7920   59.4400  -10.5660 H   0  0  0  0  0  0  0  0  0  0  0  0
   13.3330   61.0580  -10.1820 H   0  0  0  0  0  0  0  0  0  0  0  0
   13.8410   63.1850  -10.9880 H   0  0  0  0  0  0  0  0  0  0  0  0
   14.6080   61.8910  -12.0750 H   0  0  0  0  0  0  0  0  0  0  0  0
   15.5390   62.1940   -8.5950 H   0  0  0  0  0  0  0  0  0  0  0  0
   13.9970   63.0970   -8.8810 H   0  0  0  0  0  0  0  0  0  0  0  0
   13.9230   61.5410   -8.0020 H   0  0  0  0  0  0  0  0  0  0  0  0
   24.1010   63.2550   -4.4160 H   0  0  0  0  0  0  0  0  0  0  0  0
   25.2920   64.0940   -5.4480 H   0  0  0  0  0  0  0  0  0  0  0  0
   25.6040   62.3950   -5.0340 H   0  0  0  0  0  0  0  0  0  0  0  0
  2  3  1  0  0  0  0
  2  1  1  0  0  0  0
  3 25  1  0  0  0  0
  4  3  2  0  0  0  0
  4 23  1  0  0  0  0
  5  4  1  0  0  0  0
  6  7  1  0  0  0  0
  6  5  2  0  0  0  0
  7  2  2  0  0  0  0
  8 28  1  6  0  0  0
  8 17  1  0  0  0  0
  8  9  1  0  0  0  0
  8  6  1  0  0  0  0
  9 29  1  0  0  0  0
 10  9  1  0  0  0  0
 11 10  1  0  0  0  0
 12 13  2  0  0  0  0
 12 11  1  0  0  0  0
 13 14  1  0  0  0  0
 14 15  1  0  0  0  0
 14 10  2  0  0  0  0
 15 17  1  0  0  0  0
 16 15  2  0  0  0  0
 17 30  1  0  0  0  0
 18 13  1  0  0  0  0
 18 32  1  0  0  0  0
 18 19  1  0  0  0  0
 19 20  1  0  0  0  0
 19 33  1  0  0  0  0
 20 22  1  0  0  0  0
 21 36  1  0  0  0  0
 21 12  1  0  0  0  0
 21 20  1  0  0  0  0
 22 38  1  0  0  0  0
 22 40  1  0  0  0  0
 23 24  1  0  0  0  0
 24 43  1  0  0  0  0
 24 41  1  0  0  0  0
 26  5  1  0  0  0  0
 27  7  1  0  0  0  0
 31 18  1  0  0  0  0
 34 19  1  0  0  0  0
 35 20  1  0  0  0  0
 37 21  1  0  0  0  0
 39 22  1  0  0  0  0
 42 24  1  0  0  0  0
M  END
>  <Pose>
1

>  <Score>
-7.72

$$$$
