
 OpenBabel03202210193D

 40 43  0  0  0  0  0  0  0  0999 V2000
   16.7630   64.1110  -10.5070 I   0  0  0  0  0  0  0  0  0  0  0  0
   17.6110   62.1760  -10.2470 C   0  0  0  0  0  0  0  0  0  0  0  0
   18.9520   61.8790  -10.1310 C   0  0  0  0  0  0  0  0  0  0  0  0
   19.0540   60.5550   -9.9890 N   0  0  0  0  0  0  0  0  0  0  0  0
   17.8310   60.0380  -10.0120 N   0  0  0  0  0  0  0  0  0  0  0  0
   16.9180   60.9940  -10.1680 C   0  0  0  0  0  0  0  0  0  0  0  0
   20.2740   59.7330   -9.8780 C   0  0  0  0  0  0  0  0  0  0  0  0
   20.0570   62.8720  -10.2140 C   0  0  0  0  0  0  0  0  0  0  0  0
   19.8840   63.6410  -11.2460 O   0  0  0  0  0  0  0  0  0  0  0  0
   21.0810   62.9790   -9.3690 N   0  0  0  0  0  0  0  0  0  0  0  0
   22.1420   63.0890   -8.4930 C   0  0  0  0  0  0  0  0  0  0  0  0
   21.8350   63.7110   -7.2600 C   0  0  0  0  0  0  0  0  0  0  0  0
   20.7180   64.2770   -6.8170 N   0  0  0  0  0  0  0  0  0  0  0  0
   20.9320   64.7140   -5.6140 O   0  0  0  0  0  0  0  0  0  0  0  0
   22.1380   64.4610   -5.2530 N   0  0  0  0  0  0  0  0  0  0  0  0
   22.7470   63.8270   -6.2640 C   0  0  0  0  0  0  0  0  0  0  0  0
   24.0190   63.3290   -6.4390 C   0  0  0  0  0  0  0  0  0  0  0  0
   24.3500   62.7220   -7.6230 C   0  0  0  0  0  0  0  0  0  0  0  0
   23.4300   62.5970   -8.6460 C   0  0  0  0  0  0  0  0  0  0  0  0
   24.9350   63.4760   -5.3870 N   0  0  0  0  0  0  0  0  0  0  0  0
   26.3760   63.2860   -5.5600 C   0  0  0  0  0  0  0  0  0  0  0  0
   26.7160   62.1130   -4.6640 C   0  0  0  0  0  0  0  0  0  0  0  0
   25.6320   61.6210   -3.9550 O   0  0  0  0  0  0  0  0  0  0  0  0
   24.9360   62.5560   -3.2200 C   0  0  0  0  0  0  0  0  0  0  0  0
   24.6400   63.8170   -4.0130 C   0  0  0  0  0  0  0  0  0  0  0  0
   15.8330   60.8910  -10.2240 H   0  0  0  0  0  0  0  0  0  0  0  0
   20.2650   59.1780   -8.9300 H   0  0  0  0  0  0  0  0  0  0  0  0
   21.1810   60.3370   -9.9700 H   0  0  0  0  0  0  0  0  0  0  0  0
   20.2460   58.9890  -10.7290 H   0  0  0  0  0  0  0  0  0  0  0  0
   20.5220   62.0470   -8.5480 H   0  0  0  0  0  0  0  0  0  0  0  0
   25.3360   62.3390   -7.7750 H   0  0  0  0  0  0  0  0  0  0  0  0
   23.7610   62.0970   -9.5410 H   0  0  0  0  0  0  0  0  0  0  0  0
   26.7310   63.1970   -6.5620 H   0  0  0  0  0  0  0  0  0  0  0  0
   26.9030   64.1830   -5.1140 H   0  0  0  0  0  0  0  0  0  0  0  0
   27.6100   62.3210   -4.0410 H   0  0  0  0  0  0  0  0  0  0  0  0
   27.0210   61.2700   -5.3530 H   0  0  0  0  0  0  0  0  0  0  0  0
   23.9390   62.0920   -2.9960 H   0  0  0  0  0  0  0  0  0  0  0  0
   25.4050   62.7980   -2.2530 H   0  0  0  0  0  0  0  0  0  0  0  0
   25.4100   64.5910   -3.6840 H   0  0  0  0  0  0  0  0  0  0  0  0
   23.6900   64.2780   -3.8090 H   0  0  0  0  0  0  0  0  0  0  0  0
  1  2  1  0  0  0  0
  2  6  1  0  0  0  0
  2  3  2  0  0  0  0
  3  4  1  0  0  0  0
  4  7  1  0  0  0  0
  5  4  1  0  0  0  0
  6  5  2  0  0  0  0
  7 27  1  0  0  0  0
  8  3  1  0  0  0  0
  8 10  1  0  0  0  0
  9  8  2  0  0  0  0
 10 30  1  0  0  0  0
 10 11  1  0  0  0  0
 11 12  1  0  0  0  0
 12 13  2  0  0  0  0
 12 16  1  0  0  0  0
 13 14  1  0  0  0  0
 14 15  1  0  0  0  0
 16 15  2  0  0  0  0
 17 16  1  0  0  0  0
 17 20  1  0  0  0  0
 18 17  2  0  0  0  0
 19 11  2  0  0  0  0
 19 18  1  0  0  0  0
 20 25  1  0  0  0  0
 21 20  1  0  0  0  0
 21 34  1  0  0  0  0
 21 22  1  0  0  0  0
 22 35  1  0  0  0  0
 22 23  1  0  0  0  0
 23 24  1  0  0  0  0
 24 37  1  0  0  0  0
 24 38  1  0  0  0  0
 25 40  1  0  0  0  0
 25 39  1  0  0  0  0
 25 24  1  0  0  0  0
 26  6  1  0  0  0  0
 28  7  1  0  0  0  0
 29  7  1  0  0  0  0
 31 18  1  0  0  0  0
 32 19  1  0  0  0  0
 33 21  1  0  0  0  0
 36 22  1  0  0  0  0
M  END
>  <Pose>
1

>  <Score>
-6.97

$$$$
