
 OpenBabel03202210193D

 50 53  0  0  0  0  0  0  0  0999 V2000
   15.0950   63.0930  -10.6510 I   0  0  0  0  0  0  0  0  0  0  0  0
   17.1790   63.1890  -10.8010 C   0  0  0  0  0  0  0  0  0  0  0  0
   17.9980   62.2100  -10.3300 C   0  0  0  0  0  0  0  0  0  0  0  0
   19.3890   62.3360  -10.4610 C   0  0  0  0  0  0  0  0  0  0  0  0
   19.9870   63.4110  -11.0490 C   0  0  0  0  0  0  0  0  0  0  0  0
   19.1200   64.4060  -11.5250 C   0  0  0  0  0  0  0  0  0  0  0  0
   17.7570   64.2870  -11.3990 C   0  0  0  0  0  0  0  0  0  0  0  0
   21.3940   63.6380  -11.2320 C   0  0  0  0  0  0  0  0  0  0  0  0
   22.3210   63.5080  -10.3900 N   0  0  0  0  0  0  0  0  0  0  0  0
   22.1380   63.1120   -9.1070 N   0  0  0  0  0  0  0  0  0  0  0  0
   22.7270   63.8870   -8.0350 C   0  0  0  0  0  0  0  0  0  0  0  0
   22.5420   65.2170   -7.9820 N   0  0  0  0  0  4  0  0  0  0  0  0
   23.0780   65.9530   -7.0000 C   0  0  0  0  0  0  0  0  0  0  0  0
   23.8030   65.2980   -6.0790 N   0  0  0  0  0  0  0  0  0  0  0  0
   24.0100   63.9660   -6.0980 C   0  0  0  0  0  0  0  0  0  0  0  0
   23.4550   63.2620   -7.1020 N   0  0  0  0  0  0  0  0  0  0  0  0
   24.7890   63.3500   -5.0820 N   0  0  0  0  0  0  0  0  0  0  0  0
   24.3160   63.3540   -3.7170 C   0  0  0  0  0  0  0  0  0  0  0  0
   25.5760   63.4860   -2.8500 C   0  0  0  0  0  0  0  0  0  0  0  0
   26.3120   62.3420   -3.0180 O   0  0  0  0  0  0  0  0  0  0  0  0
   26.7640   62.0890   -4.2820 C   0  0  0  0  0  0  0  0  0  0  0  0
   26.0300   62.7340   -5.4010 C   0  0  0  0  0  0  0  0  0  0  0  0
   22.8950   67.3670   -6.9230 N   0  0  0  0  0  0  0  0  0  0  0  0
   23.9300   68.3110   -7.2190 C   0  0  0  0  0  0  0  0  0  0  0  0
   23.4080   69.7010   -6.8480 C   0  0  0  0  0  0  0  0  0  0  0  0
   22.8610   69.7160   -5.5750 O   0  0  0  0  0  0  0  0  0  0  0  0
   21.7350   68.9410   -5.4540 C   0  0  0  0  0  0  0  0  0  0  0  0
   21.5970   67.8880   -6.5240 C   0  0  0  0  0  0  0  0  0  0  0  0
   17.5540   61.3470   -9.8590 H   0  0  0  0  0  0  0  0  0  0  0  0
   19.9350   61.5250  -10.0660 H   0  0  0  0  0  0  0  0  0  0  0  0
   19.5160   65.2870  -12.0020 H   0  0  0  0  0  0  0  0  0  0  0  0
   17.1560   65.1030  -11.7940 H   0  0  0  0  0  0  0  0  0  0  0  0
   21.7550   63.9760  -12.2410 H   0  0  0  0  0  0  0  0  0  0  0  0
   21.5980   62.2470   -8.8860 H   0  0  0  0  0  0  0  0  0  0  0  0
   23.8070   62.4050   -3.4980 H   0  0  0  0  0  0  0  0  0  0  0  0
   23.6820   64.2390   -3.4980 H   0  0  0  0  0  0  0  0  0  0  0  0
   26.0840   64.4080   -3.1380 H   0  0  0  0  0  0  0  0  0  0  0  0
   25.2290   63.5280   -1.8080 H   0  0  0  0  0  0  0  0  0  0  0  0
   27.8820   62.2460   -4.3550 H   0  0  0  0  0  0  0  0  0  0  0  0
   26.6640   60.9720   -4.4340 H   0  0  0  0  0  0  0  0  0  0  0  0
   25.8380   62.0260   -6.2600 H   0  0  0  0  0  0  0  0  0  0  0  0
   26.7350   63.4930   -5.8560 H   0  0  0  0  0  0  0  0  0  0  0  0
   24.8930   68.1050   -6.7410 H   0  0  0  0  0  0  0  0  0  0  0  0
   24.0660   68.3160   -8.3300 H   0  0  0  0  0  0  0  0  0  0  0  0
   22.6730   70.0020   -7.6390 H   0  0  0  0  0  0  0  0  0  0  0  0
   24.2370   70.4360   -6.8670 H   0  0  0  0  0  0  0  0  0  0  0  0
   20.7880   69.5470   -5.4870 H   0  0  0  0  0  0  0  0  0  0  0  0
   21.7970   68.4080   -4.4670 H   0  0  0  0  0  0  0  0  0  0  0  0
   21.0840   68.3380   -7.4010 H   0  0  0  0  0  0  0  0  0  0  0  0
   20.9600   67.0760   -6.0850 H   0  0  0  0  0  0  0  0  0  0  0  0
  2  1  1  0  0  0  0
  2  3  1  0  0  0  0
  3 29  1  0  0  0  0
  4  3  2  0  0  0  0
  4 30  1  0  0  0  0
  5  4  1  0  0  0  0
  6  7  1  0  0  0  0
  6  5  2  0  0  0  0
  7  2  2  0  0  0  0
  8  5  1  0  0  0  0
  8  9  2  0  0  0  0
  9 10  1  0  0  0  0
 10 34  1  0  0  0  0
 10 11  1  0  0  0  0
 11 12  2  0  0  0  0
 11 16  1  0  0  0  0
 12 13  2  0  0  0  0
 13 23  1  0  0  0  0
 13 14  1  0  0  0  0
 15 14  2  0  0  0  0
 15 17  1  0  0  0  0
 16 15  1  0  0  0  0
 17 18  1  0  0  0  0
 18 36  1  0  0  0  0
 18 35  1  0  0  0  0
 18 19  1  0  0  0  0
 19 38  1  0  0  0  0
 20 19  1  0  0  0  0
 21 20  1  0  0  0  0
 22 17  1  0  0  0  0
 22 21  1  0  0  0  0
 23 28  1  0  0  0  0
 24 23  1  0  0  0  0
 24 25  1  0  0  0  0
 24 43  1  0  0  0  0
 25 26  1  0  0  0  0
 26 27  1  0  0  0  0
 27 48  1  0  0  0  0
 28 50  1  0  0  0  0
 28 27  1  0  0  0  0
 31  6  1  0  0  0  0
 32  7  1  0  0  0  0
 33  8  1  0  0  0  0
 37 19  1  0  0  0  0
 39 21  1  0  0  0  0
 40 21  1  0  0  0  0
 41 22  1  0  0  0  0
 42 22  1  0  0  0  0
 44 24  1  0  0  0  0
 45 25  1  0  0  0  0
 46 25  1  0  0  0  0
 47 27  1  0  0  0  0
 49 28  1  0  0  0  0
M  END
>  <Pose>
1

>  <Score>
-8.30

$$$$
