
 OpenBabel03202210193D

 40 43  0  0  0  0  0  0  0  0999 V2000
   23.7700   63.4710  -11.7340 I   0  0  0  0  0  0  0  0  0  0  0  0
   21.7660   62.9880  -12.0390 C   0  0  0  0  0  0  0  0  0  0  0  0
   21.3090   62.1460  -13.0530 C   0  0  0  0  0  0  0  0  0  0  0  0
   19.9800   62.0700  -12.9710 N   0  0  0  0  0  0  0  0  0  0  0  0
   19.6060   62.8160  -11.9680 N   0  0  0  0  0  0  0  0  0  0  0  0
   20.6820   63.4120  -11.3510 C   0  0  0  0  0  0  0  0  0  0  0  0
   20.5340   64.2870  -10.1740 C   0  0  0  0  0  0  0  0  0  0  0  0
   19.3400   64.4080   -9.7290 O   0  0  0  0  0  0  0  0  0  0  0  0
   21.5760   64.9570   -9.5470 N   0  0  0  0  0  0  0  0  0  0  0  0
   22.3800   64.4840   -8.4840 C   0  0  0  0  0  0  0  0  0  0  0  0
   22.5910   65.3500   -7.4060 C   0  0  0  0  0  0  0  0  0  0  0  0
   22.1600   66.6020   -7.1730 N   0  0  0  0  0  0  0  0  0  0  0  0
   22.6270   66.9900   -6.0230 O   0  0  0  0  0  0  0  0  0  0  0  0
   23.3450   66.0510   -5.4880 N   0  0  0  0  0  0  0  0  0  0  0  0
   23.3520   64.9950   -6.3240 C   0  0  0  0  0  0  0  0  0  0  0  0
   23.9370   63.7480   -6.2770 C   0  0  0  0  0  0  0  0  0  0  0  0
   23.7230   62.9060   -7.3390 C   0  0  0  0  0  0  0  0  0  0  0  0
   22.9470   63.2600   -8.4500 C   0  0  0  0  0  0  0  0  0  0  0  0
   24.7220   63.4000   -5.1480 N   0  0  0  0  0  0  0  0  0  0  0  0
   24.1400   63.3810   -3.8220 C   0  0  0  0  0  0  0  0  0  0  0  0
   25.1620   62.9030   -2.8510 C   0  0  0  0  0  0  0  0  0  0  0  0
   25.8160   61.7490   -3.2340 O   0  0  0  0  0  0  0  0  0  0  0  0
   26.4400   61.8100   -4.4390 C   0  0  0  0  0  0  0  0  0  0  0  0
   26.1250   63.0470   -5.2430 C   0  0  0  0  0  0  0  0  0  0  0  0
   19.1270   61.2770  -13.8670 C   0  0  0  0  0  0  0  0  0  0  0  0
   21.9070   61.6250  -13.7970 H   0  0  0  0  0  0  0  0  0  0  0  0
   21.7820   65.9310   -9.9340 H   0  0  0  0  0  0  0  0  0  0  0  0
   24.1830   61.9300   -7.2990 H   0  0  0  0  0  0  0  0  0  0  0  0
   22.8500   62.5100   -9.2260 H   0  0  0  0  0  0  0  0  0  0  0  0
   23.2690   62.6950   -3.8700 H   0  0  0  0  0  0  0  0  0  0  0  0
   23.8300   64.4090   -3.5060 H   0  0  0  0  0  0  0  0  0  0  0  0
   24.6730   62.7870   -1.8630 H   0  0  0  0  0  0  0  0  0  0  0  0
   25.9420   63.7070   -2.7590 H   0  0  0  0  0  0  0  0  0  0  0  0
   27.5380   61.7980   -4.2740 H   0  0  0  0  0  0  0  0  0  0  0  0
   26.2150   60.8980   -5.0550 H   0  0  0  0  0  0  0  0  0  0  0  0
   26.3250   62.8060   -6.3080 H   0  0  0  0  0  0  0  0  0  0  0  0
   26.7700   63.9020   -4.9720 H   0  0  0  0  0  0  0  0  0  0  0  0
   19.7200   60.4220  -14.2110 H   0  0  0  0  0  0  0  0  0  0  0  0
   18.2910   60.8910  -13.2390 H   0  0  0  0  0  0  0  0  0  0  0  0
   18.7860   61.9180  -14.6960 H   0  0  0  0  0  0  0  0  0  0  0  0
  2  1  1  0  0  0  0
  2  6  1  0  0  0  0
  3  4  1  0  0  0  0
  3  2  2  0  0  0  0
  4  5  1  0  0  0  0
  5  6  2  0  0  0  0
  6  7  1  0  0  0  0
  7  8  2  0  0  0  0
  7  9  1  0  0  0  0
  9 10  1  0  0  0  0
 10 18  2  0  0  0  0
 10 11  1  0  0  0  0
 11 12  2  0  0  0  0
 11 15  1  0  0  0  0
 12 13  1  0  0  0  0
 13 14  1  0  0  0  0
 15 16  1  0  0  0  0
 15 14  2  0  0  0  0
 16 19  1  0  0  0  0
 17 28  1  0  0  0  0
 17 16  2  0  0  0  0
 18 17  1  0  0  0  0
 19 20  1  0  0  0  0
 20 31  1  0  0  0  0
 20 21  1  0  0  0  0
 21 33  1  0  0  0  0
 21 32  1  0  0  0  0
 22 21  1  0  0  0  0
 23 34  1  0  0  0  0
 23 22  1  0  0  0  0
 24 19  1  0  0  0  0
 24 37  1  0  0  0  0
 24 23  1  0  0  0  0
 25 39  1  0  0  0  0
 25  4  1  0  0  0  0
 26  3  1  0  0  0  0
 27  9  1  0  0  0  0
 29 18  1  0  0  0  0
 30 20  1  0  0  0  0
 35 23  1  0  0  0  0
 36 24  1  0  0  0  0
 38 25  1  0  0  0  0
 40 25  1  0  0  0  0
M  END
>  <Pose>
1

>  <Score>
-7.46

$$$$
