
 OpenBabel03202210193D

 35 39  0  0  0  0  0  0  0  0999 V2000
   23.0660   64.5950   -6.1240 B   0  0  0  0  0  0  0  0  0  0  0  0
   21.3370   63.9050   -6.5340 C   0  0  0  0  0  0  0  0  0  0  0  0
   20.9770   63.5590   -7.8500 C   0  0  0  0  0  0  0  0  0  0  0  0
   19.7520   63.0620   -8.1840 C   0  0  0  0  0  0  0  0  0  0  0  0
   18.8210   62.8960   -7.1570 C   0  0  0  0  0  0  0  0  0  0  0  0
   19.1690   63.2310   -5.8820 C   0  0  0  0  0  0  0  0  0  0  0  0
   20.4080   63.7330   -5.5370 C   0  0  0  0  0  0  0  0  0  0  0  0
   20.6960   64.0570   -4.2010 O   0  0  0  0  0  0  0  0  0  0  0  0
   17.9040   63.0070   -4.4720 B   0  0  0  0  0  0  0  0  0  0  0  0
   19.4100   62.7130   -9.5570 C   0  0  0  0  0  0  0  0  0  0  0  0
   19.1570   61.3090   -9.5680 O   0  0  0  0  0  0  0  0  0  0  0  0
   17.8780   61.0200   -9.9590 C   0  0  0  0  0  0  0  0  0  0  0  0
   17.3880   59.8720  -10.0580 O   0  0  0  0  0  0  0  0  0  0  0  0
   17.2440   62.2970  -10.2220 C   0  0  0  0  0  0  0  0  0  0  0  0
   18.1250   63.3300   -9.9940 C   0  0  0  0  0  0  0  0  0  0  0  0
   17.6900   64.5980  -10.1940 C   0  0  0  0  0  0  0  0  0  0  0  0
   16.3970   64.8260  -10.6150 C   0  0  0  0  0  0  0  0  0  0  0  0
   15.5110   63.7940  -10.8450 C   0  0  0  0  0  0  0  0  0  0  0  0
   15.9350   62.5070  -10.6470 C   0  0  0  0  0  0  0  0  0  0  0  0
   20.4890   62.9450  -10.5100 C   0  0  0  0  0  0  0  0  0  0  0  0
   21.6980   63.4460  -10.1140 C   0  0  0  0  0  0  0  0  0  0  0  0
   22.7300   63.6640  -11.0500 C   0  0  0  0  0  0  0  0  0  0  0  0
   22.5000   63.3630  -12.3720 C   0  0  0  0  0  0  0  0  0  0  0  0
   21.2760   62.8550  -12.7820 C   0  0  0  0  0  0  0  0  0  0  0  0
   20.2800   62.6470  -11.8690 C   0  0  0  0  0  0  0  0  0  0  0  0
   20.9420   62.4340  -14.6090 B   0  0  0  0  0  0  0  0  0  0  0  0
   23.5230   63.5820  -13.2810 O   0  0  0  0  0  0  0  0  0  0  0  0
   24.4080   64.3660  -10.4560 B   0  0  0  0  0  0  0  0  0  0  0  0
   21.9860   63.7660   -8.7940 O   0  0  0  0  0  0  0  0  0  0  0  0
   17.8550   62.5000   -7.4480 H   0  0  0  0  0  0  0  0  0  0  0  0
   18.3510   65.4310  -10.0260 H   0  0  0  0  0  0  0  0  0  0  0  0
   16.0130   65.8340  -10.7860 H   0  0  0  0  0  0  0  0  0  0  0  0
   14.4840   63.9640  -11.1790 H   0  0  0  0  0  0  0  0  0  0  0  0
   15.2620   61.6840  -10.8200 H   0  0  0  0  0  0  0  0  0  0  0  0
   19.3060   62.2540  -12.1240 H   0  0  0  0  0  0  0  0  0  0  0  0
  2  1  1  0  0  0  0
  2  7  1  0  0  0  0
  3  2  2  0  0  0  0
  4  3  1  0  0  0  0
  4  5  2  0  0  0  0
  5  6  1  0  0  0  0
  6  7  2  0  0  0  0
  6  9  1  0  0  0  0
  7  8  1  0  0  0  0
 10  4  1  0  0  0  0
 11 10  1  0  0  0  0
 12 11  1  0  0  0  0
 13 12  2  0  0  0  0
 14 15  1  0  0  0  0
 14 12  1  0  0  0  0
 15 10  1  0  0  0  0
 16 31  1  0  0  0  0
 16 15  2  0  0  0  0
 17 16  1  0  0  0  0
 18 19  1  0  0  0  0
 18 17  2  0  0  0  0
 19 14  2  0  0  0  0
 20 21  1  0  0  0  0
 20 10  1  0  0  0  0
 21 29  1  0  0  0  0
 22 28  1  0  0  0  0
 22 21  2  0  0  0  0
 23 22  1  0  0  0  0
 24 23  2  0  0  0  0
 24 25  1  0  0  0  0
 25 20  2  0  0  0  0
 26 24  1  0  0  0  0
 27 23  1  0  0  0  0
 29  3  1  0  0  0  0
 30  5  1  0  0  0  0
 32 17  1  0  0  0  0
 33 18  1  0  0  0  0
 34 19  1  0  0  0  0
 35 25  1  0  0  0  0
M  END
>  <Pose>
1

>  <Score>
-3.50

$$$$
