
 OpenBabel03202210193D

 35 39  0  0  0  0  0  0  0  0999 V2000
   24.8370   63.3470   -6.0030 I   0  0  0  0  0  0  0  0  0  0  0  0
   22.8540   63.8910   -6.4850 C   0  0  0  0  0  0  0  0  0  0  0  0
   22.4880   63.8330   -7.8260 C   0  0  0  0  0  0  0  0  0  0  0  0
   21.2200   64.1770   -8.1660 C   0  0  0  0  0  0  0  0  0  0  0  0
   20.3320   64.5750   -7.1630 C   0  0  0  0  0  0  0  0  0  0  0  0
   20.6850   64.6350   -5.8330 C   0  0  0  0  0  0  0  0  0  0  0  0
   21.9770   64.2830   -5.4950 C   0  0  0  0  0  0  0  0  0  0  0  0
   22.3550   64.3370   -4.1620 O   0  0  0  0  0  0  0  0  0  0  0  0
   19.2990   65.2450   -4.3500 I   0  0  0  0  0  0  0  0  0  0  0  0
   20.7340   64.1530   -9.5330 C   0  0  0  0  0  0  0  0  0  0  0  0
   20.2850   65.4500   -9.9510 O   0  0  0  0  0  0  0  0  0  0  0  0
   18.9730   65.4400  -10.3480 C   0  0  0  0  0  0  0  0  0  0  0  0
   18.2520   66.3870  -10.7730 O   0  0  0  0  0  0  0  0  0  0  0  0
   18.5110   64.0680  -10.1910 C   0  0  0  0  0  0  0  0  0  0  0  0
   19.5390   63.3130   -9.7140 C   0  0  0  0  0  0  0  0  0  0  0  0
   19.3600   61.9510   -9.4730 C   0  0  0  0  0  0  0  0  0  0  0  0
   18.1470   61.3400   -9.7090 C   0  0  0  0  0  0  0  0  0  0  0  0
   17.0980   62.1140  -10.1970 C   0  0  0  0  0  0  0  0  0  0  0  0
   17.2710   63.4540  -10.4350 C   0  0  0  0  0  0  0  0  0  0  0  0
   15.9620   64.3990  -11.0380 Cl  0  0  0  0  0  0  0  0  0  0  0  0
   15.5410   61.4030  -10.5170 Cl  0  0  0  0  0  0  0  0  0  0  0  0
   17.9580   59.6300   -9.3970 Cl  0  0  0  0  0  0  0  0  0  0  0  0
   20.7090   61.0490   -8.8670 Cl  0  0  0  0  0  0  0  0  0  0  0  0
   21.7840   63.7110  -10.4910 C   0  0  0  0  0  0  0  0  0  0  0  0
   23.0400   63.3760  -10.1170 C   0  0  0  0  0  0  0  0  0  0  0  0
   23.9250   62.9800  -11.1180 C   0  0  0  0  0  0  0  0  0  0  0  0
   23.5720   62.9190  -12.4470 C   0  0  0  0  0  0  0  0  0  0  0  0
   22.2820   63.2690  -12.7910 C   0  0  0  0  0  0  0  0  0  0  0  0
   21.3850   63.6640  -11.8330 C   0  0  0  0  0  0  0  0  0  0  0  0
   21.7110   63.1870  -14.8170 I   0  0  0  0  0  0  0  0  0  0  0  0
   24.4420   62.5290  -13.4320 O   0  0  0  0  0  0  0  0  0  0  0  0
   25.8760   62.4560  -10.5500 I   0  0  0  0  0  0  0  0  0  0  0  0
   23.4290   63.4240   -8.7910 O   0  0  0  0  0  0  0  0  0  0  0  0
   19.3070   64.8580   -7.3970 H   0  0  0  0  0  0  0  0  0  0  0  0
   20.3960   63.9270  -12.1330 H   0  0  0  0  0  0  0  0  0  0  0  0
  2  1  1  0  0  0  0
  2  7  1  0  0  0  0
  3  2  2  0  0  0  0
  4  3  1  0  0  0  0
  4  5  2  0  0  0  0
  5  6  1  0  0  0  0
  6  7  2  0  0  0  0
  6  9  1  0  0  0  0
  7  8  1  0  0  0  0
 10  4  1  0  0  0  0
 11 10  1  0  0  0  0
 12 14  1  0  0  0  0
 12 11  1  0  0  0  0
 13 12  2  0  0  0  0
 14 15  1  0  0  0  0
 15 10  1  0  0  0  0
 15 16  2  0  0  0  0
 16 23  1  0  0  0  0
 17 16  1  0  0  0  0
 17 22  1  0  0  0  0
 18 17  2  0  0  0  0
 19 18  1  0  0  0  0
 19 14  2  0  0  0  0
 20 19  1  0  0  0  0
 21 18  1  0  0  0  0
 24 25  1  0  0  0  0
 24 10  1  0  0  0  0
 25 33  1  0  0  0  0
 26 32  1  0  0  0  0
 26 25  2  0  0  0  0
 27 26  1  0  0  0  0
 28 27  2  0  0  0  0
 28 29  1  0  0  0  0
 29 24  2  0  0  0  0
 30 28  1  0  0  0  0
 31 27  1  0  0  0  0
 33  3  1  0  0  0  0
 34  5  1  0  0  0  0
 35 29  1  0  0  0  0
M  END
>  <Pose>
1

>  <Score>
-4.30

$$$$
