
 OpenBabel03202210193D

 38 41  0  0  0  0  0  0  0  0999 V2000
   22.0810   68.0110   -6.4700 S   0  0  0  0  0  0  0  0  0  0  0  0
   22.8110   69.2940   -6.7560 O   0  0  0  0  0  0  0  0  0  0  0  0
   20.6900   68.0970   -7.0480 O   0  0  0  0  0  0  0  0  0  0  0  0
   22.0310   67.8070   -4.8020 O   0  0  0  0  0  0  0  0  0  0  0  0
   22.9790   66.7600   -7.2190 O   0  0  0  0  0  0  0  0  0  0  0  0
   23.2660   65.5770   -6.5470 C   0  0  0  0  0  0  0  0  0  0  0  0
   24.1440   65.5200   -5.4570 C   0  0  0  0  0  0  0  0  0  0  0  0
   24.1520   64.1950   -5.0820 C   0  0  0  0  0  0  0  0  0  0  0  0
   23.3340   63.5150   -5.8970 N   0  0  0  0  0  0  0  0  0  0  0  0
   22.7590   64.3360   -6.8280 C   0  0  0  0  0  0  0  0  0  0  0  0
   21.8530   63.9040   -7.8860 C   0  0  0  0  0  0  0  0  0  0  0  0
   20.5590   63.5520   -7.6500 N   0  0  0  0  0  0  0  0  0  0  0  0
   19.9520   63.1810   -8.7880 C   0  0  0  0  0  0  0  0  0  0  0  0
   20.8520   63.2800   -9.8270 C   0  0  0  0  0  0  0  0  0  0  0  0
   22.0300   63.7340   -9.2230 C   0  0  0  0  0  0  0  0  0  0  0  0
   23.1910   63.9570   -9.9430 O   0  0  0  0  0  0  0  0  0  0  0  0
   23.5090   63.1780  -11.4260 S   0  0  0  0  0  0  0  0  0  0  0  0
   23.6660   61.6980  -11.2320 O   0  0  0  0  0  0  0  0  0  0  0  0
   24.7740   63.6840  -12.0590 O   0  0  0  0  0  0  0  0  0  0  0  0
   22.2590   63.5210  -12.5220 O   0  0  0  0  0  0  0  0  0  0  0  0
   20.5140   62.9640  -11.1270 C   0  0  0  0  0  0  0  0  0  0  0  0
   19.2340   62.5280  -11.4330 C   0  0  0  0  0  0  0  0  0  0  0  0
   18.3170   62.4230  -10.3990 C   0  0  0  0  0  0  0  0  0  0  0  0
   18.6740   62.7440   -9.1060 C   0  0  0  0  0  0  0  0  0  0  0  0
   17.3630   62.5770   -7.7310 B   0  0  0  0  0  0  0  0  0  0  0  0
   18.7410   62.0820  -13.2310 B   0  0  0  0  0  0  0  0  0  0  0  0
   24.9470   63.8140   -4.0030 C   0  0  0  0  0  0  0  0  0  0  0  0
   25.6930   64.7560   -3.3510 C   0  0  0  0  0  0  0  0  0  0  0  0
   25.6870   66.1030   -3.7270 C   0  0  0  0  0  0  0  0  0  0  0  0
   24.8880   66.4810   -4.8100 C   0  0  0  0  0  0  0  0  0  0  0  0
   26.7460   67.3630   -2.7800 B   0  0  0  0  0  0  0  0  0  0  0  0
   24.9780   61.9980   -3.4650 B   0  0  0  0  0  0  0  0  0  0  0  0
   23.1420   62.4740   -5.8430 H   0  0  0  0  0  0  0  0  0  0  0  0
   20.0740   63.5590   -6.7260 H   0  0  0  0  0  0  0  0  0  0  0  0
   21.2490   63.0580  -11.8930 H   0  0  0  0  0  0  0  0  0  0  0  0
   17.3040   62.0780  -10.6430 H   0  0  0  0  0  0  0  0  0  0  0  0
   26.3220   64.5000   -2.5090 H   0  0  0  0  0  0  0  0  0  0  0  0
   24.8610   67.5170   -5.1310 H   0  0  0  0  0  0  0  0  0  0  0  0
  1  4  1  0  0  0  0
  2  1  1  0  0  0  0
  3  1  1  0  0  0  0
  5  6  1  0  0  0  0
  5  1  1  0  0  0  0
  6  7  1  0  0  0  0
  7  8  2  0  0  0  0
  7 30  1  0  0  0  0
  8 27  1  0  0  0  0
  9 33  1  0  0  0  0
  9  8  1  0  0  0  0
 10  6  2  0  0  0  0
 10  9  1  0  0  0  0
 11 12  1  0  0  0  0
 11 10  1  0  0  0  0
 12 34  1  0  0  0  0
 13 12  1  0  0  0  0
 14 15  1  0  0  0  0
 14 13  2  0  0  0  0
 15 11  2  0  0  0  0
 16 15  1  0  0  0  0
 17 18  1  0  0  0  0
 17 16  1  0  0  0  0
 19 17  1  0  0  0  0
 20 17  1  0  0  0  0
 21 14  1  0  0  0  0
 22 21  2  0  0  0  0
 22 23  1  0  0  0  0
 23 24  2  0  0  0  0
 24 13  1  0  0  0  0
 24 25  1  0  0  0  0
 26 22  1  0  0  0  0
 27 32  1  0  0  0  0
 27 28  2  0  0  0  0
 28 37  1  0  0  0  0
 29 28  1  0  0  0  0
 29 31  1  0  0  0  0
 30 29  2  0  0  0  0
 35 21  1  0  0  0  0
 36 23  1  0  0  0  0
 38 30  1  0  0  0  0
M  END
>  <Pose>
1

>  <Score>
-5.84

$$$$
