
 OpenBabel03202210193D

 46 51  0  0  1  0  0  0  0  0999 V2000
   25.0020   63.0000   -2.9880 P   0  0  2  0  0  0  0  0  0  0  0  0
   24.7310   61.9750   -1.6130 S   0  0  0  0  0  0  0  0  0  0  0  0
   23.5870   62.9980   -3.9290 O   0  0  0  0  0  0  0  0  0  0  0  0
   23.9870   62.7910   -5.2460 C   0  0  2  0  0  0  0  0  0  0  0  0
   25.2130   63.6820   -5.4590 C   0  0  2  0  0  0  0  0  0  0  0  0
   25.1380   64.0420   -6.7770 O   0  0  0  0  0  0  0  0  0  0  0  0
   23.7940   64.2160   -7.1010 C   0  0  2  0  0  0  0  0  0  0  0  0
   22.9940   63.2920   -6.2510 C   0  0  2  0  0  0  0  0  0  0  0  0
   21.9460   63.9680   -5.6120 O   0  0  0  0  0  0  0  0  0  0  0  0
   23.5700   64.0130   -8.5300 N   0  0  0  0  0  0  0  0  0  0  0  0
   22.4000   63.7380   -9.1580 C   0  0  0  0  0  0  0  0  0  0  0  0
   22.5940   63.6160  -10.5170 C   0  0  0  0  0  0  0  0  0  0  0  0
   23.9140   63.8230  -10.7050 N   0  0  0  0  0  0  0  0  0  0  0  0
   24.4910   64.0620   -9.5090 C   0  0  0  0  0  0  0  0  0  0  0  0
   26.3380   64.4220   -9.1700 B   0  0  0  0  0  0  0  0  0  0  0  0
   21.5190   63.3350  -11.3360 C   0  0  0  0  0  0  0  0  0  0  0  0
   21.6830   63.2220  -12.5710 O   0  0  0  0  0  0  0  0  0  0  0  0
   20.2660   63.1730  -10.8510 N   0  0  0  0  0  0  0  0  0  0  0  0
   20.0990   63.2970   -9.5220 C   0  0  0  0  0  0  0  0  0  0  0  0
   18.7890   63.0950   -9.2990 N   0  0  0  0  0  0  0  0  0  0  0  0
   18.1200   62.8470  -10.4390 C   0  0  0  0  0  0  0  0  0  0  0  0
   19.0690   62.8970  -11.4380 C   0  0  0  0  0  0  0  0  0  0  0  0
   16.6840   62.5800  -10.5950 C   0  0  0  0  0  0  0  0  0  0  0  0
   16.2110   61.2870  -10.5680 C   0  0  0  0  0  0  0  0  0  0  0  0
   14.8590   61.0030  -10.7120 C   0  0  0  0  0  0  0  0  0  0  0  0
   13.9790   62.0460  -10.8860 C   0  0  0  0  0  0  0  0  0  0  0  0
   14.4140   63.3620  -10.9200 C   0  0  0  0  0  0  0  0  0  0  0  0
   15.7650   63.5850  -10.7710 C   0  0  0  0  0  0  0  0  0  0  0  0
   21.1490   63.5740   -8.6970 N   0  0  0  0  0  0  0  0  0  0  0  0
   26.4160   62.8340   -5.1220 C   0  0  0  0  0  0  0  0  0  0  0  0
   26.3090   62.3500   -3.8370 O   0  0  0  0  0  0  0  0  0  0  0  0
   25.4290   64.5650   -2.5140 O   0  0  0  0  0  0  0  0  0  0  0  0
   24.2160   61.7290   -5.4030 H   0  0  0  0  0  0  0  0  0  0  0  0
   25.1790   64.5840   -4.8380 H   0  0  0  0  0  0  0  0  0  0  0  0
   23.5740   65.3020   -6.8800 H   0  0  0  0  0  0  0  0  0  0  0  0
   22.6070   62.4560   -6.8360 H   0  0  0  0  0  0  0  0  0  0  0  0
   21.3820   63.3630   -5.0890 H   0  0  0  0  0  0  0  0  0  0  0  0
   18.9120   62.7480  -12.5050 H   0  0  0  0  0  0  0  0  0  0  0  0
   16.9010   60.4700  -10.4310 H   0  0  0  0  0  0  0  0  0  0  0  0
   14.4820   59.9870  -10.6910 H   0  0  0  0  0  0  0  0  0  0  0  0
   12.9220   61.8520  -11.0000 H   0  0  0  0  0  0  0  0  0  0  0  0
   13.6980   64.1700  -11.0580 H   0  0  0  0  0  0  0  0  0  0  0  0
   16.1200   64.6010  -10.7950 H   0  0  0  0  0  0  0  0  0  0  0  0
   21.0140   63.6680   -7.6650 H   0  0  0  0  0  0  0  0  0  0  0  0
   27.3760   63.3460   -5.3310 H   0  0  0  0  0  0  0  0  0  0  0  0
   26.3960   61.9470   -5.8180 H   0  0  0  0  0  0  0  0  0  0  0  0
  1 32  2  1  0  0  0
  1  2  1  0  0  0  0
  3  1  1  0  0  0  0
  4 33  1  6  0  0  0
  4  3  1  0  0  0  0
  5  4  1  0  0  0  0
  5 30  1  0  0  0  0
  5 34  1  1  0  0  0
  6  5  1  0  0  0  0
  7 35  1  1  0  0  0
  7  6  1  0  0  0  0
  7  8  1  0  0  0  0
  8 36  1  6  0  0  0
  8  9  1  0  0  0  0
  8  4  1  0  0  0  0
  9 37  1  0  0  0  0
 10  7  1  0  0  0  0
 11 29  1  0  0  0  0
 11 10  1  0  0  0  0
 12 11  2  0  0  0  0
 13 12  1  0  0  0  0
 13 14  2  0  0  0  0
 14 15  1  0  0  0  0
 14 10  1  0  0  0  0
 16 18  1  0  0  0  0
 16 12  1  0  0  0  0
 17 16  2  0  0  0  0
 18 19  1  0  0  0  0
 19 20  2  0  0  0  0
 19 29  1  0  0  0  0
 21 20  1  0  0  0  0
 22 18  1  0  0  0  0
 22 21  2  0  0  0  0
 23 24  1  0  0  0  0
 23 21  1  0  0  0  0
 24 39  1  0  0  0  0
 25 40  1  0  0  0  0
 25 24  2  0  0  0  0
 26 25  1  0  0  0  0
 27 26  2  0  0  0  0
 27 28  1  0  0  0  0
 28 23  2  0  0  0  0
 29 44  1  0  0  0  0
 30 31  1  0  0  0  0
 31  1  1  0  0  0  0
 38 22  1  0  0  0  0
 41 26  1  0  0  0  0
 42 27  1  0  0  0  0
 43 28  1  0  0  0  0
 45 30  1  0  0  0  0
 46 30  1  0  0  0  0
M  END
>  <Pose>
1

>  <Score>
-7.16

$$$$
