
 OpenBabel03202210193D

 54 57  0  0  0  0  0  0  0  0999 V2000
   21.9090   64.0320  -10.3140 S   0  0  0  0  0  0  0  0  0  0  0  0
   21.2500   65.3460  -10.7350 O   0  0  0  0  0  0  0  0  0  0  0  0
   23.0900   63.8960  -11.2470 O   0  0  0  0  0  0  0  0  0  0  0  0
   20.8020   62.8030  -10.5830 N   0  0  0  0  0  0  0  0  0  0  0  0
   19.8820   62.8660  -11.6270 C   0  0  0  0  0  0  0  0  0  0  0  0
   18.6210   63.5790  -11.3240 C   0  0  0  0  0  0  0  0  0  0  0  0
   17.9590   64.1350  -12.2330 O   0  0  0  0  0  0  0  0  0  0  0  0
   18.2150   63.5920   -9.9600 N   0  0  0  0  0  0  0  0  0  0  0  0
   18.8890   62.6990   -9.0890 C   0  0  0  0  0  0  0  0  0  0  0  0
   18.2790   62.2980   -8.0580 O   0  0  0  0  0  0  0  0  0  0  0  0
   20.2660   62.2330   -9.3550 C   0  0  0  0  0  0  0  0  0  0  0  0
   17.1600   64.4780   -9.5170 C   0  0  0  0  0  0  0  0  0  0  0  0
   16.3050   65.0240  -10.6080 C   0  0  0  0  0  0  0  0  0  0  0  0
   15.3520   64.0890  -11.2020 C   0  0  0  0  0  0  0  0  0  0  0  0
   14.5060   64.4530  -12.2130 C   0  0  0  0  0  0  0  0  0  0  0  0
   13.6350   63.5310  -12.7210 C   0  0  0  0  0  0  0  0  0  0  0  0
   13.5800   62.2270  -12.2410 C   0  0  0  0  0  0  0  0  0  0  0  0
   14.4360   61.8870  -11.2300 C   0  0  0  0  0  0  0  0  0  0  0  0
   15.3250   62.7890  -10.6960 C   0  0  0  0  0  0  0  0  0  0  0  0
   22.4530   64.2620   -8.6750 C   0  0  0  0  0  0  0  0  0  0  0  0
   22.1500   65.4730   -8.0390 C   0  0  0  0  0  0  0  0  0  0  0  0
   22.5770   65.8020   -6.7730 C   0  0  0  0  0  0  0  0  0  0  0  0
   23.3500   64.9140   -6.0570 C   0  0  0  0  0  0  0  0  0  0  0  0
   23.6560   63.7210   -6.6630 C   0  0  0  0  0  0  0  0  0  0  0  0
   23.2160   63.3900   -7.9560 C   0  0  0  0  0  0  0  0  0  0  0  0
   23.6220   61.6520   -8.6560 B   0  0  0  0  0  0  0  0  0  0  0  0
   23.6880   65.4740   -4.7250 C   0  0  0  0  0  0  0  0  0  0  0  0
   22.6460   66.5840   -4.5840 C   0  0  0  0  0  0  0  0  0  0  0  0
   22.3790   66.9660   -5.9670 N   0  0  0  0  0  0  0  0  0  0  0  0
   22.0110   68.2570   -6.3840 C   0  0  0  0  0  0  0  0  0  0  0  0
   20.7680   68.5640   -6.3950 O   0  0  0  0  0  0  0  0  0  0  0  0
   22.9410   69.3260   -6.8210 C   0  0  0  0  0  0  0  0  0  0  0  0
   19.5900   61.7750  -11.8790 H   0  0  0  0  0  0  0  0  0  0  0  0
   20.3280   63.2030  -12.5640 H   0  0  0  0  0  0  0  0  0  0  0  0
   20.8800   62.4460   -8.4650 H   0  0  0  0  0  0  0  0  0  0  0  0
   20.2400   61.1370   -9.4930 H   0  0  0  0  0  0  0  0  0  0  0  0
   17.6010   65.3120   -8.9120 H   0  0  0  0  0  0  0  0  0  0  0  0
   16.4790   63.9360   -8.8130 H   0  0  0  0  0  0  0  0  0  0  0  0
   16.9910   65.3650  -11.4170 H   0  0  0  0  0  0  0  0  0  0  0  0
   15.8120   65.9510  -10.2350 H   0  0  0  0  0  0  0  0  0  0  0  0
   14.5250   65.4430  -12.6000 H   0  0  0  0  0  0  0  0  0  0  0  0
   12.9400   63.7740  -13.5280 H   0  0  0  0  0  0  0  0  0  0  0  0
   12.8820   61.5000  -12.6530 H   0  0  0  0  0  0  0  0  0  0  0  0
   14.4280   60.8760  -10.8230 H   0  0  0  0  0  0  0  0  0  0  0  0
   15.9750   62.4600   -9.8980 H   0  0  0  0  0  0  0  0  0  0  0  0
   21.5320   66.1640   -8.6180 H   0  0  0  0  0  0  0  0  0  0  0  0
   24.2620   62.9790   -6.1500 H   0  0  0  0  0  0  0  0  0  0  0  0
   24.6910   65.9110   -4.6730 H   0  0  0  0  0  0  0  0  0  0  0  0
   23.5570   64.7280   -3.9090 H   0  0  0  0  0  0  0  0  0  0  0  0
   23.0710   67.4340   -4.0320 H   0  0  0  0  0  0  0  0  0  0  0  0
   21.7260   66.1730   -4.1510 H   0  0  0  0  0  0  0  0  0  0  0  0
   22.4070   70.3200   -6.8470 H   0  0  0  0  0  0  0  0  0  0  0  0
   23.2970   69.1890   -7.8620 H   0  0  0  0  0  0  0  0  0  0  0  0
   23.8240   69.3940   -6.1430 H   0  0  0  0  0  0  0  0  0  0  0  0
  1 20  1  0  0  0  0
  2  1  2  0  0  0  0
  3  1  2  0  0  0  0
  4  1  1  0  0  0  0
  4 11  1  0  0  0  0
  5  6  1  0  0  0  0
  5  4  1  0  0  0  0
  6  8  1  0  0  0  0
  7  6  2  0  0  0  0
  8 12  1  0  0  0  0
  8  9  1  0  0  0  0
  9 10  2  0  0  0  0
 11  9  1  0  0  0  0
 11 35  1  0  0  0  0
 12 37  1  0  0  0  0
 12 38  1  0  0  0  0
 13 40  1  0  0  0  0
 13 12  1  0  0  0  0
 14 19  1  0  0  0  0
 14 13  1  0  0  0  0
 15 14  2  0  0  0  0
 16 17  2  0  0  0  0
 16 15  1  0  0  0  0
 17 18  1  0  0  0  0
 18 44  1  0  0  0  0
 18 19  2  0  0  0  0
 19 45  1  0  0  0  0
 20 21  2  0  0  0  0
 20 25  1  0  0  0  0
 21 22  1  0  0  0  0
 22 23  2  0  0  0  0
 22 29  1  0  0  0  0
 23 27  1  0  0  0  0
 24 47  1  0  0  0  0
 24 23  1  0  0  0  0
 25 24  2  0  0  0  0
 26 25  1  0  0  0  0
 27 48  1  0  0  0  0
 27 28  1  0  0  0  0
 27 49  1  0  0  0  0
 28 51  1  0  0  0  0
 28 50  1  0  0  0  0
 29 28  1  0  0  0  0
 30 29  1  0  0  0  0
 31 30  2  0  0  0  0
 32 30  1  0  0  0  0
 32 54  1  0  0  0  0
 33  5  1  0  0  0  0
 34  5  1  0  0  0  0
 36 11  1  0  0  0  0
 39 13  1  0  0  0  0
 41 15  1  0  0  0  0
 42 16  1  0  0  0  0
 43 17  1  0  0  0  0
 46 21  1  0  0  0  0
 52 32  1  0  0  0  0
 53 32  1  0  0  0  0
M  END
>  <Pose>
1

>  <Score>
-4.80

$$$$
