
 OpenBabel03202210193D

 41 44  0  0  0  0  0  0  0  0999 V2000
   19.4450   62.2920  -10.8000 S   0  0  0  0  0  0  0  0  0  0  0  0
   18.9790   60.8720  -10.6450 O   0  0  0  0  0  0  0  0  0  0  0  0
   19.6900   62.5010  -12.2750 O   0  0  0  0  0  0  0  0  0  0  0  0
   20.8460   62.5120   -9.8850 N   0  0  0  0  0  0  0  0  0  0  0  0
   21.7370   63.5680  -10.2090 C   0  0  0  0  0  0  0  0  0  0  0  0
   21.4050   64.2780   -8.9550 C   0  0  0  0  0  0  0  0  0  0  0  0
   20.6480   63.0500   -8.5860 C   0  0  0  0  0  0  0  0  0  0  0  0
   22.5080   64.5490   -8.0530 N   0  0  0  0  0  0  0  0  0  0  0  0
   22.7770   65.6530   -7.4070 N   0  0  0  0  0  0  0  0  0  0  0  0
   23.8890   65.5040   -6.6730 N   0  0  0  0  0  0  0  0  0  0  0  0
   24.3560   64.2560   -6.8500 C   0  0  0  0  0  0  0  0  0  0  0  0
   23.4650   63.6620   -7.7320 C   0  0  0  0  0  0  0  0  0  0  0  0
   25.5750   63.6320   -6.2330 C   0  0  0  0  0  0  0  0  0  0  0  0
   25.2480   63.2820   -4.8630 N   0  0  0  0  0  0  0  0  0  0  0  0
   24.2150   63.8800   -4.0720 C   0  0  0  0  0  0  0  0  0  0  0  0
   24.2100   63.1380   -2.7660 C   0  0  0  0  0  0  0  0  0  0  0  0
   25.0810   61.9320   -2.9040 C   0  0  0  0  0  0  0  0  0  0  0  0
   25.9190   62.2800   -4.1050 C   0  0  0  0  0  0  0  0  0  0  0  0
   27.0170   61.7490   -4.3510 O   0  0  0  0  0  0  0  0  0  0  0  0
   18.1050   63.3230  -10.3020 C   0  0  0  0  0  0  0  0  0  0  0  0
   17.2560   64.4750  -11.2460 S   0  0  0  0  0  0  0  0  0  0  0  0
   16.1470   65.0290  -10.0710 C   0  0  0  0  0  0  0  0  0  0  0  0
   16.4810   64.2870   -8.9670 C   0  0  0  0  0  0  0  0  0  0  0  0
   17.4830   63.4160   -9.0920 C   0  0  0  0  0  0  0  0  0  0  0  0
   14.7620   66.3590  -10.2240 B   0  0  0  0  0  0  0  0  0  0  0  0
   21.4220   64.0690  -11.1640 H   0  0  0  0  0  0  0  0  0  0  0  0
   22.7960   63.2210  -10.3050 H   0  0  0  0  0  0  0  0  0  0  0  0
   20.8040   65.1850   -9.1650 H   0  0  0  0  0  0  0  0  0  0  0  0
   19.6070   63.1940   -8.2400 H   0  0  0  0  0  0  0  0  0  0  0  0
   21.1890   62.4450   -7.8230 H   0  0  0  0  0  0  0  0  0  0  0  0
   23.5630   62.6340   -8.0830 H   0  0  0  0  0  0  0  0  0  0  0  0
   25.8870   62.7270   -6.8040 H   0  0  0  0  0  0  0  0  0  0  0  0
   26.3710   64.3860   -6.2200 H   0  0  0  0  0  0  0  0  0  0  0  0
   24.4330   64.9570   -3.9030 H   0  0  0  0  0  0  0  0  0  0  0  0
   23.1930   63.7600   -4.5250 H   0  0  0  0  0  0  0  0  0  0  0  0
   24.5130   63.8020   -1.9280 H   0  0  0  0  0  0  0  0  0  0  0  0
   23.1820   62.7730   -2.4970 H   0  0  0  0  0  0  0  0  0  0  0  0
   25.7440   61.8230   -2.0080 H   0  0  0  0  0  0  0  0  0  0  0  0
   24.5290   60.9850   -3.0550 H   0  0  0  0  0  0  0  0  0  0  0  0
   15.9110   64.4390   -8.0290 H   0  0  0  0  0  0  0  0  0  0  0  0
   17.8320   62.7690   -8.2630 H   0  0  0  0  0  0  0  0  0  0  0  0
  1  2  2  0  0  0  0
  1 20  1  0  0  0  0
  1  4  1  0  0  0  0
  3  1  2  0  0  0  0
  4  7  1  0  0  0  0
  5  4  1  0  0  0  0
  5  6  1  0  0  0  0
  6  7  1  0  0  0  0
  6  8  1  0  0  0  0
  7 29  1  0  0  0  0
  7 30  1  0  0  0  0
  8 12  1  0  0  0  0
  8  9  1  0  0  0  0
  9 10  2  0  0  0  0
 11 10  1  0  0  0  0
 11 13  1  0  0  0  0
 12 11  2  0  0  0  0
 13 33  1  0  0  0  0
 13 14  1  0  0  0  0
 14 18  1  0  0  0  0
 14 15  1  0  0  0  0
 15 34  1  0  0  0  0
 15 16  1  0  0  0  0
 16 37  1  0  0  0  0
 16 36  1  0  0  0  0
 17 16  1  0  0  0  0
 17 38  1  0  0  0  0
 18 17  1  0  0  0  0
 19 18  2  0  0  0  0
 20 24  2  0  0  0  0
 21 20  1  0  0  0  0
 21 22  1  0  0  0  0
 22 23  2  0  0  0  0
 23 40  1  0  0  0  0
 24 23  1  0  0  0  0
 24 41  1  0  0  0  0
 25 22  1  0  0  0  0
 26  5  1  0  0  0  0
 27  5  1  0  0  0  0
 28  6  1  0  0  0  0
 31 12  1  0  0  0  0
 32 13  1  0  0  0  0
 35 15  1  0  0  0  0
 39 17  1  0  0  0  0
M  END
>  <Pose>
1

>  <Score>
-7.11

$$$$
