
 OpenBabel03202210193D

 60 64  0  0  0  0  0  0  0  0999 V2000
   23.0750   64.1530   -6.9490 S   0  0  0  0  0  0  0  0  0  0  0  0
   22.0810   64.6970   -5.9970 O   0  0  0  0  0  0  0  0  0  0  0  0
   23.4760   65.3470   -7.8230 O   0  0  0  0  0  0  0  0  0  0  0  0
   22.4200   63.0110   -8.0580 N   0  0  0  0  0  0  0  0  0  0  0  0
   23.3600   62.5040   -8.9970 C   0  0  0  0  0  0  0  0  0  0  0  0
   23.4960   63.3440  -10.2600 C   0  0  0  0  0  0  0  0  0  0  0  0
   22.2000   63.5650  -10.8070 N   0  0  0  0  0  0  0  0  0  0  0  0
   21.3030   64.2900   -9.8490 C   0  0  0  0  0  0  0  0  0  0  0  0
   21.1890   63.4230   -8.6420 C   0  0  0  0  0  0  0  0  0  0  0  0
   21.6480   63.2350  -12.0280 C   0  0  0  0  0  0  0  0  0  0  0  0
   22.3810   63.5650  -13.0740 O   0  0  0  0  0  0  0  0  0  0  0  0
   20.4120   62.5940  -12.3700 C   0  0  0  0  0  0  0  0  0  0  0  0
   19.2920   62.7150  -11.5100 N   0  0  0  0  0  0  0  0  0  0  0  0
   18.9100   61.8810  -10.5440 N   0  0  0  0  0  0  0  0  0  0  0  0
   17.8230   62.3450   -9.9140 C   0  0  0  0  0  0  0  0  0  0  0  0
   17.5120   63.5350  -10.5250 C   0  0  0  0  0  0  0  0  0  0  0  0
   18.4230   63.7610  -11.5120 C   0  0  0  0  0  0  0  0  0  0  0  0
   16.0420   64.6890  -10.0680 B   0  0  0  0  0  0  0  0  0  0  0  0
   24.5510   63.5940   -6.2280 C   0  0  0  0  0  0  0  0  0  0  0  0
   25.8080   63.9190   -6.7570 C   0  0  0  0  0  0  0  0  0  0  0  0
   26.9790   63.4690   -6.1790 C   0  0  0  0  0  0  0  0  0  0  0  0
   26.9570   62.6760   -5.0490 C   0  0  0  0  0  0  0  0  0  0  0  0
   25.7340   62.3550   -4.5290 C   0  0  0  0  0  0  0  0  0  0  0  0
   24.5630   62.8150   -5.1210 C   0  0  0  0  0  0  0  0  0  0  0  0
   23.3250   62.3780   -4.4540 C   0  0  0  0  0  0  0  0  0  0  0  0
   23.4030   62.6130   -2.9620 C   0  0  0  0  0  0  0  0  0  0  0  0
   24.6640   62.2290   -2.4500 N   0  0  0  0  0  0  0  0  0  0  0  0
   25.5440   61.5180   -3.3210 C   0  0  0  0  0  0  0  0  0  0  0  0
   25.2880   63.1240   -1.5400 C   0  0  0  0  0  0  0  0  0  0  0  0
   28.1480   62.2130   -4.4540 O   0  0  0  0  0  0  0  0  0  0  0  0
   28.8700   63.0980   -3.5860 C   0  0  0  0  0  0  0  0  0  0  0  0
   28.0250   63.9570   -6.9300 O   0  0  0  0  0  0  0  0  0  0  0  0
   27.5110   64.6030   -8.0600 C   0  0  0  0  0  0  0  0  0  0  0  0
   26.1070   64.6930   -7.8730 O   0  0  0  0  0  0  0  0  0  0  0  0
   24.3640   62.4540   -8.5300 H   0  0  0  0  0  0  0  0  0  0  0  0
   23.0570   61.4890   -9.3220 H   0  0  0  0  0  0  0  0  0  0  0  0
   24.2380   62.8570  -10.8740 H   0  0  0  0  0  0  0  0  0  0  0  0
   23.9110   64.3550  -10.0120 H   0  0  0  0  0  0  0  0  0  0  0  0
   20.2990   64.4090  -10.2930 H   0  0  0  0  0  0  0  0  0  0  0  0
   21.7120   65.2680   -9.6030 H   0  0  0  0  0  0  0  0  0  0  0  0
   20.5380   63.9160   -7.8960 H   0  0  0  0  0  0  0  0  0  0  0  0
   20.6350   62.4950   -8.9480 H   0  0  0  0  0  0  0  0  0  0  0  0
   20.5630   61.4600  -12.5280 H   0  0  0  0  0  0  0  0  0  0  0  0
   20.1180   62.9060  -13.4390 H   0  0  0  0  0  0  0  0  0  0  0  0
   17.2970   61.8630   -9.0820 H   0  0  0  0  0  0  0  0  0  0  0  0
   18.4410   64.6110  -12.1630 H   0  0  0  0  0  0  0  0  0  0  0  0
   22.3910   62.6760   -4.9100 H   0  0  0  0  0  0  0  0  0  0  0  0
   23.3380   61.2440   -4.5500 H   0  0  0  0  0  0  0  0  0  0  0  0
   23.3080   63.7280   -2.8310 H   0  0  0  0  0  0  0  0  0  0  0  0
   22.5350   62.1640   -2.4340 H   0  0  0  0  0  0  0  0  0  0  0  0
   26.4980   61.3390   -2.7950 H   0  0  0  0  0  0  0  0  0  0  0  0
   25.1440   60.5340   -3.6440 H   0  0  0  0  0  0  0  0  0  0  0  0
   25.6470   62.6500   -0.6040 H   0  0  0  0  0  0  0  0  0  0  0  0
   24.5780   63.9610   -1.3280 H   0  0  0  0  0  0  0  0  0  0  0  0
   26.1640   63.6060   -2.0340 H   0  0  0  0  0  0  0  0  0  0  0  0
   28.3920   64.0990   -3.5620 H   0  0  0  0  0  0  0  0  0  0  0  0
   29.9040   63.2350   -3.9550 H   0  0  0  0  0  0  0  0  0  0  0  0
   28.9710   62.6490   -2.5660 H   0  0  0  0  0  0  0  0  0  0  0  0
   27.7570   64.1130   -9.0120 H   0  0  0  0  0  0  0  0  0  0  0  0
   27.8900   65.6620   -8.0230 H   0  0  0  0  0  0  0  0  0  0  0  0
  1 19  1  0  0  0  0
  1  2  2  0  0  0  0
  3  1  2  0  0  0  0
  4  1  1  0  0  0  0
  5 35  1  0  0  0  0
  5  4  1  0  0  0  0
  6 38  1  0  0  0  0
  6  5  1  0  0  0  0
  7  6  1  0  0  0  0
  7  8  1  0  0  0  0
  8 40  1  0  0  0  0
  8  9  1  0  0  0  0
  9  4  1  0  0  0  0
  9 41  1  0  0  0  0
 10  7  1  0  0  0  0
 11 10  2  0  0  0  0
 12 10  1  0  0  0  0
 12 13  1  0  0  0  0
 13 14  1  0  0  0  0
 14 15  2  0  0  0  0
 15 45  1  0  0  0  0
 16 18  1  0  0  0  0
 16 15  1  0  0  0  0
 17 13  1  0  0  0  0
 17 16  2  0  0  0  0
 19 24  1  0  0  0  0
 20 19  2  0  0  0  0
 20 21  1  0  0  0  0
 21 22  2  0  0  0  0
 22 23  1  0  0  0  0
 22 30  1  0  0  0  0
 23 28  1  0  0  0  0
 24 23  2  0  0  0  0
 24 25  1  0  0  0  0
 25 26  1  0  0  0  0
 26 49  1  0  0  0  0
 26 27  1  0  0  0  0
 26 50  1  0  0  0  0
 27 29  1  0  0  0  0
 28 51  1  0  0  0  0
 28 27  1  0  0  0  0
 29 54  1  0  0  0  0
 29 53  1  0  0  0  0
 30 31  1  0  0  0  0
 31 56  1  0  0  0  0
 31 58  1  0  0  0  0
 32 21  1  0  0  0  0
 33 60  1  0  0  0  0
 33 34  1  0  0  0  0
 33 32  1  0  0  0  0
 34 20  1  0  0  0  0
 36  5  1  0  0  0  0
 37  6  1  0  0  0  0
 39  8  1  0  0  0  0
 42  9  1  0  0  0  0
 43 12  1  0  0  0  0
 44 12  1  0  0  0  0
 46 17  1  0  0  0  0
 47 25  1  0  0  0  0
 48 25  1  0  0  0  0
 52 28  1  0  0  0  0
 55 29  1  0  0  0  0
 57 31  1  0  0  0  0
 59 33  1  0  0  0  0
M  END
>  <Pose>
1

>  <Score>
-5.36

$$$$
