
 OpenBabel03202210193D

 47 50  0  0  0  0  0  0  0  0999 V2000
   20.7820   63.8070  -10.2250 S   0  0  0  0  0  0  0  0  0  0  0  0
   20.5980   65.2670  -10.3600 O   0  0  0  0  0  0  0  0  0  0  0  0
   21.5360   63.3380  -11.4630 O   0  0  0  0  0  0  0  0  0  0  0  0
   21.6800   63.3340   -8.8720 N   0  0  0  0  0  0  0  0  0  0  0  0
   21.0030   63.2030   -7.6580 C   0  0  0  0  0  0  0  0  0  0  0  0
   21.8090   63.3580   -6.4170 C   0  0  0  0  0  0  0  0  0  0  0  0
   22.9770   64.1680   -6.5590 N   0  0  0  0  0  0  0  0  0  0  0  0
   23.2690   64.7600   -7.8460 C   0  0  0  0  0  0  0  0  0  0  0  0
   23.0500   63.6470   -8.8690 C   0  0  0  0  0  0  0  0  0  0  0  0
   23.8650   64.4150   -5.4840 C   0  0  0  0  0  0  0  0  0  0  0  0
   23.8550   65.5320   -4.8750 O   0  0  0  0  0  0  0  0  0  0  0  0
   24.8330   63.4350   -5.0090 C   0  0  0  0  0  0  0  0  0  0  0  0
   24.5850   62.6170   -3.9220 C   0  0  0  0  0  0  0  0  0  0  0  0
   25.4910   61.6880   -3.4650 C   0  0  0  0  0  0  0  0  0  0  0  0
   26.7010   61.5770   -4.1320 C   0  0  0  0  0  0  0  0  0  0  0  0
   27.0020   62.3640   -5.2180 C   0  0  0  0  0  0  0  0  0  0  0  0
   26.0620   63.2790   -5.6370 C   0  0  0  0  0  0  0  0  0  0  0  0
   22.8970   62.8240   -3.0540 B   0  0  0  0  0  0  0  0  0  0  0  0
   19.2420   62.9560  -10.2610 C   0  0  0  0  0  0  0  0  0  0  0  0
   19.1490   61.6200   -9.9260 C   0  0  0  0  0  0  0  0  0  0  0  0
   17.9570   60.9260   -9.9440 C   0  0  0  0  0  0  0  0  0  0  0  0
   16.7870   61.5590  -10.3080 C   0  0  0  0  0  0  0  0  0  0  0  0
   16.8760   62.9010  -10.6450 C   0  0  0  0  0  0  0  0  0  0  0  0
   18.0710   63.5900  -10.6250 C   0  0  0  0  0  0  0  0  0  0  0  0
   15.5680   60.8840  -10.3370 O   0  0  0  0  0  0  0  0  0  0  0  0
   15.4370   59.4780  -10.2530 C   0  0  0  0  0  0  0  0  0  0  0  0
   16.6220   58.8430   -9.6240 C   0  0  0  0  0  0  0  0  0  0  0  0
   16.4690   57.6940   -9.1380 O   0  0  0  0  0  0  0  0  0  0  0  0
   17.8570   59.5490   -9.6010 N   0  0  0  0  0  0  0  0  0  0  0  0
   20.5050   62.1900   -7.6260 H   0  0  0  0  0  0  0  0  0  0  0  0
   20.1430   63.9350   -7.6440 H   0  0  0  0  0  0  0  0  0  0  0  0
   22.0320   62.3550   -5.9770 H   0  0  0  0  0  0  0  0  0  0  0  0
   21.1630   63.8590   -5.6360 H   0  0  0  0  0  0  0  0  0  0  0  0
   24.3020   65.1530   -7.8990 H   0  0  0  0  0  0  0  0  0  0  0  0
   22.5640   65.5700   -8.0660 H   0  0  0  0  0  0  0  0  0  0  0  0
   23.4010   64.0390   -9.8300 H   0  0  0  0  0  0  0  0  0  0  0  0
   23.6360   62.7560   -8.5270 H   0  0  0  0  0  0  0  0  0  0  0  0
   25.2810   61.0430   -2.5990 H   0  0  0  0  0  0  0  0  0  0  0  0
   27.4120   60.8360   -3.7580 H   0  0  0  0  0  0  0  0  0  0  0  0
   27.9660   62.2540   -5.7230 H   0  0  0  0  0  0  0  0  0  0  0  0
   26.2910   63.9010   -6.4890 H   0  0  0  0  0  0  0  0  0  0  0  0
   20.0560   61.1120   -9.6400 H   0  0  0  0  0  0  0  0  0  0  0  0
   15.9580   63.4030  -10.9320 H   0  0  0  0  0  0  0  0  0  0  0  0
   18.1390   64.6310  -10.8870 H   0  0  0  0  0  0  0  0  0  0  0  0
   15.3210   59.0310  -11.2780 H   0  0  0  0  0  0  0  0  0  0  0  0
   14.4990   59.2460   -9.7110 H   0  0  0  0  0  0  0  0  0  0  0  0
   18.7320   59.0560   -9.3240 H   0  0  0  0  0  0  0  0  0  0  0  0
  1  4  1  0  0  0  0
  2  1  2  0  0  0  0
  3  1  2  0  0  0  0
  4  9  1  0  0  0  0
  4  5  1  0  0  0  0
  5 31  1  0  0  0  0
  5 30  1  0  0  0  0
  5  6  1  0  0  0  0
  6 32  1  0  0  0  0
  6 33  1  0  0  0  0
  7  6  1  0  0  0  0
  7 10  1  0  0  0  0
  8  7  1  0  0  0  0
  9 37  1  0  0  0  0
  9  8  1  0  0  0  0
 10 12  1  0  0  0  0
 10 11  2  0  0  0  0
 12 13  1  0  0  0  0
 13 14  2  0  0  0  0
 13 18  1  0  0  0  0
 14 38  1  0  0  0  0
 15 39  1  0  0  0  0
 15 14  1  0  0  0  0
 16 15  2  0  0  0  0
 17 16  1  0  0  0  0
 17 12  2  0  0  0  0
 19  1  1  0  0  0  0
 19 20  1  0  0  0  0
 20 42  1  0  0  0  0
 21 20  2  0  0  0  0
 21 29  1  0  0  0  0
 22 21  1  0  0  0  0
 23 24  1  0  0  0  0
 23 22  2  0  0  0  0
 24 19  2  0  0  0  0
 25 22  1  0  0  0  0
 25 26  1  0  0  0  0
 26 46  1  0  0  0  0
 26 27  1  0  0  0  0
 27 29  1  0  0  0  0
 27 28  2  0  0  0  0
 29 47  1  0  0  0  0
 34  8  1  0  0  0  0
 35  8  1  0  0  0  0
 36  9  1  0  0  0  0
 40 16  1  0  0  0  0
 41 17  1  0  0  0  0
 43 23  1  0  0  0  0
 44 24  1  0  0  0  0
 45 26  1  0  0  0  0
M  END
>  <Pose>
1

>  <Score>
-7.08

$$$$
