
 OpenBabel03202210193D

 43 46  0  0  0  0  0  0  0  0999 V2000
   24.1440   63.3940   -4.2790 S   0  0  0  0  0  0  0  0  0  0  0  0
   22.9890   62.5760   -3.8010 O   0  0  0  0  0  0  0  0  0  0  0  0
   24.4920   64.4080   -3.1970 O   0  0  0  0  0  0  0  0  0  0  0  0
   23.6930   64.3020   -5.6710 N   0  0  0  0  0  0  0  0  0  0  0  0
   22.3000   64.5290   -5.7850 C   0  0  0  0  0  0  0  0  0  0  0  0
   21.6100   63.8880   -6.9400 C   0  0  0  0  0  0  0  0  0  0  0  0
   22.4150   63.8030   -8.1300 N   0  0  0  0  0  0  0  0  0  0  0  0
   23.7450   64.3640   -8.0500 C   0  0  0  0  0  0  0  0  0  0  0  0
   24.3510   63.7480   -6.8050 C   0  0  0  0  0  0  0  0  0  0  0  0
   21.9900   63.2220   -9.3390 C   0  0  0  0  0  0  0  0  0  0  0  0
   22.8320   62.9020  -10.2060 O   0  0  0  0  0  0  0  0  0  0  0  0
   20.5710   62.9900   -9.5920 C   0  0  0  0  0  0  0  0  0  0  0  0
   19.6550   63.9280   -9.8090 N   0  0  0  0  0  0  0  0  0  0  0  0
   18.4570   63.3720  -10.0040 N   0  0  0  0  0  0  0  0  0  0  0  0
   18.5680   62.0270   -9.9170 C   0  0  0  0  0  0  0  0  0  0  0  0
   19.9210   61.7840   -9.6520 C   0  0  0  0  0  0  0  0  0  0  0  0
   17.4990   61.2060  -10.0740 N   0  0  0  0  0  0  0  0  0  0  0  0
   16.2730   61.7480  -10.3290 C   0  0  0  0  0  0  0  0  0  0  0  0
   16.1280   63.1150  -10.4250 C   0  0  0  0  0  0  0  0  0  0  0  0
   17.2430   63.9050  -10.2570 C   0  0  0  0  0  0  0  0  0  0  0  0
   14.3980   63.8760  -10.7840 B   0  0  0  0  0  0  0  0  0  0  0  0
   25.4980   62.3390   -4.5960 C   0  0  0  0  0  0  0  0  0  0  0  0
   26.7030   62.6760   -5.1700 C   0  0  0  0  0  0  0  0  0  0  0  0
   27.4830   61.5970   -5.2450 N   0  0  0  0  0  0  0  0  0  0  0  0
   26.8260   60.5710   -4.7390 N   0  0  0  0  0  0  0  0  0  0  0  0
   25.5980   60.9740   -4.3250 C   0  0  0  0  0  0  0  0  0  0  0  0
   28.8170   61.5190   -5.7780 C   0  0  0  0  0  0  0  0  0  0  0  0
   21.7980   64.2080   -4.8480 H   0  0  0  0  0  0  0  0  0  0  0  0
   22.1350   65.6280   -5.8590 H   0  0  0  0  0  0  0  0  0  0  0  0
   21.2630   62.8420   -6.6910 H   0  0  0  0  0  0  0  0  0  0  0  0
   20.6850   64.4360   -7.2160 H   0  0  0  0  0  0  0  0  0  0  0  0
   24.3630   64.1210   -8.9340 H   0  0  0  0  0  0  0  0  0  0  0  0
   23.6200   65.4610   -7.9060 H   0  0  0  0  0  0  0  0  0  0  0  0
   25.4250   64.0290   -6.7560 H   0  0  0  0  0  0  0  0  0  0  0  0
   24.2730   62.6530   -6.8770 H   0  0  0  0  0  0  0  0  0  0  0  0
   20.3730   60.8240   -9.5210 H   0  0  0  0  0  0  0  0  0  0  0  0
   15.3930   61.1330  -10.4620 H   0  0  0  0  0  0  0  0  0  0  0  0
   17.1460   64.9830  -10.3280 H   0  0  0  0  0  0  0  0  0  0  0  0
   27.0240   63.6580   -5.5270 H   0  0  0  0  0  0  0  0  0  0  0  0
   24.8280   60.3660   -3.8690 H   0  0  0  0  0  0  0  0  0  0  0  0
   28.7740   60.9830   -6.7480 H   0  0  0  0  0  0  0  0  0  0  0  0
   29.4550   60.9010   -5.1150 H   0  0  0  0  0  0  0  0  0  0  0  0
   29.2540   62.5250   -5.9360 H   0  0  0  0  0  0  0  0  0  0  0  0
  1  2  2  0  0  0  0
  1  3  2  0  0  0  0
  4  1  1  0  0  0  0
  5  4  1  0  0  0  0
  5 28  1  0  0  0  0
  6 30  1  0  0  0  0
  6  5  1  0  0  0  0
  7  8  1  0  0  0  0
  7  6  1  0  0  0  0
  8 33  1  0  0  0  0
  8  9  1  0  0  0  0
  9 34  1  0  0  0  0
  9  4  1  0  0  0  0
 10  7  1  0  0  0  0
 11 10  2  0  0  0  0
 12 10  1  0  0  0  0
 13 12  2  0  0  0  0
 14 15  1  0  0  0  0
 14 13  1  0  0  0  0
 15 16  2  0  0  0  0
 16 12  1  0  0  0  0
 16 36  1  0  0  0  0
 17 15  1  0  0  0  0
 18 17  2  0  0  0  0
 19 18  1  0  0  0  0
 19 20  2  0  0  0  0
 20 14  1  0  0  0  0
 21 19  1  0  0  0  0
 22 26  1  0  0  0  0
 22  1  1  0  0  0  0
 23 22  2  0  0  0  0
 24 23  1  0  0  0  0
 24 25  1  0  0  0  0
 25 26  2  0  0  0  0
 26 40  1  0  0  0  0
 27 24  1  0  0  0  0
 27 42  1  0  0  0  0
 29  5  1  0  0  0  0
 31  6  1  0  0  0  0
 32  8  1  0  0  0  0
 35  9  1  0  0  0  0
 37 18  1  0  0  0  0
 38 20  1  0  0  0  0
 39 23  1  0  0  0  0
 41 27  1  0  0  0  0
 43 27  1  0  0  0  0
M  END
>  <Pose>
1

>  <Score>
-7.85

$$$$
