
 OpenBabel03202210193D

 49 52  0  0  1  0  0  0  0  0999 V2000
   18.9760   61.9580   -9.5690 S   0  0  0  0  0  0  0  0  0  0  0  0
   19.8650   60.9570  -10.2210 O   0  0  0  0  0  0  0  0  0  0  0  0
   18.9810   61.7050   -8.0820 O   0  0  0  0  0  0  0  0  0  0  0  0
   19.5440   63.5270   -9.8480 N   0  0  0  0  0  0  0  0  0  0  0  0
   20.9100   63.6510  -10.1860 C   0  0  0  0  0  0  0  0  0  0  0  0
   21.8300   64.1070   -9.1300 C   0  0  0  0  0  0  0  0  0  0  0  0
   21.2470   65.1290   -8.3120 N   0  0  0  0  0  0  0  0  0  0  0  0
   19.9370   65.6220   -8.6280 C   0  0  0  0  0  0  0  0  0  0  0  0
   18.9790   64.5520   -9.0480 C   0  0  0  0  0  0  0  0  0  0  0  0
   21.9450   65.6510   -7.2040 C   0  0  0  0  0  0  0  0  0  0  0  0
   21.9720   66.8910   -7.0350 O   0  0  0  0  0  0  0  0  0  0  0  0
   22.6480   64.8270   -6.2290 C   0  0  1  0  0  0  0  0  0  0  0  0
   21.9990   64.4180   -5.0790 C   0  0  0  0  0  0  0  0  0  0  0  0
   22.6450   63.6580   -4.1800 N   0  0  0  0  0  0  0  0  0  0  0  0
   23.9260   63.2660   -4.3500 C   0  0  1  0  0  0  0  0  0  0  0  0
   24.5860   63.6470   -5.4570 N   0  0  0  0  0  0  0  0  0  0  0  0
   25.8790   63.2530   -5.6330 C   0  0  0  0  0  0  0  0  0  0  0  0
   26.5360   62.4730   -4.7040 C   0  0  0  0  0  0  0  0  0  0  0  0
   25.8760   62.0690   -3.5550 C   0  0  0  0  0  0  0  0  0  0  0  0
   24.5710   62.4790   -3.4020 C   0  0  0  0  0  0  0  0  0  0  0  0
   27.9420   62.0250   -4.8600 C   0  0  0  0  0  0  0  0  0  0  0  0
   23.9560   64.4160   -6.3840 C   0  0  0  0  0  0  0  0  0  0  0  0
   24.5660   64.7660   -7.4060 O   0  0  0  0  0  0  0  0  0  0  0  0
   17.3370   61.8030  -10.1420 C   0  0  0  0  0  0  0  0  0  0  0  0
   16.6490   62.9140  -10.5840 C   0  0  0  0  0  0  0  0  0  0  0  0
   15.3450   62.7190  -11.0280 C   0  0  0  0  0  0  0  0  0  0  0  0
   14.7510   61.4830  -11.0320 C   0  0  0  0  0  0  0  0  0  0  0  0
   15.4530   60.3730  -10.5850 C   0  0  0  0  0  0  0  0  0  0  0  0
   16.7660   60.5470  -10.1350 C   0  0  0  0  0  0  0  0  0  0  0  0
   14.3430   64.2110  -11.6500 B   0  0  0  0  0  0  0  0  0  0  0  0
   21.2660   62.6630  -10.5780 H   0  0  0  0  0  0  0  0  0  0  0  0
   20.9940   64.3520  -11.0560 H   0  0  0  0  0  0  0  0  0  0  0  0
   22.0950   63.2050   -8.5030 H   0  0  0  0  0  0  0  0  0  0  0  0
   22.7940   64.5310   -9.5270 H   0  0  0  0  0  0  0  0  0  0  0  0
   19.5340   66.2030   -7.7730 H   0  0  0  0  0  0  0  0  0  0  0  0
   20.0760   66.3850   -9.4500 H   0  0  0  0  0  0  0  0  0  0  0  0
   18.1420   65.0270   -9.6010 H   0  0  0  0  0  0  0  0  0  0  0  0
   18.5420   64.0980   -8.1360 H   0  0  0  0  0  0  0  0  0  0  0  0
   20.9590   64.7270   -4.9260 H   0  0  0  0  0  0  0  0  0  0  0  0
   26.4030   63.5640   -6.5260 H   0  0  0  0  0  0  0  0  0  0  0  0
   26.3370   61.4570   -2.7930 H   0  0  0  0  0  0  0  0  0  0  0  0
   24.0420   62.1730   -2.5100 H   0  0  0  0  0  0  0  0  0  0  0  0
   27.9810   61.0540   -5.4220 H   0  0  0  0  0  0  0  0  0  0  0  0
   28.4260   61.8750   -3.8630 H   0  0  0  0  0  0  0  0  0  0  0  0
   28.5300   62.7390   -5.4780 H   0  0  0  0  0  0  0  0  0  0  0  0
   17.1120   63.8860  -10.5820 H   0  0  0  0  0  0  0  0  0  0  0  0
   13.7350   61.3800  -11.3860 H   0  0  0  0  0  0  0  0  0  0  0  0
   14.9750   59.4070  -10.5940 H   0  0  0  0  0  0  0  0  0  0  0  0
   17.3240   59.6980   -9.7850 H   0  0  0  0  0  0  0  0  0  0  0  0
  1  3  2  0  0  0  0
  2  1  2  0  0  0  0
  4  1  1  0  0  0  0
  4  9  1  0  0  0  0
  5  4  1  0  0  0  0
  5  6  1  0  0  0  0
  6 33  1  0  0  0  0
  6  7  1  0  0  0  0
  7 10  1  0  0  0  0
  8  7  1  0  0  0  0
  8 35  1  0  0  0  0
  9  8  1  0  0  0  0
  9 38  1  0  0  0  0
 10 11  2  0  0  0  0
 12 10  1  6  0  0  0
 12 13  1  0  0  0  0
 13 39  1  0  0  0  0
 13 14  2  0  0  0  0
 15 14  1  1  0  0  0
 15 20  1  0  0  0  0
 16 15  1  0  0  0  0
 17 16  1  0  0  0  0
 17 18  2  0  0  0  0
 18 19  1  0  0  0  0
 19 20  2  0  0  0  0
 19 41  1  0  0  0  0
 20 42  1  0  0  0  0
 21 18  1  0  0  0  0
 21 44  1  0  0  0  0
 22 12  1  0  0  0  0
 22 16  1  0  0  0  0
 23 22  2  0  0  0  0
 24 29  1  0  0  0  0
 24  1  1  0  0  0  0
 25 46  1  0  0  0  0
 25 24  2  0  0  0  0
 26 25  1  0  0  0  0
 27 26  2  0  0  0  0
 27 28  1  0  0  0  0
 28 29  2  0  0  0  0
 29 49  1  0  0  0  0
 30 26  1  0  0  0  0
 31  5  1  0  0  0  0
 32  5  1  0  0  0  0
 34  6  1  0  0  0  0
 36  8  1  0  0  0  0
 37  9  1  0  0  0  0
 40 17  1  0  0  0  0
 43 21  1  0  0  0  0
 45 21  1  0  0  0  0
 47 27  1  0  0  0  0
 48 28  1  0  0  0  0
M  END
>  <Pose>
1

>  <Score>
-6.35

$$$$
