
 OpenBabel03202210193D

 45 48  0  0  0  0  0  0  0  0999 V2000
   28.3160   70.4110   -3.3560 S   0  0  0  0  0  0  0  0  0  0  0  0
   29.0060   69.2930   -4.0620 O   0  0  0  0  0  0  0  0  0  0  0  0
   28.8320   71.7080   -3.8890 O   0  0  0  0  0  0  0  0  0  0  0  0
   26.6620   70.3370   -3.4970 N   0  0  0  0  0  0  0  0  0  0  0  0
   25.9600   71.4890   -3.8950 C   0  0  0  0  0  0  0  0  0  0  0  0
   24.4790   71.2700   -4.0310 C   0  0  0  0  0  0  0  0  0  0  0  0
   24.1000   69.9120   -4.1940 N   0  0  0  0  0  0  0  0  0  0  0  0
   24.5750   69.1110   -3.1230 C   0  0  0  0  0  0  0  0  0  0  0  0
   25.9790   69.3730   -2.7220 C   0  0  0  0  0  0  0  0  0  0  0  0
   24.3150   69.4520   -5.5150 C   0  0  0  0  0  0  0  0  0  0  0  0
   23.3980   68.4880   -6.0220 N   0  0  0  0  0  0  0  0  0  0  0  0
   23.7570   67.2280   -6.1660 N   0  0  0  0  0  0  0  0  0  0  0  0
   22.9580   66.2600   -6.6420 C   0  0  0  0  0  0  0  0  0  0  0  0
   21.6820   66.6290   -6.9970 C   0  0  0  0  0  0  0  0  0  0  0  0
   21.2460   67.9310   -6.8700 C   0  0  0  0  0  0  0  0  0  0  0  0
   22.1540   68.8540   -6.3670 C   0  0  0  0  0  0  0  0  0  0  0  0
   21.7450   70.0620   -6.2500 O   0  0  0  0  0  0  0  0  0  0  0  0
   23.3780   64.8990   -6.7870 N   0  0  0  0  0  0  0  0  0  0  0  0
   24.3640   64.2570   -6.1530 C   0  0  0  0  0  0  0  0  0  0  0  0
   24.4070   62.9880   -6.5990 N   0  0  0  0  0  0  0  0  0  0  0  0
   23.4460   62.8110   -7.5230 C   0  0  0  0  0  0  0  0  0  0  0  0
   22.8040   64.0260   -7.6310 C   0  0  0  0  0  0  0  0  0  0  0  0
   28.7590   70.3000   -1.6400 C   0  0  0  0  0  0  0  0  0  0  0  0
   27.7470   70.1730   -0.2740 S   0  0  0  0  0  0  0  0  0  0  0  0
   28.9380   70.1200    0.9430 C   0  0  0  0  0  0  0  0  0  0  0  0
   30.1130   70.2060    0.2380 C   0  0  0  0  0  0  0  0  0  0  0  0
   30.0130   70.2990   -1.0970 C   0  0  0  0  0  0  0  0  0  0  0  0
   28.7200   69.9770    2.8400 B   0  0  0  0  0  0  0  0  0  0  0  0
   26.1730   72.3160   -3.1830 H   0  0  0  0  0  0  0  0  0  0  0  0
   26.3420   71.8380   -4.8850 H   0  0  0  0  0  0  0  0  0  0  0  0
   24.0720   71.8650   -4.8710 H   0  0  0  0  0  0  0  0  0  0  0  0
   23.9870   71.6600   -3.1110 H   0  0  0  0  0  0  0  0  0  0  0  0
   24.3560   68.0130   -3.2690 H   0  0  0  0  0  0  0  0  0  0  0  0
   23.9230   69.3650   -2.2310 H   0  0  0  0  0  0  0  0  0  0  0  0
   26.5430   68.4030   -2.7750 H   0  0  0  0  0  0  0  0  0  0  0  0
   26.0650   69.6760   -1.6450 H   0  0  0  0  0  0  0  0  0  0  0  0
   24.2330   70.3550   -6.1910 H   0  0  0  0  0  0  0  0  0  0  0  0
   25.3750   69.1080   -5.6790 H   0  0  0  0  0  0  0  0  0  0  0  0
   21.0050   65.8790   -7.3850 H   0  0  0  0  0  0  0  0  0  0  0  0
   20.2480   68.2330   -7.1440 H   0  0  0  0  0  0  0  0  0  0  0  0
   25.0180   64.7020   -5.4020 H   0  0  0  0  0  0  0  0  0  0  0  0
   23.2290   61.8810   -8.0700 H   0  0  0  0  0  0  0  0  0  0  0  0
   21.9800   64.2140   -8.2940 H   0  0  0  0  0  0  0  0  0  0  0  0
   31.0830   70.1930    0.7950 H   0  0  0  0  0  0  0  0  0  0  0  0
   30.9230   70.3710   -1.7370 H   0  0  0  0  0  0  0  0  0  0  0  0
  1 23  1  0  0  0  0
  2  1  2  0  0  0  0
  3  1  2  0  0  0  0
  4  1  1  0  0  0  0
  4  9  1  0  0  0  0
  5  4  1  0  0  0  0
  5 29  1  0  0  0  0
  6  5  1  0  0  0  0
  6 32  1  0  0  0  0
  7  6  1  0  0  0  0
  7  8  1  0  0  0  0
  8  9  1  0  0  0  0
  8 34  1  0  0  0  0
  9 36  1  0  0  0  0
 10  7  1  0  0  0  0
 11 10  1  0  0  0  0
 12 11  1  0  0  0  0
 13 12  2  0  0  0  0
 14 15  2  0  0  0  0
 14 13  1  0  0  0  0
 15 16  1  0  0  0  0
 16 17  2  0  0  0  0
 16 11  1  0  0  0  0
 18 13  1  0  0  0  0
 18 19  1  0  0  0  0
 19 41  1  0  0  0  0
 20 19  2  0  0  0  0
 21 20  1  0  0  0  0
 22 21  2  0  0  0  0
 22 18  1  0  0  0  0
 23 27  2  0  0  0  0
 23 24  1  0  0  0  0
 24 25  1  0  0  0  0
 25 28  1  0  0  0  0
 26 44  1  0  0  0  0
 26 25  2  0  0  0  0
 27 26  1  0  0  0  0
 30  5  1  0  0  0  0
 31  6  1  0  0  0  0
 33  8  1  0  0  0  0
 35  9  1  0  0  0  0
 37 10  1  0  0  0  0
 38 10  1  0  0  0  0
 39 14  1  0  0  0  0
 40 15  1  0  0  0  0
 42 21  1  0  0  0  0
 43 22  1  0  0  0  0
 45 27  1  0  0  0  0
M  END
>  <Pose>
1

>  <Score>
-7.46

$$$$
