
 OpenBabel03202210193D

 52 55  0  0  0  0  0  0  0  0999 V2000
   23.8290   64.7920   -6.5690 S   0  0  0  0  0  0  0  0  0  0  0  0
   23.7790   66.2140   -6.0750 O   0  0  0  0  0  0  0  0  0  0  0  0
   25.1710   64.6240   -7.2440 O   0  0  0  0  0  0  0  0  0  0  0  0
   22.6270   64.4770   -7.7450 N   0  0  0  0  0  0  0  0  0  0  0  0
   21.9000   65.6350   -8.1590 C   0  0  0  0  0  0  0  0  0  0  0  0
   20.6780   65.1100   -8.9330 C   0  0  0  0  0  0  0  0  0  0  0  0
   20.9590   63.9070   -9.5880 N   0  0  0  0  0  0  0  0  0  0  0  0
   22.3130   63.7280  -10.0360 C   0  0  0  0  0  0  0  0  0  0  0  0
   23.3310   64.0110   -8.9540 C   0  0  0  0  0  0  0  0  0  0  0  0
   20.2650   62.7290   -9.2770 C   0  0  0  0  0  0  0  0  0  0  0  0
   18.8940   62.6240   -9.6610 N   0  0  0  0  0  0  0  0  0  0  0  0
   18.1180   63.7810   -9.9270 N   0  0  0  0  0  0  0  0  0  0  0  0
   16.8250   63.3040  -10.2880 C   0  0  0  0  0  0  0  0  0  0  0  0
   15.8210   64.1100  -10.6090 C   0  0  0  0  0  0  0  0  0  0  0  0
   14.4130   63.8960  -11.0140 C   0  0  0  0  0  0  0  0  0  0  0  0
   13.8810   62.5980  -10.4540 C   0  0  0  0  0  0  0  0  0  0  0  0
   14.5540   61.4910  -11.2460 C   0  0  0  0  0  0  0  0  0  0  0  0
   15.7410   60.9320  -10.5230 C   0  0  0  0  0  0  0  0  0  0  0  0
   16.7740   61.8860  -10.2550 N   0  0  0  0  0  0  0  0  0  0  0  0
   18.0800   61.4780   -9.8580 C   0  0  0  0  0  0  0  0  0  0  0  0
   18.4160   60.2750   -9.7170 O   0  0  0  0  0  0  0  0  0  0  0  0
   23.7790   63.7270   -5.2170 C   0  0  0  0  0  0  0  0  0  0  0  0
   22.7800   63.6480   -4.2920 C   0  0  0  0  0  0  0  0  0  0  0  0
   22.8370   62.7500   -3.2360 C   0  0  0  0  0  0  0  0  0  0  0  0
   23.8960   61.9060   -3.0780 C   0  0  0  0  0  0  0  0  0  0  0  0
   24.9270   61.9630   -4.0030 C   0  0  0  0  0  0  0  0  0  0  0  0
   24.8600   62.8560   -5.0430 C   0  0  0  0  0  0  0  0  0  0  0  0
   21.4170   62.6580   -1.9440 B   0  0  0  0  0  0  0  0  0  0  0  0
   21.5990   66.3080   -7.3400 H   0  0  0  0  0  0  0  0  0  0  0  0
   22.4850   66.2490   -8.8960 H   0  0  0  0  0  0  0  0  0  0  0  0
   19.8970   64.9770   -8.1670 H   0  0  0  0  0  0  0  0  0  0  0  0
   20.3000   65.9090   -9.6160 H   0  0  0  0  0  0  0  0  0  0  0  0
   22.4350   62.6640  -10.3260 H   0  0  0  0  0  0  0  0  0  0  0  0
   22.4670   64.3330  -10.9470 H   0  0  0  0  0  0  0  0  0  0  0  0
   23.9350   64.8770   -9.2950 H   0  0  0  0  0  0  0  0  0  0  0  0
   24.0070   63.1840   -8.7490 H   0  0  0  0  0  0  0  0  0  0  0  0
   20.3890   62.5180   -8.1870 H   0  0  0  0  0  0  0  0  0  0  0  0
   20.8150   61.8720   -9.7720 H   0  0  0  0  0  0  0  0  0  0  0  0
   18.4300   64.7800   -9.8690 H   0  0  0  0  0  0  0  0  0  0  0  0
   16.1250   65.1670  -10.5560 H   0  0  0  0  0  0  0  0  0  0  0  0
   14.2910   63.9580  -12.1150 H   0  0  0  0  0  0  0  0  0  0  0  0
   13.8170   64.7280  -10.5400 H   0  0  0  0  0  0  0  0  0  0  0  0
   12.7830   62.5640  -10.5410 H   0  0  0  0  0  0  0  0  0  0  0  0
   14.2450   62.5120   -9.4090 H   0  0  0  0  0  0  0  0  0  0  0  0
   13.7920   60.7050  -11.4120 H   0  0  0  0  0  0  0  0  0  0  0  0
   14.8740   61.8590  -12.2370 H   0  0  0  0  0  0  0  0  0  0  0  0
   15.3690   60.5200   -9.5540 H   0  0  0  0  0  0  0  0  0  0  0  0
   16.1320   60.0760  -11.1200 H   0  0  0  0  0  0  0  0  0  0  0  0
   21.9350   64.3120   -4.4080 H   0  0  0  0  0  0  0  0  0  0  0  0
   23.9360   61.2040   -2.2460 H   0  0  0  0  0  0  0  0  0  0  0  0
   25.7720   61.2990   -3.8870 H   0  0  0  0  0  0  0  0  0  0  0  0
   25.6840   62.8730   -5.7470 H   0  0  0  0  0  0  0  0  0  0  0  0
  1  2  2  0  0  0  0
  1 22  1  0  0  0  0
  3  1  2  0  0  0  0
  4  1  1  0  0  0  0
  5  4  1  0  0  0  0
  5 29  1  0  0  0  0
  6 31  1  0  0  0  0
  6  5  1  0  0  0  0
  7 10  1  0  0  0  0
  7  6  1  0  0  0  0
  8  7  1  0  0  0  0
  8  9  1  0  0  0  0
  9 36  1  0  0  0  0
  9  4  1  0  0  0  0
 10 37  1  0  0  0  0
 11 10  1  0  0  0  0
 12 39  1  0  0  0  0
 12 11  1  0  0  0  0
 13 19  1  0  0  0  0
 13 12  1  0  0  0  0
 14 40  1  0  0  0  0
 14 13  2  0  0  0  0
 15 14  1  0  0  0  0
 15 42  1  0  0  0  0
 15 16  1  0  0  0  0
 16 44  1  0  0  0  0
 17 18  1  0  0  0  0
 17 16  1  0  0  0  0
 18 19  1  0  0  0  0
 18 47  1  0  0  0  0
 19 20  1  0  0  0  0
 20 21  2  0  0  0  0
 20 11  1  0  0  0  0
 22 27  2  0  0  0  0
 22 23  1  0  0  0  0
 23 24  2  0  0  0  0
 24 25  1  0  0  0  0
 24 28  1  0  0  0  0
 25 50  1  0  0  0  0
 26 51  1  0  0  0  0
 26 25  2  0  0  0  0
 27 26  1  0  0  0  0
 30  5  1  0  0  0  0
 32  6  1  0  0  0  0
 33  8  1  0  0  0  0
 34  8  1  0  0  0  0
 35  9  1  0  0  0  0
 38 10  1  0  0  0  0
 41 15  1  0  0  0  0
 43 16  1  0  0  0  0
 45 17  1  0  0  0  0
 46 17  1  0  0  0  0
 48 18  1  0  0  0  0
 49 23  1  0  0  0  0
 52 27  1  0  0  0  0
M  END
>  <Pose>
1

>  <Score>
-6.71

$$$$
