
 OpenBabel03202210193D

 53 56  0  0  0  0  0  0  0  0999 V2000
   24.7160   70.8750   -4.6060 S   0  0  0  0  0  0  0  0  0  0  0  0
   25.3970   71.4860   -5.8200 O   0  0  0  0  0  0  0  0  0  0  0  0
   23.6040   71.7920   -4.1890 O   0  0  0  0  0  0  0  0  0  0  0  0
   24.0440   69.3560   -5.0890 N   0  0  0  0  0  0  0  0  0  0  0  0
   23.9590   69.3400   -6.5110 C   0  0  0  0  0  0  0  0  0  0  0  0
   22.8010   68.5190   -7.0360 C   0  0  0  0  0  0  0  0  0  0  0  0
   22.5010   67.5170   -6.0560 N   0  0  0  0  0  0  0  0  0  0  0  0
   22.0630   67.9360   -4.7570 C   0  0  0  0  0  0  0  0  0  0  0  0
   22.7740   69.2220   -4.4160 C   0  0  0  0  0  0  0  0  0  0  0  0
   22.6380   66.1560   -6.3740 C   0  0  0  0  0  0  0  0  0  0  0  0
   23.4150   65.3190   -5.6660 N   0  0  0  0  0  0  0  0  0  0  0  0
   23.5850   64.0330   -5.9140 C   0  0  0  0  0  0  0  0  0  0  0  0
   22.9060   63.4940   -6.9940 C   0  0  0  0  0  0  0  0  0  0  0  0
   22.0950   64.3100   -7.7500 C   0  0  0  0  0  0  0  0  0  0  0  0
   21.9800   65.6110   -7.4260 N   0  0  0  0  0  0  0  0  0  0  0  0
   21.3490   63.7690   -8.9170 C   0  0  0  0  0  0  0  0  0  0  0  0
   24.4360   63.2580   -5.0900 N   0  0  0  0  0  0  0  0  0  0  0  0
   25.7980   62.9140   -5.4430 C   0  0  0  0  0  0  0  0  0  0  0  0
   26.5190   62.6210   -4.1280 C   0  0  0  0  0  0  0  0  0  0  0  0
   26.1090   63.5940   -3.2140 O   0  0  0  0  0  0  0  0  0  0  0  0
   24.8300   63.3980   -2.7470 C   0  0  0  0  0  0  0  0  0  0  0  0
   23.9340   62.7760   -3.8240 C   0  0  0  0  0  0  0  0  0  0  0  0
   25.8990   70.6780   -3.3450 C   0  0  0  0  0  0  0  0  0  0  0  0
   25.4960   70.1310   -2.1350 C   0  0  0  0  0  0  0  0  0  0  0  0
   26.3770   69.9450   -1.0920 C   0  0  0  0  0  0  0  0  0  0  0  0
   27.6930   70.3100   -1.2390 C   0  0  0  0  0  0  0  0  0  0  0  0
   28.1330   70.8590   -2.4290 C   0  0  0  0  0  0  0  0  0  0  0  0
   27.2180   71.0320   -3.4640 C   0  0  0  0  0  0  0  0  0  0  0  0
   28.8980   70.0470    0.2130 B   0  0  0  0  0  0  0  0  0  0  0  0
   23.9440   70.3340   -6.9890 H   0  0  0  0  0  0  0  0  0  0  0  0
   24.8890   68.8380   -6.9030 H   0  0  0  0  0  0  0  0  0  0  0  0
   22.9900   68.1130   -8.0390 H   0  0  0  0  0  0  0  0  0  0  0  0
   21.9380   69.2360   -7.1490 H   0  0  0  0  0  0  0  0  0  0  0  0
   22.2450   67.1490   -3.9930 H   0  0  0  0  0  0  0  0  0  0  0  0
   20.9680   68.1550   -4.7150 H   0  0  0  0  0  0  0  0  0  0  0  0
   22.9800   69.2060   -3.3250 H   0  0  0  0  0  0  0  0  0  0  0  0
   22.1490   70.1230   -4.6060 H   0  0  0  0  0  0  0  0  0  0  0  0
   23.0360   62.4480   -7.2040 H   0  0  0  0  0  0  0  0  0  0  0  0
   20.2520   63.7090   -8.6930 H   0  0  0  0  0  0  0  0  0  0  0  0
   21.4560   64.4820   -9.7560 H   0  0  0  0  0  0  0  0  0  0  0  0
   21.7680   62.8050   -9.2550 H   0  0  0  0  0  0  0  0  0  0  0  0
   25.8650   62.0150   -6.0840 H   0  0  0  0  0  0  0  0  0  0  0  0
   26.3210   63.7880   -5.9130 H   0  0  0  0  0  0  0  0  0  0  0  0
   27.6010   62.6680   -4.2540 H   0  0  0  0  0  0  0  0  0  0  0  0
   26.2330   61.6190   -3.7650 H   0  0  0  0  0  0  0  0  0  0  0  0
   24.3520   64.3890   -2.4870 H   0  0  0  0  0  0  0  0  0  0  0  0
   24.8120   62.7820   -1.8390 H   0  0  0  0  0  0  0  0  0  0  0  0
   24.0030   61.6630   -3.7630 H   0  0  0  0  0  0  0  0  0  0  0  0
   22.8790   63.0640   -3.6700 H   0  0  0  0  0  0  0  0  0  0  0  0
   24.4550   69.8440   -2.0230 H   0  0  0  0  0  0  0  0  0  0  0  0
   26.0570   69.5170   -0.1510 H   0  0  0  0  0  0  0  0  0  0  0  0
   29.1710   71.1490   -2.5540 H   0  0  0  0  0  0  0  0  0  0  0  0
   27.5490   71.4650   -4.4070 H   0  0  0  0  0  0  0  0  0  0  0  0
  1  3  2  0  0  0  0
  1 23  1  0  0  0  0
  2  1  2  0  0  0  0
  4  1  1  0  0  0  0
  4  9  1  0  0  0  0
  5  4  1  0  0  0  0
  6  5  1  0  0  0  0
  6  7  1  0  0  0  0
  7  8  1  0  0  0  0
  8 35  1  0  0  0  0
  8  9  1  0  0  0  0
  8 34  1  0  0  0  0
  9 36  1  0  0  0  0
 10  7  1  0  0  0  0
 10 11  2  0  0  0  0
 12 11  1  0  0  0  0
 12 17  1  0  0  0  0
 13 12  2  0  0  0  0
 14 15  2  0  0  0  0
 14 13  1  0  0  0  0
 15 10  1  0  0  0  0
 16 39  1  0  0  0  0
 16 14  1  0  0  0  0
 17 22  1  0  0  0  0
 18 17  1  0  0  0  0
 18 19  1  0  0  0  0
 19 45  1  0  0  0  0
 19 20  1  0  0  0  0
 20 21  1  0  0  0  0
 21 46  1  0  0  0  0
 21 47  1  0  0  0  0
 22 48  1  0  0  0  0
 22 49  1  0  0  0  0
 22 21  1  0  0  0  0
 23 24  1  0  0  0  0
 24 50  1  0  0  0  0
 24 25  2  0  0  0  0
 25 51  1  0  0  0  0
 26 25  1  0  0  0  0
 26 29  1  0  0  0  0
 27 26  2  0  0  0  0
 28 23  2  0  0  0  0
 28 27  1  0  0  0  0
 30  5  1  0  0  0  0
 31  5  1  0  0  0  0
 32  6  1  0  0  0  0
 33  6  1  0  0  0  0
 37  9  1  0  0  0  0
 38 13  1  0  0  0  0
 40 16  1  0  0  0  0
 41 16  1  0  0  0  0
 42 18  1  0  0  0  0
 43 18  1  0  0  0  0
 44 19  1  0  0  0  0
 52 27  1  0  0  0  0
 53 28  1  0  0  0  0
M  END
>  <Pose>
1

>  <Score>
-6.29

$$$$
