
 OpenBabel03202210193D

 37 40  0  0  0  0  0  0  0  0999 V2000
   21.9060   63.9120   -9.8420 S   0  0  0  0  0  0  0  0  0  0  0  0
   23.0440   64.5720  -10.6130 O   0  0  0  0  0  0  0  0  0  0  0  0
   21.8840   62.4890  -10.2670 O   0  0  0  0  0  0  0  0  0  0  0  0
   20.4890   64.7320  -10.1770 N   0  0  0  0  0  0  0  0  0  0  0  0
   19.5440   64.9290   -9.1480 C   0  0  0  0  0  0  0  0  0  0  0  0
   18.3670   63.9850   -9.1420 C   0  0  0  0  0  0  0  0  0  0  0  0
   18.3660   63.0860  -10.2530 N   0  0  0  0  0  0  0  0  0  0  0  0
   18.9640   63.4050  -11.5370 C   0  0  0  0  0  0  0  0  0  0  0  0
   19.8940   64.5790  -11.4470 C   0  0  0  0  0  0  0  0  0  0  0  0
   17.7610   61.8060  -10.1290 C   0  0  0  0  0  0  0  0  0  0  0  0
   18.5140   60.7440   -9.7150 N   0  0  0  0  0  0  0  0  0  0  0  0
   17.9650   59.5360   -9.5840 C   0  0  0  0  0  0  0  0  0  0  0  0
   16.6780   59.3100   -9.8460 N   0  0  0  0  0  0  0  0  0  0  0  0
   15.9270   60.3320  -10.2500 C   0  0  0  0  0  0  0  0  0  0  0  0
   14.6350   60.4030  -10.5820 N   0  0  0  0  0  0  0  0  0  0  0  0
   14.3510   61.6880  -10.9350 C   0  0  0  0  0  0  0  0  0  0  0  0
   15.4510   62.4330  -10.8300 N   0  0  0  0  0  0  0  0  0  0  0  0
   16.4330   61.6230  -10.4110 C   0  0  0  0  0  0  0  0  0  0  0  0
   22.4090   63.9600   -8.1500 C   0  0  0  0  0  0  0  0  0  0  0  0
   23.7250   63.1880   -7.3910 S   0  0  0  0  0  0  0  0  0  0  0  0
   23.4970   63.7440   -5.7990 C   0  0  0  0  0  0  0  0  0  0  0  0
   22.3770   64.5330   -5.9060 C   0  0  0  0  0  0  0  0  0  0  0  0
   21.8230   64.6390   -7.1190 C   0  0  0  0  0  0  0  0  0  0  0  0
   24.5270   63.3780   -4.2330 B   0  0  0  0  0  0  0  0  0  0  0  0
   19.9840   64.9830   -8.1240 H   0  0  0  0  0  0  0  0  0  0  0  0
   19.1230   65.9690   -9.3010 H   0  0  0  0  0  0  0  0  0  0  0  0
   17.4360   64.5720   -9.0120 H   0  0  0  0  0  0  0  0  0  0  0  0
   18.4240   63.3740   -8.1960 H   0  0  0  0  0  0  0  0  0  0  0  0
   19.5310   62.5370  -11.9220 H   0  0  0  0  0  0  0  0  0  0  0  0
   18.1400   63.6080  -12.2550 H   0  0  0  0  0  0  0  0  0  0  0  0
   20.6850   64.5190  -12.2190 H   0  0  0  0  0  0  0  0  0  0  0  0
   19.2840   65.5020  -11.6600 H   0  0  0  0  0  0  0  0  0  0  0  0
   18.5570   58.6870   -9.2550 H   0  0  0  0  0  0  0  0  0  0  0  0
   13.3700   62.0080  -11.2450 H   0  0  0  0  0  0  0  0  0  0  0  0
   15.5080   63.4470  -11.0420 H   0  0  0  0  0  0  0  0  0  0  0  0
   21.9820   65.0440   -4.9930 H   0  0  0  0  0  0  0  0  0  0  0  0
   20.9150   65.2550   -7.3000 H   0  0  0  0  0  0  0  0  0  0  0  0
  1 19  1  0  0  0  0
  2  1  2  0  0  0  0
  3  1  2  0  0  0  0
  4  1  1  0  0  0  0
  4  5  1  0  0  0  0
  5  6  1  0  0  0  0
  5 25  1  0  0  0  0
  6 27  1  0  0  0  0
  6 28  1  0  0  0  0
  7 10  1  0  0  0  0
  7  6  1  0  0  0  0
  8  9  1  0  0  0  0
  8  7  1  0  0  0  0
  9  4  1  0  0  0  0
 10 11  1  0  0  0  0
 11 12  2  0  0  0  0
 12 33  1  0  0  0  0
 13 12  1  0  0  0  0
 14 13  2  0  0  0  0
 15 14  1  0  0  0  0
 16 17  1  0  0  0  0
 16 15  2  0  0  0  0
 17 18  1  0  0  0  0
 18 14  1  0  0  0  0
 18 10  2  0  0  0  0
 19 20  1  0  0  0  0
 19 23  2  0  0  0  0
 20 21  1  0  0  0  0
 21 24  1  0  0  0  0
 22 21  2  0  0  0  0
 22 36  1  0  0  0  0
 23 22  1  0  0  0  0
 26  5  1  0  0  0  0
 29  8  1  0  0  0  0
 30  8  1  0  0  0  0
 31  9  1  0  0  0  0
 32  9  1  0  0  0  0
 34 16  1  0  0  0  0
 35 17  1  0  0  0  0
 37 23  1  0  0  0  0
M  END
>  <Pose>
1

>  <Score>
-7.66

$$$$
