
 OpenBabel03202210193D

 43 46  0  0  0  0  0  0  0  0999 V2000
   18.5790   61.9580   -9.7240 S   0  0  0  0  0  0  0  0  0  0  0  0
   19.2020   60.8740  -10.5630 O   0  0  0  0  0  0  0  0  0  0  0  0
   18.1370   61.3340   -8.4410 O   0  0  0  0  0  0  0  0  0  0  0  0
   17.2590   62.6200  -10.5870 N   0  0  0  0  0  0  0  0  0  0  0  0
   17.0470   64.0030  -10.3690 C   0  0  0  0  0  0  0  0  0  0  0  0
   15.6290   64.4690  -10.3440 C   0  0  0  0  0  0  0  0  0  0  0  0
   14.9170   63.6870  -11.2820 O   0  0  0  0  0  0  0  0  0  0  0  0
   14.7910   62.4380  -10.6670 C   0  0  0  0  0  0  0  0  0  0  0  0
   16.1220   61.7760  -10.6500 C   0  0  0  0  0  0  0  0  0  0  0  0
   19.8270   63.1780   -9.4360 C   0  0  0  0  0  0  0  0  0  0  0  0
   20.0320   64.3130  -10.1270 N   0  0  0  0  0  0  0  0  0  0  0  0
   21.0830   64.9580   -9.5860 C   0  0  0  0  0  0  0  0  0  0  0  0
   21.5730   64.2650   -8.5480 N   0  0  0  0  0  0  0  0  0  0  0  0
   20.8020   63.1700   -8.4540 C   0  0  0  0  0  0  0  0  0  0  0  0
   22.6980   64.6320   -7.7130 C   0  0  0  0  0  0  0  0  0  0  0  0
   22.6030   66.0180   -7.2020 C   0  0  0  0  0  0  0  0  0  0  0  0
   21.4630   66.7310   -7.1260 N   0  0  0  0  0  0  0  0  0  0  0  0
   21.7380   67.9010   -6.6350 O   0  0  0  0  0  0  0  0  0  0  0  0
   23.0120   68.0100   -6.3760 C   0  0  0  0  0  0  0  0  0  0  0  0
   23.5570   66.8340   -6.7280 N   0  0  0  0  0  0  0  0  0  0  0  0
   23.6650   69.1940   -5.8140 C   0  0  0  0  0  0  0  0  0  0  0  0
   23.8310   69.3610   -4.4550 C   0  0  0  0  0  0  0  0  0  0  0  0
   24.4540   70.4930   -3.9350 C   0  0  0  0  0  0  0  0  0  0  0  0
   24.9280   71.4860   -4.7630 C   0  0  0  0  0  0  0  0  0  0  0  0
   24.7650   71.3210   -6.1220 C   0  0  0  0  0  0  0  0  0  0  0  0
   24.1380   70.1850   -6.6400 C   0  0  0  0  0  0  0  0  0  0  0  0
   24.6730   70.7050   -2.0470 B   0  0  0  0  0  0  0  0  0  0  0  0
   17.5920   64.3480   -9.4520 H   0  0  0  0  0  0  0  0  0  0  0  0
   17.5430   64.5520  -11.2250 H   0  0  0  0  0  0  0  0  0  0  0  0
   15.5650   65.5110  -10.7350 H   0  0  0  0  0  0  0  0  0  0  0  0
   15.1360   64.4120   -9.3650 H   0  0  0  0  0  0  0  0  0  0  0  0
   14.3750   62.6330   -9.6590 H   0  0  0  0  0  0  0  0  0  0  0  0
   14.0690   61.7860  -11.1880 H   0  0  0  0  0  0  0  0  0  0  0  0
   16.2010   61.1660  -11.5920 H   0  0  0  0  0  0  0  0  0  0  0  0
   16.1870   61.0160   -9.8270 H   0  0  0  0  0  0  0  0  0  0  0  0
   21.4910   65.9030   -9.9240 H   0  0  0  0  0  0  0  0  0  0  0  0
   20.9230   62.3900   -7.7190 H   0  0  0  0  0  0  0  0  0  0  0  0
   23.6140   64.5310   -8.3150 H   0  0  0  0  0  0  0  0  0  0  0  0
   22.8100   63.9690   -6.8300 H   0  0  0  0  0  0  0  0  0  0  0  0
   23.4600   68.5850   -3.8010 H   0  0  0  0  0  0  0  0  0  0  0  0
   25.4150   72.3670   -4.3430 H   0  0  0  0  0  0  0  0  0  0  0  0
   25.1230   72.0770   -6.8060 H   0  0  0  0  0  0  0  0  0  0  0  0
   24.0000   70.0360   -7.7040 H   0  0  0  0  0  0  0  0  0  0  0  0
  1 10  1  0  0  0  0
  1  3  2  0  0  0  0
  2  1  2  0  0  0  0
  4  5  1  0  0  0  0
  4  1  1  0  0  0  0
  5  6  1  0  0  0  0
  5 28  1  0  0  0  0
  6 31  1  0  0  0  0
  7  8  1  0  0  0  0
  7  6  1  0  0  0  0
  8  9  1  0  0  0  0
  8 32  1  0  0  0  0
  9  4  1  0  0  0  0
  9 35  1  0  0  0  0
 10 14  2  0  0  0  0
 11 12  2  0  0  0  0
 11 10  1  0  0  0  0
 12 13  1  0  0  0  0
 13 14  1  0  0  0  0
 13 15  1  0  0  0  0
 14 37  1  0  0  0  0
 15 16  1  0  0  0  0
 15 39  1  0  0  0  0
 16 17  2  0  0  0  0
 16 20  1  0  0  0  0
 17 18  1  0  0  0  0
 18 19  1  0  0  0  0
 19 21  1  0  0  0  0
 20 19  2  0  0  0  0
 21 22  1  0  0  0  0
 22 23  2  0  0  0  0
 22 40  1  0  0  0  0
 23 27  1  0  0  0  0
 24 41  1  0  0  0  0
 24 23  1  0  0  0  0
 25 24  2  0  0  0  0
 26 25  1  0  0  0  0
 26 21  2  0  0  0  0
 29  5  1  0  0  0  0
 30  6  1  0  0  0  0
 33  8  1  0  0  0  0
 34  9  1  0  0  0  0
 36 12  1  0  0  0  0
 38 15  1  0  0  0  0
 42 25  1  0  0  0  0
 43 26  1  0  0  0  0
M  END
>  <Pose>
1

>  <Score>
-7.76

$$$$
