
 OpenBabel03202210193D

 37 40  0  0  0  0  0  0  0  0999 V2000
   22.2970   62.9990   -8.4130 S   0  0  0  0  0  0  0  0  0  0  0  0
   22.2840   63.9710   -6.8830 C   0  0  0  0  0  0  0  0  0  0  0  0
   23.6680   63.9910   -6.3250 C   0  0  0  0  0  0  0  0  0  0  0  0
   24.4910   64.9030   -6.6550 O   0  0  0  0  0  0  0  0  0  0  0  0
   24.1130   63.0070   -5.4190 N   0  0  0  0  0  0  0  0  0  0  0  0
   24.8230   63.3510   -4.2430 C   0  0  0  0  0  0  0  0  0  0  0  0
   24.6450   64.4200   -3.4500 N   0  0  0  0  0  0  0  0  0  0  0  0
   25.4910   64.3960   -2.4570 O   0  0  0  0  0  0  0  0  0  0  0  0
   26.2150   63.3360   -2.5870 N   0  0  0  0  0  0  0  0  0  0  0  0
   25.8660   62.6310   -3.6710 C   0  0  0  0  0  0  0  0  0  0  0  0
   26.4490   61.4230   -4.1100 N   0  0  0  0  0  0  0  0  0  0  0  0
   20.6300   63.0210   -9.1040 C   0  0  0  0  0  0  0  0  0  0  0  0
   20.1140   64.1380   -9.6440 N   0  0  0  0  0  0  0  0  0  0  0  0
   18.8990   64.2110  -10.1640 N   0  0  0  0  0  0  0  0  0  0  0  0
   18.0870   63.1330  -10.1820 C   0  0  0  0  0  0  0  0  0  0  0  0
   18.5950   61.9730   -9.6330 C   0  0  0  0  0  0  0  0  0  0  0  0
   17.6190   61.0520   -9.7620 N   0  0  0  0  0  0  0  0  0  0  0  0
   16.5360   61.5740  -10.3600 C   0  0  0  0  0  0  0  0  0  0  0  0
   16.8020   62.8970  -10.6400 C   0  0  0  0  0  0  0  0  0  0  0  0
   15.8830   63.7300  -11.2610 C   0  0  0  0  0  0  0  0  0  0  0  0
   14.6620   63.1740  -11.5980 C   0  0  0  0  0  0  0  0  0  0  0  0
   14.3710   61.8520  -11.3300 C   0  0  0  0  0  0  0  0  0  0  0  0
   15.2950   61.0440  -10.7130 C   0  0  0  0  0  0  0  0  0  0  0  0
   13.3960   64.3240  -12.4550 B   0  0  0  0  0  0  0  0  0  0  0  0
   17.7590   59.6840   -9.3030 C   0  0  0  0  0  0  0  0  0  0  0  0
   19.8530   61.9240   -9.1020 N   0  0  0  0  0  0  0  0  0  0  0  0
   21.8740   64.9790   -7.0320 H   0  0  0  0  0  0  0  0  0  0  0  0
   21.6780   63.3730   -6.1420 H   0  0  0  0  0  0  0  0  0  0  0  0
   23.9070   62.0080   -5.6320 H   0  0  0  0  0  0  0  0  0  0  0  0
   27.4700   61.2790   -3.9950 H   0  0  0  0  0  0  0  0  0  0  0  0
   25.8960   60.6590   -4.5480 H   0  0  0  0  0  0  0  0  0  0  0  0
   16.1230   64.7720  -11.4680 H   0  0  0  0  0  0  0  0  0  0  0  0
   13.4020   61.4320  -11.6040 H   0  0  0  0  0  0  0  0  0  0  0  0
   15.1000   60.0020  -10.4870 H   0  0  0  0  0  0  0  0  0  0  0  0
   18.7790   59.3220   -9.4710 H   0  0  0  0  0  0  0  0  0  0  0  0
   17.4170   59.5720   -8.2540 H   0  0  0  0  0  0  0  0  0  0  0  0
   17.0780   59.0570   -9.9220 H   0  0  0  0  0  0  0  0  0  0  0  0
  1  2  1  0  0  0  0
  2  3  1  0  0  0  0
  2 28  1  0  0  0  0
  3  5  1  0  0  0  0
  4  3  2  0  0  0  0
  5  6  1  0  0  0  0
  6 10  1  0  0  0  0
  6  7  2  0  0  0  0
  7  8  1  0  0  0  0
  9  8  1  0  0  0  0
 10  9  2  0  0  0  0
 11 30  1  0  0  0  0
 11 10  1  0  0  0  0
 12 26  1  0  0  0  0
 12  1  1  0  0  0  0
 13 12  2  0  0  0  0
 14 13  1  0  0  0  0
 15 14  1  0  0  0  0
 15 16  2  0  0  0  0
 16 26  1  0  0  0  0
 17 16  1  0  0  0  0
 17 25  1  0  0  0  0
 18 17  1  0  0  0  0
 19 18  1  0  0  0  0
 19 15  1  0  0  0  0
 20 19  2  0  0  0  0
 21 22  2  0  0  0  0
 21 20  1  0  0  0  0
 22 23  1  0  0  0  0
 23 34  1  0  0  0  0
 23 18  2  0  0  0  0
 24 21  1  0  0  0  0
 25 36  1  0  0  0  0
 27  2  1  0  0  0  0
 29  5  1  0  0  0  0
 31 11  1  0  0  0  0
 32 20  1  0  0  0  0
 33 22  1  0  0  0  0
 35 25  1  0  0  0  0
 37 25  1  0  0  0  0
M  END
>  <Pose>
1

>  <Score>
-10.77

$$$$
