
 OpenBabel03202210193D

 52 56  0  0  1  0  0  0  0  0999 V2000
   22.9600   64.2320  -10.6050 S   0  0  0  0  0  0  0  0  0  0  0  0
   21.5650   63.4620   -9.7960 C   0  0  0  0  0  0  0  0  0  0  0  0
   20.9730   62.4300  -10.2770 N   0  0  0  0  0  0  0  0  0  0  0  0
   19.8640   61.7670   -9.6920 C   0  0  0  0  0  0  0  0  0  0  0  0
   19.6490   60.5560   -9.7870 O   0  0  0  0  0  0  0  0  0  0  0  0
   18.9210   62.7030   -8.9060 C   0  0  1  0  0  0  0  0  0  0  0  0
   19.9000   63.3200   -7.9590 C   0  0  0  0  0  0  0  0  0  0  0  0
   19.8250   63.3160   -6.7290 O   0  0  0  0  0  0  0  0  0  0  0  0
   21.0150   63.9640   -8.5560 N   0  0  0  0  0  0  0  0  0  0  0  0
   21.5780   65.0810   -7.9320 C   0  0  0  0  0  0  0  0  0  0  0  0
   20.7920   66.2370   -7.8440 C   0  0  0  0  0  0  0  0  0  0  0  0
   21.2780   67.3780   -7.2410 C   0  0  0  0  0  0  0  0  0  0  0  0
   22.5660   67.3750   -6.7160 C   0  0  0  0  0  0  0  0  0  0  0  0
   23.3440   66.2130   -6.8090 C   0  0  0  0  0  0  0  0  0  0  0  0
   22.8430   65.0850   -7.4130 C   0  0  0  0  0  0  0  0  0  0  0  0
   23.2690   68.9160   -5.8830 B   0  0  0  0  0  0  0  0  0  0  0  0
   18.3710   63.6060   -9.9090 C   0  0  1  0  0  0  0  0  0  0  0  0
   19.2580   63.8050  -11.0480 N   0  0  0  0  0  4  0  0  0  0  0  0
   18.9650   65.0730  -11.6920 C   0  0  0  0  0  0  0  0  0  0  0  0
   17.6640   65.6970  -11.2610 C   0  0  0  0  0  0  0  0  0  0  0  0
   16.6270   64.6070  -11.1810 C   0  0  0  0  0  0  0  0  0  0  0  0
   17.0350   63.4600  -10.4590 C   0  0  0  0  0  0  0  0  0  0  0  0
   16.1780   62.4010  -10.3460 C   0  0  0  0  0  0  0  0  0  0  0  0
   14.9290   62.5080  -10.9540 C   0  0  0  0  0  0  0  0  0  0  0  0
   14.5550   63.6330  -11.6490 C   0  0  0  0  0  0  0  0  0  0  0  0
   15.4110   64.7120  -11.7730 C   0  0  0  0  0  0  0  0  0  0  0  0
   13.2760   63.4440  -12.1300 O   0  0  0  0  0  0  0  0  0  0  0  0
   12.9380   62.0860  -11.9890 C   0  0  0  0  0  0  0  0  0  0  0  0
   13.8780   61.6340  -11.0140 O   0  0  0  0  0  0  0  0  0  0  0  0
   16.5280   61.2480   -9.6570 O   0  0  0  0  0  0  0  0  0  0  0  0
   16.4500   59.9960  -10.3290 C   0  0  0  0  0  0  0  0  0  0  0  0
   19.2090   62.7770  -12.0300 C   0  0  0  0  0  0  0  0  0  0  0  0
   18.2820   62.0200   -8.3700 H   0  0  0  0  0  0  0  0  0  0  0  0
   19.7830   66.2650   -8.2460 H   0  0  0  0  0  0  0  0  0  0  0  0
   20.6560   68.2550   -7.1850 H   0  0  0  0  0  0  0  0  0  0  0  0
   24.3470   66.1660   -6.4160 H   0  0  0  0  0  0  0  0  0  0  0  0
   23.4340   64.2000   -7.4840 H   0  0  0  0  0  0  0  0  0  0  0  0
   18.3900   64.6460   -9.4240 H   0  0  0  0  0  0  0  0  0  0  0  0
   20.2250   63.8650  -10.6650 H   0  0  0  0  0  0  0  0  0  0  0  0
   18.9340   64.9560  -12.7950 H   0  0  0  0  0  0  0  0  0  0  0  0
   19.7670   65.8330  -11.4910 H   0  0  0  0  0  0  0  0  0  0  0  0
   17.7180   66.2980  -10.3470 H   0  0  0  0  0  0  0  0  0  0  0  0
   17.3340   66.3680  -12.1000 H   0  0  0  0  0  0  0  0  0  0  0  0
   15.1310   65.6120  -12.3210 H   0  0  0  0  0  0  0  0  0  0  0  0
   11.8990   61.9580  -11.6230 H   0  0  0  0  0  0  0  0  0  0  0  0
   13.1130   61.5790  -12.9600 H   0  0  0  0  0  0  0  0  0  0  0  0
   15.4660   59.5320  -10.0570 H   0  0  0  0  0  0  0  0  0  0  0  0
   17.2710   59.3200  -10.0890 H   0  0  0  0  0  0  0  0  0  0  0  0
   16.4230   60.1620  -11.4150 H   0  0  0  0  0  0  0  0  0  0  0  0
   19.7520   63.1440  -12.9260 H   0  0  0  0  0  0  0  0  0  0  0  0
   19.7010   61.8330  -11.7370 H   0  0  0  0  0  0  0  0  0  0  0  0
   18.1560   62.5980  -12.3890 H   0  0  0  0  0  0  0  0  0  0  0  0
  1  2  2  0  0  0  0
  2  9  1  0  0  0  0
  3  2  1  0  0  0  0
  3  4  1  0  0  0  0
  4  6  1  0  0  0  0
  5  4  2  0  0  0  0
  6 33  1  1  0  0  0
  6  7  1  0  0  0  0
  7  8  2  0  0  0  0
  9  7  1  0  0  0  0
  9 10  1  0  0  0  0
 10 11  2  0  0  0  0
 10 15  1  0  0  0  0
 11 12  1  0  0  0  0
 12 35  1  0  0  0  0
 12 13  2  0  0  0  0
 13 16  1  0  0  0  0
 14 13  1  0  0  0  0
 14 36  1  0  0  0  0
 15 14  2  0  0  0  0
 17 38  1  1  0  0  0
 17  6  1  0  0  0  0
 18 39  1  0  0  0  0
 18 17  1  0  0  0  0
 19 41  1  0  0  0  0
 19 20  1  0  0  0  0
 19 18  1  0  0  0  0
 20 21  1  0  0  0  0
 20 42  1  0  0  0  0
 21 22  1  0  0  0  0
 22 23  2  0  0  0  0
 22 17  1  0  0  0  0
 23 30  1  0  0  0  0
 24 23  1  0  0  0  0
 25 24  2  0  0  0  0
 26 25  1  0  0  0  0
 26 21  2  0  0  0  0
 27 28  1  0  0  0  0
 27 25  1  0  0  0  0
 28 45  1  0  0  0  0
 28 29  1  0  0  0  0
 29 24  1  0  0  0  0
 31 48  1  0  0  0  0
 31 47  1  0  0  0  0
 31 30  1  0  0  0  0
 32 51  1  0  0  0  0
 32 18  1  0  0  0  0
 34 11  1  0  0  0  0
 37 15  1  0  0  0  0
 40 19  1  0  0  0  0
 43 20  1  0  0  0  0
 44 26  1  0  0  0  0
 46 28  1  0  0  0  0
 49 31  1  0  0  0  0
 50 32  1  0  0  0  0
 52 32  1  0  0  0  0
M  END
>  <Pose>
1

>  <Score>
-4.00

$$$$
