
 OpenBabel03202210193D

 39 42  0  0  1  0  0  0  0  0999 V2000
   14.6830   61.5460  -11.2270 S   0  0  0  0  0  0  0  0  0  0  0  0
   13.9140   61.3180  -12.4960 O   0  0  0  0  0  0  0  0  0  0  0  0
   14.1100   60.7640  -10.0790 O   0  0  0  0  0  0  0  0  0  0  0  0
   16.4060   61.1490  -11.4330 C   0  0  0  0  0  0  0  0  0  0  0  0
   17.1490   61.9860  -10.4120 C   0  0  2  0  0  0  0  0  0  0  0  0
   17.0900   63.3760  -10.8160 N   0  0  0  0  0  0  0  0  0  0  0  0
   15.8930   63.9140  -11.4290 C   0  0  0  0  0  0  0  0  0  0  0  0
   14.6550   63.2890  -10.7830 C   0  0  0  0  0  0  0  0  0  0  0  0
   18.3580   63.9170  -10.4730 C   0  0  0  0  0  0  0  0  0  0  0  0
   18.6560   65.1590  -10.4230 O   0  0  0  0  0  0  0  0  0  0  0  0
   19.2850   62.8800  -10.1800 N   0  0  0  0  0  0  0  0  0  0  0  0
   18.5780   61.6610  -10.3460 C   0  0  0  0  0  0  0  0  0  0  0  0
   19.0700   60.4960  -10.4250 O   0  0  0  0  0  0  0  0  0  0  0  0
   20.6810   63.0090   -9.7880 C   0  0  1  0  0  0  0  0  0  0  0  0
   21.4240   63.9620  -10.7070 C   0  0  0  0  0  0  0  0  0  0  0  0
   22.8850   63.9300  -10.2500 C   0  0  0  0  0  0  0  0  0  0  0  0
   22.9050   64.5130   -8.9600 O   0  0  0  0  0  0  0  0  0  0  0  0
   21.8760   64.2730   -8.0560 C   0  0  0  0  0  0  0  0  0  0  0  0
   20.7770   63.5470   -8.4180 C   0  0  0  0  0  0  0  0  0  0  0  0
   19.7650   63.3110   -7.5300 C   0  0  0  0  0  0  0  0  0  0  0  0
   19.8710   63.8210   -6.2580 C   0  0  0  0  0  0  0  0  0  0  0  0
   20.9810   64.5480   -5.9090 C   0  0  0  0  0  0  0  0  0  0  0  0
   22.0210   64.8050   -6.7840 C   0  0  0  0  0  0  0  0  0  0  0  0
   23.5530   65.8140   -6.2870 B   0  0  0  0  0  0  0  0  0  0  0  0
   16.7030   61.5550  -12.4340 H   0  0  0  0  0  0  0  0  0  0  0  0
   16.6030   60.0710  -11.3350 H   0  0  0  0  0  0  0  0  0  0  0  0
   16.7120   61.9190   -9.4000 H   0  0  0  0  0  0  0  0  0  0  0  0
   15.8430   63.7100  -12.5140 H   0  0  0  0  0  0  0  0  0  0  0  0
   15.7880   65.0140  -11.2610 H   0  0  0  0  0  0  0  0  0  0  0  0
   14.6300   63.4330   -9.7050 H   0  0  0  0  0  0  0  0  0  0  0  0
   13.7830   63.7250  -11.3150 H   0  0  0  0  0  0  0  0  0  0  0  0
   21.2130   62.0520   -9.8210 H   0  0  0  0  0  0  0  0  0  0  0  0
   21.3530   63.6780  -11.7640 H   0  0  0  0  0  0  0  0  0  0  0  0
   21.0850   65.0070  -10.5550 H   0  0  0  0  0  0  0  0  0  0  0  0
   23.1350   62.8490  -10.1080 H   0  0  0  0  0  0  0  0  0  0  0  0
   23.5530   64.4290  -10.9480 H   0  0  0  0  0  0  0  0  0  0  0  0
   18.8880   62.7240   -7.8400 H   0  0  0  0  0  0  0  0  0  0  0  0
   19.0760   63.6400   -5.5440 H   0  0  0  0  0  0  0  0  0  0  0  0
   21.0430   64.9390   -4.9030 H   0  0  0  0  0  0  0  0  0  0  0  0
  1  8  1  0  0  0  0
  1  3  2  0  0  0  0
  2  1  2  0  0  0  0
  4 26  1  0  0  0  0
  4  1  1  0  0  0  0
  4  5  1  0  0  0  0
  5 12  1  0  0  0  0
  5 27  1  1  0  0  0
  6  9  1  0  0  0  0
  6  5  1  0  0  0  0
  7 29  1  0  0  0  0
  7  6  1  0  0  0  0
  7  8  1  0  0  0  0
  8 30  1  0  0  0  0
  9 10  2  0  0  0  0
  9 11  1  0  0  0  0
 11 14  1  0  0  0  0
 12 11  1  0  0  0  0
 13 12  2  0  0  0  0
 14 32  1  6  0  0  0
 14 19  1  0  0  0  0
 15 34  1  0  0  0  0
 15 16  1  0  0  0  0
 15 14  1  0  0  0  0
 16 35  1  0  0  0  0
 16 17  1  0  0  0  0
 17 18  1  0  0  0  0
 18 23  1  0  0  0  0
 19 18  2  0  0  0  0
 19 20  1  0  0  0  0
 20 21  2  0  0  0  0
 21 22  1  0  0  0  0
 21 38  1  0  0  0  0
 22 39  1  0  0  0  0
 23 24  1  0  0  0  0
 23 22  2  0  0  0  0
 25  4  1  0  0  0  0
 28  7  1  0  0  0  0
 31  8  1  0  0  0  0
 33 15  1  0  0  0  0
 36 16  1  0  0  0  0
 37 20  1  0  0  0  0
M  END
>  <Pose>
1

>  <Score>
-5.60

$$$$
