
 OpenBabel03202210193D

 58 61  0  0  1  0  0  0  0  0999 V2000
   16.4250   63.8160  -10.3310 S   0  0  0  0  0  0  0  0  0  0  0  0
   15.6140   62.3810  -10.7680 C   0  0  0  0  0  0  0  0  0  0  0  0
   16.5280   61.4600  -10.5290 N   0  0  0  0  0  0  0  0  0  0  0  0
   17.6950   61.8040  -10.0710 C   0  0  0  0  0  0  0  0  0  0  0  0
   17.9230   63.1380   -9.8580 C   0  0  0  0  0  0  0  0  0  0  0  0
   19.0770   63.8570   -9.3210 C   0  0  0  0  0  0  0  0  0  0  0  0
   20.2710   63.7320   -9.8670 C   0  0  0  0  0  0  0  0  0  0  0  0
   21.5590   64.3810   -9.4510 C   0  0  2  0  0  0  0  0  0  0  0  0
   22.5530   63.4110   -9.7850 N   0  0  0  0  0  0  0  0  0  0  0  0
   22.0450   62.7780  -10.9930 C   0  0  0  0  0  0  0  0  0  0  0  0
   22.7880   62.1710  -11.8110 O   0  0  0  0  0  0  0  0  0  0  0  0
   20.6080   62.9720  -11.0630 C   0  0  0  0  0  0  0  0  0  0  0  0
   19.8120   62.5670  -11.9750 O   0  0  0  0  0  0  0  0  0  0  0  0
   23.8200   63.1000   -9.1910 C   0  0  0  0  0  0  0  0  0  0  0  0
   23.9590   63.3990   -7.7340 C   0  0  0  0  0  0  0  0  0  0  0  0
   25.1770   62.6720   -7.1430 C   0  0  0  0  0  0  0  0  0  0  0  0
   25.6550   63.4290   -6.0350 N   0  0  0  0  0  4  0  0  0  0  0  0
   24.6800   63.8240   -5.0700 C   0  0  0  0  0  0  0  0  0  0  0  0
   24.2370   62.6980   -4.1660 C   0  0  0  0  0  0  0  0  0  0  0  0
   24.9050   61.5340   -4.6080 O   0  0  0  0  0  0  0  0  0  0  0  0
   26.2640   61.7700   -4.3190 C   0  0  0  0  0  0  0  0  0  0  0  0
   26.7500   62.7700   -5.3480 C   0  0  0  0  0  0  0  0  0  0  0  0
   21.5130   64.8480   -8.0710 C   0  0  0  0  0  0  0  0  0  0  0  0
   21.7500   66.2100   -7.8320 C   0  0  0  0  0  0  0  0  0  0  0  0
   21.7100   66.7730   -6.5820 C   0  0  0  0  0  0  0  0  0  0  0  0
   21.4260   65.9850   -5.4940 C   0  0  0  0  0  0  0  0  0  0  0  0
   21.1840   64.6340   -5.6900 C   0  0  0  0  0  0  0  0  0  0  0  0
   21.2330   64.1040   -6.9620 C   0  0  0  0  0  0  0  0  0  0  0  0
   22.0370   68.6310   -6.2860 B   0  0  0  0  0  0  0  0  0  0  0  0
   18.9230   64.7050   -8.2010 O   0  0  0  0  0  0  0  0  0  0  0  0
   18.7310   60.7320   -9.7560 C   0  0  0  0  0  0  0  0  0  0  0  0
   14.2080   62.2050  -11.2950 C   0  0  0  0  0  0  0  0  0  0  0  0
   21.6450   65.2760  -10.1380 H   0  0  0  0  0  0  0  0  0  0  0  0
   24.5750   63.7350   -9.7310 H   0  0  0  0  0  0  0  0  0  0  0  0
   24.0620   62.0220   -9.3500 H   0  0  0  0  0  0  0  0  0  0  0  0
   24.0620   64.4360   -7.4470 H   0  0  0  0  0  0  0  0  0  0  0  0
   23.0760   62.8980   -7.2320 H   0  0  0  0  0  0  0  0  0  0  0  0
   25.9820   62.5850   -7.8990 H   0  0  0  0  0  0  0  0  0  0  0  0
   24.8130   61.6590   -6.8720 H   0  0  0  0  0  0  0  0  0  0  0  0
   26.0710   64.3260   -6.4300 H   0  0  0  0  0  0  0  0  0  0  0  0
   23.7900   64.3240   -5.4510 H   0  0  0  0  0  0  0  0  0  0  0  0
   25.1880   64.5830   -4.4040 H   0  0  0  0  0  0  0  0  0  0  0  0
   23.1540   62.5680   -4.1020 H   0  0  0  0  0  0  0  0  0  0  0  0
   24.6000   62.8380   -3.1120 H   0  0  0  0  0  0  0  0  0  0  0  0
   26.2850   62.2960   -3.3280 H   0  0  0  0  0  0  0  0  0  0  0  0
   26.8570   60.8590   -4.2670 H   0  0  0  0  0  0  0  0  0  0  0  0
   27.3890   63.5410   -4.8880 H   0  0  0  0  0  0  0  0  0  0  0  0
   27.3440   62.2250   -6.1170 H   0  0  0  0  0  0  0  0  0  0  0  0
   21.9800   66.8720   -8.6670 H   0  0  0  0  0  0  0  0  0  0  0  0
   21.3980   66.4420   -4.5180 H   0  0  0  0  0  0  0  0  0  0  0  0
   20.9600   63.9940   -4.8650 H   0  0  0  0  0  0  0  0  0  0  0  0
   21.0280   63.0520   -7.1020 H   0  0  0  0  0  0  0  0  0  0  0  0
   19.4930   61.1460   -9.1030 H   0  0  0  0  0  0  0  0  0  0  0  0
   19.1140   60.2960  -10.7000 H   0  0  0  0  0  0  0  0  0  0  0  0
   18.2480   59.8890   -9.2120 H   0  0  0  0  0  0  0  0  0  0  0  0
   14.2070   61.7020  -12.2670 H   0  0  0  0  0  0  0  0  0  0  0  0
   13.6840   61.6070  -10.5160 H   0  0  0  0  0  0  0  0  0  0  0  0
   13.7440   63.2120  -11.3030 H   0  0  0  0  0  0  0  0  0  0  0  0
  1  5  1  0  0  0  0
  2  3  2  0  0  0  0
  2  1  1  0  0  0  0
  3  4  1  0  0  0  0
  4  5  2  0  0  0  0
  4 31  1  0  0  0  0
  5  6  1  0  0  0  0
  6 30  1  0  0  0  0
  7  8  1  0  0  0  0
  7  6  2  0  0  0  0
  8 33  1  6  0  0  0
  8 23  1  0  0  0  0
  9  8  1  0  0  0  0
  9 14  1  0  0  0  0
 10  9  1  0  0  0  0
 11 10  2  0  0  0  0
 12 10  1  0  0  0  0
 12  7  1  0  0  0  0
 13 12  2  0  0  0  0
 14 15  1  0  0  0  0
 15 36  1  0  0  0  0
 15 37  1  0  0  0  0
 15 16  1  0  0  0  0
 16 39  1  0  0  0  0
 16 17  1  0  0  0  0
 17 22  1  0  0  0  0
 17 18  1  0  0  0  0
 18 42  1  0  0  0  0
 18 19  1  0  0  0  0
 19 43  1  0  0  0  0
 19 44  1  0  0  0  0
 20 21  1  0  0  0  0
 20 19  1  0  0  0  0
 21 46  1  0  0  0  0
 21 45  1  0  0  0  0
 22 47  1  0  0  0  0
 22 21  1  0  0  0  0
 23 24  2  0  0  0  0
 23 28  1  0  0  0  0
 24 25  1  0  0  0  0
 25 29  1  0  0  0  0
 25 26  2  0  0  0  0
 26 50  1  0  0  0  0
 27 26  1  0  0  0  0
 27 51  1  0  0  0  0
 28 27  2  0  0  0  0
 31 55  1  0  0  0  0
 31 53  1  0  0  0  0
 32  2  1  0  0  0  0
 32 57  1  0  0  0  0
 34 14  1  0  0  0  0
 35 14  1  0  0  0  0
 38 16  1  0  0  0  0
 40 17  1  0  0  0  0
 41 18  1  0  0  0  0
 48 22  1  0  0  0  0
 49 24  1  0  0  0  0
 52 28  1  0  0  0  0
 54 31  1  0  0  0  0
 56 32  1  0  0  0  0
 58 32  1  0  0  0  0
M  END
>  <Pose>
1

>  <Score>
-6.37

$$$$
