
 OpenBabel03202210193D

 55 58  0  0  1  0  0  0  0  0999 V2000
   17.1750   64.2700  -10.9360 S   0  0  0  0  0  0  0  0  0  0  0  0
   15.8510   63.2580  -10.5970 C   0  0  0  0  0  0  0  0  0  0  0  0
   16.4390   62.1310  -10.2500 N   0  0  0  0  0  0  0  0  0  0  0  0
   17.7330   62.0450  -10.2430 C   0  0  0  0  0  0  0  0  0  0  0  0
   18.4510   63.1600  -10.6040 C   0  0  0  0  0  0  0  0  0  0  0  0
   19.9030   63.3590  -10.7300 C   0  0  0  0  0  0  0  0  0  0  0  0
   20.5350   63.8240   -9.6730 C   0  0  0  0  0  0  0  0  0  0  0  0
   21.9890   64.1200   -9.4950 C   0  0  1  0  0  0  0  0  0  0  0  0
   22.2280   63.5350   -8.2330 N   0  0  0  0  0  0  0  0  0  0  0  0
   21.0960   64.0570   -7.4330 C   0  0  0  0  0  0  0  0  0  0  0  0
   21.0860   64.2890   -6.1940 O   0  0  0  0  0  0  0  0  0  0  0  0
   20.0000   64.2400   -8.3780 C   0  0  0  0  0  0  0  0  0  0  0  0
   18.8180   64.6650   -8.1900 O   0  0  0  0  0  0  0  0  0  0  0  0
   23.1850   62.7350   -7.5470 C   0  0  0  0  0  0  0  0  0  0  0  0
   24.0550   63.3330   -6.5270 C   0  0  0  0  0  0  0  0  0  0  0  0
   24.2460   62.7460   -5.2640 N   0  0  0  0  0  4  0  0  0  0  0  0
   25.6140   62.3730   -4.9690 C   0  0  0  0  0  0  0  0  0  0  0  0
   25.5770   61.6380   -3.6330 C   0  0  0  0  0  0  0  0  0  0  0  0
   24.3760   61.8780   -2.9650 O   0  0  0  0  0  0  0  0  0  0  0  0
   24.2430   63.2800   -2.9190 C   0  0  0  0  0  0  0  0  0  0  0  0
   23.9880   63.8520   -4.2850 C   0  0  0  0  0  0  0  0  0  0  0  0
   22.8300   64.0050  -10.6360 C   0  0  0  0  0  0  0  0  0  0  0  0
   23.4700   62.7880  -10.8870 C   0  0  0  0  0  0  0  0  0  0  0  0
   24.3100   62.5980  -11.9530 C   0  0  0  0  0  0  0  0  0  0  0  0
   24.5240   63.6600  -12.8060 C   0  0  0  0  0  0  0  0  0  0  0  0
   23.9020   64.8700  -12.5760 C   0  0  0  0  0  0  0  0  0  0  0  0
   23.0630   65.0370  -11.4980 C   0  0  0  0  0  0  0  0  0  0  0  0
   25.6810   63.4810  -14.3190 B   0  0  0  0  0  0  0  0  0  0  0  0
   20.6040   63.0800  -11.8900 O   0  0  0  0  0  0  0  0  0  0  0  0
   18.4310   60.7400   -9.8880 C   0  0  0  0  0  0  0  0  0  0  0  0
   14.3800   63.5660  -10.6700 C   0  0  0  0  0  0  0  0  0  0  0  0
   21.9570   65.2550   -9.2580 H   0  0  0  0  0  0  0  0  0  0  0  0
   23.8740   62.2740   -8.3260 H   0  0  0  0  0  0  0  0  0  0  0  0
   22.7290   61.8260   -7.0740 H   0  0  0  0  0  0  0  0  0  0  0  0
   23.6550   64.3820   -6.3270 H   0  0  0  0  0  0  0  0  0  0  0  0
   25.0600   63.5270   -7.0370 H   0  0  0  0  0  0  0  0  0  0  0  0
   23.5440   62.0270   -5.0600 H   0  0  0  0  0  0  0  0  0  0  0  0
   26.0530   61.6880   -5.6960 H   0  0  0  0  0  0  0  0  0  0  0  0
   26.2110   63.3170   -4.8800 H   0  0  0  0  0  0  0  0  0  0  0  0
   26.4600   62.0190   -3.0520 H   0  0  0  0  0  0  0  0  0  0  0  0
   25.6380   60.5400   -3.7810 H   0  0  0  0  0  0  0  0  0  0  0  0
   23.4480   63.5670   -2.2130 H   0  0  0  0  0  0  0  0  0  0  0  0
   25.2540   63.6420   -2.5750 H   0  0  0  0  0  0  0  0  0  0  0  0
   22.9750   64.2190   -4.4420 H   0  0  0  0  0  0  0  0  0  0  0  0
   24.7420   64.6220   -4.5460 H   0  0  0  0  0  0  0  0  0  0  0  0
   23.3200   61.9220  -10.2210 H   0  0  0  0  0  0  0  0  0  0  0  0
   24.8030   61.6330  -12.1330 H   0  0  0  0  0  0  0  0  0  0  0  0
   24.0880   65.6920  -13.2670 H   0  0  0  0  0  0  0  0  0  0  0  0
   22.6010   66.0400  -11.3510 H   0  0  0  0  0  0  0  0  0  0  0  0
   17.8560   59.9140  -10.3690 H   0  0  0  0  0  0  0  0  0  0  0  0
   18.4250   60.5430   -8.8190 H   0  0  0  0  0  0  0  0  0  0  0  0
   19.4630   60.7440  -10.2630 H   0  0  0  0  0  0  0  0  0  0  0  0
   13.8060   62.7250  -11.0970 H   0  0  0  0  0  0  0  0  0  0  0  0
   14.2760   64.4990  -11.2960 H   0  0  0  0  0  0  0  0  0  0  0  0
   14.0540   63.8450   -9.6490 H   0  0  0  0  0  0  0  0  0  0  0  0
  1  5  1  0  0  0  0
  1  2  1  0  0  0  0
  2  3  2  0  0  0  0
  3  4  1  0  0  0  0
  4 30  1  0  0  0  0
  5  4  2  0  0  0  0
  6  5  1  0  0  0  0
  6  7  2  0  0  0  0
  7  8  1  0  0  0  0
  7 12  1  0  0  0  0
  8 32  1  1  0  0  0
  8  9  1  0  0  0  0
  9 14  1  0  0  0  0
  9 10  1  0  0  0  0
 10 11  2  0  0  0  0
 12 13  2  0  0  0  0
 12 10  1  0  0  0  0
 14 34  1  0  0  0  0
 14 15  1  0  0  0  0
 15 35  1  0  0  0  0
 15 16  1  0  0  0  0
 16 37  1  0  0  0  0
 16 17  1  0  0  0  0
 16 21  1  0  0  0  0
 17 39  1  0  0  0  0
 17 18  1  0  0  0  0
 18 40  1  0  0  0  0
 18 19  1  0  0  0  0
 19 20  1  0  0  0  0
 20 43  1  0  0  0  0
 20 42  1  0  0  0  0
 21 20  1  0  0  0  0
 22  8  1  0  0  0  0
 23 22  1  0  0  0  0
 23 46  1  0  0  0  0
 24 23  2  0  0  0  0
 25 26  2  0  0  0  0
 25 24  1  0  0  0  0
 26 27  1  0  0  0  0
 27 49  1  0  0  0  0
 27 22  2  0  0  0  0
 28 25  1  0  0  0  0
 29  6  1  0  0  0  0
 30 51  1  0  0  0  0
 31  2  1  0  0  0  0
 31 55  1  0  0  0  0
 33 14  1  0  0  0  0
 36 15  1  0  0  0  0
 38 17  1  0  0  0  0
 41 18  1  0  0  0  0
 44 21  1  0  0  0  0
 45 21  1  0  0  0  0
 47 24  1  0  0  0  0
 48 26  1  0  0  0  0
 50 30  1  0  0  0  0
 52 30  1  0  0  0  0
 53 31  1  0  0  0  0
 54 31  1  0  0  0  0
M  END
>  <Pose>
1

>  <Score>
-7.33

$$$$
