
 OpenBabel03202210193D

 46 49  0  0  1  0  0  0  0  0999 V2000
   23.2090   62.9540   -9.4700 S   0  0  0  0  0  0  0  0  0  0  0  0
   21.6760   63.5320   -9.9490 C   0  0  0  0  0  0  0  0  0  0  0  0
   21.1940   64.1090   -8.8070 C   0  0  0  0  0  0  0  0  0  0  0  0
   21.9920   64.0660   -7.7100 C   0  0  0  0  0  0  0  0  0  0  0  0
   23.2090   63.4480   -7.8490 C   0  0  0  0  0  0  0  0  0  0  0  0
   24.1760   63.3340   -6.7170 C   0  0  0  0  0  0  0  0  0  0  0  0
   24.1270   64.4180   -5.7970 N   0  0  0  0  0  4  0  0  0  0  0  0
   22.9930   65.2740   -5.8850 C   0  0  0  0  0  0  0  0  0  0  0  0
   21.7140   64.6260   -6.3100 C   0  0  0  0  0  0  0  0  0  0  0  0
   24.3520   63.9580   -4.4320 C   0  0  0  0  0  0  0  0  0  0  0  0
   19.8350   64.7110   -8.9680 C   0  0  0  0  0  0  0  0  0  0  0  0
   19.2770   65.2780   -7.9730 O   0  0  0  0  0  0  0  0  0  0  0  0
   19.1810   64.6470  -10.2210 N   0  0  0  0  0  0  0  0  0  0  0  0
   19.4650   63.5740  -11.1490 C   0  0  1  0  0  0  0  0  0  0  0  0
   20.9250   63.5050  -11.1930 N   0  0  0  0  0  0  0  0  0  0  0  0
   18.9160   62.3240  -10.5610 C   0  0  0  0  0  0  0  0  0  0  0  0
   19.7140   61.4910   -9.8070 C   0  0  0  0  0  0  0  0  0  0  0  0
   19.2250   60.3280   -9.2530 C   0  0  0  0  0  0  0  0  0  0  0  0
   17.8960   59.9810   -9.4570 C   0  0  0  0  0  0  0  0  0  0  0  0
   17.0750   60.7950  -10.2070 C   0  0  0  0  0  0  0  0  0  0  0  0
   17.5870   61.9360  -10.7400 C   0  0  0  0  0  0  0  0  0  0  0  0
   15.7590   60.4060  -10.3800 O   0  0  0  0  0  0  0  0  0  0  0  0
   14.6400   61.2260  -10.2610 C   0  0  0  0  0  0  0  0  0  0  0  0
   14.3270   61.9310  -11.5620 C   0  0  0  0  0  0  0  0  0  0  0  0
   17.3790   58.8100   -8.9080 O   0  0  0  0  0  0  0  0  0  0  0  0
   20.3170   59.1670   -8.2080 B   0  0  0  0  0  0  0  0  0  0  0  0
   23.9010   62.3980   -6.1690 H   0  0  0  0  0  0  0  0  0  0  0  0
   25.1840   63.1580   -7.1370 H   0  0  0  0  0  0  0  0  0  0  0  0
   24.9770   65.0270   -6.0080 H   0  0  0  0  0  0  0  0  0  0  0  0
   23.1830   66.1510   -6.5370 H   0  0  0  0  0  0  0  0  0  0  0  0
   22.8150   65.7020   -4.8590 H   0  0  0  0  0  0  0  0  0  0  0  0
   21.4000   63.8130   -5.6360 H   0  0  0  0  0  0  0  0  0  0  0  0
   20.9620   65.4280   -6.3880 H   0  0  0  0  0  0  0  0  0  0  0  0
   24.9950   64.6500   -3.8590 H   0  0  0  0  0  0  0  0  0  0  0  0
   24.8540   62.9580   -4.4800 H   0  0  0  0  0  0  0  0  0  0  0  0
   23.4020   63.8580   -3.8720 H   0  0  0  0  0  0  0  0  0  0  0  0
   18.4850   65.3800  -10.4830 H   0  0  0  0  0  0  0  0  0  0  0  0
   19.0720   63.7770  -12.1500 H   0  0  0  0  0  0  0  0  0  0  0  0
   21.4830   63.4360  -12.0590 H   0  0  0  0  0  0  0  0  0  0  0  0
   20.7430   61.7370   -9.6350 H   0  0  0  0  0  0  0  0  0  0  0  0
   16.9760   62.5860  -11.3260 H   0  0  0  0  0  0  0  0  0  0  0  0
   13.7850   60.6010   -9.9250 H   0  0  0  0  0  0  0  0  0  0  0  0
   14.7980   62.0020   -9.4840 H   0  0  0  0  0  0  0  0  0  0  0  0
   15.0730   61.6010  -12.3130 H   0  0  0  0  0  0  0  0  0  0  0  0
   13.2760   61.7460  -11.8770 H   0  0  0  0  0  0  0  0  0  0  0  0
   14.4960   63.0380  -11.4610 H   0  0  0  0  0  0  0  0  0  0  0  0
  1  5  1  0  0  0  0
  2  1  1  0  0  0  0
  2  3  2  0  0  0  0
  3  4  1  0  0  0  0
  4  9  1  0  0  0  0
  5  4  2  0  0  0  0
  5  6  1  0  0  0  0
  6 27  1  0  0  0  0
  6  7  1  0  0  0  0
  7 10  1  0  0  0  0
  8  7  1  0  0  0  0
  8 31  1  0  0  0  0
  9  8  1  0  0  0  0
  9 32  1  0  0  0  0
 10 36  1  0  0  0  0
 10 34  1  0  0  0  0
 11  3  1  0  0  0  0
 11 12  2  0  0  0  0
 13 11  1  0  0  0  0
 14 38  1  6  0  0  0
 14 16  1  0  0  0  0
 14 13  1  0  0  0  0
 15 14  1  0  0  0  0
 15  2  1  0  0  0  0
 16 17  1  0  0  0  0
 17 40  1  0  0  0  0
 17 18  2  0  0  0  0
 18 26  1  0  0  0  0
 19 18  1  0  0  0  0
 19 25  1  0  0  0  0
 20 19  2  0  0  0  0
 21 16  2  0  0  0  0
 21 20  1  0  0  0  0
 22 23  1  0  0  0  0
 22 20  1  0  0  0  0
 23 42  1  0  0  0  0
 23 43  1  0  0  0  0
 24 46  1  0  0  0  0
 24 23  1  0  0  0  0
 28  6  1  0  0  0  0
 29  7  1  0  0  0  0
 30  8  1  0  0  0  0
 33  9  1  0  0  0  0
 35 10  1  0  0  0  0
 37 13  1  0  0  0  0
 39 15  1  0  0  0  0
 41 21  1  0  0  0  0
 44 24  1  0  0  0  0
 45 24  1  0  0  0  0
M  END
>  <Pose>
1

>  <Score>
-5.92

$$$$
