
 OpenBabel03202210193D

 40 43  0  0  1  0  0  0  0  0999 V2000
   21.8410   62.9250  -12.1320 S   0  0  0  0  0  0  0  0  0  0  0  0
   23.4900   63.6460  -11.9260 C   0  0  2  0  0  0  0  0  0  0  0  0
   23.7740   63.2040  -10.5160 C   0  0  0  0  0  0  0  0  0  0  0  0
   22.5890   63.1580   -9.7150 N   0  0  0  0  0  0  0  0  0  0  0  0
   21.4350   63.0360  -10.3930 C   0  0  2  0  0  0  0  0  0  0  0  0
   20.4140   63.0310   -9.5290 N   0  0  0  0  0  0  0  0  0  0  0  0
   20.9090   63.1510   -8.2770 C   0  0  0  0  0  0  0  0  0  0  0  0
   22.2770   63.2300   -8.3760 C   0  0  0  0  0  0  0  0  0  0  0  0
   23.1690   63.3750   -7.2500 C   0  0  0  0  0  0  0  0  0  0  0  0
   22.6510   63.9400   -6.0720 C   0  0  0  0  0  0  0  0  0  0  0  0
   23.4310   64.0700   -4.9520 C   0  0  0  0  0  0  0  0  0  0  0  0
   24.7420   63.6670   -4.9050 C   0  0  0  0  0  0  0  0  0  0  0  0
   25.2730   63.1110   -6.0450 C   0  0  0  0  0  0  0  0  0  0  0  0
   24.4770   62.9760   -7.1890 C   0  0  0  0  0  0  0  0  0  0  0  0
   25.4810   63.8370   -3.7100 N   0  0  0  0  0  0  0  0  0  0  0  0
   25.2650   64.7990   -2.9640 O   0  0  0  0  0  0  0  0  0  0  0  0
   26.4400   62.9280   -3.3840 O   0  0  0  0  0  0  0  0  0  0  0  0
   19.0320   62.9200   -9.8490 C   0  0  0  0  0  0  0  0  0  0  0  0
   18.2570   64.0220  -10.1270 C   0  0  0  0  0  0  0  0  0  0  0  0
   16.9160   63.9420  -10.4400 C   0  0  0  0  0  0  0  0  0  0  0  0
   16.3020   62.7100  -10.4810 C   0  0  0  0  0  0  0  0  0  0  0  0
   17.0500   61.5790  -10.2070 C   0  0  0  0  0  0  0  0  0  0  0  0
   18.3900   61.6870   -9.8970 C   0  0  0  0  0  0  0  0  0  0  0  0
   14.4430   62.5600  -10.9110 B   0  0  0  0  0  0  0  0  0  0  0  0
   23.4360   65.1540  -11.9360 C   0  0  0  0  0  0  0  0  0  0  0  0
   24.2230   63.2370  -12.6370 H   0  0  0  0  0  0  0  0  0  0  0  0
   24.2450   62.1960  -10.5830 H   0  0  0  0  0  0  0  0  0  0  0  0
   24.5050   63.9320  -10.0690 H   0  0  0  0  0  0  0  0  0  0  0  0
   20.3020   63.1750   -7.3530 H   0  0  0  0  0  0  0  0  0  0  0  0
   21.6190   64.2800   -6.0540 H   0  0  0  0  0  0  0  0  0  0  0  0
   22.9810   64.5150   -4.0640 H   0  0  0  0  0  0  0  0  0  0  0  0
   26.3040   62.7770   -6.0590 H   0  0  0  0  0  0  0  0  0  0  0  0
   24.9460   62.5130   -8.0240 H   0  0  0  0  0  0  0  0  0  0  0  0
   18.7450   65.0050  -10.0950 H   0  0  0  0  0  0  0  0  0  0  0  0
   16.3850   64.8590  -10.6450 H   0  0  0  0  0  0  0  0  0  0  0  0
   16.5770   60.5950  -10.2360 H   0  0  0  0  0  0  0  0  0  0  0  0
   19.0180   60.8280   -9.6750 H   0  0  0  0  0  0  0  0  0  0  0  0
   23.2830   65.5630  -12.9380 H   0  0  0  0  0  0  0  0  0  0  0  0
   22.5910   65.4460  -11.2720 H   0  0  0  0  0  0  0  0  0  0  0  0
   24.3870   65.5400  -11.5220 H   0  0  0  0  0  0  0  0  0  0  0  0
  1  2  1  0  0  0  0
  2 26  1  6  0  0  0
  2  3  1  0  0  0  0
  3 28  1  0  0  0  0
  3  4  1  0  0  0  0
  4  8  1  0  0  0  0
  5  1  1  1  0  0  0
  5  4  1  0  0  0  0
  5  6  1  0  0  0  0
  6  7  1  0  0  0  0
  7 29  1  0  0  0  0
  8  7  2  0  0  0  0
  8  9  1  0  0  0  0
  9 14  2  0  0  0  0
  9 10  1  0  0  0  0
 10 30  1  0  0  0  0
 10 11  2  0  0  0  0
 11 12  1  0  0  0  0
 11 31  1  0  0  0  0
 12 15  1  0  0  0  0
 13 12  2  0  0  0  0
 14 13  1  0  0  0  0
 15 17  2  0  0  0  0
 15 16  2  0  0  0  0
 18  6  1  0  0  0  0
 19 34  1  0  0  0  0
 19 18  2  0  0  0  0
 20 19  1  0  0  0  0
 21 20  2  0  0  0  0
 21 22  1  0  0  0  0
 22 23  2  0  0  0  0
 23 18  1  0  0  0  0
 23 37  1  0  0  0  0
 24 21  1  0  0  0  0
 25  2  1  0  0  0  0
 25 40  1  0  0  0  0
 25 39  1  0  0  0  0
 27  3  1  0  0  0  0
 32 13  1  0  0  0  0
 33 14  1  0  0  0  0
 35 20  1  0  0  0  0
 36 22  1  0  0  0  0
 38 25  1  0  0  0  0
M  END
>  <Pose>
1

>  <Score>
-7.80

$$$$
