
 OpenBabel03202210193D

 43 46  0  0  1  0  0  0  0  0999 V2000
   21.1390   64.7160  -12.1440 S   0  0  0  0  0  0  0  0  0  0  0  0
   22.4710   64.0630  -13.2330 C   0  0  0  0  0  0  0  0  0  0  0  0
   23.3770   63.1560  -12.4170 C   0  0  0  0  0  0  0  0  0  0  0  0
   23.7250   63.7860  -11.0930 C   0  0  0  0  0  0  0  0  0  0  0  0
   22.6580   63.5860  -10.1640 N   0  0  2  0  0  0  0  0  0  0  0  0
   22.5270   63.2230   -8.7650 C   0  0  1  0  0  0  0  0  0  0  0  0
   21.1710   62.5410   -8.7140 C   0  0  0  0  0  0  0  0  0  0  0  0
   20.4720   63.2020   -9.8340 N   0  0  0  0  0  0  0  0  0  0  0  0
   21.3060   63.7610  -10.6170 C   0  0  1  0  0  0  0  0  0  0  0  0
   19.0580   63.1910  -10.0100 C   0  0  0  0  0  0  0  0  0  0  0  0
   18.2450   64.2840  -10.0760 C   0  0  0  0  0  0  0  0  0  0  0  0
   16.8730   64.2000  -10.2690 C   0  0  0  0  0  0  0  0  0  0  0  0
   16.2770   62.9630  -10.4030 C   0  0  0  0  0  0  0  0  0  0  0  0
   17.0750   61.8260  -10.3410 C   0  0  0  0  0  0  0  0  0  0  0  0
   18.4460   61.9350  -10.1470 C   0  0  0  0  0  0  0  0  0  0  0  0
   14.3940   62.7440  -10.6660 B   0  0  0  0  0  0  0  0  0  0  0  0
   23.5460   62.3940   -8.3380 O   0  0  0  0  0  0  0  0  0  0  0  0
   22.4670   64.4190   -7.8920 C   0  0  0  0  0  0  0  0  0  0  0  0
   21.6640   65.4850   -8.2440 C   0  0  0  0  0  0  0  0  0  0  0  0
   21.6370   66.5900   -7.3930 C   0  0  0  0  0  0  0  0  0  0  0  0
   22.3780   66.6180   -6.2500 C   0  0  0  0  0  0  0  0  0  0  0  0
   23.1860   65.5570   -5.8840 C   0  0  0  0  0  0  0  0  0  0  0  0
   23.2080   64.4520   -6.7440 C   0  0  0  0  0  0  0  0  0  0  0  0
   20.8150   67.6900   -7.7460 N   0  0  0  0  0  0  0  0  0  0  0  0
   20.5330   67.9460   -8.9320 O   0  0  0  0  0  0  0  0  0  0  0  0
   20.2940   68.5190   -6.7930 O   0  0  0  0  0  0  0  0  0  0  0  0
   23.0140   64.8810  -13.7070 H   0  0  0  0  0  0  0  0  0  0  0  0
   22.0060   63.4340  -14.0110 H   0  0  0  0  0  0  0  0  0  0  0  0
   24.3250   63.0110  -12.9840 H   0  0  0  0  0  0  0  0  0  0  0  0
   22.9320   62.1730  -12.2390 H   0  0  0  0  0  0  0  0  0  0  0  0
   24.7030   63.4160  -10.7450 H   0  0  0  0  0  0  0  0  0  0  0  0
   23.8180   64.9020  -11.2540 H   0  0  0  0  0  0  0  0  0  0  0  0
   21.2370   61.4610   -8.8770 H   0  0  0  0  0  0  0  0  0  0  0  0
   20.6120   62.7630   -7.7780 H   0  0  0  0  0  0  0  0  0  0  0  0
   18.6630   65.2690   -9.9700 H   0  0  0  0  0  0  0  0  0  0  0  0
   16.2380   65.0770  -10.3210 H   0  0  0  0  0  0  0  0  0  0  0  0
   16.5870   60.8640  -10.4520 H   0  0  0  0  0  0  0  0  0  0  0  0
   19.0480   61.0310  -10.1020 H   0  0  0  0  0  0  0  0  0  0  0  0
   23.3470   61.4470   -8.3230 H   0  0  0  0  0  0  0  0  0  0  0  0
   21.0800   65.4610   -9.1470 H   0  0  0  0  0  0  0  0  0  0  0  0
   22.3580   67.4740   -5.5900 H   0  0  0  0  0  0  0  0  0  0  0  0
   23.7530   65.5980   -4.9860 H   0  0  0  0  0  0  0  0  0  0  0  0
   23.8450   63.6370   -6.4410 H   0  0  0  0  0  0  0  0  0  0  0  0
  2  3  1  0  0  0  0
  2  1  1  0  0  0  0
  3 30  1  0  0  0  0
  3  4  1  0  0  0  0
  4 31  1  0  0  0  0
  5  4  1  6  0  0  0
  5  6  1  0  0  0  0
  6  7  1  0  0  0  0
  6 17  1  1  0  0  0
  6 18  1  0  0  0  0
  7 34  1  0  0  0  0
  8  7  1  0  0  0  0
  9  1  1  1  0  0  0
  9  5  1  0  0  0  0
  9  8  1  0  0  0  0
 10  8  1  0  0  0  0
 11 10  1  0  0  0  0
 11 35  1  0  0  0  0
 12 11  2  0  0  0  0
 13 14  2  0  0  0  0
 13 12  1  0  0  0  0
 14 15  1  0  0  0  0
 15 38  1  0  0  0  0
 15 10  2  0  0  0  0
 16 13  1  0  0  0  0
 17 39  1  0  0  0  0
 18 23  1  0  0  0  0
 19 18  2  0  0  0  0
 19 20  1  0  0  0  0
 20 21  2  0  0  0  0
 21 22  1  0  0  0  0
 21 41  1  0  0  0  0
 22 42  1  0  0  0  0
 23 43  1  0  0  0  0
 23 22  2  0  0  0  0
 24 20  1  0  0  0  0
 24 26  2  0  0  0  0
 25 24  2  0  0  0  0
 27  2  1  0  0  0  0
 28  2  1  0  0  0  0
 29  3  1  0  0  0  0
 32  4  1  0  0  0  0
 33  7  1  0  0  0  0
 36 12  1  0  0  0  0
 37 14  1  0  0  0  0
 40 19  1  0  0  0  0
M  END
>  <Pose>
1

>  <Score>
-6.69

$$$$
