
 OpenBabel03202210193D

 43 46  0  0  1  0  0  0  0  0999 V2000
   21.1120   64.0540  -12.0580 S   0  0  0  0  0  0  0  0  0  0  0  0
   22.6660   63.1950  -12.5320 C   0  0  0  0  0  0  0  0  0  0  0  0
   23.6810   63.1880  -11.4680 C   0  0  0  0  0  0  0  0  0  0  0  0
   23.4930   64.0370  -10.2780 C   0  0  0  0  0  0  0  0  0  0  0  0
   22.2550   63.9940   -9.6140 N   0  0  1  0  0  0  0  0  0  0  0  0
   21.8400   64.2010   -8.2600 C   0  0  2  0  0  0  0  0  0  0  0  0
   20.6940   63.2180   -8.1650 C   0  0  0  0  0  0  0  0  0  0  0  0
   20.1380   63.2850   -9.4990 N   0  0  0  0  0  0  0  0  0  0  0  0
   21.0060   63.7040  -10.2930 C   0  0  1  0  0  0  0  0  0  0  0  0
   18.7910   62.9390   -9.8450 C   0  0  0  0  0  0  0  0  0  0  0  0
   17.8810   63.9630  -10.0680 C   0  0  0  0  0  0  0  0  0  0  0  0
   16.5510   63.7020  -10.3870 C   0  0  0  0  0  0  0  0  0  0  0  0
   16.0950   62.4070  -10.4890 C   0  0  0  0  0  0  0  0  0  0  0  0
   16.9840   61.3820  -10.2720 C   0  0  0  0  0  0  0  0  0  0  0  0
   18.3160   61.6750   -9.9510 C   0  0  0  0  0  0  0  0  0  0  0  0
   14.2520   62.0540  -10.9130 B   0  0  0  0  0  0  0  0  0  0  0  0
   21.2770   65.4750   -8.1420 O   0  0  0  0  0  0  0  0  0  0  0  0
   22.8590   63.9590   -7.2210 C   0  0  0  0  0  0  0  0  0  0  0  0
   22.8460   64.7970   -6.1100 C   0  0  0  0  0  0  0  0  0  0  0  0
   23.7540   64.6480   -5.0850 C   0  0  0  0  0  0  0  0  0  0  0  0
   24.7220   63.6600   -5.1090 C   0  0  0  0  0  0  0  0  0  0  0  0
   24.7380   62.8240   -6.2090 C   0  0  0  0  0  0  0  0  0  0  0  0
   23.8150   62.9780   -7.2480 C   0  0  0  0  0  0  0  0  0  0  0  0
   25.6430   63.5260   -4.0420 N   0  0  0  0  0  0  0  0  0  0  0  0
   25.5980   64.2060   -3.0110 O   0  0  0  0  0  0  0  0  0  0  0  0
   26.6420   62.5920   -4.1410 O   0  0  0  0  0  0  0  0  0  0  0  0
   22.3740   62.1430  -12.8240 H   0  0  0  0  0  0  0  0  0  0  0  0
   22.9970   63.6620  -13.4580 H   0  0  0  0  0  0  0  0  0  0  0  0
   23.8790   62.1390  -11.1540 H   0  0  0  0  0  0  0  0  0  0  0  0
   24.6620   63.5110  -11.9470 H   0  0  0  0  0  0  0  0  0  0  0  0
   23.6780   65.1170  -10.5710 H   0  0  0  0  0  0  0  0  0  0  0  0
   24.3340   63.8290   -9.5790 H   0  0  0  0  0  0  0  0  0  0  0  0
   21.1990   62.2170   -8.0050 H   0  0  0  0  0  0  0  0  0  0  0  0
   19.9990   63.4670   -7.3560 H   0  0  0  0  0  0  0  0  0  0  0  0
   18.2000   64.9920   -9.9890 H   0  0  0  0  0  0  0  0  0  0  0  0
   15.8580   64.5290  -10.5540 H   0  0  0  0  0  0  0  0  0  0  0  0
   16.6460   60.3690  -10.3340 H   0  0  0  0  0  0  0  0  0  0  0  0
   18.9960   60.8420   -9.7730 H   0  0  0  0  0  0  0  0  0  0  0  0
   21.7950   66.1000   -8.6750 H   0  0  0  0  0  0  0  0  0  0  0  0
   22.0940   65.5880   -6.0650 H   0  0  0  0  0  0  0  0  0  0  0  0
   23.7720   65.2900   -4.1990 H   0  0  0  0  0  0  0  0  0  0  0  0
   25.4920   62.0380   -6.2520 H   0  0  0  0  0  0  0  0  0  0  0  0
   23.8500   62.3090   -8.1040 H   0  0  0  0  0  0  0  0  0  0  0  0
  2  1  1  0  0  0  0
  2  3  1  0  0  0  0
  3 29  1  0  0  0  0
  3  4  1  0  0  0  0
  4 32  1  0  0  0  0
  5  4  1  6  0  0  0
  5  6  1  0  0  0  0
  6  7  1  0  0  0  0
  6 17  1  1  0  0  0
  6 18  1  0  0  0  0
  7 33  1  0  0  0  0
  7 34  1  0  0  0  0
  8  7  1  0  0  0  0
  9  1  1  1  0  0  0
  9  5  1  0  0  0  0
  9  8  1  0  0  0  0
 10  8  1  0  0  0  0
 11 35  1  0  0  0  0
 11 10  2  0  0  0  0
 12 11  1  0  0  0  0
 13 12  2  0  0  0  0
 13 14  1  0  0  0  0
 14 15  2  0  0  0  0
 15 10  1  0  0  0  0
 15 38  1  0  0  0  0
 16 13  1  0  0  0  0
 18 19  1  0  0  0  0
 19 40  1  0  0  0  0
 19 20  2  0  0  0  0
 20 41  1  0  0  0  0
 21 20  1  0  0  0  0
 21 24  1  0  0  0  0
 22 21  2  0  0  0  0
 23 18  2  0  0  0  0
 23 22  1  0  0  0  0
 24 25  2  0  0  0  0
 26 24  2  0  0  0  0
 27  2  1  0  0  0  0
 28  2  1  0  0  0  0
 30  3  1  0  0  0  0
 31  4  1  0  0  0  0
 36 12  1  0  0  0  0
 37 14  1  0  0  0  0
 39 17  1  0  0  0  0
 42 22  1  0  0  0  0
 43 23  1  0  0  0  0
M  END
>  <Pose>
1

>  <Score>
-7.70

$$$$
