
 OpenBabel03202210193D

 41 44  0  0  1  0  0  0  0  0999 V2000
   25.3020   63.4720   -6.0420 S   0  0  0  0  0  0  0  0  0  0  0  0
   25.4030   62.1860   -4.7170 C   0  0  0  0  0  0  0  0  0  0  0  0
   24.1010   62.1110   -3.9620 C   0  0  0  0  0  0  0  0  0  0  0  0
   23.3340   63.4150   -3.9360 C   0  0  0  0  0  0  0  0  0  0  0  0
   22.7500   63.7690   -5.1700 N   0  0  1  0  0  0  0  0  0  0  0  0
   21.5300   64.3880   -5.7190 C   0  0  1  0  0  0  0  0  0  0  0  0
   21.4060   63.5320   -6.9570 C   0  0  0  0  0  0  0  0  0  0  0  0
   22.7900   63.4660   -7.4000 N   0  0  0  0  0  0  0  0  0  0  0  0
   23.5110   63.5150   -6.3830 C   0  0  1  0  0  0  0  0  0  0  0  0
   23.2270   63.4210   -8.7760 C   0  0  0  0  0  0  0  0  0  0  0  0
   24.5050   63.2060   -9.1870 C   0  0  0  0  0  0  0  0  0  0  0  0
   24.8910   63.2170  -10.5210 C   0  0  0  0  0  0  0  0  0  0  0  0
   23.9550   63.4540  -11.4930 C   0  0  0  0  0  0  0  0  0  0  0  0
   22.6540   63.6720  -11.0800 C   0  0  0  0  0  0  0  0  0  0  0  0
   22.2770   63.6610   -9.7660 C   0  0  0  0  0  0  0  0  0  0  0  0
   24.3950   63.4930  -13.3610 B   0  0  0  0  0  0  0  0  0  0  0  0
   20.4420   64.2340   -4.9160 O   0  0  0  0  0  0  0  0  0  0  0  0
   21.7940   65.8100   -6.1180 C   0  0  0  0  0  0  0  0  0  0  0  0
   22.9870   66.4550   -5.8540 C   0  0  0  0  0  0  0  0  0  0  0  0
   23.1510   67.7720   -6.2640 C   0  0  0  0  0  0  0  0  0  0  0  0
   22.1620   68.4780   -6.9370 C   0  0  0  0  0  0  0  0  0  0  0  0
   20.9780   67.8460   -7.2020 C   0  0  0  0  0  0  0  0  0  0  0  0
   20.8090   66.5250   -6.7890 C   0  0  0  0  0  0  0  0  0  0  0  0
   25.4570   61.2120   -5.2830 H   0  0  0  0  0  0  0  0  0  0  0  0
   26.2970   62.3490   -4.1050 H   0  0  0  0  0  0  0  0  0  0  0  0
   24.3620   61.8580   -2.8910 H   0  0  0  0  0  0  0  0  0  0  0  0
   23.4160   61.3430   -4.3780 H   0  0  0  0  0  0  0  0  0  0  0  0
   22.6540   63.4590   -3.0600 H   0  0  0  0  0  0  0  0  0  0  0  0
   24.1430   64.1930   -3.7200 H   0  0  0  0  0  0  0  0  0  0  0  0
   20.6890   63.8500   -7.6820 H   0  0  0  0  0  0  0  0  0  0  0  0
   21.1500   62.4920   -6.5770 H   0  0  0  0  0  0  0  0  0  0  0  0
   25.2970   63.0110   -8.4490 H   0  0  0  0  0  0  0  0  0  0  0  0
   25.9240   63.0400  -10.7960 H   0  0  0  0  0  0  0  0  0  0  0  0
   21.9130   63.8640  -11.8610 H   0  0  0  0  0  0  0  0  0  0  0  0
   21.2350   63.8330   -9.4650 H   0  0  0  0  0  0  0  0  0  0  0  0
   19.9600   63.3730   -4.9950 H   0  0  0  0  0  0  0  0  0  0  0  0
   23.7670   65.9190   -5.3240 H   0  0  0  0  0  0  0  0  0  0  0  0
   24.0910   68.2430   -6.0410 H   0  0  0  0  0  0  0  0  0  0  0  0
   22.3210   69.5040   -7.2450 H   0  0  0  0  0  0  0  0  0  0  0  0
   20.1840   68.3470   -7.7300 H   0  0  0  0  0  0  0  0  0  0  0  0
   19.8740   66.0230   -6.9910 H   0  0  0  0  0  0  0  0  0  0  0  0
  1  2  1  0  0  0  0
  2 25  1  0  0  0  0
  2  3  1  0  0  0  0
  3  4  1  0  0  0  0
  3 26  1  0  0  0  0
  4 29  1  0  0  0  0
  4 28  1  0  0  0  0
  5  4  1  1  0  0  0
  6  5  1  0  0  0  0
  6 17  1  1  0  0  0
  7 31  1  0  0  0  0
  7  6  1  0  0  0  0
  8  7  1  0  0  0  0
  8  9  1  0  0  0  0
  9  1  1  6  0  0  0
  9  5  1  0  0  0  0
 10  8  1  0  0  0  0
 11 10  1  0  0  0  0
 11 32  1  0  0  0  0
 12 11  2  0  0  0  0
 13 14  2  0  0  0  0
 13 12  1  0  0  0  0
 14 15  1  0  0  0  0
 15 35  1  0  0  0  0
 15 10  2  0  0  0  0
 16 13  1  0  0  0  0
 18 19  1  0  0  0  0
 18  6  1  0  0  0  0
 19 37  1  0  0  0  0
 20 38  1  0  0  0  0
 20 19  2  0  0  0  0
 21 20  1  0  0  0  0
 22 21  2  0  0  0  0
 22 23  1  0  0  0  0
 23 18  2  0  0  0  0
 24  2  1  0  0  0  0
 27  3  1  0  0  0  0
 30  7  1  0  0  0  0
 33 12  1  0  0  0  0
 34 14  1  0  0  0  0
 36 17  1  0  0  0  0
 39 21  1  0  0  0  0
 40 22  1  0  0  0  0
 41 23  1  0  0  0  0
M  END
>  <Pose>
1

>  <Score>
-5.03

$$$$
