
 OpenBabel03202210193D

 45 48  0  0  1  0  0  0  0  0999 V2000
   23.2700   63.6490  -11.1540 S   0  0  0  0  0  0  0  0  0  0  0  0
   24.8510   62.7300  -11.3540 C   0  0  0  0  0  0  0  0  0  0  0  0
   25.6360   63.0050  -10.0800 C   0  0  0  0  0  0  0  0  0  0  0  0
   25.0240   62.3360   -8.8890 C   0  0  0  0  0  0  0  0  0  0  0  0
   23.7180   62.8030   -8.5420 N   0  0  2  0  0  0  0  0  0  0  0  0
   23.0100   63.1070   -7.2950 C   0  0  1  0  0  0  0  0  0  0  0  0
   21.6600   62.4810   -7.6920 C   0  0  0  0  0  0  0  0  0  0  0  0
   21.5240   62.9380   -9.0630 N   0  0  0  0  0  0  0  0  0  0  0  0
   22.6950   63.1040   -9.5290 C   0  0  1  0  0  0  0  0  0  0  0  0
   20.2390   63.1380   -9.6940 C   0  0  0  0  0  0  0  0  0  0  0  0
   19.0890   63.2080   -8.9140 C   0  0  0  0  0  0  0  0  0  0  0  0
   17.8490   63.3950   -9.4850 C   0  0  0  0  0  0  0  0  0  0  0  0
   17.6730   63.5210  -10.8470 C   0  0  0  0  0  0  0  0  0  0  0  0
   18.8030   63.4510  -11.6250 C   0  0  0  0  0  0  0  0  0  0  0  0
   20.0650   63.2610  -11.0380 C   0  0  0  0  0  0  0  0  0  0  0  0
   16.4060   63.7110  -11.3880 O   0  0  0  0  0  0  0  0  0  0  0  0
   15.4440   64.6090  -10.9120 C   0  0  0  0  0  0  0  0  0  0  0  0
   23.5880   62.4250   -6.2500 O   0  0  0  0  0  0  0  0  0  0  0  0
   22.8430   64.5540   -7.0690 C   0  0  0  0  0  0  0  0  0  0  0  0
   21.6540   65.2450   -7.1420 C   0  0  0  0  0  0  0  0  0  0  0  0
   21.6020   66.6080   -6.9030 C   0  0  0  0  0  0  0  0  0  0  0  0
   22.7390   67.2950   -6.5870 C   0  0  0  0  0  0  0  0  0  0  0  0
   23.9370   66.6190   -6.5110 C   0  0  0  0  0  0  0  0  0  0  0  0
   23.9740   65.2690   -6.7500 C   0  0  0  0  0  0  0  0  0  0  0  0
   22.7360   69.1860   -6.2450 B   0  0  0  0  0  0  0  0  0  0  0  0
   25.3620   63.1230  -12.2280 H   0  0  0  0  0  0  0  0  0  0  0  0
   24.5890   61.6490  -11.4330 H   0  0  0  0  0  0  0  0  0  0  0  0
   25.6730   64.1080   -9.9390 H   0  0  0  0  0  0  0  0  0  0  0  0
   26.6830   62.6700  -10.1710 H   0  0  0  0  0  0  0  0  0  0  0  0
   24.9930   61.2460   -9.1030 H   0  0  0  0  0  0  0  0  0  0  0  0
   25.7050   62.5300   -8.0240 H   0  0  0  0  0  0  0  0  0  0  0  0
   21.8680   61.3870   -7.7380 H   0  0  0  0  0  0  0  0  0  0  0  0
   20.8770   62.7560   -7.0070 H   0  0  0  0  0  0  0  0  0  0  0  0
   19.1640   63.1150   -7.8460 H   0  0  0  0  0  0  0  0  0  0  0  0
   16.9360   63.4520   -8.8830 H   0  0  0  0  0  0  0  0  0  0  0  0
   18.7420   63.5380  -12.6940 H   0  0  0  0  0  0  0  0  0  0  0  0
   20.9300   63.2050  -11.6890 H   0  0  0  0  0  0  0  0  0  0  0  0
   14.4160   64.1500  -10.9680 H   0  0  0  0  0  0  0  0  0  0  0  0
   15.5710   64.9350   -9.8750 H   0  0  0  0  0  0  0  0  0  0  0  0
   15.3920   65.4770  -11.6250 H   0  0  0  0  0  0  0  0  0  0  0  0
   23.3530   61.4670   -6.2380 H   0  0  0  0  0  0  0  0  0  0  0  0
   20.7770   64.6900   -7.3910 H   0  0  0  0  0  0  0  0  0  0  0  0
   20.6580   67.1370   -6.9610 H   0  0  0  0  0  0  0  0  0  0  0  0
   24.8460   67.1570   -6.2600 H   0  0  0  0  0  0  0  0  0  0  0  0
   24.9450   64.7720   -6.6760 H   0  0  0  0  0  0  0  0  0  0  0  0
  2  1  1  0  0  0  0
  2  3  1  0  0  0  0
  3 28  1  0  0  0  0
  3  4  1  0  0  0  0
  4 31  1  0  0  0  0
  5  4  1  1  0  0  0
  5  6  1  0  0  0  0
  6 19  1  0  0  0  0
  6 18  1  1  0  0  0
  7  6  1  0  0  0  0
  7 33  1  0  0  0  0
  8  7  1  0  0  0  0
  9  1  1  1  0  0  0
  9  8  1  0  0  0  0
  9  5  1  0  0  0  0
 10  8  1  0  0  0  0
 10 11  1  0  0  0  0
 11 34  1  0  0  0  0
 12 11  2  0  0  0  0
 12 35  1  0  0  0  0
 13 12  1  0  0  0  0
 14 15  1  0  0  0  0
 14 13  2  0  0  0  0
 15 10  2  0  0  0  0
 16 17  1  0  0  0  0
 16 13  1  0  0  0  0
 17 39  1  0  0  0  0
 18 41  1  0  0  0  0
 19 24  1  0  0  0  0
 20 19  2  0  0  0  0
 20 21  1  0  0  0  0
 21 22  2  0  0  0  0
 22 23  1  0  0  0  0
 22 25  1  0  0  0  0
 23 44  1  0  0  0  0
 24 45  1  0  0  0  0
 24 23  2  0  0  0  0
 26  2  1  0  0  0  0
 27  2  1  0  0  0  0
 29  3  1  0  0  0  0
 30  4  1  0  0  0  0
 32  7  1  0  0  0  0
 36 14  1  0  0  0  0
 37 15  1  0  0  0  0
 38 17  1  0  0  0  0
 40 17  1  0  0  0  0
 42 20  1  0  0  0  0
 43 21  1  0  0  0  0
M  END
>  <Pose>
1

>  <Score>
-4.91

$$$$
