
 OpenBabel03202210193D

 41 44  0  0  1  0  0  0  0  0999 V2000
   23.1690   64.2490  -10.8260 S   0  0  0  0  0  0  0  0  0  0  0  0
   23.5700   63.4060  -12.3820 C   0  0  0  0  0  0  0  0  0  0  0  0
   22.8730   62.0430  -12.3190 C   0  0  0  0  0  0  0  0  0  0  0  0
   21.3560   62.2890  -12.3180 C   0  0  0  0  0  0  0  0  0  0  0  0
   20.9510   62.5680  -10.9350 N   0  0  1  0  0  0  0  0  0  0  0  0
   19.8590   62.1600  -10.1480 C   0  0  2  0  0  0  0  0  0  0  0  0
   20.2510   62.5250   -8.7200 C   0  0  0  0  0  0  0  0  0  0  0  0
   21.4220   63.3330   -8.8720 N   0  0  0  0  0  0  0  0  0  0  0  0
   21.7690   63.3700  -10.0940 C   0  0  1  0  0  0  0  0  0  0  0  0
   22.0830   63.9410   -7.7510 C   0  0  0  0  0  0  0  0  0  0  0  0
   21.5980   65.1050   -7.2490 C   0  0  0  0  0  0  0  0  0  0  0  0
   22.2380   65.6560   -6.1440 C   0  0  0  0  0  0  0  0  0  0  0  0
   23.3330   65.0730   -5.5460 C   0  0  0  0  0  0  0  0  0  0  0  0
   23.7910   63.8910   -6.0930 C   0  0  0  0  0  0  0  0  0  0  0  0
   23.1820   63.3190   -7.1840 C   0  0  0  0  0  0  0  0  0  0  0  0
   19.7740   60.7490  -10.1640 O   0  0  0  0  0  0  0  0  0  0  0  0
   18.5340   62.7070  -10.4290 C   0  0  0  0  0  0  0  0  0  0  0  0
   17.4520   61.8660  -10.1720 C   0  0  0  0  0  0  0  0  0  0  0  0
   16.1320   62.2380  -10.3500 C   0  0  0  0  0  0  0  0  0  0  0  0
   15.8350   63.4930  -10.8070 C   0  0  0  0  0  0  0  0  0  0  0  0
   16.8950   64.3420  -11.0680 C   0  0  0  0  0  0  0  0  0  0  0  0
   18.2190   63.9550  -10.8820 C   0  0  0  0  0  0  0  0  0  0  0  0
   14.0160   64.0790  -11.0660 B   0  0  0  0  0  0  0  0  0  0  0  0
   23.1620   64.0020  -13.2140 H   0  0  0  0  0  0  0  0  0  0  0  0
   24.6650   63.2350  -12.4620 H   0  0  0  0  0  0  0  0  0  0  0  0
   23.1460   61.4500  -13.1880 H   0  0  0  0  0  0  0  0  0  0  0  0
   23.1810   61.5520  -11.3790 H   0  0  0  0  0  0  0  0  0  0  0  0
   21.0930   63.0810  -13.0110 H   0  0  0  0  0  0  0  0  0  0  0  0
   20.9110   61.3480  -12.6760 H   0  0  0  0  0  0  0  0  0  0  0  0
   20.4830   61.6110   -8.1440 H   0  0  0  0  0  0  0  0  0  0  0  0
   19.4580   63.1530   -8.2440 H   0  0  0  0  0  0  0  0  0  0  0  0
   20.7270   65.6430   -7.6670 H   0  0  0  0  0  0  0  0  0  0  0  0
   21.8490   66.5800   -5.7590 H   0  0  0  0  0  0  0  0  0  0  0  0
   23.8230   65.5190   -4.6680 H   0  0  0  0  0  0  0  0  0  0  0  0
   24.6550   63.4030   -5.6440 H   0  0  0  0  0  0  0  0  0  0  0  0
   23.5310   62.3780   -7.6340 H   0  0  0  0  0  0  0  0  0  0  0  0
   20.3350   60.4310   -9.4100 H   0  0  0  0  0  0  0  0  0  0  0  0
   17.7000   60.8680   -9.8130 H   0  0  0  0  0  0  0  0  0  0  0  0
   15.3170   61.5360  -10.1340 H   0  0  0  0  0  0  0  0  0  0  0  0
   16.6510   65.3360  -11.4240 H   0  0  0  0  0  0  0  0  0  0  0  0
   19.0320   64.6430  -11.1050 H   0  0  0  0  0  0  0  0  0  0  0  0
  2  3  1  0  0  0  0
  2  1  1  0  0  0  0
  3  4  1  0  0  0  0
  3 27  1  0  0  0  0
  5  4  1  1  0  0  0
  5  6  1  0  0  0  0
  5  9  1  0  0  0  0
  6 16  1  6  0  0  0
  6  7  1  0  0  0  0
  7 31  1  0  0  0  0
  7 30  1  0  0  0  0
  8  7  1  0  0  0  0
  8 10  1  0  0  0  0
  9  1  1  1  0  0  0
  9  8  1  0  0  0  0
 10 11  2  0  0  0  0
 10 15  1  0  0  0  0
 11 12  1  0  0  0  0
 12 33  1  0  0  0  0
 12 13  2  0  0  0  0
 13 34  1  0  0  0  0
 14 35  1  0  0  0  0
 14 13  1  0  0  0  0
 15 14  2  0  0  0  0
 16 37  1  0  0  0  0
 17 18  1  0  0  0  0
 17  6  1  0  0  0  0
 18 38  1  0  0  0  0
 19 18  2  0  0  0  0
 19 39  1  0  0  0  0
 20 19  1  0  0  0  0
 21 22  1  0  0  0  0
 21 20  2  0  0  0  0
 22 17  2  0  0  0  0
 23 20  1  0  0  0  0
 24  2  1  0  0  0  0
 25  2  1  0  0  0  0
 26  3  1  0  0  0  0
 28  4  1  0  0  0  0
 29  4  1  0  0  0  0
 32 11  1  0  0  0  0
 36 15  1  0  0  0  0
 40 21  1  0  0  0  0
 41 22  1  0  0  0  0
M  END
>  <Pose>
1

>  <Score>
-6.14

$$$$
