
 OpenBabel03202210193D

 45 49  0  0  1  0  0  0  0  0999 V2000
   16.0250   64.5250  -10.7250 S   0  0  0  0  0  0  0  0  0  0  0  0
   16.6840   65.0880  -12.3670 C   0  0  0  0  0  0  0  0  0  0  0  0
   18.1370   64.7860  -12.0980 C   0  0  0  0  0  0  0  0  0  0  0  0
   18.2680   63.5270  -11.4210 N   0  0  0  0  0  0  0  0  0  0  0  0
   17.1990   63.1960  -10.5630 C   0  0  0  0  0  0  0  0  0  0  0  0
   17.2060   62.1240   -9.8920 N   0  0  0  0  0  0  0  0  0  0  0  0
   18.3000   61.1870   -9.9310 C   0  0  0  0  0  0  0  0  0  0  0  0
   18.1760   59.9760   -9.6220 O   0  0  0  0  0  0  0  0  0  0  0  0
   19.6260   61.7090  -10.3620 C   0  0  1  0  0  0  0  0  0  0  0  0
   19.3810   62.6010  -11.5190 C   0  0  0  0  0  0  0  0  0  0  0  0
   20.0610   62.6130  -12.5730 O   0  0  0  0  0  0  0  0  0  0  0  0
   20.2270   62.4150   -9.1980 C   0  0  2  0  0  0  0  0  0  0  0  0
   21.4240   63.2640   -9.5490 C   0  0  2  0  0  0  0  0  0  0  0  0
   22.6610   62.8890   -8.8440 C   0  0  0  0  0  0  0  0  0  0  0  0
   23.3180   61.8550   -9.2150 O   0  0  0  0  0  0  0  0  0  0  0  0
   23.1360   63.6860   -7.7300 N   0  0  0  0  0  0  0  0  0  0  0  0
   24.1750   63.3290   -6.8040 C   0  0  0  0  0  0  0  0  0  0  0  0
   23.9180   63.9430   -5.4500 C   0  0  0  0  0  0  0  0  0  0  0  0
   23.3710   65.6060   -6.0590 S   0  0  0  0  0  0  0  0  0  0  0  0
   22.5600   64.9580   -7.5180 C   0  0  0  0  0  0  0  0  0  0  0  0
   21.6430   65.4360   -8.2660 N   0  0  0  0  0  0  0  0  0  0  0  0
   21.1210   64.7080   -9.3880 C   0  0  0  0  0  0  0  0  0  0  0  0
   20.4100   65.3330  -10.2150 O   0  0  0  0  0  0  0  0  0  0  0  0
   20.5330   61.4260   -8.1400 C   0  0  0  0  0  0  0  0  0  0  0  0
   20.3930   61.7540   -6.7970 C   0  0  0  0  0  0  0  0  0  0  0  0
   20.6720   60.8400   -5.8020 C   0  0  0  0  0  0  0  0  0  0  0  0
   21.0980   59.5700   -6.1230 C   0  0  0  0  0  0  0  0  0  0  0  0
   21.2350   59.2520   -7.4400 C   0  0  0  0  0  0  0  0  0  0  0  0
   20.9600   60.1550   -8.4460 C   0  0  0  0  0  0  0  0  0  0  0  0
   20.4820   61.2810   -3.9550 B   0  0  0  0  0  0  0  0  0  0  0  0
   16.2990   64.4490  -13.1630 H   0  0  0  0  0  0  0  0  0  0  0  0
   16.5330   66.1560  -12.4850 H   0  0  0  0  0  0  0  0  0  0  0  0
   18.6530   64.7490  -13.0780 H   0  0  0  0  0  0  0  0  0  0  0  0
   18.5240   65.6160  -11.4600 H   0  0  0  0  0  0  0  0  0  0  0  0
   20.2970   60.8650  -10.6670 H   0  0  0  0  0  0  0  0  0  0  0  0
   19.4590   63.1330   -8.7930 H   0  0  0  0  0  0  0  0  0  0  0  0
   21.6380   63.1520  -10.6570 H   0  0  0  0  0  0  0  0  0  0  0  0
   25.1750   63.7060   -7.1200 H   0  0  0  0  0  0  0  0  0  0  0  0
   24.1870   62.2320   -6.6370 H   0  0  0  0  0  0  0  0  0  0  0  0
   23.0990   63.4580   -4.8980 H   0  0  0  0  0  0  0  0  0  0  0  0
   24.8520   64.0330   -4.9010 H   0  0  0  0  0  0  0  0  0  0  0  0
   20.0610   62.7430   -6.5280 H   0  0  0  0  0  0  0  0  0  0  0  0
   21.3240   58.8320   -5.3410 H   0  0  0  0  0  0  0  0  0  0  0  0
   21.5740   58.2470   -7.7270 H   0  0  0  0  0  0  0  0  0  0  0  0
   21.0900   59.8290   -9.4920 H   0  0  0  0  0  0  0  0  0  0  0  0
  1  5  1  0  0  0  0
  2  3  1  0  0  0  0
  2  1  1  0  0  0  0
  3 34  1  0  0  0  0
  3  4  1  0  0  0  0
  4  5  1  0  0  0  0
  5  6  2  0  0  0  0
  7  6  1  0  0  0  0
  7  8  2  0  0  0  0
  9 35  1  6  0  0  0
  9  7  1  0  0  0  0
  9 12  1  0  0  0  0
 10  4  1  0  0  0  0
 10  9  1  0  0  0  0
 11 10  2  0  0  0  0
 12 36  1  1  0  0  0
 12 24  1  0  0  0  0
 13 37  1  6  0  0  0
 13 22  1  0  0  0  0
 13 12  1  0  0  0  0
 13 14  1  0  0  0  0
 14 16  1  0  0  0  0
 15 14  2  0  0  0  0
 16 20  1  0  0  0  0
 16 17  1  0  0  0  0
 17 39  1  0  0  0  0
 17 18  1  0  0  0  0
 18 41  1  0  0  0  0
 18 40  1  0  0  0  0
 19 18  1  0  0  0  0
 20 19  1  0  0  0  0
 21 20  2  0  0  0  0
 22 21  1  0  0  0  0
 23 22  2  0  0  0  0
 24 25  1  0  0  0  0
 25 42  1  0  0  0  0
 25 26  2  0  0  0  0
 26 30  1  0  0  0  0
 27 26  1  0  0  0  0
 27 43  1  0  0  0  0
 28 27  2  0  0  0  0
 29 24  2  0  0  0  0
 29 28  1  0  0  0  0
 31  2  1  0  0  0  0
 32  2  1  0  0  0  0
 33  3  1  0  0  0  0
 38 17  1  0  0  0  0
 44 28  1  0  0  0  0
 45 29  1  0  0  0  0
M  END
>  <Pose>
1

>  <Score>
-2.48

$$$$
