
 OpenBabel03202210193D

 45 49  0  0  1  0  0  0  0  0999 V2000
   23.3700   69.4220   -6.4210 S   0  0  0  0  0  0  0  0  0  0  0  0
   24.2180   69.5690   -8.0540 C   0  0  0  0  0  0  0  0  0  0  0  0
   23.1940   68.8890   -8.9080 C   0  0  0  0  0  0  0  0  0  0  0  0
   22.5960   67.7950   -8.2390 N   0  0  0  0  0  0  0  0  0  0  0  0
   22.5320   67.8680   -6.8320 C   0  0  0  0  0  0  0  0  0  0  0  0
   22.0020   66.9580   -6.0790 N   0  0  0  0  0  0  0  0  0  0  0  0
   21.3780   65.7830   -6.6660 C   0  0  0  0  0  0  0  0  0  0  0  0
   20.4960   65.2770   -5.9310 O   0  0  0  0  0  0  0  0  0  0  0  0
   21.8380   65.3790   -7.9650 C   0  0  1  0  0  0  0  0  0  0  0  0
   22.0210   66.6060   -8.8280 C   0  0  0  0  0  0  0  0  0  0  0  0
   21.6860   66.6060  -10.0260 O   0  0  0  0  0  0  0  0  0  0  0  0
   22.9310   64.4170   -8.1680 C   0  0  2  0  0  0  0  0  0  0  0  0
   22.8390   63.3320   -9.1540 C   0  0  1  0  0  0  0  0  0  0  0  0
   21.6170   62.4890   -8.7890 C   0  0  0  0  0  0  0  0  0  0  0  0
   21.6880   61.6620   -7.8520 O   0  0  0  0  0  0  0  0  0  0  0  0
   20.3820   62.6470   -9.5250 N   0  0  0  0  0  0  0  0  0  0  0  0
   19.0830   62.2150   -9.1380 C   0  0  0  0  0  0  0  0  0  0  0  0
   18.0120   63.1070   -9.7140 C   0  0  0  0  0  0  0  0  0  0  0  0
   18.7830   63.3420  -11.3850 S   0  0  0  0  0  0  0  0  0  0  0  0
   20.4620   63.2860  -10.7860 C   0  0  0  0  0  0  0  0  0  0  0  0
   21.5450   63.7180  -11.3000 N   0  0  0  0  0  0  0  0  0  0  0  0
   22.8000   63.5600  -10.5730 C   0  0  0  0  0  0  0  0  0  0  0  0
   23.8250   63.6330  -11.2750 O   0  0  0  0  0  0  0  0  0  0  0  0
   23.5770   63.9940   -6.8660 C   0  0  0  0  0  0  0  0  0  0  0  0
   22.8610   63.9820   -5.6930 C   0  0  0  0  0  0  0  0  0  0  0  0
   23.4820   63.5980   -4.5310 C   0  0  0  0  0  0  0  0  0  0  0  0
   24.7880   63.2240   -4.4800 C   0  0  0  0  0  0  0  0  0  0  0  0
   25.5290   63.2260   -5.6350 C   0  0  0  0  0  0  0  0  0  0  0  0
   24.8980   63.6170   -6.8160 C   0  0  0  0  0  0  0  0  0  0  0  0
   25.6480   62.6880   -2.8510 B   0  0  0  0  0  0  0  0  0  0  0  0
   24.2580   70.6510   -8.2850 H   0  0  0  0  0  0  0  0  0  0  0  0
   25.1930   69.0800   -8.0350 H   0  0  0  0  0  0  0  0  0  0  0  0
   22.4390   69.6430   -9.2540 H   0  0  0  0  0  0  0  0  0  0  0  0
   23.7440   68.5250   -9.8110 H   0  0  0  0  0  0  0  0  0  0  0  0
   20.9180   64.8890   -8.4690 H   0  0  0  0  0  0  0  0  0  0  0  0
   23.7770   65.0990   -8.6080 H   0  0  0  0  0  0  0  0  0  0  0  0
   23.6800   62.5690   -8.9350 H   0  0  0  0  0  0  0  0  0  0  0  0
   18.8790   61.1640   -9.4690 H   0  0  0  0  0  0  0  0  0  0  0  0
   18.9750   62.2910   -8.0350 H   0  0  0  0  0  0  0  0  0  0  0  0
   17.9650   64.0810   -9.2280 H   0  0  0  0  0  0  0  0  0  0  0  0
   17.0690   62.5770   -9.8050 H   0  0  0  0  0  0  0  0  0  0  0  0
   21.7990   64.2760   -5.6960 H   0  0  0  0  0  0  0  0  0  0  0  0
   22.9070   63.5930   -3.6130 H   0  0  0  0  0  0  0  0  0  0  0  0
   26.5790   62.9300   -5.6260 H   0  0  0  0  0  0  0  0  0  0  0  0
   25.5180   63.6050   -7.7110 H   0  0  0  0  0  0  0  0  0  0  0  0
  2 32  1  0  0  0  0
  2  1  1  0  0  0  0
  3  4  1  0  0  0  0
  3  2  1  0  0  0  0
  4  5  1  0  0  0  0
  5  1  1  0  0  0  0
  5  6  2  0  0  0  0
  7  6  1  0  0  0  0
  7  8  2  0  0  0  0
  9 35  1  6  0  0  0
  9  7  1  0  0  0  0
 10  4  1  0  0  0  0
 10  9  1  0  0  0  0
 11 10  2  0  0  0  0
 12 36  1  6  0  0  0
 12  9  1  0  0  0  0
 12 24  1  0  0  0  0
 13 37  1  1  0  0  0
 13 14  1  0  0  0  0
 13 12  1  0  0  0  0
 14 15  2  0  0  0  0
 16 17  1  0  0  0  0
 16 14  1  0  0  0  0
 17 39  1  0  0  0  0
 18 40  1  0  0  0  0
 18 17  1  0  0  0  0
 19 20  1  0  0  0  0
 19 18  1  0  0  0  0
 20 16  1  0  0  0  0
 21 20  2  0  0  0  0
 21 22  1  0  0  0  0
 22 13  1  0  0  0  0
 23 22  2  0  0  0  0
 24 29  2  0  0  0  0
 24 25  1  0  0  0  0
 25 26  2  0  0  0  0
 26 27  1  0  0  0  0
 26 43  1  0  0  0  0
 27 30  1  0  0  0  0
 28 44  1  0  0  0  0
 28 27  2  0  0  0  0
 29 28  1  0  0  0  0
 31  2  1  0  0  0  0
 33  3  1  0  0  0  0
 34  3  1  0  0  0  0
 38 17  1  0  0  0  0
 41 18  1  0  0  0  0
 42 25  1  0  0  0  0
 45 29  1  0  0  0  0
M  END
>  <Pose>
1

>  <Score>
-4.27

$$$$
