
 OpenBabel03202210193D

 45 49  0  0  1  0  0  0  0  0999 V2000
   25.1630   63.6840   -4.1630 S   0  0  0  0  0  0  0  0  0  0  0  0
   23.9020   64.5060   -5.1220 C   0  0  0  0  0  0  0  0  0  0  0  0
   23.9610   65.5470   -5.8870 N   0  0  0  0  0  0  0  0  0  0  0  0
   22.7670   66.0090   -6.5600 C   0  0  0  0  0  0  0  0  0  0  0  0
   22.5260   67.1730   -6.8730 O   0  0  0  0  0  0  0  0  0  0  0  0
   21.7300   64.9400   -6.9020 C   0  0  2  0  0  0  0  0  0  0  0  0
   21.5250   64.2850   -5.5710 C   0  0  0  0  0  0  0  0  0  0  0  0
   20.3890   64.1570   -5.0300 O   0  0  0  0  0  0  0  0  0  0  0  0
   22.7110   63.7840   -4.8890 N   0  0  0  0  0  0  0  0  0  0  0  0
   22.8110   62.7100   -4.0460 N   0  0  0  0  0  0  0  0  0  0  0  0
   24.0800   62.4300   -3.4960 C   0  0  0  0  0  0  0  0  0  0  0  0
   24.4310   61.4550   -2.6620 C   0  0  0  0  0  0  0  0  0  0  0  0
   22.3330   64.0080   -7.9140 C   0  0  1  0  0  0  0  0  0  0  0  0
   22.2130   64.3780   -9.3380 C   0  0  2  0  0  0  0  0  0  0  0  0
   20.9800   65.0140   -9.7770 C   0  0  0  0  0  0  0  0  0  0  0  0
   20.9460   66.2780   -9.9670 O   0  0  0  0  0  0  0  0  0  0  0  0
   19.7700   64.2490  -10.0110 N   0  0  0  0  0  0  0  0  0  0  0  0
   18.4840   64.6860   -9.9840 N   0  0  0  0  0  0  0  0  0  0  0  0
   17.4680   63.7370  -10.2570 C   0  0  0  0  0  0  0  0  0  0  0  0
   16.1630   63.8940  -10.3000 C   0  0  0  0  0  0  0  0  0  0  0  0
   18.3450   62.2030  -10.5450 S   0  0  0  0  0  0  0  0  0  0  0  0
   19.9750   62.8860  -10.3080 C   0  0  0  0  0  0  0  0  0  0  0  0
   21.1330   62.3320  -10.3750 N   0  0  0  0  0  0  0  0  0  0  0  0
   22.3290   63.0930  -10.1400 C   0  0  0  0  0  0  0  0  0  0  0  0
   23.4540   62.7740  -10.5490 O   0  0  0  0  0  0  0  0  0  0  0  0
   23.7530   63.6920   -7.5850 C   0  0  0  0  0  0  0  0  0  0  0  0
   24.1620   62.3980   -7.3600 C   0  0  0  0  0  0  0  0  0  0  0  0
   25.4700   62.1010   -7.0560 C   0  0  0  0  0  0  0  0  0  0  0  0
   26.3950   63.1170   -6.9730 C   0  0  0  0  0  0  0  0  0  0  0  0
   26.0220   64.4450   -7.1940 C   0  0  0  0  0  0  0  0  0  0  0  0
   24.7000   64.7010   -7.4970 C   0  0  0  0  0  0  0  0  0  0  0  0
   28.2220   62.7370   -6.5520 B   0  0  0  0  0  0  0  0  0  0  0  0
   20.8340   65.4520   -7.2340 H   0  0  0  0  0  0  0  0  0  0  0  0
   21.9760   62.0790   -3.7750 H   0  0  0  0  0  0  0  0  0  0  0  0
   25.4600   61.3980   -2.3460 H   0  0  0  0  0  0  0  0  0  0  0  0
   23.7400   60.7360   -2.2990 H   0  0  0  0  0  0  0  0  0  0  0  0
   21.7700   63.0240   -7.7990 H   0  0  0  0  0  0  0  0  0  0  0  0
   23.0530   65.0320   -9.6980 H   0  0  0  0  0  0  0  0  0  0  0  0
   18.1780   65.6990   -9.7740 H   0  0  0  0  0  0  0  0  0  0  0  0
   15.5430   63.0530  -10.5250 H   0  0  0  0  0  0  0  0  0  0  0  0
   15.7070   64.8460  -10.1150 H   0  0  0  0  0  0  0  0  0  0  0  0
   23.4790   61.5600   -7.4120 H   0  0  0  0  0  0  0  0  0  0  0  0
   25.7970   61.0910   -6.8790 H   0  0  0  0  0  0  0  0  0  0  0  0
   26.7480   65.2500   -7.1300 H   0  0  0  0  0  0  0  0  0  0  0  0
   24.3350   65.7130   -7.6820 H   0  0  0  0  0  0  0  0  0  0  0  0
  1 11  1  0  0  0  0
  2  9  1  0  0  0  0
  2  1  1  0  0  0  0
  3  2  2  0  0  0  0
  4  3  1  0  0  0  0
  5  4  2  0  0  0  0
  6 33  1  6  0  0  0
  6  4  1  0  0  0  0
  6  7  1  0  0  0  0
  7  8  2  0  0  0  0
  7  9  1  0  0  0  0
  9 10  1  0  0  0  0
 10 34  1  0  0  0  0
 10 11  1  0  0  0  0
 11 12  2  0  0  0  0
 12 35  1  0  0  0  0
 12 36  1  0  0  0  0
 13 37  1  1  0  0  0
 13 26  1  0  0  0  0
 13  6  1  0  0  0  0
 14 38  1  6  0  0  0
 14 13  1  0  0  0  0
 15 14  1  0  0  0  0
 16 15  2  0  0  0  0
 17 18  1  0  0  0  0
 17 15  1  0  0  0  0
 18 39  1  0  0  0  0
 19 18  1  0  0  0  0
 20 19  2  0  0  0  0
 20 41  1  0  0  0  0
 21 22  1  0  0  0  0
 21 19  1  0  0  0  0
 22 17  1  0  0  0  0
 23 22  2  0  0  0  0
 23 24  1  0  0  0  0
 24 14  1  0  0  0  0
 25 24  2  0  0  0  0
 26 31  2  0  0  0  0
 26 27  1  0  0  0  0
 27 28  2  0  0  0  0
 28 29  1  0  0  0  0
 28 43  1  0  0  0  0
 29 32  1  0  0  0  0
 30 44  1  0  0  0  0
 30 29  2  0  0  0  0
 31 30  1  0  0  0  0
 40 20  1  0  0  0  0
 42 27  1  0  0  0  0
 45 31  1  0  0  0  0
M  END
>  <Pose>
1

>  <Score>
-4.19

$$$$
