
 OpenBabel03202210193D

 47 50  0  0  0  0  0  0  0  0999 V2000
   19.6500   62.5760  -11.8500 S   0  0  0  0  0  0  0  0  0  0  0  0
   21.2420   62.9250  -11.3230 C   0  0  0  0  0  0  0  0  0  0  0  0
   22.4710   62.9210  -11.9260 N   0  0  0  0  0  0  0  0  0  0  0  0
   23.5760   63.2820  -11.2530 C   0  0  0  0  0  0  0  0  0  0  0  0
   24.7310   63.3100  -11.7190 O   0  0  0  0  0  0  0  0  0  0  0  0
   23.3690   63.6450   -9.9430 C   0  0  0  0  0  0  0  0  0  0  0  0
   22.1480   63.6520   -9.3350 C   0  0  0  0  0  0  0  0  0  0  0  0
   21.0370   63.2780  -10.0500 N   0  0  0  0  0  0  0  0  0  0  0  0
   19.8380   63.2650   -9.6140 N   0  0  0  0  0  0  0  0  0  0  0  0
   18.8330   62.9200  -10.3670 C   0  0  0  0  0  0  0  0  0  0  0  0
   17.4180   62.8610  -10.0690 N   0  0  0  0  0  0  0  0  0  0  0  0
   16.7800   61.6190   -9.8560 C   0  0  0  0  0  0  0  0  0  0  0  0
   15.2960   61.8190   -9.6570 C   0  0  0  0  0  0  0  0  0  0  0  0
   14.8340   62.8010  -10.5380 O   0  0  0  0  0  0  0  0  0  0  0  0
   15.2710   64.0650  -10.1240 C   0  0  0  0  0  0  0  0  0  0  0  0
   16.7640   64.1240  -10.0180 C   0  0  0  0  0  0  0  0  0  0  0  0
   22.0860   64.0750   -7.9370 C   0  0  0  0  0  0  0  0  0  0  0  0
   20.9390   64.2200   -7.3750 O   0  0  0  0  0  0  0  0  0  0  0  0
   23.2090   64.3500   -7.1300 N   0  0  0  0  0  0  0  0  0  0  0  0
   23.0290   64.6330   -5.7110 C   0  0  0  0  0  0  0  0  0  0  0  0
   23.8590   63.7220   -4.8850 C   0  0  0  0  0  0  0  0  0  0  0  0
   23.4020   63.3410   -3.6340 C   0  0  0  0  0  0  0  0  0  0  0  0
   24.1810   62.5320   -2.8450 C   0  0  0  0  0  0  0  0  0  0  0  0
   25.4100   62.0820   -3.2500 C   0  0  0  0  0  0  0  0  0  0  0  0
   25.8740   62.4570   -4.4970 C   0  0  0  0  0  0  0  0  0  0  0  0
   25.0840   63.2730   -5.2910 C   0  0  0  0  0  0  0  0  0  0  0  0
   27.5720   61.8690   -5.1410 B   0  0  0  0  0  0  0  0  0  0  0  0
   22.1660   63.8000   -3.2360 O   0  0  0  0  0  0  0  0  0  0  0  0
   21.0520   62.9130   -3.3330 C   0  0  0  0  0  0  0  0  0  0  0  0
   24.2590   63.9450   -9.3760 H   0  0  0  0  0  0  0  0  0  0  0  0
   17.2250   61.0880   -8.9690 H   0  0  0  0  0  0  0  0  0  0  0  0
   16.8750   60.9090  -10.7140 H   0  0  0  0  0  0  0  0  0  0  0  0
   15.1610   62.2000   -8.6140 H   0  0  0  0  0  0  0  0  0  0  0  0
   14.7470   60.8950   -9.8640 H   0  0  0  0  0  0  0  0  0  0  0  0
   14.8670   64.8340  -10.8460 H   0  0  0  0  0  0  0  0  0  0  0  0
   14.7590   64.2890   -9.1520 H   0  0  0  0  0  0  0  0  0  0  0  0
   17.1790   64.8350  -10.7950 H   0  0  0  0  0  0  0  0  0  0  0  0
   16.9950   64.5830   -9.0070 H   0  0  0  0  0  0  0  0  0  0  0  0
   24.1690   64.3650   -7.5250 H   0  0  0  0  0  0  0  0  0  0  0  0
   21.9550   64.4270   -5.4190 H   0  0  0  0  0  0  0  0  0  0  0  0
   23.2060   65.6850   -5.4550 H   0  0  0  0  0  0  0  0  0  0  0  0
   23.8090   62.2410   -1.8580 H   0  0  0  0  0  0  0  0  0  0  0  0
   26.0370   61.4400   -2.6300 H   0  0  0  0  0  0  0  0  0  0  0  0
   25.5100   63.5330   -6.2620 H   0  0  0  0  0  0  0  0  0  0  0  0
   20.1410   63.4160   -2.9640 H   0  0  0  0  0  0  0  0  0  0  0  0
   20.8570   62.6140   -4.3790 H   0  0  0  0  0  0  0  0  0  0  0  0
   21.2930   61.9970   -2.7730 H   0  0  0  0  0  0  0  0  0  0  0  0
  1  2  1  0  0  0  0
  1 10  1  0  0  0  0
  2  8  1  0  0  0  0
  3  2  2  0  0  0  0
  3  4  1  0  0  0  0
  4  6  1  0  0  0  0
  5  4  2  0  0  0  0
  6 30  1  0  0  0  0
  6  7  2  0  0  0  0
  7 17  1  0  0  0  0
  8  9  1  0  0  0  0
  8  7  1  0  0  0  0
 10 11  1  0  0  0  0
 10  9  2  0  0  0  0
 11 16  1  0  0  0  0
 11 12  1  0  0  0  0
 12 13  1  0  0  0  0
 12 31  1  0  0  0  0
 13 33  1  0  0  0  0
 14 15  1  0  0  0  0
 14 13  1  0  0  0  0
 15 16  1  0  0  0  0
 15 36  1  0  0  0  0
 16 38  1  0  0  0  0
 17 18  2  0  0  0  0
 17 19  1  0  0  0  0
 19 20  1  0  0  0  0
 20 41  1  0  0  0  0
 20 40  1  0  0  0  0
 20 21  1  0  0  0  0
 21 22  1  0  0  0  0
 22 28  1  0  0  0  0
 22 23  2  0  0  0  0
 23 42  1  0  0  0  0
 24 23  1  0  0  0  0
 24 43  1  0  0  0  0
 25 24  2  0  0  0  0
 26 21  2  0  0  0  0
 26 25  1  0  0  0  0
 27 25  1  0  0  0  0
 29 28  1  0  0  0  0
 29 45  1  0  0  0  0
 29 47  1  0  0  0  0
 32 12  1  0  0  0  0
 34 13  1  0  0  0  0
 35 15  1  0  0  0  0
 37 16  1  0  0  0  0
 39 19  1  0  0  0  0
 44 26  1  0  0  0  0
 46 29  1  0  0  0  0
M  END
>  <Pose>
1

>  <Score>
-6.20

$$$$
