
 OpenBabel03202210193D

 43 46  0  0  1  0  0  0  0  0999 V2000
   26.3690   63.0870   -5.2450 Cl  0  0  0  0  0  0  0  0  0  0  0  0
   24.7980   62.9870   -4.4230 C   0  0  0  0  0  0  0  0  0  0  0  0
   23.7540   63.7710   -4.9390 C   0  0  0  0  0  0  0  0  0  0  0  0
   22.5480   63.6890   -4.3070 C   0  0  0  0  0  0  0  0  0  0  0  0
   22.3850   62.8630   -3.2090 C   0  0  0  0  0  0  0  0  0  0  0  0
   23.4130   62.0890   -2.6980 C   0  0  0  0  0  0  0  0  0  0  0  0
   24.6500   62.1600   -3.3300 C   0  0  0  0  0  0  0  0  0  0  0  0
   24.0860   64.7260   -6.0540 C   0  0  2  0  0  0  0  0  0  0  0  0
   23.3780   65.9520   -5.7040 N   0  0  0  0  0  0  0  0  0  0  0  0
   22.3430   66.3950   -6.5130 C   0  0  0  0  0  0  0  0  0  0  0  0
   21.5790   65.3960   -7.3570 C   0  0  0  0  0  0  0  0  0  0  0  0
   22.3260   64.2670   -7.7040 N   0  0  0  0  0  0  0  0  0  0  0  0
   23.7210   64.2450   -7.3820 C   0  0  0  0  0  0  0  0  0  0  0  0
   21.8370   63.1050   -8.3560 C   0  0  0  0  0  0  0  0  0  0  0  0
   22.6710   62.0960   -8.2470 O   0  0  0  0  0  0  0  0  0  0  0  0
   20.6510   62.8200   -9.0790 C   0  0  0  0  0  0  0  0  0  0  0  0
   20.2240   61.4700   -9.1150 C   0  0  0  0  0  0  0  0  0  0  0  0
   19.0540   61.1310   -9.6560 N   0  0  0  0  0  0  0  0  0  0  0  0
   18.2340   62.0400  -10.1860 C   0  0  0  0  0  0  0  0  0  0  0  0
   18.5920   63.3610  -10.1800 C   0  0  0  0  0  0  0  0  0  0  0  0
   19.8070   63.7570   -9.6250 C   0  0  0  0  0  0  0  0  0  0  0  0
   17.7060   64.3480  -10.7140 N   0  0  0  0  0  0  0  0  0  0  0  0
   16.4510   63.9210  -11.2470 C   0  0  0  0  0  0  0  0  0  0  0  0
   15.4410   64.6480  -11.3390 O   0  0  0  0  0  0  0  0  0  0  0  0
   16.3600   62.5050  -11.7200 C   0  0  0  0  0  0  0  0  0  0  0  0
   17.0110   61.6650  -10.7530 O   0  0  0  0  0  0  0  0  0  0  0  0
   21.6930   64.3020   -4.6470 H   0  0  0  0  0  0  0  0  0  0  0  0
   21.3970   62.8240   -2.7150 H   0  0  0  0  0  0  0  0  0  0  0  0
   23.2320   61.4440   -1.8270 H   0  0  0  0  0  0  0  0  0  0  0  0
   25.4840   61.5760   -2.9800 H   0  0  0  0  0  0  0  0  0  0  0  0
   25.1760   64.9670   -5.9530 H   0  0  0  0  0  0  0  0  0  0  0  0
   23.1450   65.9590   -4.6900 H   0  0  0  0  0  0  0  0  0  0  0  0
   21.5620   66.8870   -5.8360 H   0  0  0  0  0  0  0  0  0  0  0  0
   22.6900   67.2440   -7.1840 H   0  0  0  0  0  0  0  0  0  0  0  0
   21.4730   65.9520   -8.4250 H   0  0  0  0  0  0  0  0  0  0  0  0
   20.5400   65.3180   -7.0490 H   0  0  0  0  0  0  0  0  0  0  0  0
   24.1350   63.2160   -7.6000 H   0  0  0  0  0  0  0  0  0  0  0  0
   24.2890   64.8830   -8.1640 H   0  0  0  0  0  0  0  0  0  0  0  0
   20.8800   60.7140   -8.6890 H   0  0  0  0  0  0  0  0  0  0  0  0
   19.9910   64.7840   -9.6270 H   0  0  0  0  0  0  0  0  0  0  0  0
   17.9460   65.3510  -10.7170 H   0  0  0  0  0  0  0  0  0  0  0  0
   16.8570   62.3430  -12.6780 H   0  0  0  0  0  0  0  0  0  0  0  0
   15.3160   62.1520  -11.7880 H   0  0  0  0  0  0  0  0  0  0  0  0
  1  2  1  0  0  0  0
  2  7  1  0  0  0  0
  3  2  2  0  0  0  0
  3  4  1  0  0  0  0
  4  5  2  0  0  0  0
  5 28  1  0  0  0  0
  5  6  1  0  0  0  0
  6 29  1  0  0  0  0
  7 30  1  0  0  0  0
  7  6  2  0  0  0  0
  8 31  1  1  0  0  0
  8  9  1  0  0  0  0
  8  3  1  0  0  0  0
  9 32  1  0  0  0  0
 10 33  1  0  0  0  0
 10  9  1  0  0  0  0
 11 36  1  0  0  0  0
 11 10  1  0  0  0  0
 12 13  1  0  0  0  0
 12 11  1  0  0  0  0
 13  8  1  0  0  0  0
 14 15  2  0  0  0  0
 14 12  1  0  0  0  0
 16 14  1  0  0  0  0
 17 16  2  0  0  0  0
 17 39  1  0  0  0  0
 18 17  1  0  0  0  0
 19 20  1  0  0  0  0
 19 18  2  0  0  0  0
 20 21  2  0  0  0  0
 21 16  1  0  0  0  0
 22 20  1  0  0  0  0
 23 22  1  0  0  0  0
 24 23  2  0  0  0  0
 25 23  1  0  0  0  0
 25 26  1  0  0  0  0
 26 19  1  0  0  0  0
 27  4  1  0  0  0  0
 34 10  1  0  0  0  0
 35 11  1  0  0  0  0
 37 13  1  0  0  0  0
 38 13  1  0  0  0  0
 40 21  1  0  0  0  0
 41 22  1  0  0  0  0
 42 25  1  0  0  0  0
 43 25  1  0  0  0  0
M  END
>  <Pose>
1

>  <Score>
-6.34

$$$$
