
 OpenBabel03202210193D

 53 56  0  0  0  0  0  0  0  0999 V2000
   15.9390   64.5320  -10.5440 B   0  0  0  0  0  0  0  0  0  0  0  0
   17.4110   63.3290  -10.5990 C   0  0  0  0  0  0  0  0  0  0  0  0
   18.5370   63.6190  -11.3290 C   0  0  0  0  0  0  0  0  0  0  0  0
   19.6120   62.7310  -11.3620 C   0  0  0  0  0  0  0  0  0  0  0  0
   19.4830   61.5790  -10.6420 C   0  0  0  0  0  0  0  0  0  0  0  0
   18.3410   61.2810   -9.8980 C   0  0  0  0  0  0  0  0  0  0  0  0
   17.2990   62.1550   -9.8740 C   0  0  0  0  0  0  0  0  0  0  0  0
   20.7880   63.0430  -12.1500 C   0  0  0  0  0  0  0  0  0  0  0  0
   20.8540   62.8410  -13.4420 C   0  0  0  0  0  0  0  0  0  0  0  0
   21.9320   63.6160  -11.4820 N   0  0  0  0  0  0  0  0  0  0  0  0
   22.4410   62.9510  -10.3670 N   0  0  0  0  0  0  0  0  0  0  0  0
   22.8660   63.6420   -9.2080 C   0  0  0  0  0  0  0  0  0  0  0  0
   22.6440   64.8710   -9.1190 O   0  0  0  0  0  0  0  0  0  0  0  0
   23.5510   62.9840   -8.1110 C   0  0  0  0  0  0  0  0  0  0  0  0
   23.8890   61.6870   -8.1050 N   0  0  0  0  0  0  0  0  0  0  0  0
   24.4710   61.4580   -6.9560 N   0  0  0  0  0  0  0  0  0  0  0  0
   24.5170   62.5700   -6.2270 N   0  0  0  0  0  0  0  0  0  0  0  0
   23.9540   63.5630   -6.8980 C   0  0  0  0  0  0  0  0  0  0  0  0
   23.7690   64.9670   -6.6110 C   0  0  0  0  0  0  0  0  0  0  0  0
   22.9060   65.2860   -5.4900 N   0  0  0  0  0  0  0  0  0  0  0  0
   22.9960   66.7040   -5.1550 C   0  0  0  0  0  0  0  0  0  0  0  0
   22.8790   67.5820   -6.3820 C   0  0  0  0  0  0  0  0  0  0  0  0
   21.5750   67.2910   -7.1040 C   0  0  0  0  0  0  0  0  0  0  0  0
   20.7790   66.2460   -6.3750 C   0  0  0  0  0  0  0  0  0  0  0  0
   21.5150   65.0690   -5.8730 C   0  0  0  0  0  0  0  0  0  0  0  0
   25.1110   62.6430   -4.9450 C   0  0  0  0  0  0  0  0  0  0  0  0
   26.3960   63.0500   -4.7450 N   0  0  0  0  0  0  0  0  0  0  0  0
   26.6280   62.9990   -3.4720 O   0  0  0  0  0  0  0  0  0  0  0  0
   25.6000   62.5870   -2.8220 N   0  0  0  0  0  0  0  0  0  0  0  0
   24.6220   62.3500   -3.7060 C   0  0  0  0  0  0  0  0  0  0  0  0
   23.3240   61.8880   -3.4400 N   0  0  0  0  0  0  0  0  0  0  0  0
   18.5920   64.5490  -11.8850 H   0  0  0  0  0  0  0  0  0  0  0  0
   20.2970   60.8540  -10.6380 H   0  0  0  0  0  0  0  0  0  0  0  0
   18.2770   60.3470   -9.3360 H   0  0  0  0  0  0  0  0  0  0  0  0
   16.4270   61.9260   -9.3070 H   0  0  0  0  0  0  0  0  0  0  0  0
   20.0560   62.4320  -14.0250 H   0  0  0  0  0  0  0  0  0  0  0  0
   21.7570   63.0870  -14.0080 H   0  0  0  0  0  0  0  0  0  0  0  0
   22.3080   64.4940  -11.8800 H   0  0  0  0  0  0  0  0  0  0  0  0
   22.4880   61.9000  -10.4460 H   0  0  0  0  0  0  0  0  0  0  0  0
   24.7300   65.5180   -6.4060 H   0  0  0  0  0  0  0  0  0  0  0  0
   23.3310   65.4940   -7.4950 H   0  0  0  0  0  0  0  0  0  0  0  0
   23.9600   66.8960   -4.6600 H   0  0  0  0  0  0  0  0  0  0  0  0
   22.1820   66.9220   -4.4530 H   0  0  0  0  0  0  0  0  0  0  0  0
   23.6980   67.4230   -7.1010 H   0  0  0  0  0  0  0  0  0  0  0  0
   22.8990   68.6240   -6.0240 H   0  0  0  0  0  0  0  0  0  0  0  0
   20.9720   68.2260   -7.0610 H   0  0  0  0  0  0  0  0  0  0  0  0
   21.7260   67.0970   -8.1810 H   0  0  0  0  0  0  0  0  0  0  0  0
   20.3450   66.7650   -5.4680 H   0  0  0  0  0  0  0  0  0  0  0  0
   19.9060   66.0080   -6.9980 H   0  0  0  0  0  0  0  0  0  0  0  0
   21.5350   64.3070   -6.7020 H   0  0  0  0  0  0  0  0  0  0  0  0
   21.0060   64.5720   -5.0170 H   0  0  0  0  0  0  0  0  0  0  0  0
   23.0420   61.2740   -2.6450 H   0  0  0  0  0  0  0  0  0  0  0  0
   22.5530   62.1690   -4.0830 H   0  0  0  0  0  0  0  0  0  0  0  0
  2  1  1  0  0  0  0
  2  7  1  0  0  0  0
  3  2  2  0  0  0  0
  4  3  1  0  0  0  0
  4  5  2  0  0  0  0
  5 33  1  0  0  0  0
  5  6  1  0  0  0  0
  6  7  2  0  0  0  0
  6 34  1  0  0  0  0
  7 35  1  0  0  0  0
  8 10  1  0  0  0  0
  8  4  1  0  0  0  0
  9  8  2  0  0  0  0
 10 11  1  0  0  0  0
 11 12  1  0  0  0  0
 12 13  2  0  0  0  0
 12 14  1  0  0  0  0
 14 15  1  0  0  0  0
 14 18  2  0  0  0  0
 15 16  2  0  0  0  0
 16 17  1  0  0  0  0
 17 26  1  0  0  0  0
 18 19  1  0  0  0  0
 18 17  1  0  0  0  0
 19 40  1  0  0  0  0
 19 20  1  0  0  0  0
 20 21  1  0  0  0  0
 21 42  1  0  0  0  0
 21 43  1  0  0  0  0
 22 45  1  0  0  0  0
 22 21  1  0  0  0  0
 23 46  1  0  0  0  0
 23 22  1  0  0  0  0
 23 24  1  0  0  0  0
 24 25  1  0  0  0  0
 24 48  1  0  0  0  0
 25 20  1  0  0  0  0
 25 51  1  0  0  0  0
 26 27  2  0  0  0  0
 26 30  1  0  0  0  0
 27 28  1  0  0  0  0
 28 29  1  0  0  0  0
 30 31  1  0  0  0  0
 30 29  2  0  0  0  0
 31 52  1  0  0  0  0
 32  3  1  0  0  0  0
 36  9  1  0  0  0  0
 37  9  1  0  0  0  0
 38 10  1  0  0  0  0
 39 11  1  0  0  0  0
 41 19  1  0  0  0  0
 44 22  1  0  0  0  0
 47 23  1  0  0  0  0
 49 24  1  0  0  0  0
 50 25  1  0  0  0  0
 53 31  1  0  0  0  0
M  END
>  <Pose>
1

>  <Score>
-9.17

$$$$
