
 OpenBabel03202210193D

 48 51  0  0  1  0  0  0  0  0999 V2000
   23.1640   62.7440   -1.6680 B   0  0  0  0  0  0  0  0  0  0  0  0
   24.2680   62.8780   -3.2250 C   0  0  0  0  0  0  0  0  0  0  0  0
   23.8360   63.5800   -4.3160 C   0  0  0  0  0  0  0  0  0  0  0  0
   24.6310   63.6830   -5.4510 C   0  0  0  0  0  0  0  0  0  0  0  0
   25.8420   63.0660   -5.4430 C   0  0  0  0  0  0  0  0  0  0  0  0
   26.2710   62.3560   -4.3320 C   0  0  0  0  0  0  0  0  0  0  0  0
   25.4840   62.2560   -3.2110 C   0  0  0  0  0  0  0  0  0  0  0  0
   24.1650   64.4270   -6.6100 C   0  0  0  0  0  0  0  0  0  0  0  0
   23.9920   65.6950   -6.4920 O   0  0  0  0  0  0  0  0  0  0  0  0
   23.9010   63.8030   -7.8460 N   0  0  0  0  0  0  0  0  0  0  0  0
   22.6930   64.1960   -8.5490 C   0  0  2  0  0  0  0  0  0  0  0  0
   21.4890   63.4090   -8.0680 C   0  0  0  0  0  0  0  0  0  0  0  0
   20.5880   63.4700   -9.2020 N   0  0  0  0  0  0  0  0  0  0  0  0
   21.2470   64.0430  -10.3580 C   0  0  1  0  0  0  0  0  0  0  0  0
   22.7270   63.8380  -10.0080 C   0  0  0  0  0  0  0  0  0  0  0  0
   20.8580   63.2790  -11.5430 C   0  0  0  0  0  0  0  0  0  0  0  0
   21.7050   62.8000  -12.3110 O   0  0  0  0  0  0  0  0  0  0  0  0
   19.4730   63.1000  -11.7910 N   0  0  0  0  0  0  0  0  0  0  0  0
   18.5430   63.1210  -10.6840 C   0  0  1  0  0  0  0  0  0  0  0  0
   19.2170   63.0790   -9.3670 C   0  0  0  0  0  0  0  0  0  0  0  0
   18.5810   62.6910   -8.3530 O   0  0  0  0  0  0  0  0  0  0  0  0
   17.5520   64.2600  -10.7810 C   0  0  0  0  0  0  0  0  0  0  0  0
   16.2110   63.8290  -11.2080 C   0  0  0  0  0  0  0  0  0  0  0  0
   15.5370   64.5430  -12.1830 C   0  0  0  0  0  0  0  0  0  0  0  0
   14.2840   64.1460  -12.5880 C   0  0  0  0  0  0  0  0  0  0  0  0
   13.6430   63.0430  -12.0580 C   0  0  0  0  0  0  0  0  0  0  0  0
   14.3110   62.3290  -11.0860 C   0  0  0  0  0  0  0  0  0  0  0  0
   15.5700   62.7130  -10.6670 C   0  0  0  0  0  0  0  0  0  0  0  0
   22.8680   64.0860   -4.3520 H   0  0  0  0  0  0  0  0  0  0  0  0
   26.4880   63.1260   -6.3220 H   0  0  0  0  0  0  0  0  0  0  0  0
   27.2310   61.8660   -4.3240 H   0  0  0  0  0  0  0  0  0  0  0  0
   25.7930   61.7050   -2.3230 H   0  0  0  0  0  0  0  0  0  0  0  0
   24.5580   63.1020   -8.2170 H   0  0  0  0  0  0  0  0  0  0  0  0
   22.4590   65.2520   -8.4360 H   0  0  0  0  0  0  0  0  0  0  0  0
   21.7360   62.3450   -7.8570 H   0  0  0  0  0  0  0  0  0  0  0  0
   21.0340   63.8660   -7.1620 H   0  0  0  0  0  0  0  0  0  0  0  0
   21.0340   65.1260  -10.4840 H   0  0  0  0  0  0  0  0  0  0  0  0
   23.2830   64.5560  -10.6310 H   0  0  0  0  0  0  0  0  0  0  0  0
   22.9610   62.7850  -10.2020 H   0  0  0  0  0  0  0  0  0  0  0  0
   19.0890   62.9500  -12.7510 H   0  0  0  0  0  0  0  0  0  0  0  0
   17.9210   62.1840  -10.8080 H   0  0  0  0  0  0  0  0  0  0  0  0
   17.5150   64.7700   -9.8000 H   0  0  0  0  0  0  0  0  0  0  0  0
   17.9380   64.9620  -11.5370 H   0  0  0  0  0  0  0  0  0  0  0  0
   15.9530   65.4220  -12.6610 H   0  0  0  0  0  0  0  0  0  0  0  0
   13.7520   64.7000  -13.3500 H   0  0  0  0  0  0  0  0  0  0  0  0
   12.6460   62.7600  -12.4070 H   0  0  0  0  0  0  0  0  0  0  0  0
   13.8050   61.4580  -10.6670 H   0  0  0  0  0  0  0  0  0  0  0  0
   16.0670   62.1300   -9.9010 H   0  0  0  0  0  0  0  0  0  0  0  0
  2  7  1  0  0  0  0
  2  1  1  0  0  0  0
  3  2  2  0  0  0  0
  4  5  2  0  0  0  0
  4  3  1  0  0  0  0
  5  6  1  0  0  0  0
  6 31  1  0  0  0  0
  6  7  2  0  0  0  0
  7 32  1  0  0  0  0
  8  9  2  0  0  0  0
  8  4  1  0  0  0  0
 10  8  1  0  0  0  0
 11 34  1  1  0  0  0
 11 12  1  0  0  0  0
 11 10  1  0  0  0  0
 12 35  1  0  0  0  0
 12 36  1  0  0  0  0
 13 12  1  0  0  0  0
 14 37  1  6  0  0  0
 14 15  1  0  0  0  0
 14 13  1  0  0  0  0
 15 11  1  0  0  0  0
 16 14  1  0  0  0  0
 17 16  2  0  0  0  0
 18 16  1  0  0  0  0
 18 19  1  0  0  0  0
 19 41  1  6  0  0  0
 19 20  1  0  0  0  0
 20 13  1  0  0  0  0
 20 21  2  0  0  0  0
 22 19  1  0  0  0  0
 22 42  1  0  0  0  0
 23 22  1  0  0  0  0
 23 28  1  0  0  0  0
 24 23  2  0  0  0  0
 25 24  1  0  0  0  0
 25 26  2  0  0  0  0
 26 27  1  0  0  0  0
 27 28  2  0  0  0  0
 27 47  1  0  0  0  0
 28 48  1  0  0  0  0
 29  3  1  0  0  0  0
 30  5  1  0  0  0  0
 33 10  1  0  0  0  0
 38 15  1  0  0  0  0
 39 15  1  0  0  0  0
 40 18  1  0  0  0  0
 43 22  1  0  0  0  0
 44 24  1  0  0  0  0
 45 25  1  0  0  0  0
 46 26  1  0  0  0  0
M  END
>  <Pose>
1

>  <Score>
-7.55

$$$$
