
 OpenBabel03202210193D

 60 60  0  0  1  0  0  0  0  0999 V2000
   23.5620   69.8450   -5.8580 B   0  0  0  0  0  0  0  0  0  0  0  0
   22.3060   68.6420   -6.6480 C   0  0  0  0  0  0  0  0  0  0  0  0
   22.6230   67.3270   -6.7930 C   0  0  0  0  0  0  0  0  0  0  0  0
   21.7150   66.4340   -7.3690 C   0  0  0  0  0  0  0  0  0  0  0  0
   20.4970   66.9290   -7.7820 C   0  0  0  0  0  0  0  0  0  0  0  0
   20.1730   68.2720   -7.6330 C   0  0  0  0  0  0  0  0  0  0  0  0
   21.0880   69.1250   -7.0620 C   0  0  0  0  0  0  0  0  0  0  0  0
   22.1250   65.0290   -7.4980 C   0  0  1  0  0  0  0  0  0  0  0  0
   22.4070   64.3640   -6.2410 N   0  0  0  0  0  0  0  0  0  0  0  0
   21.1490   63.9480   -5.6660 C   0  0  0  0  0  0  0  0  0  0  0  0
   20.8940   63.7310   -4.4750 O   0  0  0  0  0  0  0  0  0  0  0  0
   20.2410   63.8420   -6.8040 C   0  0  0  0  0  0  0  0  0  0  0  0
   19.0170   63.5130   -6.8080 O   0  0  0  0  0  0  0  0  0  0  0  0
   20.9800   64.1900   -8.0060 C   0  0  0  0  0  0  0  0  0  0  0  0
   20.6990   63.8880   -9.2630 C   0  0  0  0  0  0  0  0  0  0  0  0
   21.5590   64.4080  -10.2730 O   0  0  0  0  0  0  0  0  0  0  0  0
   19.5750   63.0570   -9.6130 C   0  0  0  0  0  0  0  0  0  0  0  0
   18.3280   63.4380   -9.9630 N   0  0  0  0  0  0  0  0  0  0  0  0
   17.6030   62.3270  -10.2430 C   0  0  0  0  0  0  0  0  0  0  0  0
   18.3850   61.2250  -10.0730 N   0  0  0  0  0  0  0  0  0  0  0  0
   19.5960   61.6880   -9.6840 C   0  0  0  0  0  0  0  0  0  0  0  0
   20.7650   60.8150   -9.3840 C   0  0  0  0  0  0  0  0  0  0  0  0
   16.2850   62.3320  -10.6220 C   0  0  0  0  0  0  0  0  0  0  0  0
   15.6550   63.5530  -10.7230 C   0  0  0  0  0  0  0  0  0  0  0  0
   16.3880   64.6870  -10.4370 C   0  0  0  0  0  0  0  0  0  0  0  0
   17.7040   64.6240  -10.0640 C   0  0  0  0  0  0  0  0  0  0  0  0
   15.5360   61.0770  -10.9200 C   0  0  0  0  0  0  0  0  0  0  0  0
   23.7150   64.1490   -5.6450 C   0  0  0  0  0  0  0  0  0  0  0  0
   23.6760   63.6510   -4.2420 C   0  0  0  0  0  0  0  0  0  0  0  0
   25.0200   63.5590   -3.5650 C   0  0  0  0  0  0  0  0  0  0  0  0
   26.0460   63.3060   -4.5490 N   0  0  0  0  0  0  0  0  0  0  0  0
   26.7320   62.0600   -4.2600 C   0  0  0  0  0  0  0  0  0  0  0  0
   25.4090   63.1370   -5.8400 C   0  0  0  0  0  0  0  0  0  0  0  0
   23.6030   66.9990   -6.4460 H   0  0  0  0  0  0  0  0  0  0  0  0
   19.7600   66.2620   -8.2400 H   0  0  0  0  0  0  0  0  0  0  0  0
   19.2040   68.6530   -7.9640 H   0  0  0  0  0  0  0  0  0  0  0  0
   20.8460   70.1790   -6.9410 H   0  0  0  0  0  0  0  0  0  0  0  0
   22.9860   64.9650   -8.1970 H   0  0  0  0  0  0  0  0  0  0  0  0
   21.0380   60.8780   -8.3200 H   0  0  0  0  0  0  0  0  0  0  0  0
   21.6390   61.0930  -10.0060 H   0  0  0  0  0  0  0  0  0  0  0  0
   20.5380   59.7610   -9.6010 H   0  0  0  0  0  0  0  0  0  0  0  0
   14.6030   63.6080  -11.0230 H   0  0  0  0  0  0  0  0  0  0  0  0
   15.8750   65.6650  -10.5210 H   0  0  0  0  0  0  0  0  0  0  0  0
   18.2720   65.5210   -9.8380 H   0  0  0  0  0  0  0  0  0  0  0  0
   16.1700   60.2050  -10.7070 H   0  0  0  0  0  0  0  0  0  0  0  0
   15.1670   61.0850  -11.9750 H   0  0  0  0  0  0  0  0  0  0  0  0
   14.6820   61.0590  -10.1940 H   0  0  0  0  0  0  0  0  0  0  0  0
   24.2350   65.1270   -5.6480 H   0  0  0  0  0  0  0  0  0  0  0  0
   24.3310   63.4710   -6.2700 H   0  0  0  0  0  0  0  0  0  0  0  0
   23.1620   62.6620   -4.1580 H   0  0  0  0  0  0  0  0  0  0  0  0
   23.0630   64.3410   -3.6210 H   0  0  0  0  0  0  0  0  0  0  0  0
   25.2990   64.5040   -3.0540 H   0  0  0  0  0  0  0  0  0  0  0  0
   25.0350   62.7530   -2.8270 H   0  0  0  0  0  0  0  0  0  0  0  0
   26.7080   64.1050   -4.6530 H   0  0  0  0  0  0  0  0  0  0  0  0
   27.1510   61.6130   -5.2050 H   0  0  0  0  0  0  0  0  0  0  0  0
   25.9220   61.3330   -3.9620 H   0  0  0  0  0  0  0  0  0  0  0  0
   27.4780   62.1390   -3.4660 H   0  0  0  0  0  0  0  0  0  0  0  0
   26.1740   62.9720   -6.6430 H   0  0  0  0  0  0  0  0  0  0  0  0
   24.7410   63.9880   -6.0900 H   0  0  0  0  0  0  0  0  0  0  0  0
   24.7870   62.2210   -5.7790 H   0  0  0  0  0  0  0  0  0  0  0  0
  2  1  1  0  0  0  0
  3  2  1  0  0  0  0
  3 34  1  0  0  0  0
  4  3  2  0  0  0  0
  5  6  2  0  0  0  0
  5  4  1  0  0  0  0
  6  7  1  0  0  0  0
  7 37  1  0  0  0  0
  7  2  2  0  0  0  0
  8 38  1  6  0  0  0
  8  4  1  0  0  0  0
  8  9  1  0  0  0  0
  9 10  1  0  0  0  0
 10 11  2  0  0  0  0
 12 10  1  0  0  0  0
 13 12  2  0  0  0  0
 14  8  1  0  0  0  0
 14 12  1  0  0  0  0
 15 14  2  0  0  0  0
 16 15  1  0  0  0  0
 17 15  1  0  0  0  0
 18 17  1  0  0  0  0
 19 20  2  0  0  0  0
 19 18  1  0  0  0  0
 20 21  1  0  0  0  0
 21 17  2  0  0  0  0
 21 22  1  0  0  0  0
 22 39  1  0  0  0  0
 23 19  1  0  0  0  0
 24 23  2  0  0  0  0
 24 25  1  0  0  0  0
 25 26  2  0  0  0  0
 26 18  1  0  0  0  0
 26 44  1  0  0  0  0
 27 45  1  0  0  0  0
 27 23  1  0  0  0  0
 27 47  1  0  0  0  0
 29 50  1  0  0  0  0
 29 51  1  0  0  0  0
 29 30  1  0  0  0  0
 30 52  1  0  0  0  0
 30 53  1  0  0  0  0
 31 32  1  0  0  0  0
 31 30  1  0  0  0  0
 32 56  1  0  0  0  0
 32 57  1  0  0  0  0
 33 60  1  0  0  0  0
 35  5  1  0  0  0  0
 36  6  1  0  0  0  0
 40 22  1  0  0  0  0
 41 22  1  0  0  0  0
 42 24  1  0  0  0  0
 43 25  1  0  0  0  0
 46 27  1  0  0  0  0
 48 28  1  0  0  0  0
 49 28  1  0  0  0  0
 54 31  1  0  0  0  0
 55 32  1  0  0  0  0
 58 33  1  0  0  0  0
 59 33  1  0  0  0  0
M  END
>  <Pose>
1

>  <Score>
-4.86

$$$$
