
 OpenBabel03202210193D

 39 42  0  0  1  0  0  0  0  0999 V2000
   14.4380   63.4560  -10.9600 B   0  0  0  0  0  0  0  0  0  0  0  0
   16.2820   63.2440  -10.4570 C   0  0  0  0  0  0  0  0  0  0  0  0
   16.8270   61.9980  -10.2770 C   0  0  0  0  0  0  0  0  0  0  0  0
   18.1780   61.8810   -9.9090 C   0  0  0  0  0  0  0  0  0  0  0  0
   18.9580   62.9840   -9.7290 C   0  0  0  0  0  0  0  0  0  0  0  0
   18.4030   64.2260   -9.9130 C   0  0  0  0  0  0  0  0  0  0  0  0
   17.0520   64.3560  -10.2800 C   0  0  0  0  0  0  0  0  0  0  0  0
   20.3650   62.8940   -9.3530 C   0  0  1  0  0  0  0  0  0  0  0  0
   21.3170   63.1610  -10.4080 C   0  0  0  0  0  0  0  0  0  0  0  0
   22.3700   64.0110  -10.2140 C   0  0  0  0  0  0  0  0  0  0  0  0
   22.6030   64.6620   -8.9590 N   0  0  0  0  0  0  0  0  0  0  0  0
   21.6720   64.3680   -7.9260 C   0  0  0  0  0  0  0  0  0  0  0  0
   20.6620   63.5590   -8.0840 C   0  0  0  0  0  0  0  0  0  0  0  0
   19.9210   63.4570   -6.7890 C   0  0  0  0  0  0  0  0  0  0  0  0
   18.8870   62.7380   -6.6420 O   0  0  0  0  0  0  0  0  0  0  0  0
   20.5830   64.2560   -5.9160 O   0  0  0  0  0  0  0  0  0  0  0  0
   21.6590   64.9030   -6.5050 C   0  0  0  0  0  0  0  0  0  0  0  0
   23.2450   64.2470  -11.2450 N   0  0  0  0  0  0  0  0  0  0  0  0
   23.0750   63.6540  -12.4310 C   0  0  0  0  0  0  0  0  0  0  0  0
   23.8940   63.8860  -13.3660 O   0  0  0  0  0  0  0  0  0  0  0  0
   22.0380   62.8200  -12.6120 N   0  0  0  0  0  0  0  0  0  0  0  0
   21.1450   62.5380  -11.6660 C   0  0  0  0  0  0  0  0  0  0  0  0
   20.1730   61.7590  -11.8250 O   0  0  0  0  0  0  0  0  0  0  0  0
   21.8930   62.1950  -13.9280 C   0  0  0  0  0  0  0  0  0  0  0  0
   24.3440   65.1620  -10.9760 C   0  0  0  0  0  0  0  0  0  0  0  0
   16.1980   61.1400  -10.4220 H   0  0  0  0  0  0  0  0  0  0  0  0
   18.5270   60.8610   -9.7820 H   0  0  0  0  0  0  0  0  0  0  0  0
   18.9240   65.1670   -9.7970 H   0  0  0  0  0  0  0  0  0  0  0  0
   16.5990   65.3280  -10.4280 H   0  0  0  0  0  0  0  0  0  0  0  0
   20.5190   61.7750   -9.1080 H   0  0  0  0  0  0  0  0  0  0  0  0
   23.4120   65.3000   -8.8540 H   0  0  0  0  0  0  0  0  0  0  0  0
   22.6320   64.7010   -6.0170 H   0  0  0  0  0  0  0  0  0  0  0  0
   21.4550   65.9950   -6.5050 H   0  0  0  0  0  0  0  0  0  0  0  0
   21.2900   61.2670  -13.8560 H   0  0  0  0  0  0  0  0  0  0  0  0
   22.8760   61.9330  -14.3290 H   0  0  0  0  0  0  0  0  0  0  0  0
   21.4370   62.9620  -14.5840 H   0  0  0  0  0  0  0  0  0  0  0  0
   25.0560   65.1800  -11.8120 H   0  0  0  0  0  0  0  0  0  0  0  0
   23.9380   66.1420  -10.7090 H   0  0  0  0  0  0  0  0  0  0  0  0
   24.9130   64.7180  -10.1070 H   0  0  0  0  0  0  0  0  0  0  0  0
  1  2  1  0  0  0  0
  2  7  2  0  0  0  0
  2  3  1  0  0  0  0
  3  4  2  0  0  0  0
  4 27  1  0  0  0  0
  4  5  1  0  0  0  0
  5  8  1  0  0  0  0
  6 28  1  0  0  0  0
  6  5  2  0  0  0  0
  7  6  1  0  0  0  0
  8 30  1  1  0  0  0
  8 13  1  0  0  0  0
  9 10  2  0  0  0  0
  9  8  1  0  0  0  0
 10 11  1  0  0  0  0
 11 31  1  0  0  0  0
 11 12  1  0  0  0  0
 12 17  1  0  0  0  0
 13 12  2  0  0  0  0
 13 14  1  0  0  0  0
 14 15  2  0  0  0  0
 14 16  1  0  0  0  0
 17 33  1  0  0  0  0
 17 32  1  0  0  0  0
 17 16  1  0  0  0  0
 18 25  1  0  0  0  0
 18 10  1  0  0  0  0
 19 18  1  0  0  0  0
 20 19  2  0  0  0  0
 21 19  1  0  0  0  0
 21 22  1  0  0  0  0
 22  9  1  0  0  0  0
 23 22  2  0  0  0  0
 24 34  1  0  0  0  0
 24 21  1  0  0  0  0
 25 38  1  0  0  0  0
 25 39  1  0  0  0  0
 26  3  1  0  0  0  0
 29  7  1  0  0  0  0
 35 24  1  0  0  0  0
 36 24  1  0  0  0  0
 37 25  1  0  0  0  0
M  END
>  <Pose>
1

>  <Score>
-4.82

$$$$
