
 OpenBabel03202210193D

 39 42  0  0  1  0  0  0  0  0999 V2000
   15.1870   64.1520  -10.6900 B   0  0  0  0  0  0  0  0  0  0  0  0
   16.7830   63.1620  -10.3870 C   0  0  0  0  0  0  0  0  0  0  0  0
   16.7260   61.7890  -10.4490 C   0  0  0  0  0  0  0  0  0  0  0  0
   17.8950   61.0980  -10.2260 C   0  0  0  0  0  0  0  0  0  0  0  0
   19.0850   61.7790   -9.9500 C   0  0  0  0  0  0  0  0  0  0  0  0
   19.1580   63.1560   -9.8850 C   0  0  0  0  0  0  0  0  0  0  0  0
   17.9750   63.8360  -10.1110 C   0  0  0  0  0  0  0  0  0  0  0  0
   20.3660   63.8490   -9.6040 N   0  0  0  0  0  0  0  0  0  0  0  0
   20.4800   64.9970   -8.7700 C   0  0  0  0  0  0  0  0  0  0  0  0
   19.6060   65.8610   -8.5430 O   0  0  0  0  0  0  0  0  0  0  0  0
   21.8470   65.0390   -8.1680 C   0  0  1  0  0  0  0  0  0  0  0  0
   21.9270   64.2590   -6.8990 C   0  0  1  0  0  0  0  0  0  0  0  0
   22.0140   62.9190   -7.3530 O   0  0  0  0  0  0  0  0  0  0  0  0
   23.1630   63.1060   -8.1620 C   0  0  1  0  0  0  0  0  0  0  0  0
   22.6700   64.1560   -9.1030 C   0  0  1  0  0  0  0  0  0  0  0  0
   21.6880   63.5810  -10.0530 C   0  0  0  0  0  0  0  0  0  0  0  0
   21.9830   62.9540  -11.0920 O   0  0  0  0  0  0  0  0  0  0  0  0
   24.0790   63.6980   -7.1410 C   0  0  0  0  0  0  0  0  0  0  0  0
   23.2900   64.4230   -6.3280 C   0  0  0  0  0  0  0  0  0  0  0  0
   23.6480   61.8630   -8.7770 C   0  0  0  0  0  0  0  0  0  0  0  0
   20.8310   64.4790   -5.9390 C   0  0  0  0  0  0  0  0  0  0  0  0
   20.9710   63.6950   -4.7960 O   0  0  0  0  0  0  0  0  0  0  0  0
   15.4590   61.0590  -10.7460 C   0  0  0  0  0  0  0  0  0  0  0  0
   17.8970   60.0120  -10.2640 H   0  0  0  0  0  0  0  0  0  0  0  0
   19.9830   61.1980   -9.7840 H   0  0  0  0  0  0  0  0  0  0  0  0
   17.9880   64.9250  -10.0720 H   0  0  0  0  0  0  0  0  0  0  0  0
   22.2300   66.0590   -8.1110 H   0  0  0  0  0  0  0  0  0  0  0  0
   23.4650   64.7300   -9.6150 H   0  0  0  0  0  0  0  0  0  0  0  0
   25.1320   63.5470   -7.1100 H   0  0  0  0  0  0  0  0  0  0  0  0
   23.6170   64.9840   -5.4620 H   0  0  0  0  0  0  0  0  0  0  0  0
   23.9280   61.9190   -9.8430 H   0  0  0  0  0  0  0  0  0  0  0  0
   24.5420   61.4910   -8.2280 H   0  0  0  0  0  0  0  0  0  0  0  0
   22.8770   61.0450   -8.6790 H   0  0  0  0  0  0  0  0  0  0  0  0
   19.8640   64.2150   -6.3980 H   0  0  0  0  0  0  0  0  0  0  0  0
   20.8250   65.5280   -5.5810 H   0  0  0  0  0  0  0  0  0  0  0  0
   20.5260   62.8060   -4.8760 H   0  0  0  0  0  0  0  0  0  0  0  0
   14.6350   61.7320  -10.4390 H   0  0  0  0  0  0  0  0  0  0  0  0
   15.3240   60.9110  -11.8470 H   0  0  0  0  0  0  0  0  0  0  0  0
   15.4210   60.0750  -10.2800 H   0  0  0  0  0  0  0  0  0  0  0  0
  1  2  1  0  0  0  0
  2  7  1  0  0  0  0
  3  2  2  0  0  0  0
  3  4  1  0  0  0  0
  4  5  2  0  0  0  0
  5  6  1  0  0  0  0
  5 25  1  0  0  0  0
  6  8  1  0  0  0  0
  7 26  1  0  0  0  0
  7  6  2  0  0  0  0
  8  9  1  0  0  0  0
  9 10  2  0  0  0  0
  9 11  1  0  0  0  0
 11 27  1  1  0  0  0
 11 12  1  0  0  0  0
 12 19  1  0  0  0  0
 12 21  1  1  0  0  0
 13 12  1  0  0  0  0
 14 20  1  6  0  0  0
 14 13  1  0  0  0  0
 14 18  1  0  0  0  0
 15 28  1  6  0  0  0
 15 11  1  0  0  0  0
 15 14  1  0  0  0  0
 16  8  1  0  0  0  0
 16 15  1  0  0  0  0
 17 16  2  0  0  0  0
 18 29  1  0  0  0  0
 18 19  2  0  0  0  0
 19 30  1  0  0  0  0
 20 33  1  0  0  0  0
 20 32  1  0  0  0  0
 21 35  1  0  0  0  0
 21 22  1  0  0  0  0
 23  3  1  0  0  0  0
 23 37  1  0  0  0  0
 23 39  1  0  0  0  0
 24  4  1  0  0  0  0
 31 20  1  0  0  0  0
 34 21  1  0  0  0  0
 36 22  1  0  0  0  0
 38 23  1  0  0  0  0
M  END
>  <Pose>
1

>  <Score>
-5.31

$$$$
