
 OpenBabel03202210193D

 54 57  0  0  1  0  0  0  0  0999 V2000
   24.3010   70.2020   -4.7870 B   0  0  0  0  0  0  0  0  0  0  0  0
   23.1130   68.9750   -5.6730 C   0  0  0  0  0  0  0  0  0  0  0  0
   23.5670   67.7150   -6.0660 C   0  0  0  0  0  0  0  0  0  0  0  0
   22.7650   66.8000   -6.7000 C   0  0  0  0  0  0  0  0  0  0  0  0
   21.4390   67.2030   -6.9350 C   0  0  0  0  0  0  0  0  0  0  0  0
   20.9790   68.4420   -6.5530 C   0  0  0  0  0  0  0  0  0  0  0  0
   21.8080   69.3410   -5.9180 C   0  0  0  0  0  0  0  0  0  0  0  0
   23.1880   65.4680   -7.1410 C   0  0  1  0  0  0  0  0  0  0  0  0
   23.6240   64.5960   -6.0710 N   0  0  0  0  0  0  0  0  0  0  0  0
   22.4550   64.0730   -5.4650 C   0  0  0  0  0  0  0  0  0  0  0  0
   22.3100   63.6730   -4.2830 O   0  0  0  0  0  0  0  0  0  0  0  0
   21.4220   64.0880   -6.5010 C   0  0  0  0  0  0  0  0  0  0  0  0
   20.2270   63.7220   -6.4290 O   0  0  0  0  0  0  0  0  0  0  0  0
   22.0740   64.6390   -7.7000 C   0  0  0  0  0  0  0  0  0  0  0  0
   21.6880   64.4320   -8.9390 C   0  0  0  0  0  0  0  0  0  0  0  0
   22.4120   65.0820   -9.9460 O   0  0  0  0  0  0  0  0  0  0  0  0
   20.5530   63.5520   -9.2810 C   0  0  0  0  0  0  0  0  0  0  0  0
   20.5020   62.2530   -9.2960 O   0  0  0  0  0  0  0  0  0  0  0  0
   19.3130   61.8200   -9.6510 C   0  0  0  0  0  0  0  0  0  0  0  0
   18.4930   62.9090   -9.8960 C   0  0  0  0  0  0  0  0  0  0  0  0
   19.3010   64.0030   -9.6540 C   0  0  0  0  0  0  0  0  0  0  0  0
   17.1850   62.7240  -10.2860 C   0  0  0  0  0  0  0  0  0  0  0  0
   16.6390   61.4710  -10.4490 C   0  0  0  0  0  0  0  0  0  0  0  0
   17.4420   60.3770  -10.2090 C   0  0  0  0  0  0  0  0  0  0  0  0
   18.7660   60.5590   -9.8140 C   0  0  0  0  0  0  0  0  0  0  0  0
   24.9740   64.2400   -5.6410 C   0  0  0  0  0  0  0  0  0  0  0  0
   25.1510   62.7330   -5.6440 C   0  0  0  0  0  0  0  0  0  0  0  0
   26.3930   62.2920   -4.9140 C   0  0  0  0  0  0  0  0  0  0  0  0
   26.1140   61.1120   -4.1590 N   0  0  0  0  0  4  0  0  0  0  0  0
   27.3050   60.3970   -3.7520 C   0  0  0  0  0  0  0  0  0  0  0  0
   25.3020   61.3070   -2.9960 C   0  0  0  0  0  0  0  0  0  0  0  0
   24.5910   67.4570   -5.8570 H   0  0  0  0  0  0  0  0  0  0  0  0
   20.7800   66.4990   -7.4340 H   0  0  0  0  0  0  0  0  0  0  0  0
   19.9550   68.7520   -6.7360 H   0  0  0  0  0  0  0  0  0  0  0  0
   21.4600   70.3350   -5.6050 H   0  0  0  0  0  0  0  0  0  0  0  0
   24.0040   65.5840   -7.8950 H   0  0  0  0  0  0  0  0  0  0  0  0
   18.9950   65.0260   -9.7310 H   0  0  0  0  0  0  0  0  0  0  0  0
   16.5510   63.5740  -10.4740 H   0  0  0  0  0  0  0  0  0  0  0  0
   15.6210   61.2760  -10.7530 H   0  0  0  0  0  0  0  0  0  0  0  0
   17.0280   59.3740  -10.3320 H   0  0  0  0  0  0  0  0  0  0  0  0
   19.3580   59.6680   -9.6380 H   0  0  0  0  0  0  0  0  0  0  0  0
   25.7550   64.6540   -6.3080 H   0  0  0  0  0  0  0  0  0  0  0  0
   25.1640   64.6220   -4.6250 H   0  0  0  0  0  0  0  0  0  0  0  0
   25.3110   62.4600   -6.7130 H   0  0  0  0  0  0  0  0  0  0  0  0
   24.2600   62.2130   -5.2890 H   0  0  0  0  0  0  0  0  0  0  0  0
   26.7620   63.0700   -4.2090 H   0  0  0  0  0  0  0  0  0  0  0  0
   27.2000   62.0520   -5.6430 H   0  0  0  0  0  0  0  0  0  0  0  0
   25.5830   60.4490   -4.7990 H   0  0  0  0  0  0  0  0  0  0  0  0
   27.0350   59.3130   -3.6170 H   0  0  0  0  0  0  0  0  0  0  0  0
   27.6330   60.7560   -2.7600 H   0  0  0  0  0  0  0  0  0  0  0  0
   28.0700   60.5060   -4.5330 H   0  0  0  0  0  0  0  0  0  0  0  0
   25.8730   61.5960   -2.0940 H   0  0  0  0  0  0  0  0  0  0  0  0
   24.8170   60.3430   -2.7450 H   0  0  0  0  0  0  0  0  0  0  0  0
   24.4440   62.0150   -3.1950 H   0  0  0  0  0  0  0  0  0  0  0  0
  2  1  1  0  0  0  0
  3 32  1  0  0  0  0
  3  2  2  0  0  0  0
  4  3  1  0  0  0  0
  5  4  2  0  0  0  0
  5  6  1  0  0  0  0
  6  7  2  0  0  0  0
  7  2  1  0  0  0  0
  7 35  1  0  0  0  0
  8 36  1  6  0  0  0
  8  4  1  0  0  0  0
  8  9  1  0  0  0  0
  9 26  1  0  0  0  0
  9 10  1  0  0  0  0
 10 11  2  0  0  0  0
 12 13  2  0  0  0  0
 12 10  1  0  0  0  0
 14  8  1  0  0  0  0
 14 12  1  0  0  0  0
 15 14  2  0  0  0  0
 16 15  1  0  0  0  0
 17 15  1  0  0  0  0
 18 17  1  0  0  0  0
 19 18  1  0  0  0  0
 20 21  1  0  0  0  0
 20 19  2  0  0  0  0
 21 17  2  0  0  0  0
 22 20  1  0  0  0  0
 23 22  2  0  0  0  0
 23 24  1  0  0  0  0
 24 25  2  0  0  0  0
 25 19  1  0  0  0  0
 25 41  1  0  0  0  0
 26 43  1  0  0  0  0
 27 26  1  0  0  0  0
 27 45  1  0  0  0  0
 27 28  1  0  0  0  0
 28 46  1  0  0  0  0
 28 29  1  0  0  0  0
 29 30  1  0  0  0  0
 29 31  1  0  0  0  0
 30 49  1  0  0  0  0
 30 50  1  0  0  0  0
 31 53  1  0  0  0  0
 31 52  1  0  0  0  0
 33  5  1  0  0  0  0
 34  6  1  0  0  0  0
 37 21  1  0  0  0  0
 38 22  1  0  0  0  0
 39 23  1  0  0  0  0
 40 24  1  0  0  0  0
 42 26  1  0  0  0  0
 44 27  1  0  0  0  0
 47 28  1  0  0  0  0
 48 29  1  0  0  0  0
 51 30  1  0  0  0  0
 54 31  1  0  0  0  0
M  END
>  <Pose>
1

>  <Score>
-6.90

$$$$
