
 OpenBabel03202210193D

 47 50  0  0  0  0  0  0  0  0999 V2000
   15.0680   61.0180  -10.6040 B   0  0  0  0  0  0  0  0  0  0  0  0
   14.2630   62.3690  -11.6480 C   0  0  0  0  0  0  0  0  0  0  0  0
   14.5190   63.6900  -11.3720 C   0  0  0  0  0  0  0  0  0  0  0  0
   14.0040   64.6840  -12.0960 C   0  0  0  0  0  0  0  0  0  0  0  0
   13.1570   64.3980  -13.2120 C   0  0  0  0  0  0  0  0  0  0  0  0
   12.9080   63.1050  -13.5260 C   0  0  0  0  0  0  0  0  0  0  0  0
   13.4540   62.0770  -12.7510 C   0  0  0  0  0  0  0  0  0  0  0  0
   15.6880   63.9730  -10.3960 C   0  0  0  0  0  0  0  0  0  0  0  0
   16.7260   64.1700  -11.0510 N   0  0  0  0  0  0  0  0  0  0  0  0
   17.9760   64.4230  -11.2560 N   0  0  0  0  0  0  0  0  0  0  0  0
   18.6810   63.0800  -10.9600 C   0  0  0  0  0  0  0  0  0  0  0  0
   18.0890   62.4070  -10.1240 O   0  0  0  0  0  0  0  0  0  0  0  0
   19.8810   62.7150  -11.5960 C   0  0  0  0  0  0  0  0  0  0  0  0
   20.1130   62.1950  -12.7620 N   0  0  0  0  0  0  0  0  0  0  0  0
   21.3690   62.2890  -13.0350 N   0  0  0  0  0  0  0  0  0  0  0  0
   22.0810   62.9060  -12.0150 N   0  0  0  0  0  0  0  0  0  0  0  0
   21.1830   63.1820  -11.0960 C   0  0  0  0  0  0  0  0  0  0  0  0
   21.1800   63.6530   -9.7140 C   0  0  0  0  0  0  0  0  0  0  0  0
   22.1540   64.1640   -8.9530 N   0  0  0  0  0  0  0  0  0  0  0  0
   21.6080   65.1570   -8.0380 C   0  0  0  0  0  0  0  0  0  0  0  0
   22.1860   64.8680   -6.6850 C   0  0  0  0  0  0  0  0  0  0  0  0
   23.0480   63.6220   -6.8610 C   0  0  0  0  0  0  0  0  0  0  0  0
   23.2910   63.6570   -8.3900 C   0  0  0  0  0  0  0  0  0  0  0  0
   23.4440   63.1140  -12.2270 C   0  0  0  0  0  0  0  0  0  0  0  0
   24.3660   63.0160  -11.1850 N   0  0  0  0  0  0  0  0  0  0  0  0
   25.5090   63.3630  -11.6280 O   0  0  0  0  0  0  0  0  0  0  0  0
   25.4630   63.6800  -12.8600 N   0  0  0  0  0  0  0  0  0  0  0  0
   24.1690   63.5330  -13.2630 C   0  0  0  0  0  0  0  0  0  0  0  0
   23.7920   63.8380  -14.6110 N   0  0  0  0  0  0  0  0  0  0  0  0
   14.1700   65.7070  -11.8120 H   0  0  0  0  0  0  0  0  0  0  0  0
   12.7070   65.1640  -13.7670 H   0  0  0  0  0  0  0  0  0  0  0  0
   12.2860   62.8150  -14.4130 H   0  0  0  0  0  0  0  0  0  0  0  0
   13.2750   61.0490  -13.0720 H   0  0  0  0  0  0  0  0  0  0  0  0
   15.5670   63.9540   -9.4060 H   0  0  0  0  0  0  0  0  0  0  0  0
   18.6070   65.1820  -11.4990 H   0  0  0  0  0  0  0  0  0  0  0  0
   20.1370   63.8560   -9.2810 H   0  0  0  0  0  0  0  0  0  0  0  0
   21.1600   62.4840   -9.1250 H   0  0  0  0  0  0  0  0  0  0  0  0
   20.5200   65.1740   -8.0900 H   0  0  0  0  0  0  0  0  0  0  0  0
   21.9070   66.2090   -8.3510 H   0  0  0  0  0  0  0  0  0  0  0  0
   22.7510   65.7200   -6.2750 H   0  0  0  0  0  0  0  0  0  0  0  0
   21.3480   64.6880   -5.9480 H   0  0  0  0  0  0  0  0  0  0  0  0
   23.9660   63.7330   -6.3080 H   0  0  0  0  0  0  0  0  0  0  0  0
   22.4430   62.7350   -6.7060 H   0  0  0  0  0  0  0  0  0  0  0  0
   24.1270   64.4370   -8.4780 H   0  0  0  0  0  0  0  0  0  0  0  0
   23.6650   62.6790   -8.7220 H   0  0  0  0  0  0  0  0  0  0  0  0
   23.3440   64.7500  -14.7780 H   0  0  0  0  0  0  0  0  0  0  0  0
   23.9060   63.1510  -15.3540 H   0  0  0  0  0  0  0  0  0  0  0  0
  2  3  1  0  0  0  0
  2  1  1  0  0  0  0
  3  8  1  0  0  0  0
  4 30  1  0  0  0  0
  4  3  2  0  0  0  0
  5  4  1  0  0  0  0
  6  5  2  0  0  0  0
  6  7  1  0  0  0  0
  7  2  2  0  0  0  0
  8 34  1  0  0  0  0
  9  8  1  0  0  0  0
 10  9  1  0  0  0  0
 10 11  1  0  0  0  0
 11 12  2  0  0  0  0
 13 17  2  0  0  0  0
 13 11  1  0  0  0  0
 14 13  1  0  0  0  0
 15 14  2  0  0  0  0
 15 16  1  0  0  0  0
 16 17  1  0  0  0  0
 17 18  1  0  0  0  0
 18 36  1  0  0  0  0
 18 37  1  0  0  0  0
 18 19  1  0  0  0  0
 19 23  1  0  0  0  0
 19 20  1  0  0  0  0
 20 21  1  0  0  0  0
 21 40  1  0  0  0  0
 21 41  1  0  0  0  0
 22 43  1  0  0  0  0
 22 21  1  0  0  0  0
 22 42  1  0  0  0  0
 23 22  1  0  0  0  0
 24 16  1  0  0  0  0
 24 25  2  0  0  0  0
 26 25  1  0  0  0  0
 27 26  1  0  0  0  0
 28 27  2  0  0  0  0
 28 24  1  0  0  0  0
 29 28  1  0  0  0  0
 31  5  1  0  0  0  0
 32  6  1  0  0  0  0
 33  7  1  0  0  0  0
 35 10  1  0  0  0  0
 38 20  1  0  0  0  0
 39 20  1  0  0  0  0
 44 23  1  0  0  0  0
 45 23  1  0  0  0  0
 46 29  1  0  0  0  0
 47 29  1  0  0  0  0
M  END
>  <Pose>
1

>  <Score>
-8.11

$$$$
