
 OpenBabel03202210193D

 52 55  0  0  1  0  0  0  0  0999 V2000
   23.6560   63.3260   -7.2490 B   0  0  0  0  0  0  0  0  0  0  0  0
   22.7160   63.2890   -8.9410 C   0  0  0  0  0  0  0  0  0  0  0  0
   21.3640   63.4730   -8.9980 C   0  0  0  0  0  0  0  0  0  0  0  0
   20.6690   63.4470  -10.1730 C   0  0  0  0  0  0  0  0  0  0  0  0
   21.4240   63.2180  -11.3330 C   0  0  0  0  0  0  0  0  0  0  0  0
   22.7790   63.0300  -11.3160 C   0  0  0  0  0  0  0  0  0  0  0  0
   23.4220   63.0680  -10.1010 C   0  0  0  0  0  0  0  0  0  0  0  0
   19.2460   63.6160  -10.3150 C   0  0  2  0  0  0  0  0  0  0  0  0
   18.8760   63.9790  -11.5220 O   0  0  0  0  0  0  0  0  0  0  0  0
   18.1600   63.4510   -9.3400 C   0  0  0  0  0  0  0  0  0  0  0  0
   16.8500   63.3080   -9.9380 N   0  0  0  0  0  0  0  0  0  0  0  0
   16.2950   62.1050  -10.2960 C   0  0  0  0  0  0  0  0  0  0  0  0
   15.0940   62.3920  -10.8790 C   0  0  0  0  0  0  0  0  0  0  0  0
   14.2910   61.3480  -11.3450 C   0  0  0  0  0  0  0  0  0  0  0  0
   14.7230   60.0460  -11.2100 C   0  0  0  0  0  0  0  0  0  0  0  0
   15.9350   59.7530  -10.6230 C   0  0  0  0  0  0  0  0  0  0  0  0
   16.7300   60.8040  -10.1610 C   0  0  0  0  0  0  0  0  0  0  0  0
   14.9420   63.7350  -10.8700 N   0  0  0  0  0  0  0  0  0  0  0  0
   16.0040   64.3080  -10.3010 C   0  0  2  0  0  0  0  0  0  0  0  0
   16.2260   65.6010  -10.2110 N   0  0  0  0  0  0  0  0  0  0  0  0
   13.7790   64.3760  -11.4590 C   0  0  0  0  0  0  0  0  0  0  0  0
   13.7470   64.4300  -12.9310 C   0  0  0  0  0  0  0  0  0  0  0  0
   13.3830   65.6400  -13.5770 N   0  0  0  0  0  0  0  0  0  0  0  0
   11.9410   65.6240  -13.9330 C   0  0  0  0  0  0  0  0  0  0  0  0
   11.5830   64.4440  -14.7760 C   0  0  0  0  0  0  0  0  0  0  0  0
   12.2110   64.6190  -16.0100 O   0  0  0  0  0  0  0  0  0  0  0  0
   13.5720   64.7380  -15.8780 C   0  0  0  0  0  0  0  0  0  0  0  0
   14.0270   65.7820  -14.8940 C   0  0  0  0  0  0  0  0  0  0  0  0
   20.8600   63.6510   -8.0810 H   0  0  0  0  0  0  0  0  0  0  0  0
   20.9620   63.1820  -12.3180 H   0  0  0  0  0  0  0  0  0  0  0  0
   23.3440   62.8510  -12.2450 H   0  0  0  0  0  0  0  0  0  0  0  0
   24.5040   62.9210  -10.0700 H   0  0  0  0  0  0  0  0  0  0  0  0
   18.3480   62.5560   -8.6660 H   0  0  0  0  0  0  0  0  0  0  0  0
   18.1290   64.3630   -8.6700 H   0  0  0  0  0  0  0  0  0  0  0  0
   13.3360   61.5890  -11.8020 H   0  0  0  0  0  0  0  0  0  0  0  0
   14.0820   59.2600  -11.5760 H   0  0  0  0  0  0  0  0  0  0  0  0
   16.2510   58.7240  -10.5270 H   0  0  0  0  0  0  0  0  0  0  0  0
   17.6770   60.5710   -9.7140 H   0  0  0  0  0  0  0  0  0  0  0  0
   15.5520   66.3050  -10.4980 H   0  0  0  0  0  0  0  0  0  0  0  0
   17.1400   65.9160   -9.8580 H   0  0  0  0  0  0  0  0  0  0  0  0
   12.8640   63.8980  -11.0460 H   0  0  0  0  0  0  0  0  0  0  0  0
   13.7450   65.4240  -11.0780 H   0  0  0  0  0  0  0  0  0  0  0  0
   13.1460   63.5480  -13.3230 H   0  0  0  0  0  0  0  0  0  0  0  0
   14.7910   64.1660  -13.2850 H   0  0  0  0  0  0  0  0  0  0  0  0
   11.3140   65.7410  -13.0330 H   0  0  0  0  0  0  0  0  0  0  0  0
   11.8120   66.5300  -14.5530 H   0  0  0  0  0  0  0  0  0  0  0  0
   10.4910   64.4980  -14.9660 H   0  0  0  0  0  0  0  0  0  0  0  0
   11.7820   63.4640  -14.3410 H   0  0  0  0  0  0  0  0  0  0  0  0
   13.9500   65.0850  -16.8840 H   0  0  0  0  0  0  0  0  0  0  0  0
   14.0090   63.7350  -15.6870 H   0  0  0  0  0  0  0  0  0  0  0  0
   15.1100   65.7760  -14.8590 H   0  0  0  0  0  0  0  0  0  0  0  0
   13.6130   66.7630  -15.2810 H   0  0  0  0  0  0  0  0  0  0  0  0
  2  1  1  0  0  0  0
  3  2  1  0  0  0  0
  3 29  1  0  0  0  0
  4  3  2  0  0  0  0
  5  6  2  0  0  0  0
  5  4  1  0  0  0  0
  6  7  1  0  0  0  0
  7 32  1  0  0  0  0
  7  2  2  0  0  0  0
  8  9  1  1  0  0  0
  8  4  1  0  0  0  0
  8 10  1  0  0  0  0
 10 34  1  0  0  0  0
 10 33  1  0  0  0  0
 11 10  1  0  0  0  0
 12 17  1  0  0  0  0
 12 11  1  0  0  0  0
 13 18  1  0  0  0  0
 13 12  2  0  0  0  0
 14 15  2  0  0  0  0
 14 13  1  0  0  0  0
 15 16  1  0  0  0  0
 16 37  1  0  0  0  0
 16 17  2  0  0  0  0
 17 38  1  0  0  0  0
 18 19  1  0  0  0  0
 19 20  1  6  0  0  0
 19 11  1  0  0  0  0
 20 40  1  0  0  0  0
 21 42  1  0  0  0  0
 21 41  1  0  0  0  0
 21 18  1  0  0  0  0
 22 21  1  0  0  0  0
 23 22  1  0  0  0  0
 24 23  1  0  0  0  0
 24 45  1  0  0  0  0
 25 48  1  0  0  0  0
 25 24  1  0  0  0  0
 26 27  1  0  0  0  0
 26 25  1  0  0  0  0
 27 50  1  0  0  0  0
 27 28  1  0  0  0  0
 28 51  1  0  0  0  0
 28 23  1  0  0  0  0
 30  5  1  0  0  0  0
 31  6  1  0  0  0  0
 35 14  1  0  0  0  0
 36 15  1  0  0  0  0
 39 20  1  0  0  0  0
 43 22  1  0  0  0  0
 44 22  1  0  0  0  0
 46 24  1  0  0  0  0
 47 25  1  0  0  0  0
 49 27  1  0  0  0  0
 52 28  1  0  0  0  0
M  END
>  <Pose>
1

>  <Score>
-5.99

$$$$
