
 OpenBabel03202210193D

 51 54  0  0  1  0  0  0  0  0999 V2000
   26.0480   63.6720  -13.6520 B   0  0  0  0  0  0  0  0  0  0  0  0
   24.8520   63.5300  -12.1620 C   0  0  0  0  0  0  0  0  0  0  0  0
   24.7950   62.3990  -11.3860 C   0  0  0  0  0  0  0  0  0  0  0  0
   23.9310   62.3230  -10.3240 C   0  0  0  0  0  0  0  0  0  0  0  0
   23.0640   63.3710   -9.9650 C   0  0  0  0  0  0  0  0  0  0  0  0
   23.1360   64.4820  -10.7470 C   0  0  0  0  0  0  0  0  0  0  0  0
   24.0070   64.5590  -11.8170 C   0  0  0  0  0  0  0  0  0  0  0  0
   22.1870   63.1640   -8.8400 C   0  0  1  0  0  0  0  0  0  0  0  0
   22.2140   64.1020   -7.7570 N   0  0  0  0  0  0  0  0  0  0  0  0
   21.0440   63.7400   -6.9640 C   0  0  0  0  0  0  0  0  0  0  0  0
   20.8890   63.9480   -5.7410 O   0  0  0  0  0  0  0  0  0  0  0  0
   20.0940   63.0990   -7.8550 C   0  0  0  0  0  0  0  0  0  0  0  0
   18.9480   62.6260   -7.5940 O   0  0  0  0  0  0  0  0  0  0  0  0
   20.7350   63.0970   -9.1740 C   0  0  0  0  0  0  0  0  0  0  0  0
   20.1250   63.0110  -10.3230 C   0  0  0  0  0  0  0  0  0  0  0  0
   20.9010   62.9650  -11.4880 O   0  0  0  0  0  0  0  0  0  0  0  0
   18.6520   62.9670  -10.4180 C   0  0  0  0  0  0  0  0  0  0  0  0
   17.8550   64.0260  -10.5080 O   0  0  0  0  0  0  0  0  0  0  0  0
   16.5970   63.6750  -10.5760 C   0  0  0  0  0  0  0  0  0  0  0  0
   16.4950   62.3010  -10.5300 C   0  0  0  0  0  0  0  0  0  0  0  0
   17.8110   61.8810  -10.4300 C   0  0  0  0  0  0  0  0  0  0  0  0
   15.2640   61.6860  -10.5860 C   0  0  0  0  0  0  0  0  0  0  0  0
   14.0820   62.3860  -10.6880 C   0  0  0  0  0  0  0  0  0  0  0  0
   14.1790   63.7650  -10.7330 C   0  0  0  0  0  0  0  0  0  0  0  0
   15.4020   64.3950  -10.6790 C   0  0  0  0  0  0  0  0  0  0  0  0
   23.1390   65.1430   -7.3690 C   0  0  0  0  0  0  0  0  0  0  0  0
   22.6300   66.2600   -6.5590 C   0  0  0  0  0  0  0  0  0  0  0  0
   22.3810   67.5070   -7.2330 N   0  0  0  0  0  4  0  0  0  0  0  0
   20.9810   67.7720   -7.4060 C   0  0  0  0  0  0  0  0  0  0  0  0
   23.1510   68.6190   -6.7530 C   0  0  0  0  0  0  0  0  0  0  0  0
   25.4530   61.5790  -11.6430 H   0  0  0  0  0  0  0  0  0  0  0  0
   23.9380   61.3980   -9.7550 H   0  0  0  0  0  0  0  0  0  0  0  0
   22.4950   65.3140  -10.5520 H   0  0  0  0  0  0  0  0  0  0  0  0
   24.0420   65.4650  -12.4260 H   0  0  0  0  0  0  0  0  0  0  0  0
   22.3950   62.1570   -8.3600 H   0  0  0  0  0  0  0  0  0  0  0  0
   18.1310   60.8530  -10.3580 H   0  0  0  0  0  0  0  0  0  0  0  0
   15.2060   60.6100  -10.5480 H   0  0  0  0  0  0  0  0  0  0  0  0
   13.1040   61.9250  -10.7330 H   0  0  0  0  0  0  0  0  0  0  0  0
   13.2860   64.3680  -10.8140 H   0  0  0  0  0  0  0  0  0  0  0  0
   15.4800   65.4730  -10.7150 H   0  0  0  0  0  0  0  0  0  0  0  0
   23.6920   65.5420   -8.2590 H   0  0  0  0  0  0  0  0  0  0  0  0
   23.9550   64.6340   -6.7650 H   0  0  0  0  0  0  0  0  0  0  0  0
   23.3280   66.4900   -5.7320 H   0  0  0  0  0  0  0  0  0  0  0  0
   21.6390   65.9510   -6.1070 H   0  0  0  0  0  0  0  0  0  0  0  0
   22.7420   67.3290   -8.2330 H   0  0  0  0  0  0  0  0  0  0  0  0
   20.4350   66.9060   -6.9870 H   0  0  0  0  0  0  0  0  0  0  0  0
   20.6520   68.7560   -7.0100 H   0  0  0  0  0  0  0  0  0  0  0  0
   20.6620   67.7960   -8.4880 H   0  0  0  0  0  0  0  0  0  0  0  0
   23.8570   68.3810   -5.9410 H   0  0  0  0  0  0  0  0  0  0  0  0
   23.8010   69.0690   -7.5620 H   0  0  0  0  0  0  0  0  0  0  0  0
   22.4710   69.4840   -6.4850 H   0  0  0  0  0  0  0  0  0  0  0  0
  1  2  1  0  0  0  0
  2  7  2  0  0  0  0
  2  3  1  0  0  0  0
  3  4  2  0  0  0  0
  4  5  1  0  0  0  0
  4 32  1  0  0  0  0
  5  8  1  0  0  0  0
  6 33  1  0  0  0  0
  6  5  2  0  0  0  0
  7  6  1  0  0  0  0
  8 35  1  1  0  0  0
  8  9  1  0  0  0  0
  9 26  1  0  0  0  0
  9 10  1  0  0  0  0
 10 11  2  0  0  0  0
 12 13  2  0  0  0  0
 12 10  1  0  0  0  0
 14  8  1  0  0  0  0
 14 12  1  0  0  0  0
 15 14  2  0  0  0  0
 16 15  1  0  0  0  0
 17 15  1  0  0  0  0
 18 17  1  0  0  0  0
 19 20  1  0  0  0  0
 19 18  1  0  0  0  0
 20 21  1  0  0  0  0
 21 17  2  0  0  0  0
 21 36  1  0  0  0  0
 22 37  1  0  0  0  0
 22 20  2  0  0  0  0
 23 22  1  0  0  0  0
 24 23  2  0  0  0  0
 24 25  1  0  0  0  0
 25 19  2  0  0  0  0
 26 42  1  0  0  0  0
 26 27  1  0  0  0  0
 27 44  1  0  0  0  0
 27 43  1  0  0  0  0
 28 30  1  0  0  0  0
 28 27  1  0  0  0  0
 29 28  1  0  0  0  0
 29 47  1  0  0  0  0
 29 46  1  0  0  0  0
 30 51  1  0  0  0  0
 30 49  1  0  0  0  0
 31  3  1  0  0  0  0
 34  7  1  0  0  0  0
 38 23  1  0  0  0  0
 39 24  1  0  0  0  0
 40 25  1  0  0  0  0
 41 26  1  0  0  0  0
 45 28  1  0  0  0  0
 48 29  1  0  0  0  0
 50 30  1  0  0  0  0
M  END
>  <Pose>
1

>  <Score>
-5.69

$$$$
