
 OpenBabel03202210193D

 48 51  0  0  0  0  0  0  0  0999 V2000
   27.4580   61.7220   -4.9680 B   0  0  0  0  0  0  0  0  0  0  0  0
   25.8040   62.4350   -4.3310 C   0  0  0  0  0  0  0  0  0  0  0  0
   25.3600   63.6820   -4.7630 C   0  0  0  0  0  0  0  0  0  0  0  0
   24.1640   64.1920   -4.3080 C   0  0  0  0  0  0  0  0  0  0  0  0
   23.3950   63.4770   -3.4240 C   0  0  0  0  0  0  0  0  0  0  0  0
   23.8480   62.2460   -3.0090 C   0  0  0  0  0  0  0  0  0  0  0  0
   25.0380   61.7020   -3.4380 C   0  0  0  0  0  0  0  0  0  0  0  0
   23.6830   65.4830   -4.7600 C   0  0  0  0  0  0  0  0  0  0  0  0
   22.9500   65.5960   -5.8690 C   0  0  0  0  0  0  0  0  0  0  0  0
   22.5520   64.5680   -6.7230 O   0  0  0  0  0  0  0  0  0  0  0  0
   21.8030   65.0600   -7.7550 C   0  0  0  0  0  0  0  0  0  0  0  0
   21.6680   66.4390   -7.6380 C   0  0  0  0  0  0  0  0  0  0  0  0
   20.9300   67.1100   -8.6000 C   0  0  0  0  0  0  0  0  0  0  0  0
   20.3500   66.4160   -9.6370 C   0  0  0  0  0  0  0  0  0  0  0  0
   20.5070   65.0300   -9.7230 C   0  0  0  0  0  0  0  0  0  0  0  0
   21.2330   64.3430   -8.7860 C   0  0  0  0  0  0  0  0  0  0  0  0
   21.4350   62.9040   -8.9650 C   0  0  0  0  0  0  0  0  0  0  0  0
   22.4680   62.5160   -9.8540 N   0  0  0  0  0  4  0  0  0  0  0  0
   23.2210   63.7040  -10.2230 C   0  0  0  0  0  0  0  0  0  0  0  0
   23.6670   63.7560  -11.6440 C   0  0  0  0  0  0  0  0  0  0  0  0
   22.6610   63.4830  -12.6090 N   0  0  0  0  0  0  0  0  0  0  0  0
   21.5050   62.8890  -12.0230 C   0  0  0  0  0  0  0  0  0  0  0  0
   21.9150   61.8660  -11.0180 C   0  0  0  0  0  0  0  0  0  0  0  0
   23.2110   62.6740  -13.6770 C   0  0  0  0  0  0  0  0  0  0  0  0
   19.8860   64.4240  -10.8040 O   0  0  0  0  0  0  0  0  0  0  0  0
   22.4010   66.8310   -6.4220 C   0  0  0  0  0  0  0  0  0  0  0  0
   22.5060   68.0100   -5.9960 O   0  0  0  0  0  0  0  0  0  0  0  0
   26.0000   64.2210   -5.4620 H   0  0  0  0  0  0  0  0  0  0  0  0
   22.4600   63.8840   -3.0640 H   0  0  0  0  0  0  0  0  0  0  0  0
   23.2090   61.6880   -2.3100 H   0  0  0  0  0  0  0  0  0  0  0  0
   25.3550   60.7140   -3.0890 H   0  0  0  0  0  0  0  0  0  0  0  0
   23.9180   66.3690   -4.2020 H   0  0  0  0  0  0  0  0  0  0  0  0
   20.8440   68.1800   -8.4750 H   0  0  0  0  0  0  0  0  0  0  0  0
   19.7890   66.9910  -10.3530 H   0  0  0  0  0  0  0  0  0  0  0  0
   21.6780   62.4790   -7.9310 H   0  0  0  0  0  0  0  0  0  0  0  0
   20.4780   62.4270   -9.2240 H   0  0  0  0  0  0  0  0  0  0  0  0
   23.1290   61.7970   -9.4310 H   0  0  0  0  0  0  0  0  0  0  0  0
   24.1170   63.8540   -9.5990 H   0  0  0  0  0  0  0  0  0  0  0  0
   22.6120   64.6350  -10.0260 H   0  0  0  0  0  0  0  0  0  0  0  0
   24.0230   64.8230  -11.8220 H   0  0  0  0  0  0  0  0  0  0  0  0
   24.6150   63.1590  -11.8410 H   0  0  0  0  0  0  0  0  0  0  0  0
   20.9410   63.6990  -11.4690 H   0  0  0  0  0  0  0  0  0  0  0  0
   20.7950   62.4620  -12.7760 H   0  0  0  0  0  0  0  0  0  0  0  0
   22.6570   61.1320  -11.4580 H   0  0  0  0  0  0  0  0  0  0  0  0
   21.0080   61.2680  -10.7470 H   0  0  0  0  0  0  0  0  0  0  0  0
   24.0060   61.9680  -13.3280 H   0  0  0  0  0  0  0  0  0  0  0  0
   22.4540   62.0980  -14.2480 H   0  0  0  0  0  0  0  0  0  0  0  0
   23.7670   63.3750  -14.3660 H   0  0  0  0  0  0  0  0  0  0  0  0
  1  2  1  0  0  0  0
  2  7  1  0  0  0  0
  3  2  2  0  0  0  0
  3  4  1  0  0  0  0
  4  5  2  0  0  0  0
  5 29  1  0  0  0  0
  5  6  1  0  0  0  0
  6 30  1  0  0  0  0
  7 31  1  0  0  0  0
  7  6  2  0  0  0  0
  8  4  1  0  0  0  0
  8 32  1  0  0  0  0
  9  8  2  0  0  0  0
 10  9  1  0  0  0  0
 11 12  1  0  0  0  0
 11 10  1  0  0  0  0
 12 26  1  0  0  0  0
 13 33  1  0  0  0  0
 13 12  2  0  0  0  0
 14 13  1  0  0  0  0
 15 14  2  0  0  0  0
 15 16  1  0  0  0  0
 16 11  2  0  0  0  0
 17 16  1  0  0  0  0
 17 35  1  0  0  0  0
 18 37  1  0  0  0  0
 18 17  1  0  0  0  0
 19 39  1  0  0  0  0
 19 18  1  0  0  0  0
 19 38  1  0  0  0  0
 20 19  1  0  0  0  0
 21 22  1  0  0  0  0
 21 20  1  0  0  0  0
 22 42  1  0  0  0  0
 22 23  1  0  0  0  0
 23 45  1  0  0  0  0
 23 18  1  0  0  0  0
 24 46  1  0  0  0  0
 24 21  1  0  0  0  0
 25 15  1  0  0  0  0
 26 27  2  0  0  0  0
 26  9  1  0  0  0  0
 28  3  1  0  0  0  0
 34 14  1  0  0  0  0
 36 17  1  0  0  0  0
 40 20  1  0  0  0  0
 41 20  1  0  0  0  0
 43 22  1  0  0  0  0
 44 23  1  0  0  0  0
 47 24  1  0  0  0  0
 48 24  1  0  0  0  0
M  END
>  <Pose>
1

>  <Score>
-3.71

$$$$
