
 OpenBabel03202210193D

 55 58  0  0  1  0  0  0  0  0999 V2000
   27.4590   62.7370  -17.5420 B   0  0  0  0  0  0  0  0  0  0  0  0
   26.3670   63.1530  -16.0240 C   0  0  0  0  0  0  0  0  0  0  0  0
   26.9780   63.3640  -14.8080 C   0  0  0  0  0  0  0  0  0  0  0  0
   26.2110   63.6630  -13.7060 C   0  0  0  0  0  0  0  0  0  0  0  0
   24.8270   63.7710  -13.7350 C   0  0  0  0  0  0  0  0  0  0  0  0
   24.2470   63.5550  -14.9640 C   0  0  0  0  0  0  0  0  0  0  0  0
   25.0140   63.2490  -16.0990 C   0  0  0  0  0  0  0  0  0  0  0  0
   24.1420   64.0790  -12.5640 N   0  0  0  0  0  0  0  0  0  0  0  0
   23.4150   63.2240  -11.7170 C   0  0  0  0  0  0  0  0  0  0  0  0
   23.8680   62.1090  -11.3890 O   0  0  0  0  0  0  0  0  0  0  0  0
   22.0830   63.5850  -11.1650 C   0  0  0  0  0  0  0  0  0  0  0  0
   21.8060   62.8490   -9.9670 N   0  0  0  0  0  0  0  0  0  0  0  0
   21.6690   63.4500   -8.6910 C   0  0  0  0  0  0  0  0  0  0  0  0
   20.6740   63.1210   -7.9910 O   0  0  0  0  0  0  0  0  0  0  0  0
   22.6810   64.4320   -8.2200 C   0  0  2  0  0  0  0  0  0  0  0  0
   23.6860   63.7670   -7.6240 O   0  0  0  0  0  0  0  0  0  0  0  0
   24.4120   64.4050   -6.6680 C   0  0  2  0  0  0  0  0  0  0  0  0
   25.1370   63.4320   -5.9630 O   0  0  0  0  0  0  0  0  0  0  0  0
   24.3460   62.9970   -4.9280 C   0  0  0  0  0  0  0  0  0  0  0  0
   23.2390   63.8170   -4.8400 O   0  0  0  0  0  0  0  0  0  0  0  0
   23.5740   64.9900   -5.5550 C   0  0  2  0  0  0  0  0  0  0  0  0
   22.3780   65.7030   -6.0590 C   0  0  1  0  0  0  0  0  0  0  0  0
   22.4980   67.1000   -5.8810 O   0  0  0  0  0  0  0  0  0  0  0  0
   22.0410   67.7010   -7.0260 C   0  0  0  0  0  0  0  0  0  0  0  0
   22.3260   66.8030   -8.0210 O   0  0  0  0  0  0  0  0  0  0  0  0
   22.0380   65.5420   -7.4770 C   0  0  1  0  0  0  0  0  0  0  0  0
   22.8410   68.9980   -7.1960 C   0  0  0  0  0  0  0  0  0  0  0  0
   20.5920   68.1070   -6.9550 C   0  0  0  0  0  0  0  0  0  0  0  0
   25.0670   63.0910   -3.5820 C   0  0  0  0  0  0  0  0  0  0  0  0
   23.9270   61.5450   -5.0850 C   0  0  0  0  0  0  0  0  0  0  0  0
   28.0760   63.2930  -14.7170 H   0  0  0  0  0  0  0  0  0  0  0  0
   26.7450   63.8180  -12.7790 H   0  0  0  0  0  0  0  0  0  0  0  0
   23.1960   63.6160  -15.0850 H   0  0  0  0  0  0  0  0  0  0  0  0
   24.5050   63.0920  -17.0250 H   0  0  0  0  0  0  0  0  0  0  0  0
   24.1640   65.1060  -12.2590 H   0  0  0  0  0  0  0  0  0  0  0  0
   22.1490   64.6710  -10.8620 H   0  0  0  0  0  0  0  0  0  0  0  0
   21.2760   63.5370  -11.9170 H   0  0  0  0  0  0  0  0  0  0  0  0
   21.6990   61.8150  -10.0370 H   0  0  0  0  0  0  0  0  0  0  0  0
   23.0950   64.8860   -9.1720 H   0  0  0  0  0  0  0  0  0  0  0  0
   25.1620   65.1300   -7.0430 H   0  0  0  0  0  0  0  0  0  0  0  0
   24.2450   65.6280   -4.9450 H   0  0  0  0  0  0  0  0  0  0  0  0
   21.5110   65.4200   -5.3930 H   0  0  0  0  0  0  0  0  0  0  0  0
   20.9260   65.4370   -7.5710 H   0  0  0  0  0  0  0  0  0  0  0  0
   22.3420   69.5830   -7.9790 H   0  0  0  0  0  0  0  0  0  0  0  0
   23.9020   68.7830   -7.3930 H   0  0  0  0  0  0  0  0  0  0  0  0
   22.7760   69.5210   -6.2200 H   0  0  0  0  0  0  0  0  0  0  0  0
   20.0720   68.0600   -7.9140 H   0  0  0  0  0  0  0  0  0  0  0  0
   20.0420   67.5020   -6.2050 H   0  0  0  0  0  0  0  0  0  0  0  0
   20.4850   69.1730   -6.5960 H   0  0  0  0  0  0  0  0  0  0  0  0
   26.0930   62.7310   -3.7140 H   0  0  0  0  0  0  0  0  0  0  0  0
   24.9870   64.1080   -3.1550 H   0  0  0  0  0  0  0  0  0  0  0  0
   24.5370   62.3920   -2.9010 H   0  0  0  0  0  0  0  0  0  0  0  0
   24.3710   60.8910   -4.3070 H   0  0  0  0  0  0  0  0  0  0  0  0
   24.2410   61.1410   -6.0780 H   0  0  0  0  0  0  0  0  0  0  0  0
   22.8190   61.4290   -4.9900 H   0  0  0  0  0  0  0  0  0  0  0  0
  1  2  1  0  0  0  0
  2  3  1  0  0  0  0
  3 31  1  0  0  0  0
  3  4  2  0  0  0  0
  4 32  1  0  0  0  0
  5  4  1  0  0  0  0
  5  8  1  0  0  0  0
  6  5  2  0  0  0  0
  7  2  2  0  0  0  0
  7  6  1  0  0  0  0
  8 35  1  0  0  0  0
  8  9  1  0  0  0  0
  9 10  2  0  0  0  0
  9 11  1  0  0  0  0
 11 36  1  0  0  0  0
 11 12  1  0  0  0  0
 12 13  1  0  0  0  0
 13 15  1  0  0  0  0
 13 14  2  0  0  0  0
 15 39  1  6  0  0  0
 15 16  1  0  0  0  0
 15 26  1  0  0  0  0
 16 17  1  0  0  0  0
 17 40  1  6  0  0  0
 17 18  1  0  0  0  0
 17 21  1  0  0  0  0
 18 19  1  0  0  0  0
 19 20  1  0  0  0  0
 19 29  1  0  0  0  0
 21 41  1  1  0  0  0
 21 20  1  0  0  0  0
 22 23  1  0  0  0  0
 22 21  1  0  0  0  0
 22 42  1  1  0  0  0
 24 28  1  0  0  0  0
 24 23  1  0  0  0  0
 25 26  1  0  0  0  0
 25 24  1  0  0  0  0
 26 43  1  6  0  0  0
 26 22  1  0  0  0  0
 27 24  1  0  0  0  0
 27 46  1  0  0  0  0
 28 49  1  0  0  0  0
 28 48  1  0  0  0  0
 29 51  1  0  0  0  0
 29 52  1  0  0  0  0
 30 55  1  0  0  0  0
 30 19  1  0  0  0  0
 30 53  1  0  0  0  0
 33  6  1  0  0  0  0
 34  7  1  0  0  0  0
 37 11  1  0  0  0  0
 38 12  1  0  0  0  0
 44 27  1  0  0  0  0
 45 27  1  0  0  0  0
 47 28  1  0  0  0  0
 50 29  1  0  0  0  0
 54 30  1  0  0  0  0
M  END
>  <Pose>
1

>  <Score>
-7.79

$$$$
