
 OpenBabel03202210193D

 56 59  0  0  1  0  0  0  0  0999 V2000
   20.3530   59.8320   -9.2040 B   0  0  0  0  0  0  0  0  0  0  0  0
   19.3470   61.3760   -9.6710 C   0  0  0  0  0  0  0  0  0  0  0  0
   19.9950   62.5900   -9.7430 C   0  0  0  0  0  0  0  0  0  0  0  0
   19.2250   63.6820  -10.0860 C   0  0  0  0  0  0  0  0  0  0  0  0
   17.8750   63.5840  -10.3470 C   0  0  0  0  0  0  0  0  0  0  0  0
   17.2260   62.3690  -10.2740 C   0  0  0  0  0  0  0  0  0  0  0  0
   17.9790   61.2660   -9.9330 C   0  0  0  0  0  0  0  0  0  0  0  0
   15.8590   62.2770  -10.5400 O   0  0  0  0  0  0  0  0  0  0  0  0
   15.1750   61.0640  -10.6320 C   0  0  0  0  0  0  0  0  0  0  0  0
   17.1050   64.6910  -10.6910 O   0  0  0  0  0  0  0  0  0  0  0  0
   16.1230   65.2550   -9.8820 C   0  0  0  0  0  0  0  0  0  0  0  0
   21.4230   62.6980   -9.4680 C   0  0  0  0  0  0  0  0  0  0  0  0
   21.9930   63.7150   -8.9660 N   0  0  0  0  0  0  0  0  0  0  0  0
   23.3760   63.7910   -8.7120 N   0  0  0  0  0  0  0  0  0  0  0  0
   23.8060   63.6310   -7.3660 C   0  0  0  0  0  0  0  0  0  0  0  0
   23.3340   64.3080   -6.2870 N   0  0  0  0  0  0  0  0  0  0  0  0
   23.9930   63.8760   -5.1810 C   0  0  0  0  0  0  0  0  0  0  0  0
   23.9370   64.1880   -3.8810 N   0  0  0  0  0  0  0  0  0  0  0  0
   24.7250   63.5930   -2.9670 C   0  0  0  0  0  0  0  0  0  0  0  0
   25.6020   62.6500   -3.3750 N   0  0  0  0  0  0  0  0  0  0  0  0
   25.7130   62.2900   -4.6490 C   0  0  0  0  0  0  0  0  0  0  0  0
   24.9020   62.9050   -5.5820 C   0  0  0  0  0  0  0  0  0  0  0  0
   24.7530   62.7940   -6.8910 N   0  0  0  0  0  0  0  0  0  0  0  0
   26.6100   61.3180   -5.1020 O   0  0  0  0  0  0  0  0  0  0  0  0
   24.6510   63.9400   -1.5760 N   0  0  0  0  0  0  0  0  0  0  0  0
   22.3120   65.3080   -6.3160 C   0  0  2  0  0  0  0  0  0  0  0  0
   22.6740   66.4660   -6.9890 O   0  0  0  0  0  0  0  0  0  0  0  0
   21.8860   67.4900   -6.5480 C   0  0  1  0  0  0  0  0  0  0  0  0
   21.1550   67.0730   -5.3180 C   0  0  2  0  0  0  0  0  0  0  0  0
   21.8770   65.7770   -4.9430 C   0  0  1  0  0  0  0  0  0  0  0  0
   20.9950   64.8800   -4.3420 O   0  0  0  0  0  0  0  0  0  0  0  0
   19.8390   66.6840   -5.6400 O   0  0  0  0  0  0  0  0  0  0  0  0
   22.7930   68.6650   -6.1750 C   0  0  0  0  0  0  0  0  0  0  0  0
   23.5140   69.0860   -7.2980 O   0  0  0  0  0  0  0  0  0  0  0  0
   19.7360   64.6470  -10.1440 H   0  0  0  0  0  0  0  0  0  0  0  0
   17.4940   60.2990   -9.8690 H   0  0  0  0  0  0  0  0  0  0  0  0
   14.0830   61.1640  -10.4450 H   0  0  0  0  0  0  0  0  0  0  0  0
   15.5330   60.3390   -9.8470 H   0  0  0  0  0  0  0  0  0  0  0  0
   15.2850   60.5550  -11.6040 H   0  0  0  0  0  0  0  0  0  0  0  0
   15.9800   66.3090  -10.2080 H   0  0  0  0  0  0  0  0  0  0  0  0
   16.2830   65.1480   -8.8050 H   0  0  0  0  0  0  0  0  0  0  0  0
   15.1400   64.7480  -10.1040 H   0  0  0  0  0  0  0  0  0  0  0  0
   22.0570   61.8520   -9.7050 H   0  0  0  0  0  0  0  0  0  0  0  0
   24.0760   63.9530   -9.4520 H   0  0  0  0  0  0  0  0  0  0  0  0
   26.2920   60.3580   -5.0470 H   0  0  0  0  0  0  0  0  0  0  0  0
   23.8580   64.4220   -1.1400 H   0  0  0  0  0  0  0  0  0  0  0  0
   25.4710   63.6750   -0.9900 H   0  0  0  0  0  0  0  0  0  0  0  0
   21.3950   64.9260   -6.8130 H   0  0  0  0  0  0  0  0  0  0  0  0
   21.2010   67.7790   -7.3760 H   0  0  0  0  0  0  0  0  0  0  0  0
   21.1830   67.8060   -4.4980 H   0  0  0  0  0  0  0  0  0  0  0  0
   22.7290   65.9770   -4.2790 H   0  0  0  0  0  0  0  0  0  0  0  0
   20.0590   65.1270   -4.5600 H   0  0  0  0  0  0  0  0  0  0  0  0
   19.6200   65.8070   -5.2580 H   0  0  0  0  0  0  0  0  0  0  0  0
   23.4860   68.2910   -5.4020 H   0  0  0  0  0  0  0  0  0  0  0  0
   22.1470   69.4590   -5.7740 H   0  0  0  0  0  0  0  0  0  0  0  0
   23.4130   68.4490   -8.0510 H   0  0  0  0  0  0  0  0  0  0  0  0
  2  1  1  0  0  0  0
  3  2  1  0  0  0  0
  3 12  1  0  0  0  0
  4  3  2  0  0  0  0
  5  6  2  0  0  0  0
  5  4  1  0  0  0  0
  6  7  1  0  0  0  0
  7 36  1  0  0  0  0
  7  2  2  0  0  0  0
  8  6  1  0  0  0  0
  9  8  1  0  0  0  0
  9 37  1  0  0  0  0
  9 38  1  0  0  0  0
 10  5  1  0  0  0  0
 10 11  1  0  0  0  0
 11 41  1  0  0  0  0
 12 13  2  0  0  0  0
 13 14  1  0  0  0  0
 14 15  1  0  0  0  0
 15 23  2  0  0  0  0
 15 16  1  0  0  0  0
 16 17  1  0  0  0  0
 17 18  1  0  0  0  0
 18 19  2  0  0  0  0
 19 25  1  0  0  0  0
 20 19  1  0  0  0  0
 21 20  2  0  0  0  0
 22 17  2  0  0  0  0
 22 21  1  0  0  0  0
 23 22  1  0  0  0  0
 24 45  1  0  0  0  0
 24 21  1  0  0  0  0
 25 46  1  0  0  0  0
 25 47  1  0  0  0  0
 26 48  1  6  0  0  0
 26 16  1  0  0  0  0
 26 30  1  0  0  0  0
 27 28  1  0  0  0  0
 27 26  1  0  0  0  0
 28 49  1  6  0  0  0
 28 33  1  0  0  0  0
 28 29  1  0  0  0  0
 29 30  1  0  0  0  0
 29 50  1  1  0  0  0
 30 31  1  0  0  0  0
 30 51  1  1  0  0  0
 32 29  1  0  0  0  0
 32 53  1  0  0  0  0
 33 55  1  0  0  0  0
 33 54  1  0  0  0  0
 34 33  1  0  0  0  0
 35  4  1  0  0  0  0
 39  9  1  0  0  0  0
 40 11  1  0  0  0  0
 42 11  1  0  0  0  0
 43 12  1  0  0  0  0
 44 14  1  0  0  0  0
 52 31  1  0  0  0  0
 56 34  1  0  0  0  0
M  END
>  <Pose>
1

>  <Score>
-8.04

$$$$
