
 OpenBabel03202210193D

 57 60  0  0  1  0  0  0  0  0999 V2000
   24.8370   63.2680   -3.9600 B   0  0  0  0  0  0  0  0  0  0  0  0
   23.7890   63.4340   -5.5430 C   0  0  0  0  0  0  0  0  0  0  0  0
   24.2240   62.8910   -6.7420 C   0  0  0  0  0  0  0  0  0  0  0  0
   23.4850   63.0000   -7.8940 C   0  0  0  0  0  0  0  0  0  0  0  0
   22.2800   63.6630   -7.8650 C   0  0  0  0  0  0  0  0  0  0  0  0
   21.8270   64.2160   -6.6650 C   0  0  0  0  0  0  0  0  0  0  0  0
   22.5770   64.1000   -5.5200 C   0  0  0  0  0  0  0  0  0  0  0  0
   21.4260   63.7950   -9.0240 C   0  0  1  0  0  0  0  0  0  0  0  0
   20.8820   64.9680   -9.1840 O   0  0  0  0  0  0  0  0  0  0  0  0
   21.0650   62.8430  -10.0500 C   0  0  1  0  0  0  0  0  0  0  0  0
   19.6390   62.6770  -10.1590 N   0  0  0  0  0  0  0  0  0  0  0  0
   19.2110   64.0520  -10.5020 C   0  0  2  0  0  0  0  0  0  0  0  0
   17.8340   63.9840  -10.8050 N   0  0  0  0  0  0  0  0  0  0  0  0
   17.3920   62.6520  -10.5300 C   0  0  0  0  0  0  0  0  0  0  0  0
   18.4940   61.8870  -10.1430 C   0  0  0  0  0  0  0  0  0  0  0  0
   18.3000   60.5590   -9.8240 C   0  0  0  0  0  0  0  0  0  0  0  0
   19.3080   59.8910   -9.4780 O   0  0  0  0  0  0  0  0  0  0  0  0
   17.0710   60.0350   -9.8920 N   0  0  0  0  0  0  0  0  0  0  0  0
   16.0450   60.7830  -10.2620 C   0  0  0  0  0  0  0  0  0  0  0  0
   14.9030   60.2500  -10.3120 O   0  0  0  0  0  0  0  0  0  0  0  0
   16.1740   62.1050  -10.5900 N   0  0  0  0  0  0  0  0  0  0  0  0
   14.9730   62.8120  -10.9750 C   0  0  0  0  0  0  0  0  0  0  0  0
   16.9100   58.6190   -9.5450 C   0  0  0  0  0  0  0  0  0  0  0  0
   16.9700   65.0380  -11.2730 C   0  0  0  0  0  0  0  0  0  0  0  0
   20.1940   64.5090  -11.4950 C   0  0  1  0  0  0  0  0  0  0  0  0
   21.3190   63.4670  -11.4310 C   0  0  1  0  0  0  0  0  0  0  0  0
   22.6380   64.0810  -11.5510 C   0  0  0  0  0  0  0  0  0  0  0  0
   22.7830   65.3270  -11.3190 O   0  0  0  0  0  0  0  0  0  0  0  0
   23.7460   63.3610  -11.9080 O   0  0  0  0  0  0  0  0  0  0  0  0
   24.4420   63.5620  -13.1400 C   0  0  0  0  0  0  0  0  0  0  0  0
   19.7600   64.7310  -12.8680 C   0  0  0  0  0  0  0  0  0  0  0  0
   19.2200   63.7950  -13.5150 O   0  0  0  0  0  0  0  0  0  0  0  0
   19.9220   65.9470  -13.4950 O   0  0  0  0  0  0  0  0  0  0  0  0
   18.8360   66.6120  -14.1040 C   0  0  0  0  0  0  0  0  0  0  0  0
   25.1650   62.3660   -6.7910 H   0  0  0  0  0  0  0  0  0  0  0  0
   23.8630   62.5870   -8.7920 H   0  0  0  0  0  0  0  0  0  0  0  0
   20.8640   64.7560   -6.6050 H   0  0  0  0  0  0  0  0  0  0  0  0
   22.2020   64.5440   -4.5860 H   0  0  0  0  0  0  0  0  0  0  0  0
   21.5950   61.8640   -9.9720 H   0  0  0  0  0  0  0  0  0  0  0  0
   19.3050   64.6990   -9.5890 H   0  0  0  0  0  0  0  0  0  0  0  0
   15.0630   63.3760  -11.9230 H   0  0  0  0  0  0  0  0  0  0  0  0
   14.1620   62.0480  -11.2170 H   0  0  0  0  0  0  0  0  0  0  0  0
   14.5160   63.3870  -10.1400 H   0  0  0  0  0  0  0  0  0  0  0  0
   17.5350   57.9790  -10.2030 H   0  0  0  0  0  0  0  0  0  0  0  0
   15.8390   58.3410   -9.5760 H   0  0  0  0  0  0  0  0  0  0  0  0
   17.2770   58.4740   -8.5050 H   0  0  0  0  0  0  0  0  0  0  0  0
   17.4570   66.0440  -11.0870 H   0  0  0  0  0  0  0  0  0  0  0  0
   16.6970   65.0120  -12.3210 H   0  0  0  0  0  0  0  0  0  0  0  0
   16.0430   65.1200  -10.6190 H   0  0  0  0  0  0  0  0  0  0  0  0
   20.7140   65.4520  -11.1160 H   0  0  0  0  0  0  0  0  0  0  0  0
   21.1160   62.6790  -12.2020 H   0  0  0  0  0  0  0  0  0  0  0  0
   25.1200   64.4480  -13.0550 H   0  0  0  0  0  0  0  0  0  0  0  0
   25.0100   62.6340  -13.3450 H   0  0  0  0  0  0  0  0  0  0  0  0
   23.6390   63.7340  -13.9030 H   0  0  0  0  0  0  0  0  0  0  0  0
   19.1910   67.6330  -14.3930 H   0  0  0  0  0  0  0  0  0  0  0  0
   18.6350   66.0800  -15.0680 H   0  0  0  0  0  0  0  0  0  0  0  0
   17.9390   66.6490  -13.4520 H   0  0  0  0  0  0  0  0  0  0  0  0
  2  7  1  0  0  0  0
  2  1  1  0  0  0  0
  3  2  2  0  0  0  0
  4  5  2  0  0  0  0
  4  3  1  0  0  0  0
  5  6  1  0  0  0  0
  6 37  1  0  0  0  0
  6  7  2  0  0  0  0
  7 38  1  0  0  0  0
  8  9  1  6  0  0  0
  8  5  1  0  0  0  0
 10 39  1  1  0  0  0
 10  8  1  0  0  0  0
 11 15  1  0  0  0  0
 11 10  1  0  0  0  0
 12 11  1  0  0  0  0
 12 40  1  1  0  0  0
 13 14  1  0  0  0  0
 13 12  1  0  0  0  0
 14 15  2  0  0  0  0
 15 16  1  0  0  0  0
 16 17  2  0  0  0  0
 18 16  1  0  0  0  0
 18 23  1  0  0  0  0
 19 18  1  0  0  0  0
 20 19  2  0  0  0  0
 21 14  1  0  0  0  0
 21 19  1  0  0  0  0
 22 21  1  0  0  0  0
 22 43  1  0  0  0  0
 23 46  1  0  0  0  0
 24 47  1  0  0  0  0
 24 13  1  0  0  0  0
 24 49  1  0  0  0  0
 25 26  1  0  0  0  0
 25 50  1  1  0  0  0
 25 12  1  0  0  0  0
 26 51  1  6  0  0  0
 26 10  1  0  0  0  0
 27 26  1  0  0  0  0
 27 28  2  0  0  0  0
 29 27  1  0  0  0  0
 30 52  1  0  0  0  0
 30 29  1  0  0  0  0
 31 25  1  0  0  0  0
 32 31  2  0  0  0  0
 33 31  1  0  0  0  0
 34 33  1  0  0  0  0
 34 57  1  0  0  0  0
 35  3  1  0  0  0  0
 36  4  1  0  0  0  0
 41 22  1  0  0  0  0
 42 22  1  0  0  0  0
 44 23  1  0  0  0  0
 45 23  1  0  0  0  0
 48 24  1  0  0  0  0
 53 30  1  0  0  0  0
 54 30  1  0  0  0  0
 55 34  1  0  0  0  0
 56 34  1  0  0  0  0
M  END
>  <Pose>
1

>  <Score>
-5.24

$$$$
