
 OpenBabel03202210193D

 52 55  0  0  1  0  0  0  0  0999 V2000
   27.9520   61.4030   -5.0820 B   0  0  0  0  0  0  0  0  0  0  0  0
   26.2700   62.2320   -4.6250 C   0  0  0  0  0  0  0  0  0  0  0  0
   25.6140   63.0110   -5.5460 C   0  0  0  0  0  0  0  0  0  0  0  0
   24.3920   63.6490   -5.2790 C   0  0  0  0  0  0  0  0  0  0  0  0
   23.8410   63.4730   -4.0460 C   0  0  0  0  0  0  0  0  0  0  0  0
   24.4960   62.6870   -3.1040 C   0  0  0  0  0  0  0  0  0  0  0  0
   25.7030   62.0680   -3.3830 C   0  0  0  0  0  0  0  0  0  0  0  0
   23.7840   64.4430   -6.3600 C   0  0  0  0  0  0  0  0  0  0  0  0
   24.3650   65.3970   -6.8920 O   0  0  0  0  0  0  0  0  0  0  0  0
   22.4550   64.0310   -6.7790 N   0  0  0  0  0  0  0  0  0  0  0  0
   22.3210   62.9040   -7.6700 C   0  0  2  0  0  0  0  0  0  0  0  0
   23.3440   63.2120   -8.7950 C   0  0  0  0  0  0  0  0  0  0  0  0
   20.9830   62.8110   -8.3310 C   0  0  0  0  0  0  0  0  0  0  0  0
   20.0550   62.2760   -7.6900 O   0  0  0  0  0  0  0  0  0  0  0  0
   20.7520   63.3110   -9.6170 N   0  0  0  0  0  0  0  0  0  0  0  0
   21.0850   62.7750  -10.8940 C   0  0  0  0  0  0  0  0  0  0  0  0
   19.9700   63.2830  -11.8210 C   0  0  0  0  0  0  0  0  0  0  0  0
   18.6660   63.4730  -11.0860 C   0  0  1  0  0  0  0  0  0  0  0  0
   17.6360   63.9560  -11.9650 N   0  0  0  0  0  0  0  0  0  0  0  0
   16.4370   64.2010  -11.1510 C   0  0  0  0  0  0  0  0  0  0  0  0
   15.8620   62.9300  -10.6080 C   0  0  0  0  0  0  0  0  0  0  0  0
   16.8970   61.9140  -10.3130 C   0  0  0  0  0  0  0  0  0  0  0  0
   16.7800   60.6790   -9.8140 N   0  0  0  0  0  0  0  0  0  0  0  0
   18.0100   60.1360   -9.7210 C   0  0  0  0  0  0  0  0  0  0  0  0
   18.8840   61.0500  -10.1650 N   0  0  0  0  0  0  0  0  0  0  0  0
   18.2540   62.1720  -10.5470 C   0  0  0  0  0  0  0  0  0  0  0  0
   18.7630   64.5420   -9.9860 C   0  0  0  0  0  0  0  0  0  0  0  0
   20.2030   64.7020   -9.7460 C   0  0  0  0  0  0  0  0  0  0  0  0
   26.0450   63.1700   -6.5240 H   0  0  0  0  0  0  0  0  0  0  0  0
   22.8940   63.9550   -3.8090 H   0  0  0  0  0  0  0  0  0  0  0  0
   24.0850   62.5250   -2.1440 H   0  0  0  0  0  0  0  0  0  0  0  0
   26.2520   61.4510   -2.6710 H   0  0  0  0  0  0  0  0  0  0  0  0
   21.6330   64.5340   -6.4520 H   0  0  0  0  0  0  0  0  0  0  0  0
   22.6680   61.9530   -7.2330 H   0  0  0  0  0  0  0  0  0  0  0  0
   22.9680   64.2260   -9.1690 H   0  0  0  0  0  0  0  0  0  0  0  0
   24.3320   63.3490   -8.3960 H   0  0  0  0  0  0  0  0  0  0  0  0
   23.2640   62.4820   -9.6030 H   0  0  0  0  0  0  0  0  0  0  0  0
   22.0330   63.2810  -11.2150 H   0  0  0  0  0  0  0  0  0  0  0  0
   21.2110   61.7000  -10.9410 H   0  0  0  0  0  0  0  0  0  0  0  0
   19.8030   62.4610  -12.5290 H   0  0  0  0  0  0  0  0  0  0  0  0
   20.2870   64.1410  -12.4220 H   0  0  0  0  0  0  0  0  0  0  0  0
   17.9140   64.8920  -12.3430 H   0  0  0  0  0  0  0  0  0  0  0  0
   16.5880   64.8780  -10.3130 H   0  0  0  0  0  0  0  0  0  0  0  0
   15.6490   64.6660  -11.8130 H   0  0  0  0  0  0  0  0  0  0  0  0
   15.0280   62.5210  -11.2450 H   0  0  0  0  0  0  0  0  0  0  0  0
   15.3520   63.1450   -9.6190 H   0  0  0  0  0  0  0  0  0  0  0  0
   15.9280   60.1510   -9.5240 H   0  0  0  0  0  0  0  0  0  0  0  0
   18.3020   59.1660   -9.3690 H   0  0  0  0  0  0  0  0  0  0  0  0
   18.1590   64.1860   -9.1510 H   0  0  0  0  0  0  0  0  0  0  0  0
   18.4030   65.5420  -10.3650 H   0  0  0  0  0  0  0  0  0  0  0  0
   20.5920   65.3340   -8.9730 H   0  0  0  0  0  0  0  0  0  0  0  0
   20.6340   65.1420  -10.7090 H   0  0  0  0  0  0  0  0  0  0  0  0
  1  2  1  0  0  0  0
  2  7  1  0  0  0  0
  3  4  1  0  0  0  0
  3  2  2  0  0  0  0
  4  5  2  0  0  0  0
  5 30  1  0  0  0  0
  5  6  1  0  0  0  0
  6 31  1  0  0  0  0
  7  6  2  0  0  0  0
  7 32  1  0  0  0  0
  8  4  1  0  0  0  0
  9  8  2  0  0  0  0
 10 33  1  0  0  0  0
 10  8  1  0  0  0  0
 11 34  1  1  0  0  0
 11 10  1  0  0  0  0
 12 36  1  0  0  0  0
 12 11  1  0  0  0  0
 13 14  2  0  0  0  0
 13 11  1  0  0  0  0
 15 13  1  0  0  0  0
 16 15  1  0  0  0  0
 17 18  1  0  0  0  0
 17 16  1  0  0  0  0
 18 26  1  1  0  0  0
 18 27  1  0  0  0  0
 19 20  1  0  0  0  0
 19 18  1  0  0  0  0
 20 21  1  0  0  0  0
 20 43  1  0  0  0  0
 21 22  1  0  0  0  0
 21 46  1  0  0  0  0
 22 23  1  0  0  0  0
 23 24  1  0  0  0  0
 23 47  1  0  0  0  0
 24 48  1  0  0  0  0
 25 24  2  0  0  0  0
 26 22  2  0  0  0  0
 26 25  1  0  0  0  0
 27 28  1  0  0  0  0
 27 49  1  0  0  0  0
 28 15  1  0  0  0  0
 28 51  1  0  0  0  0
 29  3  1  0  0  0  0
 35 12  1  0  0  0  0
 37 12  1  0  0  0  0
 38 16  1  0  0  0  0
 39 16  1  0  0  0  0
 40 17  1  0  0  0  0
 41 17  1  0  0  0  0
 42 19  1  0  0  0  0
 44 20  1  0  0  0  0
 45 21  1  0  0  0  0
 50 27  1  0  0  0  0
 52 28  1  0  0  0  0
M  END
>  <Pose>
1

>  <Score>
-6.71

$$$$
