
 OpenBabel03202210193D

 45 48  0  0  0  0  0  0  0  0999 V2000
   25.5040   62.6010   -4.6020 B   0  0  0  0  0  0  0  0  0  0  0  0
   24.2100   63.3400   -5.8200 C   0  0  0  0  0  0  0  0  0  0  0  0
   24.1750   62.9320   -7.1410 C   0  0  0  0  0  0  0  0  0  0  0  0
   23.2700   63.4440   -8.0120 N   0  0  0  0  0  0  0  0  0  0  0  0
   22.3810   64.3610   -7.6150 C   0  0  0  0  0  0  0  0  0  0  0  0
   21.4860   64.8640   -8.4820 N   0  0  0  0  0  0  0  0  0  0  0  0
   21.4360   64.4810   -9.7680 C   0  0  0  0  0  0  0  0  0  0  0  0
   22.3470   63.5400  -10.1770 C   0  0  0  0  0  0  0  0  0  0  0  0
   23.2880   63.0030   -9.2870 C   0  0  0  0  0  0  0  0  0  0  0  0
   24.1090   62.1430   -9.6940 O   0  0  0  0  0  0  0  0  0  0  0  0
   20.4290   65.0720  -10.6720 C   0  0  0  0  0  0  0  0  0  0  0  0
   19.3760   64.1530  -10.7860 O   0  0  0  0  0  0  0  0  0  0  0  0
   18.1650   64.4470  -10.1020 C   0  0  0  0  0  0  0  0  0  0  0  0
   18.3170   65.3600   -9.3010 O   0  0  0  0  0  0  0  0  0  0  0  0
   16.9790   63.6750  -10.4220 C   0  0  0  0  0  0  0  0  0  0  0  0
   15.8610   64.2920  -10.9080 N   0  0  0  0  0  0  0  0  0  0  0  0
   14.7690   63.6120  -11.2080 N   0  0  0  0  0  0  0  0  0  0  0  0
   14.7060   62.2800  -11.0470 C   0  0  0  0  0  0  0  0  0  0  0  0
   13.6450   61.6340  -11.3390 O   0  0  0  0  0  0  0  0  0  0  0  0
   15.7880   61.5830  -10.5620 C   0  0  0  0  0  0  0  0  0  0  0  0
   16.9310   62.3260  -10.2540 C   0  0  0  0  0  0  0  0  0  0  0  0
   17.9870   61.5910   -9.7750 C   0  0  0  0  0  0  0  0  0  0  0  0
   17.9120   60.2110   -9.6120 C   0  0  0  0  0  0  0  0  0  0  0  0
   16.7700   59.5110   -9.9260 C   0  0  0  0  0  0  0  0  0  0  0  0
   15.7020   60.2250  -10.4070 C   0  0  0  0  0  0  0  0  0  0  0  0
   13.5890   64.2780  -11.7220 C   0  0  0  0  0  0  0  0  0  0  0  0
   13.6880   64.5670  -13.1970 C   0  0  0  0  0  0  0  0  0  0  0  0
   14.4630   65.6780  -13.4720 O   0  0  0  0  0  0  0  0  0  0  0  0
   22.4010   64.7770   -6.3110 C   0  0  0  0  0  0  0  0  0  0  0  0
   23.3060   64.2810   -5.3950 C   0  0  0  0  0  0  0  0  0  0  0  0
   24.9090   62.1830   -7.4440 H   0  0  0  0  0  0  0  0  0  0  0  0
   22.3550   63.1930  -11.2000 H   0  0  0  0  0  0  0  0  0  0  0  0
   20.1020   66.0800  -10.3500 H   0  0  0  0  0  0  0  0  0  0  0  0
   20.9380   65.2500  -11.6590 H   0  0  0  0  0  0  0  0  0  0  0  0
   18.8960   62.0560   -9.5110 H   0  0  0  0  0  0  0  0  0  0  0  0
   18.7720   59.6760   -9.2300 H   0  0  0  0  0  0  0  0  0  0  0  0
   16.7080   58.4270   -9.8000 H   0  0  0  0  0  0  0  0  0  0  0  0
   14.8030   59.7010  -10.6590 H   0  0  0  0  0  0  0  0  0  0  0  0
   13.4510   65.2460  -11.2020 H   0  0  0  0  0  0  0  0  0  0  0  0
   12.6960   63.6650  -11.5310 H   0  0  0  0  0  0  0  0  0  0  0  0
   12.6910   64.6670  -13.6630 H   0  0  0  0  0  0  0  0  0  0  0  0
   14.1830   63.6920  -13.6650 H   0  0  0  0  0  0  0  0  0  0  0  0
   15.4070   65.3910  -13.4660 H   0  0  0  0  0  0  0  0  0  0  0  0
   21.6770   65.5300   -5.9670 H   0  0  0  0  0  0  0  0  0  0  0  0
   23.3160   64.6120   -4.3690 H   0  0  0  0  0  0  0  0  0  0  0  0
  2 30  2  0  0  0  0
  2  1  1  0  0  0  0
  3  2  1  0  0  0  0
  4  5  1  0  0  0  0
  4  3  1  0  0  0  0
  5 29  2  0  0  0  0
  6  5  1  0  0  0  0
  7  6  2  0  0  0  0
  8  7  1  0  0  0  0
  8  9  1  0  0  0  0
  9  4  1  0  0  0  0
 10  9  2  0  0  0  0
 11 33  1  0  0  0  0
 11  7  1  0  0  0  0
 12 11  1  0  0  0  0
 12 13  1  0  0  0  0
 13 14  2  0  0  0  0
 15 21  1  0  0  0  0
 15 13  1  0  0  0  0
 16 15  2  0  0  0  0
 17 18  1  0  0  0  0
 17 16  1  0  0  0  0
 18 20  1  0  0  0  0
 19 18  2  0  0  0  0
 20 25  2  0  0  0  0
 20 21  1  0  0  0  0
 21 22  2  0  0  0  0
 22 23  1  0  0  0  0
 22 35  1  0  0  0  0
 23 36  1  0  0  0  0
 24 37  1  0  0  0  0
 24 23  2  0  0  0  0
 25 24  1  0  0  0  0
 26 40  1  0  0  0  0
 26 17  1  0  0  0  0
 26 39  1  0  0  0  0
 27 26  1  0  0  0  0
 28 43  1  0  0  0  0
 28 27  1  0  0  0  0
 29 44  1  0  0  0  0
 29 30  1  0  0  0  0
 30 45  1  0  0  0  0
 31  3  1  0  0  0  0
 32  8  1  0  0  0  0
 34 11  1  0  0  0  0
 38 25  1  0  0  0  0
 41 27  1  0  0  0  0
 42 27  1  0  0  0  0
M  END
>  <Pose>
1

>  <Score>
-7.28

$$$$
