
 OpenBabel03202210193D

 55 58  0  0  1  0  0  0  0  0999 V2000
   27.4040   61.6750   -3.0030 Cl  0  0  0  0  0  0  0  0  0  0  0  0
   25.9300   62.4060   -3.6580 C   0  0  0  0  0  0  0  0  0  0  0  0
   25.9900   63.0790   -4.8560 C   0  0  0  0  0  0  0  0  0  0  0  0
   24.8590   63.6650   -5.4020 C   0  0  0  0  0  0  0  0  0  0  0  0
   24.6300   64.3640   -6.5230 N   0  0  0  0  0  0  0  0  0  0  0  0
   23.2970   64.7160   -6.5750 C   0  0  0  0  0  0  0  0  0  0  0  0
   22.7570   64.2100   -5.4720 N   0  0  0  0  0  0  0  0  0  0  0  0
   23.6770   63.5510   -4.7090 C   0  0  0  0  0  0  0  0  0  0  0  0
   23.6070   62.8790   -3.5070 C   0  0  0  0  0  0  0  0  0  0  0  0
   24.7340   62.3020   -2.9750 C   0  0  0  0  0  0  0  0  0  0  0  0
   21.3630   64.2590   -5.0680 C   0  0  0  0  0  0  0  0  0  0  0  0
   22.6680   65.4460   -7.7050 C   0  0  0  0  0  0  0  0  0  0  0  0
   22.3880   64.6800   -8.9270 C   0  0  0  0  0  0  0  0  0  0  0  0
   21.2430   63.7620   -8.9170 C   0  0  0  0  0  0  0  0  0  0  0  0
   20.9040   63.1200   -7.8970 O   0  0  0  0  0  0  0  0  0  0  0  0
   20.4820   63.5920  -10.1320 N   0  0  0  0  0  0  0  0  0  0  0  0
   19.1130   64.0290  -10.1610 C   0  0  0  0  0  0  0  0  0  0  0  0
   18.2490   62.7890  -10.2760 C   0  0  2  0  0  0  0  0  0  0  0  0
   18.8850   61.6890  -11.0460 C   0  0  1  0  0  0  0  0  0  0  0  0
   19.9960   62.0930  -11.9450 C   0  0  0  0  0  0  0  0  0  0  0  0
   21.0070   63.0060  -11.3350 C   0  0  0  0  0  0  0  0  0  0  0  0
   19.3490   60.6490  -10.2270 O   0  0  0  0  0  0  0  0  0  0  0  0
   17.7950   61.0570  -11.9210 C   0  0  0  0  0  0  0  0  0  0  0  0
   16.9650   63.1930  -10.7950 N   0  0  0  0  0  0  0  0  0  0  0  0
   15.8350   62.6290  -10.3240 C   0  0  0  0  0  0  0  0  0  0  0  0
   14.5890   62.9840  -10.7890 C   0  0  0  0  0  0  0  0  0  0  0  0
   14.5050   63.9470  -11.7680 C   0  0  0  0  0  0  0  0  0  0  0  0
   13.3810   64.3190  -12.2410 O   0  0  0  0  0  0  0  0  0  0  0  0
   15.6470   64.4910  -12.2190 N   0  0  0  0  0  0  0  0  0  0  0  0
   16.8420   64.1300  -11.7510 C   0  0  0  0  0  0  0  0  0  0  0  0
   17.8880   64.6740  -12.2090 O   0  0  0  0  0  0  0  0  0  0  0  0
   26.9060   63.1880   -5.4280 H   0  0  0  0  0  0  0  0  0  0  0  0
   22.6630   62.8180   -3.0060 H   0  0  0  0  0  0  0  0  0  0  0  0
   24.7160   61.7660   -2.0340 H   0  0  0  0  0  0  0  0  0  0  0  0
   20.7030   64.6530   -5.8480 H   0  0  0  0  0  0  0  0  0  0  0  0
   20.9880   63.2740   -4.7220 H   0  0  0  0  0  0  0  0  0  0  0  0
   21.3220   64.9240   -4.1660 H   0  0  0  0  0  0  0  0  0  0  0  0
   23.2860   66.3610   -7.9010 H   0  0  0  0  0  0  0  0  0  0  0  0
   21.7160   65.8750   -7.2620 H   0  0  0  0  0  0  0  0  0  0  0  0
   22.3930   65.3200   -9.8540 H   0  0  0  0  0  0  0  0  0  0  0  0
   23.2960   64.0070   -9.0950 H   0  0  0  0  0  0  0  0  0  0  0  0
   18.9100   64.7450  -10.9860 H   0  0  0  0  0  0  0  0  0  0  0  0
   18.8670   64.5750   -9.2270 H   0  0  0  0  0  0  0  0  0  0  0  0
   18.0860   62.4240   -9.2280 H   0  0  0  0  0  0  0  0  0  0  0  0
   20.5460   61.1520  -12.2400 H   0  0  0  0  0  0  0  0  0  0  0  0
   19.5870   62.4770  -12.9200 H   0  0  0  0  0  0  0  0  0  0  0  0
   21.1600   63.8540  -12.0660 H   0  0  0  0  0  0  0  0  0  0  0  0
   22.0020   62.5460  -11.2000 H   0  0  0  0  0  0  0  0  0  0  0  0
   20.3560   60.6570  -10.2600 H   0  0  0  0  0  0  0  0  0  0  0  0
   18.1750   60.0410  -12.1880 H   0  0  0  0  0  0  0  0  0  0  0  0
   16.8770   60.8780  -11.3150 H   0  0  0  0  0  0  0  0  0  0  0  0
   17.6210   61.6210  -12.8390 H   0  0  0  0  0  0  0  0  0  0  0  0
   15.9000   61.8620   -9.5440 H   0  0  0  0  0  0  0  0  0  0  0  0
   13.6850   62.5300  -10.4110 H   0  0  0  0  0  0  0  0  0  0  0  0
   15.6280   65.2380  -12.9750 H   0  0  0  0  0  0  0  0  0  0  0  0
  2  1  1  0  0  0  0
  2 10  1  0  0  0  0
  3  2  2  0  0  0  0
  4  3  1  0  0  0  0
  4  8  2  0  0  0  0
  5  4  1  0  0  0  0
  6  5  2  0  0  0  0
  6  7  1  0  0  0  0
  7 11  1  0  0  0  0
  7  8  1  0  0  0  0
  8  9  1  0  0  0  0
  9 33  1  0  0  0  0
  9 10  2  0  0  0  0
 10 34  1  0  0  0  0
 11 36  1  0  0  0  0
 11 37  1  0  0  0  0
 12 39  1  0  0  0  0
 12  6  1  0  0  0  0
 13 14  1  0  0  0  0
 13 12  1  0  0  0  0
 14 15  2  0  0  0  0
 16 14  1  0  0  0  0
 17 16  1  0  0  0  0
 17 43  1  0  0  0  0
 18 17  1  0  0  0  0
 18 44  1  1  0  0  0
 19 18  1  0  0  0  0
 19 22  1  1  0  0  0
 20 21  1  0  0  0  0
 20 19  1  0  0  0  0
 21 48  1  0  0  0  0
 21 16  1  0  0  0  0
 23 51  1  0  0  0  0
 23 19  1  0  0  0  0
 24 25  1  0  0  0  0
 24 18  1  0  0  0  0
 25 53  1  0  0  0  0
 26 54  1  0  0  0  0
 26 25  2  0  0  0  0
 27 26  1  0  0  0  0
 28 27  2  0  0  0  0
 29 27  1  0  0  0  0
 29 30  1  0  0  0  0
 30 24  1  0  0  0  0
 31 30  2  0  0  0  0
 32  3  1  0  0  0  0
 35 11  1  0  0  0  0
 38 12  1  0  0  0  0
 40 13  1  0  0  0  0
 41 13  1  0  0  0  0
 42 17  1  0  0  0  0
 45 20  1  0  0  0  0
 46 20  1  0  0  0  0
 47 21  1  0  0  0  0
 49 22  1  0  0  0  0
 50 23  1  0  0  0  0
 52 23  1  0  0  0  0
 55 29  1  0  0  0  0
M  END
>  <Pose>
1

>  <Score>
-7.30

$$$$
