
 OpenBabel03202210193D

 51 50  0  0  1  0  0  0  0  0999 V2000
   19.3460   62.0390  -10.4460 B   0  0  0  0  0  0  0  0  0  0  0  0
   20.8150   62.9570   -9.6490 C   0  0  0  0  0  0  0  0  0  0  0  0
   20.9090   63.1060   -8.2780 C   0  0  0  0  0  0  0  0  0  0  0  0
   21.9510   63.7610   -7.6550 C   0  0  0  0  0  0  0  0  0  0  0  0
   22.9350   64.2800   -8.5000 C   0  0  0  0  0  0  0  0  0  0  0  0
   22.8420   64.1330   -9.8620 C   0  0  0  0  0  0  0  0  0  0  0  0
   21.7940   63.4750  -10.4720 C   0  0  0  0  0  0  0  0  0  0  0  0
   21.7430   63.3440  -11.9560 C   0  0  0  0  0  0  0  0  0  0  0  0
   23.9680   64.9300   -7.8380 O   0  0  0  0  0  0  0  0  0  0  0  0
   23.9520   65.2610   -6.4620 C   0  0  0  0  0  0  0  0  0  0  0  0
   23.3920   64.0670   -5.6200 C   0  0  2  0  0  0  0  0  0  0  0  0
   22.0390   63.9330   -6.2120 C   0  0  0  0  0  0  0  0  0  0  0  0
   20.9510   63.9520   -5.6100 O   0  0  0  0  0  0  0  0  0  0  0  0
   23.4650   64.2640   -4.2760 N   0  0  0  0  0  0  0  0  0  0  0  0
   24.4180   65.0770   -3.6500 C   0  0  0  0  0  0  0  0  0  0  0  0
   25.5190   64.2230   -3.0570 C   0  0  0  0  0  0  0  0  0  0  0  0
   24.9050   63.4850   -2.0170 O   0  0  0  0  0  0  0  0  0  0  0  0
   24.1170   62.5350   -2.6900 C   0  0  0  0  0  0  0  0  0  0  0  0
   22.9900   63.2820   -3.4060 C   0  0  0  0  0  0  0  0  0  0  0  0
   24.2460   62.9280   -6.0500 C   0  0  0  0  0  0  0  0  0  0  0  0
   25.6660   63.0990   -6.0390 N   0  0  0  0  0  0  0  0  0  0  0  0
   26.3440   63.0440   -4.7990 C   0  0  0  0  0  0  0  0  0  0  0  0
   26.4680   61.5910   -4.3160 C   0  0  0  0  0  0  0  0  0  0  0  0
   27.3130   60.9620   -5.2370 O   0  0  0  0  0  0  0  0  0  0  0  0
   26.5960   60.8560   -6.4350 C   0  0  0  0  0  0  0  0  0  0  0  0
   26.2560   62.1900   -7.0230 C   0  0  0  0  0  0  0  0  0  0  0  0
   20.1320   62.6940   -7.6120 H   0  0  0  0  0  0  0  0  0  0  0  0
   23.6220   64.5490  -10.4870 H   0  0  0  0  0  0  0  0  0  0  0  0
   20.7030   63.3640  -12.3350 H   0  0  0  0  0  0  0  0  0  0  0  0
   22.3620   64.1730  -12.3660 H   0  0  0  0  0  0  0  0  0  0  0  0
   22.2410   62.4030  -12.2680 H   0  0  0  0  0  0  0  0  0  0  0  0
   24.9920   65.4820   -6.1750 H   0  0  0  0  0  0  0  0  0  0  0  0
   23.3180   66.1600   -6.2850 H   0  0  0  0  0  0  0  0  0  0  0  0
   24.8600   65.8880   -4.2210 H   0  0  0  0  0  0  0  0  0  0  0  0
   23.9230   65.5670   -2.7650 H   0  0  0  0  0  0  0  0  0  0  0  0
   25.9790   63.5700   -3.7930 H   0  0  0  0  0  0  0  0  0  0  0  0
   26.2310   64.9060   -2.5520 H   0  0  0  0  0  0  0  0  0  0  0  0
   23.6300   61.9020   -1.9280 H   0  0  0  0  0  0  0  0  0  0  0  0
   24.7820   61.9930   -3.3580 H   0  0  0  0  0  0  0  0  0  0  0  0
   22.4760   63.8310   -2.5430 H   0  0  0  0  0  0  0  0  0  0  0  0
   22.2490   62.5650   -3.7320 H   0  0  0  0  0  0  0  0  0  0  0  0
   23.9910   62.5680   -7.0880 H   0  0  0  0  0  0  0  0  0  0  0  0
   24.0690   62.0050   -5.4140 H   0  0  0  0  0  0  0  0  0  0  0  0
   25.8840   63.5880   -3.9970 H   0  0  0  0  0  0  0  0  0  0  0  0
   27.4030   63.3640   -4.9690 H   0  0  0  0  0  0  0  0  0  0  0  0
   26.9600   61.6630   -3.3110 H   0  0  0  0  0  0  0  0  0  0  0  0
   25.4910   61.0960   -4.2290 H   0  0  0  0  0  0  0  0  0  0  0  0
   27.3020   60.3490   -7.1500 H   0  0  0  0  0  0  0  0  0  0  0  0
   25.7210   60.1870   -6.3280 H   0  0  0  0  0  0  0  0  0  0  0  0
   27.1310   62.6410   -7.5120 H   0  0  0  0  0  0  0  0  0  0  0  0
   25.4850   62.0440   -7.8070 H   0  0  0  0  0  0  0  0  0  0  0  0
  1  2  1  0  0  0  0
  2  3  1  0  0  0  0
  3  4  2  0  0  0  0
  3 27  1  0  0  0  0
  4 12  1  0  0  0  0
  5  9  1  0  0  0  0
  5  4  1  0  0  0  0
  6  5  2  0  0  0  0
  7  6  1  0  0  0  0
  7  2  2  0  0  0  0
  8  7  1  0  0  0  0
  9 10  1  0  0  0  0
 10 33  1  0  0  0  0
 10 32  1  0  0  0  0
 10 11  1  0  0  0  0
 11 20  1  6  0  0  0
 11 14  1  0  0  0  0
 12 11  1  0  0  0  0
 12 13  2  0  0  0  0
 14 15  1  0  0  0  0
 14 19  1  0  0  0  0
 15 35  1  0  0  0  0
 16 37  1  0  0  0  0
 18 17  1  0  0  0  0
 18 38  1  0  0  0  0
 19 18  1  0  0  0  0
 19 40  1  0  0  0  0
 20 21  1  0  0  0  0
 20 43  1  0  0  0  0
 22 44  1  0  0  0  0
 23 47  1  0  0  0  0
 23 46  1  0  0  0  0
 24 23  1  0  0  0  0
 25 49  1  0  0  0  0
 25 24  1  0  0  0  0
 26 25  1  0  0  0  0
 26 21  1  0  0  0  0
 28  6  1  0  0  0  0
 29  8  1  0  0  0  0
 30  8  1  0  0  0  0
 31  8  1  0  0  0  0
 34 15  1  0  0  0  0
 36 16  1  0  0  0  0
 39 18  1  0  0  0  0
 41 19  1  0  0  0  0
 42 20  1  0  0  0  0
 45 22  1  0  0  0  0
 48 25  1  0  0  0  0
 50 26  1  0  0  0  0
 51 26  1  0  0  0  0
M  END
>  <Pose>
1

>  <Score>
-4.74

$$$$
