
 OpenBabel03202210193D

 38 41  0  0  0  0  0  0  0  0999 V2000
   16.0270   64.3690  -10.9410 B   0  0  0  0  0  0  0  0  0  0  0  0
   17.6480   63.5280  -10.4380 C   0  0  0  0  0  0  0  0  0  0  0  0
   17.6560   62.1890  -10.2430 C   0  0  0  0  0  0  0  0  0  0  0  0
   16.6800   61.2640  -10.3400 N   0  0  0  0  0  0  0  0  0  0  0  0
   17.2770   60.1170  -10.0330 N   0  0  0  0  0  0  0  0  0  0  0  0
   18.5420   60.2750   -9.7590 N   0  0  0  0  0  0  0  0  0  0  0  0
   18.8430   61.5940   -9.8790 C   0  0  0  0  0  0  0  0  0  0  0  0
   20.0000   62.3480   -9.7150 C   0  0  0  0  0  0  0  0  0  0  0  0
   19.9980   63.6780   -9.9070 N   0  0  0  0  0  0  0  0  0  0  0  0
   18.8280   64.2500  -10.2640 C   0  0  0  0  0  0  0  0  0  0  0  0
   21.1820   64.5060   -9.7480 C   0  0  0  0  0  0  0  0  0  0  0  0
   22.3240   63.8130   -9.1590 C   0  0  0  0  0  0  0  0  0  0  0  0
   23.0680   63.1700   -9.9610 O   0  0  0  0  0  0  0  0  0  0  0  0
   22.6880   63.7910   -7.7450 C   0  0  0  0  0  0  0  0  0  0  0  0
   23.9380   63.3680   -7.3890 C   0  0  0  0  0  0  0  0  0  0  0  0
   24.3050   63.3310   -6.0690 C   0  0  0  0  0  0  0  0  0  0  0  0
   23.4430   63.7130   -5.0580 C   0  0  0  0  0  0  0  0  0  0  0  0
   22.1770   64.1380   -5.4540 C   0  0  0  0  0  0  0  0  0  0  0  0
   21.8070   64.1780   -6.7700 C   0  0  0  0  0  0  0  0  0  0  0  0
   23.7890   63.6850   -3.7230 C   0  0  0  0  0  0  0  0  0  0  0  0
   25.0580   63.2530   -3.4030 C   0  0  0  0  0  0  0  0  0  0  0  0
   25.9270   62.8690   -4.4030 C   0  0  0  0  0  0  0  0  0  0  0  0
   25.5760   62.9000   -5.7330 C   0  0  0  0  0  0  0  0  0  0  0  0
   15.3110   61.3750  -10.6780 C   0  0  0  0  0  0  0  0  0  0  0  0
   20.8910   61.8390   -9.4330 H   0  0  0  0  0  0  0  0  0  0  0  0
   18.8030   65.3170  -10.4240 H   0  0  0  0  0  0  0  0  0  0  0  0
   21.5020   64.9260  -10.7390 H   0  0  0  0  0  0  0  0  0  0  0  0
   20.9180   65.3710   -9.1130 H   0  0  0  0  0  0  0  0  0  0  0  0
   24.6830   63.0480   -8.1280 H   0  0  0  0  0  0  0  0  0  0  0  0
   21.4950   64.4410   -4.6450 H   0  0  0  0  0  0  0  0  0  0  0  0
   20.8020   64.5150   -7.0450 H   0  0  0  0  0  0  0  0  0  0  0  0
   23.0690   63.9960   -2.9780 H   0  0  0  0  0  0  0  0  0  0  0  0
   25.3540   63.2230   -2.3500 H   0  0  0  0  0  0  0  0  0  0  0  0
   26.9210   62.5320   -4.1330 H   0  0  0  0  0  0  0  0  0  0  0  0
   26.2720   62.5940   -6.5200 H   0  0  0  0  0  0  0  0  0  0  0  0
   14.7880   60.4380  -10.3950 H   0  0  0  0  0  0  0  0  0  0  0  0
   15.1930   61.4370  -11.8020 H   0  0  0  0  0  0  0  0  0  0  0  0
   14.7350   62.1870  -10.2640 H   0  0  0  0  0  0  0  0  0  0  0  0
  1  2  1  0  0  0  0
  2 10  2  0  0  0  0
  2  3  1  0  0  0  0
  3  7  2  0  0  0  0
  4  3  1  0  0  0  0
  4  5  1  0  0  0  0
  5  6  2  0  0  0  0
  7  6  1  0  0  0  0
  7  8  1  0  0  0  0
  8 25  1  0  0  0  0
  9 11  1  0  0  0  0
  9  8  1  0  0  0  0
 10  9  1  0  0  0  0
 11 12  1  0  0  0  0
 11 28  1  0  0  0  0
 12 14  1  0  0  0  0
 13 12  2  0  0  0  0
 14 15  2  0  0  0  0
 14 19  1  0  0  0  0
 15 16  1  0  0  0  0
 16 23  2  0  0  0  0
 16 17  1  0  0  0  0
 17 20  2  0  0  0  0
 18 17  1  0  0  0  0
 18 30  1  0  0  0  0
 19 18  2  0  0  0  0
 20 21  1  0  0  0  0
 20 32  1  0  0  0  0
 21 33  1  0  0  0  0
 22 34  1  0  0  0  0
 22 21  2  0  0  0  0
 23 22  1  0  0  0  0
 24 36  1  0  0  0  0
 24  4  1  0  0  0  0
 24 38  1  0  0  0  0
 26 10  1  0  0  0  0
 27 11  1  0  0  0  0
 29 15  1  0  0  0  0
 31 19  1  0  0  0  0
 35 23  1  0  0  0  0
 37 24  1  0  0  0  0
M  END
>  <Pose>
1

>  <Score>
-7.72

$$$$
