
 OpenBabel03202210193D

 66 69  0  0  1  0  0  0  0  0999 V2000
   18.9440   62.9950   -9.8010 B   0  0  0  0  0  0  0  0  0  0  0  0
   20.8400   63.2310   -9.9430 C   0  0  0  0  0  0  0  0  0  0  0  0
   21.5950   63.4070   -8.8080 C   0  0  0  0  0  0  0  0  0  0  0  0
   22.9870   63.5840   -8.8680 C   0  0  0  0  0  0  0  0  0  0  0  0
   23.5540   63.5710  -10.1240 C   0  0  0  0  0  0  0  0  0  0  0  0
   22.8210   63.3970  -11.2780 C   0  0  0  0  0  0  0  0  0  0  0  0
   21.4580   63.2250  -11.1930 C   0  0  0  0  0  0  0  0  0  0  0  0
   20.5820   63.0300  -12.3770 C   0  0  0  0  0  0  0  0  0  0  0  0
   23.6330   63.3830  -13.0040 B   0  0  0  0  0  0  0  0  0  0  0  0
   23.7430   63.7690   -7.6470 C   0  0  0  0  0  0  0  0  0  0  0  0
   24.9770   63.8210   -7.6810 O   0  0  0  0  0  0  0  0  0  0  0  0
   23.0290   63.8950   -6.3640 C   0  0  1  0  0  0  0  0  0  0  0  0
   21.7900   63.0310   -6.4570 C   0  0  0  0  0  0  0  0  0  0  0  0
   20.9860   63.4140   -7.5570 O   0  0  0  0  0  0  0  0  0  0  0  0
   23.8640   63.5380   -5.1720 C   0  0  0  0  0  0  0  0  0  0  0  0
   23.1590   63.0970   -4.0310 N   0  0  0  0  0  4  0  0  0  0  0  0
   23.7620   61.9040   -3.5140 C   0  0  0  0  0  0  0  0  0  0  0  0
   25.0850   62.0920   -2.8640 C   0  0  2  0  0  0  0  0  0  0  0  0
   25.5210   63.4860   -2.6310 C   0  0  0  0  0  0  0  0  0  0  0  0
   24.4600   64.5140   -2.5700 C   0  0  0  0  0  0  0  0  0  0  0  0
   23.0890   64.0310   -2.9400 C   0  0  0  0  0  0  0  0  0  0  0  0
   26.1380   61.4180   -3.7520 C   0  0  0  0  0  0  0  0  0  0  0  0
   22.5860   65.3410   -6.2740 C   0  0  0  0  0  0  0  0  0  0  0  0
   23.1610   66.2150   -7.2390 N   0  0  0  0  0  4  0  0  0  0  0  0
   23.8600   67.3130   -6.5750 C   0  0  0  0  0  0  0  0  0  0  0  0
   23.0590   68.5820   -6.5610 C   0  0  1  0  0  0  0  0  0  0  0  0
   21.6140   68.2650   -6.2510 C   0  0  0  0  0  0  0  0  0  0  0  0
   21.0590   67.4880   -7.4050 C   0  0  0  0  0  0  0  0  0  0  0  0
   22.2010   66.8250   -8.1330 C   0  0  0  0  0  0  0  0  0  0  0  0
   23.5760   69.4260   -5.3880 C   0  0  0  0  0  0  0  0  0  0  0  0
   24.6280   63.7020  -10.2300 H   0  0  0  0  0  0  0  0  0  0  0  0
   20.1200   62.0210  -12.2950 H   0  0  0  0  0  0  0  0  0  0  0  0
   21.0950   63.2020  -13.3240 H   0  0  0  0  0  0  0  0  0  0  0  0
   19.7250   63.7500  -12.2450 H   0  0  0  0  0  0  0  0  0  0  0  0
   22.0500   61.9730   -6.6060 H   0  0  0  0  0  0  0  0  0  0  0  0
   21.2020   63.0630   -5.4970 H   0  0  0  0  0  0  0  0  0  0  0  0
   24.5380   62.7190   -5.5000 H   0  0  0  0  0  0  0  0  0  0  0  0
   24.5280   64.3990   -4.9520 H   0  0  0  0  0  0  0  0  0  0  0  0
   22.1690   62.8570   -4.2900 H   0  0  0  0  0  0  0  0  0  0  0  0
   23.0160   61.4640   -2.7860 H   0  0  0  0  0  0  0  0  0  0  0  0
   23.8070   61.1630   -4.3390 H   0  0  0  0  0  0  0  0  0  0  0  0
   25.0940   61.5050   -1.9160 H   0  0  0  0  0  0  0  0  0  0  0  0
   26.0880   63.5110   -1.6560 H   0  0  0  0  0  0  0  0  0  0  0  0
   26.3000   63.8090   -3.3860 H   0  0  0  0  0  0  0  0  0  0  0  0
   24.7160   65.4150   -3.2020 H   0  0  0  0  0  0  0  0  0  0  0  0
   24.3620   64.9530   -1.5320 H   0  0  0  0  0  0  0  0  0  0  0  0
   22.4040   64.8610   -3.0550 H   0  0  0  0  0  0  0  0  0  0  0  0
   22.7170   63.4390   -2.0500 H   0  0  0  0  0  0  0  0  0  0  0  0
   26.9650   60.9970   -3.1290 H   0  0  0  0  0  0  0  0  0  0  0  0
   25.6550   60.6700   -4.3940 H   0  0  0  0  0  0  0  0  0  0  0  0
   26.5650   62.2000   -4.4070 H   0  0  0  0  0  0  0  0  0  0  0  0
   22.8900   65.6830   -5.2430 H   0  0  0  0  0  0  0  0  0  0  0  0
   21.4610   65.3850   -6.2470 H   0  0  0  0  0  0  0  0  0  0  0  0
   23.8610   65.7240   -7.8010 H   0  0  0  0  0  0  0  0  0  0  0  0
   24.8370   67.5180   -7.0430 H   0  0  0  0  0  0  0  0  0  0  0  0
   24.0660   67.0560   -5.5020 H   0  0  0  0  0  0  0  0  0  0  0  0
   23.1850   69.2030   -7.4570 H   0  0  0  0  0  0  0  0  0  0  0  0
   21.0890   69.2330   -6.1210 H   0  0  0  0  0  0  0  0  0  0  0  0
   21.5800   67.7290   -5.2980 H   0  0  0  0  0  0  0  0  0  0  0  0
   20.2690   66.7840   -7.1570 H   0  0  0  0  0  0  0  0  0  0  0  0
   20.6120   68.2220   -8.1350 H   0  0  0  0  0  0  0  0  0  0  0  0
   22.7770   67.6070   -8.7090 H   0  0  0  0  0  0  0  0  0  0  0  0
   21.7740   66.1590   -8.8840 H   0  0  0  0  0  0  0  0  0  0  0  0
   24.6530   69.2020   -5.2080 H   0  0  0  0  0  0  0  0  0  0  0  0
   22.9620   69.2630   -4.4770 H   0  0  0  0  0  0  0  0  0  0  0  0
   23.5050   70.5090   -5.6190 H   0  0  0  0  0  0  0  0  0  0  0  0
  2  1  1  0  0  0  0
  2  3  1  0  0  0  0
  3 14  1  0  0  0  0
  4  3  2  0  0  0  0
  4 10  1  0  0  0  0
  5  4  1  0  0  0  0
  6  7  1  0  0  0  0
  6  5  2  0  0  0  0
  7  2  2  0  0  0  0
  8 32  1  0  0  0  0
  8 34  1  0  0  0  0
  8  7  1  0  0  0  0
  9  6  1  0  0  0  0
 10 12  1  0  0  0  0
 11 10  2  0  0  0  0
 12 23  1  1  0  0  0
 12 15  1  0  0  0  0
 13 12  1  0  0  0  0
 13 36  1  0  0  0  0
 14 13  1  0  0  0  0
 15 38  1  0  0  0  0
 15 16  1  0  0  0  0
 16 17  1  0  0  0  0
 16 21  1  0  0  0  0
 17 18  1  0  0  0  0
 17 40  1  0  0  0  0
 18 19  1  0  0  0  0
 18 42  1  1  0  0  0
 19 20  1  0  0  0  0
 19 43  1  0  0  0  0
 20 46  1  0  0  0  0
 21 20  1  0  0  0  0
 21 48  1  0  0  0  0
 22 49  1  0  0  0  0
 22 18  1  0  0  0  0
 23 53  1  0  0  0  0
 23 52  1  0  0  0  0
 24 25  1  0  0  0  0
 24 23  1  0  0  0  0
 25 26  1  0  0  0  0
 25 56  1  0  0  0  0
 26 57  1  6  0  0  0
 26 27  1  0  0  0  0
 26 30  1  0  0  0  0
 27 58  1  0  0  0  0
 27 59  1  0  0  0  0
 28 60  1  0  0  0  0
 28 27  1  0  0  0  0
 29 28  1  0  0  0  0
 29 24  1  0  0  0  0
 30 64  1  0  0  0  0
 30 65  1  0  0  0  0
 31  5  1  0  0  0  0
 33  8  1  0  0  0  0
 35 13  1  0  0  0  0
 37 15  1  0  0  0  0
 39 16  1  0  0  0  0
 41 17  1  0  0  0  0
 44 19  1  0  0  0  0
 45 20  1  0  0  0  0
 47 21  1  0  0  0  0
 50 22  1  0  0  0  0
 51 22  1  0  0  0  0
 54 24  1  0  0  0  0
 55 25  1  0  0  0  0
 61 28  1  0  0  0  0
 62 29  1  0  0  0  0
 63 29  1  0  0  0  0
 66 30  1  0  0  0  0
M  END
>  <Pose>
1

>  <Score>
-5.42

$$$$
