
 OpenBabel03202210193D

 55 58  0  0  1  0  0  0  0  0999 V2000
   17.9870   62.5920   -9.3620 Cl  0  0  0  0  0  0  0  0  0  0  0  0
   19.5970   63.1990   -9.7350 C   0  0  0  0  0  0  0  0  0  0  0  0
   20.6020   63.2140   -8.8050 C   0  0  0  0  0  0  0  0  0  0  0  0
   21.8430   63.7000   -9.1490 C   0  0  0  0  0  0  0  0  0  0  0  0
   22.0290   64.1580  -10.4280 C   0  0  0  0  0  0  0  0  0  0  0  0
   21.0020   64.1410  -11.3750 C   0  0  0  0  0  0  0  0  0  0  0  0
   19.7760   63.6570  -11.0220 C   0  0  0  0  0  0  0  0  0  0  0  0
   23.3580   64.6170  -10.6500 N   0  0  0  0  0  0  0  0  0  0  0  0
   24.0400   64.4350   -9.4400 C   0  0  0  0  0  0  0  0  0  0  0  0
   25.2710   64.7390   -9.3100 O   0  0  0  0  0  0  0  0  0  0  0  0
   23.1290   63.8720   -8.4330 C   0  0  2  0  0  0  0  0  0  0  0  0
   23.6790   62.6200   -7.9940 N   0  0  0  0  0  0  0  0  0  0  0  0
   24.1030   62.7500   -6.6350 C   0  0  2  0  0  0  0  0  0  0  0  0
   24.1010   64.2080   -6.3050 C   0  0  0  0  0  0  0  0  0  0  0  0
   23.0720   64.7490   -7.2580 C   0  0  2  0  0  0  0  0  0  0  0  0
   21.7380   64.9230   -6.6280 C   0  0  0  0  0  0  0  0  0  0  0  0
   21.1840   63.8760   -6.2170 O   0  0  0  0  0  0  0  0  0  0  0  0
   21.1020   66.1610   -6.4830 N   0  0  0  0  0  0  0  0  0  0  0  0
   21.5460   67.4260   -6.8700 C   0  0  0  0  0  0  0  0  0  0  0  0
   21.2560   67.8850   -8.1470 C   0  0  0  0  0  0  0  0  0  0  0  0
   21.6610   69.1250   -8.5970 C   0  0  0  0  0  0  0  0  0  0  0  0
   22.3800   69.9720   -7.7910 C   0  0  0  0  0  0  0  0  0  0  0  0
   22.6810   69.5480   -6.5290 C   0  0  0  0  0  0  0  0  0  0  0  0
   22.2650   68.2940   -6.0880 C   0  0  0  0  0  0  0  0  0  0  0  0
   23.4030   70.3720   -5.6850 O   0  0  0  0  0  0  0  0  0  0  0  0
   24.7280   70.7830   -5.9660 C   0  0  0  0  0  0  0  0  0  0  0  0
   20.5350   67.0880   -9.0190 O   0  0  0  0  0  0  0  0  0  0  0  0
   19.1500   67.1530   -9.1770 C   0  0  0  0  0  0  0  0  0  0  0  0
   25.4640   62.1140   -6.4060 C   0  0  0  0  0  0  0  0  0  0  0  0
   25.9440   62.3200   -5.0320 C   0  0  0  0  0  0  0  0  0  0  0  0
   26.0720   63.4680   -4.5780 O   0  0  0  0  0  0  0  0  0  0  0  0
   26.2590   61.2090   -4.2280 N   0  0  0  0  0  0  0  0  0  0  0  0
   20.4180   62.8510   -7.8250 H   0  0  0  0  0  0  0  0  0  0  0  0
   21.1690   64.5100  -12.3920 H   0  0  0  0  0  0  0  0  0  0  0  0
   18.9780   63.6460  -11.7650 H   0  0  0  0  0  0  0  0  0  0  0  0
   23.7550   65.0150  -11.5420 H   0  0  0  0  0  0  0  0  0  0  0  0
   23.0120   61.8370   -8.1600 H   0  0  0  0  0  0  0  0  0  0  0  0
   23.3940   62.2380   -5.9380 H   0  0  0  0  0  0  0  0  0  0  0  0
   25.0750   64.7000   -6.5570 H   0  0  0  0  0  0  0  0  0  0  0  0
   23.8300   64.4140   -5.2460 H   0  0  0  0  0  0  0  0  0  0  0  0
   23.4090   65.7830   -7.5950 H   0  0  0  0  0  0  0  0  0  0  0  0
   20.1440   66.1100   -6.0160 H   0  0  0  0  0  0  0  0  0  0  0  0
   21.4190   69.4620   -9.6100 H   0  0  0  0  0  0  0  0  0  0  0  0
   22.6970   70.9400   -8.1400 H   0  0  0  0  0  0  0  0  0  0  0  0
   22.5400   68.0440   -5.0970 H   0  0  0  0  0  0  0  0  0  0  0  0
   24.8310   71.1830   -6.9930 H   0  0  0  0  0  0  0  0  0  0  0  0
   25.3720   69.8920   -5.8220 H   0  0  0  0  0  0  0  0  0  0  0  0
   25.0760   71.5600   -5.2660 H   0  0  0  0  0  0  0  0  0  0  0  0
   18.9290   68.1260   -9.6960 H   0  0  0  0  0  0  0  0  0  0  0  0
   18.8260   66.3300   -9.8460 H   0  0  0  0  0  0  0  0  0  0  0  0
   18.5850   67.1750   -8.2340 H   0  0  0  0  0  0  0  0  0  0  0  0
   26.1890   62.4890   -7.1610 H   0  0  0  0  0  0  0  0  0  0  0  0
   25.3980   61.0180   -6.5700 H   0  0  0  0  0  0  0  0  0  0  0  0
   25.5340   60.4710   -4.1020 H   0  0  0  0  0  0  0  0  0  0  0  0
   27.1790   61.0690   -3.7430 H   0  0  0  0  0  0  0  0  0  0  0  0
  2  1  1  0  0  0  0
  2  3  1  0  0  0  0
  3 33  1  0  0  0  0
  4  3  2  0  0  0  0
  4 11  1  0  0  0  0
  5  4  1  0  0  0  0
  6  7  1  0  0  0  0
  6  5  2  0  0  0  0
  7  2  2  0  0  0  0
  8  5  1  0  0  0  0
  8  9  1  0  0  0  0
  9 10  2  0  0  0  0
 11  9  1  6  0  0  0
 11 12  1  0  0  0  0
 11 15  1  0  0  0  0
 12 13  1  0  0  0  0
 13 29  1  0  0  0  0
 13 14  1  0  0  0  0
 13 38  1  1  0  0  0
 14 40  1  0  0  0  0
 15 41  1  6  0  0  0
 15 16  1  0  0  0  0
 15 14  1  0  0  0  0
 16 18  1  0  0  0  0
 16 17  2  0  0  0  0
 18 42  1  0  0  0  0
 19 18  1  0  0  0  0
 19 24  1  0  0  0  0
 20 19  2  0  0  0  0
 21 20  1  0  0  0  0
 21 22  2  0  0  0  0
 22 23  1  0  0  0  0
 23 24  2  0  0  0  0
 23 25  1  0  0  0  0
 24 45  1  0  0  0  0
 26 47  1  0  0  0  0
 26 25  1  0  0  0  0
 26 48  1  0  0  0  0
 27 20  1  0  0  0  0
 28 27  1  0  0  0  0
 28 51  1  0  0  0  0
 29 30  1  0  0  0  0
 30 31  2  0  0  0  0
 30 32  1  0  0  0  0
 32 54  1  0  0  0  0
 32 55  1  0  0  0  0
 34  6  1  0  0  0  0
 35  7  1  0  0  0  0
 36  8  1  0  0  0  0
 37 12  1  0  0  0  0
 39 14  1  0  0  0  0
 43 21  1  0  0  0  0
 44 22  1  0  0  0  0
 46 26  1  0  0  0  0
 49 28  1  0  0  0  0
 50 28  1  0  0  0  0
 52 29  1  0  0  0  0
 53 29  1  0  0  0  0
M  END
>  <Pose>
1

>  <Score>
-6.09

$$$$
