
 OpenBabel03202210193D

 32 35  0  0  0  0  0  0  0  0999 V2000
   24.5380   63.2520   -4.9720 B   0  0  0  0  0  0  0  0  0  0  0  0
   23.7610   63.7110   -6.6510 C   0  0  0  0  0  0  0  0  0  0  0  0
   23.5580   62.8890   -7.7570 C   0  0  0  0  0  0  0  0  0  0  0  0
   22.9790   63.6220   -8.7300 N   0  0  0  0  0  0  0  0  0  0  0  0
   22.8190   64.8630   -8.2690 N   0  0  0  0  0  0  0  0  0  0  0  0
   23.2830   64.9540   -7.0070 C   0  0  0  0  0  0  0  0  0  0  0  0
   23.3100   66.1310   -6.1080 C   0  0  0  0  0  0  0  0  0  0  0  0
   22.5920   63.1620  -10.0540 C   0  0  0  0  0  0  0  0  0  0  0  0
   21.1130   63.0540  -10.1880 C   0  0  0  0  0  0  0  0  0  0  0  0
   20.2310   64.0040  -10.5400 N   0  0  0  0  0  0  0  0  0  0  0  0
   18.9820   63.5100  -10.5470 N   0  0  0  0  0  0  0  0  0  0  0  0
   19.0690   62.2160  -10.1900 C   0  0  0  0  0  0  0  0  0  0  0  0
   20.3710   61.9470   -9.9740 N   0  0  0  0  0  0  0  0  0  0  0  0
   17.8980   61.4870  -10.1250 C   0  0  0  0  0  0  0  0  0  0  0  0
   16.6660   62.0450  -10.4110 C   0  0  0  0  0  0  0  0  0  0  0  0
   15.6900   61.1220  -10.2730 N   0  0  0  0  0  0  0  0  0  0  0  0
   16.2970   60.0080   -9.9070 N   0  0  0  0  0  0  0  0  0  0  0  0
   17.6270   60.1770   -9.8050 C   0  0  0  0  0  0  0  0  0  0  0  0
   14.2620   61.3430  -10.4910 C   0  0  0  0  0  0  0  0  0  0  0  0
   16.6540   63.3430  -10.7600 N   0  0  0  0  0  0  0  0  0  0  0  0
   17.7870   64.0620  -10.8270 C   0  0  0  0  0  0  0  0  0  0  0  0
   23.8340   61.8400   -7.7810 H   0  0  0  0  0  0  0  0  0  0  0  0
   24.2160   66.7590   -6.2440 H   0  0  0  0  0  0  0  0  0  0  0  0
   23.2530   65.8520   -5.0440 H   0  0  0  0  0  0  0  0  0  0  0  0
   22.4280   66.7640   -6.4030 H   0  0  0  0  0  0  0  0  0  0  0  0
   23.0900   62.1850  -10.3030 H   0  0  0  0  0  0  0  0  0  0  0  0
   23.0140   63.8800  -10.8160 H   0  0  0  0  0  0  0  0  0  0  0  0
   18.3910   59.4710   -9.5310 H   0  0  0  0  0  0  0  0  0  0  0  0
   13.7450   60.3920  -10.7400 H   0  0  0  0  0  0  0  0  0  0  0  0
   14.1090   61.9940  -11.4000 H   0  0  0  0  0  0  0  0  0  0  0  0
   13.7630   61.7780   -9.6190 H   0  0  0  0  0  0  0  0  0  0  0  0
   17.7980   65.1130  -11.1060 H   0  0  0  0  0  0  0  0  0  0  0  0
  2  1  1  0  0  0  0
  3  2  2  0  0  0  0
  4  5  1  0  0  0  0
  4  3  1  0  0  0  0
  5  6  2  0  0  0  0
  6  2  1  0  0  0  0
  6  7  1  0  0  0  0
  7 24  1  0  0  0  0
  8  4  1  0  0  0  0
  9  8  1  0  0  0  0
  9 13  1  0  0  0  0
 10  9  2  0  0  0  0
 11 10  1  0  0  0  0
 11 12  1  0  0  0  0
 12 14  1  0  0  0  0
 12 13  2  0  0  0  0
 14 18  1  0  0  0  0
 15 16  1  0  0  0  0
 15 14  2  0  0  0  0
 16 17  1  0  0  0  0
 17 18  2  0  0  0  0
 18 28  1  0  0  0  0
 19 16  1  0  0  0  0
 19 31  1  0  0  0  0
 20 15  1  0  0  0  0
 21 20  2  0  0  0  0
 21 11  1  0  0  0  0
 22  3  1  0  0  0  0
 23  7  1  0  0  0  0
 25  7  1  0  0  0  0
 26  8  1  0  0  0  0
 27  8  1  0  0  0  0
 29 19  1  0  0  0  0
 30 19  1  0  0  0  0
 32 21  1  0  0  0  0
M  END
>  <Pose>
1

>  <Score>
-7.51

$$$$
