
 OpenBabel03202210193D

 56 59  0  0  1  0  0  0  0  0999 V2000
   18.9150   62.9480   -8.8710 B   0  0  0  0  0  0  0  0  0  0  0  0
   20.6520   63.4860   -9.4070 C   0  0  0  0  0  0  0  0  0  0  0  0
   21.4810   64.1540   -8.5000 C   0  0  0  0  0  0  0  0  0  0  0  0
   22.7490   64.5480   -8.8500 C   0  0  0  0  0  0  0  0  0  0  0  0
   23.1740   64.2640  -10.1250 C   0  0  0  0  0  0  0  0  0  0  0  0
   22.3690   63.6000  -11.0500 C   0  0  0  0  0  0  0  0  0  0  0  0
   21.0820   63.2020  -10.6780 C   0  0  0  0  0  0  0  0  0  0  0  0
   20.2140   62.4880  -11.6550 C   0  0  0  0  0  0  0  0  0  0  0  0
   22.8680   63.3340  -12.4250 C   0  0  0  0  0  0  0  0  0  0  0  0
   23.7130   65.2290   -7.9380 C   0  0  2  0  0  0  0  0  0  0  0  0
   23.1270   65.6720   -6.6330 C   0  0  2  0  0  0  0  0  0  0  0  0
   21.6190   65.7630   -6.7800 C   0  0  0  0  0  0  0  0  0  0  0  0
   21.1010   64.4760   -7.2040 O   0  0  0  0  0  0  0  0  0  0  0  0
   23.6280   67.0090   -6.3950 N   0  0  0  0  0  0  0  0  0  0  0  0
   24.0760   67.2240   -5.0590 C   0  0  0  0  0  0  0  0  0  0  0  0
   24.2290   68.6620   -4.6510 C   0  0  0  0  0  0  0  0  0  0  0  0
   23.2890   69.5170   -5.1580 O   0  0  0  0  0  0  0  0  0  0  0  0
   23.3300   69.4220   -6.5550 C   0  0  0  0  0  0  0  0  0  0  0  0
   22.7220   68.0240   -6.8430 C   0  0  0  0  0  0  0  0  0  0  0  0
   23.3350   64.7620   -5.4830 C   0  0  0  0  0  0  0  0  0  0  0  0
   23.4180   63.3790   -5.5900 N   0  0  0  0  0  0  0  0  0  0  0  0
   24.7920   62.9270   -5.1800 C   0  0  0  0  0  0  0  0  0  0  0  0
   25.1300   63.4050   -3.8170 C   0  0  0  0  0  0  0  0  0  0  0  0
   24.0650   63.5250   -2.9650 O   0  0  0  0  0  0  0  0  0  0  0  0
   22.9820   62.7440   -3.2450 C   0  0  0  0  0  0  0  0  0  0  0  0
   22.6380   62.5530   -4.6870 C   0  0  0  0  0  0  0  0  0  0  0  0
   24.2330   66.3550   -8.6490 O   0  0  0  0  0  0  0  0  0  0  0  0
   24.1710   64.5390  -10.5060 H   0  0  0  0  0  0  0  0  0  0  0  0
   19.9560   63.0670  -12.5450 H   0  0  0  0  0  0  0  0  0  0  0  0
   19.2550   62.2270  -11.1480 H   0  0  0  0  0  0  0  0  0  0  0  0
   20.7830   61.5480  -11.9160 H   0  0  0  0  0  0  0  0  0  0  0  0
   22.8800   64.3230  -12.9670 H   0  0  0  0  0  0  0  0  0  0  0  0
   23.8840   62.9220  -12.4610 H   0  0  0  0  0  0  0  0  0  0  0  0
   22.1230   62.6890  -12.9440 H   0  0  0  0  0  0  0  0  0  0  0  0
   24.5610   64.5480   -7.8730 H   0  0  0  0  0  0  0  0  0  0  0  0
   21.2580   66.5010   -7.4810 H   0  0  0  0  0  0  0  0  0  0  0  0
   21.2100   65.8830   -5.7450 H   0  0  0  0  0  0  0  0  0  0  0  0
   25.0790   66.7730   -4.9440 H   0  0  0  0  0  0  0  0  0  0  0  0
   23.3010   66.8050   -4.3890 H   0  0  0  0  0  0  0  0  0  0  0  0
   25.2560   69.0500   -4.8080 H   0  0  0  0  0  0  0  0  0  0  0  0
   24.1030   68.6990   -3.5330 H   0  0  0  0  0  0  0  0  0  0  0  0
   22.6330   70.1540   -6.9700 H   0  0  0  0  0  0  0  0  0  0  0  0
   24.3640   69.4660   -6.9380 H   0  0  0  0  0  0  0  0  0  0  0  0
   21.7980   68.0360   -6.2130 H   0  0  0  0  0  0  0  0  0  0  0  0
   22.5430   68.0220   -7.9170 H   0  0  0  0  0  0  0  0  0  0  0  0
   22.3980   64.9720   -4.8300 H   0  0  0  0  0  0  0  0  0  0  0  0
   24.1380   65.1660   -4.8120 H   0  0  0  0  0  0  0  0  0  0  0  0
   25.5170   63.2280   -5.9590 H   0  0  0  0  0  0  0  0  0  0  0  0
   24.7670   61.8220   -5.1950 H   0  0  0  0  0  0  0  0  0  0  0  0
   25.9320   62.7670   -3.3410 H   0  0  0  0  0  0  0  0  0  0  0  0
   25.5910   64.4190   -3.9250 H   0  0  0  0  0  0  0  0  0  0  0  0
   22.1050   63.1990   -2.7470 H   0  0  0  0  0  0  0  0  0  0  0  0
   23.1620   61.7640   -2.7180 H   0  0  0  0  0  0  0  0  0  0  0  0
   23.0430   61.4950   -4.9210 H   0  0  0  0  0  0  0  0  0  0  0  0
   21.5890   62.4390   -4.9020 H   0  0  0  0  0  0  0  0  0  0  0  0
   23.8880   67.1620   -8.1940 H   0  0  0  0  0  0  0  0  0  0  0  0
  2  1  1  0  0  0  0
  2  3  1  0  0  0  0
  3 13  1  0  0  0  0
  4  3  2  0  0  0  0
  4 10  1  0  0  0  0
  5  4  1  0  0  0  0
  6  7  1  0  0  0  0
  6  5  2  0  0  0  0
  7  2  2  0  0  0  0
  8 30  1  0  0  0  0
  8  7  1  0  0  0  0
  9  6  1  0  0  0  0
 10 35  1  1  0  0  0
 10 11  1  0  0  0  0
 11 14  1  0  0  0  0
 11 20  1  1  0  0  0
 12 11  1  0  0  0  0
 12 37  1  0  0  0  0
 13 12  1  0  0  0  0
 14 15  1  0  0  0  0
 15 38  1  0  0  0  0
 15 16  1  0  0  0  0
 15 39  1  0  0  0  0
 16 41  1  0  0  0  0
 17 16  1  0  0  0  0
 18 17  1  0  0  0  0
 19 18  1  0  0  0  0
 19 14  1  0  0  0  0
 19 44  1  0  0  0  0
 20 46  1  0  0  0  0
 20 47  1  0  0  0  0
 21 20  1  0  0  0  0
 21 22  1  0  0  0  0
 21 26  1  0  0  0  0
 22 23  1  0  0  0  0
 23 50  1  0  0  0  0
 23 24  1  0  0  0  0
 25 24  1  0  0  0  0
 25 52  1  0  0  0  0
 25 53  1  0  0  0  0
 26 25  1  0  0  0  0
 27 56  1  0  0  0  0
 27 10  1  0  0  0  0
 28  5  1  0  0  0  0
 29  8  1  0  0  0  0
 31  8  1  0  0  0  0
 32  9  1  0  0  0  0
 33  9  1  0  0  0  0
 34  9  1  0  0  0  0
 36 12  1  0  0  0  0
 40 16  1  0  0  0  0
 42 18  1  0  0  0  0
 43 18  1  0  0  0  0
 45 19  1  0  0  0  0
 48 22  1  0  0  0  0
 49 22  1  0  0  0  0
 51 23  1  0  0  0  0
 54 26  1  0  0  0  0
 55 26  1  0  0  0  0
M  END
>  <Pose>
1

>  <Score>
-4.89

$$$$
