
 OpenBabel03202210193D

 45 48  0  0  0  0  0  0  0  0999 V2000
   19.4570   63.2770  -11.0300 B   0  0  0  0  0  0  0  0  0  0  0  0
   21.2930   63.3740  -10.5040 C   0  0  0  0  0  0  0  0  0  0  0  0
   22.3280   63.4250  -11.4040 C   0  0  0  0  0  0  0  0  0  0  0  0
   23.4860   63.4870  -10.6730 C   0  0  0  0  0  0  0  0  0  0  0  0
   23.1760   63.4740   -9.3430 N   0  0  0  0  0  0  0  0  0  0  0  0
   21.8270   63.4040   -9.2460 C   0  0  0  0  0  0  0  0  0  0  0  0
   21.0660   63.3640   -7.9770 C   0  0  0  0  0  0  0  0  0  0  0  0
   24.1570   63.5060   -8.3150 C   0  0  0  0  0  0  0  0  0  0  0  0
   23.8260   64.0570   -7.0160 C   0  0  0  0  0  0  0  0  0  0  0  0
   24.0010   65.3730   -6.9800 O   0  0  0  0  0  0  0  0  0  0  0  0
   23.3770   63.5060   -5.8260 N   0  0  0  0  0  0  0  0  0  0  0  0
   22.6910   62.2790   -5.6320 C   0  0  0  0  0  0  0  0  0  0  0  0
   23.6190   61.2660   -4.9600 C   0  0  0  0  0  0  0  0  0  0  0  0
   24.5780   61.9920   -4.0310 C   0  0  0  0  0  0  0  0  0  0  0  0
   24.7930   61.0930   -2.9110 N   0  0  0  0  0  0  0  0  0  0  0  0
   25.9160   60.2600   -3.2680 C   0  0  0  0  0  0  0  0  0  0  0  0
   26.2220   59.1650   -2.7350 O   0  0  0  0  0  0  0  0  0  0  0  0
   26.6090   60.9210   -4.3430 N   0  0  0  0  0  0  0  0  0  0  0  0
   25.9200   62.1310   -4.6330 C   0  0  0  0  0  0  0  0  0  0  0  0
   26.3950   63.0970   -5.2740 O   0  0  0  0  0  0  0  0  0  0  0  0
   24.0140   63.2750   -3.5080 C   0  0  0  0  0  0  0  0  0  0  0  0
   23.6290   64.2530   -4.5690 C   0  0  0  0  0  0  0  0  0  0  0  0
   24.7120   63.5500  -11.3370 C   0  0  0  0  0  0  0  0  0  0  0  0
   24.7650   63.5510  -12.7240 C   0  0  0  0  0  0  0  0  0  0  0  0
   23.5990   63.4890  -13.4360 C   0  0  0  0  0  0  0  0  0  0  0  0
   22.3860   63.4260  -12.7900 C   0  0  0  0  0  0  0  0  0  0  0  0
   20.1260   63.9580   -8.0400 H   0  0  0  0  0  0  0  0  0  0  0  0
   20.7680   62.3050   -7.7890 H   0  0  0  0  0  0  0  0  0  0  0  0
   21.6730   63.7410   -7.1180 H   0  0  0  0  0  0  0  0  0  0  0  0
   25.0700   64.0530   -8.7320 H   0  0  0  0  0  0  0  0  0  0  0  0
   24.5680   62.4500   -8.2140 H   0  0  0  0  0  0  0  0  0  0  0  0
   22.1500   61.8380   -6.4490 H   0  0  0  0  0  0  0  0  0  0  0  0
   21.8820   62.4890   -4.8490 H   0  0  0  0  0  0  0  0  0  0  0  0
   22.9610   60.5610   -4.4120 H   0  0  0  0  0  0  0  0  0  0  0  0
   24.1410   60.7040   -5.7350 H   0  0  0  0  0  0  0  0  0  0  0  0
   24.2530   61.0460   -2.0210 H   0  0  0  0  0  0  0  0  0  0  0  0
   27.4560   60.5730   -4.8160 H   0  0  0  0  0  0  0  0  0  0  0  0
   23.1770   63.0110   -2.8180 H   0  0  0  0  0  0  0  0  0  0  0  0
   24.8060   63.7340   -2.8600 H   0  0  0  0  0  0  0  0  0  0  0  0
   24.3030   65.0930   -4.7180 H   0  0  0  0  0  0  0  0  0  0  0  0
   22.6120   64.6580   -4.2880 H   0  0  0  0  0  0  0  0  0  0  0  0
   25.6130   63.5970  -10.7370 H   0  0  0  0  0  0  0  0  0  0  0  0
   25.7410   63.6000  -13.2040 H   0  0  0  0  0  0  0  0  0  0  0  0
   23.6420   63.4890  -14.5050 H   0  0  0  0  0  0  0  0  0  0  0  0
   21.4520   63.3770  -13.3240 H   0  0  0  0  0  0  0  0  0  0  0  0
  1  2  1  0  0  0  0
  2  6  2  0  0  0  0
  3  4  1  0  0  0  0
  3  2  1  0  0  0  0
  4  5  1  0  0  0  0
  5  6  1  0  0  0  0
  5  8  1  0  0  0  0
  6  7  1  0  0  0  0
  7 28  1  0  0  0  0
  7 29  1  0  0  0  0
  8 31  1  0  0  0  0
  8  9  1  0  0  0  0
  9 10  2  0  0  0  0
  9 11  1  0  0  0  0
 11 12  1  0  0  0  0
 11 22  1  0  0  0  0
 12 13  1  0  0  0  0
 12 33  1  0  0  0  0
 13 34  1  0  0  0  0
 13 14  1  0  0  0  0
 14 21  1  0  0  0  0
 14 15  1  0  0  0  0
 15 36  1  0  0  0  0
 16 15  1  0  0  0  0
 16 17  2  0  0  0  0
 18 16  1  0  0  0  0
 19 18  1  0  0  0  0
 19 14  1  0  0  0  0
 20 19  2  0  0  0  0
 21 39  1  0  0  0  0
 21 38  1  0  0  0  0
 22 41  1  0  0  0  0
 22 21  1  0  0  0  0
 23 42  1  0  0  0  0
 23  4  2  0  0  0  0
 24 23  1  0  0  0  0
 25 26  1  0  0  0  0
 25 24  2  0  0  0  0
 26  3  2  0  0  0  0
 27  7  1  0  0  0  0
 30  8  1  0  0  0  0
 32 12  1  0  0  0  0
 35 13  1  0  0  0  0
 37 18  1  0  0  0  0
 40 22  1  0  0  0  0
 43 24  1  0  0  0  0
 44 25  1  0  0  0  0
 45 26  1  0  0  0  0
M  END
>  <Pose>
1

>  <Score>
-6.98

$$$$
