
 OpenBabel03202210193D

 47 50  0  0  0  0  0  0  0  0999 V2000
   18.8650   66.2250   -9.1150 B   0  0  0  0  0  0  0  0  0  0  0  0
   18.2820   64.4510   -9.5270 C   0  0  0  0  0  0  0  0  0  0  0  0
   18.9990   63.3300   -9.4680 N   0  0  0  0  0  0  0  0  0  0  0  0
   18.1440   62.3240   -9.8010 C   0  0  0  0  0  0  0  0  0  0  0  0
   16.9140   62.8890  -10.0580 C   0  0  0  0  0  0  0  0  0  0  0  0
   17.0020   64.2010   -9.8890 N   0  0  0  0  0  0  0  0  0  0  0  0
   15.8760   62.0800  -10.4120 N   0  0  0  0  0  0  0  0  0  0  0  0
   16.0820   60.7670  -10.4970 C   0  0  0  0  0  0  0  0  0  0  0  0
   15.1000   60.0410  -10.8280 O   0  0  0  0  0  0  0  0  0  0  0  0
   17.2760   60.2060  -10.2480 N   0  0  0  0  0  0  0  0  0  0  0  0
   18.3530   60.9620   -9.8900 C   0  0  0  0  0  0  0  0  0  0  0  0
   19.4660   60.4270   -9.6560 O   0  0  0  0  0  0  0  0  0  0  0  0
   14.5680   62.6350  -10.6910 C   0  0  0  0  0  0  0  0  0  0  0  0
   20.3720   63.1060   -9.1650 C   0  0  0  0  0  0  0  0  0  0  0  0
   21.3900   63.6530  -10.0770 C   0  0  0  0  0  0  0  0  0  0  0  0
   22.6660   63.1960  -10.1010 O   0  0  0  0  0  0  0  0  0  0  0  0
   23.0740   62.7640   -8.8490 C   0  0  0  0  0  0  0  0  0  0  0  0
   24.0830   63.7290   -8.3020 C   0  0  0  0  0  0  0  0  0  0  0  0
   24.0730   63.7650   -6.8740 N   0  0  0  0  0  0  0  0  0  0  0  0
   24.6940   62.8970   -6.0630 C   0  0  0  0  0  0  0  0  0  0  0  0
   24.4360   63.2700   -4.7800 C   0  0  0  0  0  0  0  0  0  0  0  0
   23.6650   64.3530   -4.8410 N   0  0  0  0  0  0  0  0  0  0  0  0
   23.4200   64.6900   -6.1180 C   0  0  0  0  0  0  0  0  0  0  0  0
   22.3930   66.1290   -6.8130 B   0  0  0  0  0  0  0  0  0  0  0  0
   24.9470   62.5640   -3.7580 N   0  0  0  0  0  0  0  0  0  0  0  0
   25.7050   61.5010   -4.0190 C   0  0  0  0  0  0  0  0  0  0  0  0
   26.1770   60.8480   -3.0510 O   0  0  0  0  0  0  0  0  0  0  0  0
   25.9680   61.1210   -5.2630 N   0  0  0  0  0  0  0  0  0  0  0  0
   25.4830   61.7920   -6.3110 C   0  0  0  0  0  0  0  0  0  0  0  0
   25.7590   61.3950   -7.4880 O   0  0  0  0  0  0  0  0  0  0  0  0
   24.6830   62.9450   -2.3860 C   0  0  0  0  0  0  0  0  0  0  0  0
   17.4220   59.1770  -10.3180 H   0  0  0  0  0  0  0  0  0  0  0  0
   14.3590   63.4860  -10.0050 H   0  0  0  0  0  0  0  0  0  0  0  0
   13.7760   61.8910  -10.5500 H   0  0  0  0  0  0  0  0  0  0  0  0
   14.5080   62.9840  -11.7530 H   0  0  0  0  0  0  0  0  0  0  0  0
   20.5390   63.5940   -8.1530 H   0  0  0  0  0  0  0  0  0  0  0  0
   20.5700   62.0140   -8.9130 H   0  0  0  0  0  0  0  0  0  0  0  0
   21.0300   63.5590  -11.1710 H   0  0  0  0  0  0  0  0  0  0  0  0
   21.3890   64.8060  -10.0010 H   0  0  0  0  0  0  0  0  0  0  0  0
   23.5970   61.7600   -8.9940 H   0  0  0  0  0  0  0  0  0  0  0  0
   22.2130   62.5630   -8.2330 H   0  0  0  0  0  0  0  0  0  0  0  0
   25.0830   63.4150   -8.7130 H   0  0  0  0  0  0  0  0  0  0  0  0
   23.8360   64.7230   -8.7470 H   0  0  0  0  0  0  0  0  0  0  0  0
   26.5650   60.2850   -5.4480 H   0  0  0  0  0  0  0  0  0  0  0  0
   25.4980   63.6030   -2.0470 H   0  0  0  0  0  0  0  0  0  0  0  0
   23.7090   63.4600   -2.3170 H   0  0  0  0  0  0  0  0  0  0  0  0
   24.6350   61.9850   -1.8030 H   0  0  0  0  0  0  0  0  0  0  0  0
  2  3  1  0  0  0  0
  2  1  1  0  0  0  0
  3 14  1  0  0  0  0
  4  3  1  0  0  0  0
  5  6  1  0  0  0  0
  5  4  2  0  0  0  0
  6  2  2  0  0  0  0
  7  5  1  0  0  0  0
  8  7  1  0  0  0  0
  8 10  1  0  0  0  0
  9  8  2  0  0  0  0
 10 11  1  0  0  0  0
 11  4  1  0  0  0  0
 11 12  2  0  0  0  0
 13 34  1  0  0  0  0
 13  7  1  0  0  0  0
 13 33  1  0  0  0  0
 14 37  1  0  0  0  0
 14 36  1  0  0  0  0
 15 39  1  0  0  0  0
 15 14  1  0  0  0  0
 16 15  1  0  0  0  0
 16 17  1  0  0  0  0
 17 18  1  0  0  0  0
 17 41  1  0  0  0  0
 18 19  1  0  0  0  0
 19 23  1  0  0  0  0
 19 20  1  0  0  0  0
 20 21  2  0  0  0  0
 21 25  1  0  0  0  0
 22 21  1  0  0  0  0
 23 22  2  0  0  0  0
 24 23  1  0  0  0  0
 25 31  1  0  0  0  0
 26 25  1  0  0  0  0
 26 27  2  0  0  0  0
 28 26  1  0  0  0  0
 29 20  1  0  0  0  0
 29 28  1  0  0  0  0
 30 29  2  0  0  0  0
 31 46  1  0  0  0  0
 31 45  1  0  0  0  0
 31 47  1  0  0  0  0
 32 10  1  0  0  0  0
 35 13  1  0  0  0  0
 38 15  1  0  0  0  0
 40 17  1  0  0  0  0
 42 18  1  0  0  0  0
 43 18  1  0  0  0  0
 44 28  1  0  0  0  0
M  END
>  <Pose>
1

>  <Score>
-7.27

$$$$
