
 OpenBabel03202210193D

 51 54  0  0  0  0  0  0  0  0999 V2000
   18.0150   61.0870   -9.8750 Cl  0  0  0  0  0  0  0  0  0  0  0  0
   16.8820   62.3410  -10.3260 C   0  0  0  0  0  0  0  0  0  0  0  0
   17.3050   63.6340  -10.4210 C   0  0  0  0  0  0  0  0  0  0  0  0
   16.3710   64.5800  -10.7810 C   0  0  0  0  0  0  0  0  0  0  0  0
   15.0630   64.2570  -11.0370 C   0  0  0  0  0  0  0  0  0  0  0  0
   14.6470   62.9470  -10.9380 C   0  0  0  0  0  0  0  0  0  0  0  0
   15.5750   61.9950  -10.5790 C   0  0  0  0  0  0  0  0  0  0  0  0
   18.6910   64.0660  -10.1640 C   0  0  0  0  0  0  0  0  0  0  0  0
   19.6580   63.4830  -11.0270 N   0  0  0  0  0  0  0  0  0  0  0  0
   19.4190   62.6850  -12.0590 N   0  0  0  0  0  0  0  0  0  0  0  0
   20.5420   62.3120  -12.6500 C   0  0  0  0  0  0  0  0  0  0  0  0
   21.5800   62.9250  -11.9330 C   0  0  0  0  0  0  0  0  0  0  0  0
   21.0100   63.6560  -10.9160 C   0  0  0  0  0  0  0  0  0  0  0  0
   21.6730   64.4640  -10.0000 N   0  0  0  0  0  0  0  0  0  0  0  0
   21.7220   64.6440   -8.6540 C   0  0  0  0  0  0  0  0  0  0  0  0
   21.3830   65.9510   -8.3960 O   0  0  0  0  0  0  0  0  0  0  0  0
   21.9990   63.9490   -7.4080 C   0  0  0  0  0  0  0  0  0  0  0  0
   23.1000   64.1540   -6.5690 N   0  0  0  0  0  0  0  0  0  0  0  0
   23.5790   63.1320   -5.6000 C   0  0  0  0  0  0  0  0  0  0  0  0
   24.5200   63.8870   -4.6850 C   0  0  0  0  0  0  0  0  0  0  0  0
   25.6980   64.3640   -5.4920 C   0  0  0  0  0  0  0  0  0  0  0  0
   25.2430   65.4380   -6.4570 C   0  0  0  0  0  0  0  0  0  0  0  0
   23.7550   65.4310   -6.5610 C   0  0  0  0  0  0  0  0  0  0  0  0
   23.0740   66.5790   -6.5430 C   0  0  0  0  0  0  0  0  0  0  0  0
   23.7490   67.8480   -6.5470 N   0  0  0  0  0  0  0  0  0  0  0  0
   22.7980   68.8820   -6.4600 N   0  0  0  0  0  0  0  0  0  0  0  0
   21.5190   68.2930   -6.4000 C   0  0  0  0  0  0  0  0  0  0  0  0
   20.3940   68.8370   -6.3170 O   0  0  0  0  0  0  0  0  0  0  0  0
   21.7160   66.8680   -6.4520 N   0  0  0  0  0  0  0  0  0  0  0  0
   16.6630   65.6140  -10.8670 H   0  0  0  0  0  0  0  0  0  0  0  0
   14.3510   65.0180  -11.3160 H   0  0  0  0  0  0  0  0  0  0  0  0
   13.6130   62.6960  -11.1410 H   0  0  0  0  0  0  0  0  0  0  0  0
   15.2480   60.9730  -10.5020 H   0  0  0  0  0  0  0  0  0  0  0  0
   18.9200   63.9670   -9.0720 H   0  0  0  0  0  0  0  0  0  0  0  0
   18.6920   65.1860  -10.3280 H   0  0  0  0  0  0  0  0  0  0  0  0
   20.7080   61.6700  -13.5120 H   0  0  0  0  0  0  0  0  0  0  0  0
   22.6150   62.8190  -12.1830 H   0  0  0  0  0  0  0  0  0  0  0  0
   22.4360   65.0920  -10.5350 H   0  0  0  0  0  0  0  0  0  0  0  0
   21.0280   64.2080   -6.8060 H   0  0  0  0  0  0  0  0  0  0  0  0
   21.8970   62.8000   -7.5840 H   0  0  0  0  0  0  0  0  0  0  0  0
   22.7260   62.8440   -4.9410 H   0  0  0  0  0  0  0  0  0  0  0  0
   24.1050   62.3110   -6.0370 H   0  0  0  0  0  0  0  0  0  0  0  0
   24.8880   63.1900   -3.8760 H   0  0  0  0  0  0  0  0  0  0  0  0
   24.0190   64.7430   -4.1890 H   0  0  0  0  0  0  0  0  0  0  0  0
   26.4870   64.7760   -4.8140 H   0  0  0  0  0  0  0  0  0  0  0  0
   26.1290   63.5000   -6.0210 H   0  0  0  0  0  0  0  0  0  0  0  0
   25.6440   66.4340   -6.1560 H   0  0  0  0  0  0  0  0  0  0  0  0
   25.6650   65.2350   -7.4450 H   0  0  0  0  0  0  0  0  0  0  0  0
   24.7570   68.0910   -6.6060 H   0  0  0  0  0  0  0  0  0  0  0  0
   22.9720   69.9170   -6.4420 H   0  0  0  0  0  0  0  0  0  0  0  0
   20.9500   66.1780   -6.4010 H   0  0  0  0  0  0  0  0  0  0  0  0
  2  1  1  0  0  0  0
  3  2  1  0  0  0  0
  3  8  1  0  0  0  0
  4  3  2  0  0  0  0
  5  6  2  0  0  0  0
  5  4  1  0  0  0  0
  6  7  1  0  0  0  0
  7 33  1  0  0  0  0
  7  2  2  0  0  0  0
  8 34  1  0  0  0  0
  9 13  1  0  0  0  0
  9  8  1  0  0  0  0
 10  9  1  0  0  0  0
 11 10  2  0  0  0  0
 11 12  1  0  0  0  0
 12 13  2  0  0  0  0
 13 14  1  0  0  0  0
 14 15  1  0  0  0  0
 15 16  2  0  0  0  0
 15 17  1  0  0  0  0
 17 39  1  0  0  0  0
 17 18  1  0  0  0  0
 18 23  1  0  0  0  0
 18 19  1  0  0  0  0
 19 41  1  0  0  0  0
 19 20  1  0  0  0  0
 20 44  1  0  0  0  0
 20 43  1  0  0  0  0
 21 45  1  0  0  0  0
 21 20  1  0  0  0  0
 22 47  1  0  0  0  0
 22 21  1  0  0  0  0
 23 24  2  0  0  0  0
 23 22  1  0  0  0  0
 24 29  1  0  0  0  0
 25 24  1  0  0  0  0
 25 26  1  0  0  0  0
 26 50  1  0  0  0  0
 26 27  1  0  0  0  0
 27 28  2  0  0  0  0
 29 51  1  0  0  0  0
 29 27  1  0  0  0  0
 30  4  1  0  0  0  0
 31  5  1  0  0  0  0
 32  6  1  0  0  0  0
 35  8  1  0  0  0  0
 36 11  1  0  0  0  0
 37 12  1  0  0  0  0
 38 14  1  0  0  0  0
 40 17  1  0  0  0  0
 42 19  1  0  0  0  0
 46 21  1  0  0  0  0
 48 22  1  0  0  0  0
 49 25  1  0  0  0  0
M  END
>  <Pose>
1

>  <Score>
-8.05

$$$$
