
 OpenBabel03202210193D

 50 53  0  0  0  0  0  0  0  0999 V2000
   14.2250   64.4690  -12.2210 B   0  0  0  0  0  0  0  0  0  0  0  0
   15.0850   62.9900  -11.4070 C   0  0  0  0  0  0  0  0  0  0  0  0
   14.5050   61.7560  -11.4480 C   0  0  0  0  0  0  0  0  0  0  0  0
   15.1610   60.6890  -10.8400 C   0  0  0  0  0  0  0  0  0  0  0  0
   16.3820   60.9020  -10.2080 C   0  0  0  0  0  0  0  0  0  0  0  0
   16.9710   62.1380  -10.1620 C   0  0  0  0  0  0  0  0  0  0  0  0
   16.3100   63.1840  -10.7680 C   0  0  0  0  0  0  0  0  0  0  0  0
   16.9150   64.4300  -10.7150 O   0  0  0  0  0  0  0  0  0  0  0  0
   18.2480   62.3400   -9.4960 C   0  0  0  0  0  0  0  0  0  0  0  0
   19.3120   61.6780   -9.7810 N   0  0  0  0  0  0  0  0  0  0  0  0
   20.5240   61.9560   -9.0630 N   0  0  0  0  0  0  0  0  0  0  0  0
   20.3990   62.3390   -7.7340 C   0  0  0  0  0  0  0  0  0  0  0  0
   19.8030   61.5090   -6.9490 O   0  0  0  0  0  0  0  0  0  0  0  0
   20.8490   63.5580   -7.0880 C   0  0  0  0  0  0  0  0  0  0  0  0
   20.6200   63.8890   -5.7760 N   0  0  0  0  0  0  0  0  0  0  0  0
   21.1630   65.0470   -5.5210 N   0  0  0  0  0  0  0  0  0  0  0  0
   21.7610   65.5460   -6.5890 N   0  0  0  0  0  0  0  0  0  0  0  0
   21.5840   64.6460   -7.5710 C   0  0  0  0  0  0  0  0  0  0  0  0
   22.0350   64.7590   -8.9610 C   0  0  0  0  0  0  0  0  0  0  0  0
   20.9760   65.1000   -9.9140 N   0  0  0  0  0  0  0  0  0  0  0  0
   20.5820   63.8730  -10.6350 C   0  0  0  0  0  0  0  0  0  0  0  0
   21.7970   63.1480  -11.0970 C   0  0  0  0  0  0  0  0  0  0  0  0
   22.5910   63.9960  -11.8290 O   0  0  0  0  0  0  0  0  0  0  0  0
   22.0080   65.1980  -12.1310 C   0  0  0  0  0  0  0  0  0  0  0  0
   21.5540   66.0010  -10.9390 C   0  0  0  0  0  0  0  0  0  0  0  0
   22.4090   66.8050   -6.6190 C   0  0  0  0  0  0  0  0  0  0  0  0
   23.7270   67.0930   -6.5670 N   0  0  0  0  0  0  0  0  0  0  0  0
   23.9010   68.3860   -6.6350 O   0  0  0  0  0  0  0  0  0  0  0  0
   22.7470   68.9970   -6.7300 N   0  0  0  0  0  0  0  0  0  0  0  0
   21.7980   68.0460   -6.7240 C   0  0  0  0  0  0  0  0  0  0  0  0
   20.4140   68.3050   -6.8130 N   0  0  0  0  0  0  0  0  0  0  0  0
   14.3840   58.9610  -10.8800 B   0  0  0  0  0  0  0  0  0  0  0  0
   13.2890   61.5220  -12.0730 O   0  0  0  0  0  0  0  0  0  0  0  0
   16.8860   60.0810   -9.7400 H   0  0  0  0  0  0  0  0  0  0  0  0
   17.1840   64.9020  -11.5690 H   0  0  0  0  0  0  0  0  0  0  0  0
   18.3280   63.0880   -8.7110 H   0  0  0  0  0  0  0  0  0  0  0  0
   21.4100   61.8480   -9.6120 H   0  0  0  0  0  0  0  0  0  0  0  0
   22.4840   63.8300   -9.3210 H   0  0  0  0  0  0  0  0  0  0  0  0
   22.7620   65.5780   -9.0460 H   0  0  0  0  0  0  0  0  0  0  0  0
   19.9150   63.2520  -10.0170 H   0  0  0  0  0  0  0  0  0  0  0  0
   20.0050   64.2130  -11.5150 H   0  0  0  0  0  0  0  0  0  0  0  0
   22.3910   62.7100  -10.2760 H   0  0  0  0  0  0  0  0  0  0  0  0
   21.4670   62.3340  -11.8070 H   0  0  0  0  0  0  0  0  0  0  0  0
   22.8150   65.8180  -12.6270 H   0  0  0  0  0  0  0  0  0  0  0  0
   21.2110   65.0740  -12.8940 H   0  0  0  0  0  0  0  0  0  0  0  0
   20.7430   66.6520  -11.2880 H   0  0  0  0  0  0  0  0  0  0  0  0
   22.3880   66.5820  -10.5580 H   0  0  0  0  0  0  0  0  0  0  0  0
   19.8080   68.0710   -6.0050 H   0  0  0  0  0  0  0  0  0  0  0  0
   19.9760   68.7220   -7.6540 H   0  0  0  0  0  0  0  0  0  0  0  0
   13.1640   60.7340  -12.6870 H   0  0  0  0  0  0  0  0  0  0  0  0
  1  2  1  0  0  0  0
  2  7  1  0  0  0  0
  3  2  2  0  0  0  0
  3  4  1  0  0  0  0
  4  5  2  0  0  0  0
  5  6  1  0  0  0  0
  5 34  1  0  0  0  0
  6  9  1  0  0  0  0
  7  8  1  0  0  0  0
  7  6  2  0  0  0  0
  9 36  1  0  0  0  0
 10  9  2  0  0  0  0
 10 11  1  0  0  0  0
 11 12  1  0  0  0  0
 12 14  1  0  0  0  0
 12 13  2  0  0  0  0
 14 15  1  0  0  0  0
 15 16  2  0  0  0  0
 17 16  1  0  0  0  0
 18 14  2  0  0  0  0
 18 17  1  0  0  0  0
 19 18  1  0  0  0  0
 20 19  1  0  0  0  0
 21 40  1  0  0  0  0
 21 20  1  0  0  0  0
 22 21  1  0  0  0  0
 22 42  1  0  0  0  0
 23 22  1  0  0  0  0
 24 23  1  0  0  0  0
 24 25  1  0  0  0  0
 25 47  1  0  0  0  0
 25 20  1  0  0  0  0
 26 17  1  0  0  0  0
 26 27  2  0  0  0  0
 28 27  1  0  0  0  0
 29 30  2  0  0  0  0
 29 28  1  0  0  0  0
 30 26  1  0  0  0  0
 31 30  1  0  0  0  0
 31 48  1  0  0  0  0
 32  4  1  0  0  0  0
 33  3  1  0  0  0  0
 35  8  1  0  0  0  0
 37 11  1  0  0  0  0
 38 19  1  0  0  0  0
 39 19  1  0  0  0  0
 41 21  1  0  0  0  0
 43 22  1  0  0  0  0
 44 24  1  0  0  0  0
 45 24  1  0  0  0  0
 46 25  1  0  0  0  0
 49 31  1  0  0  0  0
 50 33  1  0  0  0  0
M  END
>  <Pose>
1

>  <Score>
-7.37

$$$$
