
 OpenBabel03202210193D

 41 44  0  0  0  0  0  0  0  0999 V2000
   24.2280   70.8930   -1.2690 B   0  0  0  0  0  0  0  0  0  0  0  0
   24.3830   70.8030   -3.1710 C   0  0  0  0  0  0  0  0  0  0  0  0
   25.4130   71.4830   -3.7800 C   0  0  0  0  0  0  0  0  0  0  0  0
   25.5500   71.4390   -5.1260 N   0  0  0  0  0  0  0  0  0  0  0  0
   24.6610   70.7220   -5.8390 C   0  0  0  0  0  0  0  0  0  0  0  0
   23.6180   70.0260   -5.2980 C   0  0  0  0  0  0  0  0  0  0  0  0
   23.4710   70.0650   -3.9250 C   0  0  0  0  0  0  0  0  0  0  0  0
   22.7150   69.2820   -6.1630 C   0  0  0  0  0  0  0  0  0  0  0  0
   22.5960   69.6730   -7.3710 O   0  0  0  0  0  0  0  0  0  0  0  0
   21.9770   68.1560   -5.7130 N   0  0  0  0  0  0  0  0  0  0  0  0
   21.8440   67.0200   -6.6120 C   0  0  0  0  0  0  0  0  0  0  0  0
   23.0150   66.0750   -6.4590 C   0  0  0  0  0  0  0  0  0  0  0  0
   22.7790   64.9790   -7.4050 N   0  0  0  0  0  0  0  0  0  0  0  0
   23.6590   64.1330   -7.9140 N   0  0  0  0  0  0  0  0  0  0  0  0
   23.0630   63.2800   -8.7350 N   0  0  0  0  0  0  0  0  0  0  0  0
   21.7500   63.5550   -8.7820 C   0  0  0  0  0  0  0  0  0  0  0  0
   21.5790   64.6280   -7.9400 C   0  0  0  0  0  0  0  0  0  0  0  0
   20.7270   62.8700   -9.5530 C   0  0  0  0  0  0  0  0  0  0  0  0
   19.4380   62.6880   -9.2130 N   0  0  0  0  0  0  0  0  0  0  0  0
   18.8130   62.0080  -10.1880 C   0  0  0  0  0  0  0  0  0  0  0  0
   19.7450   61.7800  -11.1270 N   0  0  0  0  0  0  0  0  0  0  0  0
   20.8620   62.3010  -10.7220 O   0  0  0  0  0  0  0  0  0  0  0  0
   17.3930   61.5960  -10.2200 C   0  0  0  0  0  0  0  0  0  0  0  0
   17.0610   60.2740  -10.0350 C   0  0  0  0  0  0  0  0  0  0  0  0
   15.7710   59.8870  -10.0620 N   0  0  0  0  0  0  0  0  0  0  0  0
   14.7510   60.7450  -10.2660 C   0  0  0  0  0  0  0  0  0  0  0  0
   15.0950   62.0700  -10.4510 C   0  0  0  0  0  0  0  0  0  0  0  0
   16.3940   62.5060  -10.4310 C   0  0  0  0  0  0  0  0  0  0  0  0
   26.1420   72.0710   -3.2050 H   0  0  0  0  0  0  0  0  0  0  0  0
   24.8170   70.7200   -6.9220 H   0  0  0  0  0  0  0  0  0  0  0  0
   22.6670   69.5360   -3.4350 H   0  0  0  0  0  0  0  0  0  0  0  0
   21.5460   68.1500   -4.7670 H   0  0  0  0  0  0  0  0  0  0  0  0
   20.9340   66.4520   -6.2830 H   0  0  0  0  0  0  0  0  0  0  0  0
   21.7150   67.3750   -7.6510 H   0  0  0  0  0  0  0  0  0  0  0  0
   23.9320   66.6270   -6.7210 H   0  0  0  0  0  0  0  0  0  0  0  0
   23.0670   65.6210   -5.4580 H   0  0  0  0  0  0  0  0  0  0  0  0
   20.6490   65.1230   -7.7260 H   0  0  0  0  0  0  0  0  0  0  0  0
   17.8700   59.5470   -9.8640 H   0  0  0  0  0  0  0  0  0  0  0  0
   13.7130   60.4130  -10.2850 H   0  0  0  0  0  0  0  0  0  0  0  0
   14.2960   62.7890  -10.6190 H   0  0  0  0  0  0  0  0  0  0  0  0
   16.6710   63.5510  -10.5770 H   0  0  0  0  0  0  0  0  0  0  0  0
  2  1  1  0  0  0  0
  3 29  1  0  0  0  0
  3  2  1  0  0  0  0
  4  3  2  0  0  0  0
  5  6  2  0  0  0  0
  5  4  1  0  0  0  0
  6  7  1  0  0  0  0
  7 31  1  0  0  0  0
  7  2  2  0  0  0  0
  8 10  1  0  0  0  0
  8  6  1  0  0  0  0
  9  8  2  0  0  0  0
 10 32  1  0  0  0  0
 11 12  1  0  0  0  0
 11 33  1  0  0  0  0
 11 10  1  0  0  0  0
 12 36  1  0  0  0  0
 13 12  1  0  0  0  0
 14 13  1  0  0  0  0
 15 14  2  0  0  0  0
 16 15  1  0  0  0  0
 16 17  2  0  0  0  0
 17 37  1  0  0  0  0
 17 13  1  0  0  0  0
 18 19  2  0  0  0  0
 18 16  1  0  0  0  0
 20 19  1  0  0  0  0
 21 22  1  0  0  0  0
 21 20  2  0  0  0  0
 22 18  1  0  0  0  0
 23 20  1  0  0  0  0
 23 24  1  0  0  0  0
 24 38  1  0  0  0  0
 25 24  2  0  0  0  0
 26 25  1  0  0  0  0
 27 28  1  0  0  0  0
 27 26  2  0  0  0  0
 28 23  2  0  0  0  0
 30  5  1  0  0  0  0
 34 11  1  0  0  0  0
 35 12  1  0  0  0  0
 39 26  1  0  0  0  0
 40 27  1  0  0  0  0
 41 28  1  0  0  0  0
M  END
>  <Pose>
1

>  <Score>
-8.75

$$$$
