
 OpenBabel03202210193D

 54 57  0  0  0  0  0  0  0  0999 V2000
   23.9470   64.4240   -5.5250 Cl  0  0  0  0  0  0  0  0  0  0  0  0
   23.0870   65.8150   -6.1930 C   0  0  0  0  0  0  0  0  0  0  0  0
   22.3030   65.6510   -7.3140 C   0  0  0  0  0  0  0  0  0  0  0  0
   21.6490   66.7450   -7.8100 C   0  0  0  0  0  0  0  0  0  0  0  0
   21.7430   68.0010   -7.2320 C   0  0  0  0  0  0  0  0  0  0  0  0
   22.5480   68.1260   -6.0950 C   0  0  0  0  0  0  0  0  0  0  0  0
   23.2140   67.0420   -5.5790 C   0  0  0  0  0  0  0  0  0  0  0  0
   22.1640   64.4020   -7.9500 N   0  0  0  0  0  0  0  0  0  0  0  0
   23.1280   63.9380   -8.9130 C   0  0  0  0  0  0  0  0  0  0  0  0
   22.5000   63.3970  -10.1730 C   0  0  0  0  0  0  0  0  0  0  0  0
   21.1040   63.1660   -9.9150 N   0  0  0  0  0  0  0  0  0  0  0  0
   20.7510   62.5420   -8.6660 C   0  0  0  0  0  0  0  0  0  0  0  0
   20.9880   63.6020   -7.5810 C   0  0  0  0  0  0  0  0  0  0  0  0
   20.0750   63.5170  -10.8160 C   0  0  0  0  0  0  0  0  0  0  0  0
   20.3200   64.1790  -11.8670 O   0  0  0  0  0  0  0  0  0  0  0  0
   18.6880   63.1410  -10.5930 C   0  0  0  0  0  0  0  0  0  0  0  0
   17.6970   64.0830  -10.6200 C   0  0  0  0  0  0  0  0  0  0  0  0
   16.3710   63.8110  -10.4200 N   0  0  0  0  0  0  0  0  0  0  0  0
   16.0370   62.5460  -10.1850 C   0  0  0  0  0  0  0  0  0  0  0  0
   16.9580   61.5330  -10.1380 C   0  0  0  0  0  0  0  0  0  0  0  0
   18.3610   61.8390  -10.3520 C   0  0  0  0  0  0  0  0  0  0  0  0
   19.0170   60.6680  -10.2490 N   0  0  0  0  0  0  0  0  0  0  0  0
   18.1620   59.6920   -9.9960 N   0  0  0  0  0  0  0  0  0  0  0  0
   16.9120   60.1670   -9.9210 C   0  0  0  0  0  0  0  0  0  0  0  0
   15.8280   59.5480   -9.6960 O   0  0  0  0  0  0  0  0  0  0  0  0
   15.3950   64.8860  -10.5080 C   0  0  0  0  0  0  0  0  0  0  0  0
   14.7070   65.0290  -11.7920 C   0  0  0  0  0  0  0  0  0  0  0  0
   13.8120   64.0230  -12.3660 C   0  0  0  0  0  0  0  0  0  0  0  0
   12.7450   64.3570  -13.1100 O   0  0  0  0  0  0  0  0  0  0  0  0
   12.8110   65.1290  -14.1970 C   0  0  0  0  0  0  0  0  0  0  0  0
   21.0350   66.6330   -8.6840 H   0  0  0  0  0  0  0  0  0  0  0  0
   21.2190   68.8380   -7.6430 H   0  0  0  0  0  0  0  0  0  0  0  0
   22.6050   69.1150   -5.6640 H   0  0  0  0  0  0  0  0  0  0  0  0
   23.8210   67.1630   -4.7120 H   0  0  0  0  0  0  0  0  0  0  0  0
   23.8240   63.1820   -8.4920 H   0  0  0  0  0  0  0  0  0  0  0  0
   23.7570   64.8020   -9.2150 H   0  0  0  0  0  0  0  0  0  0  0  0
   22.6720   64.0540  -11.0460 H   0  0  0  0  0  0  0  0  0  0  0  0
   22.9600   62.4020  -10.4250 H   0  0  0  0  0  0  0  0  0  0  0  0
   21.4680   61.7120   -8.4010 H   0  0  0  0  0  0  0  0  0  0  0  0
   19.7160   62.1760   -8.6430 H   0  0  0  0  0  0  0  0  0  0  0  0
   21.1050   63.1500   -6.5870 H   0  0  0  0  0  0  0  0  0  0  0  0
   20.1180   64.2910   -7.6130 H   0  0  0  0  0  0  0  0  0  0  0  0
   17.9120   65.1480  -10.8110 H   0  0  0  0  0  0  0  0  0  0  0  0
   15.0050   62.2420  -10.0410 H   0  0  0  0  0  0  0  0  0  0  0  0
   18.3730   58.6640   -9.8610 H   0  0  0  0  0  0  0  0  0  0  0  0
   15.7580   65.8330  -10.0470 H   0  0  0  0  0  0  0  0  0  0  0  0
   14.5890   64.5620   -9.7550 H   0  0  0  0  0  0  0  0  0  0  0  0
   14.2070   66.0620  -11.8360 H   0  0  0  0  0  0  0  0  0  0  0  0
   15.5360   65.1920  -12.5770 H   0  0  0  0  0  0  0  0  0  0  0  0
   14.3990   63.1640  -12.8510 H   0  0  0  0  0  0  0  0  0  0  0  0
   13.3800   63.4500  -11.4580 H   0  0  0  0  0  0  0  0  0  0  0  0
   13.4540   64.6790  -14.9990 H   0  0  0  0  0  0  0  0  0  0  0  0
   13.1200   66.1710  -14.0860 H   0  0  0  0  0  0  0  0  0  0  0  0
   11.7800   65.1140  -14.7090 H   0  0  0  0  0  0  0  0  0  0  0  0
  2  7  1  0  0  0  0
  2  1  1  0  0  0  0
  3  2  2  0  0  0  0
  4  3  1  0  0  0  0
  4  5  2  0  0  0  0
  5  6  1  0  0  0  0
  6 33  1  0  0  0  0
  6  7  2  0  0  0  0
  7 34  1  0  0  0  0
  8 13  1  0  0  0  0
  8  3  1  0  0  0  0
  9 35  1  0  0  0  0
  9  8  1  0  0  0  0
 10 11  1  0  0  0  0
 10  9  1  0  0  0  0
 11 12  1  0  0  0  0
 12 40  1  0  0  0  0
 12 39  1  0  0  0  0
 12 13  1  0  0  0  0
 13 41  1  0  0  0  0
 14 16  1  0  0  0  0
 14 11  1  0  0  0  0
 15 14  2  0  0  0  0
 16 21  2  0  0  0  0
 17 16  1  0  0  0  0
 17 18  1  0  0  0  0
 18 19  1  0  0  0  0
 19 20  2  0  0  0  0
 19 44  1  0  0  0  0
 20 24  1  0  0  0  0
 21 22  1  0  0  0  0
 21 20  1  0  0  0  0
 22 23  1  0  0  0  0
 23 24  1  0  0  0  0
 23 45  1  0  0  0  0
 24 25  2  0  0  0  0
 26 18  1  0  0  0  0
 26 46  1  0  0  0  0
 26 47  1  0  0  0  0
 27 26  1  0  0  0  0
 28 27  1  0  0  0  0
 28 51  1  0  0  0  0
 29 28  1  0  0  0  0
 30 53  1  0  0  0  0
 30 29  1  0  0  0  0
 31  4  1  0  0  0  0
 32  5  1  0  0  0  0
 36  9  1  0  0  0  0
 37 10  1  0  0  0  0
 38 10  1  0  0  0  0
 42 13  1  0  0  0  0
 43 17  1  0  0  0  0
 48 27  1  0  0  0  0
 49 27  1  0  0  0  0
 50 28  1  0  0  0  0
 52 30  1  0  0  0  0
 54 30  1  0  0  0  0
M  END
>  <Pose>
1

>  <Score>
-6.52

$$$$
