
 OpenBabel03202210193D

 59 63  0  0  1  0  0  0  0  0999 V2000
   18.0730   61.5890  -10.0400 B   0  0  0  0  0  0  0  0  0  0  0  0
   19.3930   62.9530  -10.0340 C   0  0  0  0  0  0  0  0  0  0  0  0
   20.6430   62.7200   -9.5070 C   0  0  0  0  0  0  0  0  0  0  0  0
   21.6200   63.7250   -9.4970 C   0  0  0  0  0  0  0  0  0  0  0  0
   21.2250   64.9250  -10.0460 C   0  0  0  0  0  0  0  0  0  0  0  0
   19.9990   65.1990  -10.5790 C   0  0  0  0  0  0  0  0  0  0  0  0
   19.0610   64.1820  -10.5700 C   0  0  0  0  0  0  0  0  0  0  0  0
   22.9140   63.4860   -8.8890 C   0  0  2  0  0  0  0  0  0  0  0  0
   23.3180   64.0770   -7.6900 N   0  0  0  0  0  0  0  0  0  0  0  0
   24.5270   64.8430   -7.9780 C   0  0  0  0  0  0  0  0  0  0  0  0
   25.1340   65.6340   -7.2130 O   0  0  0  0  0  0  0  0  0  0  0  0
   24.9720   64.5640   -9.3350 C   0  0  0  0  0  0  0  0  0  0  0  0
   25.9900   65.0670   -9.9160 O   0  0  0  0  0  0  0  0  0  0  0  0
   24.0320   63.6200   -9.8780 C   0  0  0  0  0  0  0  0  0  0  0  0
   24.1320   63.0320  -11.0520 C   0  0  0  0  0  0  0  0  0  0  0  0
   23.0480   62.1920  -11.3990 O   0  0  0  0  0  0  0  0  0  0  0  0
   25.2310   63.1650  -11.9900 C   0  0  0  0  0  0  0  0  0  0  0  0
   25.2820   63.2500  -13.3280 N   0  0  0  0  0  0  0  0  0  0  0  0
   26.5370   63.3170  -13.7950 C   0  0  0  0  0  0  0  0  0  0  0  0
   27.3380   63.2730  -12.7070 N   0  0  0  0  0  0  0  0  0  0  0  0
   26.5900   63.1820  -11.6050 C   0  0  0  0  0  0  0  0  0  0  0  0
   27.0680   63.1110  -10.2170 C   0  0  0  0  0  0  0  0  0  0  0  0
   26.8210   63.4260  -15.1430 C   0  0  0  0  0  0  0  0  0  0  0  0
   25.7840   63.4650  -16.0360 C   0  0  0  0  0  0  0  0  0  0  0  0
   24.4900   63.3970  -15.5560 C   0  0  0  0  0  0  0  0  0  0  0  0
   24.2430   63.2900  -14.2070 C   0  0  0  0  0  0  0  0  0  0  0  0
   22.7850   63.9260   -6.3860 C   0  0  0  0  0  0  0  0  0  0  0  0
   23.6400   63.9620   -5.2010 C   0  0  0  0  0  0  0  0  0  0  0  0
   23.8080   62.7980   -4.3820 N   0  0  0  0  0  4  0  0  0  0  0  0
   25.1250   62.2470   -4.7040 C   0  0  0  0  0  0  0  0  0  0  0  0
   26.2160   62.8210   -3.8590 C   0  0  0  0  0  0  0  0  0  0  0  0
   25.7670   63.9480   -3.1540 O   0  0  0  0  0  0  0  0  0  0  0  0
   24.8180   63.4750   -2.2750 C   0  0  0  0  0  0  0  0  0  0  0  0
   23.5970   63.0350   -2.9940 C   0  0  0  0  0  0  0  0  0  0  0  0
   20.9340   61.7770   -9.0820 H   0  0  0  0  0  0  0  0  0  0  0  0
   21.9650   65.7290  -10.0530 H   0  0  0  0  0  0  0  0  0  0  0  0
   19.7290   66.1630  -11.0010 H   0  0  0  0  0  0  0  0  0  0  0  0
   18.0860   64.4050  -10.9940 H   0  0  0  0  0  0  0  0  0  0  0  0
   22.8870   62.3380   -8.6240 H   0  0  0  0  0  0  0  0  0  0  0  0
   26.4310   63.6620   -9.4900 H   0  0  0  0  0  0  0  0  0  0  0  0
   27.1730   62.0350   -9.9420 H   0  0  0  0  0  0  0  0  0  0  0  0
   28.0840   63.5570  -10.1620 H   0  0  0  0  0  0  0  0  0  0  0  0
   27.8260   63.4770  -15.5170 H   0  0  0  0  0  0  0  0  0  0  0  0
   25.9190   63.5500  -17.1110 H   0  0  0  0  0  0  0  0  0  0  0  0
   23.6320   63.4250  -16.2320 H   0  0  0  0  0  0  0  0  0  0  0  0
   23.2170   63.2390  -13.8140 H   0  0  0  0  0  0  0  0  0  0  0  0
   22.2300   62.9340   -6.3800 H   0  0  0  0  0  0  0  0  0  0  0  0
   21.9500   64.6670   -6.2420 H   0  0  0  0  0  0  0  0  0  0  0  0
   24.6800   64.2240   -5.5840 H   0  0  0  0  0  0  0  0  0  0  0  0
   23.4330   64.8550   -4.5350 H   0  0  0  0  0  0  0  0  0  0  0  0
   23.1540   62.0140   -4.6760 H   0  0  0  0  0  0  0  0  0  0  0  0
   25.0880   61.1590   -4.5380 H   0  0  0  0  0  0  0  0  0  0  0  0
   25.3570   62.4010   -5.7870 H   0  0  0  0  0  0  0  0  0  0  0  0
   26.5750   62.0690   -3.1070 H   0  0  0  0  0  0  0  0  0  0  0  0
   27.0420   63.1580   -4.5190 H   0  0  0  0  0  0  0  0  0  0  0  0
   24.5780   64.3600   -1.6020 H   0  0  0  0  0  0  0  0  0  0  0  0
   25.2580   62.6560   -1.6330 H   0  0  0  0  0  0  0  0  0  0  0  0
   22.7950   63.7940   -2.8060 H   0  0  0  0  0  0  0  0  0  0  0  0
   23.2820   62.0550   -2.5230 H   0  0  0  0  0  0  0  0  0  0  0  0
  1  2  1  0  0  0  0
  2  3  1  0  0  0  0
  3  4  2  0  0  0  0
  3 35  1  0  0  0  0
  4  8  1  0  0  0  0
  5  4  1  0  0  0  0
  6  7  1  0  0  0  0
  6  5  2  0  0  0  0
  7  2  2  0  0  0  0
  8 39  1  1  0  0  0
  8  9  1  0  0  0  0
  9 27  1  0  0  0  0
 10  9  1  0  0  0  0
 10 11  2  0  0  0  0
 12 10  1  0  0  0  0
 13 12  2  0  0  0  0
 14 12  1  0  0  0  0
 14  8  1  0  0  0  0
 15 14  2  0  0  0  0
 16 15  1  0  0  0  0
 17 21  2  0  0  0  0
 17 15  1  0  0  0  0
 18 17  1  0  0  0  0
 19 18  1  0  0  0  0
 19 20  2  0  0  0  0
 20 21  1  0  0  0  0
 21 22  1  0  0  0  0
 22 42  1  0  0  0  0
 22 41  1  0  0  0  0
 22 40  1  0  0  0  0
 23 19  1  0  0  0  0
 24 25  1  0  0  0  0
 24 23  2  0  0  0  0
 25 26  2  0  0  0  0
 26 46  1  0  0  0  0
 26 18  1  0  0  0  0
 27 47  1  0  0  0  0
 27 48  1  0  0  0  0
 27 28  1  0  0  0  0
 28 50  1  0  0  0  0
 28 29  1  0  0  0  0
 29 34  1  0  0  0  0
 30 52  1  0  0  0  0
 30 29  1  0  0  0  0
 30 31  1  0  0  0  0
 31 32  1  0  0  0  0
 31 54  1  0  0  0  0
 32 33  1  0  0  0  0
 33 57  1  0  0  0  0
 33 56  1  0  0  0  0
 34 58  1  0  0  0  0
 34 59  1  0  0  0  0
 34 33  1  0  0  0  0
 36  5  1  0  0  0  0
 37  6  1  0  0  0  0
 38  7  1  0  0  0  0
 43 23  1  0  0  0  0
 44 24  1  0  0  0  0
 45 25  1  0  0  0  0
 49 28  1  0  0  0  0
 51 29  1  0  0  0  0
 53 30  1  0  0  0  0
 55 31  1  0  0  0  0
M  END
>  <Pose>
1

>  <Score>
-4.28

$$$$
