
 OpenBabel03202210193D

 56 59  0  0  1  0  0  0  0  0999 V2000
   13.7810   64.2610  -12.0170 B   0  0  0  0  0  0  0  0  0  0  0  0
   15.4180   63.6220  -11.2320 C   0  0  0  0  0  0  0  0  0  0  0  0
   16.5290   64.4470  -11.1890 C   0  0  0  0  0  0  0  0  0  0  0  0
   17.7150   63.9910  -10.6230 C   0  0  0  0  0  0  0  0  0  0  0  0
   17.8170   62.7240  -10.0960 C   0  0  0  0  0  0  0  0  0  0  0  0
   16.6930   61.9310  -10.1550 C   0  0  0  0  0  0  0  0  0  0  0  0
   15.5090   62.3550  -10.7080 C   0  0  0  0  0  0  0  0  0  0  0  0
   19.0440   62.2360   -9.5040 C   0  0  0  0  0  0  0  0  0  0  0  0
   19.3770   61.0330   -9.6760 O   0  0  0  0  0  0  0  0  0  0  0  0
   19.9480   63.0900   -8.6900 C   0  0  0  0  0  0  0  0  0  0  0  0
   21.1280   63.4590   -9.4130 N   0  0  0  0  0  0  0  0  0  0  0  0
   21.2820   63.4650  -10.7180 N   0  0  0  0  0  0  0  0  0  0  0  0
   22.5200   63.8660  -11.0440 C   0  0  0  0  0  0  0  0  0  0  0  0
   23.1640   64.1200   -9.8960 N   0  0  0  0  0  0  0  0  0  0  0  0
   22.2860   63.8640   -8.8810 C   0  0  2  0  0  0  0  0  0  0  0  0
   22.5590   64.0040   -7.4520 C   0  0  0  0  0  0  0  0  0  0  0  0
   22.9750   65.4030   -7.0640 C   0  0  0  0  0  0  0  0  0  0  0  0
   24.3740   65.7290   -7.5370 C   0  0  0  0  0  0  0  0  0  0  0  0
   24.4680   65.9100   -9.0210 C   0  0  0  0  0  0  0  0  0  0  0  0
   24.5310   64.5820   -9.7610 C   0  0  0  0  0  0  0  0  0  0  0  0
   23.0960   64.0110  -12.3890 C   0  0  0  0  0  0  0  0  0  0  0  0
   24.1710   63.0980  -12.6280 N   0  0  0  0  0  0  0  0  0  0  0  0
   25.1390   63.2920  -13.6550 C   0  0  0  0  0  0  0  0  0  0  0  0
   24.8380   63.1320  -14.9890 C   0  0  0  0  0  0  0  0  0  0  0  0
   25.7770   63.3260  -15.9690 C   0  0  0  0  0  0  0  0  0  0  0  0
   27.0420   63.6860  -15.6250 C   0  0  0  0  0  0  0  0  0  0  0  0
   27.3470   63.8460  -14.2910 C   0  0  0  0  0  0  0  0  0  0  0  0
   26.4110   63.6540  -13.2970 C   0  0  0  0  0  0  0  0  0  0  0  0
   28.0040   63.8860  -16.5860 O   0  0  0  0  0  0  0  0  0  0  0  0
   27.7330   64.4920  -17.8250 C   0  0  0  0  0  0  0  0  0  0  0  0
   16.4410   65.4330  -11.6020 H   0  0  0  0  0  0  0  0  0  0  0  0
   18.5650   64.6490  -10.6010 H   0  0  0  0  0  0  0  0  0  0  0  0
   16.7540   60.9160   -9.7400 H   0  0  0  0  0  0  0  0  0  0  0  0
   14.6680   61.6910  -10.7250 H   0  0  0  0  0  0  0  0  0  0  0  0
   19.4120   63.9570   -8.2570 H   0  0  0  0  0  0  0  0  0  0  0  0
   20.2740   62.4400   -7.8260 H   0  0  0  0  0  0  0  0  0  0  0  0
   21.6720   63.7500   -6.8450 H   0  0  0  0  0  0  0  0  0  0  0  0
   23.3800   63.3220   -7.0880 H   0  0  0  0  0  0  0  0  0  0  0  0
   22.2710   66.1750   -7.3770 H   0  0  0  0  0  0  0  0  0  0  0  0
   23.0080   65.4240   -5.9460 H   0  0  0  0  0  0  0  0  0  0  0  0
   25.1150   65.0270   -7.1510 H   0  0  0  0  0  0  0  0  0  0  0  0
   24.6240   66.7270   -7.0760 H   0  0  0  0  0  0  0  0  0  0  0  0
   23.6260   66.4740   -9.4190 H   0  0  0  0  0  0  0  0  0  0  0  0
   25.4110   66.4840   -9.2290 H   0  0  0  0  0  0  0  0  0  0  0  0
   25.1800   63.8560   -9.2470 H   0  0  0  0  0  0  0  0  0  0  0  0
   24.9490   64.7620  -10.7630 H   0  0  0  0  0  0  0  0  0  0  0  0
   23.4680   65.0630  -12.4920 H   0  0  0  0  0  0  0  0  0  0  0  0
   22.3290   63.8790  -13.1700 H   0  0  0  0  0  0  0  0  0  0  0  0
   24.2730   62.2550  -12.0450 H   0  0  0  0  0  0  0  0  0  0  0  0
   23.8030   62.8420  -15.2100 H   0  0  0  0  0  0  0  0  0  0  0  0
   25.4950   63.1910  -16.9960 H   0  0  0  0  0  0  0  0  0  0  0  0
   28.3550   64.1340  -13.9820 H   0  0  0  0  0  0  0  0  0  0  0  0
   26.6730   63.7890  -12.2380 H   0  0  0  0  0  0  0  0  0  0  0  0
   28.5570   64.3260  -18.5300 H   0  0  0  0  0  0  0  0  0  0  0  0
   26.8050   64.0460  -18.2380 H   0  0  0  0  0  0  0  0  0  0  0  0
   27.5560   65.5860  -17.7190 H   0  0  0  0  0  0  0  0  0  0  0  0
  1  2  1  0  0  0  0
  2  3  2  0  0  0  0
  2  7  1  0  0  0  0
  3  4  1  0  0  0  0
  4 32  1  0  0  0  0
  4  5  2  0  0  0  0
  5  8  1  0  0  0  0
  6  5  1  0  0  0  0
  6 33  1  0  0  0  0
  7  6  2  0  0  0  0
  8 10  1  0  0  0  0
  9  8  2  0  0  0  0
 10 35  1  0  0  0  0
 10 36  1  0  0  0  0
 11 15  1  0  0  0  0
 11 10  1  0  0  0  0
 12 11  1  0  0  0  0
 13 12  2  0  0  0  0
 13 14  1  0  0  0  0
 14 20  1  0  0  0  0
 15 14  1  1  0  0  0
 15 16  1  0  0  0  0
 16 38  1  0  0  0  0
 16 17  1  0  0  0  0
 16 37  1  0  0  0  0
 17 40  1  0  0  0  0
 18 41  1  0  0  0  0
 18 42  1  0  0  0  0
 18 17  1  0  0  0  0
 19 18  1  0  0  0  0
 20 45  1  0  0  0  0
 20 19  1  0  0  0  0
 21 13  1  0  0  0  0
 22 21  1  0  0  0  0
 22 49  1  0  0  0  0
 23 28  1  0  0  0  0
 23 22  1  0  0  0  0
 24 23  2  0  0  0  0
 25 26  2  0  0  0  0
 25 24  1  0  0  0  0
 26 27  1  0  0  0  0
 27 52  1  0  0  0  0
 27 28  2  0  0  0  0
 28 53  1  0  0  0  0
 29 26  1  0  0  0  0
 30 56  1  0  0  0  0
 30 29  1  0  0  0  0
 31  3  1  0  0  0  0
 34  7  1  0  0  0  0
 39 17  1  0  0  0  0
 43 19  1  0  0  0  0
 44 19  1  0  0  0  0
 46 20  1  0  0  0  0
 47 21  1  0  0  0  0
 48 21  1  0  0  0  0
 50 24  1  0  0  0  0
 51 25  1  0  0  0  0
 54 30  1  0  0  0  0
 55 30  1  0  0  0  0
M  END
>  <Pose>
1

>  <Score>
-5.63

$$$$
