
 OpenBabel03202210193D

 48 51  0  0  1  0  0  0  0  0999 V2000
   24.3890   63.1210   -6.1860 Cl  0  0  0  0  0  0  0  0  0  0  0  0
   23.2820   64.3690   -6.7370 C   0  0  0  0  0  0  0  0  0  0  0  0
   22.6160   64.2390   -7.9530 C   0  0  0  0  0  0  0  0  0  0  0  0
   21.7620   65.2000   -8.4340 C   0  0  0  0  0  0  0  0  0  0  0  0
   21.5930   66.3300   -7.6250 C   0  0  0  0  0  0  0  0  0  0  0  0
   22.2490   66.4810   -6.4090 C   0  0  0  0  0  0  0  0  0  0  0  0
   23.0950   65.4990   -5.9670 C   0  0  0  0  0  0  0  0  0  0  0  0
   20.9940   65.0270   -9.6160 N   0  0  0  0  0  4  0  0  0  0  0  0
   19.7680   64.2860   -9.4550 C   0  0  0  0  0  0  0  0  0  0  0  0
   19.6490   63.2140  -10.4550 C   0  0  2  0  0  0  0  0  0  0  0  0
   20.8340   63.3650  -11.2510 N   0  0  0  0  0  0  0  0  0  0  0  0
   21.1610   62.9560  -12.5970 C   0  0  0  0  0  0  0  0  0  0  0  0
   22.3210   62.0200  -12.7110 C   0  0  0  0  0  0  0  0  0  0  0  0
   23.1140   61.8360  -11.4640 C   0  0  0  0  0  0  0  0  0  0  0  0
   23.9750   63.1020  -11.2550 C   0  0  0  0  0  0  0  0  0  0  0  0
   23.0870   64.0160  -10.4300 C   0  0  0  0  0  0  0  0  0  0  0  0
   21.7780   64.1190  -10.4420 C   0  0  0  0  0  0  0  0  0  0  0  0
   18.5510   63.4900  -11.3160 O   0  0  0  0  0  0  0  0  0  0  0  0
   19.4210   61.8740   -9.9690 C   0  0  0  0  0  0  0  0  0  0  0  0
   18.1800   61.2390  -10.0230 C   0  0  0  0  0  0  0  0  0  0  0  0
   17.9720   59.9420   -9.5760 C   0  0  0  0  0  0  0  0  0  0  0  0
   19.0540   59.2350   -9.0500 C   0  0  0  0  0  0  0  0  0  0  0  0
   20.2850   59.8200   -8.9780 C   0  0  0  0  0  0  0  0  0  0  0  0
   20.4550   61.1350   -9.4400 C   0  0  0  0  0  0  0  0  0  0  0  0
   16.6860   59.3610   -9.6610 N   0  0  0  0  0  0  0  0  0  0  0  0
   15.7120   60.0540  -10.0920 O   0  0  0  0  0  0  0  0  0  0  0  0
   16.4190   58.0930   -9.3020 O   0  0  0  0  0  0  0  0  0  0  0  0
   22.8610   63.3190   -8.5110 H   0  0  0  0  0  0  0  0  0  0  0  0
   20.9260   67.1030   -7.9680 H   0  0  0  0  0  0  0  0  0  0  0  0
   22.1030   67.3830   -5.7880 H   0  0  0  0  0  0  0  0  0  0  0  0
   23.6130   65.5950   -5.0350 H   0  0  0  0  0  0  0  0  0  0  0  0
   20.9490   65.9060  -10.1200 H   0  0  0  0  0  0  0  0  0  0  0  0
   19.5870   64.1240   -8.4120 H   0  0  0  0  0  0  0  0  0  0  0  0
   18.9700   65.0670   -9.7410 H   0  0  0  0  0  0  0  0  0  0  0  0
   20.3110   62.5640  -13.1830 H   0  0  0  0  0  0  0  0  0  0  0  0
   21.4940   63.8570  -13.2330 H   0  0  0  0  0  0  0  0  0  0  0  0
   23.0050   62.2950  -13.5460 H   0  0  0  0  0  0  0  0  0  0  0  0
   21.9580   60.9730  -12.9960 H   0  0  0  0  0  0  0  0  0  0  0  0
   22.5290   61.6410  -10.5410 H   0  0  0  0  0  0  0  0  0  0  0  0
   23.8730   61.0090  -11.5520 H   0  0  0  0  0  0  0  0  0  0  0  0
   24.2140   63.5420  -12.2160 H   0  0  0  0  0  0  0  0  0  0  0  0
   24.8530   62.8550  -10.6220 H   0  0  0  0  0  0  0  0  0  0  0  0
   23.6510   64.6390   -9.7590 H   0  0  0  0  0  0  0  0  0  0  0  0
   18.5930   64.4880  -11.4900 H   0  0  0  0  0  0  0  0  0  0  0  0
   17.3760   61.7870  -10.4260 H   0  0  0  0  0  0  0  0  0  0  0  0
   18.8450   58.2240   -8.7160 H   0  0  0  0  0  0  0  0  0  0  0  0
   21.1380   59.2530   -8.5580 H   0  0  0  0  0  0  0  0  0  0  0  0
   21.4750   61.4920   -9.3330 H   0  0  0  0  0  0  0  0  0  0  0  0
  2  1  1  0  0  0  0
  2  7  1  0  0  0  0
  3  2  2  0  0  0  0
  4  3  1  0  0  0  0
  4  5  2  0  0  0  0
  5  6  1  0  0  0  0
  6  7  2  0  0  0  0
  6 30  1  0  0  0  0
  7 31  1  0  0  0  0
  8  9  1  0  0  0  0
  8  4  1  0  0  0  0
  9 33  1  0  0  0  0
 10 18  1  6  0  0  0
 10 19  1  0  0  0  0
 10  9  1  0  0  0  0
 11 10  1  0  0  0  0
 11 17  1  0  0  0  0
 12 11  1  0  0  0  0
 13 12  1  0  0  0  0
 13 14  1  0  0  0  0
 14 15  1  0  0  0  0
 14 39  1  0  0  0  0
 15 42  1  0  0  0  0
 15 16  1  0  0  0  0
 16 43  1  0  0  0  0
 17 16  2  0  0  0  0
 17  8  1  0  0  0  0
 19 24  1  0  0  0  0
 20 19  2  0  0  0  0
 20 21  1  0  0  0  0
 21 22  2  0  0  0  0
 22 23  1  0  0  0  0
 22 46  1  0  0  0  0
 23 47  1  0  0  0  0
 24 48  1  0  0  0  0
 24 23  2  0  0  0  0
 25 21  1  0  0  0  0
 25 27  2  0  0  0  0
 26 25  2  0  0  0  0
 28  3  1  0  0  0  0
 29  5  1  0  0  0  0
 32  8  1  0  0  0  0
 34  9  1  0  0  0  0
 35 12  1  0  0  0  0
 36 12  1  0  0  0  0
 37 13  1  0  0  0  0
 38 13  1  0  0  0  0
 40 14  1  0  0  0  0
 41 15  1  0  0  0  0
 44 18  1  0  0  0  0
 45 20  1  0  0  0  0
M  END
>  <Pose>
1

>  <Score>
-5.51

$$$$
