
 OpenBabel03202210193D

 54 58  0  0  0  0  0  0  0  0999 V2000
   21.9480   65.7830   -6.2830 F   0  0  0  0  0  0  0  0  0  0  0  0
   22.9110   64.8500   -6.1850 C   0  0  0  0  0  0  0  0  0  0  0  0
   23.3890   64.6610   -4.8910 C   0  0  0  0  0  0  0  0  0  0  0  0
   24.3720   63.7300   -4.6390 C   0  0  0  0  0  0  0  0  0  0  0  0
   24.8590   63.0000   -5.6970 C   0  0  0  0  0  0  0  0  0  0  0  0
   24.3660   63.2030   -6.9830 C   0  0  0  0  0  0  0  0  0  0  0  0
   23.3900   64.1260   -7.2470 C   0  0  0  0  0  0  0  0  0  0  0  0
   22.9290   64.3070   -8.5500 N   0  0  0  0  0  4  0  0  0  0  0  0
   21.5580   64.7310   -8.6740 C   0  0  0  0  0  0  0  0  0  0  0  0
   21.2350   65.0330  -10.1560 C   0  0  0  0  0  0  0  0  0  0  0  0
   21.3770   63.8040  -10.8320 N   0  0  0  0  0  0  0  0  0  0  0  0
   22.8340   63.3910  -10.8620 C   0  0  0  0  0  0  0  0  0  0  0  0
   23.1490   63.1910   -9.4110 C   0  0  0  0  0  0  0  0  0  0  0  0
   20.4960   62.9380  -11.3860 C   0  0  0  0  0  0  0  0  0  0  0  0
   20.8970   62.3610  -12.4930 O   0  0  0  0  0  0  0  0  0  0  0  0
   19.1810   62.5290  -10.9760 C   0  0  0  0  0  0  0  0  0  0  0  0
   18.8740   61.2940  -10.5060 C   0  0  0  0  0  0  0  0  0  0  0  0
   17.5990   60.9600  -10.0690 C   0  0  0  0  0  0  0  0  0  0  0  0
   16.6080   61.9060  -10.1140 C   0  0  0  0  0  0  0  0  0  0  0  0
   16.8620   63.1650  -10.5800 C   0  0  0  0  0  0  0  0  0  0  0  0
   18.1230   63.4620  -11.0000 C   0  0  0  0  0  0  0  0  0  0  0  0
   17.2470   59.3400   -9.4620 Cl  0  0  0  0  0  0  0  0  0  0  0  0
   25.8190   62.0940   -5.4260 N   0  0  0  0  0  0  0  0  0  0  0  0
   26.2980   61.8930   -4.1850 C   0  0  0  0  0  0  0  0  0  0  0  0
   25.8330   62.6090   -3.1040 C   0  0  0  0  0  0  0  0  0  0  0  0
   24.8520   63.5440   -3.3350 C   0  0  0  0  0  0  0  0  0  0  0  0
   24.3830   64.2290   -2.3950 O   0  0  0  0  0  0  0  0  0  0  0  0
   26.3690   62.3770   -1.7500 C   0  0  0  0  0  0  0  0  0  0  0  0
   25.7090   61.8240   -0.8560 O   0  0  0  0  0  0  0  0  0  0  0  0
   27.6540   62.7940   -1.4840 O   0  0  0  0  0  0  0  0  0  0  0  0
   26.3270   61.3240   -6.5680 C   0  0  0  0  0  0  0  0  0  0  0  0
   26.6590   59.9030   -6.4340 C   0  0  0  0  0  0  0  0  0  0  0  0
   27.7960   60.8220   -6.3780 C   0  0  0  0  0  0  0  0  0  0  0  0
   23.0250   65.2210   -4.0430 H   0  0  0  0  0  0  0  0  0  0  0  0
   24.8190   62.5740   -7.7500 H   0  0  0  0  0  0  0  0  0  0  0  0
   23.5050   65.1060   -8.9600 H   0  0  0  0  0  0  0  0  0  0  0  0
   20.9010   63.8880   -8.4160 H   0  0  0  0  0  0  0  0  0  0  0  0
   21.3280   65.6910   -8.1830 H   0  0  0  0  0  0  0  0  0  0  0  0
   20.3210   65.5890  -10.2000 H   0  0  0  0  0  0  0  0  0  0  0  0
   22.0290   65.7860  -10.5140 H   0  0  0  0  0  0  0  0  0  0  0  0
   23.3590   64.2910  -11.2200 H   0  0  0  0  0  0  0  0  0  0  0  0
   22.9730   62.5120  -11.4790 H   0  0  0  0  0  0  0  0  0  0  0  0
   24.2540   62.9570   -9.3650 H   0  0  0  0  0  0  0  0  0  0  0  0
   22.6560   62.2570   -9.0920 H   0  0  0  0  0  0  0  0  0  0  0  0
   19.5820   60.4830  -10.4740 H   0  0  0  0  0  0  0  0  0  0  0  0
   15.6200   61.6270   -9.7690 H   0  0  0  0  0  0  0  0  0  0  0  0
   16.0360   63.8640  -10.5900 H   0  0  0  0  0  0  0  0  0  0  0  0
   18.3260   64.4720  -11.3730 H   0  0  0  0  0  0  0  0  0  0  0  0
   27.0690   61.1560   -4.0200 H   0  0  0  0  0  0  0  0  0  0  0  0
   26.1330   61.7500   -7.5690 H   0  0  0  0  0  0  0  0  0  0  0  0
   26.3920   59.3080   -5.5350 H   0  0  0  0  0  0  0  0  0  0  0  0
   26.5390   59.2830   -7.3720 H   0  0  0  0  0  0  0  0  0  0  0  0
   28.2610   61.0540   -5.3990 H   0  0  0  0  0  0  0  0  0  0  0  0
   28.4800   61.0010   -7.2290 H   0  0  0  0  0  0  0  0  0  0  0  0
  1  2  1  0  0  0  0
  2  3  1  0  0  0  0
  3  4  2  0  0  0  0
  3 34  1  0  0  0  0
  4 26  1  0  0  0  0
  5 23  1  0  0  0  0
  5  4  1  0  0  0  0
  6  5  2  0  0  0  0
  7  6  1  0  0  0  0
  7  2  2  0  0  0  0
  8  7  1  0  0  0  0
  9  8  1  0  0  0  0
  9 37  1  0  0  0  0
  9 38  1  0  0  0  0
 10  9  1  0  0  0  0
 11 10  1  0  0  0  0
 12 11  1  0  0  0  0
 12 13  1  0  0  0  0
 13 43  1  0  0  0  0
 13 44  1  0  0  0  0
 13  8  1  0  0  0  0
 14 16  1  0  0  0  0
 14 11  1  0  0  0  0
 15 14  2  0  0  0  0
 16 17  1  0  0  0  0
 17 45  1  0  0  0  0
 17 18  2  0  0  0  0
 18 22  1  0  0  0  0
 19 18  1  0  0  0  0
 19 46  1  0  0  0  0
 20 19  2  0  0  0  0
 21 16  2  0  0  0  0
 21 20  1  0  0  0  0
 23 24  1  0  0  0  0
 24 49  1  0  0  0  0
 24 25  2  0  0  0  0
 25 28  1  0  0  0  0
 26 25  1  0  0  0  0
 26 27  2  0  0  0  0
 28 30  2  0  0  0  0
 28 29  1  0  0  0  0
 31 32  1  0  0  0  0
 31 33  1  0  0  0  0
 31 23  1  0  0  0  0
 32 33  1  0  0  0  0
 32 51  1  0  0  0  0
 33 53  1  0  0  0  0
 35  6  1  0  0  0  0
 36  8  1  0  0  0  0
 39 10  1  0  0  0  0
 40 10  1  0  0  0  0
 41 12  1  0  0  0  0
 42 12  1  0  0  0  0
 47 20  1  0  0  0  0
 48 21  1  0  0  0  0
 50 31  1  0  0  0  0
 52 32  1  0  0  0  0
 54 33  1  0  0  0  0
M  END
>  <Pose>
1

>  <Score>
-5.62

$$$$
