
 OpenBabel03202210193D

 51 54  0  0  0  0  0  0  0  0999 V2000
   12.6260   60.8870  -12.6880 Cl  0  0  0  0  0  0  0  0  0  0  0  0
   13.7940   61.9830  -11.9680 C   0  0  0  0  0  0  0  0  0  0  0  0
   13.8350   63.3070  -12.3750 C   0  0  0  0  0  0  0  0  0  0  0  0
   14.7520   64.1580  -11.8050 C   0  0  0  0  0  0  0  0  0  0  0  0
   15.6350   63.7310  -10.8380 C   0  0  0  0  0  0  0  0  0  0  0  0
   15.5760   62.4180  -10.4520 C   0  0  0  0  0  0  0  0  0  0  0  0
   14.6580   61.5260  -11.0090 C   0  0  0  0  0  0  0  0  0  0  0  0
   16.6100   64.6860  -10.2610 C   0  0  0  0  0  0  0  0  0  0  0  0
   16.1740   65.8370  -10.0450 O   0  0  0  0  0  0  0  0  0  0  0  0
   17.9210   64.3330   -9.9780 N   0  0  0  0  0  0  0  0  0  0  0  0
   18.4630   63.4080   -9.0580 C   0  0  0  0  0  0  0  0  0  0  0  0
   19.1270   62.2010   -9.5770 C   0  0  0  0  0  0  0  0  0  0  0  0
   20.4830   62.1990   -9.9600 N   0  0  0  0  0  0  0  0  0  0  0  0
   20.9330   63.2840  -10.7960 C   0  0  0  0  0  0  0  0  0  0  0  0
   20.6760   63.2580  -12.0100 O   0  0  0  0  0  0  0  0  0  0  0  0
   21.6950   64.4260  -10.2390 C   0  0  0  0  0  0  0  0  0  0  0  0
   23.1570   64.0400  -10.2020 C   0  0  0  0  0  0  0  0  0  0  0  0
   23.3200   63.0100   -9.1080 C   0  0  0  0  0  0  0  0  0  0  0  0
   23.1310   63.7340   -7.8550 N   0  0  0  0  0  0  0  0  0  0  0  0
   22.1900   64.8010   -7.7840 C   0  0  0  0  0  0  0  0  0  0  0  0
   21.2190   64.8710   -8.9060 C   0  0  0  0  0  0  0  0  0  0  0  0
   23.9080   63.3320   -6.7440 C   0  0  0  0  0  0  0  0  0  0  0  0
   24.0350   64.0790   -5.6310 N   0  0  0  0  0  0  0  0  0  0  0  0
   24.7590   63.7190   -4.5870 N   0  0  0  0  0  0  0  0  0  0  0  0
   24.9960   64.3150   -3.4230 N   0  0  0  0  0  0  0  0  0  0  0  0
   25.7820   63.5800   -2.6830 N   0  0  0  0  0  0  0  0  0  0  0  0
   26.0690   62.4870   -3.3590 N   0  0  0  0  0  0  0  0  0  0  0  0
   25.4350   62.5660   -4.5480 C   0  0  0  0  0  0  0  0  0  0  0  0
   25.3460   61.7530   -5.6640 C   0  0  0  0  0  0  0  0  0  0  0  0
   24.5900   62.1280   -6.7560 C   0  0  0  0  0  0  0  0  0  0  0  0
   13.1370   63.6480  -13.1410 H   0  0  0  0  0  0  0  0  0  0  0  0
   14.8010   65.2040  -12.1100 H   0  0  0  0  0  0  0  0  0  0  0  0
   16.2250   62.0090   -9.7130 H   0  0  0  0  0  0  0  0  0  0  0  0
   14.6100   60.4920  -10.7070 H   0  0  0  0  0  0  0  0  0  0  0  0
   18.6450   64.8920  -10.6110 H   0  0  0  0  0  0  0  0  0  0  0  0
   19.1740   63.9540   -8.3600 H   0  0  0  0  0  0  0  0  0  0  0  0
   17.5980   63.0790   -8.3940 H   0  0  0  0  0  0  0  0  0  0  0  0
   18.4680   61.7260  -10.3890 H   0  0  0  0  0  0  0  0  0  0  0  0
   19.0390   61.3900   -8.7660 H   0  0  0  0  0  0  0  0  0  0  0  0
   21.2070   61.5350   -9.6950 H   0  0  0  0  0  0  0  0  0  0  0  0
   21.6460   65.2910  -10.9520 H   0  0  0  0  0  0  0  0  0  0  0  0
   23.7230   64.9490   -9.8950 H   0  0  0  0  0  0  0  0  0  0  0  0
   23.5180   63.6770  -11.1820 H   0  0  0  0  0  0  0  0  0  0  0  0
   24.3420   62.5630   -9.1230 H   0  0  0  0  0  0  0  0  0  0  0  0
   22.5560   62.2190   -9.1160 H   0  0  0  0  0  0  0  0  0  0  0  0
   22.7590   65.7740   -7.7670 H   0  0  0  0  0  0  0  0  0  0  0  0
   21.6050   64.7740   -6.8300 H   0  0  0  0  0  0  0  0  0  0  0  0
   20.7690   65.9020   -9.0130 H   0  0  0  0  0  0  0  0  0  0  0  0
   20.3190   64.2320   -8.6560 H   0  0  0  0  0  0  0  0  0  0  0  0
   25.8940   60.8120   -5.6430 H   0  0  0  0  0  0  0  0  0  0  0  0
   24.5260   61.4760   -7.6280 H   0  0  0  0  0  0  0  0  0  0  0  0
  1  2  1  0  0  0  0
  2  7  1  0  0  0  0
  3  2  2  0  0  0  0
  3  4  1  0  0  0  0
  4  5  2  0  0  0  0
  5  6  1  0  0  0  0
  5  8  1  0  0  0  0
  6 33  1  0  0  0  0
  7 34  1  0  0  0  0
  7  6  2  0  0  0  0
  8  9  2  0  0  0  0
  8 10  1  0  0  0  0
 10 11  1  0  0  0  0
 11 37  1  0  0  0  0
 11 36  1  0  0  0  0
 12 11  1  0  0  0  0
 12 39  1  0  0  0  0
 13 40  1  0  0  0  0
 13 12  1  0  0  0  0
 14 16  1  0  0  0  0
 14 13  1  0  0  0  0
 15 14  2  0  0  0  0
 16 17  1  0  0  0  0
 16 21  1  0  0  0  0
 17 42  1  0  0  0  0
 17 18  1  0  0  0  0
 18 19  1  0  0  0  0
 19 20  1  0  0  0  0
 19 22  1  0  0  0  0
 20 46  1  0  0  0  0
 20 47  1  0  0  0  0
 21 49  1  0  0  0  0
 21 20  1  0  0  0  0
 22 23  2  0  0  0  0
 23 24  1  0  0  0  0
 24 28  1  0  0  0  0
 24 25  1  0  0  0  0
 25 26  2  0  0  0  0
 27 26  1  0  0  0  0
 28 27  2  0  0  0  0
 29 50  1  0  0  0  0
 29 28  1  0  0  0  0
 30 22  1  0  0  0  0
 30 29  2  0  0  0  0
 31  3  1  0  0  0  0
 32  4  1  0  0  0  0
 35 10  1  0  0  0  0
 38 12  1  0  0  0  0
 41 16  1  0  0  0  0
 43 17  1  0  0  0  0
 44 18  1  0  0  0  0
 45 18  1  0  0  0  0
 48 21  1  0  0  0  0
 51 30  1  0  0  0  0
M  END
>  <Pose>
1

>  <Score>
-7.97

$$$$
