
 OpenBabel03202210193D

 49 52  0  0  0  0  0  0  0  0999 V2000
   12.5150   63.1140  -11.4630 B   0  0  0  0  0  0  0  0  0  0  0  0
   14.3720   63.2040  -11.0030 C   0  0  0  0  0  0  0  0  0  0  0  0
   15.0470   64.4080  -10.9790 C   0  0  0  0  0  0  0  0  0  0  0  0
   16.3970   64.4670  -10.6440 C   0  0  0  0  0  0  0  0  0  0  0  0
   17.1100   63.3300  -10.3260 C   0  0  0  0  0  0  0  0  0  0  0  0
   16.4300   62.1320  -10.3520 C   0  0  0  0  0  0  0  0  0  0  0  0
   15.0920   62.0710  -10.6830 C   0  0  0  0  0  0  0  0  0  0  0  0
   18.4890   63.3530   -9.9780 N   0  0  0  0  0  0  0  0  0  0  0  0
   19.1420   64.1100   -9.0810 C   0  0  0  0  0  0  0  0  0  0  0  0
   18.5600   64.9700   -8.3730 O   0  0  0  0  0  0  0  0  0  0  0  0
   20.4930   63.8070   -9.0600 C   0  0  0  0  0  0  0  0  0  0  0  0
   20.6630   62.8480   -9.9610 C   0  0  0  0  0  0  0  0  0  0  0  0
   21.9730   62.5550   -9.9410 N   0  0  0  0  0  0  0  0  0  0  0  0
   22.5860   63.3150   -9.0510 N   0  0  0  0  0  0  0  0  0  0  0  0
   21.6930   64.0920   -8.4980 N   0  0  0  0  0  0  0  0  0  0  0  0
   21.9020   65.0860   -7.4730 C   0  0  0  0  0  0  0  0  0  0  0  0
   23.1540   64.7430   -6.6990 C   0  0  0  0  0  0  0  0  0  0  0  0
   24.1480   65.4980   -6.7800 O   0  0  0  0  0  0  0  0  0  0  0  0
   23.1930   63.5910   -5.9000 N   0  0  0  0  0  0  0  0  0  0  0  0
   24.2360   63.2270   -5.0260 C   0  0  0  0  0  0  0  0  0  0  0  0
   25.4990   62.8380   -5.3970 C   0  0  0  0  0  0  0  0  0  0  0  0
   26.4730   62.4760   -4.4900 C   0  0  0  0  0  0  0  0  0  0  0  0
   26.1550   62.5110   -3.1480 C   0  0  0  0  0  0  0  0  0  0  0  0
   24.8920   62.8990   -2.7320 C   0  0  0  0  0  0  0  0  0  0  0  0
   23.9410   63.2520   -3.6500 C   0  0  0  0  0  0  0  0  0  0  0  0
   27.1250   62.1500   -2.2160 O   0  0  0  0  0  0  0  0  0  0  0  0
   27.8250   63.1630   -1.5230 C   0  0  0  0  0  0  0  0  0  0  0  0
   27.7470   62.0850   -4.8960 O   0  0  0  0  0  0  0  0  0  0  0  0
   28.0290   60.6800   -4.9330 C   0  0  0  0  0  0  0  0  0  0  0  0
   19.4390   62.5640  -10.5290 C   0  0  0  0  0  0  0  0  0  0  0  0
   19.2300   61.6910  -11.4360 O   0  0  0  0  0  0  0  0  0  0  0  0
   14.4770   65.3010  -11.2310 H   0  0  0  0  0  0  0  0  0  0  0  0
   16.9150   65.4100  -10.6280 H   0  0  0  0  0  0  0  0  0  0  0  0
   16.9990   61.2390  -10.1000 H   0  0  0  0  0  0  0  0  0  0  0  0
   14.5810   61.1050  -10.6960 H   0  0  0  0  0  0  0  0  0  0  0  0
   22.4650   61.8470  -10.5200 H   0  0  0  0  0  0  0  0  0  0  0  0
   23.6210   63.3150   -8.8070 H   0  0  0  0  0  0  0  0  0  0  0  0
   21.0650   65.1320   -6.7380 H   0  0  0  0  0  0  0  0  0  0  0  0
   22.0750   66.0830   -7.9080 H   0  0  0  0  0  0  0  0  0  0  0  0
   22.3470   62.9350   -5.9610 H   0  0  0  0  0  0  0  0  0  0  0  0
   25.7770   62.8100   -6.4410 H   0  0  0  0  0  0  0  0  0  0  0  0
   24.6740   62.9140   -1.6630 H   0  0  0  0  0  0  0  0  0  0  0  0
   22.9380   63.5590   -3.3040 H   0  0  0  0  0  0  0  0  0  0  0  0
   27.0490   63.8180   -1.0580 H   0  0  0  0  0  0  0  0  0  0  0  0
   28.4130   63.7570   -2.2340 H   0  0  0  0  0  0  0  0  0  0  0  0
   28.4480   62.6930   -0.7270 H   0  0  0  0  0  0  0  0  0  0  0  0
   27.3890   60.1830   -5.7130 H   0  0  0  0  0  0  0  0  0  0  0  0
   29.0980   60.5030   -5.1640 H   0  0  0  0  0  0  0  0  0  0  0  0
   27.7980   60.2140   -3.9530 H   0  0  0  0  0  0  0  0  0  0  0  0
  1  2  1  0  0  0  0
  2  3  2  0  0  0  0
  2  7  1  0  0  0  0
  3  4  1  0  0  0  0
  4 33  1  0  0  0  0
  4  5  2  0  0  0  0
  5  8  1  0  0  0  0
  6  5  1  0  0  0  0
  6 34  1  0  0  0  0
  7  6  2  0  0  0  0
  8  9  1  0  0  0  0
  9 11  1  0  0  0  0
  9 10  2  0  0  0  0
 11 15  1  0  0  0  0
 12 13  1  0  0  0  0
 12 11  2  0  0  0  0
 13 14  1  0  0  0  0
 14 37  1  0  0  0  0
 14 15  1  0  0  0  0
 15 16  1  0  0  0  0
 16 38  1  0  0  0  0
 16 17  1  0  0  0  0
 17 19  1  0  0  0  0
 18 17  2  0  0  0  0
 19 20  1  0  0  0  0
 20 25  1  0  0  0  0
 21 20  2  0  0  0  0
 21 22  1  0  0  0  0
 22 23  2  0  0  0  0
 23 24  1  0  0  0  0
 23 26  1  0  0  0  0
 24 42  1  0  0  0  0
 25 43  1  0  0  0  0
 25 24  2  0  0  0  0
 26 27  1  0  0  0  0
 27 44  1  0  0  0  0
 27 46  1  0  0  0  0
 28 22  1  0  0  0  0
 29 28  1  0  0  0  0
 29 49  1  0  0  0  0
 30  8  1  0  0  0  0
 30 12  1  0  0  0  0
 31 30  2  0  0  0  0
 32  3  1  0  0  0  0
 35  7  1  0  0  0  0
 36 13  1  0  0  0  0
 39 16  1  0  0  0  0
 40 19  1  0  0  0  0
 41 21  1  0  0  0  0
 45 27  1  0  0  0  0
 47 29  1  0  0  0  0
 48 29  1  0  0  0  0
M  END
>  <Pose>
1

>  <Score>
-7.00

$$$$
