
 OpenBabel03202210193D

 52 55  0  0  0  0  0  0  0  0999 V2000
   26.9020   60.4190   -2.2130 Cl  0  0  0  0  0  0  0  0  0  0  0  0
   25.9760   61.5270   -3.2060 C   0  0  0  0  0  0  0  0  0  0  0  0
   24.6450   61.7560   -2.8830 C   0  0  0  0  0  0  0  0  0  0  0  0
   23.8560   62.6210   -3.6250 C   0  0  0  0  0  0  0  0  0  0  0  0
   24.3960   63.2720   -4.7120 C   0  0  0  0  0  0  0  0  0  0  0  0
   25.7340   63.0230   -5.0130 C   0  0  0  0  0  0  0  0  0  0  0  0
   26.5280   62.1740   -4.2910 C   0  0  0  0  0  0  0  0  0  0  0  0
   23.6170   64.1950   -5.5340 C   0  0  0  0  0  0  0  0  0  0  0  0
   23.7070   65.4210   -5.2700 O   0  0  0  0  0  0  0  0  0  0  0  0
   22.7980   63.7620   -6.5770 N   0  0  0  0  0  0  0  0  0  0  0  0
   22.8020   64.3440   -7.9050 C   0  0  0  0  0  0  0  0  0  0  0  0
   22.7180   63.2580   -8.9300 C   0  0  0  0  0  0  0  0  0  0  0  0
   22.0630   63.6990  -10.1810 C   0  0  0  0  0  0  0  0  0  0  0  0
   22.7800   64.2080  -11.0780 O   0  0  0  0  0  0  0  0  0  0  0  0
   20.6690   63.5590  -10.3740 N   0  0  0  0  0  0  0  0  0  0  0  0
   20.0910   62.5620  -11.2530 C   0  0  0  0  0  0  0  0  0  0  0  0
   18.8180   63.1500  -11.8440 C   0  0  0  0  0  0  0  0  0  0  0  0
   17.7930   63.4160  -10.7420 C   0  0  0  0  0  0  0  0  0  0  0  0
   17.0690   64.5920  -11.1260 N   0  0  0  0  0  0  0  0  0  0  0  0
   15.7900   64.6860  -10.4550 C   0  0  0  0  0  0  0  0  0  0  0  0
   14.8610   63.6200  -11.0300 C   0  0  0  0  0  0  0  0  0  0  0  0
   15.5140   62.3070  -10.7560 C   0  0  0  0  0  0  0  0  0  0  0  0
   14.9990   61.0520  -10.5930 N   0  0  0  0  0  0  0  0  0  0  0  0
   16.0240   60.2120  -10.3660 C   0  0  0  0  0  0  0  0  0  0  0  0
   17.1610   60.9310  -10.3860 N   0  0  0  0  0  0  0  0  0  0  0  0
   16.8830   62.2460  -10.6280 C   0  0  0  0  0  0  0  0  0  0  0  0
   18.4840   63.6690   -9.4190 C   0  0  0  0  0  0  0  0  0  0  0  0
   19.7470   64.4350   -9.6780 C   0  0  0  0  0  0  0  0  0  0  0  0
   24.2270   61.2420   -2.0290 H   0  0  0  0  0  0  0  0  0  0  0  0
   22.8010   62.7780   -3.3380 H   0  0  0  0  0  0  0  0  0  0  0  0
   26.1470   63.5400   -5.8670 H   0  0  0  0  0  0  0  0  0  0  0  0
   27.5600   61.9770   -4.5180 H   0  0  0  0  0  0  0  0  0  0  0  0
   22.1220   62.9730   -6.4400 H   0  0  0  0  0  0  0  0  0  0  0  0
   23.7910   64.8390   -8.0290 H   0  0  0  0  0  0  0  0  0  0  0  0
   22.0230   65.1110   -8.0090 H   0  0  0  0  0  0  0  0  0  0  0  0
   23.7620   62.8930   -9.1650 H   0  0  0  0  0  0  0  0  0  0  0  0
   22.2070   62.3930   -8.5020 H   0  0  0  0  0  0  0  0  0  0  0  0
   20.7840   62.4260  -12.1250 H   0  0  0  0  0  0  0  0  0  0  0  0
   19.9080   61.6090  -10.7610 H   0  0  0  0  0  0  0  0  0  0  0  0
   19.0220   64.0490  -12.4240 H   0  0  0  0  0  0  0  0  0  0  0  0
   18.3770   62.3790  -12.5070 H   0  0  0  0  0  0  0  0  0  0  0  0
   17.6230   65.4560  -10.9660 H   0  0  0  0  0  0  0  0  0  0  0  0
   15.9490   64.4040   -9.3950 H   0  0  0  0  0  0  0  0  0  0  0  0
   15.3530   65.6820  -10.4930 H   0  0  0  0  0  0  0  0  0  0  0  0
   13.8920   63.7190  -10.5120 H   0  0  0  0  0  0  0  0  0  0  0  0
   14.7460   63.7420  -12.1260 H   0  0  0  0  0  0  0  0  0  0  0  0
   13.9730   60.8670  -10.6510 H   0  0  0  0  0  0  0  0  0  0  0  0
   15.8890   59.1520  -10.2020 H   0  0  0  0  0  0  0  0  0  0  0  0
   17.8670   64.2470   -8.7230 H   0  0  0  0  0  0  0  0  0  0  0  0
   18.7620   62.7030   -8.9340 H   0  0  0  0  0  0  0  0  0  0  0  0
   20.1440   64.7580   -8.6950 H   0  0  0  0  0  0  0  0  0  0  0  0
   19.5430   65.3500  -10.2880 H   0  0  0  0  0  0  0  0  0  0  0  0
  2  3  1  0  0  0  0
  2  1  1  0  0  0  0
  3 29  1  0  0  0  0
  4 30  1  0  0  0  0
  4  3  2  0  0  0  0
  5  4  1  0  0  0  0
  6  5  2  0  0  0  0
  6  7  1  0  0  0  0
  7  2  2  0  0  0  0
  8  9  2  0  0  0  0
  8  5  1  0  0  0  0
 10 33  1  0  0  0  0
 10  8  1  0  0  0  0
 11 10  1  0  0  0  0
 12 37  1  0  0  0  0
 12 11  1  0  0  0  0
 13 12  1  0  0  0  0
 14 13  2  0  0  0  0
 15 13  1  0  0  0  0
 15 28  1  0  0  0  0
 16 39  1  0  0  0  0
 16 15  1  0  0  0  0
 17 16  1  0  0  0  0
 17 18  1  0  0  0  0
 18 26  1  0  0  0  0
 18 27  1  0  0  0  0
 19 42  1  0  0  0  0
 19 18  1  0  0  0  0
 19 20  1  0  0  0  0
 20 43  1  0  0  0  0
 21 22  1  0  0  0  0
 21 45  1  0  0  0  0
 21 20  1  0  0  0  0
 22 26  2  0  0  0  0
 22 23  1  0  0  0  0
 23 24  1  0  0  0  0
 24 48  1  0  0  0  0
 25 24  2  0  0  0  0
 26 25  1  0  0  0  0
 27 50  1  0  0  0  0
 27 49  1  0  0  0  0
 28 27  1  0  0  0  0
 28 51  1  0  0  0  0
 31  6  1  0  0  0  0
 32  7  1  0  0  0  0
 34 11  1  0  0  0  0
 35 11  1  0  0  0  0
 36 12  1  0  0  0  0
 38 16  1  0  0  0  0
 40 17  1  0  0  0  0
 41 17  1  0  0  0  0
 44 20  1  0  0  0  0
 46 21  1  0  0  0  0
 47 23  1  0  0  0  0
 52 28  1  0  0  0  0
M  END
>  <Pose>
1

>  <Score>
-9.00

$$$$
