
 OpenBabel03202210193D

 41 44  0  0  1  0  0  0  0  0999 V2000
   19.0040   62.5730  -10.9980 Cl  0  0  0  0  0  0  0  0  0  0  0  0
   20.6950   62.9920  -10.8160 C   0  0  0  0  0  0  0  0  0  0  0  0
   21.1610   63.4020   -9.5910 C   0  0  0  0  0  0  0  0  0  0  0  0
   20.6040   63.5840   -8.3820 N   0  0  0  0  0  0  0  0  0  0  0  0
   21.5080   64.0090   -7.4800 C   0  0  0  0  0  0  0  0  0  0  0  0
   22.7000   64.1000   -8.1670 C   0  0  0  0  0  0  0  0  0  0  0  0
   22.5030   63.7270   -9.4790 C   0  0  0  0  0  0  0  0  0  0  0  0
   23.3180   63.6280  -10.5880 C   0  0  0  0  0  0  0  0  0  0  0  0
   22.8770   63.2200  -11.8230 C   0  0  0  0  0  0  0  0  0  0  0  0
   21.5290   62.8960  -11.9310 C   0  0  0  0  0  0  0  0  0  0  0  0
   23.8680   64.5540   -7.3720 C   0  0  0  0  0  0  0  0  0  0  0  0
   23.8730   63.7010   -6.2040 N   0  0  0  0  0  0  0  0  0  0  0  0
   22.7850   63.8910   -5.3260 C   0  0  0  0  0  0  0  0  0  0  0  0
   21.5520   64.3820   -6.0500 C   0  0  0  0  0  0  0  0  0  0  0  0
   25.1400   63.4390   -5.6690 C   0  0  0  0  0  0  0  0  0  0  0  0
   25.1090   63.1340   -4.2020 C   0  0  1  0  0  0  0  0  0  0  0  0
   23.8230   62.5400   -3.7440 C   0  0  0  0  0  0  0  0  0  0  0  0
   24.0530   61.2920   -3.1010 N   0  0  0  0  0  0  0  0  0  0  0  0
   25.4450   60.9830   -3.1580 C   0  0  0  0  0  0  0  0  0  0  0  0
   26.1340   62.0690   -3.9120 C   0  0  0  0  0  0  0  0  0  0  0  0
   25.4710   64.2570   -3.4470 O   0  0  0  0  0  0  0  0  0  0  0  0
   19.5890   63.4250   -8.1240 H   0  0  0  0  0  0  0  0  0  0  0  0
   24.3580   63.8850  -10.4730 H   0  0  0  0  0  0  0  0  0  0  0  0
   23.5240   63.1440  -12.6900 H   0  0  0  0  0  0  0  0  0  0  0  0
   21.1620   62.5720  -12.8960 H   0  0  0  0  0  0  0  0  0  0  0  0
   23.6490   65.6250   -7.0950 H   0  0  0  0  0  0  0  0  0  0  0  0
   24.8220   64.4370   -7.8830 H   0  0  0  0  0  0  0  0  0  0  0  0
   22.4800   62.9220   -4.8400 H   0  0  0  0  0  0  0  0  0  0  0  0
   22.9870   64.6420   -4.5190 H   0  0  0  0  0  0  0  0  0  0  0  0
   20.6400   63.9830   -5.5580 H   0  0  0  0  0  0  0  0  0  0  0  0
   21.4610   65.4950   -5.9630 H   0  0  0  0  0  0  0  0  0  0  0  0
   25.9080   64.2190   -5.8410 H   0  0  0  0  0  0  0  0  0  0  0  0
   25.5550   62.5160   -6.1730 H   0  0  0  0  0  0  0  0  0  0  0  0
   23.1910   63.2310   -3.1380 H   0  0  0  0  0  0  0  0  0  0  0  0
   23.2060   62.3260   -4.6640 H   0  0  0  0  0  0  0  0  0  0  0  0
   23.6680   61.2380   -2.1280 H   0  0  0  0  0  0  0  0  0  0  0  0
   25.8590   60.8150   -2.1440 H   0  0  0  0  0  0  0  0  0  0  0  0
   25.6230   60.0280   -3.7190 H   0  0  0  0  0  0  0  0  0  0  0  0
   26.9520   62.4540   -3.2420 H   0  0  0  0  0  0  0  0  0  0  0  0
   26.6170   61.7110   -4.8510 H   0  0  0  0  0  0  0  0  0  0  0  0
   26.1260   64.7570   -4.0010 H   0  0  0  0  0  0  0  0  0  0  0  0
  1  2  1  0  0  0  0
  2  3  1  0  0  0  0
  3  7  2  0  0  0  0
  3  4  1  0  0  0  0
  4 22  1  0  0  0  0
  4  5  1  0  0  0  0
  5 14  1  0  0  0  0
  6  5  2  0  0  0  0
  6 11  1  0  0  0  0
  7  6  1  0  0  0  0
  8 23  1  0  0  0  0
  8  7  1  0  0  0  0
  9  8  2  0  0  0  0
 10  9  1  0  0  0  0
 10  2  2  0  0  0  0
 11 26  1  0  0  0  0
 11 12  1  0  0  0  0
 12 15  1  0  0  0  0
 12 13  1  0  0  0  0
 13 28  1  0  0  0  0
 13 29  1  0  0  0  0
 14 31  1  0  0  0  0
 14 30  1  0  0  0  0
 14 13  1  0  0  0  0
 15 16  1  0  0  0  0
 16 20  1  0  0  0  0
 16 17  1  0  0  0  0
 16 21  1  1  0  0  0
 17 34  1  0  0  0  0
 17 18  1  0  0  0  0
 18 36  1  0  0  0  0
 19 18  1  0  0  0  0
 19 37  1  0  0  0  0
 20 39  1  0  0  0  0
 20 19  1  0  0  0  0
 24  9  1  0  0  0  0
 25 10  1  0  0  0  0
 27 11  1  0  0  0  0
 32 15  1  0  0  0  0
 33 15  1  0  0  0  0
 35 17  1  0  0  0  0
 38 19  1  0  0  0  0
 40 20  1  0  0  0  0
 41 21  1  0  0  0  0
M  END
>  <Pose>
1

>  <Score>
-6.82

$$$$
