
 OpenBabel03202210193D

 43 46  0  0  0  0  0  0  0  0999 V2000
   14.8390   59.2420  -10.7560 B   0  0  0  0  0  0  0  0  0  0  0  0
   15.3200   61.0850  -10.6970 C   0  0  0  0  0  0  0  0  0  0  0  0
   16.6440   61.4630  -10.4270 C   0  0  0  0  0  0  0  0  0  0  0  0
   16.9770   62.7950  -10.3870 C   0  0  0  0  0  0  0  0  0  0  0  0
   16.0020   63.7300  -10.6140 C   0  0  0  0  0  0  0  0  0  0  0  0
   14.6780   63.3640  -10.8850 C   0  0  0  0  0  0  0  0  0  0  0  0
   14.3540   62.0290  -10.9230 C   0  0  0  0  0  0  0  0  0  0  0  0
   18.3090   63.1960  -10.1150 N   0  0  0  0  0  0  0  0  0  0  0  0
   18.9340   64.2580  -10.6340 N   0  0  0  0  0  0  0  0  0  0  0  0
   20.1620   64.3410  -10.1730 N   0  0  0  0  0  0  0  0  0  0  0  0
   20.3850   63.3250   -9.3270 C   0  0  0  0  0  0  0  0  0  0  0  0
   19.2080   62.6150   -9.3030 C   0  0  0  0  0  0  0  0  0  0  0  0
   21.6290   63.0290   -8.5780 C   0  0  0  0  0  0  0  0  0  0  0  0
   22.0530   61.8250   -8.6850 O   0  0  0  0  0  0  0  0  0  0  0  0
   22.3220   63.9590   -7.8030 N   0  0  0  0  0  0  0  0  0  0  0  0
   21.6010   64.8120   -6.9000 C   0  0  0  0  0  0  0  0  0  0  0  0
   21.9840   64.4470   -5.4920 C   0  0  0  0  0  0  0  0  0  0  0  0
   23.4080   64.2880   -5.4110 N   0  0  0  0  0  0  0  0  0  0  0  0
   24.1760   64.8560   -6.5360 C   0  0  0  0  0  0  0  0  0  0  0  0
   23.7540   64.1580   -7.8210 C   0  0  0  0  0  0  0  0  0  0  0  0
   24.1420   63.6600   -4.4050 C   0  0  0  0  0  0  0  0  0  0  0  0
   24.4260   64.4100   -3.3840 O   0  0  0  0  0  0  0  0  0  0  0  0
   24.6440   62.2940   -4.3120 C   0  0  0  0  0  0  0  0  0  0  0  0
   26.0520   61.9200   -4.4450 C   0  0  0  0  0  0  0  0  0  0  0  0
   25.3200   61.7280   -3.1190 C   0  0  0  0  0  0  0  0  0  0  0  0
   17.3480   60.6610  -10.2600 H   0  0  0  0  0  0  0  0  0  0  0  0
   16.1950   64.7900  -10.5980 H   0  0  0  0  0  0  0  0  0  0  0  0
   13.9070   64.0940  -11.0640 H   0  0  0  0  0  0  0  0  0  0  0  0
   13.3210   61.7360  -11.1340 H   0  0  0  0  0  0  0  0  0  0  0  0
   19.0370   61.7240   -8.7180 H   0  0  0  0  0  0  0  0  0  0  0  0
   20.5080   64.8010   -7.0680 H   0  0  0  0  0  0  0  0  0  0  0  0
   21.9190   65.8530   -7.1380 H   0  0  0  0  0  0  0  0  0  0  0  0
   21.6100   65.2210   -4.7680 H   0  0  0  0  0  0  0  0  0  0  0  0
   21.5220   63.4800   -5.2100 H   0  0  0  0  0  0  0  0  0  0  0  0
   23.9840   65.9350   -6.5300 H   0  0  0  0  0  0  0  0  0  0  0  0
   25.2270   64.6170   -6.3640 H   0  0  0  0  0  0  0  0  0  0  0  0
   24.2670   63.2050   -7.9550 H   0  0  0  0  0  0  0  0  0  0  0  0
   23.9940   64.8290   -8.6550 H   0  0  0  0  0  0  0  0  0  0  0  0
   23.9170   61.5070   -4.7470 H   0  0  0  0  0  0  0  0  0  0  0  0
   26.3240   60.9530   -4.9830 H   0  0  0  0  0  0  0  0  0  0  0  0
   26.9040   62.6150   -4.4440 H   0  0  0  0  0  0  0  0  0  0  0  0
   25.6310   62.2760   -2.2460 H   0  0  0  0  0  0  0  0  0  0  0  0
   25.1160   60.6430   -2.8550 H   0  0  0  0  0  0  0  0  0  0  0  0
  1  2  1  0  0  0  0
  2  3  1  0  0  0  0
  3  4  2  0  0  0  0
  3 26  1  0  0  0  0
  4  8  1  0  0  0  0
  5 27  1  0  0  0  0
  5  4  1  0  0  0  0
  6  5  2  0  0  0  0
  7  6  1  0  0  0  0
  7  2  2  0  0  0  0
  8 12  1  0  0  0  0
  9 10  2  0  0  0  0
  9  8  1  0  0  0  0
 10 11  1  0  0  0  0
 11 12  2  0  0  0  0
 11 13  1  0  0  0  0
 12 30  1  0  0  0  0
 13 15  1  0  0  0  0
 14 13  2  0  0  0  0
 15 16  1  0  0  0  0
 16 17  1  0  0  0  0
 17 18  1  0  0  0  0
 17 34  1  0  0  0  0
 17 33  1  0  0  0  0
 18 21  1  0  0  0  0
 19 35  1  0  0  0  0
 19 36  1  0  0  0  0
 19 18  1  0  0  0  0
 20 15  1  0  0  0  0
 20 19  1  0  0  0  0
 21 23  1  0  0  0  0
 21 22  2  0  0  0  0
 23 25  1  0  0  0  0
 24 41  1  0  0  0  0
 24 23  1  0  0  0  0
 24 25  1  0  0  0  0
 25 43  1  0  0  0  0
 25 42  1  0  0  0  0
 28  6  1  0  0  0  0
 29  7  1  0  0  0  0
 31 16  1  0  0  0  0
 32 16  1  0  0  0  0
 37 20  1  0  0  0  0
 38 20  1  0  0  0  0
 39 23  1  0  0  0  0
 40 24  1  0  0  0  0
M  END
>  <Pose>
1

>  <Score>
-5.95

$$$$
