
 OpenBabel03202210193D

 46 49  0  0  1  0  0  0  0  0999 V2000
   27.3400   62.2400   -5.2330 Cl  0  0  0  0  0  0  0  0  0  0  0  0
   25.7310   62.7040   -4.7500 C   0  0  0  0  0  0  0  0  0  0  0  0
   25.3060   62.3860   -3.4800 C   0  0  0  0  0  0  0  0  0  0  0  0
   24.0350   62.7580   -3.1150 C   0  0  0  0  0  0  0  0  0  0  0  0
   23.2220   63.4400   -4.0310 C   0  0  0  0  0  0  0  0  0  0  0  0
   23.6040   63.7740   -5.2950 C   0  0  0  0  0  0  0  0  0  0  0  0
   24.9220   63.3650   -5.6150 C   0  0  0  0  0  0  0  0  0  0  0  0
   22.8170   64.4680   -6.2780 C   0  0  1  0  0  0  0  0  0  0  0  0
   21.7190   65.0170   -5.7940 O   0  0  0  0  0  0  0  0  0  0  0  0
   23.0080   64.6740   -7.6940 C   0  0  0  0  0  0  0  0  0  0  0  0
   22.1990   64.0110   -8.6600 N   0  0  0  0  0  0  0  0  0  0  0  0
   22.5810   63.6550   -9.9270 C   0  0  1  0  0  0  0  0  0  0  0  0
   21.5080   63.1060  -10.5010 N   0  0  0  0  0  0  0  0  0  0  0  0
   20.4460   63.0840   -9.6780 C   0  0  0  0  0  0  0  0  0  0  0  0
   20.8930   63.6630   -8.5040 C   0  0  0  0  0  0  0  0  0  0  0  0
   19.0970   62.5730   -9.9170 C   0  0  0  0  0  0  0  0  0  0  0  0
   18.7650   61.2440   -9.9880 C   0  0  0  0  0  0  0  0  0  0  0  0
   17.4450   60.8320  -10.2190 C   0  0  0  0  0  0  0  0  0  0  0  0
   16.4190   61.7350  -10.3860 C   0  0  0  0  0  0  0  0  0  0  0  0
   16.7430   63.0720  -10.3180 C   0  0  0  0  0  0  0  0  0  0  0  0
   18.0420   63.4760  -10.0900 C   0  0  0  0  0  0  0  0  0  0  0  0
   15.1080   61.3410  -10.6160 O   0  0  0  0  0  0  0  0  0  0  0  0
   14.1860   62.2300  -11.2200 C   0  0  0  0  0  0  0  0  0  0  0  0
   21.8200   62.6900  -11.8640 C   0  0  0  0  0  0  0  0  0  0  0  0
   23.2870   62.9590  -12.0340 C   0  0  0  0  0  0  0  0  0  0  0  0
   23.7600   63.6870  -10.8260 C   0  0  0  0  0  0  0  0  0  0  0  0
   26.3230   61.5350   -2.3420 Cl  0  0  0  0  0  0  0  0  0  0  0  0
   23.6990   62.5140   -2.1300 H   0  0  0  0  0  0  0  0  0  0  0  0
   22.2650   63.6820   -3.6490 H   0  0  0  0  0  0  0  0  0  0  0  0
   25.3050   63.5890   -6.5970 H   0  0  0  0  0  0  0  0  0  0  0  0
   22.9740   65.8060   -7.9450 H   0  0  0  0  0  0  0  0  0  0  0  0
   24.1180   64.4780   -7.9720 H   0  0  0  0  0  0  0  0  0  0  0  0
   20.3180   63.8240   -7.5940 H   0  0  0  0  0  0  0  0  0  0  0  0
   19.5310   60.5090   -9.8650 H   0  0  0  0  0  0  0  0  0  0  0  0
   17.1950   59.7810  -10.2730 H   0  0  0  0  0  0  0  0  0  0  0  0
   15.9430   63.8020  -10.4490 H   0  0  0  0  0  0  0  0  0  0  0  0
   18.2920   64.5360  -10.0370 H   0  0  0  0  0  0  0  0  0  0  0  0
   14.4900   62.3240  -12.2950 H   0  0  0  0  0  0  0  0  0  0  0  0
   13.1670   61.7970  -11.1620 H   0  0  0  0  0  0  0  0  0  0  0  0
   14.2410   63.2370  -10.7540 H   0  0  0  0  0  0  0  0  0  0  0  0
   21.6830   61.5920  -12.0170 H   0  0  0  0  0  0  0  0  0  0  0  0
   21.1970   63.2490  -12.5890 H   0  0  0  0  0  0  0  0  0  0  0  0
   23.8890   62.0240  -12.1510 H   0  0  0  0  0  0  0  0  0  0  0  0
   23.4070   63.5610  -12.9800 H   0  0  0  0  0  0  0  0  0  0  0  0
   24.6390   63.2300  -10.3320 H   0  0  0  0  0  0  0  0  0  0  0  0
   24.0470   64.7360  -11.0920 H   0  0  0  0  0  0  0  0  0  0  0  0
  1  2  1  0  0  0  0
  2  3  1  0  0  0  0
  3  4  2  0  0  0  0
  3 27  1  0  0  0  0
  4 28  1  0  0  0  0
  5 29  1  0  0  0  0
  5  4  1  0  0  0  0
  6  5  2  0  0  0  0
  7  6  1  0  0  0  0
  7  2  2  0  0  0  0
  8  9  1  1  0  0  0
  8  6  1  0  0  0  0
 10  8  1  0  0  0  0
 11 15  1  0  0  0  0
 11 10  1  0  0  0  0
 12 26  1  6  0  0  0
 12 11  1  0  0  0  0
 13 12  1  0  0  0  0
 13 14  1  0  0  0  0
 14 15  2  0  0  0  0
 15 33  1  0  0  0  0
 16 14  1  0  0  0  0
 17 16  1  0  0  0  0
 17 34  1  0  0  0  0
 18 17  2  0  0  0  0
 19 20  2  0  0  0  0
 19 18  1  0  0  0  0
 20 21  1  0  0  0  0
 21 37  1  0  0  0  0
 21 16  2  0  0  0  0
 22 19  1  0  0  0  0
 23 39  1  0  0  0  0
 23 40  1  0  0  0  0
 23 22  1  0  0  0  0
 24 13  1  0  0  0  0
 25 24  1  0  0  0  0
 25 26  1  0  0  0  0
 26 45  1  0  0  0  0
 30  7  1  0  0  0  0
 31 10  1  0  0  0  0
 32 10  1  0  0  0  0
 35 18  1  0  0  0  0
 36 20  1  0  0  0  0
 38 23  1  0  0  0  0
 41 24  1  0  0  0  0
 42 24  1  0  0  0  0
 43 25  1  0  0  0  0
 44 25  1  0  0  0  0
 46 26  1  0  0  0  0
M  END
>  <Pose>
1

>  <Score>
-6.87

$$$$
