
 OpenBabel03202210193D

 44 47  0  0  1  0  0  0  0  0999 V2000
   15.1100   64.2150  -10.7600 Cl  0  0  0  0  0  0  0  0  0  0  0  0
   16.3980   63.1240  -10.2970 C   0  0  0  0  0  0  0  0  0  0  0  0
   16.1930   61.7820  -10.4290 C   0  0  0  0  0  0  0  0  0  0  0  0
   17.1880   60.9010  -10.0720 C   0  0  0  0  0  0  0  0  0  0  0  0
   18.3950   61.4040   -9.5800 C   0  0  0  0  0  0  0  0  0  0  0  0
   18.6090   62.7570   -9.4440 C   0  0  0  0  0  0  0  0  0  0  0  0
   17.6060   63.6090   -9.8050 C   0  0  0  0  0  0  0  0  0  0  0  0
   19.8900   63.2120   -8.9050 C   0  0  0  0  0  0  0  0  0  0  0  0
   21.1180   63.2650   -9.4840 N   0  0  0  0  0  0  0  0  0  0  0  0
   22.0010   63.7540   -8.6070 C   0  0  2  0  0  0  0  0  0  0  0  0
   21.3760   64.0340   -7.4230 N   0  0  0  0  0  0  0  0  0  0  0  0
   20.0900   63.6990   -7.6210 C   0  0  0  0  0  0  0  0  0  0  0  0
   21.9690   64.6130   -6.2530 C   0  0  0  0  0  0  0  0  0  0  0  0
   23.3510   64.4200   -5.9090 C   0  0  2  0  0  0  0  0  0  0  0  0
   24.1770   65.1870   -6.6160 O   0  0  0  0  0  0  0  0  0  0  0  0
   24.0430   63.5780   -4.9670 C   0  0  0  0  0  0  0  0  0  0  0  0
   25.1660   62.8300   -5.3870 C   0  0  0  0  0  0  0  0  0  0  0  0
   25.8880   62.0050   -4.5660 C   0  0  0  0  0  0  0  0  0  0  0  0
   25.4690   61.9190   -3.2530 C   0  0  0  0  0  0  0  0  0  0  0  0
   24.3770   62.6370   -2.8190 C   0  0  0  0  0  0  0  0  0  0  0  0
   23.6460   63.4760   -3.6610 C   0  0  0  0  0  0  0  0  0  0  0  0
   27.0100   61.2640   -5.0080 N   0  0  0  0  0  0  0  0  0  0  0  0
   27.0430   60.0440   -4.8150 O   0  0  0  0  0  0  0  0  0  0  0  0
   28.0600   61.8590   -5.6430 O   0  0  0  0  0  0  0  0  0  0  0  0
   23.3520   63.8390   -9.2060 C   0  0  0  0  0  0  0  0  0  0  0  0
   23.2490   62.8430  -10.3280 C   0  0  0  0  0  0  0  0  0  0  0  0
   21.8000   62.9570  -10.7420 C   0  0  0  0  0  0  0  0  0  0  0  0
   14.6760   61.1260  -11.0480 Cl  0  0  0  0  0  0  0  0  0  0  0  0
   17.0070   59.8510  -10.1830 H   0  0  0  0  0  0  0  0  0  0  0  0
   19.1360   60.6610   -9.3180 H   0  0  0  0  0  0  0  0  0  0  0  0
   17.6660   64.6800   -9.7290 H   0  0  0  0  0  0  0  0  0  0  0  0
   19.3100   63.8000   -6.8590 H   0  0  0  0  0  0  0  0  0  0  0  0
   21.7010   65.7250   -6.2960 H   0  0  0  0  0  0  0  0  0  0  0  0
   21.3000   64.2600   -5.3970 H   0  0  0  0  0  0  0  0  0  0  0  0
   25.4990   62.8950   -6.4240 H   0  0  0  0  0  0  0  0  0  0  0  0
   26.0330   61.2670   -2.5920 H   0  0  0  0  0  0  0  0  0  0  0  0
   24.0530   62.5620   -1.7750 H   0  0  0  0  0  0  0  0  0  0  0  0
   22.8150   63.9940   -3.2300 H   0  0  0  0  0  0  0  0  0  0  0  0
   24.1460   63.4960   -8.5210 H   0  0  0  0  0  0  0  0  0  0  0  0
   23.5730   64.8650   -9.6080 H   0  0  0  0  0  0  0  0  0  0  0  0
   23.4450   61.8400   -9.8890 H   0  0  0  0  0  0  0  0  0  0  0  0
   23.9280   63.0660  -11.1770 H   0  0  0  0  0  0  0  0  0  0  0  0
   21.7300   63.7990  -11.4610 H   0  0  0  0  0  0  0  0  0  0  0  0
   21.4540   61.9910  -11.1850 H   0  0  0  0  0  0  0  0  0  0  0  0
  1  2  1  0  0  0  0
  2  7  1  0  0  0  0
  3  2  2  0  0  0  0
  3  4  1  0  0  0  0
  4  5  2  0  0  0  0
  5  6  1  0  0  0  0
  5 30  1  0  0  0  0
  6  8  1  0  0  0  0
  7 31  1  0  0  0  0
  7  6  2  0  0  0  0
  8 12  2  0  0  0  0
  9  8  1  0  0  0  0
 10  9  1  6  0  0  0
 10 11  1  0  0  0  0
 11 13  1  0  0  0  0
 12 11  1  0  0  0  0
 12 32  1  0  0  0  0
 13 14  1  0  0  0  0
 13 34  1  0  0  0  0
 14 15  1  6  0  0  0
 14 16  1  0  0  0  0
 16 21  1  0  0  0  0
 17 16  2  0  0  0  0
 17 18  1  0  0  0  0
 18 19  2  0  0  0  0
 19 20  1  0  0  0  0
 19 36  1  0  0  0  0
 20 37  1  0  0  0  0
 21 38  1  0  0  0  0
 21 20  2  0  0  0  0
 22 23  2  0  0  0  0
 22 18  1  0  0  0  0
 24 22  2  0  0  0  0
 25 10  1  0  0  0  0
 25 39  1  0  0  0  0
 26 41  1  0  0  0  0
 26 25  1  0  0  0  0
 27 26  1  0  0  0  0
 27  9  1  0  0  0  0
 28  3  1  0  0  0  0
 29  4  1  0  0  0  0
 33 13  1  0  0  0  0
 35 17  1  0  0  0  0
 40 25  1  0  0  0  0
 42 26  1  0  0  0  0
 43 27  1  0  0  0  0
 44 27  1  0  0  0  0
M  END
>  <Pose>
1

>  <Score>
-9.23

$$$$
