
 OpenBabel03202210193D

 44 47  0  0  1  0  0  0  0  0999 V2000
   15.0480   64.0360  -10.4580 Cl  0  0  0  0  0  0  0  0  0  0  0  0
   16.3800   62.9640  -10.1610 C   0  0  0  0  0  0  0  0  0  0  0  0
   16.2390   61.6120  -10.3210 C   0  0  0  0  0  0  0  0  0  0  0  0
   17.3280   60.8120  -10.0690 C   0  0  0  0  0  0  0  0  0  0  0  0
   18.5190   61.3590   -9.6720 C   0  0  0  0  0  0  0  0  0  0  0  0
   18.6990   62.7350   -9.5000 C   0  0  0  0  0  0  0  0  0  0  0  0
   17.6130   63.5070   -9.7510 C   0  0  0  0  0  0  0  0  0  0  0  0
   19.9900   63.2600   -9.0540 C   0  0  0  0  0  0  0  0  0  0  0  0
   21.1560   63.3850   -9.7070 N   0  0  0  0  0  0  0  0  0  0  0  0
   22.0780   63.9270   -8.8840 C   0  0  2  0  0  0  0  0  0  0  0  0
   21.4930   64.1480   -7.6940 N   0  0  0  0  0  0  0  0  0  0  0  0
   20.1920   63.7470   -7.7530 C   0  0  0  0  0  0  0  0  0  0  0  0
   22.1040   64.7420   -6.5620 C   0  0  0  0  0  0  0  0  0  0  0  0
   23.4680   64.5070   -6.1850 C   0  0  2  0  0  0  0  0  0  0  0  0
   24.3020   65.2660   -6.8670 O   0  0  0  0  0  0  0  0  0  0  0  0
   24.0830   63.6200   -5.2260 C   0  0  0  0  0  0  0  0  0  0  0  0
   25.2510   62.9340   -5.4260 C   0  0  0  0  0  0  0  0  0  0  0  0
   25.7890   62.0910   -4.4490 C   0  0  0  0  0  0  0  0  0  0  0  0
   25.1530   61.9320   -3.2600 C   0  0  0  0  0  0  0  0  0  0  0  0
   23.9760   62.6110   -3.0320 C   0  0  0  0  0  0  0  0  0  0  0  0
   23.4410   63.4390   -3.9810 C   0  0  0  0  0  0  0  0  0  0  0  0
   27.0110   61.4030   -4.7200 N   0  0  0  0  0  0  0  0  0  0  0  0
   27.0410   60.1620   -4.6600 O   0  0  0  0  0  0  0  0  0  0  0  0
   28.1520   62.0660   -5.0430 O   0  0  0  0  0  0  0  0  0  0  0  0
   23.3670   64.0810   -9.5980 C   0  0  0  0  0  0  0  0  0  0  0  0
   23.2560   62.9370  -10.5720 C   0  0  0  0  0  0  0  0  0  0  0  0
   21.7920   63.1280  -11.0050 C   0  0  0  0  0  0  0  0  0  0  0  0
   14.7220   60.9020  -10.8280 Cl  0  0  0  0  0  0  0  0  0  0  0  0
   17.2560   59.7240  -10.1860 H   0  0  0  0  0  0  0  0  0  0  0  0
   19.3500   60.7070   -9.4860 H   0  0  0  0  0  0  0  0  0  0  0  0
   17.6600   64.5680   -9.6320 H   0  0  0  0  0  0  0  0  0  0  0  0
   19.4840   63.8000   -6.9600 H   0  0  0  0  0  0  0  0  0  0  0  0
   21.4710   64.5160   -5.6290 H   0  0  0  0  0  0  0  0  0  0  0  0
   21.9950   65.8800   -6.6660 H   0  0  0  0  0  0  0  0  0  0  0  0
   25.7960   63.0210   -6.3520 H   0  0  0  0  0  0  0  0  0  0  0  0
   25.5960   61.2640   -2.5060 H   0  0  0  0  0  0  0  0  0  0  0  0
   23.4640   62.4810   -2.0670 H   0  0  0  0  0  0  0  0  0  0  0  0
   22.5060   63.9540   -3.7530 H   0  0  0  0  0  0  0  0  0  0  0  0
   23.3590   65.0600  -10.1320 H   0  0  0  0  0  0  0  0  0  0  0  0
   24.2460   63.9730   -8.9360 H   0  0  0  0  0  0  0  0  0  0  0  0
   23.2650   62.0010   -9.9870 H   0  0  0  0  0  0  0  0  0  0  0  0
   23.9410   62.9740  -11.4030 H   0  0  0  0  0  0  0  0  0  0  0  0
   21.7450   64.0390  -11.5910 H   0  0  0  0  0  0  0  0  0  0  0  0
   21.4360   62.2030  -11.4900 H   0  0  0  0  0  0  0  0  0  0  0  0
  1  2  1  0  0  0  0
  2  7  1  0  0  0  0
  3  2  2  0  0  0  0
  3  4  1  0  0  0  0
  4  5  2  0  0  0  0
  5  6  1  0  0  0  0
  5 30  1  0  0  0  0
  6  8  1  0  0  0  0
  7 31  1  0  0  0  0
  7  6  2  0  0  0  0
  8 12  2  0  0  0  0
  9  8  1  0  0  0  0
 10  9  1  6  0  0  0
 10 11  1  0  0  0  0
 11 13  1  0  0  0  0
 12 11  1  0  0  0  0
 12 32  1  0  0  0  0
 13 14  1  0  0  0  0
 13 33  1  0  0  0  0
 14 15  1  6  0  0  0
 14 16  1  0  0  0  0
 16 21  1  0  0  0  0
 17 16  2  0  0  0  0
 17 18  1  0  0  0  0
 18 19  2  0  0  0  0
 19 20  1  0  0  0  0
 19 36  1  0  0  0  0
 20 37  1  0  0  0  0
 21 38  1  0  0  0  0
 21 20  2  0  0  0  0
 22 23  2  0  0  0  0
 22 18  1  0  0  0  0
 24 22  2  0  0  0  0
 25 40  1  0  0  0  0
 25 10  1  0  0  0  0
 26 41  1  0  0  0  0
 26 25  1  0  0  0  0
 27 26  1  0  0  0  0
 27  9  1  0  0  0  0
 28  3  1  0  0  0  0
 29  4  1  0  0  0  0
 34 13  1  0  0  0  0
 35 17  1  0  0  0  0
 39 25  1  0  0  0  0
 42 26  1  0  0  0  0
 43 27  1  0  0  0  0
 44 27  1  0  0  0  0
M  END
>  <Pose>
1

>  <Score>
-9.41

$$$$
