
 OpenBabel03202210193D

 55 58  0  0  0  0  0  0  0  0999 V2000
   21.9660   64.0560   -9.7380 S   0  0  0  0  0  0  0  0  0  0  0  0
   21.3730   65.4410  -10.0210 O   0  0  0  0  0  0  0  0  0  0  0  0
   23.1860   64.0070  -10.6610 O   0  0  0  0  0  0  0  0  0  0  0  0
   20.8660   62.9150  -10.2060 N   0  0  0  0  0  0  0  0  0  0  0  0
   20.1840   62.9290  -11.4180 C   0  0  0  0  0  0  0  0  0  0  0  0
   18.8490   63.6020  -11.4300 C   0  0  0  0  0  0  0  0  0  0  0  0
   18.2940   63.6320  -10.0080 C   0  0  0  0  0  0  0  0  0  0  0  0
   18.6380   62.2380   -9.4590 C   0  0  0  0  0  0  0  0  0  0  0  0
   20.1170   62.3040   -9.1140 C   0  0  0  0  0  0  0  0  0  0  0  0
   16.8640   63.8900   -9.9790 C   0  0  0  0  0  0  0  0  0  0  0  0
   16.4230   64.8700   -9.3250 O   0  0  0  0  0  0  0  0  0  0  0  0
   15.9580   63.0750  -10.6660 N   0  0  0  0  0  0  0  0  0  0  0  0
   15.7600   61.6560  -10.3490 C   0  0  0  0  0  0  0  0  0  0  0  0
   14.8680   61.0980  -11.4380 C   0  0  0  0  0  0  0  0  0  0  0  0
   13.5780   61.7580  -11.4220 N   0  0  0  0  0  0  0  0  0  0  0  0
   13.7130   63.1890  -11.6330 C   0  0  0  0  0  0  0  0  0  0  0  0
   15.1740   63.5870  -11.7550 C   0  0  0  0  0  0  0  0  0  0  0  0
   12.6840   61.1780  -12.4010 C   0  0  0  0  0  0  0  0  0  0  0  0
   22.4750   64.0990   -8.0750 C   0  0  0  0  0  0  0  0  0  0  0  0
   23.7540   63.6240   -7.7390 C   0  0  0  0  0  0  0  0  0  0  0  0
   24.2070   63.5790   -6.4460 C   0  0  0  0  0  0  0  0  0  0  0  0
   23.4030   64.0070   -5.4350 C   0  0  0  0  0  0  0  0  0  0  0  0
   22.1440   64.4820   -5.7030 C   0  0  0  0  0  0  0  0  0  0  0  0
   21.7070   64.5190   -7.0290 C   0  0  0  0  0  0  0  0  0  0  0  0
   20.1200   65.2080   -7.3220 Cl  0  0  0  0  0  0  0  0  0  0  0  0
   23.8930   63.9470   -4.0850 N   0  0  0  0  0  0  0  0  0  0  0  0
   25.1960   63.4460   -3.8360 C   0  0  0  0  0  0  0  0  0  0  0  0
   25.8100   63.7110   -2.7820 O   0  0  0  0  0  0  0  0  0  0  0  0
   25.8110   62.5880   -4.8820 C   0  0  0  0  0  0  0  0  0  0  0  0
   25.4890   63.0980   -6.1490 O   0  0  0  0  0  0  0  0  0  0  0  0
   20.7920   63.2760  -12.2540 H   0  0  0  0  0  0  0  0  0  0  0  0
   20.0130   61.8150  -11.6900 H   0  0  0  0  0  0  0  0  0  0  0  0
   18.1320   62.9750  -12.0170 H   0  0  0  0  0  0  0  0  0  0  0  0
   18.8140   64.5990  -11.8780 H   0  0  0  0  0  0  0  0  0  0  0  0
   18.8740   64.3770   -9.4390 H   0  0  0  0  0  0  0  0  0  0  0  0
   18.0310   61.9430   -8.6100 H   0  0  0  0  0  0  0  0  0  0  0  0
   18.5110   61.5400  -10.3360 H   0  0  0  0  0  0  0  0  0  0  0  0
   20.5040   61.3130   -8.8260 H   0  0  0  0  0  0  0  0  0  0  0  0
   20.2160   62.9730   -8.2390 H   0  0  0  0  0  0  0  0  0  0  0  0
   15.1890   61.6350   -9.3730 H   0  0  0  0  0  0  0  0  0  0  0  0
   16.7120   61.1280  -10.2840 H   0  0  0  0  0  0  0  0  0  0  0  0
   15.4120   61.2400  -12.4130 H   0  0  0  0  0  0  0  0  0  0  0  0
   14.7380   60.0120  -11.2700 H   0  0  0  0  0  0  0  0  0  0  0  0
   13.2620   63.7500  -10.8050 H   0  0  0  0  0  0  0  0  0  0  0  0
   13.2450   63.4270  -12.6090 H   0  0  0  0  0  0  0  0  0  0  0  0
   15.6040   63.2300  -12.7230 H   0  0  0  0  0  0  0  0  0  0  0  0
   15.2370   64.6740  -11.7820 H   0  0  0  0  0  0  0  0  0  0  0  0
   11.6670   61.5560  -12.1920 H   0  0  0  0  0  0  0  0  0  0  0  0
   12.6720   60.0840  -12.2890 H   0  0  0  0  0  0  0  0  0  0  0  0
   12.9340   61.5020  -13.4430 H   0  0  0  0  0  0  0  0  0  0  0  0
   24.3890   63.2840   -8.5580 H   0  0  0  0  0  0  0  0  0  0  0  0
   21.5100   64.8180   -4.9130 H   0  0  0  0  0  0  0  0  0  0  0  0
   23.2860   64.2720   -3.3060 H   0  0  0  0  0  0  0  0  0  0  0  0
   26.9160   62.5500   -4.7660 H   0  0  0  0  0  0  0  0  0  0  0  0
   25.4300   61.5580   -4.8270 H   0  0  0  0  0  0  0  0  0  0  0  0
  1 19  1  0  0  0  0
  2  1  2  0  0  0  0
  3  1  2  0  0  0  0
  4  1  1  0  0  0  0
  4  9  1  0  0  0  0
  5  4  1  0  0  0  0
  6  5  1  0  0  0  0
  6  7  1  0  0  0  0
  7 10  1  0  0  0  0
  7  8  1  0  0  0  0
  7 35  1  0  0  0  0
  8  9  1  0  0  0  0
  8 36  1  0  0  0  0
  9 38  1  0  0  0  0
  9 39  1  0  0  0  0
 10 11  2  0  0  0  0
 12 13  1  0  0  0  0
 12 10  1  0  0  0  0
 13 41  1  0  0  0  0
 13 40  1  0  0  0  0
 14 15  1  0  0  0  0
 14 43  1  0  0  0  0
 14 13  1  0  0  0  0
 16 15  1  0  0  0  0
 16 44  1  0  0  0  0
 17 16  1  0  0  0  0
 17 12  1  0  0  0  0
 18 49  1  0  0  0  0
 18 48  1  0  0  0  0
 18 15  1  0  0  0  0
 19 20  2  0  0  0  0
 19 24  1  0  0  0  0
 20 21  1  0  0  0  0
 21 30  1  0  0  0  0
 21 22  2  0  0  0  0
 22 26  1  0  0  0  0
 23 22  1  0  0  0  0
 23 52  1  0  0  0  0
 24 23  2  0  0  0  0
 25 24  1  0  0  0  0
 26 27  1  0  0  0  0
 26 53  1  0  0  0  0
 27 28  2  0  0  0  0
 29 55  1  0  0  0  0
 29 54  1  0  0  0  0
 29 27  1  0  0  0  0
 30 29  1  0  0  0  0
 31  5  1  0  0  0  0
 32  5  1  0  0  0  0
 33  6  1  0  0  0  0
 34  6  1  0  0  0  0
 37  8  1  0  0  0  0
 42 14  1  0  0  0  0
 45 16  1  0  0  0  0
 46 17  1  0  0  0  0
 47 17  1  0  0  0  0
 50 18  1  0  0  0  0
 51 20  1  0  0  0  0
M  END
>  <Pose>
1

>  <Score>
-7.42

$$$$
