
 OpenBabel03202210193D

 60 63  0  0  1  0  0  0  0  0999 V2000
   25.9600   61.5070   -3.3300 Cl  0  0  0  0  0  0  0  0  0  0  0  0
   25.0510   62.5680   -4.4060 C   0  0  0  0  0  0  0  0  0  0  0  0
   25.5750   62.9760   -5.6190 C   0  0  0  0  0  0  0  0  0  0  0  0
   24.8520   63.8060   -6.4490 C   0  0  0  0  0  0  0  0  0  0  0  0
   23.5930   64.2690   -6.1310 C   0  0  0  0  0  0  0  0  0  0  0  0
   23.0800   63.8450   -4.8980 C   0  0  0  0  0  0  0  0  0  0  0  0
   23.7990   63.0170   -4.0680 C   0  0  0  0  0  0  0  0  0  0  0  0
   22.8380   65.1610   -7.0440 C   0  0  2  0  0  0  0  0  0  0  0  0
   22.1010   66.0910   -6.1780 N   0  0  0  0  0  0  0  0  0  0  0  0
   21.0740   65.3060   -5.5880 C   0  0  0  0  0  0  0  0  0  0  0  0
   20.5270   65.5000   -4.4900 O   0  0  0  0  0  0  0  0  0  0  0  0
   20.7920   64.2290   -6.5310 C   0  0  0  0  0  0  0  0  0  0  0  0
   19.9630   63.2730   -6.4630 O   0  0  0  0  0  0  0  0  0  0  0  0
   21.6960   64.4370   -7.6720 C   0  0  0  0  0  0  0  0  0  0  0  0
   21.5040   64.0330   -8.9130 C   0  0  0  0  0  0  0  0  0  0  0  0
   22.5030   64.2890   -9.8560 O   0  0  0  0  0  0  0  0  0  0  0  0
   20.3000   63.3380   -9.3430 C   0  0  0  0  0  0  0  0  0  0  0  0
   19.1200   64.0080   -9.6210 C   0  0  0  0  0  0  0  0  0  0  0  0
   17.9730   63.3430  -10.0040 C   0  0  0  0  0  0  0  0  0  0  0  0
   17.9620   61.9610  -10.1240 C   0  0  0  0  0  0  0  0  0  0  0  0
   19.1280   61.2830   -9.8510 C   0  0  0  0  0  0  0  0  0  0  0  0
   20.2840   61.9680   -9.4640 C   0  0  0  0  0  0  0  0  0  0  0  0
   16.8140   61.2750  -10.5100 O   0  0  0  0  0  0  0  0  0  0  0  0
   16.6150   59.9680  -10.0490 C   0  0  0  0  0  0  0  0  0  0  0  0
   16.7360   64.1010  -10.2900 C   0  0  0  0  0  0  0  0  0  0  0  0
   22.3780   67.5130   -5.9720 C   0  0  0  0  0  0  0  0  0  0  0  0
   23.5690   67.8490   -6.8390 C   0  0  0  0  0  0  0  0  0  0  0  0
   23.4620   69.1500   -7.4430 N   0  0  0  0  0  4  0  0  0  0  0  0
   24.6690   69.5010   -8.1180 C   0  0  0  0  0  0  0  0  0  0  0  0
   25.6260   70.3510   -7.3510 C   0  0  0  0  0  0  0  0  0  0  0  0
   25.0530   71.2320   -6.4740 O   0  0  0  0  0  0  0  0  0  0  0  0
   24.1560   70.6320   -5.6000 C   0  0  0  0  0  0  0  0  0  0  0  0
   23.0330   70.0840   -6.4410 C   0  0  0  0  0  0  0  0  0  0  0  0
   26.5570   62.6350   -5.9030 H   0  0  0  0  0  0  0  0  0  0  0  0
   25.2420   64.1470   -7.4190 H   0  0  0  0  0  0  0  0  0  0  0  0
   22.0920   64.2130   -4.6570 H   0  0  0  0  0  0  0  0  0  0  0  0
   23.3820   62.7050   -3.1280 H   0  0  0  0  0  0  0  0  0  0  0  0
   23.4700   65.6830   -7.7680 H   0  0  0  0  0  0  0  0  0  0  0  0
   19.1560   65.1030   -9.5180 H   0  0  0  0  0  0  0  0  0  0  0  0
   19.1320   60.1870   -9.9420 H   0  0  0  0  0  0  0  0  0  0  0  0
   21.1600   61.3810   -9.2450 H   0  0  0  0  0  0  0  0  0  0  0  0
   17.4230   59.2880  -10.4440 H   0  0  0  0  0  0  0  0  0  0  0  0
   15.6720   59.5390  -10.4530 H   0  0  0  0  0  0  0  0  0  0  0  0
   16.5570   59.8980   -8.9420 H   0  0  0  0  0  0  0  0  0  0  0  0
   16.0640   64.1270   -9.3840 H   0  0  0  0  0  0  0  0  0  0  0  0
   16.1370   63.6380  -11.0980 H   0  0  0  0  0  0  0  0  0  0  0  0
   16.9670   65.1610  -10.5500 H   0  0  0  0  0  0  0  0  0  0  0  0
   22.6520   67.7280   -4.9260 H   0  0  0  0  0  0  0  0  0  0  0  0
   21.4860   68.0830   -6.2220 H   0  0  0  0  0  0  0  0  0  0  0  0
   24.5000   67.8130   -6.2450 H   0  0  0  0  0  0  0  0  0  0  0  0
   23.7050   67.1190   -7.6700 H   0  0  0  0  0  0  0  0  0  0  0  0
   22.7040   69.0590   -8.1780 H   0  0  0  0  0  0  0  0  0  0  0  0
   24.3950   70.0840   -9.0480 H   0  0  0  0  0  0  0  0  0  0  0  0
   25.1550   68.5720   -8.5240 H   0  0  0  0  0  0  0  0  0  0  0  0
   26.2890   70.9290   -8.0410 H   0  0  0  0  0  0  0  0  0  0  0  0
   26.3210   69.6640   -6.7840 H   0  0  0  0  0  0  0  0  0  0  0  0
   23.7140   71.4730   -4.9960 H   0  0  0  0  0  0  0  0  0  0  0  0
   24.6240   69.8810   -4.9480 H   0  0  0  0  0  0  0  0  0  0  0  0
   22.3050   69.6300   -5.7220 H   0  0  0  0  0  0  0  0  0  0  0  0
   22.4980   70.9630   -6.8760 H   0  0  0  0  0  0  0  0  0  0  0  0
  2  7  1  0  0  0  0
  2  1  1  0  0  0  0
  3  2  2  0  0  0  0
  4  5  2  0  0  0  0
  4  3  1  0  0  0  0
  5  6  1  0  0  0  0
  6 36  1  0  0  0  0
  6  7  2  0  0  0  0
  7 37  1  0  0  0  0
  8 38  1  6  0  0  0
  8  9  1  0  0  0  0
  8  5  1  0  0  0  0
  9 26  1  0  0  0  0
  9 10  1  0  0  0  0
 10 11  2  0  0  0  0
 12 13  2  0  0  0  0
 12 10  1  0  0  0  0
 14  8  1  0  0  0  0
 14 12  1  0  0  0  0
 15 14  2  0  0  0  0
 16 15  1  0  0  0  0
 17 15  1  0  0  0  0
 18 39  1  0  0  0  0
 18 17  2  0  0  0  0
 19 18  1  0  0  0  0
 20 19  2  0  0  0  0
 20 21  1  0  0  0  0
 21 22  2  0  0  0  0
 22 17  1  0  0  0  0
 22 41  1  0  0  0  0
 23 20  1  0  0  0  0
 23 24  1  0  0  0  0
 24 44  1  0  0  0  0
 25 19  1  0  0  0  0
 25 45  1  0  0  0  0
 26 48  1  0  0  0  0
 27 50  1  0  0  0  0
 27 26  1  0  0  0  0
 28 27  1  0  0  0  0
 28 33  1  0  0  0  0
 29 28  1  0  0  0  0
 29 30  1  0  0  0  0
 30 56  1  0  0  0  0
 30 31  1  0  0  0  0
 31 32  1  0  0  0  0
 32 57  1  0  0  0  0
 32 58  1  0  0  0  0
 33 59  1  0  0  0  0
 33 32  1  0  0  0  0
 34  3  1  0  0  0  0
 35  4  1  0  0  0  0
 40 21  1  0  0  0  0
 42 24  1  0  0  0  0
 43 24  1  0  0  0  0
 46 25  1  0  0  0  0
 47 25  1  0  0  0  0
 49 26  1  0  0  0  0
 51 27  1  0  0  0  0
 52 28  1  0  0  0  0
 53 29  1  0  0  0  0
 54 29  1  0  0  0  0
 55 30  1  0  0  0  0
 60 33  1  0  0  0  0
M  END
>  <Pose>
1

>  <Score>
-4.93

$$$$
