
 OpenBabel03202210193D

 39 42  0  0  1  0  0  0  0  0999 V2000
   24.3050   63.1190   -5.2600 B   0  0  0  0  0  0  0  0  0  0  0  0
   23.3480   64.1330   -6.5700 C   0  0  0  0  0  0  0  0  0  0  0  0
   23.0760   63.5800   -7.8250 C   0  0  0  0  0  0  0  0  0  0  0  0
   22.3830   64.3020   -8.7800 C   0  0  0  0  0  0  0  0  0  0  0  0
   21.9730   65.5770   -8.4490 C   0  0  0  0  0  0  0  0  0  0  0  0
   22.2470   66.1190   -7.1990 C   0  0  0  0  0  0  0  0  0  0  0  0
   22.9360   65.3980   -6.2520 C   0  0  0  0  0  0  0  0  0  0  0  0
   21.6470   67.9030   -6.7910 B   0  0  0  0  0  0  0  0  0  0  0  0
   22.0830   63.7330  -10.1450 C   0  0  1  0  0  0  0  0  0  0  0  0
   22.8400   62.5540  -10.3320 N   0  0  0  0  0  4  0  0  0  0  0  0
   22.1410   61.4050  -10.8290 C   0  0  2  0  0  0  0  0  0  0  0  0
   20.9330   61.1240   -9.9200 C   0  0  0  0  0  0  0  0  0  0  0  0
   20.0710   62.3070  -10.1030 C   0  0  0  0  0  0  0  0  0  0  0  0
   18.6950   62.4350  -10.2050 C   0  0  0  0  0  0  0  0  0  0  0  0
   18.4400   63.7780  -10.3770 C   0  0  0  0  0  0  0  0  0  0  0  0
   19.5980   64.4570  -10.3820 N   0  0  0  0  0  0  0  0  0  0  0  0
   20.6140   63.5490  -10.2120 C   0  0  0  0  0  0  0  0  0  0  0  0
   17.1210   64.1720  -10.5080 C   0  0  0  0  0  0  0  0  0  0  0  0
   16.1340   63.2190  -10.4610 C   0  0  0  0  0  0  0  0  0  0  0  0
   16.3920   61.8770  -10.2900 C   0  0  0  0  0  0  0  0  0  0  0  0
   17.7170   61.4660  -10.1560 C   0  0  0  0  0  0  0  0  0  0  0  0
   23.0510   60.2430  -10.8670 C   0  0  0  0  0  0  0  0  0  0  0  0
   24.2500   60.3950  -10.5160 O   0  0  0  0  0  0  0  0  0  0  0  0
   22.5710   59.0140  -11.2880 O   0  0  0  0  0  0  0  0  0  0  0  0
   23.5330   62.3060   -8.0360 O   0  0  0  0  0  0  0  0  0  0  0  0
   21.4240   66.1950   -9.1610 H   0  0  0  0  0  0  0  0  0  0  0  0
   23.1550   65.8140   -5.2690 H   0  0  0  0  0  0  0  0  0  0  0  0
   22.3720   64.5530  -10.8620 H   0  0  0  0  0  0  0  0  0  0  0  0
   23.6110   62.7770  -11.0410 H   0  0  0  0  0  0  0  0  0  0  0  0
   23.3630   62.2360   -9.4780 H   0  0  0  0  0  0  0  0  0  0  0  0
   21.7560   61.6500  -11.8450 H   0  0  0  0  0  0  0  0  0  0  0  0
   20.4460   60.1830  -10.2480 H   0  0  0  0  0  0  0  0  0  0  0  0
   21.3610   61.0370   -8.9040 H   0  0  0  0  0  0  0  0  0  0  0  0
   19.7590   65.4920  -10.4900 H   0  0  0  0  0  0  0  0  0  0  0  0
   16.9140   65.2320  -10.6430 H   0  0  0  0  0  0  0  0  0  0  0  0
   15.0920   63.5410  -10.5660 H   0  0  0  0  0  0  0  0  0  0  0  0
   15.5980   61.1170  -10.2540 H   0  0  0  0  0  0  0  0  0  0  0  0
   17.9870   60.4290  -10.0190 H   0  0  0  0  0  0  0  0  0  0  0  0
   23.0760   61.5890   -8.5300 H   0  0  0  0  0  0  0  0  0  0  0  0
  2  7  1  0  0  0  0
  2  1  1  0  0  0  0
  3  2  2  0  0  0  0
  4  5  2  0  0  0  0
  4  3  1  0  0  0  0
  5  6  1  0  0  0  0
  6  8  1  0  0  0  0
  6  7  2  0  0  0  0
  7 27  1  0  0  0  0
  9 28  1  6  0  0  0
  9  4  1  0  0  0  0
 10  9  1  0  0  0  0
 10 30  1  0  0  0  0
 11 31  1  6  0  0  0
 11 10  1  0  0  0  0
 11 12  1  0  0  0  0
 12 33  1  0  0  0  0
 13 12  1  0  0  0  0
 14 21  1  0  0  0  0
 14 13  1  0  0  0  0
 15 14  2  0  0  0  0
 16 15  1  0  0  0  0
 16 17  1  0  0  0  0
 17  9  1  0  0  0  0
 17 13  2  0  0  0  0
 18 19  2  0  0  0  0
 18 15  1  0  0  0  0
 19 20  1  0  0  0  0
 20 37  1  0  0  0  0
 20 21  2  0  0  0  0
 21 38  1  0  0  0  0
 22 11  1  0  0  0  0
 22 23  1  0  0  0  0
 24 22  2  0  0  0  0
 25  3  1  0  0  0  0
 26  5  1  0  0  0  0
 29 10  1  0  0  0  0
 32 12  1  0  0  0  0
 34 16  1  0  0  0  0
 35 18  1  0  0  0  0
 36 19  1  0  0  0  0
 39 25  1  0  0  0  0
M  END
>  <Pose>
1

>  <Score>
-5.50

$$$$
