
 OpenBabel03202210193D

 46 49  0  0  1  0  0  0  0  0999 V2000
   21.9820   73.4200   -6.6020 B   0  0  0  0  0  0  0  0  0  0  0  0
   22.6190   71.6040   -6.4830 C   0  0  0  0  0  0  0  0  0  0  0  0
   21.7660   70.5420   -6.6660 C   0  0  0  0  0  0  0  0  0  0  0  0
   22.1780   69.2690   -6.5910 N   0  0  0  0  0  0  0  0  0  0  0  0
   23.4760   68.9710   -6.3270 C   0  0  0  0  0  0  0  0  0  0  0  0
   23.9360   67.7210   -6.2420 N   0  0  0  0  0  0  0  0  0  0  0  0
   23.1320   66.6530   -6.4150 C   0  0  0  0  0  0  0  0  0  0  0  0
   21.8050   66.9160   -6.6850 C   0  0  0  0  0  0  0  0  0  0  0  0
   21.3420   68.2140   -6.7700 C   0  0  0  0  0  0  0  0  0  0  0  0
   20.1360   68.4980   -7.0150 O   0  0  0  0  0  0  0  0  0  0  0  0
   23.6140   65.2540   -6.3270 C   0  0  0  0  0  0  0  0  0  0  0  0
   22.7940   64.3530   -7.0170 O   0  0  0  0  0  0  0  0  0  0  0  0
   22.7890   64.1580   -8.3790 C   0  0  0  0  0  0  0  0  0  0  0  0
   23.7260   63.4450   -8.8380 O   0  0  0  0  0  0  0  0  0  0  0  0
   21.7530   64.7420   -9.2730 C   0  0  0  0  0  0  0  0  0  0  0  0
   20.9060   63.7040   -9.8620 N   0  0  0  0  0  0  0  0  0  0  0  0
   19.8950   62.9410   -9.2110 C   0  0  0  0  0  0  0  0  0  0  0  0
   19.4300   63.1490   -8.0620 O   0  0  0  0  0  0  0  0  0  0  0  0
   19.4840   61.8540  -10.1300 C   0  0  2  0  0  0  0  0  0  0  0  0
   19.6990   62.5280  -11.4640 C   0  0  1  0  0  0  0  0  0  0  0  0
   18.6100   63.5270  -11.8020 C   0  0  0  0  0  0  0  0  0  0  0  0
   17.4610   63.5000  -10.8290 C   0  0  0  0  0  0  0  0  0  0  0  0
   17.0190   62.0910  -10.5520 C   0  0  0  0  0  0  0  0  0  0  0  0
   18.1240   61.3330   -9.9050 C   0  0  0  0  0  0  0  0  0  0  0  0
   20.9580   63.2660  -11.2090 C   0  0  0  0  0  0  0  0  0  0  0  0
   21.9120   63.4790  -12.0210 O   0  0  0  0  0  0  0  0  0  0  0  0
   24.3710   70.0220   -6.1360 C   0  0  0  0  0  0  0  0  0  0  0  0
   23.9350   71.3270   -6.2160 C   0  0  0  0  0  0  0  0  0  0  0  0
   20.7320   70.7530   -6.8760 H   0  0  0  0  0  0  0  0  0  0  0  0
   21.0760   66.1190   -6.8400 H   0  0  0  0  0  0  0  0  0  0  0  0
   24.6230   65.2300   -6.7820 H   0  0  0  0  0  0  0  0  0  0  0  0
   23.6330   64.9920   -5.2380 H   0  0  0  0  0  0  0  0  0  0  0  0
   21.0950   65.4550   -8.7550 H   0  0  0  0  0  0  0  0  0  0  0  0
   22.2810   65.2940  -10.0730 H   0  0  0  0  0  0  0  0  0  0  0  0
   20.2380   61.0500  -10.0550 H   0  0  0  0  0  0  0  0  0  0  0  0
   19.8190   61.7800  -12.2820 H   0  0  0  0  0  0  0  0  0  0  0  0
   18.1940   63.3330  -12.8270 H   0  0  0  0  0  0  0  0  0  0  0  0
   18.9880   64.5610  -11.8430 H   0  0  0  0  0  0  0  0  0  0  0  0
   16.5890   63.9980  -11.3400 H   0  0  0  0  0  0  0  0  0  0  0  0
   17.6330   64.0830   -9.9160 H   0  0  0  0  0  0  0  0  0  0  0  0
   16.6940   61.6520  -11.5250 H   0  0  0  0  0  0  0  0  0  0  0  0
   16.1000   62.1500   -9.9180 H   0  0  0  0  0  0  0  0  0  0  0  0
   18.0860   60.2780  -10.3060 H   0  0  0  0  0  0  0  0  0  0  0  0
   17.9630   61.2170   -8.8100 H   0  0  0  0  0  0  0  0  0  0  0  0
   25.3970   69.7960   -5.9280 H   0  0  0  0  0  0  0  0  0  0  0  0
   24.6160   72.1500   -6.0710 H   0  0  0  0  0  0  0  0  0  0  0  0
  1  2  1  0  0  0  0
  2 28  2  0  0  0  0
  3  4  1  0  0  0  0
  3  2  1  0  0  0  0
  4  5  1  0  0  0  0
  5  6  1  0  0  0  0
  5 27  2  0  0  0  0
  7 11  1  0  0  0  0
  7  6  2  0  0  0  0
  8  7  1  0  0  0  0
  9  8  1  0  0  0  0
  9  4  1  0  0  0  0
 10  9  2  0  0  0  0
 11 32  1  0  0  0  0
 12 11  1  0  0  0  0
 13 12  1  0  0  0  0
 14 13  2  0  0  0  0
 15 33  1  0  0  0  0
 15 13  1  0  0  0  0
 16 15  1  0  0  0  0
 16 17  1  0  0  0  0
 17 18  2  0  0  0  0
 19 35  1  1  0  0  0
 19 24  1  0  0  0  0
 19 17  1  0  0  0  0
 20 36  1  6  0  0  0
 20 25  1  0  0  0  0
 20 19  1  0  0  0  0
 21 20  1  0  0  0  0
 21 22  1  0  0  0  0
 22 23  1  0  0  0  0
 22 40  1  0  0  0  0
 23 42  1  0  0  0  0
 23 24  1  0  0  0  0
 24 44  1  0  0  0  0
 25 16  1  0  0  0  0
 26 25  2  0  0  0  0
 27 45  1  0  0  0  0
 28 27  1  0  0  0  0
 28 46  1  0  0  0  0
 29  3  1  0  0  0  0
 30  8  1  0  0  0  0
 31 11  1  0  0  0  0
 34 15  1  0  0  0  0
 37 21  1  0  0  0  0
 38 21  1  0  0  0  0
 39 22  1  0  0  0  0
 41 23  1  0  0  0  0
 43 24  1  0  0  0  0
M  END
>  <Pose>
1

>  <Score>
-5.83

$$$$
