
 OpenBabel03202210193D

 56 59  0  0  0  0  0  0  0  0999 V2000
   10.7290   65.1310  -14.2050 Cl  0  0  0  0  0  0  0  0  0  0  0  0
   12.1960   65.5080  -15.0330 C   0  0  0  0  0  0  0  0  0  0  0  0
   13.3860   65.4380  -14.3410 C   0  0  0  0  0  0  0  0  0  0  0  0
   14.5320   65.7530  -15.0680 C   0  0  0  0  0  0  0  0  0  0  0  0
   14.4680   66.1120  -16.4000 C   0  0  0  0  0  0  0  0  0  0  0  0
   13.2610   66.1680  -17.0460 C   0  0  0  0  0  0  0  0  0  0  0  0
   12.1240   65.8670  -16.3650 C   0  0  0  0  0  0  0  0  0  0  0  0
   13.5030   65.0820  -12.9960 N   0  0  0  0  0  0  0  0  0  0  0  0
   13.6620   63.7380  -12.4860 C   0  0  0  0  0  0  0  0  0  0  0  0
   14.2030   63.8240  -11.0600 C   0  0  0  0  0  0  0  0  0  0  0  0
   15.2130   64.8680  -10.9890 N   0  0  0  0  0  0  0  0  0  0  0  0
   14.8440   66.2090  -11.3780 C   0  0  0  0  0  0  0  0  0  0  0  0
   13.4650   66.1550  -11.9910 C   0  0  0  0  0  0  0  0  0  0  0  0
   16.5380   64.5970  -10.5490 C   0  0  0  0  0  0  0  0  0  0  0  0
   16.7760   64.6390   -9.3020 O   0  0  0  0  0  0  0  0  0  0  0  0
   17.6520   64.2720  -11.4470 C   0  0  0  0  0  0  0  0  0  0  0  0
   18.7400   63.5520  -10.7870 N   0  0  0  0  0  0  0  0  0  0  0  0
   19.9870   63.9270  -10.5810 N   0  0  0  0  0  0  0  0  0  0  0  0
   20.7070   63.0050   -9.9390 C   0  0  0  0  0  0  0  0  0  0  0  0
   19.8540   61.9410   -9.7070 C   0  0  0  0  0  0  0  0  0  0  0  0
   18.6400   62.3080  -10.2440 C   0  0  0  0  0  0  0  0  0  0  0  0
   17.4230   61.4690  -10.2280 C   0  0  0  0  0  0  0  0  0  0  0  0
   22.1260   63.1030   -9.5510 C   0  0  0  0  0  0  0  0  0  0  0  0
   23.0210   62.8200  -10.3730 O   0  0  0  0  0  0  0  0  0  0  0  0
   22.4490   63.5230   -8.2420 N   0  0  0  0  0  0  0  0  0  0  0  0
   23.3820   62.8430   -7.3880 C   0  0  0  0  0  0  0  0  0  0  0  0
   23.5360   63.7170   -6.1370 C   0  0  0  0  0  0  0  0  0  0  0  0
   23.8620   65.0120   -6.4730 O   0  0  0  0  0  0  0  0  0  0  0  0
   22.9100   65.6530   -7.2290 C   0  0  0  0  0  0  0  0  0  0  0  0
   21.8090   64.7220   -7.6930 C   0  0  0  0  0  0  0  0  0  0  0  0
   15.5000   65.7250  -14.6100 H   0  0  0  0  0  0  0  0  0  0  0  0
   15.3660   66.3550  -16.9520 H   0  0  0  0  0  0  0  0  0  0  0  0
   13.2210   66.4570  -18.1080 H   0  0  0  0  0  0  0  0  0  0  0  0
   11.1500   65.9060  -16.8690 H   0  0  0  0  0  0  0  0  0  0  0  0
   12.7150   63.1810  -12.4280 H   0  0  0  0  0  0  0  0  0  0  0  0
   14.4450   63.2040  -13.0620 H   0  0  0  0  0  0  0  0  0  0  0  0
   14.7160   62.8610  -10.8620 H   0  0  0  0  0  0  0  0  0  0  0  0
   13.3890   63.9920  -10.3280 H   0  0  0  0  0  0  0  0  0  0  0  0
   14.9010   66.9260  -10.5370 H   0  0  0  0  0  0  0  0  0  0  0  0
   15.5190   66.5340  -12.2180 H   0  0  0  0  0  0  0  0  0  0  0  0
   12.7420   65.8320  -11.1990 H   0  0  0  0  0  0  0  0  0  0  0  0
   13.1680   67.1220  -12.4470 H   0  0  0  0  0  0  0  0  0  0  0  0
   18.0650   65.1710  -11.9470 H   0  0  0  0  0  0  0  0  0  0  0  0
   17.2710   63.5950  -12.2360 H   0  0  0  0  0  0  0  0  0  0  0  0
   20.1050   61.0200   -9.2070 H   0  0  0  0  0  0  0  0  0  0  0  0
   17.1840   61.1750   -9.1880 H   0  0  0  0  0  0  0  0  0  0  0  0
   16.5630   62.0310  -10.6390 H   0  0  0  0  0  0  0  0  0  0  0  0
   17.5650   60.5730  -10.8820 H   0  0  0  0  0  0  0  0  0  0  0  0
   24.3710   62.7360   -7.8780 H   0  0  0  0  0  0  0  0  0  0  0  0
   23.0550   61.8530   -7.0510 H   0  0  0  0  0  0  0  0  0  0  0  0
   22.6540   63.6200   -5.4850 H   0  0  0  0  0  0  0  0  0  0  0  0
   24.4040   63.2880   -5.5910 H   0  0  0  0  0  0  0  0  0  0  0  0
   22.4240   66.4690   -6.6310 H   0  0  0  0  0  0  0  0  0  0  0  0
   23.3580   66.1040   -8.1340 H   0  0  0  0  0  0  0  0  0  0  0  0
   21.2090   65.2180   -8.4780 H   0  0  0  0  0  0  0  0  0  0  0  0
   21.1950   64.4550   -6.8150 H   0  0  0  0  0  0  0  0  0  0  0  0
  2  3  1  0  0  0  0
  2  1  1  0  0  0  0
  3  8  1  0  0  0  0
  4 31  1  0  0  0  0
  4  3  2  0  0  0  0
  5  4  1  0  0  0  0
  6  5  2  0  0  0  0
  6  7  1  0  0  0  0
  7  2  2  0  0  0  0
  8  9  1  0  0  0  0
  8 13  1  0  0  0  0
  9 35  1  0  0  0  0
  9 10  1  0  0  0  0
 10 11  1  0  0  0  0
 10 37  1  0  0  0  0
 10 38  1  0  0  0  0
 11 14  1  0  0  0  0
 12 11  1  0  0  0  0
 12 39  1  0  0  0  0
 13 12  1  0  0  0  0
 13 41  1  0  0  0  0
 14 15  2  0  0  0  0
 16 17  1  0  0  0  0
 16 14  1  0  0  0  0
 17 18  1  0  0  0  0
 17 21  1  0  0  0  0
 18 19  2  0  0  0  0
 19 20  1  0  0  0  0
 19 23  1  0  0  0  0
 20 45  1  0  0  0  0
 21 22  1  0  0  0  0
 21 20  2  0  0  0  0
 22 46  1  0  0  0  0
 23 25  1  0  0  0  0
 24 23  2  0  0  0  0
 25 30  1  0  0  0  0
 25 26  1  0  0  0  0
 26 50  1  0  0  0  0
 26 27  1  0  0  0  0
 27 52  1  0  0  0  0
 27 51  1  0  0  0  0
 28 27  1  0  0  0  0
 29 53  1  0  0  0  0
 29 28  1  0  0  0  0
 30 29  1  0  0  0  0
 30 56  1  0  0  0  0
 32  5  1  0  0  0  0
 33  6  1  0  0  0  0
 34  7  1  0  0  0  0
 36  9  1  0  0  0  0
 40 12  1  0  0  0  0
 42 13  1  0  0  0  0
 43 16  1  0  0  0  0
 44 16  1  0  0  0  0
 47 22  1  0  0  0  0
 48 22  1  0  0  0  0
 49 26  1  0  0  0  0
 54 29  1  0  0  0  0
 55 30  1  0  0  0  0
M  END
>  <Pose>
1

>  <Score>
-5.67

$$$$
