
 OpenBabel03202210193D

 46 49  0  0  1  0  0  0  0  0999 V2000
   13.7770   61.5400  -10.9820 Cl  0  0  0  0  0  0  0  0  0  0  0  0
   15.3660   62.2180  -10.6570 C   0  0  0  0  0  0  0  0  0  0  0  0
   16.3970   61.3400  -10.4120 C   0  0  0  0  0  0  0  0  0  0  0  0
   17.6220   61.8670  -10.1610 N   0  0  0  0  0  0  0  0  0  0  0  0
   17.8420   63.1910  -10.1490 C   0  0  0  0  0  0  0  0  0  0  0  0
   19.0550   63.7220   -9.9020 N   0  0  0  0  0  0  0  0  0  0  0  0
   20.1380   62.9660   -9.6480 C   0  0  0  0  0  0  0  0  0  0  0  0
   19.9130   61.6000   -9.6600 C   0  0  0  0  0  0  0  0  0  0  0  0
   18.6730   61.0590   -9.9130 C   0  0  0  0  0  0  0  0  0  0  0  0
   18.5120   59.7990   -9.9140 O   0  0  0  0  0  0  0  0  0  0  0  0
   21.4770   63.5060   -9.3730 C   0  0  0  0  0  0  0  0  0  0  0  0
   21.8990   63.4770   -8.0350 N   0  0  0  0  0  0  0  0  0  0  0  0
   23.2430   63.1790   -7.7600 C   0  0  0  0  0  0  0  0  0  0  0  0
   24.1360   64.3510   -7.5240 C   0  0  0  0  0  0  0  0  0  0  0  0
   23.4120   65.4930   -6.9840 N   0  0  0  0  0  0  0  0  0  0  0  0
   23.9440   66.6560   -6.6130 N   0  0  0  0  0  0  0  0  0  0  0  0
   22.9740   67.4610   -6.1680 C   0  0  0  0  0  0  0  0  0  0  0  0
   21.7970   66.7650   -6.2690 C   0  0  0  0  0  0  0  0  0  0  0  0
   22.0830   65.5010   -6.7940 C   0  0  0  0  0  0  0  0  0  0  0  0
   21.2290   64.3320   -7.1210 C   0  0  0  0  0  0  0  0  0  0  0  0
   23.1510   68.8570   -5.6580 C   0  0  1  0  0  0  0  0  0  0  0  0
   24.4150   68.9320   -5.0500 O   0  0  0  0  0  0  0  0  0  0  0  0
   23.1950   69.8370   -6.8270 C   0  0  0  0  0  0  0  0  0  0  0  0
   23.7040   71.1750   -6.3100 C   0  0  0  0  0  0  0  0  0  0  0  0
   16.7980   64.0880  -10.3980 C   0  0  0  0  0  0  0  0  0  0  0  0
   15.5470   63.5850  -10.6550 C   0  0  0  0  0  0  0  0  0  0  0  0
   16.2450   60.2870  -10.4170 H   0  0  0  0  0  0  0  0  0  0  0  0
   20.7600   60.9360   -9.4600 H   0  0  0  0  0  0  0  0  0  0  0  0
   22.2190   62.9430   -9.9940 H   0  0  0  0  0  0  0  0  0  0  0  0
   21.5540   64.5670   -9.7520 H   0  0  0  0  0  0  0  0  0  0  0  0
   23.2780   62.5550   -6.8170 H   0  0  0  0  0  0  0  0  0  0  0  0
   23.6330   62.5010   -8.5500 H   0  0  0  0  0  0  0  0  0  0  0  0
   24.6450   64.6130   -8.4690 H   0  0  0  0  0  0  0  0  0  0  0  0
   24.9680   64.1050   -6.8020 H   0  0  0  0  0  0  0  0  0  0  0  0
   20.8080   67.0980   -6.0010 H   0  0  0  0  0  0  0  0  0  0  0  0
   21.0190   63.7360   -6.1840 H   0  0  0  0  0  0  0  0  0  0  0  0
   20.2600   64.6380   -7.5640 H   0  0  0  0  0  0  0  0  0  0  0  0
   22.3690   69.1510   -4.9490 H   0  0  0  0  0  0  0  0  0  0  0  0
   24.8860   68.0510   -5.1070 H   0  0  0  0  0  0  0  0  0  0  0  0
   22.1670   69.9770   -7.1680 H   0  0  0  0  0  0  0  0  0  0  0  0
   23.8120   69.4790   -7.6520 H   0  0  0  0  0  0  0  0  0  0  0  0
   24.0170   71.0810   -5.2570 H   0  0  0  0  0  0  0  0  0  0  0  0
   24.5230   71.5770   -6.9510 H   0  0  0  0  0  0  0  0  0  0  0  0
   22.8930   71.9560   -6.3430 H   0  0  0  0  0  0  0  0  0  0  0  0
   17.0080   65.1520  -10.3810 H   0  0  0  0  0  0  0  0  0  0  0  0
   14.7360   64.2760  -10.8470 H   0  0  0  0  0  0  0  0  0  0  0  0
  1  2  1  0  0  0  0
  2 26  2  0  0  0  0
  2  3  1  0  0  0  0
  3  4  1  0  0  0  0
  4  5  1  0  0  0  0
  4  9  1  0  0  0  0
  5  6  1  0  0  0  0
  6  7  2  0  0  0  0
  7 11  1  0  0  0  0
  8  7  1  0  0  0  0
  8 28  1  0  0  0  0
  9  8  1  0  0  0  0
 10  9  2  0  0  0  0
 11 12  1  0  0  0  0
 12 13  1  0  0  0  0
 12 20  1  0  0  0  0
 13 14  1  0  0  0  0
 13 31  1  0  0  0  0
 14 15  1  0  0  0  0
 14 34  1  0  0  0  0
 15 19  1  0  0  0  0
 15 16  1  0  0  0  0
 16 17  2  0  0  0  0
 17 21  1  0  0  0  0
 18 17  1  0  0  0  0
 18 35  1  0  0  0  0
 19 18  2  0  0  0  0
 20 19  1  0  0  0  0
 20 36  1  0  0  0  0
 21 22  1  0  0  0  0
 21 38  1  1  0  0  0
 23 24  1  0  0  0  0
 23 21  1  0  0  0  0
 24 42  1  0  0  0  0
 25 45  1  0  0  0  0
 25  5  2  0  0  0  0
 26 25  1  0  0  0  0
 27  3  1  0  0  0  0
 29 11  1  0  0  0  0
 30 11  1  0  0  0  0
 32 13  1  0  0  0  0
 33 14  1  0  0  0  0
 37 20  1  0  0  0  0
 39 22  1  0  0  0  0
 40 23  1  0  0  0  0
 41 23  1  0  0  0  0
 43 24  1  0  0  0  0
 44 24  1  0  0  0  0
 46 26  1  0  0  0  0
M  END
>  <Pose>
1

>  <Score>
-7.72

$$$$
