
 OpenBabel03202210193D

 45 48  0  0  1  0  0  0  0  0999 V2000
   14.3210   61.5270  -11.0460 Cl  0  0  0  0  0  0  0  0  0  0  0  0
   15.9480   62.0200  -10.5540 C   0  0  0  0  0  0  0  0  0  0  0  0
   16.2780   63.3330  -10.4530 C   0  0  0  0  0  0  0  0  0  0  0  0
   17.5700   63.6890  -10.0620 C   0  0  0  0  0  0  0  0  0  0  0  0
   18.5610   62.7880   -9.7610 C   0  0  0  0  0  0  0  0  0  0  0  0
   18.1620   61.4450   -9.8850 C   0  0  0  0  0  0  0  0  0  0  0  0
   16.8920   61.0690  -10.2690 C   0  0  0  0  0  0  0  0  0  0  0  0
   19.8990   63.0720   -9.3210 C   0  0  0  0  0  0  0  0  0  0  0  0
   20.8110   62.7080  -10.2080 O   0  0  0  0  0  0  0  0  0  0  0  0
   20.3960   63.6520   -8.1420 N   0  0  0  0  0  0  0  0  0  0  0  0
   21.7660   63.9200   -7.8860 C   0  0  0  0  0  0  0  0  0  0  0  0
   21.8780   64.7560   -6.6000 C   0  0  1  0  0  0  0  0  0  0  0  0
   21.2590   63.9620   -5.5700 N   0  0  0  0  0  0  0  0  0  0  0  0
   19.8830   63.6310   -5.7330 C   0  0  0  0  0  0  0  0  0  0  0  0
   19.3960   63.9780   -7.1250 C   0  0  0  0  0  0  0  0  0  0  0  0
   21.9910   63.5340   -4.4490 C   0  0  0  0  0  0  0  0  0  0  0  0
   21.3760   63.2000   -3.4210 O   0  0  0  0  0  0  0  0  0  0  0  0
   23.4650   63.4940   -4.5330 C   0  0  1  0  0  0  0  0  0  0  0  0
   23.8820   64.7390   -5.1070 N   0  0  0  0  0  0  0  0  0  0  0  0
   23.2520   65.1570   -6.3050 C   0  0  0  0  0  0  0  0  0  0  0  0
   23.8540   65.8860   -7.1540 O   0  0  0  0  0  0  0  0  0  0  0  0
   24.1340   63.1300   -3.2620 C   0  0  0  0  0  0  0  0  0  0  0  0
   25.0020   61.9590   -3.4650 C   0  0  0  0  0  0  0  0  0  0  0  0
   24.8110   60.7000   -3.0650 N   0  0  0  0  0  0  0  0  0  0  0  0
   25.8700   59.9360   -3.4670 C   0  0  0  0  0  0  0  0  0  0  0  0
   26.7340   60.7140   -4.1220 N   0  0  0  0  0  0  0  0  0  0  0  0
   26.2270   61.9510   -4.1330 C   0  0  0  0  0  0  0  0  0  0  0  0
   15.5360   64.0720  -10.6770 H   0  0  0  0  0  0  0  0  0  0  0  0
   17.7750   64.7380  -10.0190 H   0  0  0  0  0  0  0  0  0  0  0  0
   18.9010   60.6720   -9.6590 H   0  0  0  0  0  0  0  0  0  0  0  0
   16.6840   59.9980  -10.3330 H   0  0  0  0  0  0  0  0  0  0  0  0
   22.2630   64.4780   -8.7080 H   0  0  0  0  0  0  0  0  0  0  0  0
   22.2950   62.9620   -7.7480 H   0  0  0  0  0  0  0  0  0  0  0  0
   21.2390   65.6470   -6.7810 H   0  0  0  0  0  0  0  0  0  0  0  0
   19.2940   64.2120   -4.9950 H   0  0  0  0  0  0  0  0  0  0  0  0
   19.6420   62.5610   -5.5630 H   0  0  0  0  0  0  0  0  0  0  0  0
   18.4800   63.4180   -7.3600 H   0  0  0  0  0  0  0  0  0  0  0  0
   19.1840   65.0600   -7.1620 H   0  0  0  0  0  0  0  0  0  0  0  0
   23.8000   62.7040   -5.2820 H   0  0  0  0  0  0  0  0  0  0  0  0
   24.6280   65.3400   -4.6750 H   0  0  0  0  0  0  0  0  0  0  0  0
   24.6880   64.0050   -2.8550 H   0  0  0  0  0  0  0  0  0  0  0  0
   23.3450   62.9200   -2.4890 H   0  0  0  0  0  0  0  0  0  0  0  0
   25.9320   58.8680   -3.2520 H   0  0  0  0  0  0  0  0  0  0  0  0
   27.6220   60.4230   -4.5390 H   0  0  0  0  0  0  0  0  0  0  0  0
   26.6370   62.8530   -4.5680 H   0  0  0  0  0  0  0  0  0  0  0  0
  1  2  1  0  0  0  0
  2  3  2  0  0  0  0
  2  7  1  0  0  0  0
  3  4  1  0  0  0  0
  4 29  1  0  0  0  0
  4  5  2  0  0  0  0
  5  8  1  0  0  0  0
  6  5  1  0  0  0  0
  6 30  1  0  0  0  0
  7  6  2  0  0  0  0
  8 10  1  0  0  0  0
  9  8  2  0  0  0  0
 10 11  1  0  0  0  0
 10 15  1  0  0  0  0
 11 33  1  0  0  0  0
 11 12  1  0  0  0  0
 12 34  1  6  0  0  0
 12 20  1  0  0  0  0
 12 13  1  0  0  0  0
 13 16  1  0  0  0  0
 14 13  1  0  0  0  0
 14 36  1  0  0  0  0
 14 35  1  0  0  0  0
 15 14  1  0  0  0  0
 16 17  2  0  0  0  0
 18 39  1  6  0  0  0
 18 16  1  0  0  0  0
 18 22  1  0  0  0  0
 19 40  1  0  0  0  0
 19 18  1  0  0  0  0
 20 19  1  0  0  0  0
 21 20  2  0  0  0  0
 22 41  1  0  0  0  0
 22 42  1  0  0  0  0
 23 22  1  0  0  0  0
 23 24  1  0  0  0  0
 25 43  1  0  0  0  0
 25 24  2  0  0  0  0
 26 25  1  0  0  0  0
 27 26  1  0  0  0  0
 27 23  2  0  0  0  0
 28  3  1  0  0  0  0
 31  7  1  0  0  0  0
 32 11  1  0  0  0  0
 37 15  1  0  0  0  0
 38 15  1  0  0  0  0
 44 26  1  0  0  0  0
 45 27  1  0  0  0  0
M  END
>  <Pose>
1

>  <Score>
-8.13

$$$$
