
 OpenBabel03202210193D

 43 46  0  0  0  0  0  0  0  0999 V2000
   22.3700   66.0590   -8.9850 Cl  0  0  0  0  0  0  0  0  0  0  0  0
   22.5320   64.5430   -8.1270 C   0  0  0  0  0  0  0  0  0  0  0  0
   21.7840   63.4600   -8.4930 C   0  0  0  0  0  0  0  0  0  0  0  0
   21.9870   62.3090   -7.7280 C   0  0  0  0  0  0  0  0  0  0  0  0
   22.8640   62.3040   -6.7120 N   0  0  0  0  0  0  0  0  0  0  0  0
   23.5930   63.3330   -6.3430 N   0  0  0  0  0  0  0  0  0  0  0  0
   23.4310   64.4600   -7.0490 C   0  0  0  0  0  0  0  0  0  0  0  0
   24.0840   65.4990   -6.7740 O   0  0  0  0  0  0  0  0  0  0  0  0
   24.5020   63.2430   -5.2510 C   0  0  0  0  0  0  0  0  0  0  0  0
   25.8340   62.9190   -5.4140 C   0  0  0  0  0  0  0  0  0  0  0  0
   26.7060   62.8350   -4.3500 C   0  0  0  0  0  0  0  0  0  0  0  0
   26.2680   63.0750   -3.0630 C   0  0  0  0  0  0  0  0  0  0  0  0
   24.9390   63.4000   -2.8930 C   0  0  0  0  0  0  0  0  0  0  0  0
   24.0680   63.4830   -3.9630 C   0  0  0  0  0  0  0  0  0  0  0  0
   20.8780   63.4690   -9.5800 N   0  0  0  0  0  0  0  0  0  0  0  0
   19.7930   64.4280   -9.6940 C   0  0  0  0  0  0  0  0  0  0  0  0
   18.4460   63.7520   -9.6580 C   0  0  0  0  0  0  0  0  0  0  0  0
   18.5640   62.5480  -10.4430 N   0  0  0  0  0  0  0  0  0  0  0  0
   19.6020   62.4910  -11.4390 C   0  0  0  0  0  0  0  0  0  0  0  0
   20.9400   62.4970  -10.6670 C   0  0  0  0  0  0  0  0  0  0  0  0
   17.6870   61.4540  -10.2460 C   0  0  0  0  0  0  0  0  0  0  0  0
   16.3600   61.3910  -10.5530 N   0  0  0  0  0  0  0  0  0  0  0  0
   15.8920   60.2050  -10.2200 N   0  0  0  0  0  0  0  0  0  0  0  0
   16.8930   59.5040   -9.7030 C   0  0  0  0  0  0  0  0  0  0  0  0
   17.9530   60.2690   -9.7290 O   0  0  0  0  0  0  0  0  0  0  0  0
   16.8850   58.1030   -9.1720 C   0  0  0  0  0  0  0  0  0  0  0  0
   21.4280   61.4340   -7.9800 H   0  0  0  0  0  0  0  0  0  0  0  0
   26.1840   62.7280   -6.4290 H   0  0  0  0  0  0  0  0  0  0  0  0
   27.7560   62.5750   -4.5130 H   0  0  0  0  0  0  0  0  0  0  0  0
   26.9580   63.0080   -2.2310 H   0  0  0  0  0  0  0  0  0  0  0  0
   24.5880   63.5880   -1.8990 H   0  0  0  0  0  0  0  0  0  0  0  0
   23.0190   63.7390   -3.8300 H   0  0  0  0  0  0  0  0  0  0  0  0
   19.8760   64.8860  -10.7220 H   0  0  0  0  0  0  0  0  0  0  0  0
   19.8030   65.2500   -9.0010 H   0  0  0  0  0  0  0  0  0  0  0  0
   18.1610   63.4470   -8.6150 H   0  0  0  0  0  0  0  0  0  0  0  0
   17.6350   64.4130  -10.0060 H   0  0  0  0  0  0  0  0  0  0  0  0
   19.5440   63.3940  -12.0710 H   0  0  0  0  0  0  0  0  0  0  0  0
   19.5310   61.5820  -12.0600 H   0  0  0  0  0  0  0  0  0  0  0  0
   21.6910   62.7360  -11.4320 H   0  0  0  0  0  0  0  0  0  0  0  0
   20.9940   61.4510  -10.2710 H   0  0  0  0  0  0  0  0  0  0  0  0
   16.2900   57.4410   -9.8300 H   0  0  0  0  0  0  0  0  0  0  0  0
   17.9130   57.6840   -9.1610 H   0  0  0  0  0  0  0  0  0  0  0  0
   16.5310   58.1470   -8.1380 H   0  0  0  0  0  0  0  0  0  0  0  0
  1  2  1  0  0  0  0
  2  7  1  0  0  0  0
  3  2  2  0  0  0  0
  3  4  1  0  0  0  0
  4  5  2  0  0  0  0
  5  6  1  0  0  0  0
  6  9  1  0  0  0  0
  7  8  2  0  0  0  0
  7  6  1  0  0  0  0
  9 14  1  0  0  0  0
 10  9  2  0  0  0  0
 10 11  1  0  0  0  0
 11 12  2  0  0  0  0
 12 13  1  0  0  0  0
 12 30  1  0  0  0  0
 13 31  1  0  0  0  0
 14 32  1  0  0  0  0
 14 13  2  0  0  0  0
 15  3  1  0  0  0  0
 16 17  1  0  0  0  0
 16 15  1  0  0  0  0
 16 34  1  0  0  0  0
 17 35  1  0  0  0  0
 18 21  1  0  0  0  0
 18 17  1  0  0  0  0
 19 20  1  0  0  0  0
 19 18  1  0  0  0  0
 20 40  1  0  0  0  0
 20 15  1  0  0  0  0
 21 25  1  0  0  0  0
 22 21  2  0  0  0  0
 22 23  1  0  0  0  0
 23 24  2  0  0  0  0
 24 26  1  0  0  0  0
 25 24  1  0  0  0  0
 26 42  1  0  0  0  0
 26 43  1  0  0  0  0
 27  4  1  0  0  0  0
 28 10  1  0  0  0  0
 29 11  1  0  0  0  0
 33 16  1  0  0  0  0
 36 17  1  0  0  0  0
 37 19  1  0  0  0  0
 38 19  1  0  0  0  0
 39 20  1  0  0  0  0
 41 26  1  0  0  0  0
M  END
>  <Pose>
1

>  <Score>
-6.36

$$$$
