
 OpenBabel03202210193D

 41 44  0  0  0  0  0  0  0  0999 V2000
   15.0300   63.9490  -10.8120 Cl  0  0  0  0  0  0  0  0  0  0  0  0
   16.6340   63.3410  -10.4500 C   0  0  0  0  0  0  0  0  0  0  0  0
   17.7040   64.1990  -10.3340 C   0  0  0  0  0  0  0  0  0  0  0  0
   18.9360   63.6920  -10.0510 N   0  0  0  0  0  0  0  0  0  0  0  0
   19.0840   62.3720   -9.8920 C   0  0  0  0  0  0  0  0  0  0  0  0
   20.3730   62.1120   -9.6240 N   0  0  0  0  0  0  0  0  0  0  0  0
   21.0580   63.2550   -9.6080 C   0  0  0  0  0  0  0  0  0  0  0  0
   20.1310   64.2720   -9.8840 C   0  0  0  0  0  0  0  0  0  0  0  0
   22.4750   63.4630   -9.3610 C   0  0  0  0  0  0  0  0  0  0  0  0
   23.2970   62.8650  -10.1500 O   0  0  0  0  0  0  0  0  0  0  0  0
   23.0310   64.2390   -8.3630 N   0  0  0  0  0  0  0  0  0  0  0  0
   22.2730   65.1340   -7.5220 C   0  0  0  0  0  0  0  0  0  0  0  0
   22.2230   64.6260   -6.0970 C   0  0  0  0  0  0  0  0  0  0  0  0
   23.5400   63.9960   -5.7460 C   0  0  0  0  0  0  0  0  0  0  0  0
   24.5710   63.8010   -6.6240 C   0  0  0  0  0  0  0  0  0  0  0  0
   25.5570   63.2110   -5.9000 N   0  0  0  0  0  0  0  0  0  0  0  0
   25.1840   63.0400   -4.6520 N   0  0  0  0  0  0  0  0  0  0  0  0
   23.9400   63.5080   -4.4920 C   0  0  0  0  0  0  0  0  0  0  0  0
   23.2330   63.5230   -3.4330 O   0  0  0  0  0  0  0  0  0  0  0  0
   25.9570   62.4390   -3.5550 C   0  0  0  0  0  0  0  0  0  0  0  0
   25.3780   61.1000   -3.1620 C   0  0  0  0  0  0  0  0  0  0  0  0
   26.3560   60.1230   -3.0230 O   0  0  0  0  0  0  0  0  0  0  0  0
   24.4820   64.2100   -8.0550 C   0  0  0  0  0  0  0  0  0  0  0  0
   18.0090   61.4720  -10.0050 C   0  0  0  0  0  0  0  0  0  0  0  0
   16.7770   61.9740  -10.2860 C   0  0  0  0  0  0  0  0  0  0  0  0
   17.5940   65.2640  -10.4600 H   0  0  0  0  0  0  0  0  0  0  0  0
   20.3630   65.3360   -9.9470 H   0  0  0  0  0  0  0  0  0  0  0  0
   21.2860   65.4000   -7.8600 H   0  0  0  0  0  0  0  0  0  0  0  0
   22.8720   66.1050   -7.5400 H   0  0  0  0  0  0  0  0  0  0  0  0
   21.4090   63.9240   -5.9180 H   0  0  0  0  0  0  0  0  0  0  0  0
   22.0320   65.5240   -5.4490 H   0  0  0  0  0  0  0  0  0  0  0  0
   26.4770   62.9460   -6.3290 H   0  0  0  0  0  0  0  0  0  0  0  0
   25.8290   63.1130   -2.6830 H   0  0  0  0  0  0  0  0  0  0  0  0
   27.0180   62.3690   -3.7820 H   0  0  0  0  0  0  0  0  0  0  0  0
   24.9190   61.2380   -2.1620 H   0  0  0  0  0  0  0  0  0  0  0  0
   24.6350   60.7560   -3.8890 H   0  0  0  0  0  0  0  0  0  0  0  0
   26.4990   59.6100   -3.8740 H   0  0  0  0  0  0  0  0  0  0  0  0
   24.9080   65.2110   -8.2360 H   0  0  0  0  0  0  0  0  0  0  0  0
   24.9150   63.4210   -8.7020 H   0  0  0  0  0  0  0  0  0  0  0  0
   18.1830   60.4030   -9.8650 H   0  0  0  0  0  0  0  0  0  0  0  0
   15.9300   61.2890  -10.3780 H   0  0  0  0  0  0  0  0  0  0  0  0
  1  2  1  0  0  0  0
  2  3  2  0  0  0  0
  2 25  1  0  0  0  0
  3  4  1  0  0  0  0
  4  5  1  0  0  0  0
  4  8  1  0  0  0  0
  5  6  2  0  0  0  0
  6  7  1  0  0  0  0
  7  9  1  0  0  0  0
  8  7  2  0  0  0  0
  9 11  1  0  0  0  0
 10  9  2  0  0  0  0
 11 23  1  0  0  0  0
 11 12  1  0  0  0  0
 12 13  1  0  0  0  0
 13 30  1  0  0  0  0
 13 14  1  0  0  0  0
 13 31  1  0  0  0  0
 14 18  1  0  0  0  0
 15 16  1  0  0  0  0
 15 14  2  0  0  0  0
 16 17  1  0  0  0  0
 17 18  1  0  0  0  0
 17 20  1  0  0  0  0
 18 19  2  0  0  0  0
 20 21  1  0  0  0  0
 20 33  1  0  0  0  0
 21 22  1  0  0  0  0
 21 35  1  0  0  0  0
 23 15  1  0  0  0  0
 24  5  1  0  0  0  0
 24 40  1  0  0  0  0
 25 24  2  0  0  0  0
 26  3  1  0  0  0  0
 27  8  1  0  0  0  0
 28 12  1  0  0  0  0
 29 12  1  0  0  0  0
 32 16  1  0  0  0  0
 34 20  1  0  0  0  0
 36 21  1  0  0  0  0
 37 22  1  0  0  0  0
 38 23  1  0  0  0  0
 39 23  1  0  0  0  0
 41 25  1  0  0  0  0
M  END
>  <Pose>
1

>  <Score>
-7.62

$$$$
