
 OpenBabel03202210193D

 49 52  0  0  0  0  0  0  0  0999 V2000
   23.3020   69.4720   -6.1020 B   0  0  0  0  0  0  0  0  0  0  0  0
   22.5320   67.7970   -6.5080 C   0  0  0  0  0  0  0  0  0  0  0  0
   23.3460   66.6810   -6.6240 C   0  0  0  0  0  0  0  0  0  0  0  0
   22.8190   65.4530   -6.9220 C   0  0  0  0  0  0  0  0  0  0  0  0
   21.4840   65.2620   -7.1190 C   0  0  0  0  0  0  0  0  0  0  0  0
   20.6560   66.3820   -7.0030 C   0  0  0  0  0  0  0  0  0  0  0  0
   21.1840   67.6240   -6.7020 C   0  0  0  0  0  0  0  0  0  0  0  0
   23.6870   64.2260   -7.0150 C   0  0  0  0  0  0  0  0  0  0  0  0
   24.7360   64.2930   -6.2830 O   0  0  0  0  0  0  0  0  0  0  0  0
   23.2960   63.2420   -7.8090 N   0  0  0  0  0  0  0  0  0  0  0  0
   22.8860   62.2120   -8.6400 C   0  0  0  0  0  0  0  0  0  0  0  0
   23.0290   62.5830  -10.0940 C   0  0  0  0  0  0  0  0  0  0  0  0
   24.0750   62.1100  -10.6630 O   0  0  0  0  0  0  0  0  0  0  0  0
   22.1120   63.3780  -10.7950 N   0  0  0  0  0  0  0  0  0  0  0  0
   21.6440   63.0530  -12.1040 C   0  0  0  0  0  0  0  0  0  0  0  0
   20.2040   63.4270  -12.3150 C   0  0  0  0  0  0  0  0  0  0  0  0
   19.3930   63.5740  -11.0460 C   0  0  0  0  0  0  0  0  0  0  0  0
   18.1630   64.2130  -11.4940 N   0  0  0  0  0  0  0  0  0  0  0  0
   17.1190   64.2870  -10.5450 C   0  0  0  0  0  0  0  0  0  0  0  0
   17.1870   63.3900   -9.3630 C   0  0  0  0  0  0  0  0  0  0  0  0
   17.9510   62.1390   -9.6610 C   0  0  0  0  0  0  0  0  0  0  0  0
   17.7850   60.8790   -9.2610 N   0  0  0  0  0  0  0  0  0  0  0  0
   18.7750   60.1740   -9.8470 C   0  0  0  0  0  0  0  0  0  0  0  0
   19.5470   60.9870  -10.6010 N   0  0  0  0  0  0  0  0  0  0  0  0
   19.0360   62.2480  -10.4940 C   0  0  0  0  0  0  0  0  0  0  0  0
   20.0630   64.4090   -9.9860 C   0  0  0  0  0  0  0  0  0  0  0  0
   21.5520   64.5930  -10.2140 C   0  0  0  0  0  0  0  0  0  0  0  0
   24.3970   66.7770   -6.4790 H   0  0  0  0  0  0  0  0  0  0  0  0
   21.0990   64.2890   -7.3490 H   0  0  0  0  0  0  0  0  0  0  0  0
   19.5970   66.2750   -7.1520 H   0  0  0  0  0  0  0  0  0  0  0  0
   20.5430   68.4880   -6.6100 H   0  0  0  0  0  0  0  0  0  0  0  0
   22.5760   62.6740   -6.7730 H   0  0  0  0  0  0  0  0  0  0  0  0
   21.7840   61.9570   -8.4640 H   0  0  0  0  0  0  0  0  0  0  0  0
   23.3960   61.2430   -8.4160 H   0  0  0  0  0  0  0  0  0  0  0  0
   22.2430   63.7050  -12.8110 H   0  0  0  0  0  0  0  0  0  0  0  0
   21.8860   62.0240  -12.4270 H   0  0  0  0  0  0  0  0  0  0  0  0
   20.1370   64.3620  -12.8830 H   0  0  0  0  0  0  0  0  0  0  0  0
   19.7420   62.5890  -12.8810 H   0  0  0  0  0  0  0  0  0  0  0  0
   18.4770   65.1760  -11.8070 H   0  0  0  0  0  0  0  0  0  0  0  0
   16.1570   64.0390  -11.0890 H   0  0  0  0  0  0  0  0  0  0  0  0
   16.9890   65.3640  -10.2270 H   0  0  0  0  0  0  0  0  0  0  0  0
   17.6390   63.9350   -8.5030 H   0  0  0  0  0  0  0  0  0  0  0  0
   16.1420   63.1490   -9.0180 H   0  0  0  0  0  0  0  0  0  0  0  0
   18.8960   59.1170   -9.7060 H   0  0  0  0  0  0  0  0  0  0  0  0
   20.3710   60.6960  -11.1520 H   0  0  0  0  0  0  0  0  0  0  0  0
   19.9740   63.8730   -8.9930 H   0  0  0  0  0  0  0  0  0  0  0  0
   19.6270   65.4150   -9.8710 H   0  0  0  0  0  0  0  0  0  0  0  0
   21.7640   65.4810  -10.8540 H   0  0  0  0  0  0  0  0  0  0  0  0
   22.0180   64.7390   -9.2220 H   0  0  0  0  0  0  0  0  0  0  0  0
  2  1  1  0  0  0  0
  3  2  1  0  0  0  0
  3 28  1  0  0  0  0
  4  3  2  0  0  0  0
  5  6  2  0  0  0  0
  5  4  1  0  0  0  0
  6  7  1  0  0  0  0
  7 31  1  0  0  0  0
  7  2  2  0  0  0  0
  8  4  1  0  0  0  0
  8  9  2  0  0  0  0
 10  8  1  0  0  0  0
 10 32  1  0  0  0  0
 11 33  1  0  0  0  0
 11 34  1  0  0  0  0
 11 10  1  0  0  0  0
 12 11  1  0  0  0  0
 13 12  2  0  0  0  0
 14 27  1  0  0  0  0
 14 12  1  0  0  0  0
 15 14  1  0  0  0  0
 16 15  1  0  0  0  0
 16 17  1  0  0  0  0
 17 25  1  0  0  0  0
 17 26  1  0  0  0  0
 18 17  1  0  0  0  0
 18 19  1  0  0  0  0
 19 41  1  0  0  0  0
 19 20  1  0  0  0  0
 20 43  1  0  0  0  0
 20 42  1  0  0  0  0
 21 20  1  0  0  0  0
 21 22  1  0  0  0  0
 23 44  1  0  0  0  0
 23 22  2  0  0  0  0
 24 25  1  0  0  0  0
 24 23  1  0  0  0  0
 25 21  2  0  0  0  0
 26 47  1  0  0  0  0
 26 46  1  0  0  0  0
 27 26  1  0  0  0  0
 27 49  1  0  0  0  0
 29  5  1  0  0  0  0
 30  6  1  0  0  0  0
 35 15  1  0  0  0  0
 36 15  1  0  0  0  0
 37 16  1  0  0  0  0
 38 16  1  0  0  0  0
 39 18  1  0  0  0  0
 40 19  1  0  0  0  0
 45 24  1  0  0  0  0
 48 27  1  0  0  0  0
M  END
>  <Pose>
1

>  <Score>
-6.91

$$$$
