
 OpenBabel03202210193D

 45 48  0  0  0  0  0  0  0  0999 V2000
   24.1170   64.5740  -10.9580 Cl  0  0  0  0  0  0  0  0  0  0  0  0
   22.6080   63.6810  -10.7310 C   0  0  0  0  0  0  0  0  0  0  0  0
   22.1340   63.4980   -9.4500 C   0  0  0  0  0  0  0  0  0  0  0  0
   20.9590   62.8040   -9.2600 C   0  0  0  0  0  0  0  0  0  0  0  0
   20.2540   62.2930  -10.3290 C   0  0  0  0  0  0  0  0  0  0  0  0
   20.7670   62.5010  -11.5990 C   0  0  0  0  0  0  0  0  0  0  0  0
   21.9360   63.1880  -11.8310 C   0  0  0  0  0  0  0  0  0  0  0  0
   19.0350   61.5710  -10.1570 N   0  0  0  0  0  0  0  0  0  0  0  0
   18.8690   60.3050   -9.8640 N   0  0  0  0  0  0  0  0  0  0  0  0
   17.5360   60.0210   -9.7930 C   0  0  0  0  0  0  0  0  0  0  0  0
   16.8400   61.1800  -10.0570 C   0  0  0  0  0  0  0  0  0  0  0  0
   17.8260   62.1440  -10.2840 C   0  0  0  0  0  0  0  0  0  0  0  0
   22.8710   64.0350   -8.3020 C   0  0  0  0  0  0  0  0  0  0  0  0
   22.5540   65.1960   -7.9370 O   0  0  0  0  0  0  0  0  0  0  0  0
   23.8820   63.2810   -7.6460 N   0  0  0  0  0  0  0  0  0  0  0  0
   25.0780   63.9620   -7.2030 C   0  0  0  0  0  0  0  0  0  0  0  0
   25.6260   63.1710   -6.0300 C   0  0  0  0  0  0  0  0  0  0  0  0
   24.5220   62.5790   -5.1810 C   0  0  0  0  0  0  0  0  0  0  0  0
   25.1410   62.0470   -3.9880 N   0  0  0  0  0  0  0  0  0  0  0  0
   25.2400   63.0930   -3.0340 C   0  0  0  0  0  0  0  0  0  0  0  0
   26.0040   63.1580   -2.0200 O   0  0  0  0  0  0  0  0  0  0  0  0
   24.2920   64.0850   -3.4390 N   0  0  0  0  0  0  0  0  0  0  0  0
   23.6360   63.6330   -4.6240 C   0  0  0  0  0  0  0  0  0  0  0  0
   22.5370   64.0650   -5.0670 O   0  0  0  0  0  0  0  0  0  0  0  0
   24.0040   65.3640   -2.7860 C   0  0  0  0  0  0  0  0  0  0  0  0
   23.7240   61.5500   -5.9250 C   0  0  0  0  0  0  0  0  0  0  0  0
   23.7930   61.8620   -7.3890 C   0  0  0  0  0  0  0  0  0  0  0  0
   20.5340   62.6260   -8.2800 H   0  0  0  0  0  0  0  0  0  0  0  0
   20.2170   62.1010  -12.4460 H   0  0  0  0  0  0  0  0  0  0  0  0
   22.3100   63.3300  -12.8580 H   0  0  0  0  0  0  0  0  0  0  0  0
   17.0540   59.0800   -9.5730 H   0  0  0  0  0  0  0  0  0  0  0  0
   15.7590   61.3150  -10.0840 H   0  0  0  0  0  0  0  0  0  0  0  0
   17.6250   63.1800  -10.5230 H   0  0  0  0  0  0  0  0  0  0  0  0
   25.8160   63.9780   -8.0310 H   0  0  0  0  0  0  0  0  0  0  0  0
   24.8400   64.9780   -6.8260 H   0  0  0  0  0  0  0  0  0  0  0  0
   26.2900   62.3650   -6.3990 H   0  0  0  0  0  0  0  0  0  0  0  0
   26.2560   63.8170   -5.3850 H   0  0  0  0  0  0  0  0  0  0  0  0
   25.4510   61.0640   -3.8740 H   0  0  0  0  0  0  0  0  0  0  0  0
   23.7530   66.1530   -3.5360 H   0  0  0  0  0  0  0  0  0  0  0  0
   24.8750   65.6770   -2.1840 H   0  0  0  0  0  0  0  0  0  0  0  0
   23.1150   65.2700   -2.1360 H   0  0  0  0  0  0  0  0  0  0  0  0
   22.6800   61.6050   -5.5480 H   0  0  0  0  0  0  0  0  0  0  0  0
   24.1820   60.5560   -5.7290 H   0  0  0  0  0  0  0  0  0  0  0  0
   24.7440   61.4070   -7.7830 H   0  0  0  0  0  0  0  0  0  0  0  0
   22.9720   61.3840   -7.9720 H   0  0  0  0  0  0  0  0  0  0  0  0
  1  2  1  0  0  0  0
  2  3  1  0  0  0  0
  3  4  2  0  0  0  0
  3 13  1  0  0  0  0
  4 28  1  0  0  0  0
  5  8  1  0  0  0  0
  5  4  1  0  0  0  0
  6  5  2  0  0  0  0
  7  6  1  0  0  0  0
  7  2  2  0  0  0  0
  8  9  1  0  0  0  0
  9 10  2  0  0  0  0
 10 31  1  0  0  0  0
 11 10  1  0  0  0  0
 12  8  1  0  0  0  0
 12 11  2  0  0  0  0
 13 14  2  0  0  0  0
 13 15  1  0  0  0  0
 15 27  1  0  0  0  0
 15 16  1  0  0  0  0
 16 35  1  0  0  0  0
 16 17  1  0  0  0  0
 17 37  1  0  0  0  0
 17 18  1  0  0  0  0
 18 23  1  0  0  0  0
 18 19  1  0  0  0  0
 19 38  1  0  0  0  0
 19 20  1  0  0  0  0
 20 21  2  0  0  0  0
 22 20  1  0  0  0  0
 22 25  1  0  0  0  0
 23 22  1  0  0  0  0
 24 23  2  0  0  0  0
 25 40  1  0  0  0  0
 25 41  1  0  0  0  0
 26 43  1  0  0  0  0
 26 42  1  0  0  0  0
 26 18  1  0  0  0  0
 27 26  1  0  0  0  0
 29  6  1  0  0  0  0
 30  7  1  0  0  0  0
 32 11  1  0  0  0  0
 33 12  1  0  0  0  0
 34 16  1  0  0  0  0
 36 17  1  0  0  0  0
 39 25  1  0  0  0  0
 44 27  1  0  0  0  0
 45 27  1  0  0  0  0
M  END
>  <Pose>
1

>  <Score>
-5.85

$$$$
