
 OpenBabel03202210193D

 53 56  0  0  1  0  0  0  0  0999 V2000
   22.2870   69.6220   -6.0560 Cl  0  0  0  0  0  0  0  0  0  0  0  0
   22.2600   67.9980   -6.6850 C   0  0  0  0  0  0  0  0  0  0  0  0
   21.2180   67.5400   -7.4350 C   0  0  0  0  0  0  0  0  0  0  0  0
   21.2450   66.2370   -7.9110 C   0  0  0  0  0  0  0  0  0  0  0  0
   22.2670   65.3760   -7.6680 C   0  0  0  0  0  0  0  0  0  0  0  0
   23.3320   65.8480   -6.9010 C   0  0  0  0  0  0  0  0  0  0  0  0
   23.3270   67.1370   -6.4180 C   0  0  0  0  0  0  0  0  0  0  0  0
   22.2880   64.0050   -8.1630 C   0  0  1  0  0  0  0  0  0  0  0  0
   22.6750   63.0880   -7.0750 N   0  0  0  0  0  0  0  0  0  0  0  0
   21.5010   62.7240   -6.3620 C   0  0  0  0  0  0  0  0  0  0  0  0
   21.4290   62.2820   -5.2140 O   0  0  0  0  0  0  0  0  0  0  0  0
   20.3520   62.9700   -7.2570 C   0  0  0  0  0  0  0  0  0  0  0  0
   19.1170   62.7830   -7.0130 O   0  0  0  0  0  0  0  0  0  0  0  0
   20.9220   63.4800   -8.4930 C   0  0  0  0  0  0  0  0  0  0  0  0
   20.2970   63.4840   -9.6440 C   0  0  0  0  0  0  0  0  0  0  0  0
   20.9480   64.0470  -10.7380 O   0  0  0  0  0  0  0  0  0  0  0  0
   18.9660   62.9440   -9.8980 C   0  0  0  0  0  0  0  0  0  0  0  0
   17.9570   63.8760  -10.1140 C   0  0  0  0  0  0  0  0  0  0  0  0
   16.6900   63.4430  -10.3830 C   0  0  0  0  0  0  0  0  0  0  0  0
   16.3910   62.0950  -10.4440 C   0  0  0  0  0  0  0  0  0  0  0  0
   17.3940   61.1750  -10.2290 C   0  0  0  0  0  0  0  0  0  0  0  0
   18.6710   61.6260   -9.9590 C   0  0  0  0  0  0  0  0  0  0  0  0
   14.7680   61.5920  -10.7880 Cl  0  0  0  0  0  0  0  0  0  0  0  0
   24.0460   62.6930   -6.8790 C   0  0  0  0  0  0  0  0  0  0  0  0
   24.9390   63.7200   -6.2940 C   0  0  0  0  0  0  0  0  0  0  0  0
   25.3040   63.6140   -4.9300 N   0  0  0  0  0  4  0  0  0  0  0  0
   26.2500   62.5550   -4.6530 C   0  0  0  0  0  0  0  0  0  0  0  0
   25.7760   61.5760   -3.6060 C   0  0  0  0  0  0  0  0  0  0  0  0
   25.2840   62.1490   -2.4620 O   0  0  0  0  0  0  0  0  0  0  0  0
   24.3940   63.1800   -2.6960 C   0  0  0  0  0  0  0  0  0  0  0  0
   24.0930   63.2520   -4.1630 C   0  0  0  0  0  0  0  0  0  0  0  0
   20.3930   68.2100   -7.6390 H   0  0  0  0  0  0  0  0  0  0  0  0
   20.4040   65.9280   -8.4970 H   0  0  0  0  0  0  0  0  0  0  0  0
   24.1520   65.1750   -6.7000 H   0  0  0  0  0  0  0  0  0  0  0  0
   24.1290   67.5380   -5.8230 H   0  0  0  0  0  0  0  0  0  0  0  0
   22.9810   63.8600   -9.0220 H   0  0  0  0  0  0  0  0  0  0  0  0
   18.1810   64.9550  -10.0680 H   0  0  0  0  0  0  0  0  0  0  0  0
   15.9300   64.2080  -10.5460 H   0  0  0  0  0  0  0  0  0  0  0  0
   17.1310   60.1280  -10.2840 H   0  0  0  0  0  0  0  0  0  0  0  0
   19.4580   60.8790   -9.8100 H   0  0  0  0  0  0  0  0  0  0  0  0
   24.4640   62.4430   -7.9030 H   0  0  0  0  0  0  0  0  0  0  0  0
   24.1130   61.7090   -6.3490 H   0  0  0  0  0  0  0  0  0  0  0  0
   25.8820   63.8130   -6.9210 H   0  0  0  0  0  0  0  0  0  0  0  0
   24.4970   64.7650   -6.4140 H   0  0  0  0  0  0  0  0  0  0  0  0
   25.6010   64.5100   -4.5100 H   0  0  0  0  0  0  0  0  0  0  0  0
   27.2050   63.0180   -4.3400 H   0  0  0  0  0  0  0  0  0  0  0  0
   26.4670   61.9430   -5.5540 H   0  0  0  0  0  0  0  0  0  0  0  0
   26.6810   60.9690   -3.3370 H   0  0  0  0  0  0  0  0  0  0  0  0
   25.0730   60.8440   -4.0640 H   0  0  0  0  0  0  0  0  0  0  0  0
   23.4440   63.0540   -2.1580 H   0  0  0  0  0  0  0  0  0  0  0  0
   24.8440   64.1510   -2.3970 H   0  0  0  0  0  0  0  0  0  0  0  0
   23.7360   62.2920   -4.5690 H   0  0  0  0  0  0  0  0  0  0  0  0
   23.2890   64.0030   -4.3470 H   0  0  0  0  0  0  0  0  0  0  0  0
  2  7  1  0  0  0  0
  2  1  1  0  0  0  0
  3  2  2  0  0  0  0
  4  5  2  0  0  0  0
  4  3  1  0  0  0  0
  5  6  1  0  0  0  0
  6 34  1  0  0  0  0
  6  7  2  0  0  0  0
  7 35  1  0  0  0  0
  8 36  1  6  0  0  0
  8  5  1  0  0  0  0
  8  9  1  0  0  0  0
  9 24  1  0  0  0  0
  9 10  1  0  0  0  0
 10 11  2  0  0  0  0
 12 13  2  0  0  0  0
 12 10  1  0  0  0  0
 14  8  1  0  0  0  0
 14 12  1  0  0  0  0
 15 14  2  0  0  0  0
 16 15  1  0  0  0  0
 17 15  1  0  0  0  0
 18 37  1  0  0  0  0
 18 17  2  0  0  0  0
 19 18  1  0  0  0  0
 20 19  2  0  0  0  0
 20 21  1  0  0  0  0
 21 22  2  0  0  0  0
 22 17  1  0  0  0  0
 22 40  1  0  0  0  0
 23 20  1  0  0  0  0
 24 42  1  0  0  0  0
 24 25  1  0  0  0  0
 25 26  1  0  0  0  0
 26 27  1  0  0  0  0
 26 45  1  0  0  0  0
 26 31  1  0  0  0  0
 27 46  1  0  0  0  0
 27 28  1  0  0  0  0
 28 48  1  0  0  0  0
 28 29  1  0  0  0  0
 30 29  1  0  0  0  0
 30 51  1  0  0  0  0
 30 50  1  0  0  0  0
 31 30  1  0  0  0  0
 32  3  1  0  0  0  0
 33  4  1  0  0  0  0
 38 19  1  0  0  0  0
 39 21  1  0  0  0  0
 41 24  1  0  0  0  0
 43 25  1  0  0  0  0
 44 25  1  0  0  0  0
 47 27  1  0  0  0  0
 49 28  1  0  0  0  0
 52 31  1  0  0  0  0
 53 31  1  0  0  0  0
M  END
>  <Pose>
1

>  <Score>
-5.99

$$$$
