
 OpenBabel03202210193D

 44 47  0  0  0  0  0  0  0  0999 V2000
   23.9890   63.3120   -4.5520 S   0  0  0  0  0  0  0  0  0  0  0  0
   22.9840   62.5670   -3.8280 O   0  0  0  0  0  0  0  0  0  0  0  0
   24.4920   64.4870   -3.7680 O   0  0  0  0  0  0  0  0  0  0  0  0
   25.4280   62.3080   -4.9950 C   0  0  0  0  0  0  0  0  0  0  0  0
   23.3790   63.9580   -6.0860 C   0  0  0  0  0  0  0  0  0  0  0  0
   23.5410   63.2250   -7.1930 N   0  0  0  0  0  0  0  0  0  0  0  0
   23.0680   63.5580   -8.3910 C   0  0  0  0  0  0  0  0  0  0  0  0
   22.3440   64.7580   -8.4810 C   0  0  0  0  0  0  0  0  0  0  0  0
   22.1840   65.4940   -7.3610 C   0  0  0  0  0  0  0  0  0  0  0  0
   22.7050   65.0910   -6.1680 N   0  0  0  0  0  0  0  0  0  0  0  0
   21.4800   66.6860   -7.4490 O   0  0  0  0  0  0  0  0  0  0  0  0
   21.7250   65.0100   -9.7840 C   0  0  0  0  0  0  0  0  0  0  0  0
   21.0250   63.8080  -10.1170 N   0  0  0  0  0  0  0  0  0  0  0  0
   22.1440   62.9040  -10.6390 C   0  0  0  0  0  0  0  0  0  0  0  0
   23.2230   62.7470   -9.6270 C   0  0  0  0  0  0  0  0  0  0  0  0
   20.5310   62.9640   -8.9690 C   0  0  0  0  0  0  0  0  0  0  0  0
   19.1070   62.6980   -9.4630 C   0  0  0  0  0  0  0  0  0  0  0  0
   18.1450   63.6180   -9.6190 C   0  0  0  0  0  0  0  0  0  0  0  0
   16.8350   63.3250  -10.0850 C   0  0  0  0  0  0  0  0  0  0  0  0
   16.6160   61.9770  -10.3820 C   0  0  0  0  0  0  0  0  0  0  0  0
   15.3750   61.6350  -10.8340 C   0  0  0  0  0  0  0  0  0  0  0  0
   14.3150   62.5500  -11.0160 C   0  0  0  0  0  0  0  0  0  0  0  0
   14.5860   63.8960  -10.7090 C   0  0  0  0  0  0  0  0  0  0  0  0
   15.8330   64.2190  -10.2560 C   0  0  0  0  0  0  0  0  0  0  0  0
   17.5380   61.0870  -10.2470 O   0  0  0  0  0  0  0  0  0  0  0  0
   18.7670   61.3900   -9.8010 C   0  0  0  0  0  0  0  0  0  0  0  0
   19.6760   60.4850   -9.6590 O   0  0  0  0  0  0  0  0  0  0  0  0
   18.5340   65.2730   -9.2920 Cl  0  0  0  0  0  0  0  0  0  0  0  0
   25.9630   62.8620   -5.8470 H   0  0  0  0  0  0  0  0  0  0  0  0
   25.0480   61.3490   -5.4530 H   0  0  0  0  0  0  0  0  0  0  0  0
   26.0830   62.1180   -4.1420 H   0  0  0  0  0  0  0  0  0  0  0  0
   21.6400   67.3910   -8.1760 H   0  0  0  0  0  0  0  0  0  0  0  0
   21.1570   65.9640   -9.8750 H   0  0  0  0  0  0  0  0  0  0  0  0
   22.6010   65.0770  -10.5530 H   0  0  0  0  0  0  0  0  0  0  0  0
   21.6160   61.9340  -10.8990 H   0  0  0  0  0  0  0  0  0  0  0  0
   22.4680   63.4030  -11.5470 H   0  0  0  0  0  0  0  0  0  0  0  0
   23.1990   61.6410   -9.3450 H   0  0  0  0  0  0  0  0  0  0  0  0
   24.1950   62.9070  -10.0980 H   0  0  0  0  0  0  0  0  0  0  0  0
   21.0620   62.0370   -8.8800 H   0  0  0  0  0  0  0  0  0  0  0  0
   20.5030   63.6360   -8.1050 H   0  0  0  0  0  0  0  0  0  0  0  0
   15.1150   60.6200  -11.1300 H   0  0  0  0  0  0  0  0  0  0  0  0
   13.3140   62.2300  -11.3710 H   0  0  0  0  0  0  0  0  0  0  0  0
   13.8000   64.5660  -10.8780 H   0  0  0  0  0  0  0  0  0  0  0  0
   16.0510   65.2490   -9.9300 H   0  0  0  0  0  0  0  0  0  0  0  0
  1  2  2  0  0  0  0
  1  3  2  0  0  0  0
  4  1  1  0  0  0  0
  4 31  1  0  0  0  0
  5  1  1  0  0  0  0
  6  5  2  0  0  0  0
  7  6  1  0  0  0  0
  8  7  2  0  0  0  0
  8  9  1  0  0  0  0
  9 10  2  0  0  0  0
 10  5  1  0  0  0  0
 11  9  1  0  0  0  0
 12  8  1  0  0  0  0
 13 12  1  0  0  0  0
 13 16  1  0  0  0  0
 14 13  1  0  0  0  0
 14 15  1  0  0  0  0
 15 37  1  0  0  0  0
 15  7  1  0  0  0  0
 16 39  1  0  0  0  0
 16 40  1  0  0  0  0
 17 16  1  0  0  0  0
 18 17  2  0  0  0  0
 18 28  1  0  0  0  0
 19 18  1  0  0  0  0
 20 25  1  0  0  0  0
 20 19  2  0  0  0  0
 21 20  1  0  0  0  0
 22 21  2  0  0  0  0
 22 23  1  0  0  0  0
 23 24  2  0  0  0  0
 24 19  1  0  0  0  0
 24 44  1  0  0  0  0
 25 26  1  0  0  0  0
 26 27  2  0  0  0  0
 26 17  1  0  0  0  0
 29  4  1  0  0  0  0
 30  4  1  0  0  0  0
 32 11  1  0  0  0  0
 33 12  1  0  0  0  0
 34 12  1  0  0  0  0
 35 14  1  0  0  0  0
 36 14  1  0  0  0  0
 38 15  1  0  0  0  0
 41 21  1  0  0  0  0
 42 22  1  0  0  0  0
 43 23  1  0  0  0  0
M  END
>  <Pose>
1

>  <Score>
-7.21

$$$$
