
 OpenBabel03202210193D

 32 35  0  0  1  0  0  0  0  0999 V2000
   22.5160   67.9220   -6.0850 Cl  0  0  0  0  0  0  0  0  0  0  0  0
   22.7950   66.2700   -6.6430 C   0  0  0  0  0  0  0  0  0  0  0  0
   23.5730   65.3900   -5.9320 C   0  0  0  0  0  0  0  0  0  0  0  0
   23.7800   64.0820   -6.3970 C   0  0  0  0  0  0  0  0  0  0  0  0
   23.2190   63.6420   -7.5620 C   0  0  0  0  0  0  0  0  0  0  0  0
   22.4200   64.5380   -8.2960 C   0  0  0  0  0  0  0  0  0  0  0  0
   22.2390   65.8110   -7.8130 C   0  0  0  0  0  0  0  0  0  0  0  0
   23.5550   62.2930   -7.8430 N   0  0  0  0  0  0  0  0  0  0  0  0
   24.3850   61.8570   -6.7810 C   0  0  0  0  0  0  0  0  0  0  0  0
   24.8750   60.6930   -6.7040 O   0  0  0  0  0  0  0  0  0  0  0  0
   24.5650   62.9650   -5.8170 C   0  0  1  0  0  0  0  0  0  0  0  0
   26.0460   63.2820   -5.7900 C   0  0  0  0  0  0  0  0  0  0  0  0
   26.6820   62.1200   -5.0840 C   0  0  0  0  0  0  0  0  0  0  0  0
   27.6210   61.4600   -5.5650 O   0  0  0  0  0  0  0  0  0  0  0  0
   26.1450   61.7930   -3.7960 N   0  0  0  0  0  0  0  0  0  0  0  0
   24.7790   62.0710   -3.5170 C   0  0  0  0  0  0  0  0  0  0  0  0
   24.0030   61.8890   -2.4140 N   0  0  0  0  0  0  0  0  0  0  0  0
   22.7990   62.3290   -2.6840 N   0  0  0  0  0  0  0  0  0  0  0  0
   22.7290   62.8070   -3.9360 C   0  0  0  0  0  0  0  0  0  0  0  0
   24.0040   62.6470   -4.4920 C   0  0  0  0  0  0  0  0  0  0  0  0
   23.1190   61.5210   -9.0110 C   0  0  0  0  0  0  0  0  0  0  0  0
   24.0280   65.6880   -5.0230 H   0  0  0  0  0  0  0  0  0  0  0  0
   21.9770   64.1860   -9.2190 H   0  0  0  0  0  0  0  0  0  0  0  0
   21.6170   66.4970   -8.3910 H   0  0  0  0  0  0  0  0  0  0  0  0
   26.2860   64.2270   -5.3010 H   0  0  0  0  0  0  0  0  0  0  0  0
   26.3990   63.2270   -6.8390 H   0  0  0  0  0  0  0  0  0  0  0  0
   26.7410   61.3540   -3.0600 H   0  0  0  0  0  0  0  0  0  0  0  0
   24.3640   61.4630   -1.5290 H   0  0  0  0  0  0  0  0  0  0  0  0
   21.9010   63.2370   -4.4700 H   0  0  0  0  0  0  0  0  0  0  0  0
   23.6710   60.5600   -8.9860 H   0  0  0  0  0  0  0  0  0  0  0  0
   22.0310   61.3950   -9.0430 H   0  0  0  0  0  0  0  0  0  0  0  0
   23.4020   62.0530   -9.9630 H   0  0  0  0  0  0  0  0  0  0  0  0
  2  1  1  0  0  0  0
  2  3  1  0  0  0  0
  3 22  1  0  0  0  0
  4  3  2  0  0  0  0
  4 11  1  0  0  0  0
  5  4  1  0  0  0  0
  6  7  1  0  0  0  0
  6  5  2  0  0  0  0
  7  2  2  0  0  0  0
  8  5  1  0  0  0  0
  8  9  1  0  0  0  0
  9 10  2  0  0  0  0
 11  9  1  6  0  0  0
 11 12  1  0  0  0  0
 11 20  1  0  0  0  0
 12 25  1  0  0  0  0
 12 13  1  0  0  0  0
 13 15  1  0  0  0  0
 14 13  2  0  0  0  0
 15 16  1  0  0  0  0
 15 27  1  0  0  0  0
 16 17  1  0  0  0  0
 17 28  1  0  0  0  0
 18 17  1  0  0  0  0
 19 18  2  0  0  0  0
 20 19  1  0  0  0  0
 20 16  2  0  0  0  0
 21 30  1  0  0  0  0
 21  8  1  0  0  0  0
 23  6  1  0  0  0  0
 24  7  1  0  0  0  0
 26 12  1  0  0  0  0
 29 19  1  0  0  0  0
 31 21  1  0  0  0  0
 32 21  1  0  0  0  0
M  END
>  <Pose>
1

>  <Score>
-5.62

$$$$
