
 OpenBabel03202210193D

 52 55  0  0  0  0  0  0  0  0999 V2000
   25.5710   62.8960   -2.2510 Cl  0  0  0  0  0  0  0  0  0  0  0  0
   24.9650   63.2620   -3.8340 C   0  0  0  0  0  0  0  0  0  0  0  0
   23.7040   63.7550   -4.0810 C   0  0  0  0  0  0  0  0  0  0  0  0
   23.2420   64.0440   -5.3500 C   0  0  0  0  0  0  0  0  0  0  0  0
   24.0450   63.8440   -6.4430 C   0  0  0  0  0  0  0  0  0  0  0  0
   25.3100   63.3470   -6.1820 C   0  0  0  0  0  0  0  0  0  0  0  0
   25.7900   63.0530   -4.9240 C   0  0  0  0  0  0  0  0  0  0  0  0
   23.6870   64.1350   -7.7850 N   0  0  0  0  0  0  0  0  0  0  0  0
   24.2790   64.9640   -8.6010 N   0  0  0  0  0  0  0  0  0  0  0  0
   23.6830   65.0240   -9.7960 C   0  0  0  0  0  0  0  0  0  0  0  0
   22.6030   64.1530   -9.7480 C   0  0  0  0  0  0  0  0  0  0  0  0
   22.6410   63.6130   -8.4660 C   0  0  0  0  0  0  0  0  0  0  0  0
   21.6880   62.7250   -8.1700 N   0  0  0  0  0  0  0  0  0  0  0  0
   20.7420   62.3730   -9.0670 C   0  0  0  0  0  0  0  0  0  0  0  0
   20.6800   62.8760  -10.3100 N   0  0  0  0  0  0  0  0  0  0  0  0
   21.6320   63.7830  -10.6490 C   0  0  0  0  0  0  0  0  0  0  0  0
   21.6150   64.2800  -11.8030 O   0  0  0  0  0  0  0  0  0  0  0  0
   19.6460   62.5090  -11.2830 C   0  0  0  0  0  0  0  0  0  0  0  0
   18.4790   61.8790  -10.6400 C   0  0  0  0  0  0  0  0  0  0  0  0
   18.6400   60.6450  -10.3360 O   0  0  0  0  0  0  0  0  0  0  0  0
   17.2590   62.4790  -10.3400 N   0  0  0  0  0  0  0  0  0  0  0  0
   16.1900   61.7290   -9.6630 C   0  0  0  0  0  0  0  0  0  0  0  0
   15.0660   61.6540  -10.7050 C   0  0  0  0  0  0  0  0  0  0  0  0
   14.7610   62.9670  -11.2070 N   0  0  0  0  0  0  0  0  0  0  0  0
   15.4740   64.0890  -10.6250 C   0  0  0  0  0  0  0  0  0  0  0  0
   16.9640   63.8630  -10.6360 C   0  0  0  0  0  0  0  0  0  0  0  0
   13.8220   63.1590  -12.2440 C   0  0  0  0  0  0  0  0  0  0  0  0
   13.4280   62.1160  -12.8870 O   0  0  0  0  0  0  0  0  0  0  0  0
   13.2790   64.3610  -12.6390 O   0  0  0  0  0  0  0  0  0  0  0  0
   13.9490   65.1910  -13.6070 C   0  0  0  0  0  0  0  0  0  0  0  0
   12.8550   65.8680  -14.4130 C   0  0  0  0  0  0  0  0  0  0  0  0
   23.0830   63.9100   -3.1820 H   0  0  0  0  0  0  0  0  0  0  0  0
   22.2480   64.4260   -5.4980 H   0  0  0  0  0  0  0  0  0  0  0  0
   25.9740   63.1750   -7.0470 H   0  0  0  0  0  0  0  0  0  0  0  0
   26.8020   62.6680   -4.8370 H   0  0  0  0  0  0  0  0  0  0  0  0
   23.9030   65.5940  -10.6820 H   0  0  0  0  0  0  0  0  0  0  0  0
   19.9680   61.6420   -8.8010 H   0  0  0  0  0  0  0  0  0  0  0  0
   20.0710   61.7440  -12.0040 H   0  0  0  0  0  0  0  0  0  0  0  0
   19.3930   63.4220  -11.8460 H   0  0  0  0  0  0  0  0  0  0  0  0
   15.8630   62.2380   -8.7460 H   0  0  0  0  0  0  0  0  0  0  0  0
   16.5500   60.7150   -9.5020 H   0  0  0  0  0  0  0  0  0  0  0  0
   14.2230   61.1230  -10.2380 H   0  0  0  0  0  0  0  0  0  0  0  0
   15.4310   60.9930  -11.5470 H   0  0  0  0  0  0  0  0  0  0  0  0
   15.0740   64.2350   -9.6130 H   0  0  0  0  0  0  0  0  0  0  0  0
   15.2640   64.9910  -11.2620 H   0  0  0  0  0  0  0  0  0  0  0  0
   17.3520   64.4460   -9.7430 H   0  0  0  0  0  0  0  0  0  0  0  0
   17.4700   64.2130  -11.5500 H   0  0  0  0  0  0  0  0  0  0  0  0
   14.5210   65.9990  -13.0490 H   0  0  0  0  0  0  0  0  0  0  0  0
   14.6200   64.6610  -14.2600 H   0  0  0  0  0  0  0  0  0  0  0  0
   13.0050   66.9390  -14.5700 H   0  0  0  0  0  0  0  0  0  0  0  0
   12.7670   65.2770  -15.3750 H   0  0  0  0  0  0  0  0  0  0  0  0
   11.9000   65.7230  -13.8930 H   0  0  0  0  0  0  0  0  0  0  0  0
  2  1  1  0  0  0  0
  3  2  1  0  0  0  0
  3 32  1  0  0  0  0
  4  3  2  0  0  0  0
  5  6  2  0  0  0  0
  5  4  1  0  0  0  0
  6  7  1  0  0  0  0
  7 35  1  0  0  0  0
  7  2  2  0  0  0  0
  8  5  1  0  0  0  0
  9  8  1  0  0  0  0
 10 11  1  0  0  0  0
 10  9  2  0  0  0  0
 11 12  2  0  0  0  0
 12 13  1  0  0  0  0
 12  8  1  0  0  0  0
 14 37  1  0  0  0  0
 14 13  2  0  0  0  0
 15 14  1  0  0  0  0
 16 15  1  0  0  0  0
 16 11  1  0  0  0  0
 17 16  2  0  0  0  0
 18 19  1  0  0  0  0
 18 15  1  0  0  0  0
 19 21  1  0  0  0  0
 19 20  2  0  0  0  0
 21 22  1  0  0  0  0
 22 41  1  0  0  0  0
 22 40  1  0  0  0  0
 23 42  1  0  0  0  0
 23 22  1  0  0  0  0
 24 23  1  0  0  0  0
 24 25  1  0  0  0  0
 25 44  1  0  0  0  0
 26 25  1  0  0  0  0
 26 21  1  0  0  0  0
 26 46  1  0  0  0  0
 27 24  1  0  0  0  0
 28 27  2  0  0  0  0
 29 27  1  0  0  0  0
 30 48  1  0  0  0  0
 30 29  1  0  0  0  0
 31 52  1  0  0  0  0
 31 30  1  0  0  0  0
 33  4  1  0  0  0  0
 34  6  1  0  0  0  0
 36 10  1  0  0  0  0
 38 18  1  0  0  0  0
 39 18  1  0  0  0  0
 43 23  1  0  0  0  0
 45 25  1  0  0  0  0
 47 26  1  0  0  0  0
 49 30  1  0  0  0  0
 50 31  1  0  0  0  0
 51 31  1  0  0  0  0
M  END
>  <Pose>
1

>  <Score>
-6.92

$$$$
