
 OpenBabel03202210193D

 54 58  0  0  1  0  0  0  0  0999 V2000
   18.9810   62.3540  -10.2730 S   0  0  0  0  0  0  0  0  0  0  0  0
   19.0340   60.8570  -10.5480 O   0  0  0  0  0  0  0  0  0  0  0  0
   19.0190   62.9810  -11.6670 O   0  0  0  0  0  0  0  0  0  0  0  0
   17.4830   62.7020   -9.6000 N   0  0  0  0  0  0  0  0  0  0  0  0
   16.8510   63.9250  -10.0230 C   0  0  0  0  0  0  0  0  0  0  0  0
   15.3930   63.7120  -10.3590 C   0  0  0  0  0  0  0  0  0  0  0  0
   15.2570   62.6270  -11.3630 N   0  0  0  0  0  0  0  0  0  0  0  0
   15.7220   61.3960  -10.7420 C   0  0  0  0  0  0  0  0  0  0  0  0
   16.5380   61.6340   -9.4830 C   0  0  0  0  0  0  0  0  0  0  0  0
   13.8300   62.5460  -11.5880 C   0  0  0  0  0  0  0  0  0  0  0  0
   13.3510   62.5380  -12.9770 C   0  0  0  0  0  0  0  0  0  0  0  0
   12.9060   63.7490  -13.5800 N   0  0  0  0  0  0  0  0  0  0  0  0
   11.6520   64.0910  -14.1600 C   0  0  0  0  0  0  0  0  0  0  0  0
   10.8450   63.2870  -14.6490 O   0  0  0  0  0  0  0  0  0  0  0  0
   11.4760   65.5610  -14.0840 C   0  0  1  0  0  0  0  0  0  0  0  0
   12.9500   66.0220  -14.1510 C   0  0  2  0  0  0  0  0  0  0  0  0
   13.1840   66.4070  -15.5630 C   0  0  1  0  0  0  0  0  0  0  0  0
   12.1030   65.6000  -16.3020 C   0  0  0  0  0  0  0  0  0  0  0  0
   10.9710   66.0880  -15.3800 C   0  0  2  0  0  0  0  0  0  0  0  0
   11.2730   67.5580  -15.3960 C   0  0  0  0  0  0  0  0  0  0  0  0
   12.5430   67.7680  -15.7430 C   0  0  0  0  0  0  0  0  0  0  0  0
   13.7510   64.9190  -13.6380 C   0  0  0  0  0  0  0  0  0  0  0  0
   14.9620   65.0050  -13.3140 O   0  0  0  0  0  0  0  0  0  0  0  0
   20.3740   62.9000   -9.4300 C   0  0  0  0  0  0  0  0  0  0  0  0
   21.5970   62.9560  -10.0530 C   0  0  0  0  0  0  0  0  0  0  0  0
   22.6950   63.4110   -9.3450 C   0  0  0  0  0  0  0  0  0  0  0  0
   22.6130   63.8140   -8.0250 C   0  0  0  0  0  0  0  0  0  0  0  0
   21.3830   63.7570   -7.4040 C   0  0  0  0  0  0  0  0  0  0  0  0
   20.2800   63.2990   -8.1160 C   0  0  0  0  0  0  0  0  0  0  0  0
   24.1250   64.4400   -7.0470 B   0  0  0  0  0  0  0  0  0  0  0  0
   16.8680   64.6230   -9.1540 H   0  0  0  0  0  0  0  0  0  0  0  0
   17.4010   64.3920  -10.8380 H   0  0  0  0  0  0  0  0  0  0  0  0
   15.0070   64.6260  -10.8440 H   0  0  0  0  0  0  0  0  0  0  0  0
   14.7610   63.4880   -9.4810 H   0  0  0  0  0  0  0  0  0  0  0  0
   16.4210   60.9000  -11.4360 H   0  0  0  0  0  0  0  0  0  0  0  0
   14.8370   60.7690  -10.5380 H   0  0  0  0  0  0  0  0  0  0  0  0
   17.0360   60.7300   -9.1380 H   0  0  0  0  0  0  0  0  0  0  0  0
   15.8150   61.9310   -8.6900 H   0  0  0  0  0  0  0  0  0  0  0  0
   13.3320   63.4380  -11.0870 H   0  0  0  0  0  0  0  0  0  0  0  0
   13.4140   61.6850  -10.9730 H   0  0  0  0  0  0  0  0  0  0  0  0
   14.2210   62.1580  -13.6080 H   0  0  0  0  0  0  0  0  0  0  0  0
   12.5840   61.7180  -13.0670 H   0  0  0  0  0  0  0  0  0  0  0  0
   10.9700   65.9030  -13.1860 H   0  0  0  0  0  0  0  0  0  0  0  0
   13.0650   66.9550  -13.5270 H   0  0  0  0  0  0  0  0  0  0  0  0
   14.1610   66.3050  -15.9710 H   0  0  0  0  0  0  0  0  0  0  0  0
   11.9510   65.9490  -17.3300 H   0  0  0  0  0  0  0  0  0  0  0  0
   12.2110   64.5260  -16.1860 H   0  0  0  0  0  0  0  0  0  0  0  0
    9.9910   65.8220  -15.6950 H   0  0  0  0  0  0  0  0  0  0  0  0
   10.5950   68.3730  -15.1660 H   0  0  0  0  0  0  0  0  0  0  0  0
   13.0010   68.6820  -16.0720 H   0  0  0  0  0  0  0  0  0  0  0  0
   21.7240   62.6490  -11.1040 H   0  0  0  0  0  0  0  0  0  0  0  0
   23.6640   63.4540   -9.8420 H   0  0  0  0  0  0  0  0  0  0  0  0
   21.3330   64.0730   -6.3740 H   0  0  0  0  0  0  0  0  0  0  0  0
   19.3570   63.2900   -7.5540 H   0  0  0  0  0  0  0  0  0  0  0  0
  1  4  1  0  0  0  0
  1 24  1  0  0  0  0
  2  1  2  0  0  0  0
  3  1  2  0  0  0  0
  4  9  1  0  0  0  0
  5  4  1  0  0  0  0
  5 31  1  0  0  0  0
  6  5  1  0  0  0  0
  6 34  1  0  0  0  0
  7  8  1  0  0  0  0
  7  6  1  0  0  0  0
  8 36  1  0  0  0  0
  8  9  1  0  0  0  0
  9 37  1  0  0  0  0
  9 38  1  0  0  0  0
 10  7  1  0  0  0  0
 10 39  1  0  0  0  0
 10 40  1  0  0  0  0
 11 10  1  0  0  0  0
 12 11  1  0  0  0  0
 13 15  1  0  0  0  0
 13 12  1  0  0  0  0
 14 13  2  0  0  0  0
 15 43  1  1  0  0  0
 16 15  1  0  0  0  0
 16 22  1  0  0  0  0
 16 44  1  1  0  0  0
 17 45  1  6  0  0  0
 17 16  1  0  0  0  0
 18 47  1  0  0  0  0
 18 17  1  0  0  0  0
 18 19  1  0  0  0  0
 19 48  1  6  0  0  0
 19 15  1  0  0  0  0
 20 19  1  0  0  0  0
 20 49  1  0  0  0  0
 21 17  1  0  0  0  0
 21 20  1  0  0  0  0
 22 12  1  0  0  0  0
 22 23  2  0  0  0  0
 24 29  1  0  0  0  0
 25 24  2  0  0  0  0
 25 26  1  0  0  0  0
 26 27  2  0  0  0  0
 27 28  1  0  0  0  0
 27 30  1  0  0  0  0
 28 53  1  0  0  0  0
 29 54  1  0  0  0  0
 29 28  2  0  0  0  0
 32  5  1  0  0  0  0
 33  6  1  0  0  0  0
 35  8  1  0  0  0  0
 41 11  1  0  0  0  0
 42 11  1  0  0  0  0
 46 18  1  0  0  0  0
 50 21  1  0  0  0  0
 51 25  1  0  0  0  0
 52 26  1  0  0  0  0
M  END
>  <Pose>
1

>  <Score>
-6.25

$$$$
