
 OpenBabel03202210193D

 61 64  0  0  1  0  0  0  0  0999 V2000
   14.4210   62.7980  -11.1150 B   0  0  0  0  0  0  0  0  0  0  0  0
   16.2560   62.9890  -10.5590 C   0  0  0  0  0  0  0  0  0  0  0  0
   16.8730   64.2130  -10.5470 C   0  0  0  0  0  0  0  0  0  0  0  0
   18.1940   64.4060  -10.1550 C   0  0  0  0  0  0  0  0  0  0  0  0
   18.9230   63.3090   -9.7560 C   0  0  0  0  0  0  0  0  0  0  0  0
   18.2890   62.0760   -9.7730 C   0  0  0  0  0  0  0  0  0  0  0  0
   16.9830   61.8860  -10.1610 C   0  0  0  0  0  0  0  0  0  0  0  0
   20.3010   63.4230   -9.3010 C   0  0  0  0  0  0  0  0  0  0  0  0
   20.9270   62.3100   -9.2110 O   0  0  0  0  0  0  0  0  0  0  0  0
   20.9890   64.6660   -8.9510 C   0  0  2  0  0  0  0  0  0  0  0  0
   22.4910   64.5980   -9.0110 C   0  0  1  0  0  0  0  0  0  0  0  0
   22.9330   64.1750   -7.7570 N   0  0  0  0  0  0  0  0  0  0  0  0
   22.0240   64.9170   -6.8500 C   0  0  0  0  0  0  0  0  0  0  0  0
   22.2950   65.3620   -5.7020 O   0  0  0  0  0  0  0  0  0  0  0  0
   20.7480   65.0320   -7.5370 C   0  0  0  0  0  0  0  0  0  0  0  0
   19.6560   65.3820   -7.0060 O   0  0  0  0  0  0  0  0  0  0  0  0
   23.9720   63.4230   -7.1250 C   0  0  0  0  0  0  0  0  0  0  0  0
   23.9420   63.3330   -5.6470 C   0  0  0  0  0  0  0  0  0  0  0  0
   24.9610   63.8580   -4.8410 N   0  0  0  0  0  4  0  0  0  0  0  0
   24.6160   63.8620   -3.4130 C   0  0  0  0  0  0  0  0  0  0  0  0
   24.4210   62.4900   -2.8620 C   0  0  0  0  0  0  0  0  0  0  0  0
   24.8010   61.5540   -3.7970 O   0  0  0  0  0  0  0  0  0  0  0  0
   26.1260   61.8340   -4.1700 C   0  0  0  0  0  0  0  0  0  0  0  0
   26.1970   63.0770   -5.0300 C   0  0  0  0  0  0  0  0  0  0  0  0
   23.0550   64.2400  -10.2880 C   0  0  0  0  0  0  0  0  0  0  0  0
   23.2300   62.9750  -10.7510 C   0  0  0  0  0  0  0  0  0  0  0  0
   23.7660   62.7360  -12.0070 C   0  0  0  0  0  0  0  0  0  0  0  0
   24.1360   63.8260  -12.8110 C   0  0  0  0  0  0  0  0  0  0  0  0
   23.9600   65.0960  -12.3430 C   0  0  0  0  0  0  0  0  0  0  0  0
   23.4320   65.3290  -11.1110 C   0  0  0  0  0  0  0  0  0  0  0  0
   24.6750   63.6440  -14.0690 O   0  0  0  0  0  0  0  0  0  0  0  0
   23.9500   61.4840  -12.4990 O   0  0  0  0  0  0  0  0  0  0  0  0
   24.7580   60.5200  -11.9060 C   0  0  0  0  0  0  0  0  0  0  0  0
   24.0050   59.2770  -11.4680 C   0  0  0  0  0  0  0  0  0  0  0  0
   16.3100   65.0960  -10.8590 H   0  0  0  0  0  0  0  0  0  0  0  0
   18.6030   65.4060  -10.1970 H   0  0  0  0  0  0  0  0  0  0  0  0
   18.8250   61.1650   -9.4650 H   0  0  0  0  0  0  0  0  0  0  0  0
   16.5050   60.9130  -10.1680 H   0  0  0  0  0  0  0  0  0  0  0  0
   20.6200   65.5170   -9.6100 H   0  0  0  0  0  0  0  0  0  0  0  0
   22.7390   65.7950   -8.9210 H   0  0  0  0  0  0  0  0  0  0  0  0
   23.9980   62.3600   -7.5050 H   0  0  0  0  0  0  0  0  0  0  0  0
   24.9530   63.9170   -7.3970 H   0  0  0  0  0  0  0  0  0  0  0  0
   23.7990   62.2400   -5.3170 H   0  0  0  0  0  0  0  0  0  0  0  0
   22.9490   63.7670   -5.2520 H   0  0  0  0  0  0  0  0  0  0  0  0
   25.2000   64.8170   -5.0810 H   0  0  0  0  0  0  0  0  0  0  0  0
   23.7730   64.5470   -3.2720 H   0  0  0  0  0  0  0  0  0  0  0  0
   25.5030   64.3180   -2.9080 H   0  0  0  0  0  0  0  0  0  0  0  0
   25.0360   62.3330   -1.9480 H   0  0  0  0  0  0  0  0  0  0  0  0
   23.3330   62.3670   -2.6480 H   0  0  0  0  0  0  0  0  0  0  0  0
   26.7890   61.9660   -3.3130 H   0  0  0  0  0  0  0  0  0  0  0  0
   26.4480   60.9800   -4.8080 H   0  0  0  0  0  0  0  0  0  0  0  0
   27.0720   63.7130   -4.8030 H   0  0  0  0  0  0  0  0  0  0  0  0
   26.2340   62.8480   -6.1150 H   0  0  0  0  0  0  0  0  0  0  0  0
   22.9840   62.0870  -10.1590 H   0  0  0  0  0  0  0  0  0  0  0  0
   24.2510   65.9500  -12.9770 H   0  0  0  0  0  0  0  0  0  0  0  0
   23.3070   66.3510  -10.7710 H   0  0  0  0  0  0  0  0  0  0  0  0
   25.5830   60.1980  -12.5850 H   0  0  0  0  0  0  0  0  0  0  0  0
   25.2730   60.9170  -10.9950 H   0  0  0  0  0  0  0  0  0  0  0  0
   24.2430   58.4510  -12.1900 H   0  0  0  0  0  0  0  0  0  0  0  0
   24.3540   58.9600  -10.4750 H   0  0  0  0  0  0  0  0  0  0  0  0
   22.9250   59.4200  -11.4830 H   0  0  0  0  0  0  0  0  0  0  0  0
  1  2  1  0  0  0  0
  2  3  2  0  0  0  0
  2  7  1  0  0  0  0
  3  4  1  0  0  0  0
  4  5  2  0  0  0  0
  5  8  1  0  0  0  0
  6  5  1  0  0  0  0
  6 37  1  0  0  0  0
  7  6  2  0  0  0  0
  8  9  2  0  0  0  0
  8 10  1  0  0  0  0
 10 39  1  6  0  0  0
 10 15  1  0  0  0  0
 11 10  1  0  0  0  0
 11 40  1  1  0  0  0
 11 12  1  0  0  0  0
 12 17  1  0  0  0  0
 12 13  1  0  0  0  0
 13 14  2  0  0  0  0
 15 16  2  0  0  0  0
 15 13  1  0  0  0  0
 17 18  1  0  0  0  0
 18 43  1  0  0  0  0
 18 44  1  0  0  0  0
 18 19  1  0  0  0  0
 19 20  1  0  0  0  0
 20 46  1  0  0  0  0
 20 47  1  0  0  0  0
 20 21  1  0  0  0  0
 21 49  1  0  0  0  0
 21 48  1  0  0  0  0
 22 21  1  0  0  0  0
 23 22  1  0  0  0  0
 23 50  1  0  0  0  0
 24 19  1  0  0  0  0
 24 52  1  0  0  0  0
 24 23  1  0  0  0  0
 25 11  1  0  0  0  0
 26 25  1  0  0  0  0
 26 54  1  0  0  0  0
 27 26  2  0  0  0  0
 28 29  2  0  0  0  0
 28 27  1  0  0  0  0
 29 30  1  0  0  0  0
 30 56  1  0  0  0  0
 30 25  2  0  0  0  0
 31 28  1  0  0  0  0
 32 27  1  0  0  0  0
 32 33  1  0  0  0  0
 33 34  1  0  0  0  0
 33 58  1  0  0  0  0
 34 60  1  0  0  0  0
 35  3  1  0  0  0  0
 36  4  1  0  0  0  0
 38  7  1  0  0  0  0
 41 17  1  0  0  0  0
 42 17  1  0  0  0  0
 45 19  1  0  0  0  0
 51 23  1  0  0  0  0
 53 24  1  0  0  0  0
 55 29  1  0  0  0  0
 57 33  1  0  0  0  0
 59 34  1  0  0  0  0
 61 34  1  0  0  0  0
M  END
>  <Pose>
1

>  <Score>
-5.40

$$$$
