
 OpenBabel03202210193D

 37 40  0  0  0  0  0  0  0  0999 V2000
   24.5750   63.6570  -13.2200 B   0  0  0  0  0  0  0  0  0  0  0  0
   23.2560   63.6210  -11.8370 C   0  0  0  0  0  0  0  0  0  0  0  0
   23.5580   64.0690  -10.5680 C   0  0  0  0  0  0  0  0  0  0  0  0
   22.6240   64.0510   -9.5590 C   0  0  0  0  0  0  0  0  0  0  0  0
   22.6360   64.4170   -8.2550 N   0  0  0  0  0  0  0  0  0  0  0  0
   21.4360   64.1710   -7.7630 N   0  0  0  0  0  0  0  0  0  0  0  0
   20.6420   63.6680   -8.6660 N   0  0  0  0  0  0  0  0  0  0  0  0
   21.3610   63.5770   -9.8170 C   0  0  0  0  0  0  0  0  0  0  0  0
   21.0520   63.1250  -11.0890 C   0  0  0  0  0  0  0  0  0  0  0  0
   21.9990   63.1460  -12.1020 C   0  0  0  0  0  0  0  0  0  0  0  0
   19.7030   62.6270  -11.3360 C   0  0  0  0  0  0  0  0  0  0  0  0
   18.9210   63.3300  -12.0050 O   0  0  0  0  0  0  0  0  0  0  0  0
   19.2500   61.3770  -10.8460 N   0  0  0  0  0  0  0  0  0  0  0  0
   18.4300   61.2890   -9.6620 C   0  0  0  0  0  0  0  0  0  0  0  0
   16.9820   61.2840  -10.0710 C   0  0  0  0  0  0  0  0  0  0  0  0
   16.2060   62.3520  -10.3140 N   0  0  0  0  0  0  0  0  0  0  0  0
   14.9590   61.9670  -10.6590 C   0  0  0  0  0  0  0  0  0  0  0  0
   14.9650   60.6290  -10.6290 N   0  0  0  0  0  0  0  0  0  0  0  0
   16.1900   60.2120  -10.2730 N   0  0  0  0  0  0  0  0  0  0  0  0
   13.9890   63.0570  -10.9560 C   0  0  0  0  0  0  0  0  0  0  0  0
   14.6830   63.9130  -12.0260 C   0  0  0  0  0  0  0  0  0  0  0  0
   16.0420   64.3680  -11.6050 C   0  0  0  0  0  0  0  0  0  0  0  0
   16.4510   63.7760  -10.2740 C   0  0  0  0  0  0  0  0  0  0  0  0
   24.5490   64.4430  -10.3590 H   0  0  0  0  0  0  0  0  0  0  0  0
   19.6480   63.3630   -8.6230 H   0  0  0  0  0  0  0  0  0  0  0  0
   21.7060   62.7810  -13.0810 H   0  0  0  0  0  0  0  0  0  0  0  0
   19.5090   60.5090  -11.3420 H   0  0  0  0  0  0  0  0  0  0  0  0
   18.6900   60.4420   -9.0280 H   0  0  0  0  0  0  0  0  0  0  0  0
   18.5960   62.2400   -9.0860 H   0  0  0  0  0  0  0  0  0  0  0  0
   13.7710   63.6420  -10.0550 H   0  0  0  0  0  0  0  0  0  0  0  0
   13.0720   62.6610  -11.4600 H   0  0  0  0  0  0  0  0  0  0  0  0
   14.7920   63.2420  -12.9010 H   0  0  0  0  0  0  0  0  0  0  0  0
   14.0350   64.7550  -12.3340 H   0  0  0  0  0  0  0  0  0  0  0  0
   16.1380   65.4800  -11.5850 H   0  0  0  0  0  0  0  0  0  0  0  0
   16.7970   64.0280  -12.3430 H   0  0  0  0  0  0  0  0  0  0  0  0
   15.7760   64.2010   -9.4960 H   0  0  0  0  0  0  0  0  0  0  0  0
   17.4990   63.9830  -10.0290 H   0  0  0  0  0  0  0  0  0  0  0  0
  1  2  1  0  0  0  0
  2  3  1  0  0  0  0
  3 24  1  0  0  0  0
  3  4  2  0  0  0  0
  4  5  1  0  0  0  0
  5  6  2  0  0  0  0
  7 25  1  0  0  0  0
  7  6  1  0  0  0  0
  8  4  1  0  0  0  0
  8  7  1  0  0  0  0
  9  8  2  0  0  0  0
 10  2  2  0  0  0  0
 10  9  1  0  0  0  0
 11  9  1  0  0  0  0
 11 13  1  0  0  0  0
 12 11  2  0  0  0  0
 13 14  1  0  0  0  0
 14 29  1  0  0  0  0
 14 28  1  0  0  0  0
 15 14  1  0  0  0  0
 16 23  1  0  0  0  0
 16 15  1  0  0  0  0
 17 18  2  0  0  0  0
 17 16  1  0  0  0  0
 18 19  1  0  0  0  0
 19 15  2  0  0  0  0
 20 17  1  0  0  0  0
 20 30  1  0  0  0  0
 21 22  1  0  0  0  0
 21 20  1  0  0  0  0
 22 34  1  0  0  0  0
 22 23  1  0  0  0  0
 23 37  1  0  0  0  0
 23 36  1  0  0  0  0
 26 10  1  0  0  0  0
 27 13  1  0  0  0  0
 31 20  1  0  0  0  0
 32 21  1  0  0  0  0
 33 21  1  0  0  0  0
 35 22  1  0  0  0  0
M  END
>  <Pose>
1

>  <Score>
-8.01

$$$$
