
 OpenBabel03202210193D

 40 43  0  0  0  0  0  0  0  0999 V2000
   24.3350   64.0670   -4.8100 Cl  0  0  0  0  0  0  0  0  0  0  0  0
   23.3780   63.9810   -6.2890 C   0  0  0  0  0  0  0  0  0  0  0  0
   23.7570   63.2030   -7.3620 C   0  0  0  0  0  0  0  0  0  0  0  0
   22.9690   63.1740   -8.4950 C   0  0  0  0  0  0  0  0  0  0  0  0
   23.0720   62.5230   -9.6860 N   0  0  0  0  0  0  0  0  0  0  0  0
   22.0180   62.8490  -10.4550 C   0  0  0  0  0  0  0  0  0  0  0  0
   21.2110   63.7080   -9.7960 N   0  0  0  0  0  0  0  0  0  0  0  0
   21.7990   63.9000   -8.6020 C   0  0  0  0  0  0  0  0  0  0  0  0
   21.4120   64.6790   -7.5360 C   0  0  0  0  0  0  0  0  0  0  0  0
   22.2060   64.7030   -6.4070 C   0  0  0  0  0  0  0  0  0  0  0  0
   19.9830   64.2750  -10.3090 C   0  0  0  0  0  0  0  0  0  0  0  0
   18.8780   64.2510   -9.2750 C   0  0  0  0  0  0  0  0  0  0  0  0
   17.9420   63.1940   -9.6430 N   0  0  0  0  0  0  0  0  0  0  0  0
   16.7410   63.4940  -10.1870 C   0  0  0  0  0  0  0  0  0  0  0  0
   15.8350   62.5210  -10.5450 C   0  0  0  0  0  0  0  0  0  0  0  0
   16.1680   61.1170  -10.3370 C   0  0  0  0  0  0  0  0  0  0  0  0
   15.1140   60.4130  -10.7720 N   0  0  0  0  0  0  0  0  0  0  0  0
   14.1590   61.2370  -11.2300 N   0  0  0  0  0  0  0  0  0  0  0  0
   14.5740   62.5070  -11.1010 C   0  0  0  0  0  0  0  0  0  0  0  0
   13.8980   63.5040  -11.4430 O   0  0  0  0  0  0  0  0  0  0  0  0
   17.4060   60.8460   -9.7790 C   0  0  0  0  0  0  0  0  0  0  0  0
   18.2230   61.8960   -9.4630 C   0  0  0  0  0  0  0  0  0  0  0  0
   17.7750   59.4530   -9.5560 C   0  0  0  0  0  0  0  0  0  0  0  0
   18.9900   59.1320   -9.5740 O   0  0  0  0  0  0  0  0  0  0  0  0
   16.8320   58.4860   -9.3280 O   0  0  0  0  0  0  0  0  0  0  0  0
   16.9000   57.2170   -9.9590 C   0  0  0  0  0  0  0  0  0  0  0  0
   24.6710   62.6320   -7.2880 H   0  0  0  0  0  0  0  0  0  0  0  0
   21.8750   62.4620  -11.4410 H   0  0  0  0  0  0  0  0  0  0  0  0
   20.4870   65.2510   -7.6250 H   0  0  0  0  0  0  0  0  0  0  0  0
   21.9100   65.3120   -5.5650 H   0  0  0  0  0  0  0  0  0  0  0  0
   20.1160   65.3240  -10.6470 H   0  0  0  0  0  0  0  0  0  0  0  0
   19.6510   63.6910  -11.1860 H   0  0  0  0  0  0  0  0  0  0  0  0
   18.3140   65.1880   -9.2380 H   0  0  0  0  0  0  0  0  0  0  0  0
   19.3230   64.0600   -8.2850 H   0  0  0  0  0  0  0  0  0  0  0  0
   16.4790   64.5280  -10.3470 H   0  0  0  0  0  0  0  0  0  0  0  0
   13.2480   60.8830  -11.6170 H   0  0  0  0  0  0  0  0  0  0  0  0
   19.2040   61.6750   -9.0200 H   0  0  0  0  0  0  0  0  0  0  0  0
   17.8510   57.1710  -10.5410 H   0  0  0  0  0  0  0  0  0  0  0  0
   16.0290   57.0770  -10.6470 H   0  0  0  0  0  0  0  0  0  0  0  0
   16.9580   56.4030   -9.2030 H   0  0  0  0  0  0  0  0  0  0  0  0
  2  1  1  0  0  0  0
  3 27  1  0  0  0  0
  3  2  2  0  0  0  0
  4  3  1  0  0  0  0
  5  4  1  0  0  0  0
  6  7  1  0  0  0  0
  6  5  2  0  0  0  0
  7  8  1  0  0  0  0
  8  4  2  0  0  0  0
  8  9  1  0  0  0  0
  9 10  2  0  0  0  0
 10  2  1  0  0  0  0
 10 30  1  0  0  0  0
 11  7  1  0  0  0  0
 11 12  1  0  0  0  0
 12 33  1  0  0  0  0
 12 34  1  0  0  0  0
 13 22  1  0  0  0  0
 13 12  1  0  0  0  0
 14 13  1  0  0  0  0
 15 16  2  0  0  0  0
 15 14  1  0  0  0  0
 16 21  1  0  0  0  0
 17 16  1  0  0  0  0
 18 19  1  0  0  0  0
 18 17  1  0  0  0  0
 19 15  1  0  0  0  0
 20 19  2  0  0  0  0
 21 23  1  0  0  0  0
 21 22  2  0  0  0  0
 22 37  1  0  0  0  0
 23 25  1  0  0  0  0
 24 23  2  0  0  0  0
 26 25  1  0  0  0  0
 26 40  1  0  0  0  0
 28  6  1  0  0  0  0
 29  9  1  0  0  0  0
 31 11  1  0  0  0  0
 32 11  1  0  0  0  0
 35 14  1  0  0  0  0
 36 18  1  0  0  0  0
 38 26  1  0  0  0  0
 39 26  1  0  0  0  0
M  END
>  <Pose>
1

>  <Score>
-7.00

$$$$
