
 OpenBabel03202210193D

 49 52  0  0  1  0  0  0  0  0999 V2000
   15.3870   60.1170  -10.0500 Cl  0  0  0  0  0  0  0  0  0  0  0  0
   16.6590   61.2400  -10.4660 C   0  0  0  0  0  0  0  0  0  0  0  0
   17.9600   61.0040  -10.0400 C   0  0  0  0  0  0  0  0  0  0  0  0
   18.9800   61.8830  -10.3630 C   0  0  0  0  0  0  0  0  0  0  0  0
   20.2970   61.9340  -10.1100 N   0  0  0  0  0  0  0  0  0  0  0  0
   20.8640   63.0390  -10.6690 C   0  0  0  0  0  0  0  0  0  0  0  0
   19.8320   63.6760  -11.2840 N   0  0  0  0  0  0  0  0  0  0  0  0
   18.6900   62.9970  -11.1120 C   0  0  0  0  0  0  0  0  0  0  0  0
   17.3970   63.2260  -11.5320 C   0  0  0  0  0  0  0  0  0  0  0  0
   16.3630   62.3560  -11.2180 C   0  0  0  0  0  0  0  0  0  0  0  0
   22.2930   63.4000  -10.5960 C   0  0  0  0  0  0  0  0  0  0  0  0
   22.7130   63.6890   -9.1870 C   0  0  0  0  0  0  0  0  0  0  0  0
   21.9470   64.8290   -8.6430 C   0  0  0  0  0  0  0  0  0  0  0  0
   21.1860   65.4590   -9.4180 O   0  0  0  0  0  0  0  0  0  0  0  0
   22.0280   65.2450   -7.2970 N   0  0  0  0  0  0  0  0  0  0  0  0
   21.4940   64.6500   -6.0900 C   0  0  0  0  0  0  0  0  0  0  0  0
   22.5650   64.8440   -5.1120 C   0  0  2  0  0  0  0  0  0  0  0  0
   23.5730   65.8150   -5.7310 C   0  0  1  0  0  0  0  0  0  0  0  0
   22.7050   66.4340   -6.8470 C   0  0  0  0  0  0  0  0  0  0  0  0
   24.0030   66.7790   -4.8540 O   0  0  0  0  0  0  0  0  0  0  0  0
   23.2110   63.7520   -4.4950 N   0  0  0  0  0  0  0  0  0  0  0  0
   24.4890   63.4830   -4.8760 C   0  0  0  0  0  0  0  0  0  0  0  0
   25.2060   62.4410   -4.3310 C   0  0  0  0  0  0  0  0  0  0  0  0
   24.6380   61.6360   -3.3720 C   0  0  0  0  0  0  0  0  0  0  0  0
   25.2760   60.6710   -2.8540 O   0  0  0  0  0  0  0  0  0  0  0  0
   23.3780   61.9020   -2.9960 N   0  0  0  0  0  0  0  0  0  0  0  0
   22.7320   62.9260   -3.5590 C   0  0  0  0  0  0  0  0  0  0  0  0
   21.5650   63.1290   -3.1700 O   0  0  0  0  0  0  0  0  0  0  0  0
   26.6150   62.1570   -4.7610 C   0  0  0  0  0  0  0  0  0  0  0  0
   18.2090   60.1300   -9.4480 H   0  0  0  0  0  0  0  0  0  0  0  0
   20.7770   61.1890   -9.5460 H   0  0  0  0  0  0  0  0  0  0  0  0
   17.1320   64.0890  -12.1200 H   0  0  0  0  0  0  0  0  0  0  0  0
   15.3650   62.5640  -11.5600 H   0  0  0  0  0  0  0  0  0  0  0  0
   22.4470   64.3240  -11.2010 H   0  0  0  0  0  0  0  0  0  0  0  0
   22.9220   62.5620  -11.0200 H   0  0  0  0  0  0  0  0  0  0  0  0
   22.4210   62.8060   -8.5430 H   0  0  0  0  0  0  0  0  0  0  0  0
   23.8030   63.7800   -9.0720 H   0  0  0  0  0  0  0  0  0  0  0  0
   21.0680   63.6550   -6.2490 H   0  0  0  0  0  0  0  0  0  0  0  0
   20.5930   65.2950   -5.8460 H   0  0  0  0  0  0  0  0  0  0  0  0
   22.1410   65.4540   -4.2480 H   0  0  0  0  0  0  0  0  0  0  0  0
   24.3960   65.2990   -6.2540 H   0  0  0  0  0  0  0  0  0  0  0  0
   23.3400   66.9040   -7.6260 H   0  0  0  0  0  0  0  0  0  0  0  0
   22.0270   67.1600   -6.3520 H   0  0  0  0  0  0  0  0  0  0  0  0
   24.7900   67.2290   -5.2500 H   0  0  0  0  0  0  0  0  0  0  0  0
   25.0120   64.0650   -5.6180 H   0  0  0  0  0  0  0  0  0  0  0  0
   22.9130   61.2920   -2.2550 H   0  0  0  0  0  0  0  0  0  0  0  0
   26.8860   62.8120   -5.6310 H   0  0  0  0  0  0  0  0  0  0  0  0
   27.3160   62.2530   -3.9380 H   0  0  0  0  0  0  0  0  0  0  0  0
   26.6610   61.1010   -5.1440 H   0  0  0  0  0  0  0  0  0  0  0  0
  2  1  1  0  0  0  0
  2  3  1  0  0  0  0
  3 30  1  0  0  0  0
  4  5  1  0  0  0  0
  4  3  2  0  0  0  0
  5 31  1  0  0  0  0
  6 11  1  0  0  0  0
  6  5  1  0  0  0  0
  7  8  1  0  0  0  0
  7  6  2  0  0  0  0
  8  4  1  0  0  0  0
  9 10  1  0  0  0  0
  9  8  2  0  0  0  0
 10  2  2  0  0  0  0
 11 12  1  0  0  0  0
 12 37  1  0  0  0  0
 12 13  1  0  0  0  0
 12 36  1  0  0  0  0
 13 15  1  0  0  0  0
 14 13  2  0  0  0  0
 15 19  1  0  0  0  0
 15 16  1  0  0  0  0
 16 39  1  0  0  0  0
 16 17  1  0  0  0  0
 17 21  1  0  0  0  0
 17 40  1  1  0  0  0
 18 41  1  6  0  0  0
 18 17  1  0  0  0  0
 18 20  1  0  0  0  0
 19 43  1  0  0  0  0
 19 18  1  0  0  0  0
 21 27  1  0  0  0  0
 22 21  1  0  0  0  0
 22 23  2  0  0  0  0
 23 24  1  0  0  0  0
 24 26  1  0  0  0  0
 24 25  2  0  0  0  0
 26 46  1  0  0  0  0
 27 28  2  0  0  0  0
 27 26  1  0  0  0  0
 29 23  1  0  0  0  0
 29 48  1  0  0  0  0
 32  9  1  0  0  0  0
 33 10  1  0  0  0  0
 34 11  1  0  0  0  0
 35 11  1  0  0  0  0
 38 16  1  0  0  0  0
 42 19  1  0  0  0  0
 44 20  1  0  0  0  0
 45 22  1  0  0  0  0
 47 29  1  0  0  0  0
 49 29  1  0  0  0  0
M  END
>  <Pose>
1

>  <Score>
-8.09

$$$$
