
 OpenBabel03202210193D

 55 58  0  0  1  0  0  0  0  0999 V2000
   24.1380   61.7720   -0.8650 Cl  0  0  0  0  0  0  0  0  0  0  0  0
   24.5050   62.3750   -2.4660 C   0  0  0  0  0  0  0  0  0  0  0  0
   23.5190   62.6700   -3.3900 C   0  0  0  0  0  0  0  0  0  0  0  0
   23.8170   63.1440   -4.6460 C   0  0  0  0  0  0  0  0  0  0  0  0
   23.0690   63.4970   -5.6990 N   0  0  0  0  0  0  0  0  0  0  0  0
   23.8560   63.9080   -6.7300 C   0  0  0  0  0  0  0  0  0  0  0  0
   25.0960   63.7950   -6.2770 N   0  0  0  0  0  0  0  0  0  0  0  0
   25.1240   63.3360   -5.0220 C   0  0  0  0  0  0  0  0  0  0  0  0
   26.1240   63.0480   -4.1200 C   0  0  0  0  0  0  0  0  0  0  0  0
   25.8190   62.5710   -2.8510 C   0  0  0  0  0  0  0  0  0  0  0  0
   23.3520   64.3800   -8.0420 C   0  0  0  0  0  0  0  0  0  0  0  0
   23.0340   63.1880   -8.8980 C   0  0  0  0  0  0  0  0  0  0  0  0
   23.0790   63.5770  -10.3180 C   0  0  0  0  0  0  0  0  0  0  0  0
   24.1760   63.6600  -10.9270 O   0  0  0  0  0  0  0  0  0  0  0  0
   21.8490   63.8590  -10.9840 N   0  0  0  0  0  0  0  0  0  0  0  0
   20.8640   64.7990  -10.4970 C   0  0  0  0  0  0  0  0  0  0  0  0
   19.4440   64.2830  -10.7830 C   0  0  1  0  0  0  0  0  0  0  0  0
   19.5420   62.7970  -10.8500 C   0  0  2  0  0  0  0  0  0  0  0  0
   20.2500   62.4030  -12.1260 C   0  0  0  0  0  0  0  0  0  0  0  0
   21.5520   63.1710  -12.2220 C   0  0  0  0  0  0  0  0  0  0  0  0
   18.3370   62.0800  -10.6270 N   0  0  0  0  0  0  0  0  0  0  0  0
   17.1160   62.5890  -10.8450 C   0  0  0  0  0  0  0  0  0  0  0  0
   15.9580   61.8570  -10.6150 C   0  0  0  0  0  0  0  0  0  0  0  0
   16.0640   60.5680  -10.1490 C   0  0  0  0  0  0  0  0  0  0  0  0
   15.0080   59.8940   -9.9370 O   0  0  0  0  0  0  0  0  0  0  0  0
   17.2860   60.0610   -9.9300 N   0  0  0  0  0  0  0  0  0  0  0  0
   18.3760   60.8110  -10.1690 C   0  0  0  0  0  0  0  0  0  0  0  0
   19.5420   60.3220   -9.9590 O   0  0  0  0  0  0  0  0  0  0  0  0
   14.6160   62.4820  -10.8800 C   0  0  0  0  0  0  0  0  0  0  0  0
   18.6700   64.7200   -9.6970 O   0  0  0  0  0  0  0  0  0  0  0  0
   18.9820   64.9540  -12.0380 C   0  0  0  0  0  0  0  0  0  0  0  0
   22.5000   62.5080   -3.0640 H   0  0  0  0  0  0  0  0  0  0  0  0
   22.0140   63.4730   -5.7550 H   0  0  0  0  0  0  0  0  0  0  0  0
   27.1410   63.2060   -4.4310 H   0  0  0  0  0  0  0  0  0  0  0  0
   26.6310   62.3570   -2.1730 H   0  0  0  0  0  0  0  0  0  0  0  0
   24.1620   64.9430   -8.5730 H   0  0  0  0  0  0  0  0  0  0  0  0
   22.4350   64.9960   -7.9360 H   0  0  0  0  0  0  0  0  0  0  0  0
   23.7660   62.3660   -8.6900 H   0  0  0  0  0  0  0  0  0  0  0  0
   22.0490   62.7460   -8.6110 H   0  0  0  0  0  0  0  0  0  0  0  0
   21.0020   65.0270   -9.4410 H   0  0  0  0  0  0  0  0  0  0  0  0
   21.0470   65.7600  -11.0630 H   0  0  0  0  0  0  0  0  0  0  0  0
   20.2490   62.4940  -10.0190 H   0  0  0  0  0  0  0  0  0  0  0  0
   20.5460   61.3180  -12.1030 H   0  0  0  0  0  0  0  0  0  0  0  0
   19.6330   62.5170  -13.0300 H   0  0  0  0  0  0  0  0  0  0  0  0
   22.4010   62.5260  -12.5240 H   0  0  0  0  0  0  0  0  0  0  0  0
   21.4100   63.9770  -13.0010 H   0  0  0  0  0  0  0  0  0  0  0  0
   17.0570   63.5960  -11.2100 H   0  0  0  0  0  0  0  0  0  0  0  0
   17.3800   59.0860   -9.5780 H   0  0  0  0  0  0  0  0  0  0  0  0
   13.9000   62.0150  -10.1460 H   0  0  0  0  0  0  0  0  0  0  0  0
   14.7050   63.5410  -10.5910 H   0  0  0  0  0  0  0  0  0  0  0  0
   14.2840   62.3070  -11.9060 H   0  0  0  0  0  0  0  0  0  0  0  0
   18.6130   65.7280   -9.7230 H   0  0  0  0  0  0  0  0  0  0  0  0
   19.7620   65.6400  -12.4810 H   0  0  0  0  0  0  0  0  0  0  0  0
   18.1180   65.6520  -11.8360 H   0  0  0  0  0  0  0  0  0  0  0  0
   18.6530   64.2920  -12.8360 H   0  0  0  0  0  0  0  0  0  0  0  0
  2  1  1  0  0  0  0
  3 32  1  0  0  0  0
  3  2  2  0  0  0  0
  4  3  1  0  0  0  0
  5  4  1  0  0  0  0
  6  7  2  0  0  0  0
  6  5  1  0  0  0  0
  7  8  1  0  0  0  0
  8  4  2  0  0  0  0
  8  9  1  0  0  0  0
  9 10  2  0  0  0  0
 10  2  1  0  0  0  0
 10 35  1  0  0  0  0
 11 37  1  0  0  0  0
 11  6  1  0  0  0  0
 12 38  1  0  0  0  0
 12 39  1  0  0  0  0
 12 11  1  0  0  0  0
 13 12  1  0  0  0  0
 14 13  2  0  0  0  0
 15 16  1  0  0  0  0
 15 13  1  0  0  0  0
 16 40  1  0  0  0  0
 17 16  1  0  0  0  0
 17 30  1  1  0  0  0
 18 17  1  0  0  0  0
 18 21  1  0  0  0  0
 18 42  1  1  0  0  0
 19 43  1  0  0  0  0
 19 18  1  0  0  0  0
 20 19  1  0  0  0  0
 20 15  1  0  0  0  0
 21 27  1  0  0  0  0
 22 21  1  0  0  0  0
 22 23  2  0  0  0  0
 23 24  1  0  0  0  0
 24 25  2  0  0  0  0
 24 26  1  0  0  0  0
 26 48  1  0  0  0  0
 27 28  2  0  0  0  0
 27 26  1  0  0  0  0
 29 23  1  0  0  0  0
 29 50  1  0  0  0  0
 29 49  1  0  0  0  0
 31 54  1  0  0  0  0
 31 17  1  0  0  0  0
 33  5  1  0  0  0  0
 34  9  1  0  0  0  0
 36 11  1  0  0  0  0
 41 16  1  0  0  0  0
 44 19  1  0  0  0  0
 45 20  1  0  0  0  0
 46 20  1  0  0  0  0
 47 22  1  0  0  0  0
 51 29  1  0  0  0  0
 52 30  1  0  0  0  0
 53 31  1  0  0  0  0
 55 31  1  0  0  0  0
M  END
>  <Pose>
1

>  <Score>
-7.99

$$$$
