
 OpenBabel03202210193D

 55 59  0  0  1  0  0  0  0  0999 V2000
   12.9890   64.8580  -13.1840 Cl  0  0  0  0  0  0  0  0  0  0  0  0
   14.2010   64.0500  -12.1960 C   0  0  0  0  0  0  0  0  0  0  0  0
   15.3610   64.6830  -11.8160 C   0  0  0  0  0  0  0  0  0  0  0  0
   16.2980   64.0070  -11.0330 C   0  0  0  0  0  0  0  0  0  0  0  0
   17.4900   64.3510  -10.5170 N   0  0  0  0  0  0  0  0  0  0  0  0
   18.0230   63.3340   -9.8180 C   0  0  0  0  0  0  0  0  0  0  0  0
   17.1430   62.3350   -9.9000 N   0  0  0  0  0  0  0  0  0  0  0  0
   16.0740   62.7070  -10.6330 C   0  0  0  0  0  0  0  0  0  0  0  0
   14.9110   62.0730  -11.0160 C   0  0  0  0  0  0  0  0  0  0  0  0
   13.9840   62.7600  -11.7990 C   0  0  0  0  0  0  0  0  0  0  0  0
   19.3460   63.3850   -9.1150 C   0  0  0  0  0  0  0  0  0  0  0  0
   19.1900   64.1680   -7.8300 C   0  0  0  0  0  0  0  0  0  0  0  0
   20.2430   63.7980   -6.8710 C   0  0  0  0  0  0  0  0  0  0  0  0
   20.0050   62.9320   -6.0070 O   0  0  0  0  0  0  0  0  0  0  0  0
   21.5030   64.4140   -6.9250 N   0  0  0  0  0  0  0  0  0  0  0  0
   22.7790   63.9330   -7.3510 C   0  0  0  0  0  0  0  0  0  0  0  0
   23.7730   64.4990   -6.3090 C   0  0  1  0  0  0  0  0  0  0  0  0
   23.1220   65.8060   -6.0250 C   0  0  2  0  0  0  0  0  0  0  0  0
   21.7210   65.7940   -6.5340 C   0  0  0  0  0  0  0  0  0  0  0  0
   23.7650   66.8860   -6.6320 O   0  0  0  0  0  0  0  0  0  0  0  0
   23.8210   63.6030   -5.1880 N   0  0  0  0  0  0  0  0  0  0  0  0
   24.8090   62.7610   -4.8430 C   0  0  0  0  0  0  0  0  0  0  0  0
   24.4280   62.0770   -3.6710 C   0  0  0  0  0  0  0  0  0  0  0  0
   23.2080   62.5390   -3.3520 N   0  0  0  0  0  0  0  0  0  0  0  0
   22.8320   63.4500   -4.2470 C   0  0  0  0  0  0  0  0  0  0  0  0
   25.2550   61.1440   -3.0870 C   0  0  0  0  0  0  0  0  0  0  0  0
   24.8870   60.5490   -2.0390 O   0  0  0  0  0  0  0  0  0  0  0  0
   26.4360   60.9090   -3.6710 N   0  0  0  0  0  0  0  0  0  0  0  0
   26.7890   61.5610   -4.7800 C   0  0  0  0  0  0  0  0  0  0  0  0
   27.9040   61.3270   -5.3170 O   0  0  0  0  0  0  0  0  0  0  0  0
   26.0070   62.4960   -5.4010 N   0  0  0  0  0  0  0  0  0  0  0  0
   26.4490   63.1540   -6.5890 C   0  0  0  0  0  0  0  0  0  0  0  0
   27.3390   59.9220   -3.0730 C   0  0  0  0  0  0  0  0  0  0  0  0
   15.5530   65.6980  -12.1170 H   0  0  0  0  0  0  0  0  0  0  0  0
   17.9220   65.3030  -10.6630 H   0  0  0  0  0  0  0  0  0  0  0  0
   14.7110   61.0560  -10.7180 H   0  0  0  0  0  0  0  0  0  0  0  0
   13.0630   62.2650  -12.1050 H   0  0  0  0  0  0  0  0  0  0  0  0
   20.0700   63.8710   -9.7940 H   0  0  0  0  0  0  0  0  0  0  0  0
   19.7110   62.3610   -8.8930 H   0  0  0  0  0  0  0  0  0  0  0  0
   18.1720   64.0570   -7.4330 H   0  0  0  0  0  0  0  0  0  0  0  0
   19.2740   65.2540   -8.1300 H   0  0  0  0  0  0  0  0  0  0  0  0
   22.9810   64.4570   -8.3360 H   0  0  0  0  0  0  0  0  0  0  0  0
   22.8920   62.8790   -7.5310 H   0  0  0  0  0  0  0  0  0  0  0  0
   24.6980   64.5400   -6.9180 H   0  0  0  0  0  0  0  0  0  0  0  0
   23.0370   65.9410   -4.9070 H   0  0  0  0  0  0  0  0  0  0  0  0
   20.9750   66.1340   -5.7860 H   0  0  0  0  0  0  0  0  0  0  0  0
   21.6310   66.4610   -7.4420 H   0  0  0  0  0  0  0  0  0  0  0  0
   24.6670   67.0450   -6.2360 H   0  0  0  0  0  0  0  0  0  0  0  0
   21.9130   63.9960   -4.2670 H   0  0  0  0  0  0  0  0  0  0  0  0
   26.9670   64.1200   -6.4230 H   0  0  0  0  0  0  0  0  0  0  0  0
   27.3350   62.5120   -6.9580 H   0  0  0  0  0  0  0  0  0  0  0  0
   25.7920   63.1030   -7.4610 H   0  0  0  0  0  0  0  0  0  0  0  0
   28.2320   60.4300   -2.6460 H   0  0  0  0  0  0  0  0  0  0  0  0
   26.8100   59.3590   -2.2830 H   0  0  0  0  0  0  0  0  0  0  0  0
   27.7080   59.2510   -3.8720 H   0  0  0  0  0  0  0  0  0  0  0  0
  1  2  1  0  0  0  0
  2  3  2  0  0  0  0
  2 10  1  0  0  0  0
  3  4  1  0  0  0  0
  4  8  2  0  0  0  0
  4  5  1  0  0  0  0
  5  6  1  0  0  0  0
  6 11  1  0  0  0  0
  7  6  2  0  0  0  0
  8  7  1  0  0  0  0
  9 36  1  0  0  0  0
  9  8  1  0  0  0  0
 10  9  2  0  0  0  0
 11 39  1  0  0  0  0
 11 12  1  0  0  0  0
 12 40  1  0  0  0  0
 12 13  1  0  0  0  0
 13 14  2  0  0  0  0
 15 13  1  0  0  0  0
 15 19  1  0  0  0  0
 16 15  1  0  0  0  0
 16 17  1  0  0  0  0
 17 44  1  6  0  0  0
 17 18  1  0  0  0  0
 17 21  1  0  0  0  0
 18 45  1  1  0  0  0
 19 18  1  0  0  0  0
 19 46  1  0  0  0  0
 20 48  1  0  0  0  0
 20 18  1  0  0  0  0
 21 22  1  0  0  0  0
 21 25  1  0  0  0  0
 22 23  2  0  0  0  0
 23 24  1  0  0  0  0
 23 26  1  0  0  0  0
 25 24  2  0  0  0  0
 26 27  2  0  0  0  0
 28 26  1  0  0  0  0
 28 33  1  0  0  0  0
 29 28  1  0  0  0  0
 30 29  2  0  0  0  0
 31 22  1  0  0  0  0
 31 29  1  0  0  0  0
 32 50  1  0  0  0  0
 32 31  1  0  0  0  0
 33 53  1  0  0  0  0
 33 54  1  0  0  0  0
 34  3  1  0  0  0  0
 35  5  1  0  0  0  0
 37 10  1  0  0  0  0
 38 11  1  0  0  0  0
 41 12  1  0  0  0  0
 42 16  1  0  0  0  0
 43 16  1  0  0  0  0
 47 19  1  0  0  0  0
 49 25  1  0  0  0  0
 51 32  1  0  0  0  0
 52 32  1  0  0  0  0
 55 33  1  0  0  0  0
M  END
>  <Pose>
1

>  <Score>
-7.17

$$$$
