
 OpenBabel03202210193D

 53 56  0  0  1  0  0  0  0  0999 V2000
   18.8400   61.2980   -9.9140 B   0  0  0  0  0  0  0  0  0  0  0  0
   17.5220   62.5360  -10.5130 C   0  0  0  0  0  0  0  0  0  0  0  0
   17.9390   63.7660  -10.9690 C   0  0  0  0  0  0  0  0  0  0  0  0
   16.9740   64.6500  -11.3990 C   0  0  0  0  0  0  0  0  0  0  0  0
   15.6180   64.3070  -11.3700 C   0  0  0  0  0  0  0  0  0  0  0  0
   15.2320   63.0640  -10.9060 C   0  0  0  0  0  0  0  0  0  0  0  0
   16.1760   62.1780  -10.4770 C   0  0  0  0  0  0  0  0  0  0  0  0
   13.7890   62.6730  -10.8640 C   0  0  0  0  0  0  0  0  0  0  0  0
   17.5160   66.3590  -12.0370 B   0  0  0  0  0  0  0  0  0  0  0  0
   19.2570   64.0780  -10.9900 O   0  0  0  0  0  0  0  0  0  0  0  0
   20.1080   64.2850   -9.9000 C   0  0  0  0  0  0  0  0  0  0  0  0
   21.4110   63.5540  -10.2190 C   0  0  1  0  0  0  0  0  0  0  0  0
   22.3370   64.4060  -10.8180 O   0  0  0  0  0  0  0  0  0  0  0  0
   21.9500   63.0530   -8.9170 C   0  0  0  0  0  0  0  0  0  0  0  0
   22.8860   63.9600   -8.2810 N   0  0  0  0  0  4  0  0  0  0  0  0
   22.1230   65.0080   -7.6910 C   0  0  0  0  0  0  0  0  0  0  0  0
   22.4350   65.2970   -6.2560 C   0  0  1  0  0  0  0  0  0  0  0  0
   21.9460   64.2690   -5.2980 C   0  0  0  0  0  0  0  0  0  0  0  0
   22.9760   63.5290   -4.6250 N   0  0  0  0  0  0  0  0  0  0  0  0
   24.2330   63.3770   -5.0840 C   0  0  0  0  0  0  0  0  0  0  0  0
   25.2120   62.6720   -4.4450 C   0  0  0  0  0  0  0  0  0  0  0  0
   24.9130   62.0670   -3.2420 C   0  0  0  0  0  0  0  0  0  0  0  0
   23.6320   62.2170   -2.7660 C   0  0  0  0  0  0  0  0  0  0  0  0
   22.6700   62.9340   -3.4360 C   0  0  0  0  0  0  0  0  0  0  0  0
   21.5070   63.0500   -2.9700 O   0  0  0  0  0  0  0  0  0  0  0  0
   24.4940   64.0630   -6.4060 C   0  0  1  0  0  0  0  0  0  0  0  0
   23.7980   63.2780   -7.4450 C   0  0  0  0  0  0  0  0  0  0  0  0
   23.9590   65.4600   -6.2030 C   0  0  0  0  0  0  0  0  0  0  0  0
   14.8550   64.9930  -11.7030 H   0  0  0  0  0  0  0  0  0  0  0  0
   15.8420   61.2100  -10.1170 H   0  0  0  0  0  0  0  0  0  0  0  0
   13.5970   62.1390   -9.9160 H   0  0  0  0  0  0  0  0  0  0  0  0
   13.5810   61.9330  -11.6880 H   0  0  0  0  0  0  0  0  0  0  0  0
   13.1220   63.5550  -10.9950 H   0  0  0  0  0  0  0  0  0  0  0  0
   20.2820   65.3370   -9.6430 H   0  0  0  0  0  0  0  0  0  0  0  0
   19.6790   63.7810   -9.0110 H   0  0  0  0  0  0  0  0  0  0  0  0
   21.1630   62.7770  -10.9430 H   0  0  0  0  0  0  0  0  0  0  0  0
   21.8390   64.8900  -11.5360 H   0  0  0  0  0  0  0  0  0  0  0  0
   21.0990   62.9080   -8.2210 H   0  0  0  0  0  0  0  0  0  0  0  0
   22.4490   62.0680   -9.0120 H   0  0  0  0  0  0  0  0  0  0  0  0
   23.4420   64.3870   -9.0830 H   0  0  0  0  0  0  0  0  0  0  0  0
   22.2430   65.9860   -8.2460 H   0  0  0  0  0  0  0  0  0  0  0  0
   21.0090   64.8230   -7.7390 H   0  0  0  0  0  0  0  0  0  0  0  0
   22.0280   66.3240   -6.0270 H   0  0  0  0  0  0  0  0  0  0  0  0
   21.3570   64.7960   -4.4910 H   0  0  0  0  0  0  0  0  0  0  0  0
   21.2000   63.5650   -5.7560 H   0  0  0  0  0  0  0  0  0  0  0  0
   26.1880   62.6140   -4.9030 H   0  0  0  0  0  0  0  0  0  0  0  0
   25.6820   61.5090   -2.7310 H   0  0  0  0  0  0  0  0  0  0  0  0
   23.3630   61.7530   -1.8210 H   0  0  0  0  0  0  0  0  0  0  0  0
   25.5920   64.1580   -6.5510 H   0  0  0  0  0  0  0  0  0  0  0  0
   24.6040   62.8370   -8.1070 H   0  0  0  0  0  0  0  0  0  0  0  0
   23.2720   62.3620   -7.0420 H   0  0  0  0  0  0  0  0  0  0  0  0
   24.2780   66.1720   -6.9620 H   0  0  0  0  0  0  0  0  0  0  0  0
   24.1700   65.8190   -5.1600 H   0  0  0  0  0  0  0  0  0  0  0  0
  2  7  1  0  0  0  0
  2  1  1  0  0  0  0
  3  2  2  0  0  0  0
  4  5  2  0  0  0  0
  4  3  1  0  0  0  0
  5  6  1  0  0  0  0
  6  8  1  0  0  0  0
  6  7  2  0  0  0  0
  7 30  1  0  0  0  0
  8 31  1  0  0  0  0
  9  4  1  0  0  0  0
 10  3  1  0  0  0  0
 10 11  1  0  0  0  0
 11 34  1  0  0  0  0
 11 35  1  0  0  0  0
 12 36  1  6  0  0  0
 12 11  1  0  0  0  0
 12 14  1  0  0  0  0
 13 12  1  0  0  0  0
 14 15  1  0  0  0  0
 14 38  1  0  0  0  0
 15 16  1  0  0  0  0
 15 27  1  0  0  0  0
 16 17  1  0  0  0  0
 17 28  1  0  0  0  0
 17 43  1  1  0  0  0
 17 18  1  0  0  0  0
 18 19  1  0  0  0  0
 18 44  1  0  0  0  0
 19 24  1  0  0  0  0
 20 19  1  0  0  0  0
 20 21  2  0  0  0  0
 21 22  1  0  0  0  0
 22 23  2  0  0  0  0
 22 47  1  0  0  0  0
 23 48  1  0  0  0  0
 24 25  2  0  0  0  0
 24 23  1  0  0  0  0
 26 49  1  6  0  0  0
 26 28  1  0  0  0  0
 26 20  1  0  0  0  0
 27 51  1  0  0  0  0
 27 26  1  0  0  0  0
 28 53  1  0  0  0  0
 29  5  1  0  0  0  0
 32  8  1  0  0  0  0
 33  8  1  0  0  0  0
 37 13  1  0  0  0  0
 39 14  1  0  0  0  0
 40 15  1  0  0  0  0
 41 16  1  0  0  0  0
 42 16  1  0  0  0  0
 45 18  1  0  0  0  0
 46 21  1  0  0  0  0
 50 27  1  0  0  0  0
 52 28  1  0  0  0  0
M  END
>  <Pose>
1

>  <Score>
-7.58

$$$$
