
 OpenBabel03202210193D

 39 42  0  0  0  0  0  0  0  0999 V2000
   15.2890   60.5210  -10.5230 B   0  0  0  0  0  0  0  0  0  0  0  0
   15.6060   62.3870  -10.4830 C   0  0  0  0  0  0  0  0  0  0  0  0
   16.8570   62.8320  -10.0540 C   0  0  0  0  0  0  0  0  0  0  0  0
   17.0160   64.2050  -10.0510 C   0  0  0  0  0  0  0  0  0  0  0  0
   16.0050   65.0840  -10.4470 C   0  0  0  0  0  0  0  0  0  0  0  0
   14.7960   64.5850  -10.8600 C   0  0  0  0  0  0  0  0  0  0  0  0
   14.5910   63.2240  -10.8790 C   0  0  0  0  0  0  0  0  0  0  0  0
   17.8500   61.9110   -9.6620 N   0  0  0  0  0  0  0  0  0  0  0  0
   19.1550   61.7760  -10.1380 C   0  0  0  0  0  0  0  0  0  0  0  0
   19.7550   60.6860  -10.1020 O   0  0  0  0  0  0  0  0  0  0  0  0
   19.8970   62.9290  -10.7120 C   0  0  0  0  0  0  0  0  0  0  0  0
   21.1330   63.1810   -9.9530 N   0  0  0  0  0  0  0  0  0  0  0  0
   22.1960   63.8540  -10.3580 N   0  0  0  0  0  0  0  0  0  0  0  0
   23.1150   63.8690   -9.3990 N   0  0  0  0  0  0  0  0  0  0  0  0
   22.6290   63.1850   -8.3420 C   0  0  0  0  0  0  0  0  0  0  0  0
   21.4070   62.7780   -8.7240 N   0  0  0  0  0  0  0  0  0  0  0  0
   23.2950   62.9470   -7.0700 C   0  0  0  0  0  0  0  0  0  0  0  0
   23.4550   64.0120   -6.2140 C   0  0  0  0  0  0  0  0  0  0  0  0
   24.0900   63.7850   -5.0040 C   0  0  0  0  0  0  0  0  0  0  0  0
   24.5550   62.5450   -4.6450 C   0  0  0  0  0  0  0  0  0  0  0  0
   24.3950   61.4750   -5.5020 C   0  0  0  0  0  0  0  0  0  0  0  0
   23.7610   61.7040   -6.7100 C   0  0  0  0  0  0  0  0  0  0  0  0
   22.9990   65.3290   -6.5180 N   0  0  0  0  0  0  0  0  0  0  0  0
   23.7540   66.4160   -6.4280 N   0  0  0  0  0  0  0  0  0  0  0  0
   23.0360   67.4610   -6.7760 N   0  0  0  0  0  0  0  0  0  0  0  0
   21.8150   67.0350   -7.0890 N   0  0  0  0  0  0  0  0  0  0  0  0
   21.7920   65.6950   -6.9270 C   0  0  0  0  0  0  0  0  0  0  0  0
   17.9270   64.6590   -9.7430 H   0  0  0  0  0  0  0  0  0  0  0  0
   16.1560   66.1470  -10.4350 H   0  0  0  0  0  0  0  0  0  0  0  0
   13.9860   65.2210  -11.1750 H   0  0  0  0  0  0  0  0  0  0  0  0
   13.6290   62.8650  -11.2090 H   0  0  0  0  0  0  0  0  0  0  0  0
   17.5670   61.2250   -8.9000 H   0  0  0  0  0  0  0  0  0  0  0  0
   19.2960   63.8450  -10.7680 H   0  0  0  0  0  0  0  0  0  0  0  0
   20.2500   62.7100  -11.7540 H   0  0  0  0  0  0  0  0  0  0  0  0
   24.2210   64.6160   -4.3220 H   0  0  0  0  0  0  0  0  0  0  0  0
   25.0550   62.3540   -3.6950 H   0  0  0  0  0  0  0  0  0  0  0  0
   24.7570   60.4850   -5.2330 H   0  0  0  0  0  0  0  0  0  0  0  0
   23.6470   60.8500   -7.3650 H   0  0  0  0  0  0  0  0  0  0  0  0
   20.9620   65.0240   -7.0920 H   0  0  0  0  0  0  0  0  0  0  0  0
  1  2  1  0  0  0  0
  2  3  1  0  0  0  0
  3  4  2  0  0  0  0
  3  8  1  0  0  0  0
  4 28  1  0  0  0  0
  5 29  1  0  0  0  0
  5  4  1  0  0  0  0
  6  5  2  0  0  0  0
  7  6  1  0  0  0  0
  7  2  2  0  0  0  0
  8 32  1  0  0  0  0
  9 10  2  0  0  0  0
  9  8  1  0  0  0  0
 11  9  1  0  0  0  0
 11 12  1  0  0  0  0
 12 16  1  0  0  0  0
 13 12  1  0  0  0  0
 13 14  1  0  0  0  0
 14 15  2  0  0  0  0
 15 17  1  0  0  0  0
 16 15  1  0  0  0  0
 17 22  2  0  0  0  0
 17 18  1  0  0  0  0
 18 19  2  0  0  0  0
 19 20  1  0  0  0  0
 19 35  1  0  0  0  0
 20 36  1  0  0  0  0
 21 37  1  0  0  0  0
 21 20  2  0  0  0  0
 22 21  1  0  0  0  0
 23 24  1  0  0  0  0
 23 18  1  0  0  0  0
 25 24  2  0  0  0  0
 26 27  2  0  0  0  0
 26 25  1  0  0  0  0
 27 23  1  0  0  0  0
 30  6  1  0  0  0  0
 31  7  1  0  0  0  0
 33 11  1  0  0  0  0
 34 11  1  0  0  0  0
 38 22  1  0  0  0  0
 39 27  1  0  0  0  0
M  END
>  <Pose>
1

>  <Score>
-7.60

$$$$
