
 OpenBabel03202210193D

 47 50  0  0  1  0  0  0  0  0999 V2000
   25.9290   63.3640   -0.9790 Cl  0  0  0  0  0  0  0  0  0  0  0  0
   25.5320   63.1190   -2.6580 C   0  0  0  0  0  0  0  0  0  0  0  0
   24.3780   63.6300   -3.1980 C   0  0  0  0  0  0  0  0  0  0  0  0
   24.0320   63.4610   -4.5280 C   0  0  0  0  0  0  0  0  0  0  0  0
   24.8800   62.7560   -5.3260 C   0  0  0  0  0  0  0  0  0  0  0  0
   26.0620   62.2160   -4.8280 C   0  0  0  0  0  0  0  0  0  0  0  0
   26.3710   62.4070   -3.4970 C   0  0  0  0  0  0  0  0  0  0  0  0
   22.8190   63.9910   -5.0500 N   0  0  0  0  0  0  0  0  0  0  0  0
   21.6110   63.6460   -4.3750 C   0  0  0  0  0  0  0  0  0  0  0  0
   21.5690   62.9220   -3.3510 O   0  0  0  0  0  0  0  0  0  0  0  0
   20.3820   64.1520   -4.8920 N   0  0  0  0  0  0  0  0  0  0  0  0
   20.3990   64.9840   -6.0620 C   0  0  0  0  0  0  0  0  0  0  0  0
   19.3080   65.5920   -6.3270 O   0  0  0  0  0  0  0  0  0  0  0  0
   21.5930   65.1350   -6.9130 C   0  0  1  0  0  0  0  0  0  0  0  0
   22.8590   64.8170   -6.2070 C   0  0  0  0  0  0  0  0  0  0  0  0
   23.9290   65.2910   -6.6600 O   0  0  0  0  0  0  0  0  0  0  0  0
   21.4700   64.2850   -8.1560 C   0  0  0  0  0  0  0  0  0  0  0  0
   21.0880   64.7460   -9.3330 C   0  0  0  0  0  0  0  0  0  0  0  0
   21.1110   63.5730  -10.2350 C   0  0  1  0  0  0  0  0  0  0  0  0
   22.1370   62.7470   -9.6260 N   0  0  0  0  0  0  0  0  0  0  0  0
   21.7650   62.8930   -8.2670 N   0  0  0  0  0  0  0  0  0  0  0  0
   19.7960   62.8730  -10.2250 C   0  0  0  0  0  0  0  0  0  0  0  0
   19.6160   61.5460   -9.9600 C   0  0  0  0  0  0  0  0  0  0  0  0
   18.3700   60.9530   -9.9250 C   0  0  0  0  0  0  0  0  0  0  0  0
   17.2330   61.7030  -10.1630 C   0  0  0  0  0  0  0  0  0  0  0  0
   17.4240   63.0670  -10.4350 C   0  0  0  0  0  0  0  0  0  0  0  0
   18.6730   63.6410  -10.4670 C   0  0  0  0  0  0  0  0  0  0  0  0
   15.9760   61.1480  -10.1310 O   0  0  0  0  0  0  0  0  0  0  0  0
   14.9230   61.6400  -10.9340 C   0  0  0  0  0  0  0  0  0  0  0  0
   18.2400   59.5800   -9.6480 O   0  0  0  0  0  0  0  0  0  0  0  0
   23.6800   64.2040   -2.5790 H   0  0  0  0  0  0  0  0  0  0  0  0
   24.6390   62.6020   -6.3790 H   0  0  0  0  0  0  0  0  0  0  0  0
   26.6790   61.6720   -5.5110 H   0  0  0  0  0  0  0  0  0  0  0  0
   27.2850   61.9840   -3.1300 H   0  0  0  0  0  0  0  0  0  0  0  0
   19.4540   63.9370   -4.4440 H   0  0  0  0  0  0  0  0  0  0  0  0
   21.6540   66.2180   -7.1750 H   0  0  0  0  0  0  0  0  0  0  0  0
   20.8250   65.7660   -9.5520 H   0  0  0  0  0  0  0  0  0  0  0  0
   21.3890   63.8280  -11.2780 H   0  0  0  0  0  0  0  0  0  0  0  0
   22.1660   61.7760   -9.9480 H   0  0  0  0  0  0  0  0  0  0  0  0
   21.6970   62.2270   -7.4970 H   0  0  0  0  0  0  0  0  0  0  0  0
   20.4620   60.9340   -9.7710 H   0  0  0  0  0  0  0  0  0  0  0  0
   16.5130   63.6230  -10.6180 H   0  0  0  0  0  0  0  0  0  0  0  0
   18.7280   64.7130  -10.6870 H   0  0  0  0  0  0  0  0  0  0  0  0
   14.8260   62.7540  -10.8150 H   0  0  0  0  0  0  0  0  0  0  0  0
   13.9300   61.2430  -10.5810 H   0  0  0  0  0  0  0  0  0  0  0  0
   15.0520   61.4330  -12.0070 H   0  0  0  0  0  0  0  0  0  0  0  0
   18.6290   59.2300   -8.7800 H   0  0  0  0  0  0  0  0  0  0  0  0
  2  1  1  0  0  0  0
  3  2  1  0  0  0  0
  3 31  1  0  0  0  0
  4  3  2  0  0  0  0
  5  6  2  0  0  0  0
  5  4  1  0  0  0  0
  6  7  1  0  0  0  0
  7 34  1  0  0  0  0
  7  2  2  0  0  0  0
  8  4  1  0  0  0  0
  8  9  1  0  0  0  0
  9 10  2  0  0  0  0
 11 35  1  0  0  0  0
 11  9  1  0  0  0  0
 12 11  1  0  0  0  0
 13 12  2  0  0  0  0
 14 36  1  6  0  0  0
 14 15  1  0  0  0  0
 14 12  1  0  0  0  0
 15  8  1  0  0  0  0
 16 15  2  0  0  0  0
 17 14  1  0  0  0  0
 18 17  2  0  0  0  0
 19 38  1  6  0  0  0
 19 22  1  0  0  0  0
 19 20  1  0  0  0  0
 19 18  1  0  0  0  0
 20 21  1  0  0  0  0
 21 17  1  0  0  0  0
 21 40  1  0  0  0  0
 22 23  1  0  0  0  0
 23 24  2  0  0  0  0
 23 41  1  0  0  0  0
 24 30  1  0  0  0  0
 25 28  1  0  0  0  0
 25 24  1  0  0  0  0
 26 25  2  0  0  0  0
 27 26  1  0  0  0  0
 27 22  2  0  0  0  0
 29 44  1  0  0  0  0
 29 45  1  0  0  0  0
 29 28  1  0  0  0  0
 30 47  1  0  0  0  0
 32  5  1  0  0  0  0
 33  6  1  0  0  0  0
 37 18  1  0  0  0  0
 39 20  1  0  0  0  0
 42 26  1  0  0  0  0
 43 27  1  0  0  0  0
 46 29  1  0  0  0  0
M  END
>  <Pose>
1

>  <Score>
-8.62

$$$$
