
 OpenBabel03202210193D

 47 50  0  0  0  0  0  0  0  0999 V2000
   19.1660   62.1100   -9.7890 S   0  0  0  0  0  0  0  0  0  0  0  0
   19.3650   60.8600  -10.5830 O   0  0  0  0  0  0  0  0  0  0  0  0
   19.5370   61.8280   -8.3600 O   0  0  0  0  0  0  0  0  0  0  0  0
   20.1720   63.3340  -10.3770 N   0  0  0  0  0  0  0  0  0  0  0  0
   21.5690   63.0260  -10.4060 C   0  0  0  0  0  0  0  0  0  0  0  0
   22.2610   63.3320   -9.0910 C   0  0  0  0  0  0  0  0  0  0  0  0
   21.8870   64.6540   -8.6630 N   0  0  0  0  0  0  0  0  0  0  0  0
   21.0830   65.4600   -9.5590 C   0  0  0  0  0  0  0  0  0  0  0  0
   19.8590   64.6450   -9.9210 C   0  0  0  0  0  0  0  0  0  0  0  0
   22.2730   65.1960   -7.4040 C   0  0  0  0  0  0  0  0  0  0  0  0
   21.8900   66.3300   -7.0310 O   0  0  0  0  0  0  0  0  0  0  0  0
   23.1380   64.4360   -6.4980 C   0  0  0  0  0  0  0  0  0  0  0  0
   24.4420   64.1110   -6.7120 N   0  0  0  0  0  0  0  0  0  0  0  0
   24.8950   63.4120   -5.6590 C   0  0  0  0  0  0  0  0  0  0  0  0
   23.8860   63.3000   -4.7970 N   0  0  0  0  0  0  0  0  0  0  0  0
   22.8010   63.9170   -5.2850 C   0  0  0  0  0  0  0  0  0  0  0  0
   24.0880   62.6320   -3.6450 C   0  0  0  0  0  0  0  0  0  0  0  0
   25.2760   62.0530   -3.2940 C   0  0  0  0  0  0  0  0  0  0  0  0
   26.3410   62.1590   -4.1820 C   0  0  0  0  0  0  0  0  0  0  0  0
   26.1230   62.8430   -5.3560 C   0  0  0  0  0  0  0  0  0  0  0  0
   25.5050   61.1860   -1.7790 Cl  0  0  0  0  0  0  0  0  0  0  0  0
   17.4950   62.5090   -9.8150 N   0  0  0  0  0  0  0  0  0  0  0  0
   16.6580   61.3600  -10.1050 C   0  0  0  0  0  0  0  0  0  0  0  0
   15.3570   61.8860  -10.6650 C   0  0  0  0  0  0  0  0  0  0  0  0
   15.0060   63.1050  -10.0950 O   0  0  0  0  0  0  0  0  0  0  0  0
   15.8720   64.1350  -10.4550 C   0  0  0  0  0  0  0  0  0  0  0  0
   17.1960   63.5010  -10.8310 C   0  0  0  0  0  0  0  0  0  0  0  0
   22.0450   63.6920  -11.1680 H   0  0  0  0  0  0  0  0  0  0  0  0
   21.7130   61.9970  -10.7430 H   0  0  0  0  0  0  0  0  0  0  0  0
   21.9770   62.5390   -8.3470 H   0  0  0  0  0  0  0  0  0  0  0  0
   23.3620   63.2600   -9.1990 H   0  0  0  0  0  0  0  0  0  0  0  0
   21.7130   65.6200  -10.4750 H   0  0  0  0  0  0  0  0  0  0  0  0
   20.8040   66.4130   -9.1070 H   0  0  0  0  0  0  0  0  0  0  0  0
   19.3280   65.1800  -10.7580 H   0  0  0  0  0  0  0  0  0  0  0  0
   19.1980   64.6200   -9.0500 H   0  0  0  0  0  0  0  0  0  0  0  0
   21.8450   63.9620   -4.7600 H   0  0  0  0  0  0  0  0  0  0  0  0
   23.2690   62.5300   -2.9200 H   0  0  0  0  0  0  0  0  0  0  0  0
   27.3150   61.7270   -3.9760 H   0  0  0  0  0  0  0  0  0  0  0  0
   26.9300   62.9520   -6.0820 H   0  0  0  0  0  0  0  0  0  0  0  0
   16.4860   60.7340   -9.2070 H   0  0  0  0  0  0  0  0  0  0  0  0
   17.1760   60.7700  -10.8910 H   0  0  0  0  0  0  0  0  0  0  0  0
   14.5410   61.1760  -10.4140 H   0  0  0  0  0  0  0  0  0  0  0  0
   15.3730   62.0260  -11.7570 H   0  0  0  0  0  0  0  0  0  0  0  0
   16.0820   64.7450   -9.5320 H   0  0  0  0  0  0  0  0  0  0  0  0
   15.4690   64.7720  -11.2620 H   0  0  0  0  0  0  0  0  0  0  0  0
   17.1310   63.0560  -11.8460 H   0  0  0  0  0  0  0  0  0  0  0  0
   18.0160   64.2430  -10.8720 H   0  0  0  0  0  0  0  0  0  0  0  0
  1  3  2  0  0  0  0
  2  1  2  0  0  0  0
  4  9  1  0  0  0  0
  4  1  1  0  0  0  0
  5  4  1  0  0  0  0
  5  6  1  0  0  0  0
  6  7  1  0  0  0  0
  6 30  1  0  0  0  0
  7 10  1  0  0  0  0
  8 33  1  0  0  0  0
  8  7  1  0  0  0  0
  9  8  1  0  0  0  0
  9 35  1  0  0  0  0
 10 11  2  0  0  0  0
 10 12  1  0  0  0  0
 12 16  2  0  0  0  0
 13 12  1  0  0  0  0
 13 14  2  0  0  0  0
 14 20  1  0  0  0  0
 14 15  1  0  0  0  0
 15 17  1  0  0  0  0
 16 15  1  0  0  0  0
 16 36  1  0  0  0  0
 17 18  2  0  0  0  0
 17 37  1  0  0  0  0
 18 21  1  0  0  0  0
 19 38  1  0  0  0  0
 19 18  1  0  0  0  0
 20 19  2  0  0  0  0
 22  1  1  0  0  0  0
 23 22  1  0  0  0  0
 23 40  1  0  0  0  0
 24 42  1  0  0  0  0
 24 23  1  0  0  0  0
 24 25  1  0  0  0  0
 26 25  1  0  0  0  0
 26 44  1  0  0  0  0
 27 26  1  0  0  0  0
 27 22  1  0  0  0  0
 28  5  1  0  0  0  0
 29  5  1  0  0  0  0
 31  6  1  0  0  0  0
 32  8  1  0  0  0  0
 34  9  1  0  0  0  0
 39 20  1  0  0  0  0
 41 23  1  0  0  0  0
 43 24  1  0  0  0  0
 45 26  1  0  0  0  0
 46 27  1  0  0  0  0
 47 27  1  0  0  0  0
M  END
>  <Pose>
1

>  <Score>
-6.71

$$$$
