
 OpenBabel03202210193D

 47 51  0  0  1  0  0  0  0  0999 V2000
   19.1480   62.0120  -13.6620 I   0  0  0  0  0  0  0  0  0  0  0  0
   20.0410   62.8800  -11.9650 C   0  0  0  0  0  0  0  0  0  0  0  0
   21.4070   63.0610  -11.8760 C   0  0  0  0  0  0  0  0  0  0  0  0
   22.0020   63.6360  -10.7530 C   0  0  0  0  0  0  0  0  0  0  0  0
   21.2160   64.0290   -9.7170 C   0  0  0  0  0  0  0  0  0  0  0  0
   19.8490   63.8420   -9.8160 C   0  0  0  0  0  0  0  0  0  0  0  0
   19.2420   63.2770  -10.9170 C   0  0  0  0  0  0  0  0  0  0  0  0
   21.7320   64.6320   -8.5140 N   0  0  0  0  0  0  0  0  0  0  0  0
   21.7720   65.9220   -8.2320 N   0  0  0  0  0  0  0  0  0  0  0  0
   22.3180   66.1520   -7.0210 C   0  0  0  0  0  0  0  0  0  0  0  0
   22.5230   67.2940   -6.4080 C   0  0  0  0  0  0  0  0  0  0  0  0
   22.6460   64.9160   -6.5000 C   0  0  0  0  0  0  0  0  0  0  0  0
   23.2170   64.6860   -5.3070 C   0  0  0  0  0  0  0  0  0  0  0  0
   23.4640   63.3250   -4.9780 N   0  0  0  0  0  4  0  0  0  0  0  0
   24.7640   62.9640   -4.4370 C   0  0  1  0  0  0  0  0  0  0  0  0
   25.8450   63.2060   -5.4800 C   0  0  0  0  0  0  0  0  0  0  0  0
   27.1270   62.9010   -4.9090 N   0  0  2  0  0  0  0  0  0  0  0  0
   27.1110   61.4930   -4.5260 C   0  0  0  0  0  0  0  0  0  0  0  0
   26.1310   61.2340   -3.5090 N   0  0  1  0  0  0  0  0  0  0  0  0
   26.3520   62.0850   -2.3610 C   0  0  0  0  0  0  0  0  0  0  0  0
   26.3510   63.4800   -2.7120 N   0  0  1  0  0  0  0  0  0  0  0  0
   27.3320   63.7510   -3.7570 C   0  0  0  0  0  0  0  0  0  0  0  0
   25.0510   63.8350   -3.2330 C   0  0  0  0  0  0  0  0  0  0  0  0
   24.8250   61.5180   -4.0480 C   0  0  0  0  0  0  0  0  0  0  0  0
   22.2670   64.0000   -7.4560 C   0  0  0  0  0  0  0  0  0  0  0  0
   22.3980   62.7530   -7.3600 O   0  0  0  0  0  0  0  0  0  0  0  0
   21.9940   62.7320  -12.7280 H   0  0  0  0  0  0  0  0  0  0  0  0
   23.0710   63.7710  -10.6990 H   0  0  0  0  0  0  0  0  0  0  0  0
   19.2290   64.1610   -8.9800 H   0  0  0  0  0  0  0  0  0  0  0  0
   18.1540   63.1420  -10.9670 H   0  0  0  0  0  0  0  0  0  0  0  0
   21.4290   66.6890   -8.8570 H   0  0  0  0  0  0  0  0  0  0  0  0
   22.9740   67.3150   -5.4330 H   0  0  0  0  0  0  0  0  0  0  0  0
   22.2470   68.2310   -6.8610 H   0  0  0  0  0  0  0  0  0  0  0  0
   23.4690   65.5010   -4.6400 H   0  0  0  0  0  0  0  0  0  0  0  0
   22.7700   62.5610   -5.0990 H   0  0  0  0  0  0  0  0  0  0  0  0
   25.5950   62.5440   -6.3410 H   0  0  0  0  0  0  0  0  0  0  0  0
   25.7430   64.2380   -5.8440 H   0  0  0  0  0  0  0  0  0  0  0  0
   28.1220   61.1180   -4.2730 H   0  0  0  0  0  0  0  0  0  0  0  0
   26.7910   60.9360   -5.4540 H   0  0  0  0  0  0  0  0  0  0  0  0
   27.3500   61.8550   -1.9050 H   0  0  0  0  0  0  0  0  0  0  0  0
   25.5510   61.9120   -1.6160 H   0  0  0  0  0  0  0  0  0  0  0  0
   27.1530   64.8020   -4.0900 H   0  0  0  0  0  0  0  0  0  0  0  0
   28.3730   63.6970   -3.3760 H   0  0  0  0  0  0  0  0  0  0  0  0
   24.3010   63.6060   -2.4430 H   0  0  0  0  0  0  0  0  0  0  0  0
   25.0010   64.8900   -3.5570 H   0  0  0  0  0  0  0  0  0  0  0  0
   24.5970   60.9040   -4.9420 H   0  0  0  0  0  0  0  0  0  0  0  0
   24.0580   61.2650   -3.2750 H   0  0  0  0  0  0  0  0  0  0  0  0
  1  2  1  0  0  0  0
  2  3  2  0  0  0  0
  2  7  1  0  0  0  0
  3  4  1  0  0  0  0
  4 28  1  0  0  0  0
  4  5  2  0  0  0  0
  5  8  1  0  0  0  0
  6  5  1  0  0  0  0
  6 29  1  0  0  0  0
  7  6  2  0  0  0  0
  8  9  1  0  0  0  0
  8 25  1  0  0  0  0
  9 10  1  0  0  0  0
 10 12  2  0  0  0  0
 10 11  1  0  0  0  0
 11 32  1  0  0  0  0
 12 13  1  0  0  0  0
 13 14  2  0  0  0  0
 13 34  1  0  0  0  0
 15 14  1  6  0  0  0
 15 24  1  0  0  0  0
 15 23  1  0  0  0  0
 16 15  1  0  0  0  0
 17 16  1  1  0  0  0
 17 18  1  0  0  0  0
 17 22  1  0  0  0  0
 18 38  1  0  0  0  0
 19 18  1  6  0  0  0
 19 20  1  0  0  0  0
 20 40  1  0  0  0  0
 20 41  1  0  0  0  0
 21 22  1  6  0  0  0
 21 20  1  0  0  0  0
 22 43  1  0  0  0  0
 23 21  1  0  0  0  0
 23 44  1  0  0  0  0
 24 19  1  0  0  0  0
 24 47  1  0  0  0  0
 25 26  2  0  0  0  0
 25 12  1  0  0  0  0
 27  3  1  0  0  0  0
 30  7  1  0  0  0  0
 31  9  1  0  0  0  0
 33 11  1  0  0  0  0
 35 14  1  0  0  0  0
 36 16  1  0  0  0  0
 37 16  1  0  0  0  0
 39 18  1  0  0  0  0
 42 22  1  0  0  0  0
 45 23  1  0  0  0  0
 46 24  1  0  0  0  0
M  END
>  <Pose>
1

>  <Score>
-6.85

$$$$
