
 OpenBabel03202210193D

 61 64  0  0  1  0  0  0  0  0999 V2000
   21.2260   62.9240   -9.2400 S   0  0  0  0  0  0  0  0  0  0  0  0
   21.6210   61.9130   -8.1640 O   0  0  0  0  0  0  0  0  0  0  0  0
   22.1340   62.5630  -10.4180 O   0  0  0  0  0  0  0  0  0  0  0  0
   21.5460   64.4910   -8.7950 N   0  0  0  0  0  0  0  0  0  0  0  0
   22.7030   64.9360   -8.1870 C   0  0  1  0  0  0  0  0  0  0  0  0
   23.4080   65.8090   -9.2340 C   0  0  0  0  0  0  0  0  0  0  0  0
   22.2330   66.4820   -9.9080 C   0  0  0  0  0  0  0  0  0  0  0  0
   21.1050   65.4870   -9.7670 C   0  0  0  0  0  0  0  0  0  0  0  0
   22.3210   65.8190   -7.0110 C   0  0  0  0  0  0  0  0  0  0  0  0
   22.3940   65.2880   -5.8950 O   0  0  0  0  0  0  0  0  0  0  0  0
   21.9210   67.1460   -7.2420 N   0  0  0  0  0  0  0  0  0  0  0  0
   22.1820   68.1660   -6.2560 C   0  0  0  0  0  0  0  0  0  0  0  0
   23.5490   68.7360   -6.2650 C   0  0  0  0  0  0  0  0  0  0  0  0
   23.6820   70.0730   -5.8080 N   0  0  0  0  0  0  0  0  0  0  0  0
   23.9210   71.0520   -6.8180 C   0  0  0  0  0  0  0  0  0  0  0  0
   23.1290   72.2930   -6.4570 C   0  0  0  0  0  0  0  0  0  0  0  0
   23.4510   72.6800   -5.0280 C   0  0  0  0  0  0  0  0  0  0  0  0
   24.9440   72.6340   -4.8500 C   0  0  0  0  0  0  0  0  0  0  0  0
   25.5010   71.2750   -4.6400 C   0  0  0  0  0  0  0  0  0  0  0  0
   24.5250   70.1590   -4.6610 C   0  0  0  0  0  0  0  0  0  0  0  0
   19.5910   62.6100   -9.7410 C   0  0  0  0  0  0  0  0  0  0  0  0
   18.6790   63.6770   -9.7740 C   0  0  0  0  0  0  0  0  0  0  0  0
   17.3580   63.5380  -10.0930 C   0  0  0  0  0  0  0  0  0  0  0  0
   16.9130   62.2640  -10.3970 C   0  0  0  0  0  0  0  0  0  0  0  0
   17.7440   61.1840  -10.3860 C   0  0  0  0  0  0  0  0  0  0  0  0
   19.0790   61.3830  -10.0550 C   0  0  0  0  0  0  0  0  0  0  0  0
   20.1020   59.9680  -10.1650 Cl  0  0  0  0  0  0  0  0  0  0  0  0
   15.5280   62.1050  -10.7390 N   0  0  0  0  0  0  0  0  0  0  0  0
   14.6720   63.2440  -10.7540 C   0  0  0  0  0  0  0  0  0  0  0  0
   13.4450   63.1060  -10.6000 O   0  0  0  0  0  0  0  0  0  0  0  0
   15.3070   64.5700  -10.9590 C   0  0  0  0  0  0  0  0  0  0  0  0
   16.4620   64.5950  -10.1240 O   0  0  0  0  0  0  0  0  0  0  0  0
   23.4680   64.2250   -7.8690 H   0  0  0  0  0  0  0  0  0  0  0  0
   24.1400   66.4850   -8.8060 H   0  0  0  0  0  0  0  0  0  0  0  0
   23.9130   65.1250   -9.9390 H   0  0  0  0  0  0  0  0  0  0  0  0
   22.0430   67.4230   -9.3390 H   0  0  0  0  0  0  0  0  0  0  0  0
   22.4050   66.6750  -10.9740 H   0  0  0  0  0  0  0  0  0  0  0  0
   20.8570   65.0050  -10.7400 H   0  0  0  0  0  0  0  0  0  0  0  0
   20.2210   65.9910   -9.3410 H   0  0  0  0  0  0  0  0  0  0  0  0
   21.4260   67.4420   -8.1070 H   0  0  0  0  0  0  0  0  0  0  0  0
   21.4710   69.0140   -6.4780 H   0  0  0  0  0  0  0  0  0  0  0  0
   21.9290   67.8330   -5.2370 H   0  0  0  0  0  0  0  0  0  0  0  0
   23.9610   68.6670   -7.2800 H   0  0  0  0  0  0  0  0  0  0  0  0
   24.2030   68.0940   -5.6110 H   0  0  0  0  0  0  0  0  0  0  0  0
   23.6990   70.7000   -7.8400 H   0  0  0  0  0  0  0  0  0  0  0  0
   24.9940   71.3300   -6.8030 H   0  0  0  0  0  0  0  0  0  0  0  0
   23.4430   73.1720   -7.0900 H   0  0  0  0  0  0  0  0  0  0  0  0
   22.0440   72.1770   -6.6330 H   0  0  0  0  0  0  0  0  0  0  0  0
   23.0520   73.6420   -4.7310 H   0  0  0  0  0  0  0  0  0  0  0  0
   23.0150   71.9050   -4.3640 H   0  0  0  0  0  0  0  0  0  0  0  0
   25.1930   73.3630   -4.0240 H   0  0  0  0  0  0  0  0  0  0  0  0
   25.4260   73.0700   -5.7600 H   0  0  0  0  0  0  0  0  0  0  0  0
   26.3740   71.0690   -5.3250 H   0  0  0  0  0  0  0  0  0  0  0  0
   25.9790   71.2650   -3.6160 H   0  0  0  0  0  0  0  0  0  0  0  0
   23.8870   70.1730   -3.7540 H   0  0  0  0  0  0  0  0  0  0  0  0
   25.1140   69.2070   -4.5810 H   0  0  0  0  0  0  0  0  0  0  0  0
   19.0490   64.6750   -9.5300 H   0  0  0  0  0  0  0  0  0  0  0  0
   17.3570   60.2000  -10.6310 H   0  0  0  0  0  0  0  0  0  0  0  0
   15.1760   61.1430  -10.9730 H   0  0  0  0  0  0  0  0  0  0  0  0
   14.6580   65.4160  -10.7310 H   0  0  0  0  0  0  0  0  0  0  0  0
   15.6950   64.6200  -12.0140 H   0  0  0  0  0  0  0  0  0  0  0  0
  1  4  1  0  0  0  0
  1  2  2  0  0  0  0
  3  1  2  0  0  0  0
  4  5  1  0  0  0  0
  5 33  1  1  0  0  0
  5  9  1  0  0  0  0
  6 34  1  0  0  0  0
  6  5  1  0  0  0  0
  7  8  1  0  0  0  0
  7 36  1  0  0  0  0
  7  6  1  0  0  0  0
  8 39  1  0  0  0  0
  8  4  1  0  0  0  0
  9 10  2  0  0  0  0
 11  9  1  0  0  0  0
 11 12  1  0  0  0  0
 12 42  1  0  0  0  0
 13 12  1  0  0  0  0
 13 14  1  0  0  0  0
 13 44  1  0  0  0  0
 14 20  1  0  0  0  0
 15 46  1  0  0  0  0
 15 16  1  0  0  0  0
 15 14  1  0  0  0  0
 16 17  1  0  0  0  0
 17 18  1  0  0  0  0
 17 49  1  0  0  0  0
 17 50  1  0  0  0  0
 18 19  1  0  0  0  0
 18 51  1  0  0  0  0
 19 54  1  0  0  0  0
 20 19  1  0  0  0  0
 20 56  1  0  0  0  0
 20 55  1  0  0  0  0
 21  1  1  0  0  0  0
 22 21  1  0  0  0  0
 22 57  1  0  0  0  0
 23 22  2  0  0  0  0
 24 25  2  0  0  0  0
 24 23  1  0  0  0  0
 25 26  1  0  0  0  0
 26 21  2  0  0  0  0
 27 26  1  0  0  0  0
 28 24  1  0  0  0  0
 29 28  1  0  0  0  0
 29 30  2  0  0  0  0
 31 29  1  0  0  0  0
 31 60  1  0  0  0  0
 31 32  1  0  0  0  0
 32 23  1  0  0  0  0
 35  6  1  0  0  0  0
 37  7  1  0  0  0  0
 38  8  1  0  0  0  0
 40 11  1  0  0  0  0
 41 12  1  0  0  0  0
 43 13  1  0  0  0  0
 45 15  1  0  0  0  0
 47 16  1  0  0  0  0
 48 16  1  0  0  0  0
 52 18  1  0  0  0  0
 53 19  1  0  0  0  0
 58 25  1  0  0  0  0
 59 28  1  0  0  0  0
 61 31  1  0  0  0  0
M  END
>  <Pose>
1

>  <Score>
-5.09

$$$$
