
 OpenBabel03202210193D

 39 42  0  0  0  0  0  0  0  0999 V2000
   14.8090   61.0720  -10.7040 Cl  0  0  0  0  0  0  0  0  0  0  0  0
   16.4110   61.7440  -10.3660 C   0  0  0  0  0  0  0  0  0  0  0  0
   16.6130   63.1020  -10.3250 C   0  0  0  0  0  0  0  0  0  0  0  0
   17.8600   63.6200  -10.0630 C   0  0  0  0  0  0  0  0  0  0  0  0
   18.9900   62.8300   -9.8230 C   0  0  0  0  0  0  0  0  0  0  0  0
   18.7580   61.4740   -9.8690 C   0  0  0  0  0  0  0  0  0  0  0  0
   17.4890   60.9300  -10.1370 C   0  0  0  0  0  0  0  0  0  0  0  0
   20.2430   63.4580   -9.5140 C   0  0  0  0  0  0  0  0  0  0  0  0
   20.4960   64.5130  -10.2470 O   0  0  0  0  0  0  0  0  0  0  0  0
   21.2230   63.1470   -8.5850 N   0  0  0  0  0  0  0  0  0  0  0  0
   21.1340   62.6770   -7.2420 C   0  0  0  0  0  0  0  0  0  0  0  0
   21.3710   63.9240   -6.3670 C   0  0  0  0  0  0  0  0  0  0  0  0
   22.4590   64.6930   -6.9980 N   0  0  0  0  0  0  0  0  0  0  0  0
   23.3910   63.9810   -7.8240 C   0  0  0  0  0  0  0  0  0  0  0  0
   22.6460   63.3830   -9.0030 C   0  0  0  0  0  0  0  0  0  0  0  0
   22.5500   66.0970   -6.7670 C   0  0  0  0  0  0  0  0  0  0  0  0
   23.5900   66.6280   -6.0860 N   0  0  0  0  0  0  0  0  0  0  0  0
   23.7060   67.9220   -5.8510 N   0  0  0  0  0  0  0  0  0  0  0  0
   22.7970   68.8130   -6.2720 C   0  0  0  0  0  0  0  0  0  0  0  0
   23.1590   70.0650   -5.8980 N   0  0  0  0  0  0  0  0  0  0  0  0
   24.2990   69.9550   -5.2410 N   0  0  0  0  0  0  0  0  0  0  0  0
   24.6500   68.6580   -5.2000 C   0  0  0  0  0  0  0  0  0  0  0  0
   21.7010   68.3470   -6.9780 C   0  0  0  0  0  0  0  0  0  0  0  0
   21.6040   66.9950   -7.2090 C   0  0  0  0  0  0  0  0  0  0  0  0
   15.7590   63.7400  -10.5070 H   0  0  0  0  0  0  0  0  0  0  0  0
   17.9800   64.6890  -10.0410 H   0  0  0  0  0  0  0  0  0  0  0  0
   19.5640   60.7950   -9.6700 H   0  0  0  0  0  0  0  0  0  0  0  0
   17.3440   59.8520  -10.1660 H   0  0  0  0  0  0  0  0  0  0  0  0
   20.3210   62.0540   -6.9430 H   0  0  0  0  0  0  0  0  0  0  0  0
   22.0970   62.0720   -7.0250 H   0  0  0  0  0  0  0  0  0  0  0  0
   21.6470   63.6410   -5.3350 H   0  0  0  0  0  0  0  0  0  0  0  0
   20.4250   64.4800   -6.4000 H   0  0  0  0  0  0  0  0  0  0  0  0
   23.8670   63.1230   -7.2960 H   0  0  0  0  0  0  0  0  0  0  0  0
   24.1450   64.6730   -8.2510 H   0  0  0  0  0  0  0  0  0  0  0  0
   23.0640   62.4140   -9.3250 H   0  0  0  0  0  0  0  0  0  0  0  0
   22.6380   64.0610   -9.8710 H   0  0  0  0  0  0  0  0  0  0  0  0
   25.5410   68.2480   -4.7280 H   0  0  0  0  0  0  0  0  0  0  0  0
   20.9400   69.0340   -7.3380 H   0  0  0  0  0  0  0  0  0  0  0  0
   20.7500   66.5790   -7.7630 H   0  0  0  0  0  0  0  0  0  0  0  0
  1  2  1  0  0  0  0
  2  3  2  0  0  0  0
  2  7  1  0  0  0  0
  3  4  1  0  0  0  0
  4 26  1  0  0  0  0
  4  5  2  0  0  0  0
  5  8  1  0  0  0  0
  6  5  1  0  0  0  0
  6 27  1  0  0  0  0
  7  6  2  0  0  0  0
  8 10  1  0  0  0  0
  9  8  2  0  0  0  0
 10 11  1  0  0  0  0
 11 30  1  0  0  0  0
 11 29  1  0  0  0  0
 11 12  1  0  0  0  0
 12 31  1  0  0  0  0
 13 16  1  0  0  0  0
 13 12  1  0  0  0  0
 14 33  1  0  0  0  0
 14 13  1  0  0  0  0
 15 10  1  0  0  0  0
 15 14  1  0  0  0  0
 16 17  2  0  0  0  0
 17 18  1  0  0  0  0
 18 22  1  0  0  0  0
 19 20  2  0  0  0  0
 19 18  1  0  0  0  0
 20 21  1  0  0  0  0
 21 22  2  0  0  0  0
 22 37  1  0  0  0  0
 23 19  1  0  0  0  0
 24 23  2  0  0  0  0
 24 16  1  0  0  0  0
 25  3  1  0  0  0  0
 28  7  1  0  0  0  0
 32 12  1  0  0  0  0
 34 14  1  0  0  0  0
 35 15  1  0  0  0  0
 36 15  1  0  0  0  0
 38 23  1  0  0  0  0
 39 24  1  0  0  0  0
M  END
>  <Pose>
1

>  <Score>
-6.62

$$$$
