
 OpenBabel03202210193D

 47 50  0  0  0  0  0  0  0  0999 V2000
   27.4680   63.1520  -15.8380 Cl  0  0  0  0  0  0  0  0  0  0  0  0
   26.2430   63.2970  -14.5920 C   0  0  0  0  0  0  0  0  0  0  0  0
   24.8930   63.3790  -14.8780 C   0  0  0  0  0  0  0  0  0  0  0  0
   23.9320   63.4910  -13.8880 C   0  0  0  0  0  0  0  0  0  0  0  0
   24.2890   63.5260  -12.5540 C   0  0  0  0  0  0  0  0  0  0  0  0
   25.6330   63.4450  -12.2560 C   0  0  0  0  0  0  0  0  0  0  0  0
   26.5980   63.3320  -13.2530 C   0  0  0  0  0  0  0  0  0  0  0  0
   23.2860   63.6410  -11.5500 N   0  0  0  0  0  0  0  0  0  0  0  0
   22.0860   63.1860  -11.6310 N   0  0  0  0  0  0  0  0  0  0  0  0
   21.3590   63.4610  -10.4840 C   0  0  0  0  0  0  0  0  0  0  0  0
   22.1780   64.1130   -9.6810 N   0  0  0  0  0  0  0  0  0  0  0  0
   23.3750   64.2240  -10.3520 C   0  0  0  0  0  0  0  0  0  0  0  0
   24.3770   64.7960   -9.8720 O   0  0  0  0  0  0  0  0  0  0  0  0
   21.9770   64.5470   -8.3350 C   0  0  0  0  0  0  0  0  0  0  0  0
   22.3980   63.5920   -7.2920 C   0  0  0  0  0  0  0  0  0  0  0  0
   22.3930   62.3560   -7.7000 O   0  0  0  0  0  0  0  0  0  0  0  0
   22.7860   63.7830   -5.9850 N   0  0  0  0  0  0  0  0  0  0  0  0
   24.0690   63.4380   -5.4340 C   0  0  0  0  0  0  0  0  0  0  0  0
   24.1930   63.8370   -3.9520 C   0  0  0  0  0  0  0  0  0  0  0  0
   23.0650   63.2670   -3.2090 N   0  0  0  0  0  0  0  0  0  0  0  0
   21.7920   63.4720   -3.8620 C   0  0  0  0  0  0  0  0  0  0  0  0
   20.7640   62.9010   -3.4330 O   0  0  0  0  0  0  0  0  0  0  0  0
   21.8330   64.3800   -5.0330 C   0  0  0  0  0  0  0  0  0  0  0  0
   19.9760   63.0040  -10.3660 C   0  0  0  0  0  0  0  0  0  0  0  0
   18.9580   63.8690  -10.7880 C   0  0  0  0  0  0  0  0  0  0  0  0
   17.6240   63.5920  -10.6770 C   0  0  0  0  0  0  0  0  0  0  0  0
   17.1980   62.3940  -10.1190 C   0  0  0  0  0  0  0  0  0  0  0  0
   18.1810   61.5420   -9.7010 C   0  0  0  0  0  0  0  0  0  0  0  0
   19.5440   61.8320   -9.8170 C   0  0  0  0  0  0  0  0  0  0  0  0
   24.6100   63.3510  -15.9220 H   0  0  0  0  0  0  0  0  0  0  0  0
   22.8820   63.5540  -14.1090 H   0  0  0  0  0  0  0  0  0  0  0  0
   25.9080   63.4730  -11.2180 H   0  0  0  0  0  0  0  0  0  0  0  0
   27.6480   63.2690  -13.0120 H   0  0  0  0  0  0  0  0  0  0  0  0
   21.0000   64.9040   -8.0980 H   0  0  0  0  0  0  0  0  0  0  0  0
   22.6570   65.4790   -8.2030 H   0  0  0  0  0  0  0  0  0  0  0  0
   24.8160   64.0860   -5.9660 H   0  0  0  0  0  0  0  0  0  0  0  0
   24.3310   62.3910   -5.5380 H   0  0  0  0  0  0  0  0  0  0  0  0
   24.1510   64.9320   -3.8460 H   0  0  0  0  0  0  0  0  0  0  0  0
   25.1600   63.4880   -3.5610 H   0  0  0  0  0  0  0  0  0  0  0  0
   23.1630   62.7740   -2.3180 H   0  0  0  0  0  0  0  0  0  0  0  0
   20.8320   64.4410   -5.5210 H   0  0  0  0  0  0  0  0  0  0  0  0
   22.2200   65.3900   -4.7680 H   0  0  0  0  0  0  0  0  0  0  0  0
   19.2820   64.8160  -11.2360 H   0  0  0  0  0  0  0  0  0  0  0  0
   16.8580   64.2750  -11.0090 H   0  0  0  0  0  0  0  0  0  0  0  0
   16.1520   62.1540  -10.0230 H   0  0  0  0  0  0  0  0  0  0  0  0
   17.8810   60.5880   -9.2510 H   0  0  0  0  0  0  0  0  0  0  0  0
   20.2240   61.1190   -9.4380 H   0  0  0  0  0  0  0  0  0  0  0  0
  1  2  1  0  0  0  0
  2  7  1  0  0  0  0
  3  2  2  0  0  0  0
  3  4  1  0  0  0  0
  4  5  2  0  0  0  0
  5  6  1  0  0  0  0
  5  8  1  0  0  0  0
  6 32  1  0  0  0  0
  7 33  1  0  0  0  0
  7  6  2  0  0  0  0
  8 12  1  0  0  0  0
  9  8  1  0  0  0  0
  9 10  2  0  0  0  0
 10 24  1  0  0  0  0
 10 11  1  0  0  0  0
 11 14  1  0  0  0  0
 12 13  2  0  0  0  0
 12 11  1  0  0  0  0
 14 35  1  0  0  0  0
 14 34  1  0  0  0  0
 14 15  1  0  0  0  0
 15 17  1  0  0  0  0
 16 15  2  0  0  0  0
 17 18  1  0  0  0  0
 17 23  1  0  0  0  0
 18 19  1  0  0  0  0
 19 38  1  0  0  0  0
 19 39  1  0  0  0  0
 19 20  1  0  0  0  0
 20 40  1  0  0  0  0
 21 22  2  0  0  0  0
 21 20  1  0  0  0  0
 23 42  1  0  0  0  0
 23 21  1  0  0  0  0
 24 29  1  0  0  0  0
 25 26  1  0  0  0  0
 25 24  2  0  0  0  0
 26 27  2  0  0  0  0
 27 45  1  0  0  0  0
 27 28  1  0  0  0  0
 28 46  1  0  0  0  0
 29 28  2  0  0  0  0
 29 47  1  0  0  0  0
 30  3  1  0  0  0  0
 31  4  1  0  0  0  0
 36 18  1  0  0  0  0
 37 18  1  0  0  0  0
 41 23  1  0  0  0  0
 43 25  1  0  0  0  0
 44 26  1  0  0  0  0
M  END
>  <Pose>
1

>  <Score>
-6.05

$$$$
