
 OpenBabel03202210193D

 42 45  0  0  0  0  0  0  0  0999 V2000
   24.7960   63.8390   -3.3830 Cl  0  0  0  0  0  0  0  0  0  0  0  0
   24.2150   63.8780   -5.0490 C   0  0  0  0  0  0  0  0  0  0  0  0
   23.3820   64.8540   -5.5170 C   0  0  0  0  0  0  0  0  0  0  0  0
   22.9080   64.9170   -6.8110 C   0  0  0  0  0  0  0  0  0  0  0  0
   23.3140   63.9120   -7.6830 C   0  0  0  0  0  0  0  0  0  0  0  0
   24.1670   62.9070   -7.2090 C   0  0  0  0  0  0  0  0  0  0  0  0
   24.6100   62.8890   -5.9170 C   0  0  0  0  0  0  0  0  0  0  0  0
   22.8680   63.9100   -9.0220 N   0  0  0  0  0  0  0  0  0  0  0  0
   23.5700   64.3090  -10.0570 N   0  0  0  0  0  0  0  0  0  0  0  0
   22.7960   64.1490  -11.1260 N   0  0  0  0  0  0  0  0  0  0  0  0
   21.5950   63.6480  -10.7790 C   0  0  0  0  0  0  0  0  0  0  0  0
   21.6590   63.5050   -9.4510 C   0  0  0  0  0  0  0  0  0  0  0  0
   20.4240   62.9880   -9.0890 C   0  0  0  0  0  0  0  0  0  0  0  0
   20.0980   62.7170   -7.9110 O   0  0  0  0  0  0  0  0  0  0  0  0
   19.6220   62.8180  -10.1510 N   0  0  0  0  0  0  0  0  0  0  0  0
   20.3520   63.2290  -11.2050 C   0  0  0  0  0  0  0  0  0  0  0  0
   19.9570   63.2310  -12.4090 O   0  0  0  0  0  0  0  0  0  0  0  0
   18.2890   62.3180  -10.2020 C   0  0  0  0  0  0  0  0  0  0  0  0
   17.9820   60.9810  -10.0430 C   0  0  0  0  0  0  0  0  0  0  0  0
   16.6880   60.5040  -10.0930 C   0  0  0  0  0  0  0  0  0  0  0  0
   15.6270   61.3580  -10.3100 C   0  0  0  0  0  0  0  0  0  0  0  0
   15.9180   62.6960  -10.4710 C   0  0  0  0  0  0  0  0  0  0  0  0
   17.2190   63.1640  -10.4190 C   0  0  0  0  0  0  0  0  0  0  0  0
   14.3240   60.8680  -10.3590 O   0  0  0  0  0  0  0  0  0  0  0  0
   13.2720   61.5270  -10.9940 C   0  0  0  0  0  0  0  0  0  0  0  0
   16.3790   59.1570   -9.9320 O   0  0  0  0  0  0  0  0  0  0  0  0
   17.3270   58.3490   -9.2600 C   0  0  0  0  0  0  0  0  0  0  0  0
   23.0680   65.6380   -4.8280 H   0  0  0  0  0  0  0  0  0  0  0  0
   22.2470   65.7060   -7.1500 H   0  0  0  0  0  0  0  0  0  0  0  0
   24.4920   62.1120   -7.8880 H   0  0  0  0  0  0  0  0  0  0  0  0
   25.2790   62.1090   -5.5320 H   0  0  0  0  0  0  0  0  0  0  0  0
   24.5640   64.6860  -10.0500 H   0  0  0  0  0  0  0  0  0  0  0  0
   23.1090   64.3910  -12.0970 H   0  0  0  0  0  0  0  0  0  0  0  0
   18.8070   60.3070   -9.8730 H   0  0  0  0  0  0  0  0  0  0  0  0
   15.0870   63.3670  -10.6410 H   0  0  0  0  0  0  0  0  0  0  0  0
   17.4360   64.2190  -10.5470 H   0  0  0  0  0  0  0  0  0  0  0  0
   12.2720   61.2100  -10.6330 H   0  0  0  0  0  0  0  0  0  0  0  0
   13.3120   62.6380  -10.8430 H   0  0  0  0  0  0  0  0  0  0  0  0
   13.3440   61.3410  -12.0830 H   0  0  0  0  0  0  0  0  0  0  0  0
   17.6370   58.8270   -8.3150 H   0  0  0  0  0  0  0  0  0  0  0  0
   16.9430   57.3310   -9.0660 H   0  0  0  0  0  0  0  0  0  0  0  0
   18.2050   58.2320   -9.9270 H   0  0  0  0  0  0  0  0  0  0  0  0
  2  1  1  0  0  0  0
  3  2  1  0  0  0  0
  3 28  1  0  0  0  0
  4  3  2  0  0  0  0
  5  6  2  0  0  0  0
  5  4  1  0  0  0  0
  6  7  1  0  0  0  0
  7 31  1  0  0  0  0
  7  2  2  0  0  0  0
  8  5  1  0  0  0  0
  9 32  1  0  0  0  0
  9  8  1  0  0  0  0
 10 11  1  0  0  0  0
 10  9  1  0  0  0  0
 11 12  2  0  0  0  0
 12 13  1  0  0  0  0
 12  8  1  0  0  0  0
 13 14  2  0  0  0  0
 15 13  1  0  0  0  0
 16 11  1  0  0  0  0
 16 15  1  0  0  0  0
 17 16  2  0  0  0  0
 18 15  1  0  0  0  0
 18 19  1  0  0  0  0
 19 34  1  0  0  0  0
 20 19  2  0  0  0  0
 20 26  1  0  0  0  0
 21 20  1  0  0  0  0
 22 23  1  0  0  0  0
 22 21  2  0  0  0  0
 23 18  2  0  0  0  0
 24 21  1  0  0  0  0
 25 38  1  0  0  0  0
 25 37  1  0  0  0  0
 25 24  1  0  0  0  0
 26 27  1  0  0  0  0
 27 41  1  0  0  0  0
 27 40  1  0  0  0  0
 29  4  1  0  0  0  0
 30  6  1  0  0  0  0
 33 10  1  0  0  0  0
 35 22  1  0  0  0  0
 36 23  1  0  0  0  0
 39 25  1  0  0  0  0
 42 27  1  0  0  0  0
M  END
>  <Pose>
1

>  <Score>
-7.53

$$$$
