
 OpenBabel03202210193D

 42 45  0  0  1  0  0  0  0  0999 V2000
   25.6530   61.8090   -4.4290 Cl  0  0  0  0  0  0  0  0  0  0  0  0
   24.6820   63.1740   -4.9810 C   0  0  0  0  0  0  0  0  0  0  0  0
   24.1380   63.1760   -6.2530 C   0  0  0  0  0  0  0  0  0  0  0  0
   23.3830   64.2280   -6.6930 C   0  0  1  0  0  0  0  0  0  0  0  0
   23.1950   65.2700   -5.8180 C   0  0  0  0  0  0  0  0  0  0  0  0
   23.7220   65.2930   -4.5530 C   0  0  0  0  0  0  0  0  0  0  0  0
   24.4850   64.2220   -4.1200 C   0  0  0  0  0  0  0  0  0  0  0  0
   22.3850   66.4230   -6.2590 C   0  0  0  0  0  0  0  0  0  0  0  0
   22.0380   67.5220   -5.6850 N   0  0  0  0  0  0  0  0  0  0  0  0
   21.2310   68.3460   -6.5370 C   0  0  0  0  0  0  0  0  0  0  0  0
   21.1040   67.5730   -7.8090 C   0  0  0  0  0  0  0  0  0  0  0  0
   21.8570   66.3640   -7.5730 N   0  0  0  0  0  0  0  0  0  0  0  0
   22.0840   65.2490   -8.4460 C   0  0  0  0  0  0  0  0  0  0  0  0
   21.6930   64.9820   -9.7010 N   0  0  0  0  0  0  0  0  0  0  0  0
   22.1630   63.8080  -10.0830 N   0  0  0  0  0  0  0  0  0  0  0  0
   22.8620   63.3400   -9.0360 C   0  0  0  0  0  0  0  0  0  0  0  0
   23.4600   62.2360   -9.0290 O   0  0  0  0  0  0  0  0  0  0  0  0
   22.8290   64.2220   -8.0000 N   0  0  0  0  0  0  0  0  0  0  0  0
   21.9780   63.1360  -11.3660 C   0  0  0  0  0  0  0  0  0  0  0  0
   20.5610   62.7190  -11.4880 C   0  0  0  0  0  0  0  0  0  0  0  0
   19.8610   63.2100  -12.4190 O   0  0  0  0  0  0  0  0  0  0  0  0
   19.9550   61.7900  -10.6030 N   0  0  0  0  0  0  0  0  0  0  0  0
   18.5240   61.7930  -10.3930 C   0  0  0  0  0  0  0  0  0  0  0  0
   18.0870   60.5270   -9.6510 C   0  0  0  0  0  0  0  0  0  0  0  0
   18.2250   62.9500   -9.4500 C   0  0  0  0  0  0  0  0  0  0  0  0
   24.3130   62.3420   -6.8970 H   0  0  0  0  0  0  0  0  0  0  0  0
   23.5810   66.1090   -3.8540 H   0  0  0  0  0  0  0  0  0  0  0  0
   24.9100   64.2360   -3.1040 H   0  0  0  0  0  0  0  0  0  0  0  0
   20.2280   68.4460   -6.0470 H   0  0  0  0  0  0  0  0  0  0  0  0
   21.6810   69.3540   -6.6870 H   0  0  0  0  0  0  0  0  0  0  0  0
   20.0520   67.3620   -8.0900 H   0  0  0  0  0  0  0  0  0  0  0  0
   21.6440   68.1110   -8.6310 H   0  0  0  0  0  0  0  0  0  0  0  0
   22.1590   63.8940  -12.1490 H   0  0  0  0  0  0  0  0  0  0  0  0
   22.6930   62.3160  -11.5220 H   0  0  0  0  0  0  0  0  0  0  0  0
   20.5780   61.1130  -10.1180 H   0  0  0  0  0  0  0  0  0  0  0  0
   17.9640   61.9310  -11.3300 H   0  0  0  0  0  0  0  0  0  0  0  0
   18.9390   60.2630   -8.9840 H   0  0  0  0  0  0  0  0  0  0  0  0
   17.1810   60.7910   -9.0880 H   0  0  0  0  0  0  0  0  0  0  0  0
   17.8930   59.7080  -10.3850 H   0  0  0  0  0  0  0  0  0  0  0  0
   18.4420   62.5860   -8.4250 H   0  0  0  0  0  0  0  0  0  0  0  0
   17.1610   63.2430   -9.4790 H   0  0  0  0  0  0  0  0  0  0  0  0
   18.9150   63.7730   -9.6800 H   0  0  0  0  0  0  0  0  0  0  0  0
  2  1  1  0  0  0  0
  2  7  1  0  0  0  0
  3  2  2  0  0  0  0
  4  3  1  6  0  0  0
  4  5  1  0  0  0  0
  5  6  1  0  0  0  0
  6  7  2  0  0  0  0
  6 27  1  0  0  0  0
  7 28  1  0  0  0  0
  8  5  2  0  0  0  0
  8  9  1  0  0  0  0
 10 29  1  0  0  0  0
 10  9  1  0  0  0  0
 11 12  1  0  0  0  0
 11 10  1  0  0  0  0
 12  8  1  0  0  0  0
 13 18  1  0  0  0  0
 13 12  1  0  0  0  0
 14 13  2  0  0  0  0
 15 14  1  0  0  0  0
 15 16  1  0  0  0  0
 16 17  2  0  0  0  0
 16 18  1  0  0  0  0
 18  4  1  0  0  0  0
 19 15  1  0  0  0  0
 20 19  1  0  0  0  0
 20 22  1  0  0  0  0
 21 20  2  0  0  0  0
 22 23  1  0  0  0  0
 22 35  1  0  0  0  0
 23 24  1  0  0  0  0
 23 25  1  0  0  0  0
 24 38  1  0  0  0  0
 24 37  1  0  0  0  0
 25 40  1  0  0  0  0
 26  3  1  0  0  0  0
 30 10  1  0  0  0  0
 31 11  1  0  0  0  0
 32 11  1  0  0  0  0
 33 19  1  0  0  0  0
 34 19  1  0  0  0  0
 36 23  1  0  0  0  0
 39 24  1  0  0  0  0
 41 25  1  0  0  0  0
 42 25  1  0  0  0  0
M  END
>  <Pose>
1

>  <Score>
-6.89

$$$$
