
 OpenBabel03202210193D

 57 60  0  0  1  0  0  0  0  0999 V2000
   17.0670   63.6110  -10.5990 S   0  0  0  0  0  0  0  0  0  0  0  0
   16.3380   64.1960  -11.7740 O   0  0  0  0  0  0  0  0  0  0  0  0
   16.5380   64.3380   -9.3810 O   0  0  0  0  0  0  0  0  0  0  0  0
   18.7540   63.9350  -10.6720 N   0  0  0  0  0  0  0  0  0  0  0  0
   19.0800   65.1730  -10.0090 C   0  0  0  0  0  0  0  0  0  0  0  0
   20.5770   65.2070   -9.8080 C   0  0  0  0  0  0  0  0  0  0  0  0
   21.1880   64.1560  -10.5810 N   0  0  0  0  0  0  0  0  0  0  0  0
   20.7500   63.8510  -11.9380 C   0  0  0  0  0  0  0  0  0  0  0  0
   19.2330   64.0270  -12.0370 C   0  0  0  0  0  0  0  0  0  0  0  0
   22.2270   63.3910  -10.0220 C   0  0  0  0  0  0  0  0  0  0  0  0
   23.2420   63.1020  -10.7460 O   0  0  0  0  0  0  0  0  0  0  0  0
   22.1460   62.9200   -8.6130 C   0  0  1  0  0  0  0  0  0  0  0  0
   23.4820   62.9090   -7.9270 C   0  0  0  0  0  0  0  0  0  0  0  0
   23.4820   64.0780   -7.0540 N   0  0  0  0  0  0  0  0  0  0  0  0
   22.2820   64.8080   -7.2330 C   0  0  0  0  0  0  0  0  0  0  0  0
   22.1420   66.0250   -6.9630 O   0  0  0  0  0  0  0  0  0  0  0  0
   21.3030   63.8420   -7.7760 C   0  0  0  0  0  0  0  0  0  0  0  0
   24.5550   64.4290   -6.1520 C   0  0  0  0  0  0  0  0  0  0  0  0
   24.7360   63.4130   -5.0880 C   0  0  0  0  0  0  0  0  0  0  0  0
   23.7340   63.2340   -4.1460 C   0  0  0  0  0  0  0  0  0  0  0  0
   23.8320   62.3050   -3.1240 C   0  0  0  0  0  0  0  0  0  0  0  0
   24.9840   61.5470   -3.0690 C   0  0  0  0  0  0  0  0  0  0  0  0
   26.0040   61.7000   -3.9930 C   0  0  0  0  0  0  0  0  0  0  0  0
   25.8770   62.6430   -5.0120 C   0  0  0  0  0  0  0  0  0  0  0  0
   22.3040   64.2220   -4.2690 Cl  0  0  0  0  0  0  0  0  0  0  0  0
   16.7480   61.9120  -10.4190 C   0  0  0  0  0  0  0  0  0  0  0  0
   15.5750   61.2000  -10.5300 C   0  0  0  0  0  0  0  0  0  0  0  0
   15.8660   59.8850  -10.2860 N   0  0  0  0  0  0  0  0  0  0  0  0
   17.1200   59.8040  -10.0450 O   0  0  0  0  0  0  0  0  0  0  0  0
   17.7110   60.9730  -10.1070 C   0  0  0  0  0  0  0  0  0  0  0  0
   19.1590   61.1700   -9.8720 C   0  0  0  0  0  0  0  0  0  0  0  0
   14.2580   61.7740  -10.8620 C   0  0  0  0  0  0  0  0  0  0  0  0
   18.8180   66.0630  -10.6440 H   0  0  0  0  0  0  0  0  0  0  0  0
   18.5310   65.2990   -9.0530 H   0  0  0  0  0  0  0  0  0  0  0  0
   20.9970   66.2090  -10.0840 H   0  0  0  0  0  0  0  0  0  0  0  0
   20.7750   65.0150   -8.7400 H   0  0  0  0  0  0  0  0  0  0  0  0
   21.2960   64.4740  -12.6710 H   0  0  0  0  0  0  0  0  0  0  0  0
   21.0170   62.7980  -12.1360 H   0  0  0  0  0  0  0  0  0  0  0  0
   18.8410   63.2610  -12.7030 H   0  0  0  0  0  0  0  0  0  0  0  0
   19.0670   65.0250  -12.4920 H   0  0  0  0  0  0  0  0  0  0  0  0
   21.6890   61.8830   -8.6190 H   0  0  0  0  0  0  0  0  0  0  0  0
   23.5840   61.9650   -7.3330 H   0  0  0  0  0  0  0  0  0  0  0  0
   24.3500   62.9920   -8.6480 H   0  0  0  0  0  0  0  0  0  0  0  0
   20.5140   64.3450   -8.3760 H   0  0  0  0  0  0  0  0  0  0  0  0
   20.8700   63.2550   -6.9360 H   0  0  0  0  0  0  0  0  0  0  0  0
   24.4140   65.4230   -5.6790 H   0  0  0  0  0  0  0  0  0  0  0  0
   25.5110   64.4450   -6.7370 H   0  0  0  0  0  0  0  0  0  0  0  0
   23.0170   62.2140   -2.4220 H   0  0  0  0  0  0  0  0  0  0  0  0
   25.0890   60.8060   -2.2700 H   0  0  0  0  0  0  0  0  0  0  0  0
   26.8850   61.0870   -3.9110 H   0  0  0  0  0  0  0  0  0  0  0  0
   26.6720   62.7630   -5.7320 H   0  0  0  0  0  0  0  0  0  0  0  0
   19.3640   62.2610   -9.8620 H   0  0  0  0  0  0  0  0  0  0  0  0
   19.3610   60.7750   -8.8340 H   0  0  0  0  0  0  0  0  0  0  0  0
   19.7470   60.6090  -10.6000 H   0  0  0  0  0  0  0  0  0  0  0  0
   13.6550   60.9210  -11.2990 H   0  0  0  0  0  0  0  0  0  0  0  0
   13.6830   62.1200   -9.9980 H   0  0  0  0  0  0  0  0  0  0  0  0
   14.3410   62.5900  -11.6350 H   0  0  0  0  0  0  0  0  0  0  0  0
  1 26  1  0  0  0  0
  1  3  2  0  0  0  0
  2  1  2  0  0  0  0
  4  1  1  0  0  0  0
  4  5  1  0  0  0  0
  5  6  1  0  0  0  0
  5 34  1  0  0  0  0
  6 36  1  0  0  0  0
  7 10  1  0  0  0  0
  7  6  1  0  0  0  0
  8  7  1  0  0  0  0
  9  8  1  0  0  0  0
  9  4  1  0  0  0  0
 10 12  1  0  0  0  0
 11 10  2  0  0  0  0
 12 41  1  1  0  0  0
 12 13  1  0  0  0  0
 12 17  1  0  0  0  0
 13 42  1  0  0  0  0
 13 14  1  0  0  0  0
 14 18  1  0  0  0  0
 15 14  1  0  0  0  0
 15 16  2  0  0  0  0
 17 15  1  0  0  0  0
 17 45  1  0  0  0  0
 18 46  1  0  0  0  0
 18 19  1  0  0  0  0
 19 24  2  0  0  0  0
 19 20  1  0  0  0  0
 20 21  2  0  0  0  0
 21 22  1  0  0  0  0
 21 48  1  0  0  0  0
 22 49  1  0  0  0  0
 23 50  1  0  0  0  0
 23 22  2  0  0  0  0
 24 23  1  0  0  0  0
 25 20  1  0  0  0  0
 26 30  2  0  0  0  0
 27 26  1  0  0  0  0
 27 28  2  0  0  0  0
 28 29  1  0  0  0  0
 30 29  1  0  0  0  0
 30 31  1  0  0  0  0
 31 52  1  0  0  0  0
 31 53  1  0  0  0  0
 32 27  1  0  0  0  0
 32 56  1  0  0  0  0
 33  5  1  0  0  0  0
 35  6  1  0  0  0  0
 37  8  1  0  0  0  0
 38  8  1  0  0  0  0
 39  9  1  0  0  0  0
 40  9  1  0  0  0  0
 43 13  1  0  0  0  0
 44 17  1  0  0  0  0
 47 18  1  0  0  0  0
 51 24  1  0  0  0  0
 54 31  1  0  0  0  0
 55 32  1  0  0  0  0
 57 32  1  0  0  0  0
M  END
>  <Pose>
1

>  <Score>
-6.01

$$$$
