
 OpenBabel03202210193D

 58 61  0  0  0  0  0  0  0  0999 V2000
   13.2230   65.7990  -13.7430 Cl  0  0  0  0  0  0  0  0  0  0  0  0
   13.8160   64.3720  -12.9250 C   0  0  0  0  0  0  0  0  0  0  0  0
   14.8920   64.4180  -12.0430 C   0  0  0  0  0  0  0  0  0  0  0  0
   15.3570   63.2940  -11.4040 C   0  0  0  0  0  0  0  0  0  0  0  0
   14.7340   62.0920  -11.6470 C   0  0  0  0  0  0  0  0  0  0  0  0
   13.6510   62.0500  -12.5350 C   0  0  0  0  0  0  0  0  0  0  0  0
   13.1850   63.1750  -13.1770 C   0  0  0  0  0  0  0  0  0  0  0  0
   12.0970   63.1230  -14.0680 O   0  0  0  0  0  0  0  0  0  0  0  0
   11.9780   62.1130  -15.0390 C   0  0  0  0  0  0  0  0  0  0  0  0
   15.1670   61.0120  -11.0430 O   0  0  0  0  0  0  0  0  0  0  0  0
   16.1780   61.0220  -10.2090 C   0  0  0  0  0  0  0  0  0  0  0  0
   16.5700   59.9490   -9.6390 O   0  0  0  0  0  0  0  0  0  0  0  0
   16.8800   62.1830   -9.8910 C   0  0  0  0  0  0  0  0  0  0  0  0
   16.4370   63.3260  -10.5160 C   0  0  0  0  0  0  0  0  0  0  0  0
   17.0890   64.6070  -10.2610 C   0  0  0  0  0  0  0  0  0  0  0  0
   18.0130   62.1270   -8.9390 C   0  0  0  0  0  0  0  0  0  0  0  0
   19.3190   62.0830   -9.6520 C   0  0  0  0  0  0  0  0  0  0  0  0
   19.5340   61.0830  -10.4200 O   0  0  0  0  0  0  0  0  0  0  0  0
   20.3150   63.0380   -9.5460 N   0  0  0  0  0  0  0  0  0  0  0  0
   21.5870   62.9210  -10.1890 C   0  0  0  0  0  0  0  0  0  0  0  0
   22.6650   62.9430   -9.1030 C   0  0  0  0  0  0  0  0  0  0  0  0
   22.5190   64.1190   -8.3140 N   0  0  0  0  0  0  0  0  0  0  0  0
   21.3960   65.0150   -8.6630 C   0  0  0  0  0  0  0  0  0  0  0  0
   20.1060   64.2310   -8.7590 C   0  0  0  0  0  0  0  0  0  0  0  0
   23.3460   64.4920   -7.2330 C   0  0  0  0  0  0  0  0  0  0  0  0
   23.6360   65.7890   -7.2140 O   0  0  0  0  0  0  0  0  0  0  0  0
   23.9230   63.7340   -6.1640 C   0  0  0  0  0  0  0  0  0  0  0  0
   25.3330   63.6020   -6.0870 C   0  0  0  0  0  0  0  0  0  0  0  0
   25.9230   62.8820   -5.0840 C   0  0  0  0  0  0  0  0  0  0  0  0
   27.1780   62.7800   -5.0390 O   0  0  0  0  0  0  0  0  0  0  0  0
   25.2190   62.2640   -4.1260 N   0  0  0  0  0  0  0  0  0  0  0  0
   23.8930   62.3870   -4.1980 C   0  0  0  0  0  0  0  0  0  0  0  0
   23.1780   61.8180   -3.3100 O   0  0  0  0  0  0  0  0  0  0  0  0
   23.2670   63.1060   -5.1940 N   0  0  0  0  0  0  0  0  0  0  0  0
   25.8610   61.5060   -3.0770 C   0  0  0  0  0  0  0  0  0  0  0  0
   15.3920   65.3530  -11.8420 H   0  0  0  0  0  0  0  0  0  0  0  0
   13.1760   61.0970  -12.7140 H   0  0  0  0  0  0  0  0  0  0  0  0
   12.2690   61.1120  -14.6700 H   0  0  0  0  0  0  0  0  0  0  0  0
   10.9570   62.1550  -15.4550 H   0  0  0  0  0  0  0  0  0  0  0  0
   12.7400   62.3570  -15.8360 H   0  0  0  0  0  0  0  0  0  0  0  0
   17.4180   65.0010  -11.2690 H   0  0  0  0  0  0  0  0  0  0  0  0
   17.9800   64.5620   -9.6500 H   0  0  0  0  0  0  0  0  0  0  0  0
   16.3700   65.3750   -9.8990 H   0  0  0  0  0  0  0  0  0  0  0  0
   17.9120   61.4340   -8.1130 H   0  0  0  0  0  0  0  0  0  0  0  0
   18.0130   63.1530   -8.4490 H   0  0  0  0  0  0  0  0  0  0  0  0
   21.8120   63.7800  -10.8590 H   0  0  0  0  0  0  0  0  0  0  0  0
   21.6820   62.0170  -10.8220 H   0  0  0  0  0  0  0  0  0  0  0  0
   22.5210   62.0550   -8.4390 H   0  0  0  0  0  0  0  0  0  0  0  0
   23.6550   62.8300   -9.5980 H   0  0  0  0  0  0  0  0  0  0  0  0
   21.3790   65.8250   -7.9310 H   0  0  0  0  0  0  0  0  0  0  0  0
   21.6230   65.4060   -9.6640 H   0  0  0  0  0  0  0  0  0  0  0  0
   19.8220   63.9260   -7.7380 H   0  0  0  0  0  0  0  0  0  0  0  0
   19.2830   64.8200   -9.1900 H   0  0  0  0  0  0  0  0  0  0  0  0
   25.9030   64.1000   -6.8600 H   0  0  0  0  0  0  0  0  0  0  0  0
   22.2290   63.1440   -5.1570 H   0  0  0  0  0  0  0  0  0  0  0  0
   25.0810   60.9180   -2.5480 H   0  0  0  0  0  0  0  0  0  0  0  0
   26.2890   62.1920   -2.2920 H   0  0  0  0  0  0  0  0  0  0  0  0
   26.6550   60.8330   -3.4500 H   0  0  0  0  0  0  0  0  0  0  0  0
  1  2  1  0  0  0  0
  2  3  1  0  0  0  0
  3 36  1  0  0  0  0
  3  4  2  0  0  0  0
  4 14  1  0  0  0  0
  5  4  1  0  0  0  0
  5 10  1  0  0  0  0
  6  5  2  0  0  0  0
  7  2  2  0  0  0  0
  7  6  1  0  0  0  0
  8  7  1  0  0  0  0
  9 38  1  0  0  0  0
  9  8  1  0  0  0  0
 10 11  1  0  0  0  0
 11 13  1  0  0  0  0
 11 12  2  0  0  0  0
 13 16  1  0  0  0  0
 14 15  1  0  0  0  0
 14 13  2  0  0  0  0
 15 43  1  0  0  0  0
 15 42  1  0  0  0  0
 16 45  1  0  0  0  0
 16 44  1  0  0  0  0
 17 19  1  0  0  0  0
 17 16  1  0  0  0  0
 18 17  2  0  0  0  0
 19 24  1  0  0  0  0
 20 19  1  0  0  0  0
 20 21  1  0  0  0  0
 21 48  1  0  0  0  0
 21 22  1  0  0  0  0
 22 25  1  0  0  0  0
 23 22  1  0  0  0  0
 23 50  1  0  0  0  0
 24 23  1  0  0  0  0
 24 52  1  0  0  0  0
 25 26  2  0  0  0  0
 25 27  1  0  0  0  0
 27 28  2  0  0  0  0
 27 34  1  0  0  0  0
 28 29  1  0  0  0  0
 29 30  2  0  0  0  0
 29 31  1  0  0  0  0
 31 35  1  0  0  0  0
 32 31  1  0  0  0  0
 32 33  2  0  0  0  0
 34 55  1  0  0  0  0
 34 32  1  0  0  0  0
 35 56  1  0  0  0  0
 35 57  1  0  0  0  0
 37  6  1  0  0  0  0
 39  9  1  0  0  0  0
 40  9  1  0  0  0  0
 41 15  1  0  0  0  0
 46 20  1  0  0  0  0
 47 20  1  0  0  0  0
 49 21  1  0  0  0  0
 51 23  1  0  0  0  0
 53 24  1  0  0  0  0
 54 28  1  0  0  0  0
 58 35  1  0  0  0  0
M  END
>  <Pose>
1

>  <Score>
-7.96

$$$$
