
 OpenBabel03202210193D

 35 38  0  0  1  0  0  0  0  0999 V2000
   14.7640   61.5290  -11.2160 Cl  0  0  0  0  0  0  0  0  0  0  0  0
   16.1690   62.5030  -10.7970 C   0  0  0  0  0  0  0  0  0  0  0  0
   16.2110   63.8100  -11.2270 C   0  0  0  0  0  0  0  0  0  0  0  0
   17.2860   64.5440  -10.9020 N   0  0  0  0  0  0  0  0  0  0  0  0
   18.3200   64.0490  -10.1720 C   0  0  0  0  0  0  0  0  0  0  0  0
   18.2890   62.7750   -9.7460 N   0  0  0  0  0  0  0  0  0  0  0  0
   19.4010   62.5270   -9.0610 N   0  0  0  0  0  0  0  0  0  0  0  0
   20.1790   63.6280   -9.0230 C   0  0  0  0  0  0  0  0  0  0  0  0
   19.4810   64.5580   -9.7220 N   0  0  0  0  0  0  0  0  0  0  0  0
   21.4480   63.7830   -8.3940 N   0  0  0  0  0  0  0  0  0  0  0  0
   22.0430   65.0140   -8.0100 C   0  0  0  0  0  0  0  0  0  0  0  0
   21.4830   66.1260   -7.8260 O   0  0  0  0  0  0  0  0  0  0  0  0
   23.5220   64.8130   -7.8370 C   0  0  2  0  0  0  0  0  0  0  0  0
   23.7280   63.3400   -7.8390 C   0  0  1  0  0  0  0  0  0  0  0  0
   24.2530   62.7780   -6.5300 C   0  0  0  0  0  0  0  0  0  0  0  0
   23.3800   63.3360   -5.4480 C   0  0  0  0  0  0  0  0  0  0  0  0
   23.2390   64.6490   -5.4580 C   0  0  0  0  0  0  0  0  0  0  0  0
   23.9450   65.4140   -6.5140 C   0  0  0  0  0  0  0  0  0  0  0  0
   22.3770   62.7770   -8.0200 C   0  0  0  0  0  0  0  0  0  0  0  0
   22.0670   61.5510   -7.8670 O   0  0  0  0  0  0  0  0  0  0  0  0
   17.2180   62.0050  -10.0570 C   0  0  0  0  0  0  0  0  0  0  0  0
   17.1870   60.7990   -9.6540 O   0  0  0  0  0  0  0  0  0  0  0  0
   15.0770   64.3730  -12.0350 C   0  0  0  0  0  0  0  0  0  0  0  0
   17.3250   65.5390  -11.2270 H   0  0  0  0  0  0  0  0  0  0  0  0
   24.0510   65.3310   -8.6680 H   0  0  0  0  0  0  0  0  0  0  0  0
   24.4060   63.0870   -8.6830 H   0  0  0  0  0  0  0  0  0  0  0  0
   24.1540   61.6780   -6.5480 H   0  0  0  0  0  0  0  0  0  0  0  0
   25.2930   63.1150   -6.3810 H   0  0  0  0  0  0  0  0  0  0  0  0
   22.9170   62.6730   -4.7320 H   0  0  0  0  0  0  0  0  0  0  0  0
   22.6350   65.1470   -4.7270 H   0  0  0  0  0  0  0  0  0  0  0  0
   23.6630   66.4910   -6.4570 H   0  0  0  0  0  0  0  0  0  0  0  0
   25.0480   65.2910   -6.4040 H   0  0  0  0  0  0  0  0  0  0  0  0
   14.9490   63.8250  -12.9770 H   0  0  0  0  0  0  0  0  0  0  0  0
   14.1300   64.3470  -11.4370 H   0  0  0  0  0  0  0  0  0  0  0  0
   15.2700   65.4330  -12.2990 H   0  0  0  0  0  0  0  0  0  0  0  0
  1  2  1  0  0  0  0
  2 21  1  0  0  0  0
  3  4  1  0  0  0  0
  3  2  2  0  0  0  0
  4  5  1  0  0  0  0
  5  6  1  0  0  0  0
  5  9  2  0  0  0  0
  6  7  1  0  0  0  0
  7  8  2  0  0  0  0
  8 10  1  0  0  0  0
  9  8  1  0  0  0  0
 10 19  1  0  0  0  0
 10 11  1  0  0  0  0
 11 13  1  0  0  0  0
 11 12  2  0  0  0  0
 13 25  1  6  0  0  0
 13 18  1  0  0  0  0
 14 26  1  6  0  0  0
 14 13  1  0  0  0  0
 14 15  1  0  0  0  0
 15 28  1  0  0  0  0
 15 16  1  0  0  0  0
 16 29  1  0  0  0  0
 17 16  2  0  0  0  0
 17 30  1  0  0  0  0
 18 31  1  0  0  0  0
 18 32  1  0  0  0  0
 18 17  1  0  0  0  0
 19 20  2  0  0  0  0
 19 14  1  0  0  0  0
 21  6  1  0  0  0  0
 21 22  2  0  0  0  0
 23 34  1  0  0  0  0
 23  3  1  0  0  0  0
 24  4  1  0  0  0  0
 27 15  1  0  0  0  0
 33 23  1  0  0  0  0
 35 23  1  0  0  0  0
M  END
>  <Pose>
1

>  <Score>
-5.58

$$$$
