
 OpenBabel03202210193D

 51 54  0  0  1  0  0  0  0  0999 V2000
   27.5470   60.9310   -4.3500 Cl  0  0  0  0  0  0  0  0  0  0  0  0
   26.1130   61.9290   -4.2290 C   0  0  0  0  0  0  0  0  0  0  0  0
   25.7950   62.8600   -5.1910 C   0  0  0  0  0  0  0  0  0  0  0  0
   24.6380   63.6620   -5.0810 C   0  0  0  0  0  0  0  0  0  0  0  0
   23.8680   63.4520   -3.9740 C   0  0  0  0  0  0  0  0  0  0  0  0
   24.1900   62.4990   -2.9870 C   0  0  0  0  0  0  0  0  0  0  0  0
   25.3220   61.7360   -3.1210 C   0  0  0  0  0  0  0  0  0  0  0  0
   24.3720   64.5910   -6.1060 N   0  0  0  0  0  0  0  0  0  0  0  0
   23.6070   64.3640   -7.2390 C   0  0  0  0  0  0  0  0  0  0  0  0
   23.0870   65.2680   -7.9010 O   0  0  0  0  0  0  0  0  0  0  0  0
   23.3430   62.9630   -7.7530 C   0  0  0  0  0  0  0  0  0  0  0  0
   22.3020   63.0400   -8.7880 N   0  0  0  0  0  0  0  0  0  0  0  0
   22.5390   63.2450  -10.1180 C   0  0  1  0  0  0  0  0  0  0  0  0
   21.3690   63.2380  -10.7800 N   0  0  0  0  0  0  0  0  0  0  0  0
   20.3550   63.0360   -9.9300 C   0  0  0  0  0  0  0  0  0  0  0  0
   20.9780   62.9150   -8.6790 C   0  0  0  0  0  0  0  0  0  0  0  0
   18.9170   62.9350  -10.1260 C   0  0  0  0  0  0  0  0  0  0  0  0
   18.2570   61.7380  -10.1560 C   0  0  0  0  0  0  0  0  0  0  0  0
   16.8890   61.6280  -10.3210 C   0  0  0  0  0  0  0  0  0  0  0  0
   16.1000   62.7580  -10.4710 C   0  0  0  0  0  0  0  0  0  0  0  0
   16.7610   63.9620  -10.4390 C   0  0  0  0  0  0  0  0  0  0  0  0
   18.1280   64.0720  -10.2740 C   0  0  0  0  0  0  0  0  0  0  0  0
   14.7280   62.6860  -10.6390 O   0  0  0  0  0  0  0  0  0  0  0  0
   14.1170   61.8890  -11.6370 C   0  0  0  0  0  0  0  0  0  0  0  0
   21.6360   63.4480  -12.2030 C   0  0  0  0  0  0  0  0  0  0  0  0
   23.1190   63.1790  -12.3730 C   0  0  0  0  0  0  0  0  0  0  0  0
   23.6840   63.4860  -11.0320 C   0  0  0  0  0  0  0  0  0  0  0  0
   26.6810   63.0170   -6.3580 C   0  0  0  0  0  0  0  0  0  0  0  0
   22.9700   64.0250   -3.8180 H   0  0  0  0  0  0  0  0  0  0  0  0
   23.5660   62.3470   -2.1170 H   0  0  0  0  0  0  0  0  0  0  0  0
   25.5750   60.9890   -2.3540 H   0  0  0  0  0  0  0  0  0  0  0  0
   24.7990   65.5620   -6.0110 H   0  0  0  0  0  0  0  0  0  0  0  0
   24.2730   62.6350   -8.2410 H   0  0  0  0  0  0  0  0  0  0  0  0
   22.9800   62.3090   -6.9540 H   0  0  0  0  0  0  0  0  0  0  0  0
   20.4590   62.7480   -7.7330 H   0  0  0  0  0  0  0  0  0  0  0  0
   18.8840   60.8370  -10.0440 H   0  0  0  0  0  0  0  0  0  0  0  0
   16.4330   60.6390  -10.3370 H   0  0  0  0  0  0  0  0  0  0  0  0
   16.1490   64.8630  -10.5560 H   0  0  0  0  0  0  0  0  0  0  0  0
   18.6270   65.0420  -10.2590 H   0  0  0  0  0  0  0  0  0  0  0  0
   14.1540   62.3900  -12.6330 H   0  0  0  0  0  0  0  0  0  0  0  0
   14.5460   60.8800  -11.7230 H   0  0  0  0  0  0  0  0  0  0  0  0
   13.0480   61.7680  -11.3690 H   0  0  0  0  0  0  0  0  0  0  0  0
   21.3280   64.4340  -12.5530 H   0  0  0  0  0  0  0  0  0  0  0  0
   21.1430   62.6760  -12.8370 H   0  0  0  0  0  0  0  0  0  0  0  0
   23.5460   63.7530  -13.2050 H   0  0  0  0  0  0  0  0  0  0  0  0
   23.2730   62.0680  -12.5280 H   0  0  0  0  0  0  0  0  0  0  0  0
   24.5490   62.8470  -10.7530 H   0  0  0  0  0  0  0  0  0  0  0  0
   23.9750   64.5730  -10.9870 H   0  0  0  0  0  0  0  0  0  0  0  0
   27.5680   62.3690   -6.2380 H   0  0  0  0  0  0  0  0  0  0  0  0
   26.1730   62.6560   -7.3000 H   0  0  0  0  0  0  0  0  0  0  0  0
   27.0000   64.0560   -6.5520 H   0  0  0  0  0  0  0  0  0  0  0  0
  1  2  1  0  0  0  0
  2  7  1  0  0  0  0
  3  4  1  0  0  0  0
  3  2  2  0  0  0  0
  4  5  2  0  0  0  0
  5 29  1  0  0  0  0
  5  6  1  0  0  0  0
  6 30  1  0  0  0  0
  7  6  2  0  0  0  0
  7 31  1  0  0  0  0
  8 32  1  0  0  0  0
  8  4  1  0  0  0  0
  9  8  1  0  0  0  0
 10  9  2  0  0  0  0
 11  9  1  0  0  0  0
 11 34  1  0  0  0  0
 12 16  1  0  0  0  0
 12 11  1  0  0  0  0
 13 27  1  1  0  0  0
 13 12  1  0  0  0  0
 14 13  1  0  0  0  0
 14 15  1  0  0  0  0
 15 16  2  0  0  0  0
 16 35  1  0  0  0  0
 17 15  1  0  0  0  0
 18 17  1  0  0  0  0
 18 36  1  0  0  0  0
 19 18  2  0  0  0  0
 20 21  2  0  0  0  0
 20 19  1  0  0  0  0
 21 22  1  0  0  0  0
 22 39  1  0  0  0  0
 22 17  2  0  0  0  0
 23 20  1  0  0  0  0
 24 42  1  0  0  0  0
 24 23  1  0  0  0  0
 25 14  1  0  0  0  0
 26 25  1  0  0  0  0
 26 27  1  0  0  0  0
 27 48  1  0  0  0  0
 27 47  1  0  0  0  0
 28 49  1  0  0  0  0
 28  3  1  0  0  0  0
 33 11  1  0  0  0  0
 37 19  1  0  0  0  0
 38 21  1  0  0  0  0
 40 24  1  0  0  0  0
 41 24  1  0  0  0  0
 43 25  1  0  0  0  0
 44 25  1  0  0  0  0
 45 26  1  0  0  0  0
 46 26  1  0  0  0  0
 50 28  1  0  0  0  0
 51 28  1  0  0  0  0
M  END
>  <Pose>
1

>  <Score>
-7.29

$$$$
