
 OpenBabel03202210193D

 49 52  0  0  1  0  0  0  0  0999 V2000
   26.1850   61.2450   -1.8040 Cl  0  0  0  0  0  0  0  0  0  0  0  0
   25.4900   62.0960   -3.1670 C   0  0  0  0  0  0  0  0  0  0  0  0
   26.2480   62.4160   -4.2840 C   0  0  0  0  0  0  0  0  0  0  0  0
   25.6790   63.0830   -5.3370 C   0  0  0  0  0  0  0  0  0  0  0  0
   24.3310   63.4720   -5.3480 C   0  0  0  0  0  0  0  0  0  0  0  0
   23.6050   63.1470   -4.2370 C   0  0  0  0  0  0  0  0  0  0  0  0
   24.1680   62.4700   -3.1620 C   0  0  0  0  0  0  0  0  0  0  0  0
   23.8000   64.1660   -6.4550 N   0  0  0  0  0  0  0  0  0  0  0  0
   22.5890   64.8590   -6.5430 C   0  0  0  0  0  0  0  0  0  0  0  0
   21.8630   64.9850   -5.5240 O   0  0  0  0  0  0  0  0  0  0  0  0
   22.1090   65.4680   -7.8400 C   0  0  0  0  0  0  0  0  0  0  0  0
   21.7000   64.3610   -8.6860 N   0  0  0  0  0  0  0  0  0  0  0  0
   22.3540   64.4480  -10.0080 C   0  0  0  0  0  0  0  0  0  0  0  0
   21.3820   63.6520  -10.9040 C   0  0  0  0  0  0  0  0  0  0  0  0
   20.9210   62.5750  -10.0150 N   0  0  0  0  0  0  0  0  0  0  0  0
   21.9260   62.0280   -9.1600 C   0  0  0  0  0  0  0  0  0  0  0  0
   22.2070   63.1000   -8.0940 C   0  0  0  0  0  0  0  0  0  0  0  0
   19.5720   62.1940  -10.0610 C   0  0  2  0  0  0  0  0  0  0  0  0
   19.2250   60.8720   -9.9890 N   0  0  0  0  0  0  0  0  0  0  0  0
   17.9690   60.4310  -10.0390 C   0  0  0  0  0  0  0  0  0  0  0  0
   16.9680   61.3080  -10.1680 N   0  0  0  0  0  0  0  0  0  0  0  0
   17.1790   62.6180  -10.2470 C   0  0  0  0  0  0  0  0  0  0  0  0
   16.3750   63.6920  -10.3810 N   0  0  0  0  0  0  0  0  0  0  0  0
   17.1560   64.7420  -10.4070 N   0  0  0  0  0  0  0  0  0  0  0  0
   18.4250   64.3810  -10.2950 N   0  0  0  0  0  0  0  0  0  0  0  0
   18.5020   63.0670  -10.1940 C   0  0  0  0  0  0  0  0  0  0  0  0
   14.9280   63.7320  -10.4840 C   0  0  0  0  0  0  0  0  0  0  0  0
   14.4860   64.2750  -11.8250 C   0  0  0  0  0  0  0  0  0  0  0  0
   27.2850   62.1160   -4.2780 H   0  0  0  0  0  0  0  0  0  0  0  0
   26.2850   63.3230   -6.1960 H   0  0  0  0  0  0  0  0  0  0  0  0
   22.5660   63.4010   -4.1290 H   0  0  0  0  0  0  0  0  0  0  0  0
   23.5360   62.2380   -2.3020 H   0  0  0  0  0  0  0  0  0  0  0  0
   24.3880   64.1350   -7.3460 H   0  0  0  0  0  0  0  0  0  0  0  0
   21.3120   66.1720   -7.5960 H   0  0  0  0  0  0  0  0  0  0  0  0
   22.9950   66.0080   -8.2330 H   0  0  0  0  0  0  0  0  0  0  0  0
   23.3090   63.9090  -10.0410 H   0  0  0  0  0  0  0  0  0  0  0  0
   22.4920   65.4710  -10.3290 H   0  0  0  0  0  0  0  0  0  0  0  0
   20.5780   64.3670  -11.1480 H   0  0  0  0  0  0  0  0  0  0  0  0
   21.8770   63.2650  -11.7900 H   0  0  0  0  0  0  0  0  0  0  0  0
   22.8710   61.8300   -9.7310 H   0  0  0  0  0  0  0  0  0  0  0  0
   21.6160   61.1320   -8.6150 H   0  0  0  0  0  0  0  0  0  0  0  0
   21.7220   62.8550   -7.1610 H   0  0  0  0  0  0  0  0  0  0  0  0
   23.3060   63.1470   -7.9310 H   0  0  0  0  0  0  0  0  0  0  0  0
   17.7780   59.3490   -9.9740 H   0  0  0  0  0  0  0  0  0  0  0  0
   14.5430   62.7000  -10.3520 H   0  0  0  0  0  0  0  0  0  0  0  0
   14.4530   64.3540   -9.7010 H   0  0  0  0  0  0  0  0  0  0  0  0
   14.4230   63.4080  -12.5190 H   0  0  0  0  0  0  0  0  0  0  0  0
   13.5060   64.7660  -11.6740 H   0  0  0  0  0  0  0  0  0  0  0  0
   15.1960   65.0550  -12.1950 H   0  0  0  0  0  0  0  0  0  0  0  0
  2  7  1  0  0  0  0
  2  1  1  0  0  0  0
  3 29  1  0  0  0  0
  3  2  2  0  0  0  0
  4  3  1  0  0  0  0
  5  4  2  0  0  0  0
  5  6  1  0  0  0  0
  6 31  1  0  0  0  0
  6  7  2  0  0  0  0
  7 32  1  0  0  0  0
  8  5  1  0  0  0  0
  9  8  1  0  0  0  0
  9 10  2  0  0  0  0
 11 34  1  0  0  0  0
 11  9  1  0  0  0  0
 12 17  1  0  0  0  0
 12 11  1  0  0  0  0
 13 12  1  0  0  0  0
 14 15  1  0  0  0  0
 14 13  1  0  0  0  0
 15 16  1  0  0  0  0
 16 41  1  0  0  0  0
 16 17  1  0  0  0  0
 17 43  1  0  0  0  0
 17 42  1  0  0  0  0
 18 15  1  6  0  0  0
 18 19  1  0  0  0  0
 20 19  2  0  0  0  0
 20 44  1  0  0  0  0
 21 20  1  0  0  0  0
 22 26  2  0  0  0  0
 22 21  1  0  0  0  0
 23 22  1  0  0  0  0
 24 23  1  0  0  0  0
 24 25  2  0  0  0  0
 25 26  1  0  0  0  0
 26 18  1  0  0  0  0
 27 23  1  0  0  0  0
 27 45  1  0  0  0  0
 27 46  1  0  0  0  0
 28 48  1  0  0  0  0
 28 27  1  0  0  0  0
 30  4  1  0  0  0  0
 33  8  1  0  0  0  0
 35 11  1  0  0  0  0
 36 13  1  0  0  0  0
 37 13  1  0  0  0  0
 38 14  1  0  0  0  0
 39 14  1  0  0  0  0
 40 16  1  0  0  0  0
 47 28  1  0  0  0  0
 49 28  1  0  0  0  0
M  END
>  <Pose>
1

>  <Score>
-7.13

$$$$
