
 OpenBabel03202210193D

 49 52  0  0  1  0  0  0  0  0999 V2000
   27.5670   61.5660   -5.2120 Cl  0  0  0  0  0  0  0  0  0  0  0  0
   26.0090   62.0490   -4.5770 C   0  0  0  0  0  0  0  0  0  0  0  0
   25.4710   61.4020   -3.4910 C   0  0  0  0  0  0  0  0  0  0  0  0
   24.2450   61.8420   -3.0570 C   0  0  0  0  0  0  0  0  0  0  0  0
   23.5490   62.8910   -3.6620 C   0  0  0  0  0  0  0  0  0  0  0  0
   24.0760   63.5430   -4.7460 C   0  0  0  0  0  0  0  0  0  0  0  0
   25.3330   63.0810   -5.1790 C   0  0  0  0  0  0  0  0  0  0  0  0
   23.4770   64.6220   -5.4310 N   0  0  0  0  0  0  0  0  0  0  0  0
   23.4440   64.7310   -6.8310 C   0  0  0  0  0  0  0  0  0  0  0  0
   23.5990   65.8100   -7.4240 O   0  0  0  0  0  0  0  0  0  0  0  0
   23.2160   63.5260   -7.7000 C   0  0  0  0  0  0  0  0  0  0  0  0
   22.1390   63.7120   -8.6200 N   0  0  0  0  0  0  0  0  0  0  0  0
   22.3060   63.9830   -9.9330 C   0  0  0  0  0  0  0  0  0  0  0  0
   21.2360   64.1440  -10.7390 N   0  0  0  0  0  0  0  0  0  0  0  0
   19.9750   64.0500  -10.3010 C   0  0  0  0  0  0  0  0  0  0  0  0
   18.9040   64.2100  -11.0950 N   0  0  0  0  0  0  0  0  0  0  0  0
   17.6280   64.1200  -10.6810 C   0  0  0  0  0  0  0  0  0  0  0  0
   17.4390   63.8480   -9.3610 N   0  0  0  0  0  0  0  0  0  0  0  0
   18.4820   63.6810   -8.5320 C   0  0  0  0  0  0  0  0  0  0  0  0
   19.7860   63.7760   -8.9680 C   0  0  1  0  0  0  0  0  0  0  0  0
   20.8710   63.6080   -8.1320 C   0  0  0  0  0  0  0  0  0  0  0  0
   20.6340   63.3590   -6.9240 O   0  0  0  0  0  0  0  0  0  0  0  0
   16.5260   64.2940  -11.5510 N   0  0  0  0  0  0  0  0  0  0  0  0
   16.6600   63.8710  -12.9260 C   0  0  0  0  0  0  0  0  0  0  0  0
   15.3510   63.2230  -13.3710 C   0  0  0  0  0  0  0  0  0  0  0  0
   14.2490   64.0110  -13.0500 O   0  0  0  0  0  0  0  0  0  0  0  0
   14.1380   63.9940  -11.6590 C   0  0  0  0  0  0  0  0  0  0  0  0
   15.2720   64.8740  -11.1320 C   0  0  0  0  0  0  0  0  0  0  0  0
   26.1400   60.3460   -2.8580 O   0  0  0  0  0  0  0  0  0  0  0  0
   26.2540   59.0990   -3.5050 C   0  0  0  0  0  0  0  0  0  0  0  0
   23.7970   61.3390   -2.1900 H   0  0  0  0  0  0  0  0  0  0  0  0
   22.6040   63.1540   -3.2610 H   0  0  0  0  0  0  0  0  0  0  0  0
   25.7470   63.6080   -6.0460 H   0  0  0  0  0  0  0  0  0  0  0  0
   23.0240   65.4050   -4.8500 H   0  0  0  0  0  0  0  0  0  0  0  0
   24.1160   63.2530   -8.2640 H   0  0  0  0  0  0  0  0  0  0  0  0
   22.9620   62.6780   -7.0350 H   0  0  0  0  0  0  0  0  0  0  0  0
   23.3250   64.0580  -10.2850 H   0  0  0  0  0  0  0  0  0  0  0  0
   18.3460   63.4620   -7.4670 H   0  0  0  0  0  0  0  0  0  0  0  0
   16.8710   64.7260  -13.6050 H   0  0  0  0  0  0  0  0  0  0  0  0
   17.4360   63.0850  -12.9690 H   0  0  0  0  0  0  0  0  0  0  0  0
   15.3720   63.1300  -14.4750 H   0  0  0  0  0  0  0  0  0  0  0  0
   15.2210   62.2480  -12.8570 H   0  0  0  0  0  0  0  0  0  0  0  0
   14.2920   62.9630  -11.3090 H   0  0  0  0  0  0  0  0  0  0  0  0
   13.1770   64.3610  -11.2920 H   0  0  0  0  0  0  0  0  0  0  0  0
   15.1400   65.9130  -11.4970 H   0  0  0  0  0  0  0  0  0  0  0  0
   15.2290   64.8050  -10.0240 H   0  0  0  0  0  0  0  0  0  0  0  0
   26.6450   59.2880   -4.5300 H   0  0  0  0  0  0  0  0  0  0  0  0
   25.2920   58.5810   -3.6130 H   0  0  0  0  0  0  0  0  0  0  0  0
   27.0270   58.4850   -2.9990 H   0  0  0  0  0  0  0  0  0  0  0  0
  1  2  1  0  0  0  0
  2  3  1  0  0  0  0
  3  4  2  0  0  0  0
  3 29  1  0  0  0  0
  4 31  1  0  0  0  0
  5 32  1  0  0  0  0
  5  4  1  0  0  0  0
  6  5  2  0  0  0  0
  7  6  1  0  0  0  0
  7  2  2  0  0  0  0
  8 34  1  0  0  0  0
  8  6  1  0  0  0  0
  9  8  1  0  0  0  0
 10  9  2  0  0  0  0
 11 36  1  0  0  0  0
 11  9  1  0  0  0  0
 12 21  1  0  0  0  0
 12 11  1  0  0  0  0
 13 12  1  0  0  0  0
 14 15  2  0  0  0  0
 14 13  1  0  0  0  0
 16 17  2  0  0  0  0
 16 15  1  0  0  0  0
 17 18  1  0  0  0  0
 18 19  2  0  0  0  0
 19 38  1  0  0  0  0
 20 15  1  6  0  0  0
 20 19  1  0  0  0  0
 20 21  1  0  0  0  0
 21 22  2  0  0  0  0
 23 28  1  0  0  0  0
 23 17  1  0  0  0  0
 24 23  1  0  0  0  0
 25 26  1  0  0  0  0
 25 24  1  0  0  0  0
 25 42  1  0  0  0  0
 26 27  1  0  0  0  0
 27 43  1  0  0  0  0
 27 44  1  0  0  0  0
 27 28  1  0  0  0  0
 28 46  1  0  0  0  0
 30 49  1  0  0  0  0
 30 29  1  0  0  0  0
 33  7  1  0  0  0  0
 35 11  1  0  0  0  0
 37 13  1  0  0  0  0
 39 24  1  0  0  0  0
 40 24  1  0  0  0  0
 41 25  1  0  0  0  0
 45 28  1  0  0  0  0
 47 30  1  0  0  0  0
 48 30  1  0  0  0  0
M  END
>  <Pose>
1

>  <Score>
-6.30

$$$$
