
 OpenBabel03202210193D

 38 41  0  0  0  0  0  0  0  0999 V2000
   27.3650   61.9950   -5.1700 Cl  0  0  0  0  0  0  0  0  0  0  0  0
   25.7550   62.5040   -4.6810 C   0  0  0  0  0  0  0  0  0  0  0  0
   24.9010   63.0930   -5.5900 C   0  0  0  0  0  0  0  0  0  0  0  0
   23.6490   63.4890   -5.2110 C   0  0  0  0  0  0  0  0  0  0  0  0
   23.2660   63.2850   -3.9050 C   0  0  0  0  0  0  0  0  0  0  0  0
   24.1030   62.7000   -2.9810 C   0  0  0  0  0  0  0  0  0  0  0  0
   25.3650   62.3030   -3.3740 C   0  0  0  0  0  0  0  0  0  0  0  0
   22.6750   64.1280   -6.1280 C   0  0  0  0  0  0  0  0  0  0  0  0
   23.2290   64.0520   -7.4580 N   0  0  0  0  0  0  0  0  0  0  0  0
   24.6190   64.4150   -7.6050 C   0  0  0  0  0  0  0  0  0  0  0  0
   25.4180   63.2660   -6.9780 C   0  0  0  0  0  0  0  0  0  0  0  0
   22.4720   63.6450   -8.5820 C   0  0  0  0  0  0  0  0  0  0  0  0
   23.0430   63.4880   -9.6930 O   0  0  0  0  0  0  0  0  0  0  0  0
   21.0140   63.3880   -8.5300 C   0  0  0  0  0  0  0  0  0  0  0  0
   20.5170   62.9210   -9.7460 O   0  0  0  0  0  0  0  0  0  0  0  0
   19.2550   62.3660   -9.9110 C   0  0  0  0  0  0  0  0  0  0  0  0
   19.0800   61.0510   -9.6800 N   0  0  0  0  0  0  0  0  0  0  0  0
   17.8970   60.4590   -9.8200 N   0  0  0  0  0  0  0  0  0  0  0  0
   16.8010   61.1300  -10.2000 C   0  0  0  0  0  0  0  0  0  0  0  0
   15.7590   60.2780  -10.2560 N   0  0  0  0  0  0  0  0  0  0  0  0
   16.2160   59.0980   -9.9130 N   0  0  0  0  0  0  0  0  0  0  0  0
   17.5280   59.1780   -9.6390 C   0  0  0  0  0  0  0  0  0  0  0  0
   16.9440   62.4910  -10.4480 C   0  0  0  0  0  0  0  0  0  0  0  0
   18.1650   63.1030  -10.3030 C   0  0  0  0  0  0  0  0  0  0  0  0
   22.2820   63.5810   -3.5490 H   0  0  0  0  0  0  0  0  0  0  0  0
   23.7750   62.5470   -1.9430 H   0  0  0  0  0  0  0  0  0  0  0  0
   26.0640   61.8380   -2.6940 H   0  0  0  0  0  0  0  0  0  0  0  0
   22.5130   65.2020   -5.9060 H   0  0  0  0  0  0  0  0  0  0  0  0
   21.6850   63.6300   -6.1150 H   0  0  0  0  0  0  0  0  0  0  0  0
   24.9220   64.5700   -8.6560 H   0  0  0  0  0  0  0  0  0  0  0  0
   24.8700   65.3280   -7.0300 H   0  0  0  0  0  0  0  0  0  0  0  0
   26.4880   63.4750   -6.9420 H   0  0  0  0  0  0  0  0  0  0  0  0
   25.2120   62.3280   -7.5190 H   0  0  0  0  0  0  0  0  0  0  0  0
   20.4250   64.2810   -8.2390 H   0  0  0  0  0  0  0  0  0  0  0  0
   20.8360   62.6250   -7.7330 H   0  0  0  0  0  0  0  0  0  0  0  0
   18.2080   58.3760   -9.3250 H   0  0  0  0  0  0  0  0  0  0  0  0
   16.0770   63.0270  -10.7500 H   0  0  0  0  0  0  0  0  0  0  0  0
   18.3150   64.1580  -10.4870 H   0  0  0  0  0  0  0  0  0  0  0  0
  1  2  1  0  0  0  0
  2  7  1  0  0  0  0
  3  4  1  0  0  0  0
  3  2  2  0  0  0  0
  4  5  2  0  0  0  0
  5 25  1  0  0  0  0
  5  6  1  0  0  0  0
  6 26  1  0  0  0  0
  7  6  2  0  0  0  0
  7 27  1  0  0  0  0
  8 29  1  0  0  0  0
  8 28  1  0  0  0  0
  8  4  1  0  0  0  0
  9  8  1  0  0  0  0
 10  9  1  0  0  0  0
 10 31  1  0  0  0  0
 10 11  1  0  0  0  0
 11 32  1  0  0  0  0
 11  3  1  0  0  0  0
 12 14  1  0  0  0  0
 12  9  1  0  0  0  0
 13 12  2  0  0  0  0
 14 34  1  0  0  0  0
 14 35  1  0  0  0  0
 15 14  1  0  0  0  0
 16 15  1  0  0  0  0
 16 17  2  0  0  0  0
 18 17  1  0  0  0  0
 18 22  1  0  0  0  0
 19 18  1  0  0  0  0
 20 19  2  0  0  0  0
 20 21  1  0  0  0  0
 21 22  2  0  0  0  0
 22 36  1  0  0  0  0
 23 24  2  0  0  0  0
 23 19  1  0  0  0  0
 24 16  1  0  0  0  0
 30 10  1  0  0  0  0
 33 11  1  0  0  0  0
 37 23  1  0  0  0  0
 38 24  1  0  0  0  0
M  END
>  <Pose>
1

>  <Score>
-7.23

$$$$
