
 OpenBabel03202210193D

 51 54  0  0  0  0  0  0  0  0999 V2000
   15.6040   65.0750  -10.4330 B   0  0  0  0  0  0  0  0  0  0  0  0
   16.7920   63.5890  -10.2890 C   0  0  0  0  0  0  0  0  0  0  0  0
   18.1200   63.7880  -10.0550 C   0  0  0  0  0  0  0  0  0  0  0  0
   18.9900   62.6920   -9.9490 C   0  0  0  0  0  0  0  0  0  0  0  0
   18.4760   61.4310  -10.0860 C   0  0  0  0  0  0  0  0  0  0  0  0
   17.1070   61.2330  -10.3270 C   0  0  0  0  0  0  0  0  0  0  0  0
   16.2760   62.3200  -10.4270 C   0  0  0  0  0  0  0  0  0  0  0  0
   19.2850   60.3160   -9.9910 O   0  0  0  0  0  0  0  0  0  0  0  0
   20.4040   62.9240   -9.7000 C   0  0  0  0  0  0  0  0  0  0  0  0
   21.0710   62.0880   -8.9340 N   0  0  0  0  0  0  0  0  0  0  0  0
   22.4250   62.3470   -8.7200 N   0  0  0  0  0  0  0  0  0  0  0  0
   22.8550   63.1930   -7.6640 C   0  0  0  0  0  0  0  0  0  0  0  0
   23.7760   62.7980   -6.7720 N   0  0  0  0  0  4  0  0  0  0  0  0
   24.2190   63.5710   -5.7460 C   0  0  0  0  0  0  0  0  0  0  0  0
   23.6570   64.8060   -5.6740 N   0  0  0  0  0  0  0  0  0  0  0  0
   22.7330   65.2580   -6.5360 C   0  0  0  0  0  0  0  0  0  0  0  0
   22.3520   64.4420   -7.5110 N   0  0  0  0  0  0  0  0  0  0  0  0
   22.1900   66.5560   -6.4010 N   0  0  0  0  0  0  0  0  0  0  0  0
   23.0050   67.7450   -6.2510 C   0  0  0  0  0  0  0  0  0  0  0  0
   22.2860   68.9360   -6.8480 C   0  0  0  0  0  0  0  0  0  0  0  0
   21.0430   69.1530   -6.3180 O   0  0  0  0  0  0  0  0  0  0  0  0
   20.5430   68.0730   -5.6010 C   0  0  0  0  0  0  0  0  0  0  0  0
   20.7420   66.7900   -6.4030 C   0  0  0  0  0  0  0  0  0  0  0  0
   25.1870   63.1240   -4.8260 N   0  0  0  0  0  0  0  0  0  0  0  0
   24.8030   62.7000   -3.5130 C   0  0  0  0  0  0  0  0  0  0  0  0
   25.3810   61.3090   -3.3060 C   0  0  0  0  0  0  0  0  0  0  0  0
   26.7710   61.4190   -3.4630 O   0  0  0  0  0  0  0  0  0  0  0  0
   27.0850   61.6900   -4.7950 C   0  0  0  0  0  0  0  0  0  0  0  0
   26.5740   63.0840   -5.1780 C   0  0  0  0  0  0  0  0  0  0  0  0
   18.5520   64.7780   -9.9430 H   0  0  0  0  0  0  0  0  0  0  0  0
   16.7340   60.2240  -10.4300 H   0  0  0  0  0  0  0  0  0  0  0  0
   15.2050   62.1980  -10.6140 H   0  0  0  0  0  0  0  0  0  0  0  0
   20.2340   60.3260   -9.6770 H   0  0  0  0  0  0  0  0  0  0  0  0
   20.9250   63.7620  -10.1240 H   0  0  0  0  0  0  0  0  0  0  0  0
   23.1080   61.8980   -9.3620 H   0  0  0  0  0  0  0  0  0  0  0  0
   23.9580   67.6150   -6.7960 H   0  0  0  0  0  0  0  0  0  0  0  0
   23.1380   67.9370   -5.1750 H   0  0  0  0  0  0  0  0  0  0  0  0
   22.2970   68.8820   -7.9570 H   0  0  0  0  0  0  0  0  0  0  0  0
   22.9230   69.8320   -6.5860 H   0  0  0  0  0  0  0  0  0  0  0  0
   19.4940   68.2410   -5.3460 H   0  0  0  0  0  0  0  0  0  0  0  0
   21.1590   67.9780   -4.6810 H   0  0  0  0  0  0  0  0  0  0  0  0
   20.1850   65.9520   -5.9950 H   0  0  0  0  0  0  0  0  0  0  0  0
   20.4810   67.0410   -7.4550 H   0  0  0  0  0  0  0  0  0  0  0  0
   25.2830   63.3570   -2.7590 H   0  0  0  0  0  0  0  0  0  0  0  0
   23.6970   62.6900   -3.4200 H   0  0  0  0  0  0  0  0  0  0  0  0
   25.0030   60.5860   -4.0540 H   0  0  0  0  0  0  0  0  0  0  0  0
   25.1730   60.9330   -2.2850 H   0  0  0  0  0  0  0  0  0  0  0  0
   26.5090   60.9650   -5.4070 H   0  0  0  0  0  0  0  0  0  0  0  0
   28.1690   61.6120   -4.9380 H   0  0  0  0  0  0  0  0  0  0  0  0
   27.1790   63.8700   -4.6870 H   0  0  0  0  0  0  0  0  0  0  0  0
   26.6800   63.1770   -6.2820 H   0  0  0  0  0  0  0  0  0  0  0  0
  1  2  1  0  0  0  0
  2  3  1  0  0  0  0
  3  4  2  0  0  0  0
  3 30  1  0  0  0  0
  4  9  1  0  0  0  0
  5  8  1  0  0  0  0
  5  4  1  0  0  0  0
  6  5  2  0  0  0  0
  7  6  1  0  0  0  0
  7  2  2  0  0  0  0
  8 33  1  0  0  0  0
  9 10  2  0  0  0  0
 10 11  1  0  0  0  0
 11 12  1  0  0  0  0
 12 17  1  0  0  0  0
 12 13  2  0  0  0  0
 13 14  2  0  0  0  0
 14 15  1  0  0  0  0
 14 24  1  0  0  0  0
 16 18  1  0  0  0  0
 16 15  2  0  0  0  0
 17 16  1  0  0  0  0
 18 19  1  0  0  0  0
 19 37  1  0  0  0  0
 20 39  1  0  0  0  0
 20 21  1  0  0  0  0
 20 19  1  0  0  0  0
 21 22  1  0  0  0  0
 22 40  1  0  0  0  0
 22 41  1  0  0  0  0
 23 18  1  0  0  0  0
 23 42  1  0  0  0  0
 23 22  1  0  0  0  0
 24 25  1  0  0  0  0
 25 45  1  0  0  0  0
 25 26  1  0  0  0  0
 25 44  1  0  0  0  0
 26 47  1  0  0  0  0
 27 26  1  0  0  0  0
 28 27  1  0  0  0  0
 29 24  1  0  0  0  0
 29 28  1  0  0  0  0
 29 50  1  0  0  0  0
 31  6  1  0  0  0  0
 32  7  1  0  0  0  0
 34  9  1  0  0  0  0
 35 11  1  0  0  0  0
 36 19  1  0  0  0  0
 38 20  1  0  0  0  0
 43 23  1  0  0  0  0
 46 26  1  0  0  0  0
 48 28  1  0  0  0  0
 49 28  1  0  0  0  0
 51 29  1  0  0  0  0
M  END
>  <Pose>
1

>  <Score>
-7.91

$$$$
