
 OpenBabel03202210193D

 37 40  0  0  0  0  0  0  0  0999 V2000
   25.2770   63.6330   -3.7290 Cl  0  0  0  0  0  0  0  0  0  0  0  0
   24.2610   63.5980   -5.1680 C   0  0  0  0  0  0  0  0  0  0  0  0
   23.1870   64.4520   -5.3020 C   0  0  0  0  0  0  0  0  0  0  0  0
   22.3880   64.4260   -6.4300 C   0  0  0  0  0  0  0  0  0  0  0  0
   22.6260   63.5510   -7.4680 C   0  0  0  0  0  0  0  0  0  0  0  0
   23.7060   62.7000   -7.3240 C   0  0  0  0  0  0  0  0  0  0  0  0
   24.5100   62.7180   -6.2010 C   0  0  0  0  0  0  0  0  0  0  0  0
   21.7970   63.5310   -8.6280 N   0  0  0  0  0  0  0  0  0  0  0  0
   20.4820   63.8360   -8.7050 C   0  0  0  0  0  0  0  0  0  0  0  0
   19.7870   64.1920   -7.7300 O   0  0  0  0  0  0  0  0  0  0  0  0
   20.0170   63.7010  -10.0030 C   0  0  0  0  0  0  0  0  0  0  0  0
   21.0720   63.3060  -10.7300 C   0  0  0  0  0  0  0  0  0  0  0  0
   20.6100   63.1800  -11.9860 N   0  0  0  0  0  0  0  0  0  0  0  0
   19.3260   63.4860  -12.0200 N   0  0  0  0  0  0  0  0  0  0  0  0
   18.9440   63.8100  -10.8030 N   0  0  0  0  0  0  0  0  0  0  0  0
   17.6200   64.2070  -10.3830 C   0  0  0  0  0  0  0  0  0  0  0  0
   16.5910   63.1670  -10.5950 C   0  0  0  0  0  0  0  0  0  0  0  0
   15.3140   63.5350  -10.9410 C   0  0  0  0  0  0  0  0  0  0  0  0
   14.3710   62.5520  -11.1310 C   0  0  0  0  0  0  0  0  0  0  0  0
   14.6830   61.2120  -10.9800 C   0  0  0  0  0  0  0  0  0  0  0  0
   15.9630   60.8420  -10.6320 C   0  0  0  0  0  0  0  0  0  0  0  0
   16.8880   61.8320  -10.4480 C   0  0  0  0  0  0  0  0  0  0  0  0
   22.1510   63.2070   -9.8780 C   0  0  0  0  0  0  0  0  0  0  0  0
   23.3120   62.8580  -10.2290 O   0  0  0  0  0  0  0  0  0  0  0  0
   23.0080   65.1350   -4.4810 H   0  0  0  0  0  0  0  0  0  0  0  0
   21.5430   65.1010   -6.5300 H   0  0  0  0  0  0  0  0  0  0  0  0
   23.9100   62.0100   -8.1210 H   0  0  0  0  0  0  0  0  0  0  0  0
   25.3660   62.0400   -6.0910 H   0  0  0  0  0  0  0  0  0  0  0  0
   21.1520   62.8890  -12.8260 H   0  0  0  0  0  0  0  0  0  0  0  0
   18.7000   63.4760  -12.8780 H   0  0  0  0  0  0  0  0  0  0  0  0
   17.6470   64.4520   -9.2840 H   0  0  0  0  0  0  0  0  0  0  0  0
   17.3110   65.1690  -10.8750 H   0  0  0  0  0  0  0  0  0  0  0  0
   15.0310   64.5910  -11.0700 H   0  0  0  0  0  0  0  0  0  0  0  0
   13.3530   62.8540  -11.4080 H   0  0  0  0  0  0  0  0  0  0  0  0
   13.9400   60.4210  -11.1280 H   0  0  0  0  0  0  0  0  0  0  0  0
   16.2350   59.8080  -10.5070 H   0  0  0  0  0  0  0  0  0  0  0  0
   17.8980   61.5040  -10.1700 H   0  0  0  0  0  0  0  0  0  0  0  0
  2  1  1  0  0  0  0
  3  2  1  0  0  0  0
  3 25  1  0  0  0  0
  4  3  2  0  0  0  0
  5  6  2  0  0  0  0
  5  4  1  0  0  0  0
  6  7  1  0  0  0  0
  7 28  1  0  0  0  0
  7  2  2  0  0  0  0
  8  5  1  0  0  0  0
  9  8  1  0  0  0  0
  9 10  2  0  0  0  0
 11  9  1  0  0  0  0
 12 11  2  0  0  0  0
 12 23  1  0  0  0  0
 13 12  1  0  0  0  0
 14 13  1  0  0  0  0
 14 15  1  0  0  0  0
 15 16  1  0  0  0  0
 15 11  1  0  0  0  0
 16 31  1  0  0  0  0
 17 22  1  0  0  0  0
 17 16  1  0  0  0  0
 18 17  2  0  0  0  0
 19 20  2  0  0  0  0
 19 18  1  0  0  0  0
 20 21  1  0  0  0  0
 21 36  1  0  0  0  0
 21 22  2  0  0  0  0
 22 37  1  0  0  0  0
 23  8  1  0  0  0  0
 24 23  2  0  0  0  0
 26  4  1  0  0  0  0
 27  6  1  0  0  0  0
 29 13  1  0  0  0  0
 30 14  1  0  0  0  0
 32 16  1  0  0  0  0
 33 18  1  0  0  0  0
 34 19  1  0  0  0  0
 35 20  1  0  0  0  0
M  END
>  <Pose>
1

>  <Score>
-6.34

$$$$
