
 OpenBabel03202210193D

 56 59  0  0  1  0  0  0  0  0999 V2000
   15.9860   61.4010  -10.2600 S   0  0  0  0  0  0  0  0  0  0  0  0
   15.5360   60.0330  -10.5890 O   0  0  0  0  0  0  0  0  0  0  0  0
   15.6910   61.6700   -8.8030 O   0  0  0  0  0  0  0  0  0  0  0  0
   17.6500   61.6810  -10.5220 N   0  0  0  0  0  0  0  0  0  0  0  0
   18.5150   60.9140   -9.7130 C   0  0  0  0  0  0  0  0  0  0  0  0
   19.9470   61.1170  -10.2490 C   0  0  0  0  0  0  0  0  0  0  0  0
   20.2370   62.4870   -9.9100 N   0  0  0  0  0  0  0  0  0  0  0  0
   19.3920   63.4410  -10.6610 C   0  0  0  0  0  0  0  0  0  0  0  0
   17.9960   63.0030  -10.8370 C   0  0  0  0  0  0  0  0  0  0  0  0
   21.1680   62.9990   -9.0080 C   0  0  0  0  0  0  0  0  0  0  0  0
   21.5450   62.1160   -8.1030 O   0  0  0  0  0  0  0  0  0  0  0  0
   21.8180   64.2720   -8.8350 C   0  0  0  0  0  0  0  0  0  0  0  0
   22.7490   64.4210   -7.7580 N   0  0  0  0  0  0  0  0  0  0  0  0
   22.9680   65.6170   -7.0070 C   0  0  0  0  0  0  0  0  0  0  0  0
   22.3540   66.7150   -7.2310 O   0  0  0  0  0  0  0  0  0  0  0  0
   23.9440   65.3470   -6.0240 N   0  0  0  0  0  0  0  0  0  0  0  0
   24.0590   63.9040   -5.8820 C   0  0  1  0  0  0  0  0  0  0  0  0
   25.4450   63.4220   -5.6330 C   0  0  1  0  0  0  0  0  0  0  0  0
   25.3500   62.1840   -4.7350 C   0  0  0  0  0  0  0  0  0  0  0  0
   24.9860   62.6960   -3.3550 C   0  0  0  0  0  0  0  0  0  0  0  0
   23.8300   63.6580   -3.4720 C   0  0  0  0  0  0  0  0  0  0  0  0
   23.0930   63.4920   -4.7940 C   0  0  0  0  0  0  0  0  0  0  0  0
   26.1790   62.9810   -6.8780 C   0  0  0  0  0  0  0  0  0  0  0  0
   23.6090   63.4150   -7.2200 C   0  0  0  0  0  0  0  0  0  0  0  0
   23.9180   62.3380   -7.7650 O   0  0  0  0  0  0  0  0  0  0  0  0
   15.0950   62.5810  -11.2360 C   0  0  0  0  0  0  0  0  0  0  0  0
   13.6780   62.3850  -12.1600 S   0  0  0  0  0  0  0  0  0  0  0  0
   13.5160   63.9720  -12.7550 C   0  0  0  0  0  0  0  0  0  0  0  0
   14.5910   64.6220  -12.2070 C   0  0  0  0  0  0  0  0  0  0  0  0
   15.4050   63.8960  -11.4210 C   0  0  0  0  0  0  0  0  0  0  0  0
   12.2640   64.6250  -13.8230 Cl  0  0  0  0  0  0  0  0  0  0  0  0
   18.4780   61.2130   -8.6440 H   0  0  0  0  0  0  0  0  0  0  0  0
   18.2290   59.8520   -9.7570 H   0  0  0  0  0  0  0  0  0  0  0  0
   20.6140   60.3550   -9.9050 H   0  0  0  0  0  0  0  0  0  0  0  0
   19.7880   61.0670  -11.3770 H   0  0  0  0  0  0  0  0  0  0  0  0
   19.8870   63.5320  -11.6570 H   0  0  0  0  0  0  0  0  0  0  0  0
   19.4550   64.4480  -10.2030 H   0  0  0  0  0  0  0  0  0  0  0  0
   17.3340   63.6920  -10.2300 H   0  0  0  0  0  0  0  0  0  0  0  0
   17.6630   63.2080  -11.8980 H   0  0  0  0  0  0  0  0  0  0  0  0
   22.3230   64.6220   -9.8060 H   0  0  0  0  0  0  0  0  0  0  0  0
   21.0450   65.1110   -8.7130 H   0  0  0  0  0  0  0  0  0  0  0  0
   24.4940   66.0340   -5.4860 H   0  0  0  0  0  0  0  0  0  0  0  0
   26.0470   64.1940   -5.1000 H   0  0  0  0  0  0  0  0  0  0  0  0
   24.5270   61.5700   -5.1180 H   0  0  0  0  0  0  0  0  0  0  0  0
   26.3020   61.6200   -4.7180 H   0  0  0  0  0  0  0  0  0  0  0  0
   25.9060   63.2090   -2.9600 H   0  0  0  0  0  0  0  0  0  0  0  0
   24.7270   61.8880   -2.6570 H   0  0  0  0  0  0  0  0  0  0  0  0
   24.2320   64.6920   -3.4170 H   0  0  0  0  0  0  0  0  0  0  0  0
   23.1350   63.5360   -2.6050 H   0  0  0  0  0  0  0  0  0  0  0  0
   22.2500   64.2400   -4.7540 H   0  0  0  0  0  0  0  0  0  0  0  0
   22.7100   62.4730   -4.9060 H   0  0  0  0  0  0  0  0  0  0  0  0
   25.9150   63.5430   -7.7790 H   0  0  0  0  0  0  0  0  0  0  0  0
   27.2840   63.1250   -6.6930 H   0  0  0  0  0  0  0  0  0  0  0  0
   26.0880   61.8680   -7.0480 H   0  0  0  0  0  0  0  0  0  0  0  0
   14.7330   65.7060  -12.4380 H   0  0  0  0  0  0  0  0  0  0  0  0
   16.3010   64.3340  -10.9340 H   0  0  0  0  0  0  0  0  0  0  0  0
  1  3  2  0  0  0  0
  2  1  2  0  0  0  0
  4  1  1  0  0  0  0
  4  5  1  0  0  0  0
  5 32  1  0  0  0  0
  6  7  1  0  0  0  0
  6 34  1  0  0  0  0
  6  5  1  0  0  0  0
  7 10  1  0  0  0  0
  8 37  1  0  0  0  0
  8  7  1  0  0  0  0
  9  8  1  0  0  0  0
  9  4  1  0  0  0  0
  9 38  1  0  0  0  0
 10 12  1  0  0  0  0
 10 11  2  0  0  0  0
 12 41  1  0  0  0  0
 12 13  1  0  0  0  0
 13 24  1  0  0  0  0
 13 14  1  0  0  0  0
 14 16  1  0  0  0  0
 15 14  2  0  0  0  0
 16 17  1  0  0  0  0
 16 42  1  0  0  0  0
 17 24  1  6  0  0  0
 17 18  1  0  0  0  0
 17 22  1  0  0  0  0
 18 43  1  1  0  0  0
 18 19  1  0  0  0  0
 19 45  1  0  0  0  0
 19 20  1  0  0  0  0
 20 46  1  0  0  0  0
 20 47  1  0  0  0  0
 21 48  1  0  0  0  0
 21 20  1  0  0  0  0
 21 49  1  0  0  0  0
 22 50  1  0  0  0  0
 22 21  1  0  0  0  0
 23 53  1  0  0  0  0
 23 18  1  0  0  0  0
 25 24  2  0  0  0  0
 26  1  1  0  0  0  0
 27 26  1  0  0  0  0
 28 29  2  0  0  0  0
 28 27  1  0  0  0  0
 29 30  1  0  0  0  0
 30 26  2  0  0  0  0
 30 56  1  0  0  0  0
 31 28  1  0  0  0  0
 33  5  1  0  0  0  0
 35  6  1  0  0  0  0
 36  8  1  0  0  0  0
 39  9  1  0  0  0  0
 40 12  1  0  0  0  0
 44 19  1  0  0  0  0
 51 22  1  0  0  0  0
 52 23  1  0  0  0  0
 54 23  1  0  0  0  0
 55 29  1  0  0  0  0
M  END
>  <Pose>
1

>  <Score>
-6.12

$$$$
