
 OpenBabel03202210193D

 60 63  0  0  1  0  0  0  0  0999 V2000
   23.4520   63.8410   -1.9780 Cl  0  0  0  0  0  0  0  0  0  0  0  0
   24.4180   63.4400   -3.3980 C   0  0  0  0  0  0  0  0  0  0  0  0
   23.8250   63.4170   -4.6310 C   0  0  0  0  0  0  0  0  0  0  0  0
   24.5520   63.1090   -5.7520 C   0  0  0  0  0  0  0  0  0  0  0  0
   25.9190   62.8170   -5.5790 C   0  0  0  0  0  0  0  0  0  0  0  0
   26.4900   62.8440   -4.3490 C   0  0  0  0  0  0  0  0  0  0  0  0
   25.7600   63.1540   -3.2320 C   0  0  0  0  0  0  0  0  0  0  0  0
   24.0830   63.0630   -6.9640 O   0  0  0  0  0  0  0  0  0  0  0  0
   23.0890   63.0780   -7.8230 C   0  0  0  0  0  0  0  0  0  0  0  0
   22.1810   64.2690   -7.9430 C   0  0  1  0  0  0  0  0  0  0  0  0
   20.9640   63.8800   -7.3640 O   0  0  0  0  0  0  0  0  0  0  0  0
   20.9110   64.0190   -6.0040 C   0  0  0  0  0  0  0  0  0  0  0  0
   20.8640   65.4570   -5.5290 C   0  0  0  0  0  0  0  0  0  0  0  0
   21.7880   66.1660   -6.4530 N   0  0  0  0  0  0  0  0  0  0  0  0
   22.7860   65.3490   -7.0270 C   0  0  0  0  0  0  0  0  0  0  0  0
   21.5930   67.5160   -6.6580 C   0  0  0  0  0  0  0  0  0  0  0  0
   20.4100   67.9700   -6.9500 O   0  0  0  0  0  0  0  0  0  0  0  0
   22.6140   68.5160   -6.5770 C   0  0  0  0  0  0  0  0  0  0  0  0
   23.6310   68.6080   -7.4340 N   0  0  0  0  0  0  0  0  0  0  0  0
   24.5950   69.5470   -7.3650 C   0  0  0  0  0  0  0  0  0  0  0  0
   24.5530   70.4900   -6.3500 C   0  0  0  0  0  0  0  0  0  0  0  0
   23.5570   70.4300   -5.4810 N   0  0  0  0  0  0  0  0  0  0  0  0
   22.6070   69.4850   -5.5690 C   0  0  0  0  0  0  0  0  0  0  0  0
   25.6400   71.4990   -6.3220 C   0  0  0  0  0  0  0  0  0  0  0  0
   21.9130   64.7640   -9.2900 C   0  0  0  0  0  0  0  0  0  0  0  0
   21.5310   63.8030  -10.3270 C   0  0  0  0  0  0  0  0  0  0  0  0
   22.3550   63.4150  -11.1770 O   0  0  0  0  0  0  0  0  0  0  0  0
   20.2090   63.2800  -10.4020 N   0  0  0  0  0  0  0  0  0  0  0  0
   19.0480   64.0860  -10.0380 C   0  0  0  0  0  0  0  0  0  0  0  0
   18.1840   63.2350   -9.1310 C   0  0  0  0  0  0  0  0  0  0  0  0
   17.8370   62.0620   -9.8070 O   0  0  0  0  0  0  0  0  0  0  0  0
   18.9760   61.2660   -9.9270 C   0  0  0  0  0  0  0  0  0  0  0  0
   19.9510   61.9260  -10.8460 C   0  0  0  0  0  0  0  0  0  0  0  0
   22.7710   63.6280   -4.7350 H   0  0  0  0  0  0  0  0  0  0  0  0
   26.5450   62.5640   -6.4380 H   0  0  0  0  0  0  0  0  0  0  0  0
   27.5450   62.6220   -4.1950 H   0  0  0  0  0  0  0  0  0  0  0  0
   26.1610   63.1890   -2.2420 H   0  0  0  0  0  0  0  0  0  0  0  0
   23.4420   62.7980   -8.8940 H   0  0  0  0  0  0  0  0  0  0  0  0
   22.3900   62.1770   -7.6170 H   0  0  0  0  0  0  0  0  0  0  0  0
   19.9840   63.5390   -5.6490 H   0  0  0  0  0  0  0  0  0  0  0  0
   21.7510   63.4690   -5.5420 H   0  0  0  0  0  0  0  0  0  0  0  0
   21.2320   65.4850   -4.5020 H   0  0  0  0  0  0  0  0  0  0  0  0
   19.8800   65.8930   -5.7030 H   0  0  0  0  0  0  0  0  0  0  0  0
   23.2180   64.7420   -6.1560 H   0  0  0  0  0  0  0  0  0  0  0  0
   23.6440   65.7990   -7.4880 H   0  0  0  0  0  0  0  0  0  0  0  0
   25.3820   69.5390   -8.1080 H   0  0  0  0  0  0  0  0  0  0  0  0
   21.8070   69.4610   -4.8460 H   0  0  0  0  0  0  0  0  0  0  0  0
   25.3630   72.3810   -5.6970 H   0  0  0  0  0  0  0  0  0  0  0  0
   26.5380   70.9880   -5.9200 H   0  0  0  0  0  0  0  0  0  0  0  0
   25.9020   71.8770   -7.3290 H   0  0  0  0  0  0  0  0  0  0  0  0
   22.8400   65.3460   -9.6710 H   0  0  0  0  0  0  0  0  0  0  0  0
   21.1620   65.6090   -9.2510 H   0  0  0  0  0  0  0  0  0  0  0  0
   19.3470   65.0200   -9.5260 H   0  0  0  0  0  0  0  0  0  0  0  0
   18.4320   64.3080  -10.9470 H   0  0  0  0  0  0  0  0  0  0  0  0
   18.7440   63.0310   -8.2080 H   0  0  0  0  0  0  0  0  0  0  0  0
   17.2210   63.7420   -8.8900 H   0  0  0  0  0  0  0  0  0  0  0  0
   19.4750   61.0900   -8.9570 H   0  0  0  0  0  0  0  0  0  0  0  0
   18.6570   60.3100  -10.4090 H   0  0  0  0  0  0  0  0  0  0  0  0
   20.8720   61.3090  -10.8700 H   0  0  0  0  0  0  0  0  0  0  0  0
   19.5940   61.9810  -11.8970 H   0  0  0  0  0  0  0  0  0  0  0  0
  2  7  1  0  0  0  0
  2  1  1  0  0  0  0
  3  2  2  0  0  0  0
  4  5  2  0  0  0  0
  4  3  1  0  0  0  0
  5  6  1  0  0  0  0
  6 36  1  0  0  0  0
  6  7  2  0  0  0  0
  7 37  1  0  0  0  0
  8  4  1  0  0  0  0
  9 39  1  0  0  0  0
  9  8  1  0  0  0  0
 10 25  1  6  0  0  0
 10  9  1  0  0  0  0
 10 11  1  0  0  0  0
 10 15  1  0  0  0  0
 11 12  1  0  0  0  0
 12 40  1  0  0  0  0
 12 41  1  0  0  0  0
 12 13  1  0  0  0  0
 13 42  1  0  0  0  0
 14 13  1  0  0  0  0
 15 14  1  0  0  0  0
 15 44  1  0  0  0  0
 16 18  1  0  0  0  0
 16 14  1  0  0  0  0
 17 16  2  0  0  0  0
 18 23  1  0  0  0  0
 19 20  1  0  0  0  0
 19 18  2  0  0  0  0
 20 21  2  0  0  0  0
 21 24  1  0  0  0  0
 21 22  1  0  0  0  0
 23 22  2  0  0  0  0
 23 47  1  0  0  0  0
 24 49  1  0  0  0  0
 24 48  1  0  0  0  0
 25 52  1  0  0  0  0
 26 25  1  0  0  0  0
 27 26  2  0  0  0  0
 28 26  1  0  0  0  0
 28 29  1  0  0  0  0
 29 53  1  0  0  0  0
 29 30  1  0  0  0  0
 30 56  1  0  0  0  0
 30 55  1  0  0  0  0
 31 30  1  0  0  0  0
 32 31  1  0  0  0  0
 32 57  1  0  0  0  0
 33 28  1  0  0  0  0
 33 32  1  0  0  0  0
 34  3  1  0  0  0  0
 35  5  1  0  0  0  0
 38  9  1  0  0  0  0
 43 13  1  0  0  0  0
 45 15  1  0  0  0  0
 46 20  1  0  0  0  0
 50 24  1  0  0  0  0
 51 25  1  0  0  0  0
 54 29  1  0  0  0  0
 58 32  1  0  0  0  0
 59 33  1  0  0  0  0
 60 33  1  0  0  0  0
M  END
>  <Pose>
1

>  <Score>
-7.31

$$$$
