
 OpenBabel03202210193D

 51 54  0  0  1  0  0  0  0  0999 V2000
   17.3560   58.9320   -9.6290 Cl  0  0  0  0  0  0  0  0  0  0  0  0
   17.7090   60.6190   -9.8030 C   0  0  0  0  0  0  0  0  0  0  0  0
   16.7470   61.4670  -10.1740 N   0  0  0  0  0  4  0  0  0  0  0  0
   16.9640   62.7760  -10.3240 C   0  0  0  0  0  0  0  0  0  0  0  0
   16.1760   63.7870  -10.6690 N   0  0  0  0  0  0  0  0  0  0  0  0
   16.9580   64.8740  -10.6390 C   0  0  0  0  0  0  0  0  0  0  0  0
   18.2150   64.5780  -10.2840 N   0  0  0  0  0  0  0  0  0  0  0  0
   18.2590   63.2520  -10.0760 C   0  0  0  0  0  0  0  0  0  0  0  0
   19.2560   62.3930   -9.6950 C   0  0  0  0  0  0  0  0  0  0  0  0
   18.9450   61.0690   -9.5670 N   0  0  0  0  0  0  0  0  0  0  0  0
   20.5640   62.8660   -9.4660 N   0  0  0  0  0  0  0  0  0  0  0  0
   20.9920   64.0450  -10.1840 C   0  0  0  0  0  0  0  0  0  0  0  0
   22.4400   64.3880   -9.9600 C   0  0  0  0  0  0  0  0  0  0  0  0
   22.7560   64.2860   -8.5080 C   0  0  2  0  0  0  0  0  0  0  0  0
   22.5990   62.8760   -8.0540 C   0  0  0  0  0  0  0  0  0  0  0  0
   21.3930   62.1580   -8.5400 C   0  0  0  0  0  0  0  0  0  0  0  0
   22.0450   65.2780   -7.7010 C   0  0  0  0  0  0  0  0  0  0  0  0
   21.4250   66.1960   -8.2910 O   0  0  0  0  0  0  0  0  0  0  0  0
   22.0220   65.2540   -6.2910 N   0  0  0  0  0  0  0  0  0  0  0  0
   23.1920   65.0410   -5.4720 C   0  0  0  0  0  0  0  0  0  0  0  0
   23.9100   63.7550   -5.7690 C   0  0  0  0  0  0  0  0  0  0  0  0
   25.0660   63.5920   -4.9060 N   0  0  0  0  0  0  0  0  0  0  0  0
   25.6630   62.3030   -5.0100 C   0  0  0  0  0  0  0  0  0  0  0  0
   25.4070   61.4970   -3.7530 C   0  0  0  0  0  0  0  0  0  0  0  0
   26.0300   62.1370   -2.7100 O   0  0  0  0  0  0  0  0  0  0  0  0
   25.7080   63.4560   -2.5320 C   0  0  0  0  0  0  0  0  0  0  0  0
   24.8580   64.0740   -3.5880 C   0  0  0  0  0  0  0  0  0  0  0  0
   16.6210   65.8710  -10.8720 H   0  0  0  0  0  0  0  0  0  0  0  0
   19.0330   65.2210  -10.1720 H   0  0  0  0  0  0  0  0  0  0  0  0
   20.3320   64.9140  -10.0630 H   0  0  0  0  0  0  0  0  0  0  0  0
   20.9210   63.8060  -11.2930 H   0  0  0  0  0  0  0  0  0  0  0  0
   23.1000   63.7180  -10.5330 H   0  0  0  0  0  0  0  0  0  0  0  0
   22.5860   65.4260  -10.3190 H   0  0  0  0  0  0  0  0  0  0  0  0
   23.8540   64.5370   -8.4080 H   0  0  0  0  0  0  0  0  0  0  0  0
   23.4980   62.3090   -8.4380 H   0  0  0  0  0  0  0  0  0  0  0  0
   22.7090   62.8510   -6.9500 H   0  0  0  0  0  0  0  0  0  0  0  0
   20.7940   61.8630   -7.6310 H   0  0  0  0  0  0  0  0  0  0  0  0
   21.6410   61.1660   -9.0210 H   0  0  0  0  0  0  0  0  0  0  0  0
   21.0930   65.4020   -5.8000 H   0  0  0  0  0  0  0  0  0  0  0  0
   23.8520   65.9040   -5.4810 H   0  0  0  0  0  0  0  0  0  0  0  0
   22.8120   64.9490   -4.4150 H   0  0  0  0  0  0  0  0  0  0  0  0
   23.2110   62.9310   -5.5120 H   0  0  0  0  0  0  0  0  0  0  0  0
   24.2030   63.6510   -6.8220 H   0  0  0  0  0  0  0  0  0  0  0  0
   26.7620   62.3340   -5.1930 H   0  0  0  0  0  0  0  0  0  0  0  0
   25.2220   61.7750   -5.8810 H   0  0  0  0  0  0  0  0  0  0  0  0
   24.3170   61.3790   -3.6010 H   0  0  0  0  0  0  0  0  0  0  0  0
   25.8880   60.5080   -3.8860 H   0  0  0  0  0  0  0  0  0  0  0  0
   25.2880   63.6400   -1.5030 H   0  0  0  0  0  0  0  0  0  0  0  0
   26.6820   64.0290   -2.5220 H   0  0  0  0  0  0  0  0  0  0  0  0
   24.9450   65.1740   -3.5940 H   0  0  0  0  0  0  0  0  0  0  0  0
   23.7840   63.8600   -3.3130 H   0  0  0  0  0  0  0  0  0  0  0  0
  2  1  1  0  0  0  0
  2 10  1  0  0  0  0
  3  2  2  0  0  0  0
  4  3  2  0  0  0  0
  4  8  1  0  0  0  0
  5  6  2  0  0  0  0
  5  4  1  0  0  0  0
  6  7  1  0  0  0  0
  7 29  1  0  0  0  0
  7  8  1  0  0  0  0
  8  9  2  0  0  0  0
  9 10  1  0  0  0  0
  9 11  1  0  0  0  0
 11 16  1  0  0  0  0
 12 30  1  0  0  0  0
 12 13  1  0  0  0  0
 12 11  1  0  0  0  0
 13 14  1  0  0  0  0
 14 34  1  1  0  0  0
 14 15  1  0  0  0  0
 14 17  1  0  0  0  0
 15 36  1  0  0  0  0
 16 15  1  0  0  0  0
 16 37  1  0  0  0  0
 17 19  1  0  0  0  0
 18 17  2  0  0  0  0
 19 39  1  0  0  0  0
 19 20  1  0  0  0  0
 20 41  1  0  0  0  0
 21 42  1  0  0  0  0
 21 20  1  0  0  0  0
 21 22  1  0  0  0  0
 22 27  1  0  0  0  0
 23 22  1  0  0  0  0
 23 24  1  0  0  0  0
 24 46  1  0  0  0  0
 24 25  1  0  0  0  0
 25 26  1  0  0  0  0
 26 49  1  0  0  0  0
 26 48  1  0  0  0  0
 27 51  1  0  0  0  0
 27 26  1  0  0  0  0
 28  6  1  0  0  0  0
 31 12  1  0  0  0  0
 32 13  1  0  0  0  0
 33 13  1  0  0  0  0
 35 15  1  0  0  0  0
 38 16  1  0  0  0  0
 40 20  1  0  0  0  0
 43 21  1  0  0  0  0
 44 23  1  0  0  0  0
 45 23  1  0  0  0  0
 47 24  1  0  0  0  0
 50 27  1  0  0  0  0
M  END
>  <Pose>
1

>  <Score>
-7.44

$$$$
