
 OpenBabel03202210193D

 54 57  0  0  1  0  0  0  0  0999 V2000
   13.6760   65.4630  -13.9130 Cl  0  0  0  0  0  0  0  0  0  0  0  0
   12.5260   64.2620  -14.4500 C   0  0  0  0  0  0  0  0  0  0  0  0
   12.7290   62.9400  -14.0710 C   0  0  0  0  0  0  0  0  0  0  0  0
   11.7770   62.0380  -14.4670 C   0  0  0  0  0  0  0  0  0  0  0  0
   10.6770   62.4340  -15.2190 C   0  0  0  0  0  0  0  0  0  0  0  0
   10.4680   63.7750  -15.6040 C   0  0  0  0  0  0  0  0  0  0  0  0
   11.4440   64.6490  -15.1710 C   0  0  0  0  0  0  0  0  0  0  0  0
   14.0250   62.5850  -13.4360 C   0  0  0  0  0  0  0  0  0  0  0  0
   13.8780   61.7290  -12.3150 N   0  0  0  0  0  0  0  0  0  0  0  0
   14.5290   61.8220  -11.0830 C   0  0  0  0  0  0  0  0  0  0  0  0
   14.2610   62.6610  -10.2640 O   0  0  0  0  0  0  0  0  0  0  0  0
   15.6180   60.7870  -10.7800 C   0  0  0  0  0  0  0  0  0  0  0  0
   16.8430   61.5220  -10.5760 N   0  0  0  0  0  0  0  0  0  0  0  0
   16.8740   62.8470  -10.1590 C   0  0  0  0  0  0  0  0  0  0  0  0
   18.3740   63.1750   -9.7550 C   0  0  0  0  0  0  0  0  0  0  0  0
   19.0860   62.2830  -10.6310 N   0  0  0  0  0  0  0  0  0  0  0  0
   19.1320   60.9070  -10.0580 C   0  0  0  0  0  0  0  0  0  0  0  0
   17.6980   60.6730   -9.6740 C   0  0  0  0  0  0  0  0  0  0  0  0
   19.7170   62.6430  -11.7840 C   0  0  0  0  0  0  0  0  0  0  0  0
   20.4170   61.7540  -12.3790 O   0  0  0  0  0  0  0  0  0  0  0  0
   19.7200   63.9830  -12.4520 C   0  0  1  0  0  0  0  0  0  0  0  0
   20.2010   64.8960  -11.4130 O   0  0  0  0  0  0  0  0  0  0  0  0
   21.1940   64.2560  -10.6150 C   0  0  0  0  0  0  0  0  0  0  0  0
   22.0300   63.3700  -11.2420 C   0  0  0  0  0  0  0  0  0  0  0  0
   23.0230   62.6910  -10.5450 C   0  0  0  0  0  0  0  0  0  0  0  0
   23.1200   62.9630   -9.1860 C   0  0  0  0  0  0  0  0  0  0  0  0
   22.3020   63.8540   -8.5270 C   0  0  0  0  0  0  0  0  0  0  0  0
   21.3290   64.5100   -9.2550 C   0  0  0  0  0  0  0  0  0  0  0  0
   21.8790   63.1440  -12.6150 O   0  0  0  0  0  0  0  0  0  0  0  0
   20.9460   63.9240  -13.4030 C   0  0  0  0  0  0  0  0  0  0  0  0
   11.8360   60.9860  -14.2350 H   0  0  0  0  0  0  0  0  0  0  0  0
    9.9050   61.7560  -15.5700 H   0  0  0  0  0  0  0  0  0  0  0  0
    9.6040   64.0530  -16.1860 H   0  0  0  0  0  0  0  0  0  0  0  0
   11.2880   65.6790  -15.4230 H   0  0  0  0  0  0  0  0  0  0  0  0
   14.5570   61.9860  -14.2640 H   0  0  0  0  0  0  0  0  0  0  0  0
   14.5690   63.5020  -13.1940 H   0  0  0  0  0  0  0  0  0  0  0  0
   13.2560   60.8500  -12.4270 H   0  0  0  0  0  0  0  0  0  0  0  0
   15.3780   60.2210   -9.8710 H   0  0  0  0  0  0  0  0  0  0  0  0
   15.7060   60.1360  -11.6570 H   0  0  0  0  0  0  0  0  0  0  0  0
   16.2730   63.1870   -9.3390 H   0  0  0  0  0  0  0  0  0  0  0  0
   16.7800   63.5120  -11.0760 H   0  0  0  0  0  0  0  0  0  0  0  0
   18.4870   62.8800   -8.7030 H   0  0  0  0  0  0  0  0  0  0  0  0
   18.6000   64.2150   -9.9560 H   0  0  0  0  0  0  0  0  0  0  0  0
   19.6960   61.0200   -9.1140 H   0  0  0  0  0  0  0  0  0  0  0  0
   19.5880   60.1920  -10.7100 H   0  0  0  0  0  0  0  0  0  0  0  0
   17.4850   61.0730   -8.6670 H   0  0  0  0  0  0  0  0  0  0  0  0
   17.3230   59.6610   -9.7550 H   0  0  0  0  0  0  0  0  0  0  0  0
   18.8140   64.2860  -12.9120 H   0  0  0  0  0  0  0  0  0  0  0  0
   23.6710   61.9740  -11.0680 H   0  0  0  0  0  0  0  0  0  0  0  0
   23.8820   62.4210   -8.6400 H   0  0  0  0  0  0  0  0  0  0  0  0
   22.4080   64.0280   -7.4390 H   0  0  0  0  0  0  0  0  0  0  0  0
   20.6560   65.2200   -8.7920 H   0  0  0  0  0  0  0  0  0  0  0  0
   20.6160   63.2270  -14.2190 H   0  0  0  0  0  0  0  0  0  0  0  0
   21.3010   64.8840  -13.7040 H   0  0  0  0  0  0  0  0  0  0  0  0
  2  3  1  0  0  0  0
  2  1  1  0  0  0  0
  3  8  1  0  0  0  0
  4 31  1  0  0  0  0
  4  3  2  0  0  0  0
  5  4  1  0  0  0  0
  6  5  2  0  0  0  0
  6  7  1  0  0  0  0
  7  2  2  0  0  0  0
  8 36  1  0  0  0  0
  8  9  1  0  0  0  0
  9 10  1  0  0  0  0
 10 12  1  0  0  0  0
 10 11  2  0  0  0  0
 12 13  1  0  0  0  0
 12 38  1  0  0  0  0
 13 14  1  0  0  0  0
 13 18  1  0  0  0  0
 14 15  1  0  0  0  0
 14 40  1  0  0  0  0
 15 42  1  0  0  0  0
 16 17  1  0  0  0  0
 16 15  1  0  0  0  0
 17 18  1  0  0  0  0
 17 44  1  0  0  0  0
 18 46  1  0  0  0  0
 19 16  1  0  0  0  0
 20 19  2  0  0  0  0
 21 48  1  6  0  0  0
 21 19  1  0  0  0  0
 21 22  1  0  0  0  0
 22 23  1  0  0  0  0
 23 28  1  0  0  0  0
 24 23  2  0  0  0  0
 24 25  1  0  0  0  0
 25 26  2  0  0  0  0
 26 50  1  0  0  0  0
 26 27  1  0  0  0  0
 27 51  1  0  0  0  0
 28 52  1  0  0  0  0
 28 27  2  0  0  0  0
 29 24  1  0  0  0  0
 30 29  1  0  0  0  0
 30 21  1  0  0  0  0
 32  5  1  0  0  0  0
 33  6  1  0  0  0  0
 34  7  1  0  0  0  0
 35  8  1  0  0  0  0
 37  9  1  0  0  0  0
 39 12  1  0  0  0  0
 41 14  1  0  0  0  0
 43 15  1  0  0  0  0
 45 17  1  0  0  0  0
 47 18  1  0  0  0  0
 49 25  1  0  0  0  0
 53 30  1  0  0  0  0
 54 30  1  0  0  0  0
M  END
>  <Pose>
1

>  <Score>
-5.10

$$$$
