
 OpenBabel03202210193D

 45 48  0  0  0  0  0  0  0  0999 V2000
   23.6990   71.1640   -6.4370 Cl  0  0  0  0  0  0  0  0  0  0  0  0
   23.1200   69.5120   -6.4710 C   0  0  0  0  0  0  0  0  0  0  0  0
   23.9740   68.5130   -6.1120 C   0  0  0  0  0  0  0  0  0  0  0  0
   23.5490   67.1810   -6.1250 C   0  0  0  0  0  0  0  0  0  0  0  0
   22.2940   66.8190   -6.4880 C   0  0  0  0  0  0  0  0  0  0  0  0
   21.4400   67.8720   -6.8510 C   0  0  0  0  0  0  0  0  0  0  0  0
   21.8370   69.1890   -6.8460 C   0  0  0  0  0  0  0  0  0  0  0  0
   21.7860   65.4490   -6.4680 C   0  0  0  0  0  0  0  0  0  0  0  0
   22.5830   64.4490   -7.1280 N   0  0  0  0  0  0  0  0  0  0  0  0
   22.4940   64.2030   -8.4700 C   0  0  0  0  0  0  0  0  0  0  0  0
   23.3640   63.2070   -8.8210 C   0  0  0  0  0  0  0  0  0  0  0  0
   23.9610   62.8740   -7.6840 N   0  0  0  0  0  0  0  0  0  0  0  0
   23.5010   63.6200   -6.6280 C   0  0  0  0  0  0  0  0  0  0  0  0
   23.9920   63.4580   -5.3140 N   0  0  0  0  0  0  0  0  0  0  0  0
   23.0190   63.3550   -4.2340 C   0  0  0  0  0  0  0  0  0  0  0  0
   23.6670   62.3480   -3.2660 C   0  0  0  0  0  0  0  0  0  0  0  0
   24.4470   61.3570   -3.9720 N   0  0  0  0  0  0  0  0  0  0  0  0
   25.6190   61.8920   -4.6310 C   0  0  0  0  0  0  0  0  0  0  0  0
   25.3340   63.3680   -4.8700 C   0  0  0  0  0  0  0  0  0  0  0  0
   23.4760   62.7800  -10.0920 N   0  0  0  0  0  0  0  0  0  0  0  0
   22.7110   63.3450  -11.0620 C   0  0  0  0  0  0  0  0  0  0  0  0
   22.8490   62.9160  -12.2300 O   0  0  0  0  0  0  0  0  0  0  0  0
   21.8420   64.3270  -10.7680 N   0  0  0  0  0  0  0  0  0  0  0  0
   21.7390   64.7450   -9.4970 C   0  0  0  0  0  0  0  0  0  0  0  0
   20.9170   65.6610   -9.2750 O   0  0  0  0  0  0  0  0  0  0  0  0
   24.4250   61.7180  -10.3750 C   0  0  0  0  0  0  0  0  0  0  0  0
   24.9890   68.7140   -5.8090 H   0  0  0  0  0  0  0  0  0  0  0  0
   24.2790   66.4390   -5.8400 H   0  0  0  0  0  0  0  0  0  0  0  0
   20.4190   67.6050   -7.1480 H   0  0  0  0  0  0  0  0  0  0  0  0
   21.1790   70.0010   -7.1250 H   0  0  0  0  0  0  0  0  0  0  0  0
   20.7000   65.3880   -6.7870 H   0  0  0  0  0  0  0  0  0  0  0  0
   21.6920   65.1680   -5.3820 H   0  0  0  0  0  0  0  0  0  0  0  0
   22.0420   63.0020   -4.5740 H   0  0  0  0  0  0  0  0  0  0  0  0
   22.9110   64.2920   -3.6680 H   0  0  0  0  0  0  0  0  0  0  0  0
   24.2210   62.8700   -2.4640 H   0  0  0  0  0  0  0  0  0  0  0  0
   22.8270   61.7870   -2.7870 H   0  0  0  0  0  0  0  0  0  0  0  0
   24.7700   60.6750   -3.2660 H   0  0  0  0  0  0  0  0  0  0  0  0
   25.8610   61.3630   -5.5750 H   0  0  0  0  0  0  0  0  0  0  0  0
   26.5250   61.8110   -3.9850 H   0  0  0  0  0  0  0  0  0  0  0  0
   25.4270   63.8040   -3.8070 H   0  0  0  0  0  0  0  0  0  0  0  0
   26.1040   63.9050   -5.3920 H   0  0  0  0  0  0  0  0  0  0  0  0
   21.2790   64.7260  -11.5480 H   0  0  0  0  0  0  0  0  0  0  0  0
   24.0820   60.7570   -9.9200 H   0  0  0  0  0  0  0  0  0  0  0  0
   25.4410   61.9440   -9.9490 H   0  0  0  0  0  0  0  0  0  0  0  0
   24.5550   61.5350  -11.4470 H   0  0  0  0  0  0  0  0  0  0  0  0
  2  1  1  0  0  0  0
  2  3  1  0  0  0  0
  3 27  1  0  0  0  0
  4  3  2  0  0  0  0
  4 28  1  0  0  0  0
  5  8  1  0  0  0  0
  5  4  1  0  0  0  0
  6  7  1  0  0  0  0
  6  5  2  0  0  0  0
  7  2  2  0  0  0  0
  8 32  1  0  0  0  0
  9 13  1  0  0  0  0
  9  8  1  0  0  0  0
 10  9  1  0  0  0  0
 11 10  2  0  0  0  0
 11 12  1  0  0  0  0
 12 13  2  0  0  0  0
 13 14  1  0  0  0  0
 14 19  1  0  0  0  0
 14 15  1  0  0  0  0
 15 34  1  0  0  0  0
 15 16  1  0  0  0  0
 16 36  1  0  0  0  0
 16 35  1  0  0  0  0
 17 16  1  0  0  0  0
 17 37  1  0  0  0  0
 18 39  1  0  0  0  0
 18 17  1  0  0  0  0
 19 18  1  0  0  0  0
 19 40  1  0  0  0  0
 20 11  1  0  0  0  0
 21 23  1  0  0  0  0
 21 20  1  0  0  0  0
 22 21  2  0  0  0  0
 23 24  1  0  0  0  0
 24 25  2  0  0  0  0
 24 10  1  0  0  0  0
 26 20  1  0  0  0  0
 26 44  1  0  0  0  0
 26 43  1  0  0  0  0
 29  6  1  0  0  0  0
 30  7  1  0  0  0  0
 31  8  1  0  0  0  0
 33 15  1  0  0  0  0
 38 18  1  0  0  0  0
 41 19  1  0  0  0  0
 42 23  1  0  0  0  0
 45 26  1  0  0  0  0
M  END
>  <Pose>
1

>  <Score>
-6.61

$$$$
