
 OpenBabel03202210193D

 34 37  0  0  1  0  0  0  0  0999 V2000
   20.9020   62.7920  -12.4420 Cl  0  0  0  0  0  0  0  0  0  0  0  0
   21.5350   62.9610  -10.8090 C   0  0  0  0  0  0  0  0  0  0  0  0
   22.8860   62.9900  -10.5660 C   0  0  0  0  0  0  0  0  0  0  0  0
   23.3730   63.1220   -9.2850 C   0  0  0  0  0  0  0  0  0  0  0  0
   22.5410   63.2310   -8.1870 C   0  0  0  0  0  0  0  0  0  0  0  0
   21.1890   63.2010   -8.4510 C   0  0  0  0  0  0  0  0  0  0  0  0
   20.6820   63.0700   -9.7230 C   0  0  0  0  0  0  0  0  0  0  0  0
   23.0940   63.3650   -6.8830 N   0  0  0  0  0  0  0  0  0  0  0  0
   24.0300   62.4940   -6.2300 C   0  0  0  0  0  0  0  0  0  0  0  0
   24.1350   61.2590   -6.5460 O   0  0  0  0  0  0  0  0  0  0  0  0
   24.7770   63.2510   -5.2130 C   0  0  1  0  0  0  0  0  0  0  0  0
   23.8910   64.4480   -4.9630 C   0  0  2  0  0  0  0  0  0  0  0  0
   23.4090   64.4120   -3.5290 C   0  0  2  0  0  0  0  0  0  0  0  0
   24.6610   64.6500   -2.6730 C   0  0  0  0  0  0  0  0  0  0  0  0
   25.5460   63.4640   -2.9290 C   0  0  0  0  0  0  0  0  0  0  0  0
   26.5750   63.3300   -2.3250 O   0  0  0  0  0  0  0  0  0  0  0  0
   25.0650   62.4870   -3.9660 C   0  0  1  0  0  0  0  0  0  0  0  0
   23.7740   61.8880   -3.3960 C   0  0  0  0  0  0  0  0  0  0  0  0
   22.8660   63.0620   -3.1520 C   0  0  0  0  0  0  0  0  0  0  0  0
   21.7760   62.8890   -2.6790 O   0  0  0  0  0  0  0  0  0  0  0  0
   22.8220   64.4090   -5.9590 C   0  0  0  0  0  0  0  0  0  0  0  0
   21.8290   65.1720   -5.9930 O   0  0  0  0  0  0  0  0  0  0  0  0
   23.5540   62.9050  -11.4030 H   0  0  0  0  0  0  0  0  0  0  0  0
   24.4520   63.1460   -9.0820 H   0  0  0  0  0  0  0  0  0  0  0  0
   20.4910   63.2820   -7.6330 H   0  0  0  0  0  0  0  0  0  0  0  0
   19.6050   63.0460   -9.9300 H   0  0  0  0  0  0  0  0  0  0  0  0
   25.7670   63.5630   -5.6460 H   0  0  0  0  0  0  0  0  0  0  0  0
   24.5150   65.3630   -5.0700 H   0  0  0  0  0  0  0  0  0  0  0  0
   22.6360   65.1780   -3.3410 H   0  0  0  0  0  0  0  0  0  0  0  0
   25.1850   65.5200   -3.1550 H   0  0  0  0  0  0  0  0  0  0  0  0
   24.4260   64.7920   -1.6210 H   0  0  0  0  0  0  0  0  0  0  0  0
   25.8370   61.7390   -4.1410 H   0  0  0  0  0  0  0  0  0  0  0  0
   24.0760   61.4000   -2.4310 H   0  0  0  0  0  0  0  0  0  0  0  0
   23.3240   61.1610   -4.0770 H   0  0  0  0  0  0  0  0  0  0  0  0
  1  2  1  0  0  0  0
  2  3  2  0  0  0  0
  2  7  1  0  0  0  0
  3  4  1  0  0  0  0
  4 24  1  0  0  0  0
  4  5  2  0  0  0  0
  5  8  1  0  0  0  0
  6  5  1  0  0  0  0
  6 25  1  0  0  0  0
  7  6  2  0  0  0  0
  8  9  1  0  0  0  0
  8 21  1  0  0  0  0
  9 11  1  0  0  0  0
 10  9  2  0  0  0  0
 11 27  1  6  0  0  0
 11 12  1  0  0  0  0
 11 17  1  0  0  0  0
 12 28  1  6  0  0  0
 12 13  1  0  0  0  0
 13 29  1  1  0  0  0
 13 19  1  0  0  0  0
 13 14  1  0  0  0  0
 14 31  1  0  0  0  0
 15 14  1  0  0  0  0
 15 16  2  0  0  0  0
 17 32  1  6  0  0  0
 17 18  1  0  0  0  0
 17 15  1  0  0  0  0
 18 19  1  0  0  0  0
 18 33  1  0  0  0  0
 19 20  2  0  0  0  0
 21 12  1  0  0  0  0
 22 21  2  0  0  0  0
 23  3  1  0  0  0  0
 26  7  1  0  0  0  0
 30 14  1  0  0  0  0
 34 18  1  0  0  0  0
M  END
>  <Pose>
1

>  <Score>
-5.25

$$$$
