
 OpenBabel03202210193D

 40 43  0  0  0  0  0  0  0  0999 V2000
   25.7100   63.4070  -13.0790 Cl  0  0  0  0  0  0  0  0  0  0  0  0
   24.1250   63.3630  -12.3320 C   0  0  0  0  0  0  0  0  0  0  0  0
   23.9660   63.3780  -10.9660 C   0  0  0  0  0  0  0  0  0  0  0  0
   22.6960   63.3420  -10.3830 C   0  0  0  0  0  0  0  0  0  0  0  0
   21.5910   63.2920  -11.2210 C   0  0  0  0  0  0  0  0  0  0  0  0
   21.7350   63.2770  -12.5880 C   0  0  0  0  0  0  0  0  0  0  0  0
   22.9870   63.3110  -13.1470 C   0  0  0  0  0  0  0  0  0  0  0  0
   20.2320   63.2530  -10.6520 C   0  0  0  0  0  0  0  0  0  0  0  0
   19.0610   63.2060  -11.1900 N   0  0  0  0  0  0  0  0  0  0  0  0
   18.0070   63.1840  -10.2120 C   0  0  0  0  0  0  0  0  0  0  0  0
   18.7240   63.2290   -8.8980 C   0  0  0  0  0  0  0  0  0  0  0  0
   20.1200   63.2710   -9.2430 N   0  0  0  0  0  0  0  0  0  0  0  0
   21.2710   63.3230   -8.4110 C   0  0  0  0  0  0  0  0  0  0  0  0
   21.1920   63.3410   -7.1500 O   0  0  0  0  0  0  0  0  0  0  0  0
   22.6000   63.3610   -8.9640 N   0  0  0  0  0  0  0  0  0  0  0  0
   23.7650   63.4140   -8.0920 C   0  0  0  0  0  0  0  0  0  0  0  0
   23.7040   64.5870   -7.1900 C   0  0  0  0  0  0  0  0  0  0  0  0
   23.2120   65.6520   -7.6360 O   0  0  0  0  0  0  0  0  0  0  0  0
   24.1710   64.5610   -5.8540 N   0  0  0  0  0  0  0  0  0  0  0  0
   23.7920   63.5190   -4.9300 C   0  0  0  0  0  0  0  0  0  0  0  0
   25.0190   62.8210   -4.4080 C   0  0  0  0  0  0  0  0  0  0  0  0
   24.8960   61.8900   -3.2540 C   0  0  0  0  0  0  0  0  0  0  0  0
   25.5050   63.2240   -3.0470 C   0  0  0  0  0  0  0  0  0  0  0  0
   24.8340   63.4190  -10.3090 H   0  0  0  0  0  0  0  0  0  0  0  0
   20.8770   63.2370  -13.2240 H   0  0  0  0  0  0  0  0  0  0  0  0
   23.1650   63.3020  -14.2270 H   0  0  0  0  0  0  0  0  0  0  0  0
   17.3530   62.2920  -10.3060 H   0  0  0  0  0  0  0  0  0  0  0  0
   17.3840   64.1180  -10.2870 H   0  0  0  0  0  0  0  0  0  0  0  0
   18.4190   64.1110   -8.2790 H   0  0  0  0  0  0  0  0  0  0  0  0
   18.4810   62.2820   -8.3590 H   0  0  0  0  0  0  0  0  0  0  0  0
   24.7170   63.2880   -8.6130 H   0  0  0  0  0  0  0  0  0  0  0  0
   23.6670   62.5100   -7.4180 H   0  0  0  0  0  0  0  0  0  0  0  0
   24.8070   65.3250   -5.5480 H   0  0  0  0  0  0  0  0  0  0  0  0
   23.1000   62.7960   -5.4460 H   0  0  0  0  0  0  0  0  0  0  0  0
   23.2280   63.9740   -4.1000 H   0  0  0  0  0  0  0  0  0  0  0  0
   25.8290   62.7040   -5.1580 H   0  0  0  0  0  0  0  0  0  0  0  0
   23.8750   61.6740   -2.8650 H   0  0  0  0  0  0  0  0  0  0  0  0
   25.5370   60.9780   -3.2800 H   0  0  0  0  0  0  0  0  0  0  0  0
   24.8760   63.9700   -2.5100 H   0  0  0  0  0  0  0  0  0  0  0  0
   26.6020   63.2740   -2.8640 H   0  0  0  0  0  0  0  0  0  0  0  0
  1  2  1  0  0  0  0
  2  3  1  0  0  0  0
  3  4  2  0  0  0  0
  3 24  1  0  0  0  0
  4 15  1  0  0  0  0
  5  8  1  0  0  0  0
  5  4  1  0  0  0  0
  6  5  2  0  0  0  0
  7  6  1  0  0  0  0
  7  2  2  0  0  0  0
  8 12  1  0  0  0  0
  9  8  2  0  0  0  0
  9 10  1  0  0  0  0
 10 11  1  0  0  0  0
 11 30  1  0  0  0  0
 11 29  1  0  0  0  0
 12 11  1  0  0  0  0
 12 13  1  0  0  0  0
 13 14  2  0  0  0  0
 15 13  1  0  0  0  0
 15 16  1  0  0  0  0
 16 32  1  0  0  0  0
 16 17  1  0  0  0  0
 17 19  1  0  0  0  0
 18 17  2  0  0  0  0
 19 33  1  0  0  0  0
 19 20  1  0  0  0  0
 20 21  1  0  0  0  0
 20 35  1  0  0  0  0
 21 22  1  0  0  0  0
 21 23  1  0  0  0  0
 22 23  1  0  0  0  0
 22 37  1  0  0  0  0
 23 40  1  0  0  0  0
 23 39  1  0  0  0  0
 25  6  1  0  0  0  0
 26  7  1  0  0  0  0
 27 10  1  0  0  0  0
 28 10  1  0  0  0  0
 31 16  1  0  0  0  0
 34 20  1  0  0  0  0
 36 21  1  0  0  0  0
 38 22  1  0  0  0  0
M  END
>  <Pose>
1

>  <Score>
-6.47

$$$$
