
 OpenBabel03202210193D

 63 66  0  0  1  0  0  0  0  0999 V2000
   14.5040   63.7690  -11.0910 Cl  0  0  0  0  0  0  0  0  0  0  0  0
   16.1720   63.3390  -10.7900 C   0  0  0  0  0  0  0  0  0  0  0  0
   16.5570   62.0900  -10.3650 C   0  0  0  0  0  0  0  0  0  0  0  0
   17.8880   61.8030  -10.1410 C   0  0  0  0  0  0  0  0  0  0  0  0
   18.9060   62.7480  -10.3290 C   0  0  0  0  0  0  0  0  0  0  0  0
   18.4910   63.9870  -10.7560 C   0  0  0  0  0  0  0  0  0  0  0  0
   17.1400   64.2830  -10.9840 C   0  0  0  0  0  0  0  0  0  0  0  0
   20.2840   62.3630  -10.1190 C   0  0  0  0  0  0  0  0  0  0  0  0
   21.1090   63.0380   -9.3360 C   0  0  0  0  0  0  0  0  0  0  0  0
   22.5540   62.6900   -9.0850 C   0  0  2  0  0  0  0  0  0  0  0  0
   22.9480   63.4810   -7.9550 N   0  0  0  0  0  0  0  0  0  0  0  0
   21.9690   64.4680   -7.6670 C   0  0  0  0  0  0  0  0  0  0  0  0
   22.0590   65.3930   -6.8460 O   0  0  0  0  0  0  0  0  0  0  0  0
   20.8060   64.1850   -8.5400 C   0  0  0  0  0  0  0  0  0  0  0  0
   19.7490   64.8590   -8.5500 O   0  0  0  0  0  0  0  0  0  0  0  0
   24.1750   63.2980   -7.1870 C   0  0  0  0  0  0  0  0  0  0  0  0
   24.2100   64.2660   -6.0550 C   0  0  0  0  0  0  0  0  0  0  0  0
   24.9590   63.7280   -4.9080 N   0  0  0  0  0  4  0  0  0  0  0  0
   26.0960   63.0230   -5.4140 C   0  0  0  0  0  0  0  0  0  0  0  0
   26.7120   62.1050   -4.3600 C   0  0  0  0  0  0  0  0  0  0  0  0
   25.6880   61.2290   -3.9600 O   0  0  0  0  0  0  0  0  0  0  0  0
   24.7790   61.9680   -3.2330 C   0  0  0  0  0  0  0  0  0  0  0  0
   24.0330   62.8940   -4.1730 C   0  0  0  0  0  0  0  0  0  0  0  0
   23.2910   63.0220  -10.3340 C   0  0  0  0  0  0  0  0  0  0  0  0
   22.6190   63.1230  -11.5180 C   0  0  0  0  0  0  0  0  0  0  0  0
   23.3010   63.4410  -12.6580 C   0  0  0  0  0  0  0  0  0  0  0  0
   24.6610   63.6660  -12.6510 C   0  0  0  0  0  0  0  0  0  0  0  0
   25.3430   63.5640  -11.4530 C   0  0  0  0  0  0  0  0  0  0  0  0
   24.6460   63.2420  -10.2990 C   0  0  0  0  0  0  0  0  0  0  0  0
   25.3480   63.9890  -13.8160 O   0  0  0  0  0  0  0  0  0  0  0  0
   24.9780   63.3160  -15.0280 C   0  0  0  0  0  0  0  0  0  0  0  0
   26.2480   62.8990  -15.7640 C   0  0  0  0  0  0  0  0  0  0  0  0
   27.4000   63.6630  -15.1280 C   0  0  0  0  0  0  0  0  0  0  0  0
   20.8270   61.2220  -10.7550 O   0  0  0  0  0  0  0  0  0  0  0  0
   15.7830   61.3520  -10.2150 H   0  0  0  0  0  0  0  0  0  0  0  0
   18.1740   60.8130   -9.8070 H   0  0  0  0  0  0  0  0  0  0  0  0
   19.2320   64.7520  -10.9490 H   0  0  0  0  0  0  0  0  0  0  0  0
   16.8620   65.2810  -11.3200 H   0  0  0  0  0  0  0  0  0  0  0  0
   22.6360   61.6010   -8.8830 H   0  0  0  0  0  0  0  0  0  0  0  0
   25.0360   63.4920   -7.8660 H   0  0  0  0  0  0  0  0  0  0  0  0
   24.2190   62.2550   -6.8350 H   0  0  0  0  0  0  0  0  0  0  0  0
   23.2010   64.5010   -5.6800 H   0  0  0  0  0  0  0  0  0  0  0  0
   24.7460   65.1990   -6.3680 H   0  0  0  0  0  0  0  0  0  0  0  0
   25.2860   64.5110   -4.2840 H   0  0  0  0  0  0  0  0  0  0  0  0
   26.8700   63.7960   -5.6740 H   0  0  0  0  0  0  0  0  0  0  0  0
   25.8450   62.3880   -6.2880 H   0  0  0  0  0  0  0  0  0  0  0  0
   27.0360   62.7620   -3.5340 H   0  0  0  0  0  0  0  0  0  0  0  0
   27.5210   61.5400   -4.8260 H   0  0  0  0  0  0  0  0  0  0  0  0
   24.0250   61.3050   -2.7760 H   0  0  0  0  0  0  0  0  0  0  0  0
   25.2500   62.5940   -2.4620 H   0  0  0  0  0  0  0  0  0  0  0  0
   23.3970   63.5700   -3.5650 H   0  0  0  0  0  0  0  0  0  0  0  0
   23.4230   62.3320   -4.9050 H   0  0  0  0  0  0  0  0  0  0  0  0
   21.5510   62.9560  -11.5770 H   0  0  0  0  0  0  0  0  0  0  0  0
   22.7800   63.5240  -13.6060 H   0  0  0  0  0  0  0  0  0  0  0  0
   26.4080   63.7450  -11.4680 H   0  0  0  0  0  0  0  0  0  0  0  0
   25.2400   63.1750   -9.3840 H   0  0  0  0  0  0  0  0  0  0  0  0
   24.4050   62.4060  -14.7930 H   0  0  0  0  0  0  0  0  0  0  0  0
   24.3580   63.9830  -15.6550 H   0  0  0  0  0  0  0  0  0  0  0  0
   26.4080   61.8180  -15.5720 H   0  0  0  0  0  0  0  0  0  0  0  0
   26.1620   63.1150  -16.8460 H   0  0  0  0  0  0  0  0  0  0  0  0
   28.3120   63.0530  -15.1330 H   0  0  0  0  0  0  0  0  0  0  0  0
   27.1850   63.9160  -14.0620 H   0  0  0  0  0  0  0  0  0  0  0  0
   27.5570   64.5860  -15.7200 H   0  0  0  0  0  0  0  0  0  0  0  0
  1  2  1  0  0  0  0
  2  3  1  0  0  0  0
  3 35  1  0  0  0  0
  3  4  2  0  0  0  0
  4 36  1  0  0  0  0
  5  4  1  0  0  0  0
  5  8  1  0  0  0  0
  6  5  2  0  0  0  0
  7  2  2  0  0  0  0
  7  6  1  0  0  0  0
  8  9  2  0  0  0  0
  9 10  1  0  0  0  0
  9 14  1  0  0  0  0
 10 39  1  1  0  0  0
 10 11  1  0  0  0  0
 11 12  1  0  0  0  0
 11 16  1  0  0  0  0
 12 13  2  0  0  0  0
 14 12  1  0  0  0  0
 15 14  2  0  0  0  0
 16 41  1  0  0  0  0
 16 17  1  0  0  0  0
 17 42  1  0  0  0  0
 17 18  1  0  0  0  0
 18 44  1  0  0  0  0
 18 23  1  0  0  0  0
 19 18  1  0  0  0  0
 19 20  1  0  0  0  0
 20 21  1  0  0  0  0
 20 47  1  0  0  0  0
 21 22  1  0  0  0  0
 22 49  1  0  0  0  0
 22 50  1  0  0  0  0
 23 51  1  0  0  0  0
 23 22  1  0  0  0  0
 24 29  1  0  0  0  0
 24 10  1  0  0  0  0
 25 24  2  0  0  0  0
 26 27  2  0  0  0  0
 26 25  1  0  0  0  0
 27 28  1  0  0  0  0
 28 29  2  0  0  0  0
 29 56  1  0  0  0  0
 30 27  1  0  0  0  0
 31 57  1  0  0  0  0
 31 30  1  0  0  0  0
 32 59  1  0  0  0  0
 32 33  1  0  0  0  0
 32 31  1  0  0  0  0
 33 62  1  0  0  0  0
 34  8  1  0  0  0  0
 37  6  1  0  0  0  0
 38  7  1  0  0  0  0
 40 16  1  0  0  0  0
 43 17  1  0  0  0  0
 45 19  1  0  0  0  0
 46 19  1  0  0  0  0
 48 20  1  0  0  0  0
 52 23  1  0  0  0  0
 53 25  1  0  0  0  0
 54 26  1  0  0  0  0
 55 28  1  0  0  0  0
 58 31  1  0  0  0  0
 60 32  1  0  0  0  0
 61 33  1  0  0  0  0
 63 33  1  0  0  0  0
M  END
>  <Pose>
1

>  <Score>
-6.03

$$$$
