
 OpenBabel03202210193D

 57 61  0  0  1  0  0  0  0  0999 V2000
   24.6070   71.4510   -4.2020 Cl  0  0  0  0  0  0  0  0  0  0  0  0
   23.6280   70.2790   -5.0680 C   0  0  0  0  0  0  0  0  0  0  0  0
   22.3890   69.8740   -4.6090 C   0  0  0  0  0  0  0  0  0  0  0  0
   21.6330   68.9590   -5.2930 C   0  0  0  0  0  0  0  0  0  0  0  0
   22.0790   68.3910   -6.4860 C   0  0  0  0  0  0  0  0  0  0  0  0
   23.3090   68.7860   -6.9530 C   0  0  0  0  0  0  0  0  0  0  0  0
   24.0470   69.7060   -6.2480 C   0  0  0  0  0  0  0  0  0  0  0  0
   21.2270   67.4140   -7.2210 C   0  0  1  0  0  0  0  0  0  0  0  0
   20.6610   68.0380   -8.3020 O   0  0  0  0  0  0  0  0  0  0  0  0
   21.9500   66.1380   -7.5590 C   0  0  2  0  0  0  0  0  0  0  0  0
   21.2200   65.5530   -8.6770 N   0  0  0  0  0  0  0  0  0  0  0  0
   21.2010   64.1210   -8.4580 C   0  0  1  0  0  0  0  0  0  0  0  0
   21.1460   64.0190   -6.9610 C   0  0  2  0  0  0  0  0  0  0  0  0
   21.9940   65.1450   -6.4590 C   0  0  1  0  0  0  0  0  0  0  0  0
   23.3480   64.5680   -6.2380 C   0  0  0  0  0  0  0  0  0  0  0  0
   24.4140   65.2070   -6.0670 O   0  0  0  0  0  0  0  0  0  0  0  0
   23.1880   63.1330   -6.2590 N   0  0  0  0  0  0  0  0  0  0  0  0
   21.8160   62.8310   -6.4060 C   0  0  0  0  0  0  0  0  0  0  0  0
   21.2430   61.7500   -6.1240 O   0  0  0  0  0  0  0  0  0  0  0  0
   24.2560   62.1820   -6.1580 C   0  0  0  0  0  0  0  0  0  0  0  0
   25.1260   62.3050   -4.9640 C   0  0  0  0  0  0  0  0  0  0  0  0
   24.5820   61.7820   -3.6810 C   0  0  0  0  0  0  0  0  0  0  0  0
   23.9750   62.7590   -2.9020 O   0  0  0  0  0  0  0  0  0  0  0  0
   22.5930   62.7900   -3.1870 C   0  0  0  0  0  0  0  0  0  0  0  0
   20.0260   63.4760   -9.0940 C   0  0  0  0  0  0  0  0  0  0  0  0
   20.5170   62.5930  -10.0260 C   0  0  0  0  0  0  0  0  0  0  0  0
   19.6210   61.8430  -10.7760 C   0  0  0  0  0  0  0  0  0  0  0  0
   18.2720   62.0020  -10.5670 C   0  0  0  0  0  0  0  0  0  0  0  0
   17.7670   62.8880   -9.6300 C   0  0  0  0  0  0  0  0  0  0  0  0
   18.6680   63.6270   -8.8930 C   0  0  0  0  0  0  0  0  0  0  0  0
   21.9560   62.6190  -10.0540 N   0  0  0  0  0  0  0  0  0  0  0  0
   22.3830   63.5640   -9.0910 C   0  0  0  0  0  0  0  0  0  0  0  0
   23.5750   63.8340   -8.8690 O   0  0  0  0  0  0  0  0  0  0  0  0
   22.0110   70.3020   -3.6750 H   0  0  0  0  0  0  0  0  0  0  0  0
   20.6460   68.6410   -4.9200 H   0  0  0  0  0  0  0  0  0  0  0  0
   23.7230   68.4030   -7.8760 H   0  0  0  0  0  0  0  0  0  0  0  0
   25.0300   70.0330   -6.6060 H   0  0  0  0  0  0  0  0  0  0  0  0
   20.4030   67.1370   -6.4630 H   0  0  0  0  0  0  0  0  0  0  0  0
   21.1910   67.8020   -9.1050 H   0  0  0  0  0  0  0  0  0  0  0  0
   22.9760   66.3900   -7.9560 H   0  0  0  0  0  0  0  0  0  0  0  0
   21.6650   65.8000   -9.5680 H   0  0  0  0  0  0  0  0  0  0  0  0
   20.0960   64.0940   -6.6170 H   0  0  0  0  0  0  0  0  0  0  0  0
   21.6430   65.5340   -5.4890 H   0  0  0  0  0  0  0  0  0  0  0  0
   24.8660   62.2400   -7.0800 H   0  0  0  0  0  0  0  0  0  0  0  0
   23.8540   61.1270   -6.1570 H   0  0  0  0  0  0  0  0  0  0  0  0
   26.0540   61.6930   -5.1770 H   0  0  0  0  0  0  0  0  0  0  0  0
   25.5390   63.3380   -4.8190 H   0  0  0  0  0  0  0  0  0  0  0  0
   25.3270   61.2810   -3.0410 H   0  0  0  0  0  0  0  0  0  0  0  0
   23.8030   61.0230   -3.9390 H   0  0  0  0  0  0  0  0  0  0  0  0
   22.4090   63.0230   -4.2500 H   0  0  0  0  0  0  0  0  0  0  0  0
   22.1900   61.7700   -3.0050 H   0  0  0  0  0  0  0  0  0  0  0  0
   22.0680   63.4870   -2.5050 H   0  0  0  0  0  0  0  0  0  0  0  0
   20.0090   61.1350  -11.5230 H   0  0  0  0  0  0  0  0  0  0  0  0
   17.5830   61.4060  -11.1610 H   0  0  0  0  0  0  0  0  0  0  0  0
   16.6940   62.9610   -9.5200 H   0  0  0  0  0  0  0  0  0  0  0  0
   18.2780   64.3340   -8.1450 H   0  0  0  0  0  0  0  0  0  0  0  0
   22.5250   62.0190  -10.6950 H   0  0  0  0  0  0  0  0  0  0  0  0
  2  3  1  0  0  0  0
  2  1  1  0  0  0  0
  3 34  1  0  0  0  0
  4 35  1  0  0  0  0
  4  3  2  0  0  0  0
  5  4  1  0  0  0  0
  6  5  2  0  0  0  0
  6  7  1  0  0  0  0
  7  2  2  0  0  0  0
  8  5  1  0  0  0  0
  8 38  1  1  0  0  0
  9  8  1  0  0  0  0
 10 40  1  6  0  0  0
 10  8  1  0  0  0  0
 10 14  1  0  0  0  0
 11 12  1  0  0  0  0
 11 10  1  0  0  0  0
 12 25  1  6  0  0  0
 12 13  1  0  0  0  0
 13 42  1  1  0  0  0
 13 14  1  0  0  0  0
 13 18  1  0  0  0  0
 14 15  1  0  0  0  0
 14 43  1  1  0  0  0
 15 16  2  0  0  0  0
 17 15  1  0  0  0  0
 17 20  1  0  0  0  0
 18 17  1  0  0  0  0
 18 19  2  0  0  0  0
 20 45  1  0  0  0  0
 20 21  1  0  0  0  0
 21 47  1  0  0  0  0
 21 22  1  0  0  0  0
 22 48  1  0  0  0  0
 22 23  1  0  0  0  0
 24 51  1  0  0  0  0
 24 23  1  0  0  0  0
 24 52  1  0  0  0  0
 25 30  1  0  0  0  0
 26 25  2  0  0  0  0
 27 28  2  0  0  0  0
 27 26  1  0  0  0  0
 28 29  1  0  0  0  0
 29 55  1  0  0  0  0
 29 30  2  0  0  0  0
 30 56  1  0  0  0  0
 31 26  1  0  0  0  0
 31 32  1  0  0  0  0
 32 33  2  0  0  0  0
 32 12  1  0  0  0  0
 36  6  1  0  0  0  0
 37  7  1  0  0  0  0
 39  9  1  0  0  0  0
 41 11  1  0  0  0  0
 44 20  1  0  0  0  0
 46 21  1  0  0  0  0
 49 22  1  0  0  0  0
 50 24  1  0  0  0  0
 53 27  1  0  0  0  0
 54 28  1  0  0  0  0
 57 31  1  0  0  0  0
M  END
>  <Pose>
1

>  <Score>
-6.46

$$$$
