
 OpenBabel03202210193D

 48 51  0  0  1  0  0  0  0  0999 V2000
   13.6210   64.8710  -13.0560 Cl  0  0  0  0  0  0  0  0  0  0  0  0
   14.4640   63.7570  -12.0030 C   0  0  0  0  0  0  0  0  0  0  0  0
   14.1740   62.3970  -12.0310 C   0  0  0  0  0  0  0  0  0  0  0  0
   14.8450   61.5290  -11.1960 C   0  0  0  0  0  0  0  0  0  0  0  0
   15.8130   61.9590  -10.3140 C   0  0  0  0  0  0  0  0  0  0  0  0
   16.1060   63.3050  -10.2800 C   0  0  0  0  0  0  0  0  0  0  0  0
   15.4370   64.1730  -11.1140 C   0  0  0  0  0  0  0  0  0  0  0  0
   16.5480   61.0590   -9.4120 C   0  0  0  0  0  0  0  0  0  0  0  0
   18.0130   61.0540   -9.7260 C   0  0  0  0  0  0  0  0  0  0  0  0
   18.6410   59.9610   -9.5030 O   0  0  0  0  0  0  0  0  0  0  0  0
   18.6590   62.1880  -10.2390 N   0  0  0  0  0  0  0  0  0  0  0  0
   19.0230   62.2980  -11.6160 C   0  0  0  0  0  0  0  0  0  0  0  0
   20.1970   63.1990  -11.8770 C   0  0  0  0  0  0  0  0  0  0  0  0
   21.0490   63.2920  -10.6670 C   0  0  2  0  0  0  0  0  0  0  0  0
   20.4830   63.3410   -9.4070 C   0  0  0  0  0  0  0  0  0  0  0  0
   21.2430   63.4310   -8.3090 N   0  0  0  0  0  0  0  0  0  0  0  0
   22.5910   63.4790   -8.3570 C   0  0  2  0  0  0  0  0  0  0  0  0
   23.1500   63.4310   -9.5900 N   0  0  0  0  0  0  0  0  0  0  0  0
   22.4290   63.3410  -10.7210 C   0  0  0  0  0  0  0  0  0  0  0  0
   23.0340   63.2940  -11.9690 O   0  0  0  0  0  0  0  0  0  0  0  0
   23.3440   63.5700   -7.1730 N   0  0  0  0  0  0  0  0  0  0  0  0
   24.4830   62.7270   -6.9640 C   0  0  0  0  0  0  0  0  0  0  0  0
   25.3660   63.4460   -5.9340 C   0  0  0  0  0  0  0  0  0  0  0  0
   24.7140   63.5900   -4.7350 O   0  0  0  0  0  0  0  0  0  0  0  0
   23.4320   64.0660   -4.7980 C   0  0  0  0  0  0  0  0  0  0  0  0
   22.9770   64.5140   -6.1600 C   0  0  0  0  0  0  0  0  0  0  0  0
   18.9750   63.2800   -9.3610 C   0  0  0  0  0  0  0  0  0  0  0  0
   13.4190   62.0530  -12.7170 H   0  0  0  0  0  0  0  0  0  0  0  0
   14.6250   60.4650  -11.2100 H   0  0  0  0  0  0  0  0  0  0  0  0
   16.8700   63.7100   -9.5970 H   0  0  0  0  0  0  0  0  0  0  0  0
   15.6650   65.2500  -11.0940 H   0  0  0  0  0  0  0  0  0  0  0  0
   16.1060   60.0370   -9.5210 H   0  0  0  0  0  0  0  0  0  0  0  0
   16.3520   61.3960   -8.3710 H   0  0  0  0  0  0  0  0  0  0  0  0
   19.1200   61.3120  -12.1230 H   0  0  0  0  0  0  0  0  0  0  0  0
   18.1530   62.7900  -12.1600 H   0  0  0  0  0  0  0  0  0  0  0  0
   19.8750   64.2440  -12.1650 H   0  0  0  0  0  0  0  0  0  0  0  0
   20.8050   62.8590  -12.7480 H   0  0  0  0  0  0  0  0  0  0  0  0
   23.1660   64.1320  -12.5410 H   0  0  0  0  0  0  0  0  0  0  0  0
   25.1190   62.6230   -7.8730 H   0  0  0  0  0  0  0  0  0  0  0  0
   24.2210   61.7030   -6.6000 H   0  0  0  0  0  0  0  0  0  0  0  0
   25.5540   64.4560   -6.3530 H   0  0  0  0  0  0  0  0  0  0  0  0
   26.3190   62.9350   -5.8000 H   0  0  0  0  0  0  0  0  0  0  0  0
   22.7080   63.3150   -4.4100 H   0  0  0  0  0  0  0  0  0  0  0  0
   23.3660   64.9660   -4.1270 H   0  0  0  0  0  0  0  0  0  0  0  0
   23.3750   65.5440   -6.3730 H   0  0  0  0  0  0  0  0  0  0  0  0
   21.8660   64.5770   -6.1160 H   0  0  0  0  0  0  0  0  0  0  0  0
   18.6300   63.0780   -8.3300 H   0  0  0  0  0  0  0  0  0  0  0  0
   18.5480   64.2470   -9.7070 H   0  0  0  0  0  0  0  0  0  0  0  0
  1  2  1  0  0  0  0
  2  7  1  0  0  0  0
  3  2  2  0  0  0  0
  3  4  1  0  0  0  0
  4  5  2  0  0  0  0
  5  6  1  0  0  0  0
  5  8  1  0  0  0  0
  6 30  1  0  0  0  0
  7 31  1  0  0  0  0
  7  6  2  0  0  0  0
  8 33  1  0  0  0  0
  9 10  2  0  0  0  0
  9  8  1  0  0  0  0
 11  9  1  0  0  0  0
 11 27  1  0  0  0  0
 12 11  1  0  0  0  0
 13 12  1  0  0  0  0
 13 14  1  0  0  0  0
 14 19  1  6  0  0  0
 14 15  1  0  0  0  0
 15 27  1  0  0  0  0
 15 16  2  0  0  0  0
 17 16  1  0  0  0  0
 17 21  1  1  0  0  0
 18 17  1  0  0  0  0
 19 18  2  0  0  0  0
 20 19  1  0  0  0  0
 21 22  1  0  0  0  0
 21 26  1  0  0  0  0
 22 40  1  0  0  0  0
 22 23  1  0  0  0  0
 23 42  1  0  0  0  0
 23 24  1  0  0  0  0
 25 24  1  0  0  0  0
 25 43  1  0  0  0  0
 25 44  1  0  0  0  0
 26 46  1  0  0  0  0
 26 25  1  0  0  0  0
 27 47  1  0  0  0  0
 28  3  1  0  0  0  0
 29  4  1  0  0  0  0
 32  8  1  0  0  0  0
 34 12  1  0  0  0  0
 35 12  1  0  0  0  0
 36 13  1  0  0  0  0
 37 13  1  0  0  0  0
 38 20  1  0  0  0  0
 39 22  1  0  0  0  0
 41 23  1  0  0  0  0
 45 26  1  0  0  0  0
 48 27  1  0  0  0  0
M  END
>  <Pose>
1

>  <Score>
-6.32

$$$$
