
 OpenBabel03202210193D

 42 45  0  0  1  0  0  0  0  0999 V2000
   24.8800   63.3680   -2.5440 Cl  0  0  0  0  0  0  0  0  0  0  0  0
   24.6210   63.1890   -4.2790 C   0  0  0  0  0  0  0  0  0  0  0  0
   23.5820   63.8210   -4.9320 C   0  0  0  0  0  0  0  0  0  0  0  0
   23.3670   63.6960   -6.2630 N   0  0  0  0  0  0  0  0  0  0  0  0
   24.1640   62.9370   -7.0390 C   0  0  0  0  0  0  0  0  0  0  0  0
   23.9630   62.8000   -8.3760 N   0  0  0  0  0  0  0  0  0  0  0  0
   22.9530   63.4120   -9.0200 C   0  0  0  0  0  0  0  0  0  0  0  0
   22.1200   64.2000   -8.2330 C   0  0  2  0  0  0  0  0  0  0  0  0
   21.0040   64.8770   -8.9430 C   0  0  0  0  0  0  0  0  0  0  0  0
   20.4230   63.8490   -9.8140 N   0  0  0  0  0  0  0  0  0  0  0  0
   21.2640   63.2900  -10.8340 C   0  0  0  0  0  0  0  0  0  0  0  0
   22.7240   63.2720  -10.4810 C   0  0  0  0  0  0  0  0  0  0  0  0
   19.0850   63.4300   -9.6390 C   0  0  0  0  0  0  0  0  0  0  0  0
   18.6130   63.4830   -8.4530 O   0  0  0  0  0  0  0  0  0  0  0  0
   18.2410   62.9480  -10.7540 C   0  0  0  0  0  0  0  0  0  0  0  0
   18.0880   63.9840  -11.8460 C   0  0  0  0  0  0  0  0  0  0  0  0
   17.8800   65.3120  -11.1290 C   0  0  0  0  0  0  0  0  0  0  0  0
   17.0830   65.1280  -10.0000 O   0  0  0  0  0  0  0  0  0  0  0  0
   16.1620   64.0890  -10.1870 C   0  0  0  0  0  0  0  0  0  0  0  0
   16.8250   62.7250  -10.2020 C   0  0  0  0  0  0  0  0  0  0  0  0
   22.3480   64.3210   -6.8800 C   0  0  0  0  0  0  0  0  0  0  0  0
   21.5710   65.0490   -6.1810 O   0  0  0  0  0  0  0  0  0  0  0  0
   25.2120   62.2940   -6.4020 C   0  0  0  0  0  0  0  0  0  0  0  0
   25.4530   62.4050   -5.0490 C   0  0  0  0  0  0  0  0  0  0  0  0
   22.9130   64.4450   -4.3440 H   0  0  0  0  0  0  0  0  0  0  0  0
   21.4070   65.7240   -9.5060 H   0  0  0  0  0  0  0  0  0  0  0  0
   20.2300   65.2490   -8.2560 H   0  0  0  0  0  0  0  0  0  0  0  0
   20.9840   62.2330  -11.0500 H   0  0  0  0  0  0  0  0  0  0  0  0
   21.0860   63.9110  -11.7600 H   0  0  0  0  0  0  0  0  0  0  0  0
   23.2580   64.1340  -10.9790 H   0  0  0  0  0  0  0  0  0  0  0  0
   23.2320   62.3400  -10.8070 H   0  0  0  0  0  0  0  0  0  0  0  0
   18.6520   61.9920  -11.1490 H   0  0  0  0  0  0  0  0  0  0  0  0
   17.1030   63.7740  -12.3510 H   0  0  0  0  0  0  0  0  0  0  0  0
   18.8870   64.0050  -12.5800 H   0  0  0  0  0  0  0  0  0  0  0  0
   18.8670   65.6500  -10.7730 H   0  0  0  0  0  0  0  0  0  0  0  0
   17.4840   66.0920  -11.8030 H   0  0  0  0  0  0  0  0  0  0  0  0
   15.4840   64.1060   -9.3080 H   0  0  0  0  0  0  0  0  0  0  0  0
   15.5310   64.2560  -11.0790 H   0  0  0  0  0  0  0  0  0  0  0  0
   16.8490   62.2450   -9.2200 H   0  0  0  0  0  0  0  0  0  0  0  0
   16.2950   62.1340  -10.9850 H   0  0  0  0  0  0  0  0  0  0  0  0
   25.8620   61.6770   -7.0260 H   0  0  0  0  0  0  0  0  0  0  0  0
   26.2770   61.8980   -4.5570 H   0  0  0  0  0  0  0  0  0  0  0  0
  2  1  1  0  0  0  0
  3 25  1  0  0  0  0
  3  2  1  0  0  0  0
  4  3  1  0  0  0  0
  5 23  2  0  0  0  0
  5  4  1  0  0  0  0
  6  5  1  0  0  0  0
  7  6  2  0  0  0  0
  8  7  1  6  0  0  0
  8 21  1  0  0  0  0
  9 27  1  0  0  0  0
  9  8  1  0  0  0  0
 10 13  1  0  0  0  0
 10  9  1  0  0  0  0
 11 12  1  0  0  0  0
 11 10  1  0  0  0  0
 12  7  1  0  0  0  0
 13 14  2  0  0  0  0
 15 20  1  0  0  0  0
 15 13  1  0  0  0  0
 16 17  1  0  0  0  0
 16 15  1  0  0  0  0
 17 35  1  0  0  0  0
 17 18  1  0  0  0  0
 19 18  1  0  0  0  0
 19 37  1  0  0  0  0
 20 19  1  0  0  0  0
 20 39  1  0  0  0  0
 21  4  1  0  0  0  0
 21 22  2  0  0  0  0
 23 24  1  0  0  0  0
 24 42  1  0  0  0  0
 24  2  2  0  0  0  0
 26  9  1  0  0  0  0
 28 11  1  0  0  0  0
 29 11  1  0  0  0  0
 30 12  1  0  0  0  0
 31 12  1  0  0  0  0
 32 15  1  0  0  0  0
 33 16  1  0  0  0  0
 34 16  1  0  0  0  0
 36 17  1  0  0  0  0
 38 19  1  0  0  0  0
 40 20  1  0  0  0  0
 41 23  1  0  0  0  0
M  END
>  <Pose>
1

>  <Score>
-5.35

$$$$
