
 OpenBabel03202210193D

 41 44  0  0  0  0  0  0  0  0999 V2000
   16.9620   65.2680  -10.7320 F   0  0  0  0  0  0  0  0  0  0  0  0
   16.2080   64.1460  -10.6470 C   0  0  0  0  0  0  0  0  0  0  0  0
   16.8480   62.9370  -10.4230 C   0  0  0  0  0  0  0  0  0  0  0  0
   16.1460   61.7550  -10.3250 C   0  0  0  0  0  0  0  0  0  0  0  0
   14.7700   61.8130  -10.4600 C   0  0  0  0  0  0  0  0  0  0  0  0
   14.1330   63.0120  -10.6830 C   0  0  0  0  0  0  0  0  0  0  0  0
   14.8400   64.1880  -10.7790 C   0  0  0  0  0  0  0  0  0  0  0  0
   13.8710   60.3110  -10.3370 Cl  0  0  0  0  0  0  0  0  0  0  0  0
   17.0330   60.6340  -10.0900 C   0  0  0  0  0  0  0  0  0  0  0  0
   16.7410   59.4250   -9.9510 O   0  0  0  0  0  0  0  0  0  0  0  0
   18.3740   61.2040  -10.0450 C   0  0  0  0  0  0  0  0  0  0  0  0
   19.4450   60.5470   -9.8570 O   0  0  0  0  0  0  0  0  0  0  0  0
   18.2410   62.6020  -10.2490 N   0  0  0  0  0  0  0  0  0  0  0  0
   19.3080   63.5800  -10.2880 C   0  0  0  0  0  0  0  0  0  0  0  0
   20.2360   63.4620   -9.1830 N   0  0  0  0  0  0  0  0  0  0  0  0
   21.5390   63.8910   -9.5600 C   0  0  0  0  0  0  0  0  0  0  0  0
   22.2430   64.7530   -8.5720 C   0  0  0  0  0  0  0  0  0  0  0  0
   21.3830   65.6990   -7.9110 N   0  0  0  0  0  0  0  0  0  0  0  0
   19.9560   65.4810   -7.9550 C   0  0  0  0  0  0  0  0  0  0  0  0
   19.7430   63.9820   -7.9520 C   0  0  0  0  0  0  0  0  0  0  0  0
   21.8840   66.8260   -7.2210 C   0  0  0  0  0  0  0  0  0  0  0  0
   23.1770   66.9130   -6.8690 N   0  0  0  0  0  0  0  0  0  0  0  0
   23.6790   67.9760   -6.2110 C   0  0  0  0  0  0  0  0  0  0  0  0
   22.8610   69.0360   -5.8690 C   0  0  0  0  0  0  0  0  0  0  0  0
   21.5670   68.9550   -6.2190 N   0  0  0  0  0  0  0  0  0  0  0  0
   21.0640   67.8930   -6.8760 C   0  0  0  0  0  0  0  0  0  0  0  0
   13.0390   63.0250  -10.7850 H   0  0  0  0  0  0  0  0  0  0  0  0
   14.3050   65.1290  -10.9570 H   0  0  0  0  0  0  0  0  0  0  0  0
   19.7940   63.4910  -11.2640 H   0  0  0  0  0  0  0  0  0  0  0  0
   18.8560   64.5930  -10.2370 H   0  0  0  0  0  0  0  0  0  0  0  0
   22.1650   62.9780   -9.7330 H   0  0  0  0  0  0  0  0  0  0  0  0
   21.4970   64.3940  -10.5670 H   0  0  0  0  0  0  0  0  0  0  0  0
   22.8650   64.1690   -7.8490 H   0  0  0  0  0  0  0  0  0  0  0  0
   22.9940   65.3690   -9.1500 H   0  0  0  0  0  0  0  0  0  0  0  0
   19.6230   65.8520   -8.9610 H   0  0  0  0  0  0  0  0  0  0  0  0
   19.4210   65.9820   -7.1310 H   0  0  0  0  0  0  0  0  0  0  0  0
   18.7210   63.6620   -7.7680 H   0  0  0  0  0  0  0  0  0  0  0  0
   20.3570   63.5250   -7.1230 H   0  0  0  0  0  0  0  0  0  0  0  0
   24.7260   68.0360   -5.9310 H   0  0  0  0  0  0  0  0  0  0  0  0
   23.2910   69.8810   -5.3390 H   0  0  0  0  0  0  0  0  0  0  0  0
   20.0210   67.8210   -7.1610 H   0  0  0  0  0  0  0  0  0  0  0  0
  1  2  1  0  0  0  0
  2  3  1  0  0  0  0
  3  4  2  0  0  0  0
  3 13  1  0  0  0  0
  4  9  1  0  0  0  0
  5  8  1  0  0  0  0
  5  4  1  0  0  0  0
  6  5  2  0  0  0  0
  7  6  1  0  0  0  0
  7  2  2  0  0  0  0
  9 11  1  0  0  0  0
  9 10  2  0  0  0  0
 11 12  2  0  0  0  0
 13 11  1  0  0  0  0
 14 13  1  0  0  0  0
 14 30  1  0  0  0  0
 14 15  1  0  0  0  0
 15 20  1  0  0  0  0
 16 15  1  0  0  0  0
 16 17  1  0  0  0  0
 17 18  1  0  0  0  0
 17 33  1  0  0  0  0
 18 21  1  0  0  0  0
 19 20  1  0  0  0  0
 19 18  1  0  0  0  0
 19 36  1  0  0  0  0
 20 37  1  0  0  0  0
 20 38  1  0  0  0  0
 21 26  2  0  0  0  0
 21 22  1  0  0  0  0
 22 23  2  0  0  0  0
 23 39  1  0  0  0  0
 23 24  1  0  0  0  0
 24 40  1  0  0  0  0
 25 24  2  0  0  0  0
 26 25  1  0  0  0  0
 27  6  1  0  0  0  0
 28  7  1  0  0  0  0
 29 14  1  0  0  0  0
 31 16  1  0  0  0  0
 32 16  1  0  0  0  0
 34 17  1  0  0  0  0
 35 19  1  0  0  0  0
 41 26  1  0  0  0  0
M  END
>  <Pose>
1

>  <Score>
-6.26

$$$$
