
 OpenBabel03202210193D

 41 44  0  0  0  0  0  0  0  0999 V2000
   20.1660   65.9820   -9.1020 Cl  0  0  0  0  0  0  0  0  0  0  0  0
   21.4310   65.0350   -8.3660 C   0  0  0  0  0  0  0  0  0  0  0  0
   21.9980   65.3990   -7.1550 C   0  0  0  0  0  0  0  0  0  0  0  0
   23.0020   64.6600   -6.5580 C   0  0  0  0  0  0  0  0  0  0  0  0
   23.4350   63.5210   -7.2110 C   0  0  0  0  0  0  0  0  0  0  0  0
   22.8570   63.1730   -8.4180 C   0  0  0  0  0  0  0  0  0  0  0  0
   21.8520   63.9000   -9.0310 C   0  0  0  0  0  0  0  0  0  0  0  0
   21.2650   63.4680  -10.3350 C   0  0  0  0  0  0  0  0  0  0  0  0
   20.3440   62.3040  -10.1300 C   0  0  0  0  0  0  0  0  0  0  0  0
   20.8650   61.2140   -9.7080 O   0  0  0  0  0  0  0  0  0  0  0  0
   18.9540   62.4140  -10.3940 N   0  0  0  0  0  0  0  0  0  0  0  0
   18.4670   63.5540  -11.0880 C   0  0  0  0  0  0  0  0  0  0  0  0
   17.2620   64.1020  -10.3140 C   0  0  0  0  0  0  0  0  0  0  0  0
   16.2590   62.9720  -10.4180 C   0  0  0  0  0  0  0  0  0  0  0  0
   16.6880   61.6710  -10.2570 C   0  0  0  0  0  0  0  0  0  0  0  0
   15.7700   60.6680  -10.3680 N   0  0  0  0  0  0  0  0  0  0  0  0
   14.4730   60.8960  -10.6260 C   0  0  0  0  0  0  0  0  0  0  0  0
   14.0730   62.1710  -10.7800 N   0  0  0  0  0  0  0  0  0  0  0  0
   14.9430   63.2190  -10.6800 C   0  0  0  0  0  0  0  0  0  0  0  0
   14.5330   64.5310  -10.8390 O   0  0  0  0  0  0  0  0  0  0  0  0
   18.1000   61.3610   -9.9590 C   0  0  0  0  0  0  0  0  0  0  0  0
   24.4360   62.7830   -6.6140 O   0  0  0  0  0  0  0  0  0  0  0  0
   24.7930   62.8580   -5.2490 C   0  0  0  0  0  0  0  0  0  0  0  0
   24.2970   64.0740   -4.5490 C   0  0  0  0  0  0  0  0  0  0  0  0
   23.5970   64.9770   -5.3620 O   0  0  0  0  0  0  0  0  0  0  0  0
   21.6780   66.2800   -6.6290 H   0  0  0  0  0  0  0  0  0  0  0  0
   23.2050   62.2750   -8.9250 H   0  0  0  0  0  0  0  0  0  0  0  0
   22.1210   63.1760  -10.9830 H   0  0  0  0  0  0  0  0  0  0  0  0
   20.7410   64.2750  -10.8480 H   0  0  0  0  0  0  0  0  0  0  0  0
   18.0930   63.2950  -12.1220 H   0  0  0  0  0  0  0  0  0  0  0  0
   19.2210   64.3470  -11.2500 H   0  0  0  0  0  0  0  0  0  0  0  0
   16.8730   65.0240  -10.7480 H   0  0  0  0  0  0  0  0  0  0  0  0
   17.5950   64.2440   -9.2680 H   0  0  0  0  0  0  0  0  0  0  0  0
   13.7520   60.0830  -10.7110 H   0  0  0  0  0  0  0  0  0  0  0  0
   13.6640   64.8140  -10.4020 H   0  0  0  0  0  0  0  0  0  0  0  0
   18.2440   61.1470   -8.8640 H   0  0  0  0  0  0  0  0  0  0  0  0
   18.3180   60.3870  -10.4630 H   0  0  0  0  0  0  0  0  0  0  0  0
   24.3040   61.9680   -4.7550 H   0  0  0  0  0  0  0  0  0  0  0  0
   25.8790   62.6800   -5.1270 H   0  0  0  0  0  0  0  0  0  0  0  0
   23.6270   63.8340   -3.6860 H   0  0  0  0  0  0  0  0  0  0  0  0
   25.1850   64.5900   -4.0880 H   0  0  0  0  0  0  0  0  0  0  0  0
  1  2  1  0  0  0  0
  2  3  1  0  0  0  0
  3 26  1  0  0  0  0
  3  4  2  0  0  0  0
  4 25  1  0  0  0  0
  5 22  1  0  0  0  0
  5  4  1  0  0  0  0
  6  5  2  0  0  0  0
  7  6  1  0  0  0  0
  7  2  2  0  0  0  0
  8  9  1  0  0  0  0
  8  7  1  0  0  0  0
  9 10  2  0  0  0  0
 11  9  1  0  0  0  0
 11 21  1  0  0  0  0
 12 11  1  0  0  0  0
 12 13  1  0  0  0  0
 13 33  1  0  0  0  0
 14 13  1  0  0  0  0
 14 15  2  0  0  0  0
 15 21  1  0  0  0  0
 16 15  1  0  0  0  0
 17 16  2  0  0  0  0
 18 19  2  0  0  0  0
 18 17  1  0  0  0  0
 19 14  1  0  0  0  0
 20 19  1  0  0  0  0
 20 35  1  0  0  0  0
 21 36  1  0  0  0  0
 22 23  1  0  0  0  0
 23 39  1  0  0  0  0
 23 38  1  0  0  0  0
 23 24  1  0  0  0  0
 24 41  1  0  0  0  0
 24 40  1  0  0  0  0
 25 24  1  0  0  0  0
 27  6  1  0  0  0  0
 28  8  1  0  0  0  0
 29  8  1  0  0  0  0
 30 12  1  0  0  0  0
 31 12  1  0  0  0  0
 32 13  1  0  0  0  0
 34 17  1  0  0  0  0
 37 21  1  0  0  0  0
M  END
>  <Pose>
1

>  <Score>
-6.45

$$$$
