
 OpenBabel03202210193D

 46 49  0  0  1  0  0  0  0  0999 V2000
   19.4900   62.3320  -15.7880 Cl  0  0  0  0  0  0  0  0  0  0  0  0
   20.2140   62.4950  -14.1970 C   0  0  0  0  0  0  0  0  0  0  0  0
   19.4690   62.9310  -13.1190 C   0  0  0  0  0  0  0  0  0  0  0  0
   20.0470   63.0630  -11.8500 C   0  0  0  0  0  0  0  0  0  0  0  0
   21.3740   62.7380  -11.7400 C   0  0  0  0  0  0  0  0  0  0  0  0
   22.1270   62.2960  -12.8370 C   0  0  0  0  0  0  0  0  0  0  0  0
   21.5500   62.1700  -14.0810 C   0  0  0  0  0  0  0  0  0  0  0  0
   21.9710   62.8590  -10.4880 O   0  0  0  0  0  0  0  0  0  0  0  0
   21.2920   63.2890   -9.3610 C   0  0  0  0  0  0  0  0  0  0  0  0
   19.9500   63.6170   -9.4740 C   0  0  0  0  0  0  0  0  0  0  0  0
   19.2030   63.5360  -10.7350 C   0  0  2  0  0  0  0  0  0  0  0  0
   18.0490   62.5930  -10.5660 C   0  0  0  0  0  0  0  0  0  0  0  0
   18.2510   61.2980  -10.1420 C   0  0  0  0  0  0  0  0  0  0  0  0
   17.1960   60.4510   -9.9950 N   0  0  0  0  0  0  0  0  0  0  0  0
   15.9350   60.8710  -10.2640 C   0  0  0  0  0  0  0  0  0  0  0  0
   14.9800   60.0570  -10.1170 O   0  0  0  0  0  0  0  0  0  0  0  0
   15.7070   62.1270  -10.6790 N   0  0  0  0  0  0  0  0  0  0  0  0
   16.7470   62.9690  -10.8260 C   0  0  0  0  0  0  0  0  0  0  0  0
   16.5200   64.1260  -11.2100 O   0  0  0  0  0  0  0  0  0  0  0  0
   14.3370   62.5450  -10.9610 C   0  0  0  0  0  0  0  0  0  0  0  0
   17.4760   59.0930   -9.5400 C   0  0  0  0  0  0  0  0  0  0  0  0
   19.5210   60.8710   -9.8690 O   0  0  0  0  0  0  0  0  0  0  0  0
   19.3160   64.0390   -8.3230 C   0  0  0  0  0  0  0  0  0  0  0  0
   18.0840   64.3530   -8.3650 O   0  0  0  0  0  0  0  0  0  0  0  0
   19.9130   64.1480   -7.1250 N   0  0  0  0  0  0  0  0  0  0  0  0
   21.2250   63.8160   -7.0630 C   0  0  0  0  0  0  0  0  0  0  0  0
   21.7660   63.9250   -5.9290 O   0  0  0  0  0  0  0  0  0  0  0  0
   21.8840   63.4000   -8.1600 N   0  0  0  0  0  0  0  0  0  0  0  0
   23.2860   63.0640   -8.0110 C   0  0  0  0  0  0  0  0  0  0  0  0
   19.1920   64.5980   -5.9340 C   0  0  0  0  0  0  0  0  0  0  0  0
   18.4150   63.1830  -13.2290 H   0  0  0  0  0  0  0  0  0  0  0  0
   23.1740   62.0560  -12.6720 H   0  0  0  0  0  0  0  0  0  0  0  0
   22.1460   61.8270  -14.9150 H   0  0  0  0  0  0  0  0  0  0  0  0
   18.7610   64.5350  -10.9390 H   0  0  0  0  0  0  0  0  0  0  0  0
   14.2830   63.4340  -11.5880 H   0  0  0  0  0  0  0  0  0  0  0  0
   13.8800   62.7560   -9.9550 H   0  0  0  0  0  0  0  0  0  0  0  0
   13.7820   61.6690  -11.3640 H   0  0  0  0  0  0  0  0  0  0  0  0
   18.4940   58.8170   -9.8950 H   0  0  0  0  0  0  0  0  0  0  0  0
   17.4930   59.1000   -8.4110 H   0  0  0  0  0  0  0  0  0  0  0  0
   16.7030   58.3920   -9.9030 H   0  0  0  0  0  0  0  0  0  0  0  0
   23.3570   62.0150   -7.6290 H   0  0  0  0  0  0  0  0  0  0  0  0
   23.8320   63.1220   -8.9660 H   0  0  0  0  0  0  0  0  0  0  0  0
   23.7860   63.7610   -7.2980 H   0  0  0  0  0  0  0  0  0  0  0  0
   18.9850   63.6540   -5.3560 H   0  0  0  0  0  0  0  0  0  0  0  0
   19.7500   65.3300   -5.3540 H   0  0  0  0  0  0  0  0  0  0  0  0
   18.2170   64.9870   -6.2350 H   0  0  0  0  0  0  0  0  0  0  0  0
  1  2  1  0  0  0  0
  2  7  2  0  0  0  0
  2  3  1  0  0  0  0
  3  4  2  0  0  0  0
  4  5  1  0  0  0  0
  4 11  1  0  0  0  0
  5  8  1  0  0  0  0
  6 32  1  0  0  0  0
  6  5  2  0  0  0  0
  7  6  1  0  0  0  0
  8  9  1  0  0  0  0
  9 28  1  0  0  0  0
 10  9  2  0  0  0  0
 10 23  1  0  0  0  0
 11 34  1  6  0  0  0
 11 12  1  0  0  0  0
 11 10  1  0  0  0  0
 12 13  1  0  0  0  0
 13 14  1  0  0  0  0
 13 22  2  0  0  0  0
 14 21  1  0  0  0  0
 15 16  2  0  0  0  0
 15 14  1  0  0  0  0
 17 15  1  0  0  0  0
 18 17  1  0  0  0  0
 18 12  1  0  0  0  0
 19 18  2  0  0  0  0
 20 17  1  0  0  0  0
 20 36  1  0  0  0  0
 21 39  1  0  0  0  0
 23 25  1  0  0  0  0
 24 23  2  0  0  0  0
 25 26  1  0  0  0  0
 25 30  1  0  0  0  0
 26 27  2  0  0  0  0
 28 29  1  0  0  0  0
 28 26  1  0  0  0  0
 29 41  1  0  0  0  0
 29 43  1  0  0  0  0
 30 44  1  0  0  0  0
 30 45  1  0  0  0  0
 31  3  1  0  0  0  0
 33  7  1  0  0  0  0
 35 20  1  0  0  0  0
 37 20  1  0  0  0  0
 38 21  1  0  0  0  0
 40 21  1  0  0  0  0
 42 29  1  0  0  0  0
 46 30  1  0  0  0  0
M  END
>  <Pose>
1

>  <Score>
-3.24

$$$$
