
 OpenBabel03202210193D

 57 60  0  0  0  0  0  0  0  0999 V2000
   19.9720   62.8500  -11.5580 Cl  0  0  0  0  0  0  0  0  0  0  0  0
   20.3940   64.0300  -10.3410 C   0  0  0  0  0  0  0  0  0  0  0  0
   21.5570   63.9130   -9.6130 C   0  0  0  0  0  0  0  0  0  0  0  0
   21.8710   64.8480   -8.6620 C   0  0  0  0  0  0  0  0  0  0  0  0
   21.0040   65.9240   -8.4350 C   0  0  0  0  0  0  0  0  0  0  0  0
   19.8320   66.0490   -9.1630 C   0  0  0  0  0  0  0  0  0  0  0  0
   19.5530   65.0950  -10.1020 C   0  0  0  0  0  0  0  0  0  0  0  0
   21.1770   66.9460   -7.5150 O   0  0  0  0  0  0  0  0  0  0  0  0
   22.3820   67.4050   -6.9520 C   0  0  0  0  0  0  0  0  0  0  0  0
   23.0390   66.3740   -6.0930 C   0  0  0  0  0  0  0  0  0  0  0  0
   23.0020   65.0370   -6.6020 N   0  0  0  0  0  0  0  0  0  0  0  0
   23.1550   64.5870   -7.9620 C   0  0  0  0  0  0  0  0  0  0  0  0
   22.7820   63.9700   -5.6650 C   0  0  0  0  0  0  0  0  0  0  0  0
   21.8150   63.2030   -5.8960 O   0  0  0  0  0  0  0  0  0  0  0  0
   23.6400   63.7840   -4.4960 C   0  0  0  0  0  0  0  0  0  0  0  0
   23.4130   62.6450   -3.6860 N   0  0  0  0  0  0  0  0  0  0  0  0
   24.2940   62.6230   -2.5150 C   0  0  0  0  0  0  0  0  0  0  0  0
   25.6980   62.5770   -2.9900 C   0  0  0  0  0  0  0  0  0  0  0  0
   26.0070   61.5920   -4.0680 C   0  0  0  0  0  0  0  0  0  0  0  0
   24.8620   60.9740   -4.7680 C   0  0  0  0  0  0  0  0  0  0  0  0
   23.4970   61.3650   -4.3450 C   0  0  0  0  0  0  0  0  0  0  0  0
   26.9920   62.1330   -5.0360 C   0  0  0  0  0  0  0  0  0  0  0  0
   27.8820   61.3840   -5.4870 O   0  0  0  0  0  0  0  0  0  0  0  0
   26.9200   63.4850   -5.4370 N   0  0  0  0  0  0  0  0  0  0  0  0
   23.2960   67.9180   -8.0540 C   0  0  0  0  0  0  0  0  0  0  0  0
   23.0740   69.4050   -8.2710 C   0  0  0  0  0  0  0  0  0  0  0  0
   23.4730   70.1630   -7.1880 O   0  0  0  0  0  0  0  0  0  0  0  0
   23.3730   69.4340   -6.0080 C   0  0  0  0  0  0  0  0  0  0  0  0
   22.0990   68.6140   -6.0560 C   0  0  0  0  0  0  0  0  0  0  0  0
   22.2340   63.0880   -9.7790 H   0  0  0  0  0  0  0  0  0  0  0  0
   19.1920   66.8930   -8.9540 H   0  0  0  0  0  0  0  0  0  0  0  0
   18.6440   65.1580  -10.6940 H   0  0  0  0  0  0  0  0  0  0  0  0
   24.1080   66.6730   -5.9420 H   0  0  0  0  0  0  0  0  0  0  0  0
   22.5600   66.4370   -5.0810 H   0  0  0  0  0  0  0  0  0  0  0  0
   24.0170   65.0450   -8.4850 H   0  0  0  0  0  0  0  0  0  0  0  0
   23.3260   63.4840   -8.0040 H   0  0  0  0  0  0  0  0  0  0  0  0
   23.4710   64.6860   -3.8350 H   0  0  0  0  0  0  0  0  0  0  0  0
   24.7040   63.9070   -4.8310 H   0  0  0  0  0  0  0  0  0  0  0  0
   24.1330   63.5210   -1.9220 H   0  0  0  0  0  0  0  0  0  0  0  0
   24.0690   61.6780   -1.9710 H   0  0  0  0  0  0  0  0  0  0  0  0
   26.0240   63.5900   -3.3640 H   0  0  0  0  0  0  0  0  0  0  0  0
   26.3410   62.4380   -2.0690 H   0  0  0  0  0  0  0  0  0  0  0  0
   26.5710   60.7560   -3.5450 H   0  0  0  0  0  0  0  0  0  0  0  0
   24.9690   59.8470   -4.8030 H   0  0  0  0  0  0  0  0  0  0  0  0
   24.9390   61.2470   -5.8660 H   0  0  0  0  0  0  0  0  0  0  0  0
   22.7100   61.2960   -5.1010 H   0  0  0  0  0  0  0  0  0  0  0  0
   23.1840   60.6150   -3.5550 H   0  0  0  0  0  0  0  0  0  0  0  0
   26.2380   64.0900   -4.8910 H   0  0  0  0  0  0  0  0  0  0  0  0
   27.4550   63.9280   -6.1930 H   0  0  0  0  0  0  0  0  0  0  0  0
   23.0110   67.4280   -9.0180 H   0  0  0  0  0  0  0  0  0  0  0  0
   24.3610   67.7720   -7.8110 H   0  0  0  0  0  0  0  0  0  0  0  0
   23.6930   69.7100   -9.1430 H   0  0  0  0  0  0  0  0  0  0  0  0
   22.0100   69.6070   -8.4910 H   0  0  0  0  0  0  0  0  0  0  0  0
   24.2740   68.7780   -5.9610 H   0  0  0  0  0  0  0  0  0  0  0  0
   23.4120   70.0960   -5.1240 H   0  0  0  0  0  0  0  0  0  0  0  0
   21.3350   69.2510   -6.5500 H   0  0  0  0  0  0  0  0  0  0  0  0
   21.7510   68.3060   -5.0610 H   0  0  0  0  0  0  0  0  0  0  0  0
  1  2  1  0  0  0  0
  2  7  2  0  0  0  0
  2  3  1  0  0  0  0
  3  4  2  0  0  0  0
  4  5  1  0  0  0  0
  4 12  1  0  0  0  0
  5  8  1  0  0  0  0
  6 31  1  0  0  0  0
  6  5  2  0  0  0  0
  7  6  1  0  0  0  0
  8  9  1  0  0  0  0
  9 10  1  0  0  0  0
  9 29  1  0  0  0  0
 10 33  1  0  0  0  0
 10 34  1  0  0  0  0
 11 10  1  0  0  0  0
 11 13  1  0  0  0  0
 12 11  1  0  0  0  0
 13 15  1  0  0  0  0
 14 13  2  0  0  0  0
 15 37  1  0  0  0  0
 15 16  1  0  0  0  0
 16 17  1  0  0  0  0
 17 40  1  0  0  0  0
 17 39  1  0  0  0  0
 18 17  1  0  0  0  0
 18 42  1  0  0  0  0
 19 43  1  0  0  0  0
 19 18  1  0  0  0  0
 20 21  1  0  0  0  0
 20 19  1  0  0  0  0
 21 16  1  0  0  0  0
 21 47  1  0  0  0  0
 22 19  1  0  0  0  0
 23 22  2  0  0  0  0
 24 22  1  0  0  0  0
 24 48  1  0  0  0  0
 25 51  1  0  0  0  0
 25  9  1  0  0  0  0
 26 25  1  0  0  0  0
 26 27  1  0  0  0  0
 27 28  1  0  0  0  0
 28 54  1  0  0  0  0
 28 55  1  0  0  0  0
 29 28  1  0  0  0  0
 29 57  1  0  0  0  0
 30  3  1  0  0  0  0
 32  7  1  0  0  0  0
 35 12  1  0  0  0  0
 36 12  1  0  0  0  0
 38 15  1  0  0  0  0
 41 18  1  0  0  0  0
 44 20  1  0  0  0  0
 45 20  1  0  0  0  0
 46 21  1  0  0  0  0
 49 24  1  0  0  0  0
 50 25  1  0  0  0  0
 52 26  1  0  0  0  0
 53 26  1  0  0  0  0
 56 29  1  0  0  0  0
M  END
>  <Pose>
1

>  <Score>
-4.58

$$$$
