
 OpenBabel03202210193D

 43 46  0  0  0  0  0  0  0  0999 V2000
   22.8710   65.4930   -6.3670 S   0  0  0  0  0  0  0  0  0  0  0  0
   23.9070   66.4400   -6.8380 O   0  0  0  0  0  0  0  0  0  0  0  0
   21.8310   66.2340   -5.5580 O   0  0  0  0  0  0  0  0  0  0  0  0
   22.1040   64.7280   -7.6680 N   0  0  0  0  0  0  0  0  0  0  0  0
   21.0620   63.8200   -7.2960 C   0  0  0  0  0  0  0  0  0  0  0  0
   20.1850   63.4120   -8.4510 C   0  0  0  0  0  0  0  0  0  0  0  0
   20.9270   63.2740   -9.6830 N   0  0  0  0  0  0  0  0  0  0  0  0
   22.3490   63.4700   -9.7810 C   0  0  0  0  0  0  0  0  0  0  0  0
   22.9630   64.2860   -8.7080 C   0  0  0  0  0  0  0  0  0  0  0  0
   20.2130   62.9230  -10.8600 C   0  0  0  0  0  0  0  0  0  0  0  0
   20.8230   62.5480  -11.9160 O   0  0  0  0  0  0  0  0  0  0  0  0
   18.7520   62.9820  -10.8980 C   0  0  0  0  0  0  0  0  0  0  0  0
   18.0490   64.1290  -11.2090 C   0  0  0  0  0  0  0  0  0  0  0  0
   16.7030   64.1090  -11.2260 N   0  0  0  0  0  0  0  0  0  0  0  0
   15.9760   63.0110  -10.9520 C   0  0  0  0  0  0  0  0  0  0  0  0
   16.6460   61.8840  -10.6470 N   0  0  0  0  0  0  0  0  0  0  0  0
   15.9350   60.7730  -10.3700 C   0  0  0  0  0  0  0  0  0  0  0  0
   14.5550   60.7600  -10.3880 C   0  0  0  0  0  0  0  0  0  0  0  0
   13.8380   61.9000  -10.6970 C   0  0  0  0  0  0  0  0  0  0  0  0
   14.5870   63.0280  -10.9790 C   0  0  0  0  0  0  0  0  0  0  0  0
   17.9920   61.8640  -10.6190 C   0  0  0  0  0  0  0  0  0  0  0  0
   18.6170   60.8130  -10.3350 O   0  0  0  0  0  0  0  0  0  0  0  0
   23.6080   64.2570   -5.3350 C   0  0  0  0  0  0  0  0  0  0  0  0
   24.9650   63.2680   -5.6290 S   0  0  0  0  0  0  0  0  0  0  0  0
   24.9850   62.3940   -4.1650 C   0  0  0  0  0  0  0  0  0  0  0  0
   23.9170   62.9090   -3.4830 C   0  0  0  0  0  0  0  0  0  0  0  0
   23.2060   63.8680   -4.0820 C   0  0  0  0  0  0  0  0  0  0  0  0
   26.0970   61.1220   -3.6180 Cl  0  0  0  0  0  0  0  0  0  0  0  0
   21.5290   62.8980   -6.8920 H   0  0  0  0  0  0  0  0  0  0  0  0
   20.4710   64.2890   -6.4850 H   0  0  0  0  0  0  0  0  0  0  0  0
   19.6170   62.4860   -8.2460 H   0  0  0  0  0  0  0  0  0  0  0  0
   19.4470   64.2260   -8.5970 H   0  0  0  0  0  0  0  0  0  0  0  0
   22.5200   64.0030  -10.7630 H   0  0  0  0  0  0  0  0  0  0  0  0
   22.8670   62.4850   -9.9180 H   0  0  0  0  0  0  0  0  0  0  0  0
   23.7750   63.6660   -8.2270 H   0  0  0  0  0  0  0  0  0  0  0  0
   23.5020   65.1930   -9.1110 H   0  0  0  0  0  0  0  0  0  0  0  0
   18.6230   65.0200  -11.4310 H   0  0  0  0  0  0  0  0  0  0  0  0
   16.4820   59.8660  -10.1240 H   0  0  0  0  0  0  0  0  0  0  0  0
   13.9820   59.8610  -10.1640 H   0  0  0  0  0  0  0  0  0  0  0  0
   12.7560   61.9250  -10.7220 H   0  0  0  0  0  0  0  0  0  0  0  0
   14.0460   63.9330  -11.2250 H   0  0  0  0  0  0  0  0  0  0  0  0
   23.6740   62.5240   -2.4700 H   0  0  0  0  0  0  0  0  0  0  0  0
   22.3160   64.3650   -3.6300 H   0  0  0  0  0  0  0  0  0  0  0  0
  1  3  2  0  0  0  0
  1 23  1  0  0  0  0
  2  1  2  0  0  0  0
  4  5  1  0  0  0  0
  4  1  1  0  0  0  0
  5 29  1  0  0  0  0
  5 30  1  0  0  0  0
  6 31  1  0  0  0  0
  6  5  1  0  0  0  0
  7  6  1  0  0  0  0
  8  7  1  0  0  0  0
  8  9  1  0  0  0  0
  9 35  1  0  0  0  0
  9  4  1  0  0  0  0
 10  7  1  0  0  0  0
 11 10  2  0  0  0  0
 12 10  1  0  0  0  0
 12 21  1  0  0  0  0
 13 12  2  0  0  0  0
 14 13  1  0  0  0  0
 14 15  2  0  0  0  0
 15 16  1  0  0  0  0
 16 21  1  0  0  0  0
 16 17  1  0  0  0  0
 17 38  1  0  0  0  0
 18 17  2  0  0  0  0
 18 39  1  0  0  0  0
 19 18  1  0  0  0  0
 20 15  1  0  0  0  0
 20 19  2  0  0  0  0
 21 22  2  0  0  0  0
 23 27  2  0  0  0  0
 24 23  1  0  0  0  0
 24 25  1  0  0  0  0
 25 28  1  0  0  0  0
 25 26  2  0  0  0  0
 26 42  1  0  0  0  0
 27 43  1  0  0  0  0
 27 26  1  0  0  0  0
 32  6  1  0  0  0  0
 33  8  1  0  0  0  0
 34  8  1  0  0  0  0
 36  9  1  0  0  0  0
 37 13  1  0  0  0  0
 40 19  1  0  0  0  0
 41 20  1  0  0  0  0
M  END
>  <Pose>
1

>  <Score>
-9.06

$$$$
