
 OpenBabel03202210193D

 50 53  0  0  1  0  0  0  0  0999 V2000
   22.7820   63.4680   -9.6280 S   0  0  0  0  0  0  0  0  0  0  0  0
   23.3360   64.6530  -10.4040 O   0  0  0  0  0  0  0  0  0  0  0  0
   23.6700   62.3010  -10.0550 O   0  0  0  0  0  0  0  0  0  0  0  0
   21.1980   63.1380  -10.0580 N   0  0  0  0  0  0  0  0  0  0  0  0
   20.4460   64.1560  -10.6490 C   0  0  0  0  0  0  0  0  0  0  0  0
   19.1200   63.6540  -11.2370 C   0  0  0  0  0  0  0  0  0  0  0  0
   18.5200   62.6530  -10.4060 N   0  0  0  0  0  0  0  0  0  0  0  0
   19.3710   61.6110   -9.8750 C   0  0  0  0  0  0  0  0  0  0  0  0
   20.4850   62.3070   -9.1170 C   0  0  0  0  0  0  0  0  0  0  0  0
   17.1500   62.6930  -10.1220 C   0  0  0  0  0  0  0  0  0  0  0  0
   16.5030   61.6270   -9.9640 O   0  0  0  0  0  0  0  0  0  0  0  0
   16.3940   63.9790   -9.9950 C   0  0  0  0  0  0  0  0  0  0  0  0
   14.9200   63.8480  -10.3000 C   0  0  0  0  0  0  0  0  0  0  0  0
   15.2580   64.1910  -11.7490 C   0  0  0  0  0  0  0  0  0  0  0  0
   16.5420   64.8390  -11.2240 C   0  0  0  0  0  0  0  0  0  0  0  0
   23.0940   63.7360   -7.9270 C   0  0  0  0  0  0  0  0  0  0  0  0
   24.3220   63.3030   -7.3880 C   0  0  0  0  0  0  0  0  0  0  0  0
   24.6020   63.4320   -6.0470 C   0  0  0  0  0  0  0  0  0  0  0  0
   23.7110   63.9850   -5.1550 C   0  0  0  0  0  0  0  0  0  0  0  0
   22.5140   64.4100   -5.6750 C   0  0  0  0  0  0  0  0  0  0  0  0
   22.2100   64.2890   -7.0390 C   0  0  0  0  0  0  0  0  0  0  0  0
   20.6950   64.9240   -7.6350 Cl  0  0  0  0  0  0  0  0  0  0  0  0
   24.0590   64.0860   -3.7870 N   0  0  0  0  0  0  0  0  0  0  0  0
   25.3090   63.6320   -3.2840 C   0  0  0  0  0  0  0  0  0  0  0  0
   25.7760   63.9200   -2.1650 O   0  0  0  0  0  0  0  0  0  0  0  0
   26.0960   62.7500   -4.1860 C   0  0  2  0  0  0  0  0  0  0  0  0
   25.8260   62.9950   -5.5390 O   0  0  0  0  0  0  0  0  0  0  0  0
   25.8040   61.2950   -3.9000 C   0  0  0  0  0  0  0  0  0  0  0  0
   20.9830   64.5510  -11.5340 H   0  0  0  0  0  0  0  0  0  0  0  0
   20.2100   64.9760   -9.9570 H   0  0  0  0  0  0  0  0  0  0  0  0
   18.4470   64.5200  -11.3270 H   0  0  0  0  0  0  0  0  0  0  0  0
   19.3310   63.1870  -12.2190 H   0  0  0  0  0  0  0  0  0  0  0  0
   18.8260   60.8870   -9.2510 H   0  0  0  0  0  0  0  0  0  0  0  0
   19.8430   61.0830  -10.7500 H   0  0  0  0  0  0  0  0  0  0  0  0
   20.0440   62.9410   -8.3200 H   0  0  0  0  0  0  0  0  0  0  0  0
   21.1810   61.5730   -8.7050 H   0  0  0  0  0  0  0  0  0  0  0  0
   16.6090   64.4980   -9.0290 H   0  0  0  0  0  0  0  0  0  0  0  0
   14.2870   64.6070   -9.8220 H   0  0  0  0  0  0  0  0  0  0  0  0
   14.5130   62.8080  -10.1910 H   0  0  0  0  0  0  0  0  0  0  0  0
   15.4520   63.3010  -12.3690 H   0  0  0  0  0  0  0  0  0  0  0  0
   14.5550   64.8780  -12.2260 H   0  0  0  0  0  0  0  0  0  0  0  0
   16.4370   65.9240  -11.0100 H   0  0  0  0  0  0  0  0  0  0  0  0
   17.4260   64.6350  -11.8420 H   0  0  0  0  0  0  0  0  0  0  0  0
   25.0260   62.8690   -8.0740 H   0  0  0  0  0  0  0  0  0  0  0  0
   21.7840   64.8500   -5.0160 H   0  0  0  0  0  0  0  0  0  0  0  0
   23.3780   64.5080   -3.1130 H   0  0  0  0  0  0  0  0  0  0  0  0
   27.1630   62.9390   -3.9960 H   0  0  0  0  0  0  0  0  0  0  0  0
   25.2900   61.2300   -2.8990 H   0  0  0  0  0  0  0  0  0  0  0  0
   26.7490   60.7250   -3.8850 H   0  0  0  0  0  0  0  0  0  0  0  0
   25.1010   60.8960   -4.6560 H   0  0  0  0  0  0  0  0  0  0  0  0
  1 16  1  0  0  0  0
  2  1  2  0  0  0  0
  3  1  2  0  0  0  0
  4  1  1  0  0  0  0
  4  9  1  0  0  0  0
  5  4  1  0  0  0  0
  5 30  1  0  0  0  0
  6  5  1  0  0  0  0
  6  7  1  0  0  0  0
  7 10  1  0  0  0  0
  7  8  1  0  0  0  0
  8 33  1  0  0  0  0
  8  9  1  0  0  0  0
  9 36  1  0  0  0  0
  9 35  1  0  0  0  0
 10 12  1  0  0  0  0
 10 11  2  0  0  0  0
 12 37  1  0  0  0  0
 13 39  1  0  0  0  0
 13 12  1  0  0  0  0
 13 38  1  0  0  0  0
 14 15  1  0  0  0  0
 14 13  1  0  0  0  0
 15 42  1  0  0  0  0
 15 12  1  0  0  0  0
 16 17  2  0  0  0  0
 16 21  1  0  0  0  0
 17 18  1  0  0  0  0
 18 27  1  0  0  0  0
 18 19  2  0  0  0  0
 19 23  1  0  0  0  0
 20 19  1  0  0  0  0
 20 45  1  0  0  0  0
 21 20  2  0  0  0  0
 22 21  1  0  0  0  0
 23 24  1  0  0  0  0
 23 46  1  0  0  0  0
 24 25  2  0  0  0  0
 26 47  1  1  0  0  0
 26 28  1  0  0  0  0
 26 24  1  0  0  0  0
 27 26  1  0  0  0  0
 28 49  1  0  0  0  0
 28 48  1  0  0  0  0
 29  5  1  0  0  0  0
 31  6  1  0  0  0  0
 32  6  1  0  0  0  0
 34  8  1  0  0  0  0
 40 14  1  0  0  0  0
 41 14  1  0  0  0  0
 43 15  1  0  0  0  0
 44 17  1  0  0  0  0
 50 28  1  0  0  0  0
M  END
>  <Pose>
1

>  <Score>
-6.70

$$$$
