
 OpenBabel03202210193D

 37 40  0  0  1  0  0  0  0  0999 V2000
   27.5390   61.7970   -5.1780 Cl  0  0  0  0  0  0  0  0  0  0  0  0
   26.0150   62.6150   -4.8480 C   0  0  0  0  0  0  0  0  0  0  0  0
   25.2560   63.1380   -5.8920 C   0  0  0  0  0  0  0  0  0  0  0  0
   24.0720   63.7640   -5.5830 C   0  0  0  0  0  0  0  0  0  0  0  0
   23.6390   63.8740   -4.2520 C   0  0  0  0  0  0  0  0  0  0  0  0
   24.3870   63.3600   -3.2360 C   0  0  0  0  0  0  0  0  0  0  0  0
   25.5790   62.7260   -3.5440 C   0  0  0  0  0  0  0  0  0  0  0  0
   23.2320   64.3320   -6.5810 N   0  0  0  0  0  0  0  0  0  0  0  0
   22.9320   65.6880   -6.8950 C   0  0  0  0  0  0  0  0  0  0  0  0
   23.6460   66.6550   -6.5820 O   0  0  0  0  0  0  0  0  0  0  0  0
   21.6610   65.7450   -7.6350 C   0  0  1  0  0  0  0  0  0  0  0  0
   21.5330   66.6730   -8.6170 O   0  0  0  0  0  0  0  0  0  0  0  0
   20.7670   66.0110   -9.5590 N   0  0  0  0  0  0  0  0  0  0  0  0
   21.1970   64.6480   -9.6010 C   0  0  0  0  0  0  0  0  0  0  0  0
   21.7610   64.4660   -8.4130 C   0  0  0  0  0  0  0  0  0  0  0  0
   22.4850   63.5470   -7.5470 C   0  0  0  0  0  0  0  0  0  0  0  0
   22.4340   62.2960   -7.6610 O   0  0  0  0  0  0  0  0  0  0  0  0
   21.0170   63.6710  -10.6570 C   0  0  0  0  0  0  0  0  0  0  0  0
   21.9880   63.4650  -11.6410 C   0  0  0  0  0  0  0  0  0  0  0  0
   21.5680   62.5230  -12.4980 N   0  0  0  0  0  0  0  0  0  0  0  0
   20.3600   62.1160  -12.1020 N   0  0  0  0  0  0  0  0  0  0  0  0
   20.0160   62.8050  -10.9890 C   0  0  0  0  0  0  0  0  0  0  0  0
   18.7390   62.6600  -10.2460 C   0  0  0  0  0  0  0  0  0  0  0  0
   22.2400   61.9850  -13.6750 C   0  0  0  0  0  0  0  0  0  0  0  0
   25.5810   63.0580   -6.9360 H   0  0  0  0  0  0  0  0  0  0  0  0
   22.6920   64.3800   -4.0520 H   0  0  0  0  0  0  0  0  0  0  0  0
   24.0290   63.4590   -2.1930 H   0  0  0  0  0  0  0  0  0  0  0  0
   26.2030   62.3060   -2.7540 H   0  0  0  0  0  0  0  0  0  0  0  0
   20.7990   65.7010   -6.9320 H   0  0  0  0  0  0  0  0  0  0  0  0
   20.0160   66.4600  -10.1080 H   0  0  0  0  0  0  0  0  0  0  0  0
   22.9350   63.9720  -11.7210 H   0  0  0  0  0  0  0  0  0  0  0  0
   18.8500   61.8890   -9.4770 H   0  0  0  0  0  0  0  0  0  0  0  0
   17.9510   62.2890  -10.9430 H   0  0  0  0  0  0  0  0  0  0  0  0
   18.3740   63.6230   -9.8540 H   0  0  0  0  0  0  0  0  0  0  0  0
   21.6360   62.1630  -14.5910 H   0  0  0  0  0  0  0  0  0  0  0  0
   23.1950   62.5490  -13.8740 H   0  0  0  0  0  0  0  0  0  0  0  0
   22.4200   60.8960  -13.5930 H   0  0  0  0  0  0  0  0  0  0  0  0
  1  2  1  0  0  0  0
  2  7  1  0  0  0  0
  3  4  1  0  0  0  0
  3  2  2  0  0  0  0
  4  5  2  0  0  0  0
  5 26  1  0  0  0  0
  5  6  1  0  0  0  0
  6 27  1  0  0  0  0
  7  6  2  0  0  0  0
  7 28  1  0  0  0  0
  8  4  1  0  0  0  0
  9 10  2  0  0  0  0
  9  8  1  0  0  0  0
 11 29  1  1  0  0  0
 11  9  1  0  0  0  0
 12 11  1  0  0  0  0
 13 12  1  0  0  0  0
 14 13  1  0  0  0  0
 14 15  2  0  0  0  0
 15 11  1  0  0  0  0
 15 16  1  0  0  0  0
 16  8  1  0  0  0  0
 17 16  2  0  0  0  0
 18 14  1  0  0  0  0
 19 18  2  0  0  0  0
 20 21  1  0  0  0  0
 20 19  1  0  0  0  0
 21 22  2  0  0  0  0
 22 18  1  0  0  0  0
 22 23  1  0  0  0  0
 23 34  1  0  0  0  0
 23 32  1  0  0  0  0
 24 37  1  0  0  0  0
 24 20  1  0  0  0  0
 25  3  1  0  0  0  0
 30 13  1  0  0  0  0
 31 19  1  0  0  0  0
 33 23  1  0  0  0  0
 35 24  1  0  0  0  0
 36 24  1  0  0  0  0
M  END
>  <Pose>
1

>  <Score>
-7.10

$$$$
