
 OpenBabel03202210193D

 35 37  0  0  1  0  0  0  0  0999 V2000
   27.3720   62.3730   -4.9680 B   0  0  0  0  0  0  0  0  0  0  0  0
   25.5910   62.6550   -4.3630 C   0  0  0  0  0  0  0  0  0  0  0  0
   24.6080   63.0810   -5.2580 C   0  0  0  0  0  0  0  0  0  0  0  0
   23.2870   63.2880   -4.8410 C   0  0  0  0  0  0  0  0  0  0  0  0
   23.0310   63.0470   -3.5030 C   0  0  0  0  0  0  0  0  0  0  0  0
   24.0200   62.6240   -2.6320 C   0  0  0  0  0  0  0  0  0  0  0  0
   25.3040   62.4280   -3.0550 C   0  0  0  0  0  0  0  0  0  0  0  0
   21.7410   63.2630   -3.1090 O   0  0  0  0  0  0  0  0  0  0  0  0
   21.0830   62.3150   -2.3140 C   0  0  0  0  0  0  0  0  0  0  0  0
   22.3180   63.6400   -5.8730 C   0  0  2  0  0  0  0  0  0  0  0  0
   23.1770   63.6220   -7.1680 C   0  0  2  0  0  0  0  0  0  0  0  0
   24.3440   64.4840   -6.6510 C   0  0  0  0  0  0  0  0  0  0  0  0
   25.5170   64.1830   -6.7770 O   0  0  0  0  0  0  0  0  0  0  0  0
   23.8460   65.6790   -6.0070 N   0  0  0  0  0  0  0  0  0  0  0  0
   22.4620   66.0270   -6.3780 C   0  0  1  0  0  0  0  0  0  0  0  0
   22.4620   65.8850   -7.8410 N   0  0  0  0  0  0  0  0  0  0  0  0
   22.6170   64.5070   -8.2350 C   0  0  0  0  0  0  0  0  0  0  0  0
   22.3170   64.0750   -9.3630 O   0  0  0  0  0  0  0  0  0  0  0  0
   21.5710   64.8640   -5.8650 C   0  0  0  0  0  0  0  0  0  0  0  0
   21.9860   67.3310   -5.9090 C   0  0  0  0  0  0  0  0  0  0  0  0
   24.9480   63.2230   -6.2680 H   0  0  0  0  0  0  0  0  0  0  0  0
   23.7190   62.4630   -1.6150 H   0  0  0  0  0  0  0  0  0  0  0  0
   26.0320   62.0950   -2.2920 H   0  0  0  0  0  0  0  0  0  0  0  0
   21.2130   61.3000   -2.7180 H   0  0  0  0  0  0  0  0  0  0  0  0
   21.6580   62.3330   -1.3270 H   0  0  0  0  0  0  0  0  0  0  0  0
   20.0410   62.5730   -2.0870 H   0  0  0  0  0  0  0  0  0  0  0  0
   21.6620   62.7410   -6.0110 H   0  0  0  0  0  0  0  0  0  0  0  0
   23.4720   62.6730   -7.5210 H   0  0  0  0  0  0  0  0  0  0  0  0
   24.3860   66.2350   -5.3380 H   0  0  0  0  0  0  0  0  0  0  0  0
   22.3680   66.6780   -8.4850 H   0  0  0  0  0  0  0  0  0  0  0  0
   20.7740   64.7760   -6.6730 H   0  0  0  0  0  0  0  0  0  0  0  0
   20.9720   65.1350   -5.0010 H   0  0  0  0  0  0  0  0  0  0  0  0
   21.3440   67.7700   -6.7480 H   0  0  0  0  0  0  0  0  0  0  0  0
   21.3590   67.3110   -5.0010 H   0  0  0  0  0  0  0  0  0  0  0  0
   22.8000   68.0320   -5.7400 H   0  0  0  0  0  0  0  0  0  0  0  0
  1  2  1  0  0  0  0
  2  7  1  0  0  0  0
  3  4  1  0  0  0  0
  3  2  2  0  0  0  0
  4  5  2  0  0  0  0
  5  8  1  0  0  0  0
  5  6  1  0  0  0  0
  6 22  1  0  0  0  0
  7  6  2  0  0  0  0
  7 23  1  0  0  0  0
  8  9  1  0  0  0  0
  9 26  1  0  0  0  0
  9 25  1  0  0  0  0
 10 27  1  6  0  0  0
 10 19  1  0  0  0  0
 10  4  1  0  0  0  0
 11 28  1  6  0  0  0
 11 12  1  0  0  0  0
 11 10  1  0  0  0  0
 12 14  1  0  0  0  0
 13 12  2  0  0  0  0
 14 29  1  0  0  0  0
 15 14  1  0  0  0  0
 15 20  1  1  0  0  0
 15 19  1  0  0  0  0
 16 15  1  0  0  0  0
 17 16  1  0  0  0  0
 17 11  1  0  0  0  0
 18 17  2  0  0  0  0
 19 32  1  0  0  0  0
 20 35  1  0  0  0  0
 20 34  1  0  0  0  0
 21  3  1  0  0  0  0
 24  9  1  0  0  0  0
 30 16  1  0  0  0  0
 31 19  1  0  0  0  0
 33 20  1  0  0  0  0
M  END
>  <Pose>
1

>  <Score>
-4.40

$$$$
