
 OpenBabel03202210193D

 50 53  0  0  1  0  0  0  0  0999 V2000
   24.7590   62.7020   -6.0410 Cl  0  0  0  0  0  0  0  0  0  0  0  0
   23.5330   63.8700   -6.5250 C   0  0  0  0  0  0  0  0  0  0  0  0
   22.9550   63.7330   -7.8000 C   0  0  0  0  0  0  0  0  0  0  0  0
   22.0030   64.6350   -8.1690 C   0  0  0  0  0  0  0  0  0  0  0  0
   21.6080   65.6690   -7.3310 C   0  0  0  0  0  0  0  0  0  0  0  0
   22.1930   65.7790   -6.0910 C   0  0  0  0  0  0  0  0  0  0  0  0
   23.1550   64.8860   -5.6760 C   0  0  0  0  0  0  0  0  0  0  0  0
   21.7460   66.9090   -5.2030 C   0  0  0  0  0  0  0  0  0  0  0  0
   21.4680   64.1930   -9.4940 C   0  0  2  0  0  0  0  0  0  0  0  0
   21.1540   65.2330  -10.3900 N   0  0  0  0  0  0  0  0  0  0  0  0
   19.7910   65.6030  -10.1350 C   0  0  2  0  0  0  0  0  0  0  0  0
   19.1790   64.6100   -9.2330 C   0  0  2  0  0  0  0  0  0  0  0  0
   20.1770   63.4540   -9.3280 C   0  0  1  0  0  0  0  0  0  0  0  0
   19.7200   62.7930  -10.5360 C   0  0  0  0  0  0  0  0  0  0  0  0
   20.3090   62.2330  -11.4870 O   0  0  0  0  0  0  0  0  0  0  0  0
   18.2720   62.8860  -10.4820 N   0  0  0  0  0  0  0  0  0  0  0  0
   17.9290   63.9890   -9.6560 C   0  0  0  0  0  0  0  0  0  0  0  0
   16.7750   64.3330   -9.3660 O   0  0  0  0  0  0  0  0  0  0  0  0
   17.3050   62.0330  -11.1200 C   0  0  0  0  0  0  0  0  0  0  0  0
   16.7140   60.9750  -10.2640 C   0  0  0  0  0  0  0  0  0  0  0  0
   15.5660   60.3790  -10.6900 O   0  0  0  0  0  0  0  0  0  0  0  0
   14.4440   61.1810  -10.6720 C   0  0  0  0  0  0  0  0  0  0  0  0
   19.0260   65.8900  -11.4130 C   0  0  1  0  0  0  0  0  0  0  0  0
   18.8700   64.8240  -12.2490 O   0  0  0  0  0  0  0  0  0  0  0  0
   17.7900   66.6630  -11.0860 C   0  0  0  0  0  0  0  0  0  0  0  0
   22.4780   63.2500   -9.9670 C   0  0  0  0  0  0  0  0  0  0  0  0
   22.7130   62.7860  -11.1270 O   0  0  0  0  0  0  0  0  0  0  0  0
   23.2720   62.8540   -8.8730 N   0  0  0  0  0  0  0  0  0  0  0  0
   20.8600   66.4170   -7.5960 H   0  0  0  0  0  0  0  0  0  0  0  0
   23.6010   64.9980   -4.6820 H   0  0  0  0  0  0  0  0  0  0  0  0
   20.6400   66.9660   -5.2420 H   0  0  0  0  0  0  0  0  0  0  0  0
   22.1120   67.8940   -5.6150 H   0  0  0  0  0  0  0  0  0  0  0  0
   22.0640   66.7640   -4.1670 H   0  0  0  0  0  0  0  0  0  0  0  0
   21.7990   66.0560  -10.3100 H   0  0  0  0  0  0  0  0  0  0  0  0
   19.7710   66.6080   -9.6050 H   0  0  0  0  0  0  0  0  0  0  0  0
   19.1800   64.8890   -8.1510 H   0  0  0  0  0  0  0  0  0  0  0  0
   20.1430   62.8270   -8.4160 H   0  0  0  0  0  0  0  0  0  0  0  0
   16.4660   62.6590  -11.5040 H   0  0  0  0  0  0  0  0  0  0  0  0
   17.7730   61.5870  -12.0310 H   0  0  0  0  0  0  0  0  0  0  0  0
   16.4880   61.4520   -9.2680 H   0  0  0  0  0  0  0  0  0  0  0  0
   17.4790   60.2000  -10.0130 H   0  0  0  0  0  0  0  0  0  0  0  0
   14.5440   62.0720  -11.2940 H   0  0  0  0  0  0  0  0  0  0  0  0
   13.5940   60.5760  -11.0540 H   0  0  0  0  0  0  0  0  0  0  0  0
   14.2680   61.4720   -9.6020 H   0  0  0  0  0  0  0  0  0  0  0  0
   19.7190   66.6040  -11.9720 H   0  0  0  0  0  0  0  0  0  0  0  0
   18.1340   64.9170  -12.9050 H   0  0  0  0  0  0  0  0  0  0  0  0
   17.8060   67.6430  -11.6540 H   0  0  0  0  0  0  0  0  0  0  0  0
   16.8600   66.1740  -11.4490 H   0  0  0  0  0  0  0  0  0  0  0  0
   17.7890   66.9180  -10.0190 H   0  0  0  0  0  0  0  0  0  0  0  0
   23.9760   62.0760   -8.7990 H   0  0  0  0  0  0  0  0  0  0  0  0
  2  1  1  0  0  0  0
  2  7  1  0  0  0  0
  3  2  2  0  0  0  0
  4  3  1  0  0  0  0
  4  5  2  0  0  0  0
  5  6  1  0  0  0  0
  6  7  2  0  0  0  0
  6  8  1  0  0  0  0
  7 30  1  0  0  0  0
  8 33  1  0  0  0  0
  9 26  1  6  0  0  0
  9 13  1  0  0  0  0
  9  4  1  0  0  0  0
 10 34  1  0  0  0  0
 10 11  1  0  0  0  0
 10  9  1  0  0  0  0
 11 35  1  1  0  0  0
 11 12  1  0  0  0  0
 12 36  1  1  0  0  0
 13 12  1  0  0  0  0
 13 37  1  1  0  0  0
 14 16  1  0  0  0  0
 14 13  1  0  0  0  0
 15 14  2  0  0  0  0
 16 17  1  0  0  0  0
 17 18  2  0  0  0  0
 17 12  1  0  0  0  0
 19 16  1  0  0  0  0
 19 20  1  0  0  0  0
 20 41  1  0  0  0  0
 20 40  1  0  0  0  0
 21 22  1  0  0  0  0
 21 20  1  0  0  0  0
 22 44  1  0  0  0  0
 23 45  1  6  0  0  0
 23 25  1  0  0  0  0
 23 11  1  0  0  0  0
 24 23  1  0  0  0  0
 25 49  1  0  0  0  0
 26 28  1  0  0  0  0
 27 26  2  0  0  0  0
 28 50  1  0  0  0  0
 28  3  1  0  0  0  0
 29  5  1  0  0  0  0
 31  8  1  0  0  0  0
 32  8  1  0  0  0  0
 38 19  1  0  0  0  0
 39 19  1  0  0  0  0
 42 22  1  0  0  0  0
 43 22  1  0  0  0  0
 46 24  1  0  0  0  0
 47 25  1  0  0  0  0
 48 25  1  0  0  0  0
M  END
>  <Pose>
1

>  <Score>
-4.88

$$$$
