
 OpenBabel03202210193D

 49 52  0  0  0  0  0  0  0  0999 V2000
   19.4720   62.4850  -10.2200 S   0  0  0  0  0  0  0  0  0  0  0  0
   19.6500   60.9730  -10.2350 O   0  0  0  0  0  0  0  0  0  0  0  0
   19.7340   62.8880   -8.7730 O   0  0  0  0  0  0  0  0  0  0  0  0
   20.6800   63.1530  -11.1760 N   0  0  0  0  0  0  0  0  0  0  0  0
   22.0180   62.6910  -10.8990 C   0  0  0  0  0  0  0  0  0  0  0  0
   22.8730   63.9110  -10.5620 C   0  0  0  0  0  0  0  0  0  0  0  0
   22.1360   64.7920   -9.7360 N   0  0  0  0  0  0  0  0  0  0  0  0
   21.0800   65.5290  -10.5630 C   0  0  0  0  0  0  0  0  0  0  0  0
   20.5590   64.5200  -11.5230 C   0  0  0  0  0  0  0  0  0  0  0  0
   22.1690   65.0420   -8.3960 C   0  0  0  0  0  0  0  0  0  0  0  0
   21.4060   66.1540   -8.1150 O   0  0  0  0  0  0  0  0  0  0  0  0
   22.7240   64.5470   -7.1970 C   0  0  0  0  0  0  0  0  0  0  0  0
   22.3810   64.1470   -6.0180 C   0  0  0  0  0  0  0  0  0  0  0  0
   21.0570   64.1190   -5.5540 N   0  0  0  0  0  0  0  0  0  0  0  0
   20.6560   63.6290   -4.2920 N   0  0  0  0  0  0  0  0  0  0  0  0
   21.6280   63.1300   -3.4190 C   0  0  0  0  0  0  0  0  0  0  0  0
   21.2850   62.6910   -2.2910 O   0  0  0  0  0  0  0  0  0  0  0  0
   23.0370   63.1350   -3.8500 C   0  0  0  0  0  0  0  0  0  0  0  0
   23.4230   63.6160   -5.0880 C   0  0  0  0  0  0  0  0  0  0  0  0
   24.7430   63.5820   -5.4050 C   0  0  0  0  0  0  0  0  0  0  0  0
   25.6690   63.0710   -4.4910 C   0  0  0  0  0  0  0  0  0  0  0  0
   25.2930   62.5930   -3.2610 C   0  0  0  0  0  0  0  0  0  0  0  0
   23.9520   62.6290   -2.9430 C   0  0  0  0  0  0  0  0  0  0  0  0
   17.8630   62.9470  -10.6130 C   0  0  0  0  0  0  0  0  0  0  0  0
   16.8080   62.0880  -10.4380 C   0  0  0  0  0  0  0  0  0  0  0  0
   15.5220   62.4820  -10.7620 C   0  0  0  0  0  0  0  0  0  0  0  0
   15.2500   63.7340  -11.2680 C   0  0  0  0  0  0  0  0  0  0  0  0
   16.3110   64.6060  -11.4480 C   0  0  0  0  0  0  0  0  0  0  0  0
   17.6010   64.1960  -11.1170 C   0  0  0  0  0  0  0  0  0  0  0  0
   13.6030   64.1840  -11.6630 Cl  0  0  0  0  0  0  0  0  0  0  0  0
   22.0810   61.9130  -10.1300 H   0  0  0  0  0  0  0  0  0  0  0  0
   22.4300   62.2710  -11.8370 H   0  0  0  0  0  0  0  0  0  0  0  0
   22.9780   64.4310  -11.5950 H   0  0  0  0  0  0  0  0  0  0  0  0
   23.8880   63.7020  -10.2850 H   0  0  0  0  0  0  0  0  0  0  0  0
   21.6770   66.3100  -11.0650 H   0  0  0  0  0  0  0  0  0  0  0  0
   20.3450   65.9750   -9.8790 H   0  0  0  0  0  0  0  0  0  0  0  0
   21.1100   64.6690  -12.4980 H   0  0  0  0  0  0  0  0  0  0  0  0
   19.4920   64.7070  -11.7820 H   0  0  0  0  0  0  0  0  0  0  0  0
   23.8790   64.4810   -7.3160 H   0  0  0  0  0  0  0  0  0  0  0  0
   20.2960   64.5040   -6.1180 H   0  0  0  0  0  0  0  0  0  0  0  0
   19.6200   63.6590   -4.0530 H   0  0  0  0  0  0  0  0  0  0  0  0
   25.1130   63.9410   -6.3510 H   0  0  0  0  0  0  0  0  0  0  0  0
   26.7010   63.0650   -4.7850 H   0  0  0  0  0  0  0  0  0  0  0  0
   26.0000   62.1930   -2.5400 H   0  0  0  0  0  0  0  0  0  0  0  0
   23.5920   62.2610   -1.9750 H   0  0  0  0  0  0  0  0  0  0  0  0
   16.9170   61.0840  -10.0470 H   0  0  0  0  0  0  0  0  0  0  0  0
   14.6660   61.8100  -10.6280 H   0  0  0  0  0  0  0  0  0  0  0  0
   16.1090   65.5980  -11.8460 H   0  0  0  0  0  0  0  0  0  0  0  0
   18.3800   64.9510  -11.2910 H   0  0  0  0  0  0  0  0  0  0  0  0
  1  3  2  0  0  0  0
  2  1  2  0  0  0  0
  4  5  1  0  0  0  0
  4  1  1  0  0  0  0
  5  6  1  0  0  0  0
  5 31  1  0  0  0  0
  6 34  1  0  0  0  0
  6  7  1  0  0  0  0
  7 10  1  0  0  0  0
  8 36  1  0  0  0  0
  8  7  1  0  0  0  0
  9  4  1  0  0  0  0
  9  8  1  0  0  0  0
 10 11  2  0  0  0  0
 10 12  1  0  0  0  0
 12 13  2  0  0  0  0
 13 14  1  0  0  0  0
 13 19  1  0  0  0  0
 14 15  1  0  0  0  0
 15 41  1  0  0  0  0
 15 16  1  0  0  0  0
 16 17  2  0  0  0  0
 18 16  1  0  0  0  0
 18 23  1  0  0  0  0
 19 18  2  0  0  0  0
 20 19  1  0  0  0  0
 20 21  2  0  0  0  0
 21 22  1  0  0  0  0
 22 23  2  0  0  0  0
 22 44  1  0  0  0  0
 23 45  1  0  0  0  0
 24 25  1  0  0  0  0
 24  1  1  0  0  0  0
 25 46  1  0  0  0  0
 26 47  1  0  0  0  0
 26 25  2  0  0  0  0
 27 26  1  0  0  0  0
 28 27  2  0  0  0  0
 28 29  1  0  0  0  0
 29 24  2  0  0  0  0
 30 27  1  0  0  0  0
 32  5  1  0  0  0  0
 33  6  1  0  0  0  0
 35  8  1  0  0  0  0
 37  9  1  0  0  0  0
 38  9  1  0  0  0  0
 39 12  1  0  0  0  0
 40 14  1  0  0  0  0
 42 20  1  0  0  0  0
 43 21  1  0  0  0  0
 48 28  1  0  0  0  0
 49 29  1  0  0  0  0
M  END
>  <Pose>
1

>  <Score>
-8.23

$$$$
