
 OpenBabel03202210193D

 44 47  0  0  0  0  0  0  0  0999 V2000
   24.5370   65.3560  -10.0340 Cl  0  0  0  0  0  0  0  0  0  0  0  0
   23.0610   64.4690  -10.2520 C   0  0  0  0  0  0  0  0  0  0  0  0
   22.1320   64.3770   -9.2460 C   0  0  0  0  0  0  0  0  0  0  0  0
   20.9820   63.6580   -9.4800 C   0  0  0  0  0  0  0  0  0  0  0  0
   20.7130   63.0250  -10.6740 C   0  0  0  0  0  0  0  0  0  0  0  0
   21.6550   63.1280  -11.6720 C   0  0  0  0  0  0  0  0  0  0  0  0
   22.8100   63.8450  -11.4470 C   0  0  0  0  0  0  0  0  0  0  0  0
   19.4910   62.2760  -10.8920 N   0  0  0  0  0  0  0  0  0  0  0  0
   18.7360   61.9470   -9.7330 C   0  0  0  0  0  0  0  0  0  0  0  0
   17.3140   61.6570   -9.8900 C   0  0  0  0  0  0  0  0  0  0  0  0
   17.0490   60.3780   -9.7770 O   0  0  0  0  0  0  0  0  0  0  0  0
   16.2280   62.4620  -10.1280 N   0  0  0  0  0  0  0  0  0  0  0  0
   16.1990   63.8880  -10.0570 C   0  0  0  0  0  0  0  0  0  0  0  0
   15.7760   64.4290  -11.4200 C   0  0  0  0  0  0  0  0  0  0  0  0
   14.4580   63.9550  -11.5990 O   0  0  0  0  0  0  0  0  0  0  0  0
   14.5130   62.5950  -11.8130 C   0  0  0  0  0  0  0  0  0  0  0  0
   14.9410   61.8590  -10.5380 C   0  0  0  0  0  0  0  0  0  0  0  0
   22.3180   64.9790   -7.9890 N   0  0  0  0  0  0  0  0  0  0  0  0
   21.7410   66.0990   -7.6030 N   0  0  0  0  0  0  0  0  0  0  0  0
   22.1060   66.3970   -6.3710 N   0  0  0  0  0  0  0  0  0  0  0  0
   22.9280   65.4420   -5.9860 N   0  0  0  0  0  0  0  0  0  0  0  0
   23.0760   64.5330   -6.9960 C   0  0  0  0  0  0  0  0  0  0  0  0
   23.9370   63.3580   -6.8770 C   0  0  0  0  0  0  0  0  0  0  0  0
   25.3290   63.3640   -6.4440 C   0  0  0  0  0  0  0  0  0  0  0  0
   24.2690   62.9410   -5.4140 C   0  0  0  0  0  0  0  0  0  0  0  0
   20.2190   63.5700   -8.6850 H   0  0  0  0  0  0  0  0  0  0  0  0
   21.4390   62.6270  -12.6130 H   0  0  0  0  0  0  0  0  0  0  0  0
   23.5270   63.8930  -12.2790 H   0  0  0  0  0  0  0  0  0  0  0  0
   19.1960   62.0010  -11.8330 H   0  0  0  0  0  0  0  0  0  0  0  0
   18.7970   62.8480   -9.0460 H   0  0  0  0  0  0  0  0  0  0  0  0
   19.2440   61.1480   -9.1210 H   0  0  0  0  0  0  0  0  0  0  0  0
   15.2650   64.1110   -9.4110 H   0  0  0  0  0  0  0  0  0  0  0  0
   17.0260   64.3970   -9.5930 H   0  0  0  0  0  0  0  0  0  0  0  0
   15.8340   65.5180  -11.4190 H   0  0  0  0  0  0  0  0  0  0  0  0
   16.3540   64.0250  -12.2490 H   0  0  0  0  0  0  0  0  0  0  0  0
   15.2230   62.3790  -12.6360 H   0  0  0  0  0  0  0  0  0  0  0  0
   13.5310   62.2140  -12.1230 H   0  0  0  0  0  0  0  0  0  0  0  0
   15.0230   60.7910  -10.7250 H   0  0  0  0  0  0  0  0  0  0  0  0
   14.2170   62.1530   -9.7530 H   0  0  0  0  0  0  0  0  0  0  0  0
   23.6150   62.4320   -7.4540 H   0  0  0  0  0  0  0  0  0  0  0  0
   26.0080   62.5450   -6.8340 H   0  0  0  0  0  0  0  0  0  0  0  0
   25.9100   64.2110   -6.0900 H   0  0  0  0  0  0  0  0  0  0  0  0
   24.2990   61.8710   -5.1720 H   0  0  0  0  0  0  0  0  0  0  0  0
   23.9820   63.6220   -4.6160 H   0  0  0  0  0  0  0  0  0  0  0  0
  2  1  1  0  0  0  0
  2  3  1  0  0  0  0
  3 18  1  0  0  0  0
  4  3  2  0  0  0  0
  4 26  1  0  0  0  0
  5  4  1  0  0  0  0
  6  7  1  0  0  0  0
  6  5  2  0  0  0  0
  7  2  2  0  0  0  0
  8  5  1  0  0  0  0
  8  9  1  0  0  0  0
  9 31  1  0  0  0  0
  9 30  1  0  0  0  0
 10 11  2  0  0  0  0
 10  9  1  0  0  0  0
 12 13  1  0  0  0  0
 12 10  1  0  0  0  0
 13 33  1  0  0  0  0
 13 32  1  0  0  0  0
 14 34  1  0  0  0  0
 14 13  1  0  0  0  0
 15 14  1  0  0  0  0
 16 15  1  0  0  0  0
 16 17  1  0  0  0  0
 17 12  1  0  0  0  0
 17 39  1  0  0  0  0
 18 19  1  0  0  0  0
 18 22  1  0  0  0  0
 19 20  2  0  0  0  0
 20 21  1  0  0  0  0
 22 23  1  0  0  0  0
 22 21  2  0  0  0  0
 23 24  1  0  0  0  0
 23 25  1  0  0  0  0
 24 42  1  0  0  0  0
 24 25  1  0  0  0  0
 25 43  1  0  0  0  0
 25 44  1  0  0  0  0
 27  6  1  0  0  0  0
 28  7  1  0  0  0  0
 29  8  1  0  0  0  0
 35 14  1  0  0  0  0
 36 16  1  0  0  0  0
 37 16  1  0  0  0  0
 38 17  1  0  0  0  0
 40 23  1  0  0  0  0
 41 24  1  0  0  0  0
M  END
>  <Pose>
1

>  <Score>
-6.03

$$$$
