
 OpenBabel03202210193D

 49 51  0  0  1  0  0  0  0  0999 V2000
   12.7270   62.4510  -12.4470 B   0  0  0  0  0  0  0  0  0  0  0  0
   14.4180   62.6630  -11.5780 C   0  0  0  0  0  0  0  0  0  0  0  0
   15.0930   61.5920  -11.0390 C   0  0  0  0  0  0  0  0  0  0  0  0
   16.3220   61.7350  -10.4060 C   0  0  0  0  0  0  0  0  0  0  0  0
   16.9090   62.9790  -10.2990 C   0  0  0  0  0  0  0  0  0  0  0  0
   16.2280   64.0540  -10.8420 C   0  0  0  0  0  0  0  0  0  0  0  0
   15.0080   63.9140  -11.4720 C   0  0  0  0  0  0  0  0  0  0  0  0
   18.1860   63.2000   -9.6530 C   0  0  0  0  0  0  0  0  0  0  0  0
   18.3330   63.0950   -8.2730 C   0  0  0  0  0  0  0  0  0  0  0  0
   19.4810   63.2910   -7.6680 O   0  0  0  0  0  0  0  0  0  0  0  0
   20.5810   63.6000   -8.3130 C   0  0  0  0  0  0  0  0  0  0  0  0
   20.5340   63.7250   -9.6810 C   0  0  0  0  0  0  0  0  0  0  0  0
   21.7090   64.0490  -10.3150 C   0  0  0  0  0  0  0  0  0  0  0  0
   22.8940   64.2470   -9.6530 C   0  0  0  0  0  0  0  0  0  0  0  0
   22.9640   64.1240   -8.2500 C   0  0  0  0  0  0  0  0  0  0  0  0
   21.7840   63.7990   -7.6230 C   0  0  0  0  0  0  0  0  0  0  0  0
   24.1750   64.3310   -7.6220 O   0  0  0  0  0  0  0  0  0  0  0  0
   24.5140   63.9380   -6.3600 C   0  0  2  0  0  0  0  0  0  0  0  0
   25.5420   62.9570   -6.3360 O   0  0  0  0  0  0  0  0  0  0  0  0
   26.1170   63.0590   -5.0880 C   0  0  1  0  0  0  0  0  0  0  0  0
   25.2040   62.7140   -3.9530 C   0  0  2  0  0  0  0  0  0  0  0  0
   23.8250   63.3050   -4.1230 C   0  0  1  0  0  0  0  0  0  0  0  0
   23.3840   63.3030   -5.5720 C   0  0  0  0  0  0  0  0  0  0  0  0
   22.2120   64.0440   -5.6650 O   0  0  0  0  0  0  0  0  0  0  0  0
   22.9290   62.6410   -3.2950 O   0  0  0  0  0  0  0  0  0  0  0  0
   25.7470   63.2920   -2.7950 O   0  0  0  0  0  0  0  0  0  0  0  0
   27.4010   62.2780   -4.9660 C   0  0  0  0  0  0  0  0  0  0  0  0
   27.2110   60.9180   -5.2050 O   0  0  0  0  0  0  0  0  0  0  0  0
   19.3450   63.5260  -10.3480 C   0  0  0  0  0  0  0  0  0  0  0  0
   19.3000   63.6400  -11.6020 O   0  0  0  0  0  0  0  0  0  0  0  0
   14.6460   60.6030  -11.1130 H   0  0  0  0  0  0  0  0  0  0  0  0
   16.8510   60.9020   -9.9840 H   0  0  0  0  0  0  0  0  0  0  0  0
   16.6910   65.0400  -10.7590 H   0  0  0  0  0  0  0  0  0  0  0  0
   14.4740   64.7570  -11.8970 H   0  0  0  0  0  0  0  0  0  0  0  0
   17.4200   62.8380   -7.7280 H   0  0  0  0  0  0  0  0  0  0  0  0
   21.6560   64.1440  -11.4010 H   0  0  0  0  0  0  0  0  0  0  0  0
   23.8160   64.5020  -10.1590 H   0  0  0  0  0  0  0  0  0  0  0  0
   21.7710   63.6900   -6.5550 H   0  0  0  0  0  0  0  0  0  0  0  0
   24.8660   64.7860   -5.7500 H   0  0  0  0  0  0  0  0  0  0  0  0
   26.4010   64.1400   -4.9560 H   0  0  0  0  0  0  0  0  0  0  0  0
   25.1460   61.6120   -3.7640 H   0  0  0  0  0  0  0  0  0  0  0  0
   23.8650   64.3680   -3.8080 H   0  0  0  0  0  0  0  0  0  0  0  0
   23.2470   62.2760   -5.9740 H   0  0  0  0  0  0  0  0  0  0  0  0
   21.4220   63.4750   -5.5090 H   0  0  0  0  0  0  0  0  0  0  0  0
   22.4700   61.8800   -3.7660 H   0  0  0  0  0  0  0  0  0  0  0  0
   25.1390   63.1660   -2.0240 H   0  0  0  0  0  0  0  0  0  0  0  0
   27.8960   62.4570   -3.9910 H   0  0  0  0  0  0  0  0  0  0  0  0
   28.1430   62.6190   -5.7380 H   0  0  0  0  0  0  0  0  0  0  0  0
   27.8600   60.4480   -4.5930 H   0  0  0  0  0  0  0  0  0  0  0  0
  1  2  1  0  0  0  0
  2  7  2  0  0  0  0
  2  3  1  0  0  0  0
  3  4  2  0  0  0  0
  4  5  1  0  0  0  0
  4 32  1  0  0  0  0
  5  8  1  0  0  0  0
  6 33  1  0  0  0  0
  6  5  2  0  0  0  0
  7  6  1  0  0  0  0
  8  9  2  0  0  0  0
  9 35  1  0  0  0  0
  9 10  1  0  0  0  0
 11 10  1  0  0  0  0
 11 16  1  0  0  0  0
 12 11  2  0  0  0  0
 13 12  1  0  0  0  0
 13 14  2  0  0  0  0
 14 15  1  0  0  0  0
 15 16  2  0  0  0  0
 15 17  1  0  0  0  0
 17 18  1  0  0  0  0
 18 19  1  0  0  0  0
 18 39  1  1  0  0  0
 18 23  1  0  0  0  0
 19 20  1  0  0  0  0
 20 27  1  0  0  0  0
 20 40  1  1  0  0  0
 20 21  1  0  0  0  0
 21 41  1  1  0  0  0
 21 26  1  0  0  0  0
 22 21  1  0  0  0  0
 22 42  1  1  0  0  0
 22 25  1  0  0  0  0
 23 22  1  0  0  0  0
 24 44  1  0  0  0  0
 26 46  1  0  0  0  0
 27 47  1  0  0  0  0
 28 27  1  0  0  0  0
 28 49  1  0  0  0  0
 29 12  1  0  0  0  0
 29  8  1  0  0  0  0
 30 29  2  0  0  0  0
 31  3  1  0  0  0  0
 34  7  1  0  0  0  0
 36 13  1  0  0  0  0
 37 14  1  0  0  0  0
 38 24  1  0  0  0  0
 43 23  1  0  0  0  0
 45 25  1  0  0  0  0
 48 27  1  0  0  0  0
M  END
>  <Pose>
1

>  <Score>
-6.80

$$$$
