
 OpenBabel03202210193D

 52 55  0  0  0  0  0  0  0  0999 V2000
   12.2740   61.9470  -11.4500 Cl  0  0  0  0  0  0  0  0  0  0  0  0
   13.9790   62.2780  -11.0570 C   0  0  0  0  0  0  0  0  0  0  0  0
   14.5180   63.5590  -11.0740 C   0  0  0  0  0  0  0  0  0  0  0  0
   15.8610   63.7930  -10.8380 C   0  0  0  0  0  0  0  0  0  0  0  0
   16.7270   62.7150  -10.5720 C   0  0  0  0  0  0  0  0  0  0  0  0
   16.1740   61.4840  -10.5550 C   0  0  0  0  0  0  0  0  0  0  0  0
   14.8360   61.2250  -10.7900 C   0  0  0  0  0  0  0  0  0  0  0  0
   18.1550   63.0410  -10.3870 C   0  0  0  0  0  0  0  0  0  0  0  0
   19.0800   62.8260  -11.3830 C   0  0  0  0  0  0  0  0  0  0  0  0
   20.4350   63.0480  -11.1030 C   0  0  0  0  0  0  0  0  0  0  0  0
   20.8510   63.4780   -9.8620 C   0  0  0  0  0  0  0  0  0  0  0  0
   22.1730   63.7230   -9.4890 C   0  0  0  0  0  0  0  0  0  0  0  0
   23.1050   63.4750  -10.5280 C   0  0  0  0  0  0  0  0  0  0  0  0
   22.7260   63.0360  -11.7930 C   0  0  0  0  0  0  0  0  0  0  0  0
   21.3840   62.8230  -12.0680 C   0  0  0  0  0  0  0  0  0  0  0  0
   24.4660   63.6500  -10.3710 O   0  0  0  0  0  0  0  0  0  0  0  0
   22.6890   64.0080   -8.1960 C   0  0  0  0  0  0  0  0  0  0  0  0
   23.0610   65.3190   -7.7300 N   0  0  0  0  0  4  0  0  0  0  0  0
   22.6090   65.5520   -6.3300 C   0  0  0  0  0  0  0  0  0  0  0  0
   22.8100   64.3190   -5.5220 C   0  0  0  0  0  0  0  0  0  0  0  0
   24.1770   63.8610   -5.4230 N   0  0  0  0  0  0  0  0  0  0  0  0
   24.9660   64.2140   -6.5540 C   0  0  0  0  0  0  0  0  0  0  0  0
   24.5340   65.2700   -7.4580 C   0  0  0  0  0  0  0  0  0  0  0  0
   24.2110   62.4060   -5.2110 C   0  0  0  0  0  0  0  0  0  0  0  0
   24.2010   62.0450   -3.7430 C   0  0  0  0  0  0  0  0  0  0  0  0
   22.9900   62.3280   -3.1300 O   0  0  0  0  0  0  0  0  0  0  0  0
   19.9620   63.6640   -8.9720 O   0  0  0  0  0  0  0  0  0  0  0  0
   18.6500   63.4770   -9.1410 C   0  0  0  0  0  0  0  0  0  0  0  0
   17.8400   63.6850   -8.2300 O   0  0  0  0  0  0  0  0  0  0  0  0
   13.8420   64.3650  -11.2940 H   0  0  0  0  0  0  0  0  0  0  0  0
   16.2630   64.7990  -10.8620 H   0  0  0  0  0  0  0  0  0  0  0  0
   16.7710   60.6030  -10.3490 H   0  0  0  0  0  0  0  0  0  0  0  0
   14.4380   60.2210  -10.7610 H   0  0  0  0  0  0  0  0  0  0  0  0
   18.8030   62.4980  -12.3690 H   0  0  0  0  0  0  0  0  0  0  0  0
   23.4150   62.8950  -12.5910 H   0  0  0  0  0  0  0  0  0  0  0  0
   21.0800   62.4300  -13.0570 H   0  0  0  0  0  0  0  0  0  0  0  0
   23.8340   63.5970   -8.3280 H   0  0  0  0  0  0  0  0  0  0  0  0
   22.4040   63.3120   -7.4430 H   0  0  0  0  0  0  0  0  0  0  0  0
   22.9350   66.1160   -8.3100 H   0  0  0  0  0  0  0  0  0  0  0  0
   21.6420   66.0110   -6.2420 H   0  0  0  0  0  0  0  0  0  0  0  0
   23.3430   66.3400   -5.9240 H   0  0  0  0  0  0  0  0  0  0  0  0
   22.1480   63.5070   -5.8450 H   0  0  0  0  0  0  0  0  0  0  0  0
   22.4980   64.5930   -4.4740 H   0  0  0  0  0  0  0  0  0  0  0  0
   25.2140   63.2780   -7.1070 H   0  0  0  0  0  0  0  0  0  0  0  0
   25.9930   64.5480   -6.1490 H   0  0  0  0  0  0  0  0  0  0  0  0
   25.0230   65.2030   -8.4570 H   0  0  0  0  0  0  0  0  0  0  0  0
   24.7810   66.2670   -6.9750 H   0  0  0  0  0  0  0  0  0  0  0  0
   25.1270   62.0430   -5.6830 H   0  0  0  0  0  0  0  0  0  0  0  0
   23.3490   61.8800   -5.6700 H   0  0  0  0  0  0  0  0  0  0  0  0
   25.0690   62.3690   -3.1830 H   0  0  0  0  0  0  0  0  0  0  0  0
   24.3030   60.9030   -3.7570 H   0  0  0  0  0  0  0  0  0  0  0  0
   22.4720   61.4660   -3.0450 H   0  0  0  0  0  0  0  0  0  0  0  0
  1  2  1  0  0  0  0
  2  7  1  0  0  0  0
  3  2  2  0  0  0  0
  3  4  1  0  0  0  0
  4  5  2  0  0  0  0
  5  6  1  0  0  0  0
  5  8  1  0  0  0  0
  6 32  1  0  0  0  0
  7 33  1  0  0  0  0
  7  6  2  0  0  0  0
  8 28  1  0  0  0  0
  9 10  1  0  0  0  0
  9  8  2  0  0  0  0
 10 11  1  0  0  0  0
 11 12  2  0  0  0  0
 11 27  1  0  0  0  0
 12 17  1  0  0  0  0
 13 16  1  0  0  0  0
 13 12  1  0  0  0  0
 14 13  2  0  0  0  0
 15 14  1  0  0  0  0
 15 10  2  0  0  0  0
 17 18  1  0  0  0  0
 17 38  1  0  0  0  0
 18 23  1  0  0  0  0
 18 19  1  0  0  0  0
 19 40  1  0  0  0  0
 19 41  1  0  0  0  0
 19 20  1  0  0  0  0
 20 21  1  0  0  0  0
 20 43  1  0  0  0  0
 21 24  1  0  0  0  0
 22 45  1  0  0  0  0
 22 21  1  0  0  0  0
 23 47  1  0  0  0  0
 23 22  1  0  0  0  0
 24 25  1  0  0  0  0
 25 50  1  0  0  0  0
 25 26  1  0  0  0  0
 26 52  1  0  0  0  0
 28 27  1  0  0  0  0
 28 29  2  0  0  0  0
 30  3  1  0  0  0  0
 31  4  1  0  0  0  0
 34  9  1  0  0  0  0
 35 14  1  0  0  0  0
 36 15  1  0  0  0  0
 37 17  1  0  0  0  0
 39 18  1  0  0  0  0
 42 20  1  0  0  0  0
 44 22  1  0  0  0  0
 46 23  1  0  0  0  0
 48 24  1  0  0  0  0
 49 24  1  0  0  0  0
 51 25  1  0  0  0  0
M  END
>  <Pose>
1

>  <Score>
-6.28

$$$$
