
 OpenBabel03202210193D

 48 51  0  0  0  0  0  0  0  0999 V2000
   24.5340   71.3530   -6.2590 B   0  0  0  0  0  0  0  0  0  0  0  0
   23.7690   69.6080   -6.2050 C   0  0  0  0  0  0  0  0  0  0  0  0
   22.3990   69.4030   -6.3330 C   0  0  0  0  0  0  0  0  0  0  0  0
   21.8990   68.1030   -6.2740 C   0  0  0  0  0  0  0  0  0  0  0  0
   22.6830   67.0050   -6.0960 C   0  0  0  0  0  0  0  0  0  0  0  0
   24.0620   67.2630   -5.9720 C   0  0  0  0  0  0  0  0  0  0  0  0
   24.5990   68.5280   -6.0230 C   0  0  0  0  0  0  0  0  0  0  0  0
   22.2320   65.6330   -5.9840 C   0  0  0  0  0  0  0  0  0  0  0  0
   22.7670   64.6670   -6.9120 N   0  0  0  0  0  0  0  0  0  0  0  0
   22.3930   64.4860   -8.1870 C   0  0  0  0  0  0  0  0  0  0  0  0
   23.1510   63.4760   -8.7360 C   0  0  0  0  0  0  0  0  0  0  0  0
   23.9660   63.0710   -7.7740 N   0  0  0  0  0  0  0  0  0  0  0  0
   23.7560   63.7750   -6.6530 C   0  0  0  0  0  0  0  0  0  0  0  0
   24.4440   63.6290   -5.4040 N   0  0  0  0  0  0  0  0  0  0  0  0
   25.8450   63.2710   -5.4440 C   0  0  0  0  0  0  0  0  0  0  0  0
   25.9900   61.8940   -4.8130 C   0  0  0  0  0  0  0  0  0  0  0  0
   24.9270   61.5780   -3.9180 N   0  0  0  0  0  0  0  0  0  0  0  0
   24.3400   62.6780   -3.2280 C   0  0  0  0  0  0  0  0  0  0  0  0
   23.8430   63.7960   -4.1070 C   0  0  0  0  0  0  0  0  0  0  0  0
   24.0740   60.5060   -4.2670 C   0  0  0  0  0  0  0  0  0  0  0  0
   23.0110   63.0420  -10.0140 N   0  0  0  0  0  0  0  0  0  0  0  0
   22.0730   63.6460  -10.7610 C   0  0  0  0  0  0  0  0  0  0  0  0
   21.9580   63.2320  -11.9420 O   0  0  0  0  0  0  0  0  0  0  0  0
   21.2990   64.6350  -10.2810 N   0  0  0  0  0  0  0  0  0  0  0  0
   21.4300   65.0740   -9.0160 C   0  0  0  0  0  0  0  0  0  0  0  0
   20.7320   65.9810   -8.5430 O   0  0  0  0  0  0  0  0  0  0  0  0
   23.8570   61.9740  -10.5050 C   0  0  0  0  0  0  0  0  0  0  0  0
   21.7340   70.2430   -6.4820 H   0  0  0  0  0  0  0  0  0  0  0  0
   20.8500   68.0180   -6.3730 H   0  0  0  0  0  0  0  0  0  0  0  0
   24.7680   66.4510   -5.8240 H   0  0  0  0  0  0  0  0  0  0  0  0
   25.6820   68.6590   -5.9190 H   0  0  0  0  0  0  0  0  0  0  0  0
   22.5090   65.2500   -4.9550 H   0  0  0  0  0  0  0  0  0  0  0  0
   21.1200   65.6160   -6.0980 H   0  0  0  0  0  0  0  0  0  0  0  0
   26.3920   64.0150   -4.7910 H   0  0  0  0  0  0  0  0  0  0  0  0
   26.3060   63.3370   -6.4380 H   0  0  0  0  0  0  0  0  0  0  0  0
   25.9860   61.1640   -5.6460 H   0  0  0  0  0  0  0  0  0  0  0  0
   26.9660   61.8100   -4.3000 H   0  0  0  0  0  0  0  0  0  0  0  0
   25.0960   63.0860   -2.4970 H   0  0  0  0  0  0  0  0  0  0  0  0
   23.4950   62.3090   -2.6130 H   0  0  0  0  0  0  0  0  0  0  0  0
   24.2080   64.7680   -3.6660 H   0  0  0  0  0  0  0  0  0  0  0  0
   22.7360   63.7820   -4.1270 H   0  0  0  0  0  0  0  0  0  0  0  0
   24.1160   60.1820   -5.3250 H   0  0  0  0  0  0  0  0  0  0  0  0
   23.0210   60.8260   -4.0780 H   0  0  0  0  0  0  0  0  0  0  0  0
   24.2230   59.5940   -3.6290 H   0  0  0  0  0  0  0  0  0  0  0  0
   20.5710   65.0960  -10.8680 H   0  0  0  0  0  0  0  0  0  0  0  0
   23.3470   61.3770  -11.2980 H   0  0  0  0  0  0  0  0  0  0  0  0
   24.2530   61.3930   -9.6760 H   0  0  0  0  0  0  0  0  0  0  0  0
   24.7150   62.4560  -11.0270 H   0  0  0  0  0  0  0  0  0  0  0  0
  1  2  1  0  0  0  0
  2  7  1  0  0  0  0
  3  4  1  0  0  0  0
  3  2  2  0  0  0  0
  4  5  2  0  0  0  0
  5  8  1  0  0  0  0
  5  6  1  0  0  0  0
  6 30  1  0  0  0  0
  7  6  2  0  0  0  0
  7 31  1  0  0  0  0
  8 32  1  0  0  0  0
  9 13  1  0  0  0  0
  9  8  1  0  0  0  0
 10  9  1  0  0  0  0
 11 10  2  0  0  0  0
 11 12  1  0  0  0  0
 12 13  2  0  0  0  0
 13 14  1  0  0  0  0
 14 19  1  0  0  0  0
 15 14  1  0  0  0  0
 15 16  1  0  0  0  0
 15 34  1  0  0  0  0
 16 37  1  0  0  0  0
 16 17  1  0  0  0  0
 17 18  1  0  0  0  0
 18 39  1  0  0  0  0
 18 38  1  0  0  0  0
 19 40  1  0  0  0  0
 19 18  1  0  0  0  0
 20 43  1  0  0  0  0
 20 17  1  0  0  0  0
 20 44  1  0  0  0  0
 21 11  1  0  0  0  0
 22 24  1  0  0  0  0
 22 21  1  0  0  0  0
 23 22  2  0  0  0  0
 24 25  1  0  0  0  0
 25 26  2  0  0  0  0
 25 10  1  0  0  0  0
 27 21  1  0  0  0  0
 27 47  1  0  0  0  0
 28  3  1  0  0  0  0
 29  4  1  0  0  0  0
 33  8  1  0  0  0  0
 35 15  1  0  0  0  0
 36 16  1  0  0  0  0
 41 19  1  0  0  0  0
 42 20  1  0  0  0  0
 45 24  1  0  0  0  0
 46 27  1  0  0  0  0
 48 27  1  0  0  0  0
M  END
>  <Pose>
1

>  <Score>
-5.36

$$$$
