
 OpenBabel03202210193D

 43 46  0  0  0  0  0  0  0  0999 V2000
   22.5210   66.9680   -6.4560 B   0  0  0  0  0  0  0  0  0  0  0  0
   22.7300   65.2620   -7.2900 C   0  0  0  0  0  0  0  0  0  0  0  0
   23.4050   64.2640   -6.6620 C   0  0  0  0  0  0  0  0  0  0  0  0
   23.5580   63.0690   -7.2310 N   0  0  0  0  0  0  0  0  0  0  0  0
   23.0390   62.8410   -8.4460 C   0  0  0  0  0  0  0  0  0  0  0  0
   22.3390   63.8250   -9.1350 C   0  0  0  0  0  0  0  0  0  0  0  0
   22.1760   65.0620   -8.5540 C   0  0  0  0  0  0  0  0  0  0  0  0
   21.8100   63.4910  -10.4360 C   0  0  0  0  0  0  0  0  0  0  0  0
   22.5680   63.2130  -11.3800 O   0  0  0  0  0  0  0  0  0  0  0  0
   20.3520   63.4720  -10.6750 N   0  0  0  0  0  0  0  0  0  0  0  0
   19.6010   62.7280   -9.7620 C   0  0  0  0  0  0  0  0  0  0  0  0
   18.2770   62.1920   -9.9960 C   0  0  0  0  0  0  0  0  0  0  0  0
   18.2240   60.7810   -9.7080 C   0  0  0  0  0  0  0  0  0  0  0  0
   17.0730   60.1040   -9.8780 C   0  0  0  0  0  0  0  0  0  0  0  0
   15.9100   60.7500  -10.3350 C   0  0  0  0  0  0  0  0  0  0  0  0
   15.9420   62.0950  -10.6130 C   0  0  0  0  0  0  0  0  0  0  0  0
   17.1360   62.8120  -10.4360 C   0  0  0  0  0  0  0  0  0  0  0  0
   17.1640   64.2840  -10.6400 C   0  0  0  0  0  0  0  0  0  0  0  0
   15.7820   64.9290  -10.6250 C   0  0  0  0  0  0  0  0  0  0  0  0
   14.8390   64.1920  -11.4320 N   0  0  0  0  0  0  0  0  0  0  0  0
   14.7650   62.7940  -11.1210 C   0  0  0  0  0  0  0  0  0  0  0  0
   13.6640   62.2390  -11.3110 O   0  0  0  0  0  0  0  0  0  0  0  0
   14.0380   64.8130  -12.4660 C   0  0  0  0  0  0  0  0  0  0  0  0
   14.8010   60.0030  -10.4800 O   0  0  0  0  0  0  0  0  0  0  0  0
   17.3220   58.7690   -9.5230 O   0  0  0  0  0  0  0  0  0  0  0  0
   18.7110   58.5650   -9.3690 C   0  0  0  0  0  0  0  0  0  0  0  0
   19.1970   59.8870   -9.2510 O   0  0  0  0  0  0  0  0  0  0  0  0
   23.8550   64.3870   -5.6630 H   0  0  0  0  0  0  0  0  0  0  0  0
   23.1440   61.8790   -8.9420 H   0  0  0  0  0  0  0  0  0  0  0  0
   21.6370   65.8440   -9.0590 H   0  0  0  0  0  0  0  0  0  0  0  0
   20.1070   63.9980  -11.5270 H   0  0  0  0  0  0  0  0  0  0  0  0
   20.2920   61.8440   -9.4220 H   0  0  0  0  0  0  0  0  0  0  0  0
   19.6080   63.3030   -8.7430 H   0  0  0  0  0  0  0  0  0  0  0  0
   17.6280   64.5920  -11.5820 H   0  0  0  0  0  0  0  0  0  0  0  0
   17.6720   64.7890   -9.7840 H   0  0  0  0  0  0  0  0  0  0  0  0
   15.9390   65.9650  -11.0170 H   0  0  0  0  0  0  0  0  0  0  0  0
   15.4580   64.9510   -9.5600 H   0  0  0  0  0  0  0  0  0  0  0  0
   14.7190   64.9730  -13.3380 H   0  0  0  0  0  0  0  0  0  0  0  0
   13.6850   65.8040  -12.1300 H   0  0  0  0  0  0  0  0  0  0  0  0
   13.2430   64.1260  -12.7820 H   0  0  0  0  0  0  0  0  0  0  0  0
   14.0930   60.0290  -11.1310 H   0  0  0  0  0  0  0  0  0  0  0  0
   18.9450   57.9530   -8.4730 H   0  0  0  0  0  0  0  0  0  0  0  0
   19.0700   58.0560  -10.2780 H   0  0  0  0  0  0  0  0  0  0  0  0
  2  3  1  0  0  0  0
  2  1  1  0  0  0  0
  3 28  1  0  0  0  0
  4  3  2  0  0  0  0
  5  4  1  0  0  0  0
  6  7  1  0  0  0  0
  6  5  2  0  0  0  0
  7  2  2  0  0  0  0
  8  6  1  0  0  0  0
  9  8  2  0  0  0  0
 10  8  1  0  0  0  0
 10 11  1  0  0  0  0
 11 32  1  0  0  0  0
 11 33  1  0  0  0  0
 12 11  1  0  0  0  0
 12 13  1  0  0  0  0
 13 27  1  0  0  0  0
 14 13  2  0  0  0  0
 14 25  1  0  0  0  0
 15 14  1  0  0  0  0
 16 17  1  0  0  0  0
 16 15  2  0  0  0  0
 17 12  2  0  0  0  0
 18 19  1  0  0  0  0
 18 17  1  0  0  0  0
 18 35  1  0  0  0  0
 19 37  1  0  0  0  0
 20 21  1  0  0  0  0
 20 19  1  0  0  0  0
 21 16  1  0  0  0  0
 22 21  2  0  0  0  0
 23 39  1  0  0  0  0
 23 20  1  0  0  0  0
 24 15  1  0  0  0  0
 25 26  1  0  0  0  0
 26 27  1  0  0  0  0
 26 42  1  0  0  0  0
 29  5  1  0  0  0  0
 30  7  1  0  0  0  0
 31 10  1  0  0  0  0
 34 18  1  0  0  0  0
 36 19  1  0  0  0  0
 38 23  1  0  0  0  0
 40 23  1  0  0  0  0
 41 24  1  0  0  0  0
 43 26  1  0  0  0  0
M  END
>  <Pose>
1

>  <Score>
-8.16

$$$$
