
 OpenBabel03202210193D

 38 41  0  0  1  0  0  0  0  0999 V2000
   16.1580   60.2930  -10.2740 Cl  0  0  0  0  0  0  0  0  0  0  0  0
   16.9480   61.8550  -10.2680 C   0  0  0  0  0  0  0  0  0  0  0  0
   18.3220   61.9560  -10.0460 C   0  0  0  0  0  0  0  0  0  0  0  0
   18.9740   63.1530  -10.0340 C   0  0  0  0  0  0  0  0  0  0  0  0
   18.1990   64.2830  -10.2560 C   0  0  0  0  0  0  0  0  0  0  0  0
   16.8420   64.2040  -10.4780 C   0  0  0  0  0  0  0  0  0  0  0  0
   16.2010   62.9860  -10.4860 C   0  0  0  0  0  0  0  0  0  0  0  0
   20.4090   62.9150   -9.7740 C   0  0  2  0  0  0  0  0  0  0  0  0
   20.8190   63.5670   -8.4770 C   0  0  0  0  0  0  0  0  0  0  0  0
   21.7900   64.4320   -8.3830 C   0  0  0  0  0  0  0  0  0  0  0  0
   22.5510   64.8340   -9.5190 N   0  0  0  0  0  0  0  0  0  0  0  0
   22.2320   64.2700  -10.7790 C   0  0  0  0  0  0  0  0  0  0  0  0
   21.2560   63.3970  -10.8860 C   0  0  0  0  0  0  0  0  0  0  0  0
   20.9610   62.8420  -12.1990 C   0  0  0  0  0  0  0  0  0  0  0  0
   20.7410   62.3920  -13.2420 N   0  0  0  0  0  0  0  0  0  0  0  0
   22.9510   64.6230  -11.9640 N   0  0  0  0  0  0  0  0  0  0  0  0
   21.9140   64.8590   -6.9740 C   0  0  0  0  0  0  0  0  0  0  0  0
   20.9420   64.1730   -6.2870 O   0  0  0  0  0  0  0  0  0  0  0  0
   20.2410   63.3670   -7.1540 C   0  0  0  0  0  0  0  0  0  0  0  0
   19.2660   62.5810   -6.8850 O   0  0  0  0  0  0  0  0  0  0  0  0
   21.7800   66.3640   -6.9030 C   0  0  0  0  0  0  0  0  0  0  0  0
   23.2650   64.4940   -6.3890 C   0  0  0  0  0  0  0  0  0  0  0  0
   20.5200   61.4440   -9.6360 C   0  0  0  0  0  0  0  0  0  0  0  0
   21.5900   60.7770   -9.4010 O   0  0  0  0  0  0  0  0  0  0  0  0
   19.2320   60.8960   -9.8060 N   0  0  0  0  0  0  0  0  0  0  0  0
   18.6610   65.2550  -10.2580 H   0  0  0  0  0  0  0  0  0  0  0  0
   16.2260   65.0870  -10.6530 H   0  0  0  0  0  0  0  0  0  0  0  0
   15.1370   62.8920  -10.6570 H   0  0  0  0  0  0  0  0  0  0  0  0
   23.3280   65.5250   -9.4510 H   0  0  0  0  0  0  0  0  0  0  0  0
   22.5050   64.5600  -12.8890 H   0  0  0  0  0  0  0  0  0  0  0  0
   23.9230   64.9410  -11.8700 H   0  0  0  0  0  0  0  0  0  0  0  0
   21.7130   66.7210   -5.8600 H   0  0  0  0  0  0  0  0  0  0  0  0
   21.0080   66.7610   -7.5710 H   0  0  0  0  0  0  0  0  0  0  0  0
   22.7580   66.7750   -7.2900 H   0  0  0  0  0  0  0  0  0  0  0  0
   23.4430   63.4250   -6.6980 H   0  0  0  0  0  0  0  0  0  0  0  0
   23.1610   64.5430   -5.2870 H   0  0  0  0  0  0  0  0  0  0  0  0
   24.0650   65.1680   -6.7000 H   0  0  0  0  0  0  0  0  0  0  0  0
   19.0220   59.8530   -9.7570 H   0  0  0  0  0  0  0  0  0  0  0  0
  1  2  1  0  0  0  0
  2  3  1  0  0  0  0
  3  4  2  0  0  0  0
  3 25  1  0  0  0  0
  4  8  1  0  0  0  0
  5  4  1  0  0  0  0
  6  5  2  0  0  0  0
  7  6  1  0  0  0  0
  7  2  2  0  0  0  0
  8 13  1  6  0  0  0
  8 23  1  0  0  0  0
  8  9  1  0  0  0  0
  9 10  2  0  0  0  0
  9 19  1  0  0  0  0
 10 17  1  0  0  0  0
 11 29  1  0  0  0  0
 11 10  1  0  0  0  0
 12 11  1  0  0  0  0
 13 12  2  0  0  0  0
 14 13  1  0  0  0  0
 15 14  3  0  0  0  0
 16 31  1  0  0  0  0
 16 12  1  0  0  0  0
 17 21  1  0  0  0  0
 17 22  1  0  0  0  0
 17 18  1  0  0  0  0
 19 20  2  0  0  0  0
 19 18  1  0  0  0  0
 21 32  1  0  0  0  0
 22 36  1  0  0  0  0
 23 24  2  0  0  0  0
 25 38  1  0  0  0  0
 25 23  1  0  0  0  0
 26  5  1  0  0  0  0
 27  6  1  0  0  0  0
 28  7  1  0  0  0  0
 30 16  1  0  0  0  0
 33 21  1  0  0  0  0
 34 21  1  0  0  0  0
 35 22  1  0  0  0  0
 37 22  1  0  0  0  0
M  END
>  <Pose>
1

>  <Score>
-5.59

$$$$
