
 OpenBabel03202210193D

 46 49  0  0  0  0  0  0  0  0999 V2000
   23.4270   63.3010  -12.1260 Cl  0  0  0  0  0  0  0  0  0  0  0  0
   22.0640   63.3300  -11.0180 C   0  0  0  0  0  0  0  0  0  0  0  0
   22.3120   63.5280   -9.6630 C   0  0  0  0  0  0  0  0  0  0  0  0
   21.2310   63.5520   -8.7920 C   0  0  0  0  0  0  0  0  0  0  0  0
   19.9500   63.3760   -9.3210 C   0  0  0  0  0  0  0  0  0  0  0  0
   19.7250   63.1830  -10.6530 C   0  0  0  0  0  0  0  0  0  0  0  0
   20.7820   63.1590  -11.5090 C   0  0  0  0  0  0  0  0  0  0  0  0
   19.1670   63.4430   -8.2890 O   0  0  0  0  0  0  0  0  0  0  0  0
   19.8340   63.6410   -7.1800 C   0  0  0  0  0  0  0  0  0  0  0  0
   19.2920   63.7410   -6.0460 O   0  0  0  0  0  0  0  0  0  0  0  0
   21.1450   63.7140   -7.4680 N   0  0  0  0  0  0  0  0  0  0  0  0
   22.1740   63.9250   -6.4920 C   0  0  0  0  0  0  0  0  0  0  0  0
   22.5270   65.3690   -6.4120 C   0  0  0  0  0  0  0  0  0  0  0  0
   23.7730   65.8590   -6.2920 N   0  0  0  0  0  0  0  0  0  0  0  0
   23.7460   67.1600   -6.2160 O   0  0  0  0  0  0  0  0  0  0  0  0
   22.4820   67.5260   -6.2870 C   0  0  0  0  0  0  0  0  0  0  0  0
   21.7180   66.4360   -6.4080 N   0  0  0  0  0  0  0  0  0  0  0  0
   22.0820   68.9720   -6.2260 C   0  0  0  0  0  0  0  0  0  0  0  0
   20.8080   69.0840   -6.1670 O   0  0  0  0  0  0  0  0  0  0  0  0
   23.0170   69.9390   -6.2360 N   0  0  0  0  0  0  0  0  0  0  0  0
   23.9660   70.9440   -6.2530 C   0  0  0  0  0  0  0  0  0  0  0  0
   25.2960   70.5370   -5.6070 C   0  0  0  0  0  0  0  0  0  0  0  0
   25.2020   70.1230   -4.2630 N   0  0  0  0  0  0  0  0  0  0  0  0
   24.1650   70.8000   -3.5880 C   0  0  0  0  0  0  0  0  0  0  0  0
   24.3870   70.9030   -2.1170 C   0  0  0  0  0  0  0  0  0  0  0  0
   24.8920   69.7140   -1.6560 O   0  0  0  0  0  0  0  0  0  0  0  0
   26.1620   69.4260   -2.1170 C   0  0  0  0  0  0  0  0  0  0  0  0
   26.3690   69.7750   -3.5610 C   0  0  0  0  0  0  0  0  0  0  0  0
   23.2830   63.6680   -9.2460 H   0  0  0  0  0  0  0  0  0  0  0  0
   18.7040   63.0550  -11.0160 H   0  0  0  0  0  0  0  0  0  0  0  0
   20.6010   63.0030  -12.5740 H   0  0  0  0  0  0  0  0  0  0  0  0
   23.0450   63.3000   -6.7590 H   0  0  0  0  0  0  0  0  0  0  0  0
   21.8720   63.5910   -5.4740 H   0  0  0  0  0  0  0  0  0  0  0  0
   22.0960   70.8120   -6.7560 H   0  0  0  0  0  0  0  0  0  0  0  0
   23.6380   71.8230   -5.6190 H   0  0  0  0  0  0  0  0  0  0  0  0
   24.2350   71.3570   -7.2390 H   0  0  0  0  0  0  0  0  0  0  0  0
   26.0530   71.3480   -5.6630 H   0  0  0  0  0  0  0  0  0  0  0  0
   25.6820   69.7030   -6.2190 H   0  0  0  0  0  0  0  0  0  0  0  0
   23.9700   71.7960   -4.0390 H   0  0  0  0  0  0  0  0  0  0  0  0
   23.1920   70.2330   -3.7130 H   0  0  0  0  0  0  0  0  0  0  0  0
   25.0380   71.7560   -1.8410 H   0  0  0  0  0  0  0  0  0  0  0  0
   23.3980   71.0400   -1.5810 H   0  0  0  0  0  0  0  0  0  0  0  0
   26.3630   68.3470   -1.9050 H   0  0  0  0  0  0  0  0  0  0  0  0
   26.8810   70.0080   -1.5100 H   0  0  0  0  0  0  0  0  0  0  0  0
   26.8920   68.8780   -4.0150 H   0  0  0  0  0  0  0  0  0  0  0  0
   27.0940   70.6060   -3.6570 H   0  0  0  0  0  0  0  0  0  0  0  0
  1  2  1  0  0  0  0
  2  3  1  0  0  0  0
  3 29  1  0  0  0  0
  3  4  2  0  0  0  0
  4 11  1  0  0  0  0
  5  4  1  0  0  0  0
  5  8  1  0  0  0  0
  6  5  2  0  0  0  0
  7  2  2  0  0  0  0
  7  6  1  0  0  0  0
  8  9  1  0  0  0  0
  9 10  2  0  0  0  0
 11  9  1  0  0  0  0
 11 12  1  0  0  0  0
 12 13  1  0  0  0  0
 12 33  1  0  0  0  0
 13 17  1  0  0  0  0
 13 14  2  0  0  0  0
 14 15  1  0  0  0  0
 16 18  1  0  0  0  0
 16 15  1  0  0  0  0
 17 16  2  0  0  0  0
 18 19  2  0  0  0  0
 20 18  1  0  0  0  0
 21 20  1  0  0  0  0
 21 35  1  0  0  0  0
 21 22  1  0  0  0  0
 22 23  1  0  0  0  0
 23 24  1  0  0  0  0
 23 28  1  0  0  0  0
 24 25  1  0  0  0  0
 25 41  1  0  0  0  0
 25 26  1  0  0  0  0
 25 42  1  0  0  0  0
 27 43  1  0  0  0  0
 27 26  1  0  0  0  0
 27 44  1  0  0  0  0
 28 27  1  0  0  0  0
 30  6  1  0  0  0  0
 31  7  1  0  0  0  0
 32 12  1  0  0  0  0
 34 20  1  0  0  0  0
 36 21  1  0  0  0  0
 37 22  1  0  0  0  0
 38 22  1  0  0  0  0
 39 24  1  0  0  0  0
 40 24  1  0  0  0  0
 45 28  1  0  0  0  0
 46 28  1  0  0  0  0
M  END
>  <Pose>
1

>  <Score>
-6.50

$$$$
