
 OpenBabel03202210193D

 41 45  0  0  1  0  0  0  0  0999 V2000
   14.8490   60.7710  -10.5320 Cl  0  0  0  0  0  0  0  0  0  0  0  0
   16.4740   61.4450  -10.3730 C   0  0  0  0  0  0  0  0  0  0  0  0
   17.5720   60.6390  -10.1870 C   0  0  0  0  0  0  0  0  0  0  0  0
   18.8310   61.2010  -10.0700 C   0  0  0  0  0  0  0  0  0  0  0  0
   19.0480   62.5560  -10.1330 C   0  0  0  0  0  0  0  0  0  0  0  0
   17.9460   63.3690  -10.3220 C   0  0  0  0  0  0  0  0  0  0  0  0
   16.6770   62.8050  -10.4400 C   0  0  0  0  0  0  0  0  0  0  0  0
   20.3450   63.1480  -10.0160 N   0  0  0  0  0  0  0  0  0  0  0  0
   20.9450   63.8060   -8.9090 C   0  0  0  0  0  0  0  0  0  0  0  0
   20.4500   63.8820   -7.7540 O   0  0  0  0  0  0  0  0  0  0  0  0
   22.2630   64.4050   -9.3050 C   0  0  1  0  0  0  0  0  0  0  0  0
   23.3680   63.8910   -8.4450 C   0  0  2  0  0  0  0  0  0  0  0  0
   24.3580   63.4530   -9.3600 O   0  0  0  0  0  0  0  0  0  0  0  0
   23.5070   62.6100  -10.1190 C   0  0  2  0  0  0  0  0  0  0  0  0
   22.5440   63.6780  -10.6290 C   0  0  1  0  0  0  0  0  0  0  0  0
   21.2710   63.1500  -11.0960 C   0  0  0  0  0  0  0  0  0  0  0  0
   21.0510   62.7620  -12.2720 O   0  0  0  0  0  0  0  0  0  0  0  0
   22.9100   61.7880   -9.0400 C   0  0  0  0  0  0  0  0  0  0  0  0
   22.9320   62.5540   -7.9290 C   0  0  0  0  0  0  0  0  0  0  0  0
   24.1930   61.8530  -11.1780 C   0  0  0  0  0  0  0  0  0  0  0  0
   23.8920   64.7960   -7.4150 C   0  0  0  0  0  0  0  0  0  0  0  0
   22.9460   64.8990   -6.3930 O   0  0  0  0  0  0  0  0  0  0  0  0
   23.1770   63.8900   -5.4920 C   0  0  0  0  0  0  0  0  0  0  0  0
   24.6510   63.6300   -5.6550 C   0  0  0  0  0  0  0  0  0  0  0  0
   25.0290   64.2350   -6.8330 O   0  0  0  0  0  0  0  0  0  0  0  0
   17.4370   59.5800  -10.1340 H   0  0  0  0  0  0  0  0  0  0  0  0
   19.7220   60.5810   -9.9220 H   0  0  0  0  0  0  0  0  0  0  0  0
   18.0710   64.4440  -10.3750 H   0  0  0  0  0  0  0  0  0  0  0  0
   15.8090   63.4250  -10.5890 H   0  0  0  0  0  0  0  0  0  0  0  0
   22.2190   65.4870   -9.4250 H   0  0  0  0  0  0  0  0  0  0  0  0
   23.0800   64.3090  -11.3330 H   0  0  0  0  0  0  0  0  0  0  0  0
   22.5130   60.7820   -9.0410 H   0  0  0  0  0  0  0  0  0  0  0  0
   22.6970   62.2990   -6.9100 H   0  0  0  0  0  0  0  0  0  0  0  0
   24.1300   62.3090  -12.1930 H   0  0  0  0  0  0  0  0  0  0  0  0
   23.7940   60.8050  -11.2830 H   0  0  0  0  0  0  0  0  0  0  0  0
   25.2900   61.7060  -10.9930 H   0  0  0  0  0  0  0  0  0  0  0  0
   24.1680   65.7640   -7.8330 H   0  0  0  0  0  0  0  0  0  0  0  0
   22.9330   64.2990   -4.4690 H   0  0  0  0  0  0  0  0  0  0  0  0
   22.5500   62.9980   -5.6140 H   0  0  0  0  0  0  0  0  0  0  0  0
   24.7780   62.5170   -5.6730 H   0  0  0  0  0  0  0  0  0  0  0  0
   25.1540   64.0750   -4.7570 H   0  0  0  0  0  0  0  0  0  0  0  0
  1  2  1  0  0  0  0
  2  3  1  0  0  0  0
  3 26  1  0  0  0  0
  3  4  2  0  0  0  0
  4 27  1  0  0  0  0
  5  4  1  0  0  0  0
  5  8  1  0  0  0  0
  6  5  2  0  0  0  0
  7  2  2  0  0  0  0
  7  6  1  0  0  0  0
  8  9  1  0  0  0  0
  9 10  2  0  0  0  0
 11 30  1  6  0  0  0
 11  9  1  0  0  0  0
 11 12  1  0  0  0  0
 12 19  1  0  0  0  0
 12 21  1  1  0  0  0
 13 12  1  0  0  0  0
 14 20  1  6  0  0  0
 14 13  1  0  0  0  0
 14 18  1  0  0  0  0
 15 31  1  6  0  0  0
 15 14  1  0  0  0  0
 15 11  1  0  0  0  0
 16 15  1  0  0  0  0
 16  8  1  0  0  0  0
 17 16  2  0  0  0  0
 18 19  2  0  0  0  0
 19 33  1  0  0  0  0
 20 36  1  0  0  0  0
 21 25  1  0  0  0  0
 21 22  1  0  0  0  0
 22 23  1  0  0  0  0
 23 38  1  0  0  0  0
 24 23  1  0  0  0  0
 24 41  1  0  0  0  0
 25 24  1  0  0  0  0
 28  6  1  0  0  0  0
 29  7  1  0  0  0  0
 32 18  1  0  0  0  0
 34 20  1  0  0  0  0
 35 20  1  0  0  0  0
 37 21  1  0  0  0  0
 39 23  1  0  0  0  0
 40 24  1  0  0  0  0
M  END
>  <Pose>
1

>  <Score>
-4.33

$$$$
