
 OpenBabel03202210193D

 49 52  0  0  0  0  0  0  0  0999 V2000
   25.2220   72.9640   -5.2770 Cl  0  0  0  0  0  0  0  0  0  0  0  0
   24.4090   71.3980   -5.3960 C   0  0  0  0  0  0  0  0  0  0  0  0
   24.3060   70.5810   -4.3000 C   0  0  0  0  0  0  0  0  0  0  0  0
   23.6620   69.3760   -4.4760 C   0  0  0  0  0  0  0  0  0  0  0  0
   23.1340   68.9930   -5.7070 C   0  0  0  0  0  0  0  0  0  0  0  0
   23.2630   69.8550   -6.7860 C   0  0  0  0  0  0  0  0  0  0  0  0
   23.9050   71.0620   -6.6240 C   0  0  0  0  0  0  0  0  0  0  0  0
   22.4730   67.7410   -5.8580 N   0  0  0  0  0  0  0  0  0  0  0  0
   22.9680   66.6380   -6.5750 C   0  0  0  0  0  0  0  0  0  0  0  0
   24.1390   66.2490   -6.3150 O   0  0  0  0  0  0  0  0  0  0  0  0
   22.2370   65.9490   -7.5620 N   0  0  0  0  0  0  0  0  0  0  0  0
   22.2500   64.5810   -7.8070 N   0  0  0  0  0  0  0  0  0  0  0  0
   21.0510   63.8500   -7.6260 C   0  0  0  0  0  0  0  0  0  0  0  0
   20.6750   63.5550   -6.4460 O   0  0  0  0  0  0  0  0  0  0  0  0
   20.2810   63.4460   -8.7860 C   0  0  0  0  0  0  0  0  0  0  0  0
   18.9990   63.1750   -8.7710 N   0  0  0  0  0  0  0  0  0  0  0  0
   18.5210   62.8190  -10.0060 N   0  0  0  0  0  0  0  0  0  0  0  0
   19.6440   62.8750  -10.8870 C   0  0  0  0  0  0  0  0  0  0  0  0
   19.7820   62.6400  -12.1590 N   0  0  0  0  0  0  0  0  0  0  0  0
   21.0340   62.7740  -12.8140 N   0  0  0  0  0  0  0  0  0  0  0  0
   22.1960   63.1680  -12.1260 C   0  0  0  0  0  0  0  0  0  0  0  0
   23.3710   63.3050  -12.7270 C   0  0  0  0  0  0  0  0  0  0  0  0
   22.0640   63.4350  -10.6980 C   0  0  0  0  0  0  0  0  0  0  0  0
   23.0720   63.7810  -10.0750 O   0  0  0  0  0  0  0  0  0  0  0  0
   20.7710   63.2770  -10.1110 N   0  0  0  0  0  0  0  0  0  0  0  0
   17.1690   62.5130  -10.3340 C   0  0  0  0  0  0  0  0  0  0  0  0
   16.7120   61.2180  -10.3540 C   0  0  0  0  0  0  0  0  0  0  0  0
   15.3970   60.8670  -10.6250 C   0  0  0  0  0  0  0  0  0  0  0  0
   14.4650   61.8500  -10.8950 C   0  0  0  0  0  0  0  0  0  0  0  0
   14.9010   63.1580  -10.8830 C   0  0  0  0  0  0  0  0  0  0  0  0
   16.2290   63.4800  -10.6070 C   0  0  0  0  0  0  0  0  0  0  0  0
   13.0310   61.5200  -11.1540 C   0  0  0  0  0  0  0  0  0  0  0  0
   24.7160   70.8700   -3.3300 H   0  0  0  0  0  0  0  0  0  0  0  0
   23.5550   68.6870   -3.6320 H   0  0  0  0  0  0  0  0  0  0  0  0
   22.8350   69.5250   -7.7310 H   0  0  0  0  0  0  0  0  0  0  0  0
   23.9880   71.7310   -7.4910 H   0  0  0  0  0  0  0  0  0  0  0  0
   21.5380   67.6720   -5.3840 H   0  0  0  0  0  0  0  0  0  0  0  0
   21.5810   66.4960   -8.2100 H   0  0  0  0  0  0  0  0  0  0  0  0
   23.1290   64.1430   -8.1200 H   0  0  0  0  0  0  0  0  0  0  0  0
   21.0340   62.5610  -13.8370 H   0  0  0  0  0  0  0  0  0  0  0  0
   23.5220   63.1280  -13.7780 H   0  0  0  0  0  0  0  0  0  0  0  0
   24.2420   63.6190  -12.1630 H   0  0  0  0  0  0  0  0  0  0  0  0
   17.4470   60.4300  -10.1390 H   0  0  0  0  0  0  0  0  0  0  0  0
   15.0740   59.8410  -10.6340 H   0  0  0  0  0  0  0  0  0  0  0  0
   14.1570   63.9230  -11.1030 H   0  0  0  0  0  0  0  0  0  0  0  0
   16.5420   64.5220  -10.6080 H   0  0  0  0  0  0  0  0  0  0  0  0
   12.8380   61.1400  -12.1610 H   0  0  0  0  0  0  0  0  0  0  0  0
   12.3650   62.3700  -10.9600 H   0  0  0  0  0  0  0  0  0  0  0  0
   12.6920   60.7240  -10.4200 H   0  0  0  0  0  0  0  0  0  0  0  0
  2  1  1  0  0  0  0
  2  3  1  0  0  0  0
  3 33  1  0  0  0  0
  4  3  2  0  0  0  0
  4 34  1  0  0  0  0
  5  4  1  0  0  0  0
  6  7  1  0  0  0  0
  6  5  2  0  0  0  0
  7  2  2  0  0  0  0
  8  5  1  0  0  0  0
  8 37  1  0  0  0  0
  9 10  2  0  0  0  0
  9  8  1  0  0  0  0
 11  9  1  0  0  0  0
 12 13  1  0  0  0  0
 12 11  1  0  0  0  0
 13 14  2  0  0  0  0
 15 16  2  0  0  0  0
 15 13  1  0  0  0  0
 17 16  1  0  0  0  0
 18 25  1  0  0  0  0
 18 17  1  0  0  0  0
 19 18  2  0  0  0  0
 20 19  1  0  0  0  0
 20 21  1  0  0  0  0
 21 23  1  0  0  0  0
 22 42  1  0  0  0  0
 22 21  2  0  0  0  0
 23 25  1  0  0  0  0
 23 24  2  0  0  0  0
 25 15  1  0  0  0  0
 26 17  1  0  0  0  0
 27 26  1  0  0  0  0
 27 43  1  0  0  0  0
 28 27  2  0  0  0  0
 29 30  2  0  0  0  0
 29 28  1  0  0  0  0
 30 31  1  0  0  0  0
 31 26  2  0  0  0  0
 32 48  1  0  0  0  0
 32 29  1  0  0  0  0
 32 49  1  0  0  0  0
 35  6  1  0  0  0  0
 36  7  1  0  0  0  0
 38 11  1  0  0  0  0
 39 12  1  0  0  0  0
 40 20  1  0  0  0  0
 41 22  1  0  0  0  0
 44 28  1  0  0  0  0
 45 30  1  0  0  0  0
 46 31  1  0  0  0  0
 47 32  1  0  0  0  0
M  END
>  <Pose>
1

>  <Score>
-8.32

$$$$
