
 OpenBabel03202210193D

 53 57  0  0  1  0  0  0  0  0999 V2000
   15.7750   60.8350  -10.7040 Cl  0  0  0  0  0  0  0  0  0  0  0  0
   16.6690   62.3180  -10.4440 C   0  0  0  0  0  0  0  0  0  0  0  0
   17.9970   62.3320  -10.0690 C   0  0  0  0  0  0  0  0  0  0  0  0
   18.6770   63.5290   -9.8700 C   0  0  0  0  0  0  0  0  0  0  0  0
   17.9640   64.6800  -10.0650 C   0  0  0  0  0  0  0  0  0  0  0  0
   16.6410   64.6860  -10.4390 C   0  0  0  0  0  0  0  0  0  0  0  0
   15.9790   63.5110  -10.6330 C   0  0  0  0  0  0  0  0  0  0  0  0
   20.0560   63.2100   -9.4820 C   0  0  2  0  0  0  0  0  0  0  0  0
   20.4130   63.7640   -8.1890 N   0  0  0  0  0  0  0  0  0  0  0  0
   21.8740   63.6530   -8.2050 C   0  0  1  0  0  0  0  0  0  0  0  0
   22.3070   63.9060   -9.5980 C   0  0  2  0  0  0  0  0  0  0  0  0
   21.0440   63.8820  -10.3990 C   0  0  1  0  0  0  0  0  0  0  0  0
   21.2880   63.1300  -11.6330 C   0  0  0  0  0  0  0  0  0  0  0  0
   20.5210   63.1480  -12.6280 O   0  0  0  0  0  0  0  0  0  0  0  0
   22.5110   62.4280  -11.4510 N   0  0  0  0  0  0  0  0  0  0  0  0
   23.0590   62.7300  -10.1750 C   0  0  0  0  0  0  0  0  0  0  0  0
   24.0070   62.1620   -9.5660 O   0  0  0  0  0  0  0  0  0  0  0  0
   23.1050   61.5310  -12.4390 C   0  0  0  0  0  0  0  0  0  0  0  0
   24.5380   61.9820  -12.6790 C   0  0  0  0  0  0  0  0  0  0  0  0
   24.5770   63.3050  -13.0910 O   0  0  0  0  0  0  0  0  0  0  0  0
   25.8010   63.5690  -13.6740 C   0  0  0  0  0  0  0  0  0  0  0  0
   22.5020   64.6220   -7.2500 C   0  0  0  0  0  0  0  0  0  0  0  0
   23.3780   64.0080   -6.2390 C   0  0  0  0  0  0  0  0  0  0  0  0
   24.6660   63.6490   -6.6320 C   0  0  0  0  0  0  0  0  0  0  0  0
   25.5130   63.0930   -5.7090 C   0  0  0  0  0  0  0  0  0  0  0  0
   25.1500   62.8710   -4.4020 C   0  0  0  0  0  0  0  0  0  0  0  0
   23.8690   63.2400   -4.0510 C   0  0  0  0  0  0  0  0  0  0  0  0
   22.9770   63.8030   -4.9400 C   0  0  0  0  0  0  0  0  0  0  0  0
   20.1570   61.7420   -9.4570 C   0  0  0  0  0  0  0  0  0  0  0  0
   21.1380   61.0360   -9.1810 O   0  0  0  0  0  0  0  0  0  0  0  0
   18.8780   61.2460   -9.8240 N   0  0  0  0  0  0  0  0  0  0  0  0
   18.5010   65.6320   -9.9080 H   0  0  0  0  0  0  0  0  0  0  0  0
   16.1380   65.6160  -10.5770 H   0  0  0  0  0  0  0  0  0  0  0  0
   14.9410   63.4930  -10.9270 H   0  0  0  0  0  0  0  0  0  0  0  0
   20.0000   63.2040   -7.3930 H   0  0  0  0  0  0  0  0  0  0  0  0
   22.1620   62.6320   -7.8350 H   0  0  0  0  0  0  0  0  0  0  0  0
   22.8910   64.8290   -9.7720 H   0  0  0  0  0  0  0  0  0  0  0  0
   20.6360   64.9020  -10.5870 H   0  0  0  0  0  0  0  0  0  0  0  0
   22.5760   61.6040  -13.3930 H   0  0  0  0  0  0  0  0  0  0  0  0
   23.0810   60.4800  -12.0990 H   0  0  0  0  0  0  0  0  0  0  0  0
   25.0980   61.8130  -11.7340 H   0  0  0  0  0  0  0  0  0  0  0  0
   24.9970   61.3780  -13.4880 H   0  0  0  0  0  0  0  0  0  0  0  0
   25.9820   62.9250  -14.5520 H   0  0  0  0  0  0  0  0  0  0  0  0
   26.6580   63.4290  -12.9820 H   0  0  0  0  0  0  0  0  0  0  0  0
   25.8100   64.6420  -13.9710 H   0  0  0  0  0  0  0  0  0  0  0  0
   23.0040   65.4390   -7.8110 H   0  0  0  0  0  0  0  0  0  0  0  0
   21.6450   65.1190   -6.7060 H   0  0  0  0  0  0  0  0  0  0  0  0
   24.9740   63.8190   -7.6750 H   0  0  0  0  0  0  0  0  0  0  0  0
   26.5110   62.8160   -6.0170 H   0  0  0  0  0  0  0  0  0  0  0  0
   25.8050   62.4350   -3.6620 H   0  0  0  0  0  0  0  0  0  0  0  0
   23.5280   63.0900   -3.0360 H   0  0  0  0  0  0  0  0  0  0  0  0
   21.9690   64.0900   -4.5960 H   0  0  0  0  0  0  0  0  0  0  0  0
   18.5950   60.2330   -9.9090 H   0  0  0  0  0  0  0  0  0  0  0  0
  1  2  1  0  0  0  0
  2  3  1  0  0  0  0
  3  4  2  0  0  0  0
  3 31  1  0  0  0  0
  5 32  1  0  0  0  0
  5  4  1  0  0  0  0
  6  5  2  0  0  0  0
  7  2  2  0  0  0  0
  7  6  1  0  0  0  0
  8  4  1  6  0  0  0
  8 29  1  0  0  0  0
  8  9  1  0  0  0  0
  9 35  1  0  0  0  0
 10  9  1  0  0  0  0
 10 36  1  1  0  0  0
 10 22  1  0  0  0  0
 11 37  1  6  0  0  0
 11 10  1  0  0  0  0
 12 38  1  6  0  0  0
 12 11  1  0  0  0  0
 12  8  1  0  0  0  0
 13 15  1  0  0  0  0
 13 12  1  0  0  0  0
 14 13  2  0  0  0  0
 15 16  1  0  0  0  0
 16 11  1  0  0  0  0
 16 17  2  0  0  0  0
 18 40  1  0  0  0  0
 18 15  1  0  0  0  0
 19 18  1  0  0  0  0
 19 41  1  0  0  0  0
 20 19  1  0  0  0  0
 21 20  1  0  0  0  0
 21 44  1  0  0  0  0
 22 47  1  0  0  0  0
 22 23  1  0  0  0  0
 23 28  1  0  0  0  0
 24 23  2  0  0  0  0
 24 25  1  0  0  0  0
 25 26  2  0  0  0  0
 26 27  1  0  0  0  0
 26 50  1  0  0  0  0
 27 51  1  0  0  0  0
 28 52  1  0  0  0  0
 28 27  2  0  0  0  0
 29 30  2  0  0  0  0
 31 29  1  0  0  0  0
 33  6  1  0  0  0  0
 34  7  1  0  0  0  0
 39 18  1  0  0  0  0
 42 19  1  0  0  0  0
 43 21  1  0  0  0  0
 45 21  1  0  0  0  0
 46 22  1  0  0  0  0
 48 24  1  0  0  0  0
 49 25  1  0  0  0  0
 53 31  1  0  0  0  0
M  END
>  <Pose>
1

>  <Score>
-6.23

$$$$
