
 OpenBabel03202210193D

 42 45  0  0  0  0  0  0  0  0999 V2000
   15.7800   61.4690  -10.3450 Cl  0  0  0  0  0  0  0  0  0  0  0  0
   17.3320   62.2940  -10.2450 C   0  0  0  0  0  0  0  0  0  0  0  0
   17.3770   63.6410   -9.9850 C   0  0  0  0  0  0  0  0  0  0  0  0
   18.6070   64.2750   -9.9100 C   0  0  0  0  0  0  0  0  0  0  0  0
   19.7760   63.5880  -10.0880 C   0  0  0  0  0  0  0  0  0  0  0  0
   19.7350   62.2390  -10.3480 C   0  0  0  0  0  0  0  0  0  0  0  0
   18.5170   61.6110  -10.4230 C   0  0  0  0  0  0  0  0  0  0  0  0
   21.0470   64.3510   -9.9890 C   0  0  0  0  0  0  0  0  0  0  0  0
   21.7890   63.8290   -8.8440 N   0  0  0  0  0  0  0  0  0  0  0  0
   22.1970   62.5950   -8.6170 N   0  0  0  0  0  0  0  0  0  0  0  0
   22.8420   62.5080   -7.4680 N   0  0  0  0  0  0  0  0  0  0  0  0
   22.8700   63.7160   -6.9060 C   0  0  0  0  0  0  0  0  0  0  0  0
   22.2040   64.5540   -7.7740 C   0  0  0  0  0  0  0  0  0  0  0  0
   22.0920   65.8460   -7.4340 N   0  0  0  0  0  0  0  0  0  0  0  0
   22.6110   66.3060   -6.2830 C   0  0  0  0  0  0  0  0  0  0  0  0
   23.2570   65.4700   -5.4510 N   0  0  0  0  0  0  0  0  0  0  0  0
   23.4230   64.1450   -5.7050 C   0  0  0  0  0  0  0  0  0  0  0  0
   24.0970   63.2660   -4.8390 N   0  0  0  0  0  0  0  0  0  0  0  0
   25.2740   62.4950   -5.1380 C   0  0  0  0  0  0  0  0  0  0  0  0
   26.3440   62.8870   -4.1880 C   0  0  0  0  0  0  0  0  0  0  0  0
   25.9760   63.5660   -3.0180 N   0  0  0  0  0  0  0  0  0  0  0  0
   24.6570   63.5150   -2.5490 C   0  0  0  0  0  0  0  0  0  0  0  0
   23.6050   63.0750   -3.4970 C   0  0  0  0  0  0  0  0  0  0  0  0
   26.4000   64.9520   -3.1150 C   0  0  0  0  0  0  0  0  0  0  0  0
   16.4710   64.2100   -9.8400 H   0  0  0  0  0  0  0  0  0  0  0  0
   18.6300   65.3450   -9.7030 H   0  0  0  0  0  0  0  0  0  0  0  0
   20.6460   61.7060  -10.4860 H   0  0  0  0  0  0  0  0  0  0  0  0
   18.4320   60.5350  -10.6280 H   0  0  0  0  0  0  0  0  0  0  0  0
   21.6520   64.2140  -10.8930 H   0  0  0  0  0  0  0  0  0  0  0  0
   20.8160   65.4290   -9.8630 H   0  0  0  0  0  0  0  0  0  0  0  0
   22.5020   67.3540   -6.0420 H   0  0  0  0  0  0  0  0  0  0  0  0
   25.6250   62.6230   -6.1790 H   0  0  0  0  0  0  0  0  0  0  0  0
   25.0290   61.4160   -5.0400 H   0  0  0  0  0  0  0  0  0  0  0  0
   26.8870   61.9420   -3.8860 H   0  0  0  0  0  0  0  0  0  0  0  0
   27.1360   63.4660   -4.7410 H   0  0  0  0  0  0  0  0  0  0  0  0
   24.6230   62.8080   -1.6660 H   0  0  0  0  0  0  0  0  0  0  0  0
   24.3490   64.5020   -2.0980 H   0  0  0  0  0  0  0  0  0  0  0  0
   23.3310   62.0080   -3.3480 H   0  0  0  0  0  0  0  0  0  0  0  0
   22.6730   63.6850   -3.3300 H   0  0  0  0  0  0  0  0  0  0  0  0
   27.0510   65.1130   -4.0190 H   0  0  0  0  0  0  0  0  0  0  0  0
   25.5090   65.5990   -3.2670 H   0  0  0  0  0  0  0  0  0  0  0  0
   27.0050   65.2650   -2.2450 H   0  0  0  0  0  0  0  0  0  0  0  0
  1  2  1  0  0  0  0
  2  3  1  0  0  0  0
  3  4  2  0  0  0  0
  3 25  1  0  0  0  0
  4 26  1  0  0  0  0
  5  8  1  0  0  0  0
  5  4  1  0  0  0  0
  6  5  2  0  0  0  0
  7  6  1  0  0  0  0
  7  2  2  0  0  0  0
  8 30  1  0  0  0  0
  8  9  1  0  0  0  0
  9 10  1  0  0  0  0
  9 13  1  0  0  0  0
 10 11  2  0  0  0  0
 11 12  1  0  0  0  0
 12 17  1  0  0  0  0
 13 14  1  0  0  0  0
 13 12  2  0  0  0  0
 14 15  2  0  0  0  0
 15 31  1  0  0  0  0
 15 16  1  0  0  0  0
 17 16  2  0  0  0  0
 17 18  1  0  0  0  0
 18 23  1  0  0  0  0
 19 33  1  0  0  0  0
 19 18  1  0  0  0  0
 19 20  1  0  0  0  0
 20 34  1  0  0  0  0
 20 21  1  0  0  0  0
 21 22  1  0  0  0  0
 22 37  1  0  0  0  0
 22 36  1  0  0  0  0
 23 38  1  0  0  0  0
 23 39  1  0  0  0  0
 23 22  1  0  0  0  0
 24 21  1  0  0  0  0
 24 42  1  0  0  0  0
 27  6  1  0  0  0  0
 28  7  1  0  0  0  0
 29  8  1  0  0  0  0
 32 19  1  0  0  0  0
 35 20  1  0  0  0  0
 40 24  1  0  0  0  0
 41 24  1  0  0  0  0
M  END
>  <Pose>
1

>  <Score>
-6.86

$$$$
