
 OpenBabel03202210193D

 49 52  0  0  0  0  0  0  0  0999 V2000
   27.1740   62.2860   -4.9480 Cl  0  0  0  0  0  0  0  0  0  0  0  0
   25.6210   63.0170   -4.5290 C   0  0  0  0  0  0  0  0  0  0  0  0
   24.6260   63.2600   -5.4370 C   0  0  0  0  0  0  0  0  0  0  0  0
   23.4390   63.7770   -5.0500 C   0  0  0  0  0  0  0  0  0  0  0  0
   23.1910   64.0730   -3.7380 C   0  0  0  0  0  0  0  0  0  0  0  0
   24.2190   63.8260   -2.7970 C   0  0  0  0  0  0  0  0  0  0  0  0
   25.4260   63.3090   -3.1740 C   0  0  0  0  0  0  0  0  0  0  0  0
   26.4390   63.0960   -2.2130 O   0  0  0  0  0  0  0  0  0  0  0  0
   22.0510   64.5480   -3.3240 O   0  0  0  0  0  0  0  0  0  0  0  0
   21.0660   64.7630   -4.1890 C   0  0  0  0  0  0  0  0  0  0  0  0
   19.9910   65.2140   -3.7740 O   0  0  0  0  0  0  0  0  0  0  0  0
   21.2390   64.4820   -5.5600 C   0  0  0  0  0  0  0  0  0  0  0  0
   22.4110   63.9920   -6.0220 C   0  0  0  0  0  0  0  0  0  0  0  0
   22.8610   63.7230   -7.3970 C   0  0  0  0  0  0  0  0  0  0  0  0
   22.4700   64.5090   -8.4830 N   0  0  0  0  0  4  0  0  0  0  0  0
   21.1910   64.9780   -8.7190 C   0  0  0  0  0  0  0  0  0  0  0  0
   20.8410   64.8770  -10.2440 C   0  0  0  0  0  0  0  0  0  0  0  0
   20.7090   63.3440  -10.3290 N   0  0  0  0  0  0  0  0  0  0  0  0
   21.9280   62.7160  -10.1690 C   0  0  0  0  0  0  0  0  0  0  0  0
   22.9250   63.8060   -9.7180 C   0  0  0  0  0  0  0  0  0  0  0  0
   19.3700   62.9250  -10.4790 C   0  0  0  0  0  0  0  0  0  0  0  0
   18.8900   61.6760  -10.2930 C   0  0  0  0  0  0  0  0  0  0  0  0
   17.4920   61.4100  -10.2250 C   0  0  0  0  0  0  0  0  0  0  0  0
   16.5660   62.4120  -10.3460 C   0  0  0  0  0  0  0  0  0  0  0  0
   17.0490   63.7010  -10.5460 C   0  0  0  0  0  0  0  0  0  0  0  0
   18.4120   63.9480  -10.6150 C   0  0  0  0  0  0  0  0  0  0  0  0
   15.2130   62.1030  -10.2750 O   0  0  0  0  0  0  0  0  0  0  0  0
   14.3700   62.2100  -11.4330 C   0  0  0  0  0  0  0  0  0  0  0  0
   24.8380   63.0160   -6.4420 H   0  0  0  0  0  0  0  0  0  0  0  0
   24.0410   64.0580   -1.7540 H   0  0  0  0  0  0  0  0  0  0  0  0
   20.4210   64.7280   -6.2130 H   0  0  0  0  0  0  0  0  0  0  0  0
   23.3220   62.7540   -7.6180 H   0  0  0  0  0  0  0  0  0  0  0  0
   23.9780   64.2700   -7.2540 H   0  0  0  0  0  0  0  0  0  0  0  0
   23.1230   65.3580   -8.4790 H   0  0  0  0  0  0  0  0  0  0  0  0
   20.3220   64.3990   -8.2910 H   0  0  0  0  0  0  0  0  0  0  0  0
   20.9470   66.0370   -8.4600 H   0  0  0  0  0  0  0  0  0  0  0  0
   21.5180   65.1890  -10.9350 H   0  0  0  0  0  0  0  0  0  0  0  0
   19.8310   65.2920  -10.2810 H   0  0  0  0  0  0  0  0  0  0  0  0
   21.8510   61.9400   -9.3610 H   0  0  0  0  0  0  0  0  0  0  0  0
   22.4030   62.2060  -11.0470 H   0  0  0  0  0  0  0  0  0  0  0  0
   23.0430   64.5280  -10.4930 H   0  0  0  0  0  0  0  0  0  0  0  0
   23.9350   63.3820   -9.5280 H   0  0  0  0  0  0  0  0  0  0  0  0
   19.6160   60.8590  -10.2050 H   0  0  0  0  0  0  0  0  0  0  0  0
   17.1890   60.4000  -10.0650 H   0  0  0  0  0  0  0  0  0  0  0  0
   16.3510   64.5260  -10.6440 H   0  0  0  0  0  0  0  0  0  0  0  0
   18.7390   64.9400  -10.8060 H   0  0  0  0  0  0  0  0  0  0  0  0
   13.6730   63.1060  -11.2710 H   0  0  0  0  0  0  0  0  0  0  0  0
   13.8280   61.3040  -11.6840 H   0  0  0  0  0  0  0  0  0  0  0  0
   14.9230   62.5180  -12.3440 H   0  0  0  0  0  0  0  0  0  0  0  0
  1  2  1  0  0  0  0
  2  7  1  0  0  0  0
  3  4  1  0  0  0  0
  3  2  2  0  0  0  0
  4  5  2  0  0  0  0
  5  9  1  0  0  0  0
  5  6  1  0  0  0  0
  6 30  1  0  0  0  0
  7  6  2  0  0  0  0
  7  8  1  0  0  0  0
 10 11  2  0  0  0  0
 10  9  1  0  0  0  0
 12 10  1  0  0  0  0
 13 12  2  0  0  0  0
 13  4  1  0  0  0  0
 14 33  1  0  0  0  0
 14 13  1  0  0  0  0
 15 34  1  0  0  0  0
 15 14  1  0  0  0  0
 16 15  1  0  0  0  0
 16 36  1  0  0  0  0
 16 35  1  0  0  0  0
 17 16  1  0  0  0  0
 18 17  1  0  0  0  0
 18 19  1  0  0  0  0
 19 20  1  0  0  0  0
 19 39  1  0  0  0  0
 20 42  1  0  0  0  0
 20 15  1  0  0  0  0
 21 18  1  0  0  0  0
 21 22  1  0  0  0  0
 22 23  2  0  0  0  0
 22 43  1  0  0  0  0
 23 44  1  0  0  0  0
 24 27  1  0  0  0  0
 24 23  1  0  0  0  0
 25 24  2  0  0  0  0
 26 25  1  0  0  0  0
 26 21  2  0  0  0  0
 28 47  1  0  0  0  0
 28 27  1  0  0  0  0
 29  3  1  0  0  0  0
 31 12  1  0  0  0  0
 32 14  1  0  0  0  0
 37 17  1  0  0  0  0
 38 17  1  0  0  0  0
 40 19  1  0  0  0  0
 41 20  1  0  0  0  0
 45 25  1  0  0  0  0
 46 26  1  0  0  0  0
 48 28  1  0  0  0  0
 49 28  1  0  0  0  0
M  END
>  <Pose>
1

>  <Score>
-6.34

$$$$
