
 OpenBabel03202210193D

 56 59  0  0  0  0  0  0  0  0999 V2000
   28.7680   71.4420   -6.1020 B   0  0  0  0  0  0  0  0  0  0  0  0
   27.4110   71.0180   -4.8330 C   0  0  0  0  0  0  0  0  0  0  0  0
   26.0690   70.9540   -5.2450 C   0  0  0  0  0  0  0  0  0  0  0  0
   25.1250   70.6530   -4.3290 C   0  0  0  0  0  0  0  0  0  0  0  0
   25.4430   70.4050   -3.0130 C   0  0  0  0  0  0  0  0  0  0  0  0
   26.7890   70.4710   -2.6250 C   0  0  0  0  0  0  0  0  0  0  0  0
   27.7810   70.7810   -3.5330 C   0  0  0  0  0  0  0  0  0  0  0  0
   24.4440   70.0920   -2.1020 O   0  0  0  0  0  0  0  0  0  0  0  0
   24.0020   70.8870   -1.0580 C   0  0  0  0  0  0  0  0  0  0  0  0
   23.7260   70.4850   -4.7620 C   0  0  0  0  0  0  0  0  0  0  0  0
   23.4430   69.2980   -5.3150 C   0  0  0  0  0  0  0  0  0  0  0  0
   24.3740   68.2820   -5.4950 O   0  0  0  0  0  0  0  0  0  0  0  0
   23.7290   67.1780   -6.0700 C   0  0  0  0  0  0  0  0  0  0  0  0
   22.4060   67.4070   -6.2900 C   0  0  0  0  0  0  0  0  0  0  0  0
   21.5800   66.4470   -6.8270 C   0  0  0  0  0  0  0  0  0  0  0  0
   22.0960   65.1990   -7.1600 C   0  0  0  0  0  0  0  0  0  0  0  0
   23.4540   64.9710   -6.9330 C   0  0  0  0  0  0  0  0  0  0  0  0
   24.2660   65.9240   -6.4060 C   0  0  0  0  0  0  0  0  0  0  0  0
   25.7380   65.8210   -6.3170 C   0  0  0  0  0  0  0  0  0  0  0  0
   26.1820   64.7830   -5.5100 N   0  0  0  0  0  4  0  0  0  0  0  0
   27.1320   65.2550   -4.4550 C   0  0  0  0  0  0  0  0  0  0  0  0
   26.5900   64.6160   -3.1510 C   0  0  0  0  0  0  0  0  0  0  0  0
   25.6710   63.5740   -3.4830 N   0  0  0  0  0  0  0  0  0  0  0  0
   26.1090   62.6650   -4.4680 C   0  0  0  0  0  0  0  0  0  0  0  0
   26.4830   63.4600   -5.7940 C   0  0  0  0  0  0  0  0  0  0  0  0
   24.4470   63.5310   -2.8540 C   0  0  0  0  0  0  0  0  0  0  0  0
   23.4260   62.5120   -3.2490 C   0  0  0  0  0  0  0  0  0  0  0  0
   22.1700   62.8200   -2.7020 O   0  0  0  0  0  0  0  0  0  0  0  0
   23.8930   63.6980   -7.2930 O   0  0  0  0  0  0  0  0  0  0  0  0
   22.1770   68.8010   -5.8100 C   0  0  0  0  0  0  0  0  0  0  0  0
   21.1060   69.4230   -5.8330 O   0  0  0  0  0  0  0  0  0  0  0  0
   25.8940   71.1460   -6.2910 H   0  0  0  0  0  0  0  0  0  0  0  0
   27.0820   70.2860   -1.6020 H   0  0  0  0  0  0  0  0  0  0  0  0
   28.8290   70.8290   -3.1790 H   0  0  0  0  0  0  0  0  0  0  0  0
   23.6220   71.8710   -1.3300 H   0  0  0  0  0  0  0  0  0  0  0  0
   23.1670   70.3480   -0.5380 H   0  0  0  0  0  0  0  0  0  0  0  0
   24.8160   71.0280   -0.2850 H   0  0  0  0  0  0  0  0  0  0  0  0
   22.9900   71.2420   -4.6680 H   0  0  0  0  0  0  0  0  0  0  0  0
   20.5270   66.6790   -6.9850 H   0  0  0  0  0  0  0  0  0  0  0  0
   21.4310   64.4600   -7.5850 H   0  0  0  0  0  0  0  0  0  0  0  0
   26.1250   65.7160   -7.3920 H   0  0  0  0  0  0  0  0  0  0  0  0
   26.1430   66.8310   -6.0390 H   0  0  0  0  0  0  0  0  0  0  0  0
   25.2570   64.7150   -4.8350 H   0  0  0  0  0  0  0  0  0  0  0  0
   27.1020   66.3530   -4.4010 H   0  0  0  0  0  0  0  0  0  0  0  0
   28.1220   64.8390   -4.6960 H   0  0  0  0  0  0  0  0  0  0  0  0
   27.4550   64.2430   -2.5840 H   0  0  0  0  0  0  0  0  0  0  0  0
   26.0940   65.4120   -2.6050 H   0  0  0  0  0  0  0  0  0  0  0  0
   27.0710   62.2420   -4.1420 H   0  0  0  0  0  0  0  0  0  0  0  0
   25.4130   61.8820   -4.6810 H   0  0  0  0  0  0  0  0  0  0  0  0
   27.6060   63.3700   -5.9410 H   0  0  0  0  0  0  0  0  0  0  0  0
   26.0070   62.9270   -6.6090 H   0  0  0  0  0  0  0  0  0  0  0  0
   24.5910   63.3610   -1.7160 H   0  0  0  0  0  0  0  0  0  0  0  0
   23.9470   64.5470   -2.8580 H   0  0  0  0  0  0  0  0  0  0  0  0
   23.6630   61.4730   -3.0370 H   0  0  0  0  0  0  0  0  0  0  0  0
   23.2900   62.5710   -4.3720 H   0  0  0  0  0  0  0  0  0  0  0  0
   21.8400   62.0190   -2.1760 H   0  0  0  0  0  0  0  0  0  0  0  0
  1  2  1  0  0  0  0
  2  7  1  0  0  0  0
  3  2  2  0  0  0  0
  3  4  1  0  0  0  0
  4  5  2  0  0  0  0
  5  6  1  0  0  0  0
  5  8  1  0  0  0  0
  6 33  1  0  0  0  0
  7 34  1  0  0  0  0
  7  6  2  0  0  0  0
  8  9  1  0  0  0  0
  9 36  1  0  0  0  0
  9 37  1  0  0  0  0
 10 38  1  0  0  0  0
 10  4  1  0  0  0  0
 11 10  2  0  0  0  0
 12 11  1  0  0  0  0
 13 12  1  0  0  0  0
 14 13  1  0  0  0  0
 14 30  1  0  0  0  0
 15 14  2  0  0  0  0
 16 17  2  0  0  0  0
 16 15  1  0  0  0  0
 17 18  1  0  0  0  0
 18 19  1  0  0  0  0
 18 13  2  0  0  0  0
 19 42  1  0  0  0  0
 19 20  1  0  0  0  0
 20 43  1  0  0  0  0
 20 21  1  0  0  0  0
 21 44  1  0  0  0  0
 21 22  1  0  0  0  0
 22 47  1  0  0  0  0
 22 46  1  0  0  0  0
 23 22  1  0  0  0  0
 23 26  1  0  0  0  0
 24 48  1  0  0  0  0
 24 23  1  0  0  0  0
 25 20  1  0  0  0  0
 25 24  1  0  0  0  0
 26 52  1  0  0  0  0
 27 54  1  0  0  0  0
 27 26  1  0  0  0  0
 27 28  1  0  0  0  0
 28 56  1  0  0  0  0
 29 17  1  0  0  0  0
 30 11  1  0  0  0  0
 31 30  2  0  0  0  0
 32  3  1  0  0  0  0
 35  9  1  0  0  0  0
 39 15  1  0  0  0  0
 40 16  1  0  0  0  0
 41 19  1  0  0  0  0
 45 21  1  0  0  0  0
 49 24  1  0  0  0  0
 50 25  1  0  0  0  0
 51 25  1  0  0  0  0
 53 26  1  0  0  0  0
 55 27  1  0  0  0  0
M  END
>  <Pose>
1

>  <Score>
-4.85

$$$$
