
 OpenBabel03202210193D

 46 49  0  0  1  0  0  0  0  0999 V2000
   26.7910   62.0380   -7.4380 Cl  0  0  0  0  0  0  0  0  0  0  0  0
   25.5940   62.6760   -6.3320 C   0  0  0  0  0  0  0  0  0  0  0  0
   24.3390   63.0310   -6.8480 C   0  0  0  0  0  0  0  0  0  0  0  0
   23.3810   63.5340   -6.0080 C   0  0  0  0  0  0  0  0  0  0  0  0
   23.7200   63.6630   -4.6560 C   0  0  0  0  0  0  0  0  0  0  0  0
   24.9560   63.3110   -4.1610 C   0  0  0  0  0  0  0  0  0  0  0  0
   25.9260   62.8040   -5.0050 C   0  0  0  0  0  0  0  0  0  0  0  0
   25.3590   63.4840   -2.4570 Cl  0  0  0  0  0  0  0  0  0  0  0  0
   22.0400   63.9320   -6.4610 C   0  0  2  0  0  0  0  0  0  0  0  0
   21.8850   63.7160   -7.9100 C   0  0  0  0  0  0  0  0  0  0  0  0
   22.8490   63.2150   -8.7270 C   0  0  0  0  0  0  0  0  0  0  0  0
   22.6540   63.0350  -10.0660 N   0  0  0  0  0  0  0  0  0  0  0  0
   21.4670   63.3690  -10.5650 C   0  0  0  0  0  0  0  0  0  0  0  0
   21.2380   63.2190  -11.8070 O   0  0  0  0  0  0  0  0  0  0  0  0
   20.4820   63.8690   -9.7910 N   0  0  0  0  0  0  0  0  0  0  0  0
   20.6620   64.0490   -8.4780 C   0  0  0  0  0  0  0  0  0  0  0  0
   19.7440   64.5140   -7.7550 O   0  0  0  0  0  0  0  0  0  0  0  0
   19.2030   64.2130  -10.3970 C   0  0  0  0  0  0  0  0  0  0  0  0
   23.7030   62.5010  -10.9080 C   0  0  0  0  0  0  0  0  0  0  0  0
   24.0640   62.8780   -8.1940 O   0  0  0  0  0  0  0  0  0  0  0  0
   21.7320   65.3500   -6.0810 C   0  0  0  0  0  0  0  0  0  0  0  0
   22.4130   66.4130   -6.6240 C   0  0  0  0  0  0  0  0  0  0  0  0
   22.1680   67.6910   -6.2960 N   0  0  0  0  0  0  0  0  0  0  0  0
   21.2060   67.9390   -5.3870 C   0  0  0  0  0  0  0  0  0  0  0  0
   20.9840   69.1480   -5.0830 O   0  0  0  0  0  0  0  0  0  0  0  0
   20.5150   66.9290   -4.8280 N   0  0  0  0  0  0  0  0  0  0  0  0
   20.7440   65.6470   -5.1440 C   0  0  0  0  0  0  0  0  0  0  0  0
   20.1160   64.6850   -4.6410 O   0  0  0  0  0  0  0  0  0  0  0  0
   19.4940   67.2470   -3.8570 C   0  0  0  0  0  0  0  0  0  0  0  0
   22.9010   68.7920   -6.8910 C   0  0  0  0  0  0  0  0  0  0  0  0
   23.3980   66.1570   -7.5560 O   0  0  0  0  0  0  0  0  0  0  0  0
   22.9660   64.0600   -3.9860 H   0  0  0  0  0  0  0  0  0  0  0  0
   26.9030   62.5190   -4.6500 H   0  0  0  0  0  0  0  0  0  0  0  0
   21.2490   63.3040   -5.9590 H   0  0  0  0  0  0  0  0  0  0  0  0
   19.2620   64.0650  -11.5090 H   0  0  0  0  0  0  0  0  0  0  0  0
   18.8780   65.2390  -10.1670 H   0  0  0  0  0  0  0  0  0  0  0  0
   18.3850   63.5340  -10.0690 H   0  0  0  0  0  0  0  0  0  0  0  0
   24.6640   62.4170  -10.3400 H   0  0  0  0  0  0  0  0  0  0  0  0
   23.9250   63.1630  -11.7700 H   0  0  0  0  0  0  0  0  0  0  0  0
   23.4150   61.4810  -11.2220 H   0  0  0  0  0  0  0  0  0  0  0  0
   18.6390   66.5660   -3.9710 H   0  0  0  0  0  0  0  0  0  0  0  0
   19.1200   68.2870   -3.9690 H   0  0  0  0  0  0  0  0  0  0  0  0
   19.9130   67.2120   -2.8080 H   0  0  0  0  0  0  0  0  0  0  0  0
   22.1320   69.4200   -7.4320 H   0  0  0  0  0  0  0  0  0  0  0  0
   23.3370   69.4760   -6.1280 H   0  0  0  0  0  0  0  0  0  0  0  0
   23.6110   68.4560   -7.6480 H   0  0  0  0  0  0  0  0  0  0  0  0
  1  2  1  0  0  0  0
  2  7  1  0  0  0  0
  3  2  2  0  0  0  0
  3  4  1  0  0  0  0
  4  5  2  0  0  0  0
  5  6  1  0  0  0  0
  5 32  1  0  0  0  0
  6  8  1  0  0  0  0
  7 33  1  0  0  0  0
  7  6  2  0  0  0  0
  9 21  1  0  0  0  0
  9  4  1  0  0  0  0
  9 34  1  1  0  0  0
 10  9  1  0  0  0  0
 11 20  1  0  0  0  0
 11 10  2  0  0  0  0
 12 11  1  0  0  0  0
 13 12  1  0  0  0  0
 13 15  1  0  0  0  0
 14 13  2  0  0  0  0
 15 16  1  0  0  0  0
 16 10  1  0  0  0  0
 16 17  2  0  0  0  0
 18 36  1  0  0  0  0
 18 37  1  0  0  0  0
 18 15  1  0  0  0  0
 19 38  1  0  0  0  0
 19 12  1  0  0  0  0
 20  3  1  0  0  0  0
 21 27  1  0  0  0  0
 22 23  1  0  0  0  0
 22 21  1  0  0  0  0
 23 24  1  0  0  0  0
 24 25  2  0  0  0  0
 24 26  1  0  0  0  0
 26 29  1  0  0  0  0
 27 26  1  0  0  0  0
 27 28  2  0  0  0  0
 29 43  1  0  0  0  0
 30 23  1  0  0  0  0
 30 45  1  0  0  0  0
 31 22  2  0  0  0  0
 35 18  1  0  0  0  0
 39 19  1  0  0  0  0
 40 19  1  0  0  0  0
 41 29  1  0  0  0  0
 42 29  1  0  0  0  0
 44 30  1  0  0  0  0
 46 30  1  0  0  0  0
M  END
>  <Pose>
1

>  <Score>
-4.94

$$$$
