
 OpenBabel03202210193D

 51 55  0  0  1  0  0  0  0  0999 V2000
   17.0280   64.6530  -11.4470 Cl  0  0  0  0  0  0  0  0  0  0  0  0
   18.2240   63.7110  -10.5830 C   0  0  0  0  0  0  0  0  0  0  0  0
   19.3550   64.2730  -10.0550 C   0  0  0  0  0  0  0  0  0  0  0  0
   20.2840   63.4830   -9.3720 C   0  0  0  0  0  0  0  0  0  0  0  0
   20.0250   62.1500   -9.2520 C   0  0  0  0  0  0  0  0  0  0  0  0
   18.8660   61.5710   -9.7930 C   0  0  0  0  0  0  0  0  0  0  0  0
   17.9580   62.3430  -10.4610 C   0  0  0  0  0  0  0  0  0  0  0  0
   21.0920   61.5420   -8.5300 N   0  0  0  0  0  0  0  0  0  0  0  0
   22.0450   62.5190   -8.1870 C   0  0  0  0  0  0  0  0  0  0  0  0
   23.1120   62.2750   -7.5400 O   0  0  0  0  0  0  0  0  0  0  0  0
   21.5600   63.8010   -8.7100 C   0  0  1  0  0  0  0  0  0  0  0  0
   22.4310   64.3480   -9.7270 N   0  0  0  0  0  0  0  0  0  0  0  0
   23.0000   65.5780   -9.2740 C   0  0  2  0  0  0  0  0  0  0  0  0
   22.6400   65.6780   -7.8450 C   0  0  1  0  0  0  0  0  0  0  0  0
   21.4050   64.8480   -7.6340 C   0  0  2  0  0  0  0  0  0  0  0  0
   21.6100   64.3050   -6.2730 C   0  0  0  0  0  0  0  0  0  0  0  0
   20.7550   63.8260   -5.4860 O   0  0  0  0  0  0  0  0  0  0  0  0
   23.0070   64.3910   -5.9190 N   0  0  0  0  0  0  0  0  0  0  0  0
   23.6800   64.9410   -7.0450 C   0  0  0  0  0  0  0  0  0  0  0  0
   24.9040   64.8130   -7.2840 O   0  0  0  0  0  0  0  0  0  0  0  0
   23.5870   63.9850   -4.6560 C   0  0  0  0  0  0  0  0  0  0  0  0
   24.0140   62.5430   -4.6370 C   0  0  1  0  0  0  0  0  0  0  0  0
   25.2020   62.3990   -5.3490 O   0  0  0  0  0  0  0  0  0  0  0  0
   26.2350   62.5370   -4.4500 C   0  0  0  0  0  0  0  0  0  0  0  0
   25.7370   62.0980   -3.0910 C   0  0  0  0  0  0  0  0  0  0  0  0
   24.2370   61.9800   -3.2770 C   0  0  0  0  0  0  0  0  0  0  0  0
   22.5800   66.7580  -10.1090 C   0  0  0  0  0  0  0  0  0  0  0  0
   21.1650   67.0750  -10.0530 C   0  0  0  0  0  0  0  0  0  0  0  0
   20.4580   66.9740  -11.0770 O   0  0  0  0  0  0  0  0  0  0  0  0
   20.5630   67.5030   -8.8490 N   0  0  0  0  0  0  0  0  0  0  0  0
   19.5530   65.3100  -10.1480 H   0  0  0  0  0  0  0  0  0  0  0  0
   18.7190   60.5200   -9.6670 H   0  0  0  0  0  0  0  0  0  0  0  0
   17.0730   61.8810  -10.8700 H   0  0  0  0  0  0  0  0  0  0  0  0
   21.1760   60.5120   -8.2770 H   0  0  0  0  0  0  0  0  0  0  0  0
   21.9380   64.5370  -10.6270 H   0  0  0  0  0  0  0  0  0  0  0  0
   24.1190   65.4450   -9.3440 H   0  0  0  0  0  0  0  0  0  0  0  0
   22.5320   66.7080   -7.4470 H   0  0  0  0  0  0  0  0  0  0  0  0
   20.4660   65.4250   -7.7210 H   0  0  0  0  0  0  0  0  0  0  0  0
   24.4610   64.6280   -4.4240 H   0  0  0  0  0  0  0  0  0  0  0  0
   22.8470   64.1730   -3.8310 H   0  0  0  0  0  0  0  0  0  0  0  0
   23.2470   61.9350   -5.1580 H   0  0  0  0  0  0  0  0  0  0  0  0
   27.0530   61.8560   -4.7780 H   0  0  0  0  0  0  0  0  0  0  0  0
   26.6680   63.5580   -4.4270 H   0  0  0  0  0  0  0  0  0  0  0  0
   26.1400   61.0990   -2.8530 H   0  0  0  0  0  0  0  0  0  0  0  0
   25.9650   62.8530   -2.3120 H   0  0  0  0  0  0  0  0  0  0  0  0
   23.6690   62.4770   -2.4850 H   0  0  0  0  0  0  0  0  0  0  0  0
   23.9280   60.8940   -3.2250 H   0  0  0  0  0  0  0  0  0  0  0  0
   23.1520   67.6440   -9.7100 H   0  0  0  0  0  0  0  0  0  0  0  0
   22.9750   66.6150  -11.1380 H   0  0  0  0  0  0  0  0  0  0  0  0
   19.5610   67.2610   -8.6630 H   0  0  0  0  0  0  0  0  0  0  0  0
   21.0470   68.0540   -8.1160 H   0  0  0  0  0  0  0  0  0  0  0  0
  1  2  1  0  0  0  0
  2  7  2  0  0  0  0
  2  3  1  0  0  0  0
  3  4  2  0  0  0  0
  4  5  1  0  0  0  0
  5  8  1  0  0  0  0
  6 32  1  0  0  0  0
  6  5  2  0  0  0  0
  7  6  1  0  0  0  0
  8 34  1  0  0  0  0
  8  9  1  0  0  0  0
  9 10  2  0  0  0  0
 11  4  1  6  0  0  0
 11  9  1  0  0  0  0
 11 15  1  0  0  0  0
 12 13  1  0  0  0  0
 12 11  1  0  0  0  0
 13 36  1  6  0  0  0
 13 14  1  0  0  0  0
 14 15  1  0  0  0  0
 14 37  1  1  0  0  0
 14 19  1  0  0  0  0
 15 38  1  6  0  0  0
 15 16  1  0  0  0  0
 16 18  1  0  0  0  0
 16 17  2  0  0  0  0
 18 21  1  0  0  0  0
 19 18  1  0  0  0  0
 20 19  2  0  0  0  0
 21 22  1  0  0  0  0
 21 39  1  0  0  0  0
 21 40  1  0  0  0  0
 22 41  1  6  0  0  0
 22 26  1  0  0  0  0
 23 22  1  0  0  0  0
 23 24  1  0  0  0  0
 24 43  1  0  0  0  0
 24 25  1  0  0  0  0
 25 44  1  0  0  0  0
 25 45  1  0  0  0  0
 26 47  1  0  0  0  0
 26 25  1  0  0  0  0
 26 46  1  0  0  0  0
 27 28  1  0  0  0  0
 27 48  1  0  0  0  0
 27 13  1  0  0  0  0
 28 30  1  0  0  0  0
 29 28  2  0  0  0  0
 30 50  1  0  0  0  0
 30 51  1  0  0  0  0
 31  3  1  0  0  0  0
 33  7  1  0  0  0  0
 35 12  1  0  0  0  0
 42 24  1  0  0  0  0
 49 27  1  0  0  0  0
M  END
>  <Pose>
1

>  <Score>
-6.31

$$$$
