
 OpenBabel03202210193D

 53 56  0  0  0  0  0  0  0  0999 V2000
   26.3670   62.5730   -1.1250 Cl  0  0  0  0  0  0  0  0  0  0  0  0
   25.5560   62.6930   -2.6660 C   0  0  0  0  0  0  0  0  0  0  0  0
   26.2510   62.6760   -3.8530 C   0  0  0  0  0  0  0  0  0  0  0  0
   25.6310   62.7670   -5.0620 C   0  0  0  0  0  0  0  0  0  0  0  0
   24.2290   62.8890   -5.1690 C   0  0  0  0  0  0  0  0  0  0  0  0
   23.5340   62.9060   -3.9410 C   0  0  0  0  0  0  0  0  0  0  0  0
   24.1880   62.8110   -2.7490 C   0  0  0  0  0  0  0  0  0  0  0  0
   23.5840   62.9820   -6.2870 O   0  0  0  0  0  0  0  0  0  0  0  0
   22.9790   63.0720   -7.4160 C   0  0  0  0  0  0  0  0  0  0  0  0
   22.9230   64.2960   -8.2390 C   0  0  0  0  0  0  0  0  0  0  0  0
   23.3900   65.3560   -7.6390 O   0  0  0  0  0  0  0  0  0  0  0  0
   22.4600   64.4890   -9.5300 N   0  0  0  0  0  0  0  0  0  0  0  0
   21.3500   65.4710   -9.7280 C   0  0  0  0  0  0  0  0  0  0  0  0
   20.4190   64.8430  -10.7350 C   0  0  0  0  0  0  0  0  0  0  0  0
   20.5700   63.4030  -10.8300 N   0  0  0  0  0  0  0  0  0  0  0  0
   21.8490   62.9020  -11.2580 C   0  0  0  0  0  0  0  0  0  0  0  0
   22.8980   63.8820  -10.7600 C   0  0  0  0  0  0  0  0  0  0  0  0
   19.4910   62.5540  -10.5050 C   0  0  0  0  0  0  0  0  0  0  0  0
   18.2010   62.9540  -10.6760 N   0  0  0  0  0  0  0  0  0  0  0  0
   17.1540   62.1930  -10.3890 C   0  0  0  0  0  0  0  0  0  0  0  0
   17.4030   60.9510   -9.8990 N   0  0  0  0  0  0  0  0  0  0  0  0
   18.6260   60.4910   -9.7050 C   0  0  0  0  0  0  0  0  0  0  0  0
   19.7190   61.2960  -10.0080 C   0  0  0  0  0  0  0  0  0  0  0  0
   15.8070   62.5950  -10.5610 N   0  0  0  0  0  0  0  0  0  0  0  0
   14.7700   61.5900  -10.7720 C   0  0  0  0  0  0  0  0  0  0  0  0
   14.0410   62.0300  -12.0460 C   0  0  0  0  0  0  0  0  0  0  0  0
   13.4910   63.2710  -11.8680 O   0  0  0  0  0  0  0  0  0  0  0  0
   14.3960   64.2810  -11.6480 C   0  0  0  0  0  0  0  0  0  0  0  0
   15.3810   63.9720  -10.5430 C   0  0  0  0  0  0  0  0  0  0  0  0
   27.3360   62.5810   -3.7650 H   0  0  0  0  0  0  0  0  0  0  0  0
   26.1830   62.7450   -5.9670 H   0  0  0  0  0  0  0  0  0  0  0  0
   22.4540   62.9980   -4.0090 H   0  0  0  0  0  0  0  0  0  0  0  0
   23.6270   62.8260   -1.8200 H   0  0  0  0  0  0  0  0  0  0  0  0
   21.8520   62.7890   -7.3040 H   0  0  0  0  0  0  0  0  0  0  0  0
   23.2580   62.2460   -8.1890 H   0  0  0  0  0  0  0  0  0  0  0  0
   21.8500   66.3650  -10.1530 H   0  0  0  0  0  0  0  0  0  0  0  0
   20.8540   65.6700   -8.7530 H   0  0  0  0  0  0  0  0  0  0  0  0
   20.7060   65.2300  -11.7580 H   0  0  0  0  0  0  0  0  0  0  0  0
   19.3430   65.0860  -10.5310 H   0  0  0  0  0  0  0  0  0  0  0  0
   22.0700   61.8740  -10.9610 H   0  0  0  0  0  0  0  0  0  0  0  0
   21.8670   62.8900  -12.3880 H   0  0  0  0  0  0  0  0  0  0  0  0
   22.8800   64.7120  -11.5430 H   0  0  0  0  0  0  0  0  0  0  0  0
   23.9160   63.5160  -10.7860 H   0  0  0  0  0  0  0  0  0  0  0  0
   18.8030   59.4870   -9.3080 H   0  0  0  0  0  0  0  0  0  0  0  0
   20.7250   60.9090   -9.8490 H   0  0  0  0  0  0  0  0  0  0  0  0
   15.1970   60.5800  -10.9130 H   0  0  0  0  0  0  0  0  0  0  0  0
   14.0690   61.6650   -9.9420 H   0  0  0  0  0  0  0  0  0  0  0  0
   14.7830   61.9890  -12.8790 H   0  0  0  0  0  0  0  0  0  0  0  0
   13.2560   61.2980  -12.2380 H   0  0  0  0  0  0  0  0  0  0  0  0
   14.9720   64.5610  -12.5580 H   0  0  0  0  0  0  0  0  0  0  0  0
   13.8330   65.1850  -11.3380 H   0  0  0  0  0  0  0  0  0  0  0  0
   16.2460   64.6540  -10.6860 H   0  0  0  0  0  0  0  0  0  0  0  0
   14.9250   64.2190   -9.5700 H   0  0  0  0  0  0  0  0  0  0  0  0
  2  1  1  0  0  0  0
  3 30  1  0  0  0  0
  3  2  2  0  0  0  0
  4  3  1  0  0  0  0
  5  4  2  0  0  0  0
  5  6  1  0  0  0  0
  6  7  2  0  0  0  0
  7  2  1  0  0  0  0
  7 33  1  0  0  0  0
  8  5  1  0  0  0  0
  9 34  1  0  0  0  0
  9  8  1  0  0  0  0
 10 11  2  0  0  0  0
 10  9  1  0  0  0  0
 12 10  1  0  0  0  0
 13 12  1  0  0  0  0
 13 37  1  0  0  0  0
 14 39  1  0  0  0  0
 14 13  1  0  0  0  0
 15 14  1  0  0  0  0
 15 18  1  0  0  0  0
 16 40  1  0  0  0  0
 16 15  1  0  0  0  0
 16 17  1  0  0  0  0
 17 12  1  0  0  0  0
 18 23  2  0  0  0  0
 19 18  1  0  0  0  0
 19 20  2  0  0  0  0
 20 21  1  0  0  0  0
 21 22  2  0  0  0  0
 22 44  1  0  0  0  0
 23 45  1  0  0  0  0
 23 22  1  0  0  0  0
 24 29  1  0  0  0  0
 24 20  1  0  0  0  0
 25 24  1  0  0  0  0
 25 47  1  0  0  0  0
 26 27  1  0  0  0  0
 26 25  1  0  0  0  0
 27 28  1  0  0  0  0
 28 51  1  0  0  0  0
 28 29  1  0  0  0  0
 29 53  1  0  0  0  0
 31  4  1  0  0  0  0
 32  6  1  0  0  0  0
 35  9  1  0  0  0  0
 36 13  1  0  0  0  0
 38 14  1  0  0  0  0
 41 16  1  0  0  0  0
 42 17  1  0  0  0  0
 43 17  1  0  0  0  0
 46 25  1  0  0  0  0
 48 26  1  0  0  0  0
 49 26  1  0  0  0  0
 50 28  1  0  0  0  0
 52 29  1  0  0  0  0
M  END
>  <Pose>
1

>  <Score>
-6.28

$$$$
