
 OpenBabel03202210193D

 45 49  0  0  0  0  0  0  0  0999 V2000
   11.4930   63.0850  -14.4770 Cl  0  0  0  0  0  0  0  0  0  0  0  0
   12.8790   63.2940  -13.4500 C   0  0  0  0  0  0  0  0  0  0  0  0
   13.4290   62.2080  -12.8180 C   0  0  0  0  0  0  0  0  0  0  0  0
   14.5270   62.3680  -12.0020 C   0  0  0  0  0  0  0  0  0  0  0  0
   15.1030   63.6000  -11.7960 C   0  0  0  0  0  0  0  0  0  0  0  0
   14.5280   64.6710  -12.4430 C   0  0  0  0  0  0  0  0  0  0  0  0
   13.4260   64.5300  -13.2650 C   0  0  0  0  0  0  0  0  0  0  0  0
   16.2340   63.8270  -10.9680 N   0  0  0  0  0  0  0  0  0  0  0  0
   16.6640   64.9820  -10.4920 N   0  0  0  0  0  0  0  0  0  0  0  0
   17.7480   64.8330   -9.7550 N   0  0  0  0  0  0  0  0  0  0  0  0
   18.0820   63.5320   -9.7200 C   0  0  0  0  0  0  0  0  0  0  0  0
   17.1170   62.9140  -10.4890 C   0  0  0  0  0  0  0  0  0  0  0  0
   17.1950   61.5730  -10.6380 N   0  0  0  0  0  0  0  0  0  0  0  0
   18.1960   60.8990  -10.0410 C   0  0  0  0  0  0  0  0  0  0  0  0
   19.1410   61.5110   -9.2850 N   0  0  0  0  0  0  0  0  0  0  0  0
   19.1090   62.8440   -9.1050 C   0  0  0  0  0  0  0  0  0  0  0  0
   20.0970   63.5060   -8.3130 N   0  0  0  0  0  0  0  0  0  0  0  0
   19.6490   64.0560   -7.0480 C   0  0  0  0  0  0  0  0  0  0  0  0
   20.8130   64.1840   -6.0680 C   0  0  0  0  0  0  0  0  0  0  0  0
   22.0130   64.5460   -6.7320 N   0  0  0  0  0  0  0  0  0  0  0  0
   22.4690   63.5160   -7.7160 C   0  0  0  0  0  0  0  0  0  0  0  0
   21.4310   63.5740   -8.8210 C   0  0  0  0  0  0  0  0  0  0  0  0
   22.7400   65.7110   -6.5520 C   0  0  0  0  0  0  0  0  0  0  0  0
   24.0100   65.6150   -6.9060 O   0  0  0  0  0  0  0  0  0  0  0  0
   22.3880   67.0310   -6.0520 C   0  0  0  0  0  0  0  0  0  0  0  0
   23.1620   68.2020   -6.5250 C   0  0  0  0  0  0  0  0  0  0  0  0
   21.6730   68.0900   -6.7570 C   0  0  0  0  0  0  0  0  0  0  0  0
   12.9630   61.2290  -12.9880 H   0  0  0  0  0  0  0  0  0  0  0  0
   14.9340   61.4940  -11.5210 H   0  0  0  0  0  0  0  0  0  0  0  0
   14.9650   65.6610  -12.2980 H   0  0  0  0  0  0  0  0  0  0  0  0
   13.0330   65.4360  -13.7420 H   0  0  0  0  0  0  0  0  0  0  0  0
   18.2500   59.8100  -10.1680 H   0  0  0  0  0  0  0  0  0  0  0  0
   19.1280   65.0140   -7.2150 H   0  0  0  0  0  0  0  0  0  0  0  0
   18.9190   63.3690   -6.5770 H   0  0  0  0  0  0  0  0  0  0  0  0
   21.0020   63.1240   -5.6720 H   0  0  0  0  0  0  0  0  0  0  0  0
   20.4760   64.7340   -5.2160 H   0  0  0  0  0  0  0  0  0  0  0  0
   23.4630   63.7490   -8.0880 H   0  0  0  0  0  0  0  0  0  0  0  0
   22.3890   62.5450   -7.2270 H   0  0  0  0  0  0  0  0  0  0  0  0
   21.6480   64.5120   -9.3910 H   0  0  0  0  0  0  0  0  0  0  0  0
   21.6450   62.7280   -9.5080 H   0  0  0  0  0  0  0  0  0  0  0  0
   22.1830   67.0340   -4.9120 H   0  0  0  0  0  0  0  0  0  0  0  0
   23.8910   68.1120   -7.3430 H   0  0  0  0  0  0  0  0  0  0  0  0
   23.4840   68.9920   -5.7960 H   0  0  0  0  0  0  0  0  0  0  0  0
   21.0210   68.7770   -6.1190 H   0  0  0  0  0  0  0  0  0  0  0  0
   21.3430   68.1070   -7.7850 H   0  0  0  0  0  0  0  0  0  0  0  0
  1  2  1  0  0  0  0
  2  7  2  0  0  0  0
  2  3  1  0  0  0  0
  3  4  2  0  0  0  0
  4  5  1  0  0  0  0
  4 29  1  0  0  0  0
  5  8  1  0  0  0  0
  6 30  1  0  0  0  0
  6  5  2  0  0  0  0
  7  6  1  0  0  0  0
  8  9  1  0  0  0  0
  8 12  1  0  0  0  0
  9 10  2  0  0  0  0
 10 11  1  0  0  0  0
 11 16  1  0  0  0  0
 12 11  2  0  0  0  0
 13 12  1  0  0  0  0
 13 14  2  0  0  0  0
 14 15  1  0  0  0  0
 15 16  2  0  0  0  0
 16 17  1  0  0  0  0
 17 18  1  0  0  0  0
 18 34  1  0  0  0  0
 18 19  1  0  0  0  0
 19 35  1  0  0  0  0
 19 36  1  0  0  0  0
 20 23  1  0  0  0  0
 20 19  1  0  0  0  0
 21 38  1  0  0  0  0
 21 20  1  0  0  0  0
 22 17  1  0  0  0  0
 22 21  1  0  0  0  0
 23 25  1  0  0  0  0
 24 23  2  0  0  0  0
 25 41  1  0  0  0  0
 26 25  1  0  0  0  0
 26 43  1  0  0  0  0
 27 26  1  0  0  0  0
 27 44  1  0  0  0  0
 27 25  1  0  0  0  0
 28  3  1  0  0  0  0
 31  7  1  0  0  0  0
 32 14  1  0  0  0  0
 33 18  1  0  0  0  0
 37 21  1  0  0  0  0
 39 22  1  0  0  0  0
 40 22  1  0  0  0  0
 42 26  1  0  0  0  0
 45 27  1  0  0  0  0
M  END
>  <Pose>
1

>  <Score>
-6.02

$$$$
