
 OpenBabel03202210193D

 45 48  0  0  0  0  0  0  0  0999 V2000
   20.2750   60.0360   -9.5660 Cl  0  0  0  0  0  0  0  0  0  0  0  0
   19.3440   61.4880   -9.8660 C   0  0  0  0  0  0  0  0  0  0  0  0
   18.0070   61.3640  -10.1160 C   0  0  0  0  0  0  0  0  0  0  0  0
   17.2160   62.4510  -10.3600 C   0  0  0  0  0  0  0  0  0  0  0  0
   17.8010   63.6900  -10.3480 C   0  0  0  0  0  0  0  0  0  0  0  0
   19.1780   63.8110  -10.0910 C   0  0  0  0  0  0  0  0  0  0  0  0
   19.9800   62.7320   -9.8470 C   0  0  0  0  0  0  0  0  0  0  0  0
   21.3530   62.7600   -9.5730 N   0  0  0  0  0  0  0  0  0  0  0  0
   22.1460   63.9100   -9.5630 C   0  0  0  0  0  0  0  0  0  0  0  0
   22.5370   64.4710  -10.5970 O   0  0  0  0  0  0  0  0  0  0  0  0
   22.5640   64.5280   -8.2740 C   0  0  0  0  0  0  0  0  0  0  0  0
   23.2010   63.7980   -7.4130 N   0  0  0  0  0  0  0  0  0  0  0  0
   23.6270   64.2980   -6.1840 N   0  0  0  0  0  0  0  0  0  0  0  0
   23.3590   65.6450   -5.8640 C   0  0  0  0  0  0  0  0  0  0  0  0
   23.8450   66.0820   -4.7670 O   0  0  0  0  0  0  0  0  0  0  0  0
   22.5580   66.5270   -6.7370 C   0  0  0  0  0  0  0  0  0  0  0  0
   22.2820   65.8850   -7.9740 N   0  0  0  0  0  0  0  0  0  0  0  0
   24.3320   63.4510   -5.2440 C   0  0  0  0  0  0  0  0  0  0  0  0
   25.5680   62.9270   -5.5340 C   0  0  0  0  0  0  0  0  0  0  0  0
   26.2300   62.1150   -4.6080 C   0  0  0  0  0  0  0  0  0  0  0  0
   25.6570   61.8210   -3.3870 C   0  0  0  0  0  0  0  0  0  0  0  0
   24.4180   62.3510   -3.1120 C   0  0  0  0  0  0  0  0  0  0  0  0
   23.7780   63.1430   -4.0190 C   0  0  0  0  0  0  0  0  0  0  0  0
   26.3230   60.9630   -2.3630 C   0  0  0  0  0  0  0  0  0  0  0  0
   17.0690   64.8490  -10.5870 O   0  0  0  0  0  0  0  0  0  0  0  0
   15.6370   64.8840  -10.4910 C   0  0  0  0  0  0  0  0  0  0  0  0
   15.0730   63.5470  -10.8450 C   0  0  0  0  0  0  0  0  0  0  0  0
   13.9300   63.4980  -11.3540 O   0  0  0  0  0  0  0  0  0  0  0  0
   15.8100   62.3500  -10.6140 N   0  0  0  0  0  0  0  0  0  0  0  0
   17.4970   60.3870  -10.1340 H   0  0  0  0  0  0  0  0  0  0  0  0
   19.6010   64.8080  -10.0900 H   0  0  0  0  0  0  0  0  0  0  0  0
   21.8280   61.8280   -9.3560 H   0  0  0  0  0  0  0  0  0  0  0  0
   21.5610   66.7050   -6.2380 H   0  0  0  0  0  0  0  0  0  0  0  0
   23.0440   67.5190   -6.8540 H   0  0  0  0  0  0  0  0  0  0  0  0
   21.8310   66.4470   -8.7420 H   0  0  0  0  0  0  0  0  0  0  0  0
   26.0210   63.1570   -6.4910 H   0  0  0  0  0  0  0  0  0  0  0  0
   27.1900   61.7130   -4.8380 H   0  0  0  0  0  0  0  0  0  0  0  0
   23.9680   62.1120   -2.1360 H   0  0  0  0  0  0  0  0  0  0  0  0
   22.8010   63.5440   -3.7620 H   0  0  0  0  0  0  0  0  0  0  0  0
   25.6360   60.2050   -1.9470 H   0  0  0  0  0  0  0  0  0  0  0  0
   27.2120   60.4560   -2.7530 H   0  0  0  0  0  0  0  0  0  0  0  0
   26.6590   61.6170   -1.5180 H   0  0  0  0  0  0  0  0  0  0  0  0
   15.4180   65.0500   -9.4030 H   0  0  0  0  0  0  0  0  0  0  0  0
   15.2270   65.6920  -11.1090 H   0  0  0  0  0  0  0  0  0  0  0  0
   15.3390   61.4240  -10.6300 H   0  0  0  0  0  0  0  0  0  0  0  0
  2  7  1  0  0  0  0
  2  1  1  0  0  0  0
  3  2  2  0  0  0  0
  4  5  2  0  0  0  0
  4  3  1  0  0  0  0
  5  6  1  0  0  0  0
  6 31  1  0  0  0  0
  6  7  2  0  0  0  0
  7  8  1  0  0  0  0
  8  9  1  0  0  0  0
  8 32  1  0  0  0  0
  9 11  1  0  0  0  0
 10  9  2  0  0  0  0
 11 17  1  0  0  0  0
 11 12  2  0  0  0  0
 12 13  1  0  0  0  0
 13 14  1  0  0  0  0
 13 18  1  0  0  0  0
 14 15  2  0  0  0  0
 16 33  1  0  0  0  0
 16 14  1  0  0  0  0
 17 16  1  0  0  0  0
 18 23  1  0  0  0  0
 19 18  2  0  0  0  0
 19 20  1  0  0  0  0
 20 21  2  0  0  0  0
 21 22  1  0  0  0  0
 21 24  1  0  0  0  0
 22 38  1  0  0  0  0
 23 39  1  0  0  0  0
 23 22  2  0  0  0  0
 24 40  1  0  0  0  0
 24 42  1  0  0  0  0
 25 26  1  0  0  0  0
 25  5  1  0  0  0  0
 26 43  1  0  0  0  0
 27 29  1  0  0  0  0
 27 26  1  0  0  0  0
 28 27  2  0  0  0  0
 29  4  1  0  0  0  0
 30  3  1  0  0  0  0
 34 16  1  0  0  0  0
 35 17  1  0  0  0  0
 36 19  1  0  0  0  0
 37 20  1  0  0  0  0
 41 24  1  0  0  0  0
 44 26  1  0  0  0  0
 45 29  1  0  0  0  0
M  END
>  <Pose>
1

>  <Score>
-8.15

$$$$
