
 OpenBabel03202210193D

 41 44  0  0  1  0  0  0  0  0999 V2000
   22.1880   64.6300   -7.6390 S   0  0  0  0  0  0  0  0  0  0  0  0
   21.1610   63.9350   -6.7560 O   0  0  0  0  0  0  0  0  0  0  0  0
   21.7340   66.0870   -7.6650 O   0  0  0  0  0  0  0  0  0  0  0  0
   23.7250   64.5820   -6.9700 N   0  0  0  0  0  0  0  0  0  0  0  0
   24.7220   63.8610   -7.6540 C   0  0  0  0  0  0  0  0  0  0  0  0
   25.9930   63.6580   -6.8530 C   0  0  0  0  0  0  0  0  0  0  0  0
   25.5680   63.0680   -5.5490 C   0  0  1  0  0  0  0  0  0  0  0  0
   24.4990   63.6700   -4.9180 C   0  0  0  0  0  0  0  0  0  0  0  0
   24.0700   63.1910   -3.7500 N   0  0  0  0  0  0  0  0  0  0  0  0
   24.7050   62.1240   -3.2240 C   0  0  2  0  0  0  0  0  0  0  0  0
   25.7480   61.5190   -3.8180 N   0  0  0  0  0  0  0  0  0  0  0  0
   26.1760   60.4880   -3.0660 N   0  0  0  0  0  0  0  0  0  0  0  0
   25.4260   60.3860   -1.9580 C   0  0  0  0  0  0  0  0  0  0  0  0
   24.5020   61.4010   -2.0410 C   0  0  0  0  0  0  0  0  0  0  0  0
   26.2090   61.9780   -5.0030 C   0  0  0  0  0  0  0  0  0  0  0  0
   27.1810   61.4550   -5.6070 O   0  0  0  0  0  0  0  0  0  0  0  0
   23.8870   64.8370   -5.5990 C   0  0  0  0  0  0  0  0  0  0  0  0
   22.0140   63.9840   -9.2250 C   0  0  0  0  0  0  0  0  0  0  0  0
   20.8330   63.3550   -9.6130 C   0  0  0  0  0  0  0  0  0  0  0  0
   20.7280   62.8460  -10.8890 C   0  0  0  0  0  0  0  0  0  0  0  0
   21.7390   62.9350  -11.7900 C   0  0  0  0  0  0  0  0  0  0  0  0
   22.9100   63.5460  -11.4400 C   0  0  0  0  0  0  0  0  0  0  0  0
   23.0160   64.0550  -10.1630 C   0  0  0  0  0  0  0  0  0  0  0  0
   24.2420   63.6760  -12.5930 Cl  0  0  0  0  0  0  0  0  0  0  0  0
   19.7610   63.2240   -8.7630 O   0  0  0  0  0  0  0  0  0  0  0  0
   18.4710   63.0500   -9.3060 C   0  0  0  0  0  0  0  0  0  0  0  0
   24.9770   64.3920   -8.6050 H   0  0  0  0  0  0  0  0  0  0  0  0
   24.3180   62.8610   -7.9660 H   0  0  0  0  0  0  0  0  0  0  0  0
   26.4860   64.6460   -6.7210 H   0  0  0  0  0  0  0  0  0  0  0  0
   26.6300   62.9660   -7.4310 H   0  0  0  0  0  0  0  0  0  0  0  0
   26.9780   59.8720   -3.3320 H   0  0  0  0  0  0  0  0  0  0  0  0
   25.5020   59.6660   -1.1440 H   0  0  0  0  0  0  0  0  0  0  0  0
   23.7040   61.6610   -1.3290 H   0  0  0  0  0  0  0  0  0  0  0  0
   24.6310   65.6790   -5.4800 H   0  0  0  0  0  0  0  0  0  0  0  0
   22.9680   65.1820   -5.1300 H   0  0  0  0  0  0  0  0  0  0  0  0
   19.8090   62.3430  -11.2280 H   0  0  0  0  0  0  0  0  0  0  0  0
   21.6490   62.5270  -12.8060 H   0  0  0  0  0  0  0  0  0  0  0  0
   23.9830   64.5350   -9.9390 H   0  0  0  0  0  0  0  0  0  0  0  0
   18.2230   63.8580  -10.0270 H   0  0  0  0  0  0  0  0  0  0  0  0
   18.3860   62.0850   -9.8660 H   0  0  0  0  0  0  0  0  0  0  0  0
   17.7050   62.9810   -8.4950 H   0  0  0  0  0  0  0  0  0  0  0  0
  1  4  1  0  0  0  0
  1  2  2  0  0  0  0
  3  1  2  0  0  0  0
  4 17  1  0  0  0  0
  5  4  1  0  0  0  0
  5  6  1  0  0  0  0
  6 29  1  0  0  0  0
  6  7  1  0  0  0  0
  7 15  1  6  0  0  0
  7  8  1  0  0  0  0
  8  9  2  0  0  0  0
 10  9  1  6  0  0  0
 10 14  1  0  0  0  0
 11 10  1  0  0  0  0
 11 12  1  0  0  0  0
 12 13  1  0  0  0  0
 13 32  1  0  0  0  0
 14 13  2  0  0  0  0
 14 33  1  0  0  0  0
 15 11  1  0  0  0  0
 16 15  2  0  0  0  0
 17 34  1  0  0  0  0
 17 35  1  0  0  0  0
 17  8  1  0  0  0  0
 18  1  1  0  0  0  0
 19 18  1  0  0  0  0
 19 25  1  0  0  0  0
 20 19  2  0  0  0  0
 21 22  2  0  0  0  0
 21 20  1  0  0  0  0
 22 23  1  0  0  0  0
 23 38  1  0  0  0  0
 23 18  2  0  0  0  0
 24 22  1  0  0  0  0
 26 25  1  0  0  0  0
 26 41  1  0  0  0  0
 27  5  1  0  0  0  0
 28  5  1  0  0  0  0
 30  6  1  0  0  0  0
 31 12  1  0  0  0  0
 36 20  1  0  0  0  0
 37 21  1  0  0  0  0
 39 26  1  0  0  0  0
 40 26  1  0  0  0  0
M  END
>  <Pose>
1

>  <Score>
-6.33

$$$$
