
 OpenBabel03202210193D

 41 43  0  0  1  0  0  0  0  0999 V2000
   20.3020   62.1350  -12.5750 Cl  0  0  0  0  0  0  0  0  0  0  0  0
   20.8100   62.9020  -11.0730 C   0  0  0  0  0  0  0  0  0  0  0  0
   22.1430   63.1960  -10.8810 C   0  0  0  0  0  0  0  0  0  0  0  0
   22.5210   63.7960   -9.7000 C   0  0  0  0  0  0  0  0  0  0  0  0
   21.6150   64.1220   -8.6850 C   0  0  0  0  0  0  0  0  0  0  0  0
   20.2980   63.8270   -8.8850 C   0  0  0  0  0  0  0  0  0  0  0  0
   19.8950   63.2180  -10.0790 C   0  0  0  0  0  0  0  0  0  0  0  0
   22.1390   64.7500   -7.4990 C   0  0  0  0  0  0  0  0  0  0  0  0
   22.1990   66.0110   -7.4480 O   0  0  0  0  0  0  0  0  0  0  0  0
   22.5800   63.9400   -6.4080 N   0  0  0  0  0  0  0  0  0  0  0  0
   23.9110   64.1450   -5.9170 C   0  0  0  0  0  0  0  0  0  0  0  0
   24.3880   63.2320   -4.8590 C   0  0  2  0  0  0  0  0  0  0  0  0
   23.9400   63.4820   -3.5230 N   0  0  1  0  0  0  0  0  0  0  0  0
   23.7380   62.1390   -2.9270 C   0  0  0  0  0  0  0  0  0  0  0  0
   25.0100   61.3720   -3.3090 C   0  0  0  0  0  0  0  0  0  0  0  0
   26.1210   62.2610   -3.5840 N   0  0  1  0  0  0  0  0  0  0  0  0
   25.8970   63.0630   -4.7890 C   0  0  0  0  0  0  0  0  0  0  0  0
   26.1710   63.2200   -2.4940 C   0  0  0  0  0  0  0  0  0  0  0  0
   24.9270   64.0870   -2.6510 C   0  0  0  0  0  0  0  0  0  0  0  0
   23.0650   62.8840  -11.8700 O   0  0  0  0  0  0  0  0  0  0  0  0
   24.3530   63.4700  -11.8890 C   0  0  0  0  0  0  0  0  0  0  0  0
   23.5840   64.0120   -9.5860 H   0  0  0  0  0  0  0  0  0  0  0  0
   19.5500   64.0480   -8.1570 H   0  0  0  0  0  0  0  0  0  0  0  0
   18.8460   62.9940  -10.2150 H   0  0  0  0  0  0  0  0  0  0  0  0
   21.9340   63.2520   -6.0220 H   0  0  0  0  0  0  0  0  0  0  0  0
   24.6280   64.1320   -6.7500 H   0  0  0  0  0  0  0  0  0  0  0  0
   23.9270   65.1850   -5.4790 H   0  0  0  0  0  0  0  0  0  0  0  0
   24.0270   62.1950   -5.1740 H   0  0  0  0  0  0  0  0  0  0  0  0
   22.8610   61.7220   -3.4540 H   0  0  0  0  0  0  0  0  0  0  0  0
   23.6190   62.2290   -1.8450 H   0  0  0  0  0  0  0  0  0  0  0  0
   25.2840   60.8090   -2.3920 H   0  0  0  0  0  0  0  0  0  0  0  0
   24.8040   60.6520   -4.1070 H   0  0  0  0  0  0  0  0  0  0  0  0
   26.4400   64.0000   -4.6640 H   0  0  0  0  0  0  0  0  0  0  0  0
   26.2490   62.5000   -5.6820 H   0  0  0  0  0  0  0  0  0  0  0  0
   27.0780   63.8350   -2.6540 H   0  0  0  0  0  0  0  0  0  0  0  0
   26.1870   62.6430   -1.5630 H   0  0  0  0  0  0  0  0  0  0  0  0
   25.1610   65.1260   -2.8460 H   0  0  0  0  0  0  0  0  0  0  0  0
   24.4520   64.0590   -1.6190 H   0  0  0  0  0  0  0  0  0  0  0  0
   24.8630   63.1430  -10.9580 H   0  0  0  0  0  0  0  0  0  0  0  0
   24.2820   64.5880  -11.8300 H   0  0  0  0  0  0  0  0  0  0  0  0
   24.8960   63.1220  -12.7670 H   0  0  0  0  0  0  0  0  0  0  0  0
  1  2  1  0  0  0  0
  2  3  2  0  0  0  0
  2  7  1  0  0  0  0
  3  4  1  0  0  0  0
  4 22  1  0  0  0  0
  4  5  2  0  0  0  0
  5  8  1  0  0  0  0
  6  5  1  0  0  0  0
  6 23  1  0  0  0  0
  7  6  2  0  0  0  0
  8  9  2  0  0  0  0
  8 10  1  0  0  0  0
 10 25  1  0  0  0  0
 10 11  1  0  0  0  0
 11 27  1  0  0  0  0
 11 12  1  0  0  0  0
 12 28  1  6  0  0  0
 12 17  1  0  0  0  0
 12 13  1  0  0  0  0
 13 14  1  1  0  0  0
 13 19  1  0  0  0  0
 14 30  1  0  0  0  0
 15 14  1  0  0  0  0
 15 31  1  0  0  0  0
 16 17  1  6  0  0  0
 16 15  1  0  0  0  0
 16 18  1  0  0  0  0
 17 33  1  0  0  0  0
 18 36  1  0  0  0  0
 19 18  1  0  0  0  0
 19 38  1  0  0  0  0
 20  3  1  0  0  0  0
 21 20  1  0  0  0  0
 21 40  1  0  0  0  0
 21 39  1  0  0  0  0
 24  7  1  0  0  0  0
 26 11  1  0  0  0  0
 29 14  1  0  0  0  0
 32 15  1  0  0  0  0
 34 17  1  0  0  0  0
 35 18  1  0  0  0  0
 37 19  1  0  0  0  0
 41 21  1  0  0  0  0
M  END
>  <Pose>
1

>  <Score>
-6.64

$$$$
