
 OpenBabel03202210193D

 47 50  0  0  1  0  0  0  0  0999 V2000
   23.7060   63.5020   -4.5140 Cl  0  0  0  0  0  0  0  0  0  0  0  0
   23.0810   63.8260   -6.1110 C   0  0  0  0  0  0  0  0  0  0  0  0
   22.0770   64.7550   -6.3550 C   0  0  0  0  0  0  0  0  0  0  0  0
   21.6020   64.9940   -7.6110 C   0  0  0  0  0  0  0  0  0  0  0  0
   22.1120   64.3090   -8.6980 C   0  0  0  0  0  0  0  0  0  0  0  0
   23.1040   63.3900   -8.4630 C   0  0  0  0  0  0  0  0  0  0  0  0
   23.5840   63.1490   -7.1870 C   0  0  0  0  0  0  0  0  0  0  0  0
   21.6000   64.6030  -10.0210 C   0  0  2  0  0  0  0  0  0  0  0  0
   21.0690   63.6570  -10.8700 N   0  0  0  0  0  4  0  0  0  0  0  0
   22.2060   62.8950  -11.3420 C   0  0  0  0  0  0  0  0  0  0  0  0
   22.4680   61.6430  -11.5370 C   0  0  0  0  0  0  0  0  0  0  0  0
   23.7580   61.1400  -12.0440 C   0  0  0  0  0  0  0  0  0  0  0  0
   24.7930   62.1730  -12.3120 C   0  0  0  0  0  0  0  0  0  0  0  0
   24.2580   63.5480  -12.5280 C   0  0  0  0  0  0  0  0  0  0  0  0
   23.1870   63.8810  -11.6130 N   0  0  0  0  0  0  0  0  0  0  0  0
   22.8380   65.0700  -10.8400 C   0  0  0  0  0  0  0  0  0  0  0  0
   19.9690   62.8670  -10.5750 C   0  0  0  0  0  0  0  0  0  0  0  0
   19.9610   61.7000   -9.8900 C   0  0  0  0  0  0  0  0  0  0  0  0
   18.7640   61.0230   -9.6610 C   0  0  0  0  0  0  0  0  0  0  0  0
   17.5440   61.4980  -10.1100 C   0  0  0  0  0  0  0  0  0  0  0  0
   17.5830   62.6890  -10.8040 C   0  0  0  0  0  0  0  0  0  0  0  0
   18.7420   63.3770  -11.0460 C   0  0  0  0  0  0  0  0  0  0  0  0
   16.3770   60.7930   -9.8610 O   0  0  0  0  0  0  0  0  0  0  0  0
   15.3530   60.7950  -10.8220 C   0  0  0  0  0  0  0  0  0  0  0  0
   20.8030   65.7810   -9.9740 O   0  0  0  0  0  0  0  0  0  0  0  0
   21.6910   65.2840   -5.4750 H   0  0  0  0  0  0  0  0  0  0  0  0
   20.8110   65.7430   -7.7100 H   0  0  0  0  0  0  0  0  0  0  0  0
   23.5810   62.8100   -9.2370 H   0  0  0  0  0  0  0  0  0  0  0  0
   24.3790   62.4130   -7.0080 H   0  0  0  0  0  0  0  0  0  0  0  0
   20.7930   64.1890  -11.7750 H   0  0  0  0  0  0  0  0  0  0  0  0
   21.7330   60.8780  -11.3180 H   0  0  0  0  0  0  0  0  0  0  0  0
   23.6120   60.4340  -12.8990 H   0  0  0  0  0  0  0  0  0  0  0  0
   24.1510   60.4660  -11.2230 H   0  0  0  0  0  0  0  0  0  0  0  0
   25.3450   61.8550  -13.2440 H   0  0  0  0  0  0  0  0  0  0  0  0
   25.5490   62.2440  -11.4810 H   0  0  0  0  0  0  0  0  0  0  0  0
   23.9070   63.6420  -13.5960 H   0  0  0  0  0  0  0  0  0  0  0  0
   25.0540   64.3090  -12.4070 H   0  0  0  0  0  0  0  0  0  0  0  0
   22.5190   65.8410  -11.5700 H   0  0  0  0  0  0  0  0  0  0  0  0
   23.6480   65.3980  -10.1860 H   0  0  0  0  0  0  0  0  0  0  0  0
   20.8950   61.3080   -9.5220 H   0  0  0  0  0  0  0  0  0  0  0  0
   18.8290   60.0890   -9.1030 H   0  0  0  0  0  0  0  0  0  0  0  0
   16.6070   63.0470  -11.1490 H   0  0  0  0  0  0  0  0  0  0  0  0
   18.6960   64.3280  -11.5940 H   0  0  0  0  0  0  0  0  0  0  0  0
   14.8870   61.7970  -10.9000 H   0  0  0  0  0  0  0  0  0  0  0  0
   14.6060   59.9940  -10.6310 H   0  0  0  0  0  0  0  0  0  0  0  0
   15.7450   60.5620  -11.8540 H   0  0  0  0  0  0  0  0  0  0  0  0
   21.3760   66.5030  -10.3410 H   0  0  0  0  0  0  0  0  0  0  0  0
  2  1  1  0  0  0  0
  3  2  1  0  0  0  0
  3 26  1  0  0  0  0
  4  3  2  0  0  0  0
  5  6  2  0  0  0  0
  5  4  1  0  0  0  0
  6  7  1  0  0  0  0
  7 29  1  0  0  0  0
  7  2  2  0  0  0  0
  8 25  1  1  0  0  0
  8  5  1  0  0  0  0
  9 17  1  0  0  0  0
  9  8  1  0  0  0  0
 10  9  1  0  0  0  0
 11 10  2  0  0  0  0
 11 31  1  0  0  0  0
 12 11  1  0  0  0  0
 12 33  1  0  0  0  0
 13 12  1  0  0  0  0
 13 35  1  0  0  0  0
 14 37  1  0  0  0  0
 14 13  1  0  0  0  0
 14 15  1  0  0  0  0
 15 10  1  0  0  0  0
 15 16  1  0  0  0  0
 16 39  1  0  0  0  0
 16  8  1  0  0  0  0
 17 18  1  0  0  0  0
 18 19  2  0  0  0  0
 18 40  1  0  0  0  0
 19 41  1  0  0  0  0
 20 23  1  0  0  0  0
 20 19  1  0  0  0  0
 21 20  2  0  0  0  0
 22 21  1  0  0  0  0
 22 17  2  0  0  0  0
 24 45  1  0  0  0  0
 24 23  1  0  0  0  0
 27  4  1  0  0  0  0
 28  6  1  0  0  0  0
 30  9  1  0  0  0  0
 32 12  1  0  0  0  0
 34 13  1  0  0  0  0
 36 14  1  0  0  0  0
 38 16  1  0  0  0  0
 42 21  1  0  0  0  0
 43 22  1  0  0  0  0
 44 24  1  0  0  0  0
 46 24  1  0  0  0  0
 47 25  1  0  0  0  0
M  END
>  <Pose>
1

>  <Score>
-4.86

$$$$
