
 OpenBabel03202210193D

 51 54  0  0  0  0  0  0  0  0999 V2000
   12.2830   64.5020  -13.5470 Cl  0  0  0  0  0  0  0  0  0  0  0  0
   13.5350   63.7650  -12.5780 C   0  0  0  0  0  0  0  0  0  0  0  0
   13.4430   62.4530  -12.2040 C   0  0  0  0  0  0  0  0  0  0  0  0
   14.4690   61.8850  -11.4380 C   0  0  0  0  0  0  0  0  0  0  0  0
   15.5730   62.6040  -11.0440 C   0  0  0  0  0  0  0  0  0  0  0  0
   15.6810   63.9530  -11.4230 C   0  0  0  0  0  0  0  0  0  0  0  0
   14.6490   64.4820  -12.1810 C   0  0  0  0  0  0  0  0  0  0  0  0
   16.3980   61.8310  -10.3420 N   0  0  0  0  0  0  0  0  0  0  0  0
   15.7840   60.6010  -10.2990 C   0  0  0  0  0  0  0  0  0  0  0  0
   16.2450   59.5770   -9.7170 O   0  0  0  0  0  0  0  0  0  0  0  0
   14.6540   60.6840  -10.9570 O   0  0  0  0  0  0  0  0  0  0  0  0
   17.6410   62.1230   -9.6510 C   0  0  0  0  0  0  0  0  0  0  0  0
   18.8510   61.4690  -10.1410 C   0  0  0  0  0  0  0  0  0  0  0  0
   19.9320   62.2070  -10.7470 C   0  0  0  0  0  0  0  0  0  0  0  0
   19.7700   62.4710  -12.0000 O   0  0  0  0  0  0  0  0  0  0  0  0
   21.1100   62.6930  -10.1760 N   0  0  0  0  0  0  0  0  0  0  0  0
   21.6540   64.0450  -10.4050 C   0  0  0  0  0  0  0  0  0  0  0  0
   21.3800   64.6470   -8.9910 C   0  0  0  0  0  0  0  0  0  0  0  0
   22.2400   63.9510   -8.0440 N   0  0  0  0  0  0  0  0  0  0  0  0
   22.6900   62.6950   -8.3020 C   0  0  0  0  0  0  0  0  0  0  0  0
   21.9530   61.8900   -9.3340 C   0  0  0  0  0  0  0  0  0  0  0  0
   22.1070   64.5710   -6.8120 C   0  0  0  0  0  0  0  0  0  0  0  0
   23.4340   64.6230   -6.0530 C   0  0  0  0  0  0  0  0  0  0  0  0
   24.1170   65.6920   -6.2870 O   0  0  0  0  0  0  0  0  0  0  0  0
   23.8090   63.6350   -5.2490 N   0  0  0  0  0  0  0  0  0  0  0  0
   24.2090   62.5840   -4.3920 C   0  0  0  0  0  0  0  0  0  0  0  0
   24.8660   63.0540   -3.0380 C   0  0  0  0  0  0  0  0  0  0  0  0
   25.6830   62.4480   -4.0720 C   0  0  0  0  0  0  0  0  0  0  0  0
   12.5840   61.8540  -12.4930 H   0  0  0  0  0  0  0  0  0  0  0  0
   16.5370   64.4830  -11.1030 H   0  0  0  0  0  0  0  0  0  0  0  0
   14.7340   65.5180  -12.4640 H   0  0  0  0  0  0  0  0  0  0  0  0
   17.4670   61.8510   -8.5650 H   0  0  0  0  0  0  0  0  0  0  0  0
   17.7020   63.2590   -9.7070 H   0  0  0  0  0  0  0  0  0  0  0  0
   18.5700   60.6580  -10.9160 H   0  0  0  0  0  0  0  0  0  0  0  0
   19.3170   60.9030   -9.2560 H   0  0  0  0  0  0  0  0  0  0  0  0
   21.1810   64.5980  -11.1820 H   0  0  0  0  0  0  0  0  0  0  0  0
   22.7480   64.0210  -10.5590 H   0  0  0  0  0  0  0  0  0  0  0  0
   21.6080   65.7110   -8.9890 H   0  0  0  0  0  0  0  0  0  0  0  0
   20.3450   64.5140   -8.6750 H   0  0  0  0  0  0  0  0  0  0  0  0
   22.7430   62.0700   -7.3550 H   0  0  0  0  0  0  0  0  0  0  0  0
   23.8110   62.7420   -8.6050 H   0  0  0  0  0  0  0  0  0  0  0  0
   21.4500   61.0320   -8.8990 H   0  0  0  0  0  0  0  0  0  0  0  0
   22.7860   61.4320   -9.9870 H   0  0  0  0  0  0  0  0  0  0  0  0
   21.3830   64.0050   -6.1790 H   0  0  0  0  0  0  0  0  0  0  0  0
   21.6940   65.6240   -6.8490 H   0  0  0  0  0  0  0  0  0  0  0  0
   22.7600   62.8660   -5.6390 H   0  0  0  0  0  0  0  0  0  0  0  0
   23.4780   61.7930   -4.1090 H   0  0  0  0  0  0  0  0  0  0  0  0
   24.6840   64.0970   -2.8460 H   0  0  0  0  0  0  0  0  0  0  0  0
   24.6420   62.3980   -2.1440 H   0  0  0  0  0  0  0  0  0  0  0  0
   26.4200   63.0410   -4.6810 H   0  0  0  0  0  0  0  0  0  0  0  0
   26.1060   61.4250   -3.8650 H   0  0  0  0  0  0  0  0  0  0  0  0
  1  2  1  0  0  0  0
  2  3  2  0  0  0  0
  2  7  1  0  0  0  0
  3  4  1  0  0  0  0
  4  5  2  0  0  0  0
  4 11  1  0  0  0  0
  5  8  1  0  0  0  0
  6 30  1  0  0  0  0
  6  5  1  0  0  0  0
  7  6  2  0  0  0  0
  8  9  1  0  0  0  0
  8 12  1  0  0  0  0
  9 10  2  0  0  0  0
 11  9  1  0  0  0  0
 12 32  1  0  0  0  0
 13 12  1  0  0  0  0
 13 35  1  0  0  0  0
 14 16  1  0  0  0  0
 14 13  1  0  0  0  0
 15 14  2  0  0  0  0
 16 21  1  0  0  0  0
 17 16  1  0  0  0  0
 17 18  1  0  0  0  0
 18 38  1  0  0  0  0
 18 39  1  0  0  0  0
 18 19  1  0  0  0  0
 19 22  1  0  0  0  0
 20 19  1  0  0  0  0
 20 40  1  0  0  0  0
 21 42  1  0  0  0  0
 21 20  1  0  0  0  0
 22 44  1  0  0  0  0
 22 23  1  0  0  0  0
 23 25  1  0  0  0  0
 24 23  2  0  0  0  0
 25 26  1  0  0  0  0
 26 47  1  0  0  0  0
 26 28  1  0  0  0  0
 26 27  1  0  0  0  0
 27 48  1  0  0  0  0
 27 49  1  0  0  0  0
 28 51  1  0  0  0  0
 28 27  1  0  0  0  0
 29  3  1  0  0  0  0
 31  7  1  0  0  0  0
 33 12  1  0  0  0  0
 34 13  1  0  0  0  0
 36 17  1  0  0  0  0
 37 17  1  0  0  0  0
 41 20  1  0  0  0  0
 43 21  1  0  0  0  0
 45 22  1  0  0  0  0
 46 25  1  0  0  0  0
 50 28  1  0  0  0  0
M  END
>  <Pose>
1

>  <Score>
-7.57

$$$$
