
 OpenBabel03202210193D

 38 40  0  0  1  0  0  0  0  0999 V2000
   19.8320   64.5080   -6.3630 Cl  0  0  0  0  0  0  0  0  0  0  0  0
   21.4800   64.2160   -5.8530 C   0  0  0  0  0  0  0  0  0  0  0  0
   22.5290   64.5300   -6.6910 C   0  0  0  0  0  0  0  0  0  0  0  0
   23.7990   64.2780   -6.2220 C   0  0  0  0  0  0  0  0  0  0  0  0
   24.8350   64.5290   -6.9110 O   0  0  0  0  0  0  0  0  0  0  0  0
   23.9700   63.7490   -5.0010 N   0  0  0  0  0  0  0  0  0  0  0  0
   22.9980   63.4340   -4.1680 N   0  0  0  0  0  0  0  0  0  0  0  0
   23.2290   62.8630   -2.8520 C   0  0  1  0  0  0  0  0  0  0  0  0
   23.6850   61.4200   -2.9210 C   0  0  0  0  0  0  0  0  0  0  0  0
   25.1760   61.3470   -3.2000 C   0  0  0  0  0  0  0  0  0  0  0  0
   25.5200   61.9920   -4.5230 C   0  0  0  0  0  0  0  0  0  0  0  0
   25.3360   63.4870   -4.5220 C   0  0  2  0  0  0  0  0  0  0  0  0
   25.3760   63.9570   -3.1110 C   0  0  0  0  0  0  0  0  0  0  0  0
   24.3940   63.6340   -2.2770 C   0  0  0  0  0  0  0  0  0  0  0  0
   21.7280   63.6740   -4.6100 C   0  0  0  0  0  0  0  0  0  0  0  0
   20.7660   63.3790   -3.8240 O   0  0  0  0  0  0  0  0  0  0  0  0
   22.3480   65.0870   -7.9890 N   0  0  0  0  0  0  0  0  0  0  0  0
   21.8550   64.3610   -9.1280 C   0  0  0  0  0  0  0  0  0  0  0  0
   20.7060   65.0850   -9.8080 C   0  0  0  0  0  0  0  0  0  0  0  0
   22.8860   64.0580  -10.1630 C   0  0  0  0  0  0  0  0  0  0  0  0
   22.3630   62.9610   -2.1980 H   0  0  0  0  0  0  0  0  0  0  0  0
   23.0980   60.8130   -3.6210 H   0  0  0  0  0  0  0  0  0  0  0  0
   23.5330   60.9850   -1.9090 H   0  0  0  0  0  0  0  0  0  0  0  0
   25.4370   60.2750   -3.2920 H   0  0  0  0  0  0  0  0  0  0  0  0
   25.7150   61.8470   -2.3790 H   0  0  0  0  0  0  0  0  0  0  0  0
   24.8390   61.5080   -5.2820 H   0  0  0  0  0  0  0  0  0  0  0  0
   26.5430   61.6840   -4.8150 H   0  0  0  0  0  0  0  0  0  0  0  0
   26.0790   64.0070   -5.1570 H   0  0  0  0  0  0  0  0  0  0  0  0
   26.2060   64.5680   -2.7510 H   0  0  0  0  0  0  0  0  0  0  0  0
   24.4090   63.9020   -1.2280 H   0  0  0  0  0  0  0  0  0  0  0  0
   22.6130   66.1160   -8.0610 H   0  0  0  0  0  0  0  0  0  0  0  0
   21.4400   63.3980   -8.7700 H   0  0  0  0  0  0  0  0  0  0  0  0
   21.0360   66.0730  -10.2010 H   0  0  0  0  0  0  0  0  0  0  0  0
   20.4190   64.4740  -10.6820 H   0  0  0  0  0  0  0  0  0  0  0  0
   19.8180   65.1770   -9.1490 H   0  0  0  0  0  0  0  0  0  0  0  0
   22.3480   63.5950  -11.0250 H   0  0  0  0  0  0  0  0  0  0  0  0
   23.6620   63.3310   -9.8190 H   0  0  0  0  0  0  0  0  0  0  0  0
   23.3340   64.9820  -10.5520 H   0  0  0  0  0  0  0  0  0  0  0  0
  1  2  1  0  0  0  0
  2 15  1  0  0  0  0
  3  4  1  0  0  0  0
  3  2  2  0  0  0  0
  4  6  1  0  0  0  0
  5  4  2  0  0  0  0
  6 12  1  0  0  0  0
  6  7  1  0  0  0  0
  7  8  1  0  0  0  0
  8 14  1  0  0  0  0
  8 21  1  1  0  0  0
  9  8  1  0  0  0  0
  9 23  1  0  0  0  0
 10  9  1  0  0  0  0
 10 25  1  0  0  0  0
 11 12  1  0  0  0  0
 11 10  1  0  0  0  0
 12 28  1  6  0  0  0
 12 13  1  0  0  0  0
 13 29  1  0  0  0  0
 13 14  2  0  0  0  0
 14 30  1  0  0  0  0
 15  7  1  0  0  0  0
 15 16  2  0  0  0  0
 17  3  1  0  0  0  0
 18 32  1  0  0  0  0
 18 17  1  0  0  0  0
 19 35  1  0  0  0  0
 19 18  1  0  0  0  0
 20 37  1  0  0  0  0
 20 18  1  0  0  0  0
 22  9  1  0  0  0  0
 24 10  1  0  0  0  0
 26 11  1  0  0  0  0
 27 11  1  0  0  0  0
 31 17  1  0  0  0  0
 33 19  1  0  0  0  0
 34 19  1  0  0  0  0
 36 20  1  0  0  0  0
 38 20  1  0  0  0  0
M  END
>  <Pose>
1

>  <Score>
-5.17

$$$$
