
 OpenBabel03202210193D

 36 39  0  0  1  0  0  0  0  0999 V2000
   25.9350   62.0510   -3.5320 Cl  0  0  0  0  0  0  0  0  0  0  0  0
   24.5310   62.7810   -4.2870 C   0  0  0  0  0  0  0  0  0  0  0  0
   23.3480   62.7890   -3.5780 C   0  0  0  0  0  0  0  0  0  0  0  0
   22.2670   63.3820   -4.2430 C   0  0  0  0  0  0  0  0  0  0  0  0
   21.1730   63.4180   -3.6490 O   0  0  0  0  0  0  0  0  0  0  0  0
   22.4030   63.8940   -5.4720 N   0  0  0  0  0  0  0  0  0  0  0  0
   23.5430   63.8820   -6.1470 N   0  0  0  0  0  0  0  0  0  0  0  0
   23.5190   64.4870   -7.4710 C   0  0  1  0  0  0  0  0  0  0  0  0
   22.4420   63.7610   -8.2570 C   0  0  1  0  0  0  0  0  0  0  0  0
   21.1840   63.7240   -7.5030 C   0  0  1  0  0  0  0  0  0  0  0  0
   21.2860   64.5130   -6.1900 C   0  0  2  0  0  0  0  0  0  0  0  0
   21.8020   65.8720   -6.5710 C   0  0  0  0  0  0  0  0  0  0  0  0
   22.9490   65.8660   -7.2290 C   0  0  0  0  0  0  0  0  0  0  0  0
   21.2930   64.5160   -8.8130 C   0  0  0  0  0  0  0  0  0  0  0  0
   24.6020   63.3300   -5.5630 C   0  0  0  0  0  0  0  0  0  0  0  0
   25.6890   63.3140   -6.1950 O   0  0  0  0  0  0  0  0  0  0  0  0
   23.1900   62.2530   -2.2680 N   0  0  0  0  0  0  0  0  0  0  0  0
   23.9240   62.6500   -1.1230 C   0  0  0  0  0  0  0  0  0  0  0  0
   23.1000   63.2940   -0.0380 C   0  0  0  0  0  0  0  0  0  0  0  0
   24.6790   61.5020   -0.4670 C   0  0  0  0  0  0  0  0  0  0  0  0
   24.4850   64.5130   -7.9630 H   0  0  0  0  0  0  0  0  0  0  0  0
   22.8130   62.9240   -8.8710 H   0  0  0  0  0  0  0  0  0  0  0  0
   20.5030   62.8520   -7.5080 H   0  0  0  0  0  0  0  0  0  0  0  0
   20.3630   64.5350   -5.6310 H   0  0  0  0  0  0  0  0  0  0  0  0
   21.2250   66.7340   -6.2920 H   0  0  0  0  0  0  0  0  0  0  0  0
   23.4950   66.7120   -7.5980 H   0  0  0  0  0  0  0  0  0  0  0  0
   20.7860   64.1230   -9.6970 H   0  0  0  0  0  0  0  0  0  0  0  0
   21.3130   65.6300   -8.6440 H   0  0  0  0  0  0  0  0  0  0  0  0
   22.4650   61.5100   -2.1770 H   0  0  0  0  0  0  0  0  0  0  0  0
   24.7000   63.3890   -1.4070 H   0  0  0  0  0  0  0  0  0  0  0  0
   22.7250   64.3020   -0.3080 H   0  0  0  0  0  0  0  0  0  0  0  0
   23.7400   63.4740    0.8770 H   0  0  0  0  0  0  0  0  0  0  0  0
   22.2600   62.7000    0.3110 H   0  0  0  0  0  0  0  0  0  0  0  0
   25.2800   61.9830    0.3580 H   0  0  0  0  0  0  0  0  0  0  0  0
   25.4260   61.0750   -1.1580 H   0  0  0  0  0  0  0  0  0  0  0  0
   24.0260   60.7780    0.0180 H   0  0  0  0  0  0  0  0  0  0  0  0
  2  3  2  0  0  0  0
  2  1  1  0  0  0  0
  3 17  1  0  0  0  0
  4  5  2  0  0  0  0
  4  3  1  0  0  0  0
  6  4  1  0  0  0  0
  7 15  1  0  0  0  0
  7  6  1  0  0  0  0
  8 21  1  6  0  0  0
  8 13  1  0  0  0  0
  8  7  1  0  0  0  0
  9 22  1  6  0  0  0
  9 10  1  0  0  0  0
  9  8  1  0  0  0  0
 10 23  1  6  0  0  0
 10 11  1  0  0  0  0
 11 24  1  1  0  0  0
 11  6  1  0  0  0  0
 12 25  1  0  0  0  0
 12 11  1  0  0  0  0
 13 12  2  0  0  0  0
 14 28  1  0  0  0  0
 14  9  1  0  0  0  0
 14 10  1  0  0  0  0
 15  2  1  0  0  0  0
 16 15  2  0  0  0  0
 17 29  1  0  0  0  0
 17 18  1  0  0  0  0
 18 20  1  0  0  0  0
 18 19  1  0  0  0  0
 19 33  1  0  0  0  0
 19 32  1  0  0  0  0
 20 36  1  0  0  0  0
 20 34  1  0  0  0  0
 26 13  1  0  0  0  0
 27 14  1  0  0  0  0
 30 18  1  0  0  0  0
 31 19  1  0  0  0  0
 35 20  1  0  0  0  0
M  END
>  <Pose>
1

>  <Score>
-4.86

$$$$
