
 OpenBabel03202210193D

 59 62  0  0  1  0  0  0  0  0999 V2000
   21.9450   63.0920  -11.8110 Cl  0  0  0  0  0  0  0  0  0  0  0  0
   20.6790   62.8890  -10.5350 C   0  0  2  0  0  0  0  0  0  0  0  0
   21.0840   62.8940   -9.2720 C   0  0  2  0  0  0  0  0  0  0  0  0
   20.0110   62.6730   -8.2730 C   0  0  0  0  0  0  0  0  0  0  0  0
   18.8150   62.5270   -8.7060 N   0  0  0  0  0  0  0  0  0  0  0  0
   18.4400   62.5450  -10.0120 N   0  0  0  0  0  0  0  0  0  0  0  0
   19.3510   62.7210  -10.9290 C   0  0  0  0  0  0  0  0  0  0  0  0
   19.1030   62.7660  -12.1810 O   0  0  0  0  0  0  0  0  0  0  0  0
   17.0060   62.6350  -10.2830 C   0  0  0  0  0  0  0  0  0  0  0  0
   16.3910   63.8010  -10.6100 C   0  0  0  0  0  0  0  0  0  0  0  0
   15.0640   63.8330  -10.9780 C   0  0  0  0  0  0  0  0  0  0  0  0
   14.3100   62.6610  -11.0270 C   0  0  0  0  0  0  0  0  0  0  0  0
   14.9660   61.4810  -10.6770 C   0  0  0  0  0  0  0  0  0  0  0  0
   16.2590   61.4720  -10.3220 C   0  0  0  0  0  0  0  0  0  0  0  0
   22.2820   63.3880   -8.7800 N   0  0  0  0  0  0  0  0  0  0  0  0
   23.2590   62.9180   -7.8920 C   0  0  0  0  0  0  0  0  0  0  0  0
   23.3630   63.9660   -6.7250 C   0  0  0  0  0  0  0  0  0  0  0  0
   22.3830   64.9320   -6.6530 N   0  0  0  0  0  0  0  0  0  0  0  0
   21.7010   65.3370   -7.8520 C   0  0  0  0  0  0  0  0  0  0  0  0
   22.5040   64.8610   -9.1060 C   0  0  0  0  0  0  0  0  0  0  0  0
   22.8290   66.2500   -6.0880 C   0  0  0  0  0  0  0  0  0  0  0  0
   22.0060   67.3200   -6.6310 C   0  0  0  0  0  0  0  0  0  0  0  0
   21.4980   67.5220   -7.6060 O   0  0  0  0  0  0  0  0  0  0  0  0
   21.7860   68.5360   -5.4520 N   0  0  0  0  0  0  0  0  0  0  0  0
   23.0050   69.3200   -5.8600 C   0  0  0  0  0  0  0  0  0  0  0  0
   23.3200   69.5870   -6.9870 O   0  0  0  0  0  0  0  0  0  0  0  0
   23.7480   69.7300   -4.6910 N   0  0  0  0  0  0  0  0  0  0  0  0
   25.1390   69.9660   -4.5920 C   0  0  0  0  0  0  0  0  0  0  0  0
   25.7240   71.1660   -5.2180 C   0  0  0  0  0  0  0  0  0  0  0  0
   25.7320   72.2760   -4.1630 C   0  0  0  0  0  0  0  0  0  0  0  0
   25.9730   71.4800   -2.9020 C   0  0  0  0  0  0  0  0  0  0  0  0
   25.4040   70.1420   -3.0820 C   0  0  0  0  0  0  0  0  0  0  0  0
   20.4250   62.6620   -7.2890 H   0  0  0  0  0  0  0  0  0  0  0  0
   16.9500   64.7350  -10.5580 H   0  0  0  0  0  0  0  0  0  0  0  0
   14.5870   64.7180  -11.2690 H   0  0  0  0  0  0  0  0  0  0  0  0
   13.2910   62.7300  -11.3310 H   0  0  0  0  0  0  0  0  0  0  0  0
   14.3540   60.5810  -10.7510 H   0  0  0  0  0  0  0  0  0  0  0  0
   16.7360   60.5360  -10.0620 H   0  0  0  0  0  0  0  0  0  0  0  0
   23.1850   61.9100   -7.5060 H   0  0  0  0  0  0  0  0  0  0  0  0
   24.2370   62.9360   -8.4510 H   0  0  0  0  0  0  0  0  0  0  0  0
   24.4080   64.3830   -6.8570 H   0  0  0  0  0  0  0  0  0  0  0  0
   23.4940   63.3250   -5.8000 H   0  0  0  0  0  0  0  0  0  0  0  0
   20.7090   64.8470   -8.0160 H   0  0  0  0  0  0  0  0  0  0  0  0
   21.7130   66.4190   -7.9570 H   0  0  0  0  0  0  0  0  0  0  0  0
   22.0830   65.1660  -10.0160 H   0  0  0  0  0  0  0  0  0  0  0  0
   23.5680   65.1130   -8.8730 H   0  0  0  0  0  0  0  0  0  0  0  0
   22.7470   66.0940   -5.0210 H   0  0  0  0  0  0  0  0  0  0  0  0
   23.8750   66.3830   -6.3800 H   0  0  0  0  0  0  0  0  0  0  0  0
   21.1620   68.1290   -5.2450 H   0  0  0  0  0  0  0  0  0  0  0  0
   23.1640   69.8450   -3.7970 H   0  0  0  0  0  0  0  0  0  0  0  0
   25.7220   69.0600   -5.0110 H   0  0  0  0  0  0  0  0  0  0  0  0
   26.7990   70.9540   -5.4290 H   0  0  0  0  0  0  0  0  0  0  0  0
   25.2290   71.5080   -6.1500 H   0  0  0  0  0  0  0  0  0  0  0  0
   24.7460   72.7860   -4.1130 H   0  0  0  0  0  0  0  0  0  0  0  0
   26.5630   73.0070   -4.3480 H   0  0  0  0  0  0  0  0  0  0  0  0
   25.3580   72.0150   -2.0920 H   0  0  0  0  0  0  0  0  0  0  0  0
   27.0300   71.4740   -2.5670 H   0  0  0  0  0  0  0  0  0  0  0  0
   25.9540   69.2870   -2.6400 H   0  0  0  0  0  0  0  0  0  0  0  0
   24.3540   70.1720   -2.5840 H   0  0  0  0  0  0  0  0  0  0  0  0
  2  1  1  6  0  0  0
  2  3  1  0  0  0  0
  3 15  1  1  0  0  0
  3  4  1  0  0  0  0
  4 33  1  0  0  0  0
  5  4  2  0  0  0  0
  6  5  1  0  0  0  0
  7  2  1  0  0  0  0
  7  6  1  0  0  0  0
  8  7  2  0  0  0  0
  9  6  1  0  0  0  0
 10 34  1  0  0  0  0
 10  9  2  0  0  0  0
 11 10  1  0  0  0  0
 12 11  2  0  0  0  0
 12 13  1  0  0  0  0
 13 14  2  0  0  0  0
 14  9  1  0  0  0  0
 14 38  1  0  0  0  0
 15 16  1  0  0  0  0
 16 39  1  0  0  0  0
 16 17  1  0  0  0  0
 17 18  1  0  0  0  0
 17 42  1  0  0  0  0
 18 21  1  0  0  0  0
 19 18  1  0  0  0  0
 20 46  1  0  0  0  0
 20 15  1  0  0  0  0
 20 19  1  0  0  0  0
 21 47  1  0  0  0  0
 22 21  1  0  0  0  0
 22 24  1  0  0  0  0
 23 22  2  0  0  0  0
 24 49  1  0  0  0  0
 25 24  1  0  0  0  0
 25 27  1  0  0  0  0
 26 25  2  0  0  0  0
 27 28  1  0  0  0  0
 27 50  1  0  0  0  0
 28 32  1  0  0  0  0
 29 28  1  0  0  0  0
 29 30  1  0  0  0  0
 30 54  1  0  0  0  0
 30 31  1  0  0  0  0
 31 57  1  0  0  0  0
 31 56  1  0  0  0  0
 32 31  1  0  0  0  0
 32 58  1  0  0  0  0
 32 59  1  0  0  0  0
 35 11  1  0  0  0  0
 36 12  1  0  0  0  0
 37 13  1  0  0  0  0
 40 16  1  0  0  0  0
 41 17  1  0  0  0  0
 43 19  1  0  0  0  0
 44 19  1  0  0  0  0
 45 20  1  0  0  0  0
 48 21  1  0  0  0  0
 51 28  1  0  0  0  0
 52 29  1  0  0  0  0
 53 29  1  0  0  0  0
 55 30  1  0  0  0  0
M  END
>  <Pose>
1

>  <Score>
-8.28

$$$$
