
 OpenBabel03202210193D

 56 59  0  0  1  0  0  0  0  0999 V2000
   23.0220   62.5200   -3.2210 Cl  0  0  0  0  0  0  0  0  0  0  0  0
   24.4060   62.7960   -4.2570 C   0  0  0  0  0  0  0  0  0  0  0  0
   24.2150   63.6170   -5.3650 C   0  0  0  0  0  0  0  0  0  0  0  0
   25.3250   63.8140   -6.1590 C   0  0  0  0  0  0  0  0  0  0  0  0
   26.4970   63.2330   -5.8490 N   0  0  0  0  0  0  0  0  0  0  0  0
   26.6990   62.4510   -4.8030 N   0  0  0  0  0  0  0  0  0  0  0  0
   25.6400   62.2330   -4.0010 C   0  0  0  0  0  0  0  0  0  0  0  0
   25.8080   61.4890   -2.9940 O   0  0  0  0  0  0  0  0  0  0  0  0
   27.9790   61.8630   -4.5380 C   0  0  0  0  0  0  0  0  0  0  0  0
   28.5570   61.0210   -5.4610 C   0  0  0  0  0  0  0  0  0  0  0  0
   29.8060   60.4420   -5.2130 C   0  0  0  0  0  0  0  0  0  0  0  0
   30.4920   60.6930   -4.0470 C   0  0  0  0  0  0  0  0  0  0  0  0
   29.9220   61.5350   -3.1180 C   0  0  0  0  0  0  0  0  0  0  0  0
   28.6790   62.1050   -3.3760 C   0  0  0  0  0  0  0  0  0  0  0  0
   22.9560   64.2040   -5.6560 N   0  0  0  0  0  0  0  0  0  0  0  0
   21.7690   63.4190   -5.8980 C   0  0  0  0  0  0  0  0  0  0  0  0
   21.0380   63.9530   -7.0910 C   0  0  0  0  0  0  0  0  0  0  0  0
   21.9140   64.8920   -7.7460 N   0  0  0  0  0  0  0  0  0  0  0  0
   22.0400   66.0470   -6.9320 C   0  0  0  0  0  0  0  0  0  0  0  0
   22.8670   65.6420   -5.7080 C   0  0  0  0  0  0  0  0  0  0  0  0
   21.7300   65.0590   -9.1320 C   0  0  0  0  0  0  0  0  0  0  0  0
   22.0850   63.8900   -9.9450 C   0  0  0  0  0  0  0  0  0  0  0  0
   23.1790   63.9740  -10.5990 O   0  0  0  0  0  0  0  0  0  0  0  0
   21.3360   62.6950  -10.0650 N   0  0  0  0  0  0  0  0  0  0  0  0
   20.1740   62.5460  -10.9040 C   0  0  0  0  0  0  0  0  0  0  0  0
   18.9750   63.1070  -10.2030 C   0  0  1  0  0  0  0  0  0  0  0  0
   18.5700   64.2510  -10.8380 O   0  0  0  0  0  0  0  0  0  0  0  0
   17.2690   64.1510  -11.2470 C   0  0  0  0  0  0  0  0  0  0  0  0
   16.6640   63.1840  -10.2510 C   0  0  0  0  0  0  0  0  0  0  0  0
   17.7970   62.1440  -10.2390 C   0  0  0  0  0  0  0  0  0  0  0  0
   25.2020   64.4530   -7.0320 H   0  0  0  0  0  0  0  0  0  0  0  0
   28.0150   60.8190   -6.3900 H   0  0  0  0  0  0  0  0  0  0  0  0
   30.2630   59.7820   -5.9320 H   0  0  0  0  0  0  0  0  0  0  0  0
   31.4720   60.2590   -3.8180 H   0  0  0  0  0  0  0  0  0  0  0  0
   30.4650   61.7300   -2.2000 H   0  0  0  0  0  0  0  0  0  0  0  0
   28.2240   62.7680   -2.6510 H   0  0  0  0  0  0  0  0  0  0  0  0
   21.1270   63.3190   -5.0000 H   0  0  0  0  0  0  0  0  0  0  0  0
   22.0440   62.3530   -6.1570 H   0  0  0  0  0  0  0  0  0  0  0  0
   20.1620   64.5650   -6.7170 H   0  0  0  0  0  0  0  0  0  0  0  0
   20.7160   63.1970   -7.8090 H   0  0  0  0  0  0  0  0  0  0  0  0
   22.4420   66.9330   -7.4370 H   0  0  0  0  0  0  0  0  0  0  0  0
   21.0250   66.3100   -6.5480 H   0  0  0  0  0  0  0  0  0  0  0  0
   22.4420   66.0720   -4.7660 H   0  0  0  0  0  0  0  0  0  0  0  0
   23.8730   66.0980   -5.8800 H   0  0  0  0  0  0  0  0  0  0  0  0
   22.2680   65.9640   -9.5320 H   0  0  0  0  0  0  0  0  0  0  0  0
   20.6300   65.2710   -9.2990 H   0  0  0  0  0  0  0  0  0  0  0  0
   21.6550   61.8710   -9.5160 H   0  0  0  0  0  0  0  0  0  0  0  0
   19.9830   61.4650  -11.1420 H   0  0  0  0  0  0  0  0  0  0  0  0
   20.3490   63.0800  -11.8500 H   0  0  0  0  0  0  0  0  0  0  0  0
   19.1770   63.3100   -9.1410 H   0  0  0  0  0  0  0  0  0  0  0  0
   17.2410   63.6520  -12.2350 H   0  0  0  0  0  0  0  0  0  0  0  0
   16.7590   65.1300  -11.2450 H   0  0  0  0  0  0  0  0  0  0  0  0
   15.7110   62.7630  -10.5610 H   0  0  0  0  0  0  0  0  0  0  0  0
   16.6610   63.6620   -9.2510 H   0  0  0  0  0  0  0  0  0  0  0  0
   17.7320   61.6370  -11.2290 H   0  0  0  0  0  0  0  0  0  0  0  0
   17.7330   61.4800   -9.3820 H   0  0  0  0  0  0  0  0  0  0  0  0
  2  7  1  0  0  0  0
  2  1  1  0  0  0  0
  3  2  2  0  0  0  0
  4  5  2  0  0  0  0
  4  3  1  0  0  0  0
  5  6  1  0  0  0  0
  6  9  1  0  0  0  0
  6  7  1  0  0  0  0
  7  8  2  0  0  0  0
  9 14  1  0  0  0  0
 10 11  1  0  0  0  0
 10  9  2  0  0  0  0
 11 12  2  0  0  0  0
 12 34  1  0  0  0  0
 12 13  1  0  0  0  0
 13 35  1  0  0  0  0
 14 13  2  0  0  0  0
 14 36  1  0  0  0  0
 15  3  1  0  0  0  0
 16 15  1  0  0  0  0
 16 37  1  0  0  0  0
 17 39  1  0  0  0  0
 17 16  1  0  0  0  0
 18 17  1  0  0  0  0
 18 19  1  0  0  0  0
 19 42  1  0  0  0  0
 19 20  1  0  0  0  0
 20 15  1  0  0  0  0
 20 43  1  0  0  0  0
 21 18  1  0  0  0  0
 22 21  1  0  0  0  0
 23 22  2  0  0  0  0
 24 22  1  0  0  0  0
 24 47  1  0  0  0  0
 25 26  1  0  0  0  0
 25 24  1  0  0  0  0
 26 50  1  1  0  0  0
 27 26  1  0  0  0  0
 28 52  1  0  0  0  0
 28 27  1  0  0  0  0
 28 29  1  0  0  0  0
 29 30  1  0  0  0  0
 29 54  1  0  0  0  0
 30 26  1  0  0  0  0
 30 56  1  0  0  0  0
 31  4  1  0  0  0  0
 32 10  1  0  0  0  0
 33 11  1  0  0  0  0
 38 16  1  0  0  0  0
 40 17  1  0  0  0  0
 41 19  1  0  0  0  0
 44 20  1  0  0  0  0
 45 21  1  0  0  0  0
 46 21  1  0  0  0  0
 48 25  1  0  0  0  0
 49 25  1  0  0  0  0
 51 28  1  0  0  0  0
 53 29  1  0  0  0  0
 55 30  1  0  0  0  0
M  END
>  <Pose>
1

>  <Score>
-5.19

$$$$
