
 OpenBabel03202210193D

 50 54  0  0  0  0  0  0  0  0999 V2000
   24.3460   64.0740   -5.8600 S   0  0  0  0  0  0  0  0  0  0  0  0
   23.8700   65.2240   -4.9770 O   0  0  0  0  0  0  0  0  0  0  0  0
   25.5040   64.5330   -6.7080 O   0  0  0  0  0  0  0  0  0  0  0  0
   23.0640   63.5370   -6.7660 N   0  0  0  0  0  0  0  0  0  0  0  0
   23.2290   62.5700   -7.7610 C   0  0  0  0  0  0  0  0  0  0  0  0
   22.1560   62.7180   -8.8450 C   0  0  0  0  0  0  0  0  0  0  0  0
   22.1250   64.0600   -9.2710 N   0  0  0  0  0  0  0  0  0  0  0  0
   21.8780   64.9980   -8.2430 C   0  0  0  0  0  0  0  0  0  0  0  0
   21.9020   64.3120   -6.8960 C   0  0  0  0  0  0  0  0  0  0  0  0
   21.4850   64.3230  -10.5190 C   0  0  0  0  0  0  0  0  0  0  0  0
   20.1630   63.6520  -10.5280 C   0  0  0  0  0  0  0  0  0  0  0  0
   20.0170   62.2980  -10.3020 C   0  0  0  0  0  0  0  0  0  0  0  0
   18.8180   61.6320  -10.3000 C   0  0  0  0  0  0  0  0  0  0  0  0
   18.8110   60.3760  -10.0790 O   0  0  0  0  0  0  0  0  0  0  0  0
   17.6640   62.3240  -10.5330 N   0  0  0  0  0  0  0  0  0  0  0  0
   16.4910   61.8280  -10.5590 N   0  0  0  0  0  0  0  0  0  0  0  0
   15.4320   62.5460  -10.7890 C   0  0  0  0  0  0  0  0  0  0  0  0
   16.1710   64.0940  -10.9910 S   0  0  0  0  0  0  0  0  0  0  0  0
   17.8080   63.6330  -10.7520 C   0  0  0  0  0  0  0  0  0  0  0  0
   18.9910   64.2850  -10.7530 N   0  0  0  0  0  0  0  0  0  0  0  0
   14.0080   62.1990  -10.8640 C   0  0  0  0  0  0  0  0  0  0  0  0
   13.4600   61.9170  -12.0970 C   0  0  0  0  0  0  0  0  0  0  0  0
   12.1200   61.5820  -12.2350 C   0  0  0  0  0  0  0  0  0  0  0  0
   11.3100   61.5270  -11.1200 C   0  0  0  0  0  0  0  0  0  0  0  0
   11.8380   61.8060   -9.8710 C   0  0  0  0  0  0  0  0  0  0  0  0
   13.1720   62.1340   -9.7850 C   0  0  0  0  0  0  0  0  0  0  0  0
    9.6350   61.1090  -11.2770 Cl  0  0  0  0  0  0  0  0  0  0  0  0
   24.9010   62.8390   -4.7530 C   0  0  0  0  0  0  0  0  0  0  0  0
   24.1490   62.1660   -3.8380 N   0  0  0  0  0  0  0  0  0  0  0  0
   24.9080   61.2990   -3.1640 C   0  0  0  0  0  0  0  0  0  0  0  0
   26.1700   61.3700   -3.6090 N   0  0  0  0  0  0  0  0  0  0  0  0
   26.1620   62.3180   -4.5850 C   0  0  0  0  0  0  0  0  0  0  0  0
   23.1010   61.5530   -7.2690 H   0  0  0  0  0  0  0  0  0  0  0  0
   24.2050   62.5580   -8.2970 H   0  0  0  0  0  0  0  0  0  0  0  0
   21.1930   62.4570   -8.3580 H   0  0  0  0  0  0  0  0  0  0  0  0
   22.3460   62.0010   -9.6750 H   0  0  0  0  0  0  0  0  0  0  0  0
   22.7150   65.7340   -8.2260 H   0  0  0  0  0  0  0  0  0  0  0  0
   20.8900   65.5170   -8.3420 H   0  0  0  0  0  0  0  0  0  0  0  0
   21.8540   65.0810   -6.0680 H   0  0  0  0  0  0  0  0  0  0  0  0
   20.9990   63.6780   -6.7600 H   0  0  0  0  0  0  0  0  0  0  0  0
   22.1060   63.8800  -11.3240 H   0  0  0  0  0  0  0  0  0  0  0  0
   21.3320   65.4010  -10.6240 H   0  0  0  0  0  0  0  0  0  0  0  0
   20.9650   61.7520  -10.1140 H   0  0  0  0  0  0  0  0  0  0  0  0
   14.0480   61.9440  -13.0020 H   0  0  0  0  0  0  0  0  0  0  0  0
   11.6620   61.3550  -13.1870 H   0  0  0  0  0  0  0  0  0  0  0  0
   11.2030   61.7630   -8.9970 H   0  0  0  0  0  0  0  0  0  0  0  0
   13.5710   62.3490   -8.8100 H   0  0  0  0  0  0  0  0  0  0  0  0
   24.5540   60.6420   -2.3820 H   0  0  0  0  0  0  0  0  0  0  0  0
   26.9780   60.8180   -3.2750 H   0  0  0  0  0  0  0  0  0  0  0  0
   27.0480   62.5910   -5.1250 H   0  0  0  0  0  0  0  0  0  0  0  0
  1  2  2  0  0  0  0
  1 28  1  0  0  0  0
  3  1  2  0  0  0  0
  4  1  1  0  0  0  0
  5 33  1  0  0  0  0
  5  4  1  0  0  0  0
  6 35  1  0  0  0  0
  6  5  1  0  0  0  0
  7  6  1  0  0  0  0
  7  8  1  0  0  0  0
  8 37  1  0  0  0  0
  8  9  1  0  0  0  0
  9  4  1  0  0  0  0
  9 40  1  0  0  0  0
  9 39  1  0  0  0  0
 10  7  1  0  0  0  0
 11 10  1  0  0  0  0
 11 12  2  0  0  0  0
 12 13  1  0  0  0  0
 12 43  1  0  0  0  0
 13 14  2  0  0  0  0
 15 13  1  0  0  0  0
 16 15  1  0  0  0  0
 17 16  2  0  0  0  0
 18 17  1  0  0  0  0
 18 19  1  0  0  0  0
 19 15  1  0  0  0  0
 20 19  2  0  0  0  0
 20 11  1  0  0  0  0
 21 17  1  0  0  0  0
 21 26  1  0  0  0  0
 22 21  2  0  0  0  0
 23 22  1  0  0  0  0
 23 24  2  0  0  0  0
 24 25  1  0  0  0  0
 25 26  2  0  0  0  0
 25 46  1  0  0  0  0
 26 47  1  0  0  0  0
 27 24  1  0  0  0  0
 28 32  2  0  0  0  0
 28 29  1  0  0  0  0
 29 30  2  0  0  0  0
 30 48  1  0  0  0  0
 31 49  1  0  0  0  0
 31 30  1  0  0  0  0
 32 31  1  0  0  0  0
 34  5  1  0  0  0  0
 36  6  1  0  0  0  0
 38  8  1  0  0  0  0
 41 10  1  0  0  0  0
 42 10  1  0  0  0  0
 44 22  1  0  0  0  0
 45 23  1  0  0  0  0
 50 32  1  0  0  0  0
M  END
>  <Pose>
1

>  <Score>
-7.16

$$$$
