
 OpenBabel03202210193D

 55 58  0  0  0  0  0  0  0  0999 V2000
   19.7960   62.6030  -11.3270 S   0  0  0  0  0  0  0  0  0  0  0  0
   19.1930   61.4440  -10.5550 O   0  0  0  0  0  0  0  0  0  0  0  0
   20.2630   62.1300  -12.6580 O   0  0  0  0  0  0  0  0  0  0  0  0
   18.4970   63.7930  -11.5740 N   0  0  0  0  0  0  0  0  0  0  0  0
   17.7030   63.2750  -12.6480 C   0  0  0  0  0  0  0  0  0  0  0  0
   16.2540   63.7970  -12.6660 C   0  0  0  0  0  0  0  0  0  0  0  0
   15.6980   63.4960  -11.3840 N   0  0  0  0  0  0  0  0  0  0  0  0
   16.3670   64.3130  -10.4110 C   0  0  0  0  0  0  0  0  0  0  0  0
   17.7310   63.6920  -10.2820 C   0  0  0  0  0  0  0  0  0  0  0  0
   14.3620   63.1460  -11.2880 C   0  0  0  0  0  0  0  0  0  0  0  0
   13.5330   63.2970  -12.4860 C   0  0  0  0  0  0  0  0  0  0  0  0
   13.3930   62.1760  -13.1470 O   0  0  0  0  0  0  0  0  0  0  0  0
   12.8840   64.3720  -13.0220 N   0  0  0  0  0  0  0  0  0  0  0  0
   12.8420   64.6990  -14.4490 C   0  0  0  0  0  0  0  0  0  0  0  0
   12.0180   65.9100  -14.6400 C   0  0  0  0  0  0  0  0  0  0  0  0
   10.6080   65.8530  -14.5500 C   0  0  0  0  0  0  0  0  0  0  0  0
    9.8160   66.8930  -14.8500 C   0  0  0  0  0  0  0  0  0  0  0  0
   10.3820   68.1330  -15.2820 C   0  0  0  0  0  0  0  0  0  0  0  0
   11.7140   68.2020  -15.3820 C   0  0  0  0  0  0  0  0  0  0  0  0
   12.5630   67.1310  -15.0790 C   0  0  0  0  0  0  0  0  0  0  0  0
    9.8710   64.3300  -13.9910 Cl  0  0  0  0  0  0  0  0  0  0  0  0
   21.1050   63.2540  -10.4210 C   0  0  0  0  0  0  0  0  0  0  0  0
   20.7800   63.6720   -9.1240 C   0  0  0  0  0  0  0  0  0  0  0  0
   21.7250   64.1380   -8.2060 C   0  0  0  0  0  0  0  0  0  0  0  0
   23.0570   64.1870   -8.6050 C   0  0  0  0  0  0  0  0  0  0  0  0
   23.3610   63.7770   -9.8910 C   0  0  0  0  0  0  0  0  0  0  0  0
   22.4130   63.3120  -10.7930 C   0  0  0  0  0  0  0  0  0  0  0  0
   23.9380   64.6510   -7.6470 O   0  0  0  0  0  0  0  0  0  0  0  0
   23.7050   64.2410   -6.2720 C   0  0  0  0  0  0  0  0  0  0  0  0
   22.2650   64.2920   -5.8830 C   0  0  0  0  0  0  0  0  0  0  0  0
   21.3650   64.5480   -6.9330 O   0  0  0  0  0  0  0  0  0  0  0  0
   18.1630   63.7110  -13.6010 H   0  0  0  0  0  0  0  0  0  0  0  0
   17.6960   62.1910  -12.8250 H   0  0  0  0  0  0  0  0  0  0  0  0
   16.2760   64.8740  -12.8300 H   0  0  0  0  0  0  0  0  0  0  0  0
   15.6530   63.3200  -13.4280 H   0  0  0  0  0  0  0  0  0  0  0  0
   16.4860   65.3330  -10.7610 H   0  0  0  0  0  0  0  0  0  0  0  0
   15.8820   64.1900   -9.4060 H   0  0  0  0  0  0  0  0  0  0  0  0
   17.5880   62.5680  -10.1550 H   0  0  0  0  0  0  0  0  0  0  0  0
   18.3150   64.1910   -9.5350 H   0  0  0  0  0  0  0  0  0  0  0  0
   13.9430   63.8830  -10.4750 H   0  0  0  0  0  0  0  0  0  0  0  0
   14.1550   62.1670  -10.7770 H   0  0  0  0  0  0  0  0  0  0  0  0
   12.3020   65.0740  -12.4560 H   0  0  0  0  0  0  0  0  0  0  0  0
   13.9230   65.0410  -14.6460 H   0  0  0  0  0  0  0  0  0  0  0  0
   12.5600   63.8480  -15.0270 H   0  0  0  0  0  0  0  0  0  0  0  0
    8.7650   66.8130  -14.7690 H   0  0  0  0  0  0  0  0  0  0  0  0
    9.7360   68.9450  -15.5120 H   0  0  0  0  0  0  0  0  0  0  0  0
   12.2010   69.1220  -15.7190 H   0  0  0  0  0  0  0  0  0  0  0  0
   13.6120   67.2430  -15.2090 H   0  0  0  0  0  0  0  0  0  0  0  0
   19.7090   63.6430   -8.8370 H   0  0  0  0  0  0  0  0  0  0  0  0
   24.3820   63.8490  -10.1580 H   0  0  0  0  0  0  0  0  0  0  0  0
   22.7100   62.9910  -11.7710 H   0  0  0  0  0  0  0  0  0  0  0  0
   24.1370   63.1870   -6.2170 H   0  0  0  0  0  0  0  0  0  0  0  0
   24.2850   64.8870   -5.6130 H   0  0  0  0  0  0  0  0  0  0  0  0
   22.1040   65.0560   -5.1150 H   0  0  0  0  0  0  0  0  0  0  0  0
   22.0310   63.2860   -5.4340 H   0  0  0  0  0  0  0  0  0  0  0  0
  1  2  2  0  0  0  0
  1 22  1  0  0  0  0
  3  1  2  0  0  0  0
  4  1  1  0  0  0  0
  4  9  1  0  0  0  0
  5  4  1  0  0  0  0
  6  5  1  0  0  0  0
  6  7  1  0  0  0  0
  7 10  1  0  0  0  0
  7  8  1  0  0  0  0
  8  9  1  0  0  0  0
  8 37  1  0  0  0  0
  9 38  1  0  0  0  0
  9 39  1  0  0  0  0
 10 41  1  0  0  0  0
 10 40  1  0  0  0  0
 11 10  1  0  0  0  0
 12 11  2  0  0  0  0
 13 11  1  0  0  0  0
 13 42  1  0  0  0  0
 14 13  1  0  0  0  0
 15 16  1  0  0  0  0
 15 14  1  0  0  0  0
 16 21  1  0  0  0  0
 17 45  1  0  0  0  0
 17 16  2  0  0  0  0
 18 17  1  0  0  0  0
 19 18  2  0  0  0  0
 19 20  1  0  0  0  0
 20 15  2  0  0  0  0
 22 23  1  0  0  0  0
 23 49  1  0  0  0  0
 23 24  2  0  0  0  0
 24 31  1  0  0  0  0
 25 24  1  0  0  0  0
 25 28  1  0  0  0  0
 26 25  2  0  0  0  0
 27 22  2  0  0  0  0
 27 26  1  0  0  0  0
 28 29  1  0  0  0  0
 29 52  1  0  0  0  0
 29 30  1  0  0  0  0
 29 53  1  0  0  0  0
 30 55  1  0  0  0  0
 30 54  1  0  0  0  0
 31 30  1  0  0  0  0
 32  5  1  0  0  0  0
 33  5  1  0  0  0  0
 34  6  1  0  0  0  0
 35  6  1  0  0  0  0
 36  8  1  0  0  0  0
 43 14  1  0  0  0  0
 44 14  1  0  0  0  0
 46 18  1  0  0  0  0
 47 19  1  0  0  0  0
 48 20  1  0  0  0  0
 50 26  1  0  0  0  0
 51 27  1  0  0  0  0
M  END
>  <Pose>
1

>  <Score>
-6.12

$$$$
