
 OpenBabel03202210193D

 56 59  0  0  0  0  0  0  0  0999 V2000
   19.5030   62.4940  -10.9330 S   0  0  0  0  0  0  0  0  0  0  0  0
   19.1740   63.3520  -12.1160 O   0  0  0  0  0  0  0  0  0  0  0  0
   19.9360   61.1490  -11.4380 O   0  0  0  0  0  0  0  0  0  0  0  0
   18.1250   62.3680   -9.9270 N   0  0  0  0  0  0  0  0  0  0  0  0
   17.6630   63.5970   -9.3910 C   0  0  0  0  0  0  0  0  0  0  0  0
   16.6980   64.3350  -10.2810 C   0  0  0  0  0  0  0  0  0  0  0  0
   15.7730   63.4400  -10.9450 N   0  0  0  0  0  0  0  0  0  0  0  0
   15.7470   62.0730  -10.4610 C   0  0  0  0  0  0  0  0  0  0  0  0
   17.1310   61.4750  -10.4070 C   0  0  0  0  0  0  0  0  0  0  0  0
   14.9720   63.9180  -11.9890 C   0  0  0  0  0  0  0  0  0  0  0  0
   15.4200   64.8180  -12.7400 O   0  0  0  0  0  0  0  0  0  0  0  0
   13.6040   63.3990  -12.2450 C   0  0  0  0  0  0  0  0  0  0  0  0
   13.0270   63.9570  -13.4370 N   0  0  0  0  0  0  0  0  0  0  0  0
   12.7510   63.2190  -14.6170 C   0  0  0  0  0  0  0  0  0  0  0  0
   12.9820   61.9710  -14.7650 O   0  0  0  0  0  0  0  0  0  0  0  0
   12.1820   64.0410  -15.6280 N   0  0  0  0  0  0  0  0  0  0  0  0
   12.2960   65.4110  -15.1660 C   0  0  0  0  0  0  0  0  0  0  0  0
   11.0030   66.1640  -15.2920 C   0  0  0  0  0  0  0  0  0  0  0  0
   10.7800   66.7640  -16.6480 C   0  0  0  0  0  0  0  0  0  0  0  0
   11.9470   67.5590  -17.1570 C   0  0  0  0  0  0  0  0  0  0  0  0
   13.1370   67.5010  -16.2240 C   0  0  0  0  0  0  0  0  0  0  0  0
   13.4290   66.0450  -15.9380 C   0  0  0  0  0  0  0  0  0  0  0  0
   12.6140   65.2870  -13.7220 C   0  0  0  0  0  0  0  0  0  0  0  0
   12.5440   66.1910  -12.8560 O   0  0  0  0  0  0  0  0  0  0  0  0
   11.5990   63.5680  -16.8840 C   0  0  0  0  0  0  0  0  0  0  0  0
   20.8870   63.1740  -10.0600 C   0  0  0  0  0  0  0  0  0  0  0  0
   21.1190   63.3150   -8.3830 S   0  0  0  0  0  0  0  0  0  0  0  0
   22.6520   64.0510   -8.3760 C   0  0  0  0  0  0  0  0  0  0  0  0
   22.9500   64.1720   -9.7070 C   0  0  0  0  0  0  0  0  0  0  0  0
   22.0290   63.7140  -10.5850 C   0  0  0  0  0  0  0  0  0  0  0  0
   23.6530   64.5570   -6.9990 Cl  0  0  0  0  0  0  0  0  0  0  0  0
   18.5470   64.2700   -9.2560 H   0  0  0  0  0  0  0  0  0  0  0  0
   17.1920   63.4290   -8.4030 H   0  0  0  0  0  0  0  0  0  0  0  0
   17.2110   65.0000  -11.0050 H   0  0  0  0  0  0  0  0  0  0  0  0
   16.0800   64.9880   -9.6110 H   0  0  0  0  0  0  0  0  0  0  0  0
   15.1370   61.4390  -11.1440 H   0  0  0  0  0  0  0  0  0  0  0  0
   15.2900   62.0080   -9.4640 H   0  0  0  0  0  0  0  0  0  0  0  0
   17.4060   60.9830  -11.3820 H   0  0  0  0  0  0  0  0  0  0  0  0
   17.0650   60.6140   -9.6790 H   0  0  0  0  0  0  0  0  0  0  0  0
   12.9370   63.6230  -11.4040 H   0  0  0  0  0  0  0  0  0  0  0  0
   13.6940   62.2920  -12.2920 H   0  0  0  0  0  0  0  0  0  0  0  0
   10.1460   65.4990  -15.0720 H   0  0  0  0  0  0  0  0  0  0  0  0
   11.0150   66.9850  -14.5340 H   0  0  0  0  0  0  0  0  0  0  0  0
    9.8930   67.4440  -16.5560 H   0  0  0  0  0  0  0  0  0  0  0  0
   10.4860   65.9700  -17.3610 H   0  0  0  0  0  0  0  0  0  0  0  0
   12.2040   67.1840  -18.1690 H   0  0  0  0  0  0  0  0  0  0  0  0
   11.6770   68.6470  -17.2580 H   0  0  0  0  0  0  0  0  0  0  0  0
   13.9990   67.9600  -16.7250 H   0  0  0  0  0  0  0  0  0  0  0  0
   12.8730   67.9990  -15.2850 H   0  0  0  0  0  0  0  0  0  0  0  0
   14.3980   65.9830  -15.4040 H   0  0  0  0  0  0  0  0  0  0  0  0
   13.5630   65.5230  -16.9090 H   0  0  0  0  0  0  0  0  0  0  0  0
   11.9890   64.1400  -17.7500 H   0  0  0  0  0  0  0  0  0  0  0  0
   11.8380   62.5080  -17.0070 H   0  0  0  0  0  0  0  0  0  0  0  0
   10.4980   63.6430  -16.7680 H   0  0  0  0  0  0  0  0  0  0  0  0
   23.9190   64.6320  -10.0350 H   0  0  0  0  0  0  0  0  0  0  0  0
   22.2100   63.7810  -11.6930 H   0  0  0  0  0  0  0  0  0  0  0  0
  1 26  1  0  0  0  0
  1  4  1  0  0  0  0
  2  1  2  0  0  0  0
  3  1  2  0  0  0  0
  4  5  1  0  0  0  0
  5 32  1  0  0  0  0
  5 33  1  0  0  0  0
  6 35  1  0  0  0  0
  6  5  1  0  0  0  0
  7  8  1  0  0  0  0
  7  6  1  0  0  0  0
  8  9  1  0  0  0  0
  8 37  1  0  0  0  0
  9  4  1  0  0  0  0
  9 39  1  0  0  0  0
 10  7  1  0  0  0  0
 11 10  2  0  0  0  0
 12 10  1  0  0  0  0
 12 40  1  0  0  0  0
 13 12  1  0  0  0  0
 14 13  1  0  0  0  0
 15 14  2  0  0  0  0
 16 17  1  0  0  0  0
 16 14  1  0  0  0  0
 17 23  1  0  0  0  0
 18 17  1  0  0  0  0
 18 42  1  0  0  0  0
 18 43  1  0  0  0  0
 19 44  1  0  0  0  0
 19 18  1  0  0  0  0
 20 19  1  0  0  0  0
 20 21  1  0  0  0  0
 21 22  1  0  0  0  0
 21 49  1  0  0  0  0
 22 50  1  0  0  0  0
 22 17  1  0  0  0  0
 23 13  1  0  0  0  0
 23 24  2  0  0  0  0
 25 54  1  0  0  0  0
 25 16  1  0  0  0  0
 26 27  1  0  0  0  0
 27 28  1  0  0  0  0
 28 31  1  0  0  0  0
 29 28  2  0  0  0  0
 30 26  2  0  0  0  0
 30 29  1  0  0  0  0
 34  6  1  0  0  0  0
 36  8  1  0  0  0  0
 38  9  1  0  0  0  0
 41 12  1  0  0  0  0
 45 19  1  0  0  0  0
 46 20  1  0  0  0  0
 47 20  1  0  0  0  0
 48 21  1  0  0  0  0
 51 22  1  0  0  0  0
 52 25  1  0  0  0  0
 53 25  1  0  0  0  0
 55 29  1  0  0  0  0
 56 30  1  0  0  0  0
M  END
>  <Pose>
1

>  <Score>
-7.00

$$$$
