
 OpenBabel03202210193D

 68 71  0  0  0  0  0  0  0  0999 V2000
   16.3920   64.1040  -10.1310 S   0  0  0  0  0  0  0  0  0  0  0  0
   15.7460   63.8030   -8.8010 O   0  0  0  0  0  0  0  0  0  0  0  0
   16.6850   65.5880  -10.1100 O   0  0  0  0  0  0  0  0  0  0  0  0
   17.7130   63.1530  -10.4640 N   0  0  0  0  0  0  0  0  0  0  0  0
   18.1010   62.0870   -9.6800 C   0  0  0  0  0  0  0  0  0  0  0  0
   19.5690   62.1690   -9.3560 C   0  0  0  0  0  0  0  0  0  0  0  0
   20.4210   62.5170  -10.4360 N   0  0  0  0  0  0  0  0  0  0  0  0
   19.7180   62.5200  -11.6780 C   0  0  0  0  0  0  0  0  0  0  0  0
   18.4950   63.4280  -11.5910 C   0  0  0  0  0  0  0  0  0  0  0  0
   21.1700   63.7220  -10.2290 C   0  0  0  0  0  0  0  0  0  0  0  0
   22.6210   63.4230   -9.9850 C   0  0  0  0  0  0  0  0  0  0  0  0
   23.0290   62.2890  -10.3200 O   0  0  0  0  0  0  0  0  0  0  0  0
   23.4850   64.3840   -9.4020 N   0  0  0  0  0  0  0  0  0  0  0  0
   24.2190   63.9940   -8.2330 C   0  0  0  0  0  0  0  0  0  0  0  0
   23.8510   64.6620   -6.9640 C   0  0  0  0  0  0  0  0  0  0  0  0
   22.3600   64.5610   -6.7560 C   0  0  0  0  0  0  0  0  0  0  0  0
   21.6120   65.7640   -7.3390 C   0  0  0  0  0  0  0  0  0  0  0  0
   21.9420   67.0170   -6.5520 C   0  0  0  0  0  0  0  0  0  0  0  0
   23.3690   66.8770   -6.0570 C   0  0  0  0  0  0  0  0  0  0  0  0
   24.1260   66.1660   -7.1590 C   0  0  0  0  0  0  0  0  0  0  0  0
   24.5390   64.2840   -5.7900 N   0  0  0  0  0  0  0  0  0  0  0  0
   23.7850   63.7800   -4.6970 C   0  0  0  0  0  0  0  0  0  0  0  0
   24.7050   63.8810   -3.4670 C   0  0  0  0  0  0  0  0  0  0  0  0
   25.8080   63.0800   -3.6350 O   0  0  0  0  0  0  0  0  0  0  0  0
   25.8580   62.4280   -4.8420 C   0  0  0  0  0  0  0  0  0  0  0  0
   25.6470   63.3810   -6.0180 C   0  0  0  0  0  0  0  0  0  0  0  0
   15.1410   63.8340  -11.3410 C   0  0  0  0  0  0  0  0  0  0  0  0
   14.5600   62.6060  -11.5000 C   0  0  0  0  0  0  0  0  0  0  0  0
   13.5870   62.3900  -12.4400 C   0  0  0  0  0  0  0  0  0  0  0  0
   13.1900   63.4390  -13.2410 C   0  0  0  0  0  0  0  0  0  0  0  0
   13.7740   64.6810  -13.0830 C   0  0  0  0  0  0  0  0  0  0  0  0
   14.7480   64.8850  -12.1380 C   0  0  0  0  0  0  0  0  0  0  0  0
   11.9410   63.1310  -14.4340 Cl  0  0  0  0  0  0  0  0  0  0  0  0
   17.9590   61.0650  -10.1380 H   0  0  0  0  0  0  0  0  0  0  0  0
   17.5570   62.0140   -8.7010 H   0  0  0  0  0  0  0  0  0  0  0  0
   19.8920   61.1640   -8.9760 H   0  0  0  0  0  0  0  0  0  0  0  0
   19.6650   62.8470   -8.4810 H   0  0  0  0  0  0  0  0  0  0  0  0
   19.3440   61.4820  -11.9070 H   0  0  0  0  0  0  0  0  0  0  0  0
   20.3650   62.9180  -12.4680 H   0  0  0  0  0  0  0  0  0  0  0  0
   18.8680   64.4920  -11.6350 H   0  0  0  0  0  0  0  0  0  0  0  0
   17.9070   63.2760  -12.5430 H   0  0  0  0  0  0  0  0  0  0  0  0
   20.7460   64.3810   -9.4450 H   0  0  0  0  0  0  0  0  0  0  0  0
   21.1500   64.3070  -11.1720 H   0  0  0  0  0  0  0  0  0  0  0  0
   23.5450   65.3340   -9.8560 H   0  0  0  0  0  0  0  0  0  0  0  0
   24.1160   62.8890   -8.1470 H   0  0  0  0  0  0  0  0  0  0  0  0
   25.3160   64.2230   -8.3970 H   0  0  0  0  0  0  0  0  0  0  0  0
   22.0900   64.5550   -5.6690 H   0  0  0  0  0  0  0  0  0  0  0  0
   21.9320   63.6770   -7.2780 H   0  0  0  0  0  0  0  0  0  0  0  0
   20.5330   65.5570   -7.2120 H   0  0  0  0  0  0  0  0  0  0  0  0
   21.8010   65.8810   -8.4200 H   0  0  0  0  0  0  0  0  0  0  0  0
   21.8740   67.8880   -7.2360 H   0  0  0  0  0  0  0  0  0  0  0  0
   21.2220   67.1180   -5.7370 H   0  0  0  0  0  0  0  0  0  0  0  0
   23.8340   67.8690   -5.8410 H   0  0  0  0  0  0  0  0  0  0  0  0
   23.3950   66.2330   -5.1540 H   0  0  0  0  0  0  0  0  0  0  0  0
   25.1810   66.4080   -7.0630 H   0  0  0  0  0  0  0  0  0  0  0  0
   23.7990   66.4780   -8.1730 H   0  0  0  0  0  0  0  0  0  0  0  0
   22.9050   64.4010   -4.4270 H   0  0  0  0  0  0  0  0  0  0  0  0
   23.5010   62.7110   -4.7560 H   0  0  0  0  0  0  0  0  0  0  0  0
   25.0690   64.9470   -3.4670 H   0  0  0  0  0  0  0  0  0  0  0  0
   24.1400   63.6880   -2.5520 H   0  0  0  0  0  0  0  0  0  0  0  0
   25.1640   61.5490   -4.9150 H   0  0  0  0  0  0  0  0  0  0  0  0
   26.8820   61.9990   -4.9850 H   0  0  0  0  0  0  0  0  0  0  0  0
   26.5730   63.9780   -6.1230 H   0  0  0  0  0  0  0  0  0  0  0  0
   25.5290   62.7380   -6.9080 H   0  0  0  0  0  0  0  0  0  0  0  0
   14.8660   61.7570  -10.8700 H   0  0  0  0  0  0  0  0  0  0  0  0
   13.1330   61.4050  -12.5580 H   0  0  0  0  0  0  0  0  0  0  0  0
   13.4490   65.5020  -13.7240 H   0  0  0  0  0  0  0  0  0  0  0  0
   15.1950   65.8760  -12.0340 H   0  0  0  0  0  0  0  0  0  0  0  0
  1  3  2  0  0  0  0
  1  2  2  0  0  0  0
  4  1  1  0  0  0  0
  4  5  1  0  0  0  0
  5  6  1  0  0  0  0
  5 35  1  0  0  0  0
  6 36  1  0  0  0  0
  6 37  1  0  0  0  0
  7 10  1  0  0  0  0
  7  6  1  0  0  0  0
  8  9  1  0  0  0  0
  8  7  1  0  0  0  0
  9  4  1  0  0  0  0
 10 11  1  0  0  0  0
 10 42  1  0  0  0  0
 11 13  1  0  0  0  0
 12 11  2  0  0  0  0
 13 14  1  0  0  0  0
 14 45  1  0  0  0  0
 14 15  1  0  0  0  0
 15 16  1  0  0  0  0
 15 21  1  0  0  0  0
 16 47  1  0  0  0  0
 17 49  1  0  0  0  0
 17 16  1  0  0  0  0
 17 18  1  0  0  0  0
 18 19  1  0  0  0  0
 18 52  1  0  0  0  0
 19 53  1  0  0  0  0
 19 54  1  0  0  0  0
 20 55  1  0  0  0  0
 20 15  1  0  0  0  0
 20 19  1  0  0  0  0
 21 22  1  0  0  0  0
 22 57  1  0  0  0  0
 22 23  1  0  0  0  0
 23 59  1  0  0  0  0
 23 60  1  0  0  0  0
 24 23  1  0  0  0  0
 25 24  1  0  0  0  0
 26 21  1  0  0  0  0
 26 25  1  0  0  0  0
 27  1  1  0  0  0  0
 28 27  1  0  0  0  0
 28 65  1  0  0  0  0
 29 28  2  0  0  0  0
 30 31  2  0  0  0  0
 30 29  1  0  0  0  0
 31 32  1  0  0  0  0
 32 68  1  0  0  0  0
 32 27  2  0  0  0  0
 33 30  1  0  0  0  0
 34  5  1  0  0  0  0
 38  8  1  0  0  0  0
 39  8  1  0  0  0  0
 40  9  1  0  0  0  0
 41  9  1  0  0  0  0
 43 10  1  0  0  0  0
 44 13  1  0  0  0  0
 46 14  1  0  0  0  0
 48 16  1  0  0  0  0
 50 17  1  0  0  0  0
 51 18  1  0  0  0  0
 56 20  1  0  0  0  0
 58 22  1  0  0  0  0
 61 25  1  0  0  0  0
 62 25  1  0  0  0  0
 63 26  1  0  0  0  0
 64 26  1  0  0  0  0
 66 29  1  0  0  0  0
 67 31  1  0  0  0  0
M  END
>  <Pose>
1

>  <Score>
-6.05

$$$$
