
 OpenBabel03202210193D

 38 41  0  0  0  0  0  0  0  0999 V2000
   25.8410   62.7320   -3.9320 Cl  0  0  0  0  0  0  0  0  0  0  0  0
   24.6460   63.2700   -5.0940 C   0  0  0  0  0  0  0  0  0  0  0  0
   24.7240   62.9400   -6.4410 C   0  0  0  0  0  0  0  0  0  0  0  0
   23.8150   63.3490   -7.3770 C   0  0  0  0  0  0  0  0  0  0  0  0
   22.7590   64.1250   -6.9960 C   0  0  0  0  0  0  0  0  0  0  0  0
   22.6510   64.4710   -5.6500 C   0  0  0  0  0  0  0  0  0  0  0  0
   23.5800   64.0490   -4.7190 C   0  0  0  0  0  0  0  0  0  0  0  0
   21.7030   64.6380   -7.8850 C   0  0  0  0  0  0  0  0  0  0  0  0
   20.3660   64.3870   -7.2700 C   0  0  0  0  0  0  0  0  0  0  0  0
   19.9470   62.9210   -7.4710 C   0  0  0  0  0  0  0  0  0  0  0  0
   19.7990   62.8250   -8.9310 N   0  0  0  0  0  0  0  0  0  0  0  0
   21.0190   62.9690   -9.6600 C   0  0  0  0  0  0  0  0  0  0  0  0
   21.7950   64.2020   -9.2990 C   0  0  0  0  0  0  0  0  0  0  0  0
   18.5100   62.6060   -9.4730 C   0  0  0  0  0  0  0  0  0  0  0  0
   18.0230   61.3560   -9.5440 N   0  0  0  0  0  0  0  0  0  0  0  0
   16.8370   61.0260  -10.0150 N   0  0  0  0  0  0  0  0  0  0  0  0
   16.1660   59.8810  -10.1720 N   0  0  0  0  0  0  0  0  0  0  0  0
   14.9850   60.1060  -10.7020 N   0  0  0  0  0  0  0  0  0  0  0  0
   14.8800   61.3930  -10.8910 N   0  0  0  0  0  0  0  0  0  0  0  0
   16.0260   61.9810  -10.4680 C   0  0  0  0  0  0  0  0  0  0  0  0
   16.4590   63.2950  -10.4270 C   0  0  0  0  0  0  0  0  0  0  0  0
   17.7030   63.6210   -9.9310 C   0  0  0  0  0  0  0  0  0  0  0  0
   21.8740   66.0460   -7.8670 O   0  0  0  0  0  0  0  0  0  0  0  0
   25.5500   62.3340   -6.7700 H   0  0  0  0  0  0  0  0  0  0  0  0
   23.8750   63.0850   -8.4260 H   0  0  0  0  0  0  0  0  0  0  0  0
   21.8530   65.0780   -5.2620 H   0  0  0  0  0  0  0  0  0  0  0  0
   23.4850   64.3370   -3.6530 H   0  0  0  0  0  0  0  0  0  0  0  0
   20.3760   64.5660   -6.1750 H   0  0  0  0  0  0  0  0  0  0  0  0
   19.5590   65.0030   -7.7000 H   0  0  0  0  0  0  0  0  0  0  0  0
   18.9960   62.7240   -6.9560 H   0  0  0  0  0  0  0  0  0  0  0  0
   20.7430   62.2170   -7.1930 H   0  0  0  0  0  0  0  0  0  0  0  0
   21.6660   62.0820   -9.3860 H   0  0  0  0  0  0  0  0  0  0  0  0
   20.8750   62.9310  -10.7570 H   0  0  0  0  0  0  0  0  0  0  0  0
   21.3450   65.0280   -9.9340 H   0  0  0  0  0  0  0  0  0  0  0  0
   22.8280   64.1150   -9.6610 H   0  0  0  0  0  0  0  0  0  0  0  0
   15.7760   64.0390  -10.8020 H   0  0  0  0  0  0  0  0  0  0  0  0
   18.0400   64.6420   -9.8990 H   0  0  0  0  0  0  0  0  0  0  0  0
   21.8520   66.3500   -8.8260 H   0  0  0  0  0  0  0  0  0  0  0  0
  2  7  1  0  0  0  0
  2  1  1  0  0  0  0
  3  2  2  0  0  0  0
  4  5  2  0  0  0  0
  4  3  1  0  0  0  0
  5  6  1  0  0  0  0
  6 26  1  0  0  0  0
  6  7  2  0  0  0  0
  7 27  1  0  0  0  0
  8 23  1  0  0  0  0
  8  9  1  0  0  0  0
  8  5  1  0  0  0  0
  9 28  1  0  0  0  0
 10  9  1  0  0  0  0
 10 31  1  0  0  0  0
 10 30  1  0  0  0  0
 11 10  1  0  0  0  0
 12 32  1  0  0  0  0
 12 13  1  0  0  0  0
 12 11  1  0  0  0  0
 13  8  1  0  0  0  0
 14 11  1  0  0  0  0
 15 14  2  0  0  0  0
 16 15  1  0  0  0  0
 17 16  1  0  0  0  0
 18 17  2  0  0  0  0
 19 18  1  0  0  0  0
 19 20  2  0  0  0  0
 20 21  1  0  0  0  0
 20 16  1  0  0  0  0
 21 22  2  0  0  0  0
 22 37  1  0  0  0  0
 22 14  1  0  0  0  0
 24  3  1  0  0  0  0
 25  4  1  0  0  0  0
 29  9  1  0  0  0  0
 33 12  1  0  0  0  0
 34 13  1  0  0  0  0
 35 13  1  0  0  0  0
 36 21  1  0  0  0  0
 38 23  1  0  0  0  0
M  END
>  <Pose>
1

>  <Score>
-6.85

$$$$
