
 OpenBabel03202210193D

 50 53  0  0  1  0  0  0  0  0999 V2000
   19.9200   62.3630  -10.4280 S   0  0  0  0  0  0  0  0  0  0  0  0
   20.5510   62.2130  -11.7770 O   0  0  0  0  0  0  0  0  0  0  0  0
   19.9670   61.0040   -9.7740 O   0  0  0  0  0  0  0  0  0  0  0  0
   20.7960   63.4510   -9.4650 N   0  0  0  0  0  0  0  0  0  0  0  0
   22.0820   63.7950   -9.9390 C   0  0  0  0  0  0  0  0  0  0  0  0
   23.0510   64.2480   -8.8790 C   0  0  0  0  0  0  0  0  0  0  0  0
   22.9950   63.4500   -7.6860 N   0  0  0  0  0  0  0  0  0  0  0  0
   21.8820   62.5430   -7.5570 C   0  0  0  0  0  0  0  0  0  0  0  0
   20.6490   63.2880   -8.0610 C   0  0  0  0  0  0  0  0  0  0  0  0
   23.9930   63.5760   -6.7050 C   0  0  0  0  0  0  0  0  0  0  0  0
   24.6700   64.6430   -6.7040 O   0  0  0  0  0  0  0  0  0  0  0  0
   24.2970   62.5410   -5.6800 C   0  0  2  0  0  0  0  0  0  0  0  0
   24.2100   63.0590   -4.3650 N   0  0  0  0  0  0  0  0  0  0  0  0
   25.4050   63.6130   -3.8180 C   0  0  2  0  0  0  0  0  0  0  0  0
   26.6970   62.6270   -4.6020 S   0  0  0  0  0  0  0  0  0  0  0  0
   25.6290   61.8890   -5.9010 C   0  0  0  0  0  0  0  0  0  0  0  0
   25.3370   63.1860   -2.3640 C   0  0  0  0  0  0  0  0  0  0  0  0
   23.8810   63.5710   -2.0700 C   0  0  0  0  0  0  0  0  0  0  0  0
   23.2180   63.2210   -3.3240 C   0  0  0  0  0  0  0  0  0  0  0  0
   21.9620   63.0890   -3.4410 O   0  0  0  0  0  0  0  0  0  0  0  0
   25.5820   65.0710   -3.9700 C   0  0  0  0  0  0  0  0  0  0  0  0
   18.2170   62.7900  -10.5750 C   0  0  0  0  0  0  0  0  0  0  0  0
   17.2410   61.8290  -10.4360 C   0  0  0  0  0  0  0  0  0  0  0  0
   15.9030   62.1280  -10.5460 C   0  0  0  0  0  0  0  0  0  0  0  0
   15.4750   63.4180  -10.8030 C   0  0  0  0  0  0  0  0  0  0  0  0
   16.4790   64.3620  -10.9370 C   0  0  0  0  0  0  0  0  0  0  0  0
   17.8180   64.0770  -10.8290 C   0  0  0  0  0  0  0  0  0  0  0  0
   13.7800   63.8340  -10.9490 Cl  0  0  0  0  0  0  0  0  0  0  0  0
   22.0050   64.5360  -10.7610 H   0  0  0  0  0  0  0  0  0  0  0  0
   22.5350   62.8750  -10.4030 H   0  0  0  0  0  0  0  0  0  0  0  0
   22.8590   65.3280   -8.6980 H   0  0  0  0  0  0  0  0  0  0  0  0
   24.0930   64.2200   -9.3130 H   0  0  0  0  0  0  0  0  0  0  0  0
   21.7320   62.1840   -6.5230 H   0  0  0  0  0  0  0  0  0  0  0  0
   22.0770   61.6900   -8.2490 H   0  0  0  0  0  0  0  0  0  0  0  0
   20.5050   64.2230   -7.5170 H   0  0  0  0  0  0  0  0  0  0  0  0
   19.7340   62.6670   -7.8780 H   0  0  0  0  0  0  0  0  0  0  0  0
   23.5490   61.7330   -5.8340 H   0  0  0  0  0  0  0  0  0  0  0  0
   25.6350   60.8000   -5.7350 H   0  0  0  0  0  0  0  0  0  0  0  0
   26.0650   62.0750   -6.9040 H   0  0  0  0  0  0  0  0  0  0  0  0
   25.4660   62.0800   -2.3580 H   0  0  0  0  0  0  0  0  0  0  0  0
   26.0390   63.7200   -1.7260 H   0  0  0  0  0  0  0  0  0  0  0  0
   23.5280   62.9440   -1.2140 H   0  0  0  0  0  0  0  0  0  0  0  0
   23.8500   64.6460   -1.8710 H   0  0  0  0  0  0  0  0  0  0  0  0
   26.2320   65.4330   -3.1180 H   0  0  0  0  0  0  0  0  0  0  0  0
   26.1670   65.3550   -4.8870 H   0  0  0  0  0  0  0  0  0  0  0  0
   24.6450   65.6500   -3.8750 H   0  0  0  0  0  0  0  0  0  0  0  0
   17.5640   60.8010  -10.2330 H   0  0  0  0  0  0  0  0  0  0  0  0
   15.1410   61.3560  -10.4340 H   0  0  0  0  0  0  0  0  0  0  0  0
   16.1130   65.3740  -11.1410 H   0  0  0  0  0  0  0  0  0  0  0  0
   18.5360   64.8630  -10.9460 H   0  0  0  0  0  0  0  0  0  0  0  0
  1  3  2  0  0  0  0
  1  4  1  0  0  0  0
  2  1  2  0  0  0  0
  4  9  1  0  0  0  0
  5  4  1  0  0  0  0
  5  6  1  0  0  0  0
  6 31  1  0  0  0  0
  6  7  1  0  0  0  0
  7  8  1  0  0  0  0
  7 10  1  0  0  0  0
  8 33  1  0  0  0  0
  9 36  1  0  0  0  0
  9  8  1  0  0  0  0
  9 35  1  0  0  0  0
 10 11  2  0  0  0  0
 10 12  1  0  0  0  0
 12 37  1  6  0  0  0
 12 13  1  0  0  0  0
 13 14  1  0  0  0  0
 13 19  1  0  0  0  0
 14 21  1  6  0  0  0
 14 17  1  0  0  0  0
 15 14  1  0  0  0  0
 16 38  1  0  0  0  0
 16 12  1  0  0  0  0
 16 15  1  0  0  0  0
 17 40  1  0  0  0  0
 17 18  1  0  0  0  0
 17 41  1  0  0  0  0
 18 43  1  0  0  0  0
 18 42  1  0  0  0  0
 19 18  1  0  0  0  0
 20 19  2  0  0  0  0
 21 46  1  0  0  0  0
 21 44  1  0  0  0  0
 22 23  1  0  0  0  0
 22  1  1  0  0  0  0
 23 47  1  0  0  0  0
 24 23  2  0  0  0  0
 24 48  1  0  0  0  0
 25 24  1  0  0  0  0
 26 27  1  0  0  0  0
 26 25  2  0  0  0  0
 27 22  2  0  0  0  0
 28 25  1  0  0  0  0
 29  5  1  0  0  0  0
 30  5  1  0  0  0  0
 32  6  1  0  0  0  0
 34  8  1  0  0  0  0
 39 16  1  0  0  0  0
 45 21  1  0  0  0  0
 49 26  1  0  0  0  0
 50 27  1  0  0  0  0
M  END
>  <Pose>
1

>  <Score>
-6.49

$$$$
