
 OpenBabel03202210193D

 39 42  0  0  0  0  0  0  0  0999 V2000
   22.5000   64.0750  -10.9090 Cl  0  0  0  0  0  0  0  0  0  0  0  0
   20.9610   63.2380  -10.7720 C   0  0  0  0  0  0  0  0  0  0  0  0
   20.2740   63.3550   -9.5820 C   0  0  0  0  0  0  0  0  0  0  0  0
   19.0690   62.6920   -9.4960 C   0  0  0  0  0  0  0  0  0  0  0  0
   18.5280   61.9380  -10.5040 C   0  0  0  0  0  0  0  0  0  0  0  0
   19.2630   61.8510  -11.6920 C   0  0  0  0  0  0  0  0  0  0  0  0
   20.4670   62.4880  -11.8370 C   0  0  0  0  0  0  0  0  0  0  0  0
   17.2520   61.2460  -10.3920 C   0  0  0  0  0  0  0  0  0  0  0  0
   16.0430   61.6180  -10.8210 N   0  0  0  0  0  0  0  0  0  0  0  0
   15.1540   60.6640  -10.4990 N   0  0  0  0  0  0  0  0  0  0  0  0
   15.7960   59.6960   -9.8710 N   0  0  0  0  0  0  0  0  0  0  0  0
   17.0820   60.0510   -9.8060 N   0  0  0  0  0  0  0  0  0  0  0  0
   20.7960   64.1500   -8.4550 C   0  0  0  0  0  0  0  0  0  0  0  0
   20.9850   65.3720   -8.6560 O   0  0  0  0  0  0  0  0  0  0  0  0
   21.0820   63.6100   -7.2000 N   0  0  0  0  0  0  0  0  0  0  0  0
   21.8410   64.1100   -6.1270 C   0  0  0  0  0  0  0  0  0  0  0  0
   23.1540   64.7290   -6.3490 C   0  0  0  0  0  0  0  0  0  0  0  0
   24.3600   64.0560   -5.8750 C   0  0  0  0  0  0  0  0  0  0  0  0
   24.5120   63.3410   -4.7550 N   0  0  0  0  0  0  0  0  0  0  0  0
   25.7480   62.8700   -4.7270 C   0  0  0  0  0  0  0  0  0  0  0  0
   26.3720   63.2940   -5.8340 N   0  0  0  0  0  0  0  0  0  0  0  0
   25.5280   64.0110   -6.5260 N   0  0  0  0  0  0  0  0  0  0  0  0
   26.2200   62.0880   -3.6940 C   0  0  0  0  0  0  0  0  0  0  0  0
   25.3430   61.8030   -2.6630 C   0  0  0  0  0  0  0  0  0  0  0  0
   24.0670   62.2940   -2.7010 C   0  0  0  0  0  0  0  0  0  0  0  0
   23.6580   63.0620   -3.7510 C   0  0  0  0  0  0  0  0  0  0  0  0
   18.5280   62.7830   -8.5640 H   0  0  0  0  0  0  0  0  0  0  0  0
   18.8190   61.2470  -12.4850 H   0  0  0  0  0  0  0  0  0  0  0  0
   21.0190   62.4070  -12.7630 H   0  0  0  0  0  0  0  0  0  0  0  0
   14.1270   60.6680  -10.7010 H   0  0  0  0  0  0  0  0  0  0  0  0
   20.6360   62.6380   -7.0390 H   0  0  0  0  0  0  0  0  0  0  0  0
   21.2020   64.8660   -5.5470 H   0  0  0  0  0  0  0  0  0  0  0  0
   21.9690   63.3110   -5.3270 H   0  0  0  0  0  0  0  0  0  0  0  0
   23.1320   65.8110   -5.9830 H   0  0  0  0  0  0  0  0  0  0  0  0
   23.3060   64.8970   -7.4670 H   0  0  0  0  0  0  0  0  0  0  0  0
   27.2230   61.7270   -3.7050 H   0  0  0  0  0  0  0  0  0  0  0  0
   25.6510   61.2020   -1.8350 H   0  0  0  0  0  0  0  0  0  0  0  0
   23.3610   62.0890   -1.9140 H   0  0  0  0  0  0  0  0  0  0  0  0
   22.6520   63.4690   -3.8130 H   0  0  0  0  0  0  0  0  0  0  0  0
  1  2  1  0  0  0  0
  2  3  1  0  0  0  0
  3  4  2  0  0  0  0
  3 13  1  0  0  0  0
  4 27  1  0  0  0  0
  5  8  1  0  0  0  0
  5  4  1  0  0  0  0
  6  5  2  0  0  0  0
  7  6  1  0  0  0  0
  7  2  2  0  0  0  0
  8 12  1  0  0  0  0
  9 10  1  0  0  0  0
  9  8  2  0  0  0  0
 10 11  1  0  0  0  0
 11 12  2  0  0  0  0
 13 15  1  0  0  0  0
 14 13  2  0  0  0  0
 15 31  1  0  0  0  0
 15 16  1  0  0  0  0
 16 32  1  0  0  0  0
 16 33  1  0  0  0  0
 17 16  1  0  0  0  0
 17 34  1  0  0  0  0
 17 18  1  0  0  0  0
 18 19  1  0  0  0  0
 19 20  1  0  0  0  0
 19 26  1  0  0  0  0
 20 23  1  0  0  0  0
 21 20  2  0  0  0  0
 22 18  2  0  0  0  0
 22 21  1  0  0  0  0
 23 24  2  0  0  0  0
 24 37  1  0  0  0  0
 25 24  1  0  0  0  0
 25 38  1  0  0  0  0
 26 25  2  0  0  0  0
 28  6  1  0  0  0  0
 29  7  1  0  0  0  0
 30 10  1  0  0  0  0
 35 17  1  0  0  0  0
 36 23  1  0  0  0  0
 39 26  1  0  0  0  0
M  END
>  <Pose>
1

>  <Score>
-8.52

$$$$
