
 OpenBabel03202210193D

 53 56  0  0  1  0  0  0  0  0999 V2000
   23.1840   64.7870   -6.6740 S   0  0  0  0  0  0  0  0  0  0  0  0
   24.3310   65.4820   -7.4110 O   0  0  0  0  0  0  0  0  0  0  0  0
   22.4100   65.9390   -6.0220 O   0  0  0  0  0  0  0  0  0  0  0  0
   22.2300   64.0430   -7.8600 N   0  0  0  0  0  0  0  0  0  0  0  0
   21.7750   64.8670   -8.9230 C   0  0  0  0  0  0  0  0  0  0  0  0
   20.9600   64.1180   -9.9520 C   0  0  1  0  0  0  0  0  0  0  0  0
   21.7310   62.9590  -10.4840 C   0  0  0  0  0  0  0  0  0  0  0  0
   22.3120   62.1100   -9.3670 C   0  0  0  0  0  0  0  0  0  0  0  0
   23.0840   62.9880   -8.4450 C   0  0  0  0  0  0  0  0  0  0  0  0
   19.5820   63.8080   -9.5230 C   0  0  0  0  0  0  0  0  0  0  0  0
   19.2030   64.3920   -8.4410 O   0  0  0  0  0  0  0  0  0  0  0  0
   18.6670   62.9730  -10.1510 N   0  0  0  0  0  0  0  0  0  0  0  0
   18.7340   61.5510  -10.0240 C   0  0  0  0  0  0  0  0  0  0  0  0
   17.3880   60.8840   -9.9720 C   0  0  0  0  0  0  0  0  0  0  0  0
   16.3670   61.5780  -10.5430 O   0  0  0  0  0  0  0  0  0  0  0  0
   16.3350   62.9380  -10.3150 C   0  0  0  0  0  0  0  0  0  0  0  0
   17.6070   63.4910  -10.9800 C   0  0  0  0  0  0  0  0  0  0  0  0
   23.8090   63.7970   -5.4240 C   0  0  0  0  0  0  0  0  0  0  0  0
   23.0380   63.3410   -4.3820 C   0  0  0  0  0  0  0  0  0  0  0  0
   23.5870   62.4880   -3.4360 C   0  0  0  0  0  0  0  0  0  0  0  0
   24.9200   62.0770   -3.5130 C   0  0  0  0  0  0  0  0  0  0  0  0
   25.7050   62.5290   -4.5500 C   0  0  0  0  0  0  0  0  0  0  0  0
   25.1420   63.3730   -5.4780 C   0  0  0  0  0  0  0  0  0  0  0  0
   27.0980   62.1170   -4.6530 C   0  0  0  0  0  0  0  0  0  0  0  0
   27.5910   61.1930   -5.4950 N   0  0  0  0  0  0  0  0  0  0  0  0
   28.8790   61.0740   -5.3200 O   0  0  0  0  0  0  0  0  0  0  0  0
   29.2570   61.8990   -4.3800 C   0  0  0  0  0  0  0  0  0  0  0  0
   28.1600   62.5540   -3.9560 N   0  0  0  0  0  0  0  0  0  0  0  0
   30.6550   62.0910   -3.8570 C   0  0  0  0  0  0  0  0  0  0  0  0
   21.3820   63.8420   -4.1170 Cl  0  0  0  0  0  0  0  0  0  0  0  0
   21.1560   65.7300   -8.5500 H   0  0  0  0  0  0  0  0  0  0  0  0
   22.6420   65.3060   -9.4440 H   0  0  0  0  0  0  0  0  0  0  0  0
   20.8650   64.8450  -10.8170 H   0  0  0  0  0  0  0  0  0  0  0  0
   22.6020   63.3590  -11.0500 H   0  0  0  0  0  0  0  0  0  0  0  0
   21.1180   62.3280  -11.1480 H   0  0  0  0  0  0  0  0  0  0  0  0
   21.4760   61.6520   -8.8110 H   0  0  0  0  0  0  0  0  0  0  0  0
   22.9960   61.3940   -9.8350 H   0  0  0  0  0  0  0  0  0  0  0  0
   23.8940   63.5210   -9.0180 H   0  0  0  0  0  0  0  0  0  0  0  0
   23.5280   62.3720   -7.6440 H   0  0  0  0  0  0  0  0  0  0  0  0
   19.3090   61.2150   -9.1340 H   0  0  0  0  0  0  0  0  0  0  0  0
   19.3100   61.1690  -10.9130 H   0  0  0  0  0  0  0  0  0  0  0  0
   17.0990   60.6180   -8.9120 H   0  0  0  0  0  0  0  0  0  0  0  0
   17.4850   59.9080  -10.4970 H   0  0  0  0  0  0  0  0  0  0  0  0
   16.4310   63.0970   -9.2090 H   0  0  0  0  0  0  0  0  0  0  0  0
   15.4290   63.3600  -10.7370 H   0  0  0  0  0  0  0  0  0  0  0  0
   17.5900   64.5570  -11.1440 H   0  0  0  0  0  0  0  0  0  0  0  0
   17.7050   62.9170  -11.9570 H   0  0  0  0  0  0  0  0  0  0  0  0
   22.9690   62.1370   -2.6260 H   0  0  0  0  0  0  0  0  0  0  0  0
   25.3400   61.4130   -2.7710 H   0  0  0  0  0  0  0  0  0  0  0  0
   25.7790   63.7120   -6.2810 H   0  0  0  0  0  0  0  0  0  0  0  0
   31.3370   61.4750   -4.4630 H   0  0  0  0  0  0  0  0  0  0  0  0
   30.8660   63.1740   -3.9030 H   0  0  0  0  0  0  0  0  0  0  0  0
   30.6290   61.7730   -2.7890 H   0  0  0  0  0  0  0  0  0  0  0  0
  1  3  2  0  0  0  0
  1 18  1  0  0  0  0
  2  1  2  0  0  0  0
  4  1  1  0  0  0  0
  5 31  1  0  0  0  0
  5  4  1  0  0  0  0
  6 33  1  6  0  0  0
  6 10  1  0  0  0  0
  6  5  1  0  0  0  0
  7  6  1  0  0  0  0
  7  8  1  0  0  0  0
  8 36  1  0  0  0  0
  8  9  1  0  0  0  0
  9  4  1  0  0  0  0
  9 39  1  0  0  0  0
 10 11  2  0  0  0  0
 12 13  1  0  0  0  0
 12 10  1  0  0  0  0
 13 14  1  0  0  0  0
 13 40  1  0  0  0  0
 14 42  1  0  0  0  0
 15 16  1  0  0  0  0
 15 14  1  0  0  0  0
 16 44  1  0  0  0  0
 17 16  1  0  0  0  0
 17 12  1  0  0  0  0
 18 19  1  0  0  0  0
 19 30  1  0  0  0  0
 19 20  2  0  0  0  0
 20 48  1  0  0  0  0
 21 20  1  0  0  0  0
 21 49  1  0  0  0  0
 22 21  2  0  0  0  0
 23 18  2  0  0  0  0
 23 22  1  0  0  0  0
 24 22  1  0  0  0  0
 24 28  1  0  0  0  0
 25 26  1  0  0  0  0
 25 24  2  0  0  0  0
 26 27  1  0  0  0  0
 27 28  2  0  0  0  0
 27 29  1  0  0  0  0
 29 53  1  0  0  0  0
 32  5  1  0  0  0  0
 34  7  1  0  0  0  0
 35  7  1  0  0  0  0
 37  8  1  0  0  0  0
 38  9  1  0  0  0  0
 41 13  1  0  0  0  0
 43 14  1  0  0  0  0
 45 16  1  0  0  0  0
 46 17  1  0  0  0  0
 47 17  1  0  0  0  0
 50 23  1  0  0  0  0
 51 29  1  0  0  0  0
 52 29  1  0  0  0  0
M  END
>  <Pose>
1

>  <Score>
-5.28

$$$$
