
 OpenBabel03202210193D

 67 70  0  0  1  0  0  0  0  0999 V2000
   18.3940   62.2970   -9.6260 S   0  0  0  0  0  0  0  0  0  0  0  0
   18.3710   60.8120   -9.2670 O   0  0  0  0  0  0  0  0  0  0  0  0
   18.2200   62.9900   -8.2800 O   0  0  0  0  0  0  0  0  0  0  0  0
   17.0670   62.6360  -10.5680 N   0  0  0  0  0  0  0  0  0  0  0  0
   16.8800   63.9360  -11.0790 C   0  0  0  0  0  0  0  0  0  0  0  0
   15.5700   64.5690  -10.6620 C   0  0  2  0  0  0  0  0  0  0  0  0
   14.4890   63.5970  -10.3810 C   0  0  0  0  0  0  0  0  0  0  0  0
   14.6740   62.2140  -10.8870 C   0  0  0  0  0  0  0  0  0  0  0  0
   16.0830   61.6810  -10.8280 C   0  0  0  0  0  0  0  0  0  0  0  0
   15.1160   65.5620  -11.6690 C   0  0  0  0  0  0  0  0  0  0  0  0
   14.8900   66.7340  -11.2800 O   0  0  0  0  0  0  0  0  0  0  0  0
   14.9460   65.1770  -13.0520 N   0  0  0  0  0  0  0  0  0  0  0  0
   13.6220   64.9610  -13.5100 C   0  0  0  0  0  0  0  0  0  0  0  0
   13.3220   65.1360  -14.9500 C   0  0  0  0  0  0  0  0  0  0  0  0
   12.2070   65.9180  -15.3350 N   0  0  0  0  0  0  0  0  0  0  0  0
   12.3230   67.3020  -15.2950 C   0  0  0  0  0  0  0  0  0  0  0  0
   11.4630   68.0210  -14.2960 C   0  0  0  0  0  0  0  0  0  0  0  0
   10.1910   67.4770  -14.1990 O   0  0  0  0  0  0  0  0  0  0  0  0
   10.3530   66.1760  -13.7240 C   0  0  0  0  0  0  0  0  0  0  0  0
   10.9610   65.3720  -14.8500 C   0  0  0  0  0  0  0  0  0  0  0  0
   19.9360   62.7340  -10.2640 C   0  0  0  0  0  0  0  0  0  0  0  0
   20.9070   63.2720   -9.4340 C   0  0  0  0  0  0  0  0  0  0  0  0
   22.1550   63.6240   -9.8890 C   0  0  0  0  0  0  0  0  0  0  0  0
   22.4580   63.4330  -11.2420 C   0  0  0  0  0  0  0  0  0  0  0  0
   21.5010   62.9060  -12.0460 C   0  0  0  0  0  0  0  0  0  0  0  0
   20.2440   62.5520  -11.5850 C   0  0  0  0  0  0  0  0  0  0  0  0
   18.9620   61.8150  -12.8250 B   0  0  0  0  0  0  0  0  0  0  0  0
   23.8500   63.8760  -11.5280 C   0  0  0  0  0  0  0  0  0  0  0  0
   24.1140   64.8160  -10.3690 C   0  0  0  0  0  0  0  0  0  0  0  0
   23.3320   64.1700   -9.3090 N   0  0  0  0  0  0  0  0  0  0  0  0
   23.7340   64.1310   -7.9760 C   0  0  0  0  0  0  0  0  0  0  0  0
   24.2180   65.1820   -7.4300 O   0  0  0  0  0  0  0  0  0  0  0  0
   23.6460   62.9440   -7.1280 C   0  0  0  0  0  0  0  0  0  0  0  0
   24.4670   63.0930   -5.8490 C   0  0  0  0  0  0  0  0  0  0  0  0
   16.8460   63.8720  -12.2060 H   0  0  0  0  0  0  0  0  0  0  0  0
   17.7540   64.5630  -10.8380 H   0  0  0  0  0  0  0  0  0  0  0  0
   15.8190   65.1390   -9.7170 H   0  0  0  0  0  0  0  0  0  0  0  0
   13.5260   63.9760  -10.8440 H   0  0  0  0  0  0  0  0  0  0  0  0
   14.3160   63.5320   -9.2770 H   0  0  0  0  0  0  0  0  0  0  0  0
   14.0610   61.5210  -10.2510 H   0  0  0  0  0  0  0  0  0  0  0  0
   14.2160   62.1170  -11.9050 H   0  0  0  0  0  0  0  0  0  0  0  0
   16.2010   60.7960  -10.1760 H   0  0  0  0  0  0  0  0  0  0  0  0
   16.2800   61.2630  -11.8670 H   0  0  0  0  0  0  0  0  0  0  0  0
   15.8110   65.0820  -13.5890 H   0  0  0  0  0  0  0  0  0  0  0  0
   12.9710   65.6990  -12.9590 H   0  0  0  0  0  0  0  0  0  0  0  0
   13.3310   63.9210  -13.1500 H   0  0  0  0  0  0  0  0  0  0  0  0
   14.2580   65.5400  -15.4810 H   0  0  0  0  0  0  0  0  0  0  0  0
   13.2620   64.0950  -15.4210 H   0  0  0  0  0  0  0  0  0  0  0  0
   11.9070   67.6790  -16.3100 H   0  0  0  0  0  0  0  0  0  0  0  0
   13.3620   67.6590  -15.3390 H   0  0  0  0  0  0  0  0  0  0  0  0
   11.9250   67.9430  -13.2980 H   0  0  0  0  0  0  0  0  0  0  0  0
   11.3610   69.0990  -14.5310 H   0  0  0  0  0  0  0  0  0  0  0  0
   10.9180   66.1500  -12.7910 H   0  0  0  0  0  0  0  0  0  0  0  0
    9.3580   65.7040  -13.5080 H   0  0  0  0  0  0  0  0  0  0  0  0
   10.2370   65.4620  -15.7130 H   0  0  0  0  0  0  0  0  0  0  0  0
   11.0190   64.2940  -14.6380 H   0  0  0  0  0  0  0  0  0  0  0  0
   20.7270   63.4400   -8.3810 H   0  0  0  0  0  0  0  0  0  0  0  0
   21.7080   62.7450  -13.1100 H   0  0  0  0  0  0  0  0  0  0  0  0
   24.5720   63.0590  -11.5720 H   0  0  0  0  0  0  0  0  0  0  0  0
   23.8760   64.4620  -12.4630 H   0  0  0  0  0  0  0  0  0  0  0  0
   25.1890   64.8620  -10.1070 H   0  0  0  0  0  0  0  0  0  0  0  0
   23.7770   65.8270  -10.6000 H   0  0  0  0  0  0  0  0  0  0  0  0
   22.5560   62.8720   -6.8180 H   0  0  0  0  0  0  0  0  0  0  0  0
   23.9260   62.0000   -7.6010 H   0  0  0  0  0  0  0  0  0  0  0  0
   23.8890   62.6990   -5.0000 H   0  0  0  0  0  0  0  0  0  0  0  0
   24.7150   64.1700   -5.7300 H   0  0  0  0  0  0  0  0  0  0  0  0
   25.4150   62.5350   -5.9820 H   0  0  0  0  0  0  0  0  0  0  0  0
  1  2  2  0  0  0  0
  1  3  2  0  0  0  0
  4  1  1  0  0  0  0
  5 36  1  0  0  0  0
  5  6  1  0  0  0  0
  5  4  1  0  0  0  0
  6  7  1  0  0  0  0
  6 37  1  1  0  0  0
  7 39  1  0  0  0  0
  8  9  1  0  0  0  0
  8  7  1  0  0  0  0
  8 40  1  0  0  0  0
  9  4  1  0  0  0  0
  9 42  1  0  0  0  0
 10 11  2  0  0  0  0
 10  6  1  0  0  0  0
 12 10  1  0  0  0  0
 13 46  1  0  0  0  0
 13 12  1  0  0  0  0
 13 45  1  0  0  0  0
 14 13  1  0  0  0  0
 15 16  1  0  0  0  0
 15 14  1  0  0  0  0
 15 20  1  0  0  0  0
 16 17  1  0  0  0  0
 17 18  1  0  0  0  0
 17 51  1  0  0  0  0
 18 19  1  0  0  0  0
 19 54  1  0  0  0  0
 19 53  1  0  0  0  0
 20 56  1  0  0  0  0
 20 19  1  0  0  0  0
 21  1  1  0  0  0  0
 21 22  1  0  0  0  0
 22 57  1  0  0  0  0
 23 22  2  0  0  0  0
 23 30  1  0  0  0  0
 24 23  1  0  0  0  0
 25 26  1  0  0  0  0
 25 24  2  0  0  0  0
 26 21  2  0  0  0  0
 27 26  1  0  0  0  0
 28 24  1  0  0  0  0
 28 29  1  0  0  0  0
 29 61  1  0  0  0  0
 29 30  1  0  0  0  0
 30 31  1  0  0  0  0
 31 32  2  0  0  0  0
 31 33  1  0  0  0  0
 33 63  1  0  0  0  0
 33 34  1  0  0  0  0
 34 66  1  0  0  0  0
 34 65  1  0  0  0  0
 35  5  1  0  0  0  0
 38  7  1  0  0  0  0
 41  8  1  0  0  0  0
 43  9  1  0  0  0  0
 44 12  1  0  0  0  0
 47 14  1  0  0  0  0
 48 14  1  0  0  0  0
 49 16  1  0  0  0  0
 50 16  1  0  0  0  0
 52 17  1  0  0  0  0
 55 20  1  0  0  0  0
 58 25  1  0  0  0  0
 59 28  1  0  0  0  0
 60 28  1  0  0  0  0
 62 29  1  0  0  0  0
 64 33  1  0  0  0  0
 67 34  1  0  0  0  0
M  END
>  <Pose>
1

>  <Score>
-6.24

$$$$
