
 OpenBabel03202210193D

 51 54  0  0  1  0  0  0  0  0999 V2000
   26.9570   60.1370   -2.7460 Cl  0  0  0  0  0  0  0  0  0  0  0  0
   25.9140   61.3060   -3.5680 C   0  0  0  0  0  0  0  0  0  0  0  0
   24.6170   61.4980   -3.1660 C   0  0  0  0  0  0  0  0  0  0  0  0
   23.8170   62.4150   -3.8180 C   0  0  0  0  0  0  0  0  0  0  0  0
   24.2800   63.1560   -4.8750 C   0  0  0  0  0  0  0  0  0  0  0  0
   25.5720   62.9640   -5.2760 C   0  0  0  0  0  0  0  0  0  0  0  0
   26.3990   62.0390   -4.6250 C   0  0  0  0  0  0  0  0  0  0  0  0
   23.4300   64.0900   -5.5280 N   0  0  0  0  0  0  0  0  0  0  0  0
   22.1250   64.3360   -5.0240 C   0  0  0  0  0  0  0  0  0  0  0  0
   21.7730   63.6870   -3.9780 O   0  0  0  0  0  0  0  0  0  0  0  0
   21.2740   65.2500   -5.6530 N   0  0  0  0  0  0  0  0  0  0  0  0
   21.6930   65.9520   -6.8060 C   0  0  0  0  0  0  0  0  0  0  0  0
   21.0880   66.9750   -7.1810 O   0  0  0  0  0  0  0  0  0  0  0  0
   22.8590   65.4700   -7.5800 C   0  0  1  0  0  0  0  0  0  0  0  0
   23.8360   64.8020   -6.6870 C   0  0  0  0  0  0  0  0  0  0  0  0
   25.0450   64.8720   -6.9680 O   0  0  0  0  0  0  0  0  0  0  0  0
   22.4220   64.4720   -8.6160 C   0  0  0  0  0  0  0  0  0  0  0  0
   21.9830   63.2430   -8.4230 C   0  0  0  0  0  0  0  0  0  0  0  0
   21.6610   62.6080   -9.7250 C   0  0  2  0  0  0  0  0  0  0  0  0
   22.3870   63.4210  -10.6610 N   0  0  0  0  0  0  0  0  0  0  0  0
   22.4120   64.6720  -10.0250 N   0  0  0  0  0  0  0  0  0  0  0  0
   20.2140   62.6150   -9.9040 C   0  0  0  0  0  0  0  0  0  0  0  0
   19.5680   61.4090  -10.0750 C   0  0  0  0  0  0  0  0  0  0  0  0
   18.2030   61.3090  -10.2480 C   0  0  0  0  0  0  0  0  0  0  0  0
   17.4570   62.4950  -10.2480 C   0  0  0  0  0  0  0  0  0  0  0  0
   18.0580   63.7240  -10.0820 C   0  0  0  0  0  0  0  0  0  0  0  0
   19.4280   63.7460   -9.9140 C   0  0  0  0  0  0  0  0  0  0  0  0
   17.2870   64.8480  -10.0920 O   0  0  0  0  0  0  0  0  0  0  0  0
   15.9220   64.9220  -10.3840 C   0  0  0  0  0  0  0  0  0  0  0  0
   16.0920   62.4480  -10.4180 O   0  0  0  0  0  0  0  0  0  0  0  0
   17.5420   60.0990  -10.4200 O   0  0  0  0  0  0  0  0  0  0  0  0
   17.4570   59.2530   -9.2920 C   0  0  0  0  0  0  0  0  0  0  0  0
   24.2540   60.9160   -2.3350 H   0  0  0  0  0  0  0  0  0  0  0  0
   22.7990   62.5480   -3.4810 H   0  0  0  0  0  0  0  0  0  0  0  0
   25.9530   63.5360   -6.1030 H   0  0  0  0  0  0  0  0  0  0  0  0
   27.4150   61.8930   -4.9460 H   0  0  0  0  0  0  0  0  0  0  0  0
   20.3110   65.3970   -5.2330 H   0  0  0  0  0  0  0  0  0  0  0  0
   23.2980   66.3420   -8.1050 H   0  0  0  0  0  0  0  0  0  0  0  0
   21.8850   62.7960   -7.4260 H   0  0  0  0  0  0  0  0  0  0  0  0
   22.0650   61.5690   -9.7030 H   0  0  0  0  0  0  0  0  0  0  0  0
   22.0100   63.4400  -11.6070 H   0  0  0  0  0  0  0  0  0  0  0  0
   22.4220   65.5860  -10.5200 H   0  0  0  0  0  0  0  0  0  0  0  0
   20.1140   60.4690  -10.0800 H   0  0  0  0  0  0  0  0  0  0  0  0
   19.9330   64.6840   -9.7820 H   0  0  0  0  0  0  0  0  0  0  0  0
   15.6260   64.2880  -11.2490 H   0  0  0  0  0  0  0  0  0  0  0  0
   15.5500   65.9240  -10.5820 H   0  0  0  0  0  0  0  0  0  0  0  0
   15.3600   64.5170   -9.5130 H   0  0  0  0  0  0  0  0  0  0  0  0
   15.5290   61.8700   -9.8080 H   0  0  0  0  0  0  0  0  0  0  0  0
   17.0450   58.2670   -9.5660 H   0  0  0  0  0  0  0  0  0  0  0  0
   16.9230   59.7170   -8.4510 H   0  0  0  0  0  0  0  0  0  0  0  0
   18.5030   59.0580   -8.9380 H   0  0  0  0  0  0  0  0  0  0  0  0
  2  3  1  0  0  0  0
  2  1  1  0  0  0  0
  3 33  1  0  0  0  0
  4 34  1  0  0  0  0
  4  3  2  0  0  0  0
  5  4  1  0  0  0  0
  6  5  2  0  0  0  0
  6  7  1  0  0  0  0
  7  2  2  0  0  0  0
  8  9  1  0  0  0  0
  8  5  1  0  0  0  0
  9 10  2  0  0  0  0
 11 37  1  0  0  0  0
 11  9  1  0  0  0  0
 12 11  1  0  0  0  0
 13 12  2  0  0  0  0
 14 38  1  6  0  0  0
 14 12  1  0  0  0  0
 14 15  1  0  0  0  0
 15  8  1  0  0  0  0
 16 15  2  0  0  0  0
 17 18  2  0  0  0  0
 17 14  1  0  0  0  0
 18 39  1  0  0  0  0
 19 40  1  6  0  0  0
 19 18  1  0  0  0  0
 20 21  1  0  0  0  0
 20 19  1  0  0  0  0
 21 17  1  0  0  0  0
 22 19  1  0  0  0  0
 23 22  2  0  0  0  0
 24 25  2  0  0  0  0
 24 23  1  0  0  0  0
 25 26  1  0  0  0  0
 26 27  2  0  0  0  0
 27 22  1  0  0  0  0
 27 44  1  0  0  0  0
 28 26  1  0  0  0  0
 29 28  1  0  0  0  0
 29 47  1  0  0  0  0
 30 25  1  0  0  0  0
 30 48  1  0  0  0  0
 31 24  1  0  0  0  0
 31 32  1  0  0  0  0
 32 51  1  0  0  0  0
 32 50  1  0  0  0  0
 35  6  1  0  0  0  0
 36  7  1  0  0  0  0
 41 20  1  0  0  0  0
 42 21  1  0  0  0  0
 43 23  1  0  0  0  0
 45 29  1  0  0  0  0
 46 29  1  0  0  0  0
 49 32  1  0  0  0  0
M  END
>  <Pose>
1

>  <Score>
-7.69

$$$$
