
 OpenBabel03202210193D

 47 50  0  0  1  0  0  0  0  0999 V2000
   13.5800   63.0920  -11.0900 Cl  0  0  0  0  0  0  0  0  0  0  0  0
   15.3200   63.2240  -10.9150 C   0  0  0  0  0  0  0  0  0  0  0  0
   16.0340   64.2070  -11.5850 C   0  0  0  0  0  0  0  0  0  0  0  0
   17.3850   64.2840  -11.4280 C   0  0  0  0  0  0  0  0  0  0  0  0
   18.0890   63.4060  -10.6130 C   0  0  0  0  0  0  0  0  0  0  0  0
   17.3770   62.4320   -9.9500 C   0  0  0  0  0  0  0  0  0  0  0  0
   15.9910   62.3320  -10.0940 C   0  0  0  0  0  0  0  0  0  0  0  0
   19.4990   63.4900  -10.4540 N   0  0  0  0  0  0  0  0  0  0  0  0
   20.3760   62.4200  -10.7770 C   0  0  0  0  0  0  0  0  0  0  0  0
   19.8720   61.3480  -11.2230 O   0  0  0  0  0  0  0  0  0  0  0  0
   21.7750   62.5340  -10.6110 N   0  0  0  0  0  0  0  0  0  0  0  0
   22.3450   63.7290  -10.1140 C   0  0  0  0  0  0  0  0  0  0  0  0
   23.6110   63.9180  -10.1240 O   0  0  0  0  0  0  0  0  0  0  0  0
   21.5160   64.8020   -9.5650 C   0  0  1  0  0  0  0  0  0  0  0  0
   20.1060   64.6740   -9.9560 C   0  0  0  0  0  0  0  0  0  0  0  0
   19.3350   65.6900   -9.8550 O   0  0  0  0  0  0  0  0  0  0  0  0
   21.6860   64.8800   -8.0840 C   0  0  0  0  0  0  0  0  0  0  0  0
   21.3700   63.9870   -7.1850 C   0  0  0  0  0  0  0  0  0  0  0  0
   21.7390   64.5460   -5.8620 C   0  0  2  0  0  0  0  0  0  0  0  0
   21.8650   65.9670   -6.1060 N   0  0  0  0  0  0  0  0  0  0  0  0
   22.2530   66.0220   -7.4500 N   0  0  0  0  0  0  0  0  0  0  0  0
   23.0390   63.9850   -5.3990 C   0  0  0  0  0  0  0  0  0  0  0  0
   23.1980   63.4330   -4.1490 C   0  0  0  0  0  0  0  0  0  0  0  0
   24.4000   62.9110   -3.7090 C   0  0  0  0  0  0  0  0  0  0  0  0
   25.5010   62.9300   -4.5350 C   0  0  0  0  0  0  0  0  0  0  0  0
   25.3630   63.4760   -5.7870 C   0  0  0  0  0  0  0  0  0  0  0  0
   24.1600   63.9940   -6.2150 C   0  0  0  0  0  0  0  0  0  0  0  0
   26.7110   62.4140   -4.1160 O   0  0  0  0  0  0  0  0  0  0  0  0
   27.5690   61.8030   -5.0520 C   0  0  0  0  0  0  0  0  0  0  0  0
   24.4980   62.3690   -2.4420 O   0  0  0  0  0  0  0  0  0  0  0  0
   15.5170   64.8940  -12.2170 H   0  0  0  0  0  0  0  0  0  0  0  0
   17.9430   65.0630  -11.9610 H   0  0  0  0  0  0  0  0  0  0  0  0
   17.9340   61.7530   -9.3180 H   0  0  0  0  0  0  0  0  0  0  0  0
   15.4720   61.5470   -9.5500 H   0  0  0  0  0  0  0  0  0  0  0  0
   22.4080   61.7280  -10.8570 H   0  0  0  0  0  0  0  0  0  0  0  0
   21.9090   65.7630  -10.0090 H   0  0  0  0  0  0  0  0  0  0  0  0
   20.9180   63.0240   -7.4170 H   0  0  0  0  0  0  0  0  0  0  0  0
   20.9420   64.3320   -5.1110 H   0  0  0  0  0  0  0  0  0  0  0  0
   20.9570   66.4650   -5.9460 H   0  0  0  0  0  0  0  0  0  0  0  0
   22.8510   66.7870   -7.8550 H   0  0  0  0  0  0  0  0  0  0  0  0
   22.3090   63.4290   -3.5110 H   0  0  0  0  0  0  0  0  0  0  0  0
   26.2350   63.4960   -6.4530 H   0  0  0  0  0  0  0  0  0  0  0  0
   24.0410   64.4330   -7.2130 H   0  0  0  0  0  0  0  0  0  0  0  0
   27.9250   62.5050   -5.8290 H   0  0  0  0  0  0  0  0  0  0  0  0
   28.4150   61.3430   -4.5060 H   0  0  0  0  0  0  0  0  0  0  0  0
   27.0050   60.9680   -5.5190 H   0  0  0  0  0  0  0  0  0  0  0  0
   24.0840   61.4850   -2.2200 H   0  0  0  0  0  0  0  0  0  0  0  0
  1  2  1  0  0  0  0
  2  7  1  0  0  0  0
  3  4  1  0  0  0  0
  3  2  2  0  0  0  0
  4  5  2  0  0  0  0
  5  8  1  0  0  0  0
  5  6  1  0  0  0  0
  6 33  1  0  0  0  0
  7  6  2  0  0  0  0
  7 34  1  0  0  0  0
  8 15  1  0  0  0  0
  9 11  1  0  0  0  0
  9  8  1  0  0  0  0
 10  9  2  0  0  0  0
 11 12  1  0  0  0  0
 12 14  1  0  0  0  0
 13 12  2  0  0  0  0
 14 36  1  6  0  0  0
 14 17  1  0  0  0  0
 15 16  2  0  0  0  0
 15 14  1  0  0  0  0
 17 21  1  0  0  0  0
 17 18  2  0  0  0  0
 18 19  1  0  0  0  0
 19 22  1  0  0  0  0
 19 38  1  1  0  0  0
 20 39  1  0  0  0  0
 20 19  1  0  0  0  0
 21 20  1  0  0  0  0
 22 23  1  0  0  0  0
 23 24  2  0  0  0  0
 23 41  1  0  0  0  0
 24 30  1  0  0  0  0
 25 28  1  0  0  0  0
 25 24  1  0  0  0  0
 26 25  2  0  0  0  0
 27 26  1  0  0  0  0
 27 22  2  0  0  0  0
 29 45  1  0  0  0  0
 29 28  1  0  0  0  0
 30 47  1  0  0  0  0
 31  3  1  0  0  0  0
 32  4  1  0  0  0  0
 35 11  1  0  0  0  0
 37 18  1  0  0  0  0
 40 21  1  0  0  0  0
 42 26  1  0  0  0  0
 43 27  1  0  0  0  0
 44 29  1  0  0  0  0
 46 29  1  0  0  0  0
M  END
>  <Pose>
1

>  <Score>
-9.40

$$$$
