
 OpenBabel03202210193D

 41 44  0  0  1  0  0  0  0  0999 V2000
   24.8160   64.0290   -3.5280 Cl  0  0  0  0  0  0  0  0  0  0  0  0
   24.2080   63.9230   -5.1710 C   0  0  0  0  0  0  0  0  0  0  0  0
   23.8520   65.0530   -5.8760 C   0  0  0  0  0  0  0  0  0  0  0  0
   23.3690   64.9650   -7.1770 C   0  0  0  0  0  0  0  0  0  0  0  0
   23.2300   63.7480   -7.8090 C   0  0  0  0  0  0  0  0  0  0  0  0
   23.5870   62.6220   -7.1020 C   0  0  0  0  0  0  0  0  0  0  0  0
   24.0680   62.7090   -5.8080 C   0  0  0  0  0  0  0  0  0  0  0  0
   22.7300   63.6400   -9.1630 N   0  0  0  0  0  0  0  0  0  0  0  0
   23.3400   62.7610  -10.0910 C   0  0  0  0  0  0  0  0  0  0  0  0
   24.3220   62.0580   -9.7450 O   0  0  0  0  0  0  0  0  0  0  0  0
   22.8140   62.6880  -11.4280 N   0  0  0  0  0  0  0  0  0  0  0  0
   21.7030   63.4820  -11.8210 C   0  0  0  0  0  0  0  0  0  0  0  0
   21.4740   63.6620  -13.0430 O   0  0  0  0  0  0  0  0  0  0  0  0
   20.8390   64.0790  -10.7900 C   0  0  2  0  0  0  0  0  0  0  0  0
   21.6250   64.4170   -9.5900 C   0  0  0  0  0  0  0  0  0  0  0  0
   21.3090   65.4450   -8.8960 O   0  0  0  0  0  0  0  0  0  0  0  0
   19.7180   63.1490  -10.4260 C   0  0  0  0  0  0  0  0  0  0  0  0
   18.9940   62.4010  -11.2180 C   0  0  0  0  0  0  0  0  0  0  0  0
   18.0100   61.6570  -10.4160 C   0  0  1  0  0  0  0  0  0  0  0  0
   18.4880   61.7910   -9.0690 N   0  0  0  0  0  0  0  0  0  0  0  0
   19.2830   62.9480   -9.0920 N   0  0  0  0  0  0  0  0  0  0  0  0
   16.7070   62.3550  -10.5680 C   0  0  0  0  0  0  0  0  0  0  0  0
   15.5400   61.6330  -10.6380 C   0  0  0  0  0  0  0  0  0  0  0  0
   14.3420   62.2670  -10.7790 N   0  0  0  0  0  0  0  0  0  0  0  0
   14.2380   63.6030  -10.8560 C   0  0  0  0  0  0  0  0  0  0  0  0
   15.3880   64.3560  -10.7890 C   0  0  0  0  0  0  0  0  0  0  0  0
   16.6290   63.7200  -10.6440 C   0  0  0  0  0  0  0  0  0  0  0  0
   23.9540   66.0140   -5.3980 H   0  0  0  0  0  0  0  0  0  0  0  0
   23.0890   65.8390   -7.7430 H   0  0  0  0  0  0  0  0  0  0  0  0
   23.4810   61.6480   -7.5920 H   0  0  0  0  0  0  0  0  0  0  0  0
   24.3510   61.8210   -5.2380 H   0  0  0  0  0  0  0  0  0  0  0  0
   23.2320   62.0550  -12.1430 H   0  0  0  0  0  0  0  0  0  0  0  0
   20.3350   65.0070  -11.1430 H   0  0  0  0  0  0  0  0  0  0  0  0
   19.1230   62.3570  -12.2920 H   0  0  0  0  0  0  0  0  0  0  0  0
   17.9280   60.5880  -10.7290 H   0  0  0  0  0  0  0  0  0  0  0  0
   19.0180   60.9720   -8.7540 H   0  0  0  0  0  0  0  0  0  0  0  0
   19.4740   63.5100   -8.2320 H   0  0  0  0  0  0  0  0  0  0  0  0
   15.5990   60.5430  -10.5780 H   0  0  0  0  0  0  0  0  0  0  0  0
   13.2600   64.0950  -10.9690 H   0  0  0  0  0  0  0  0  0  0  0  0
   15.3150   65.4310  -10.8490 H   0  0  0  0  0  0  0  0  0  0  0  0
   17.5100   64.3110  -10.5940 H   0  0  0  0  0  0  0  0  0  0  0  0
  2  1  1  0  0  0  0
  3 28  1  0  0  0  0
  3  2  2  0  0  0  0
  4  3  1  0  0  0  0
  5  4  2  0  0  0  0
  5  6  1  0  0  0  0
  6  7  2  0  0  0  0
  7 31  1  0  0  0  0
  7  2  1  0  0  0  0
  8  5  1  0  0  0  0
  9 10  2  0  0  0  0
  9  8  1  0  0  0  0
 11  9  1  0  0  0  0
 12 11  1  0  0  0  0
 12 14  1  0  0  0  0
 13 12  2  0  0  0  0
 14 33  1  6  0  0  0
 14 17  1  0  0  0  0
 14 15  1  0  0  0  0
 15  8  1  0  0  0  0
 15 16  2  0  0  0  0
 17 21  1  0  0  0  0
 18 17  2  0  0  0  0
 18 19  1  0  0  0  0
 19 35  1  6  0  0  0
 19 20  1  0  0  0  0
 20 36  1  0  0  0  0
 21 20  1  0  0  0  0
 21 37  1  0  0  0  0
 22 19  1  0  0  0  0
 23 38  1  0  0  0  0
 23 22  1  0  0  0  0
 24 23  2  0  0  0  0
 25 26  2  0  0  0  0
 25 24  1  0  0  0  0
 26 27  1  0  0  0  0
 27 41  1  0  0  0  0
 27 22  2  0  0  0  0
 29  4  1  0  0  0  0
 30  6  1  0  0  0  0
 32 11  1  0  0  0  0
 34 18  1  0  0  0  0
 39 25  1  0  0  0  0
 40 26  1  0  0  0  0
M  END
>  <Pose>
1

>  <Score>
-6.35

$$$$
