
 OpenBabel03202210193D

 53 56  0  0  1  0  0  0  0  0999 V2000
   25.9390   62.9800   -0.9390 Cl  0  0  0  0  0  0  0  0  0  0  0  0
   25.3460   62.9990   -2.6040 C   0  0  0  0  0  0  0  0  0  0  0  0
   26.2280   63.2690   -3.6260 C   0  0  0  0  0  0  0  0  0  0  0  0
   25.7670   63.2850   -4.9390 C   0  0  0  0  0  0  0  0  0  0  0  0
   24.4510   63.0370   -5.2270 C   0  0  0  0  0  0  0  0  0  0  0  0
   23.5920   62.7710   -4.1830 C   0  0  0  0  0  0  0  0  0  0  0  0
   24.0170   62.7460   -2.8660 C   0  0  0  0  0  0  0  0  0  0  0  0
   23.9500   63.0510   -6.6080 N   0  0  0  0  0  0  0  0  0  0  0  0
   23.2240   64.1770   -7.0760 C   0  0  2  0  0  0  0  0  0  0  0  0
   22.6790   64.0340   -8.4170 C   0  0  0  0  0  0  0  0  0  0  0  0
   22.9260   62.9480   -9.2020 C   0  0  0  0  0  0  0  0  0  0  0  0
   22.3840   62.8870  -10.5000 C   0  0  0  0  0  0  0  0  0  0  0  0
   21.6020   63.8840  -11.0270 C   0  0  0  0  0  0  0  0  0  0  0  0
   21.3600   64.9800  -10.2150 C   0  0  0  0  0  0  0  0  0  0  0  0
   21.8810   65.0450   -8.9630 C   0  0  0  0  0  0  0  0  0  0  0  0
   23.7100   61.8360   -8.7410 N   0  0  0  0  0  0  0  0  0  0  0  0
   24.2060   61.9380   -7.4220 C   0  0  0  0  0  0  0  0  0  0  0  0
   24.9120   60.9930   -6.9390 O   0  0  0  0  0  0  0  0  0  0  0  0
   24.2030   65.2310   -7.1340 O   0  0  0  0  0  0  0  0  0  0  0  0
   22.2090   64.6440   -6.0960 C   0  0  0  0  0  0  0  0  0  0  0  0
   22.3280   65.7480   -5.5610 O   0  0  0  0  0  0  0  0  0  0  0  0
   21.1270   63.7900   -5.8100 N   0  0  0  0  0  0  0  0  0  0  0  0
   19.8830   63.8120   -6.5790 C   0  0  0  0  0  0  0  0  0  0  0  0
   19.9400   62.9510   -7.7810 C   0  0  0  0  0  0  0  0  0  0  0  0
   18.8650   63.0310   -8.6930 N   0  0  0  0  0  0  0  0  0  0  0  0
   18.5060   64.2860   -9.2090 C   0  0  0  0  0  0  0  0  0  0  0  0
   17.5190   64.0750  -10.3620 C   0  0  0  0  0  0  0  0  0  0  0  0
   16.7000   62.9620  -10.1040 O   0  0  0  0  0  0  0  0  0  0  0  0
   17.4150   61.7720  -10.2140 C   0  0  0  0  0  0  0  0  0  0  0  0
   18.8000   61.9990   -9.6710 C   0  0  0  0  0  0  0  0  0  0  0  0
   27.2540   63.4600   -3.3760 H   0  0  0  0  0  0  0  0  0  0  0  0
   26.4710   63.4960   -5.7150 H   0  0  0  0  0  0  0  0  0  0  0  0
   22.5570   62.5730   -4.3840 H   0  0  0  0  0  0  0  0  0  0  0  0
   23.3680   62.5410   -2.0370 H   0  0  0  0  0  0  0  0  0  0  0  0
   22.6050   62.0120  -11.0830 H   0  0  0  0  0  0  0  0  0  0  0  0
   21.1780   63.8570  -12.0150 H   0  0  0  0  0  0  0  0  0  0  0  0
   20.7320   65.7940  -10.6190 H   0  0  0  0  0  0  0  0  0  0  0  0
   21.6870   65.8970   -8.3440 H   0  0  0  0  0  0  0  0  0  0  0  0
   23.8790   61.0290   -9.3670 H   0  0  0  0  0  0  0  0  0  0  0  0
   24.8740   65.0980   -6.4140 H   0  0  0  0  0  0  0  0  0  0  0  0
   21.1540   63.0850   -5.0220 H   0  0  0  0  0  0  0  0  0  0  0  0
   19.0800   63.5920   -5.8710 H   0  0  0  0  0  0  0  0  0  0  0  0
   19.7530   64.8650   -6.9060 H   0  0  0  0  0  0  0  0  0  0  0  0
   20.0060   61.8850   -7.4270 H   0  0  0  0  0  0  0  0  0  0  0  0
   20.8870   63.1240   -8.3320 H   0  0  0  0  0  0  0  0  0  0  0  0
   18.1210   65.0180   -8.4760 H   0  0  0  0  0  0  0  0  0  0  0  0
   19.4020   64.7610   -9.6670 H   0  0  0  0  0  0  0  0  0  0  0  0
   16.9000   64.9560  -10.5450 H   0  0  0  0  0  0  0  0  0  0  0  0
   18.0530   63.8350  -11.3110 H   0  0  0  0  0  0  0  0  0  0  0  0
   17.4500   61.3860  -11.2520 H   0  0  0  0  0  0  0  0  0  0  0  0
   16.9230   60.9970   -9.6040 H   0  0  0  0  0  0  0  0  0  0  0  0
   19.2620   61.0640   -9.2920 H   0  0  0  0  0  0  0  0  0  0  0  0
   19.4290   62.3200  -10.5500 H   0  0  0  0  0  0  0  0  0  0  0  0
  2  1  1  0  0  0  0
  3 31  1  0  0  0  0
  3  2  2  0  0  0  0
  4  3  1  0  0  0  0
  5  4  2  0  0  0  0
  5  6  1  0  0  0  0
  6  7  2  0  0  0  0
  7  2  1  0  0  0  0
  7 34  1  0  0  0  0
  8  5  1  0  0  0  0
  9 19  1  6  0  0  0
  9  8  1  0  0  0  0
  9 20  1  0  0  0  0
 10  9  1  0  0  0  0
 11 16  1  0  0  0  0
 11 10  2  0  0  0  0
 12 11  1  0  0  0  0
 13 12  2  0  0  0  0
 13 14  1  0  0  0  0
 14 15  2  0  0  0  0
 15 10  1  0  0  0  0
 15 38  1  0  0  0  0
 16 17  1  0  0  0  0
 17 18  2  0  0  0  0
 17  8  1  0  0  0  0
 19 40  1  0  0  0  0
 20 22  1  0  0  0  0
 20 21  2  0  0  0  0
 22 41  1  0  0  0  0
 23 42  1  0  0  0  0
 23 22  1  0  0  0  0
 24 44  1  0  0  0  0
 24 23  1  0  0  0  0
 25 24  1  0  0  0  0
 26 25  1  0  0  0  0
 26 46  1  0  0  0  0
 27 28  1  0  0  0  0
 27 26  1  0  0  0  0
 29 28  1  0  0  0  0
 29 30  1  0  0  0  0
 29 51  1  0  0  0  0
 30 52  1  0  0  0  0
 30 25  1  0  0  0  0
 32  4  1  0  0  0  0
 33  6  1  0  0  0  0
 35 12  1  0  0  0  0
 36 13  1  0  0  0  0
 37 14  1  0  0  0  0
 39 16  1  0  0  0  0
 43 23  1  0  0  0  0
 45 24  1  0  0  0  0
 47 26  1  0  0  0  0
 48 27  1  0  0  0  0
 49 27  1  0  0  0  0
 50 29  1  0  0  0  0
 53 30  1  0  0  0  0
M  END
>  <Pose>
1

>  <Score>
-5.50

$$$$
