
 OpenBabel03202210193D

 55 59  0  0  1  0  0  0  0  0999 V2000
   28.2770   70.0460    0.2820 B   0  0  0  0  0  0  0  0  0  0  0  0
   26.9320   70.0560   -1.0680 C   0  0  0  0  0  0  0  0  0  0  0  0
   25.7640   70.7910   -1.1320 C   0  0  0  0  0  0  0  0  0  0  0  0
   25.0970   70.4850   -2.2740 N   0  0  0  0  0  0  0  0  0  0  0  0
   25.8100   69.5930   -2.9070 N   0  0  0  0  0  0  0  0  0  0  0  0
   26.9350   69.2880   -2.2350 C   0  0  0  0  0  0  0  0  0  0  0  0
   23.8370   71.0170   -2.7380 C   0  0  0  0  0  0  0  0  0  0  0  0
   23.9560   71.7100   -4.0760 C   0  0  2  0  0  0  0  0  0  0  0  0
   22.8290   72.6570   -4.3110 C   0  0  0  0  0  0  0  0  0  0  0  0
   24.0710   70.6820   -5.1510 C   0  0  0  0  0  0  0  0  0  0  0  0
   24.9830   70.8510   -5.9980 O   0  0  0  0  0  0  0  0  0  0  0  0
   23.2000   69.5690   -5.2260 N   0  0  0  0  0  0  0  0  0  0  0  0
   23.1950   68.6430   -6.2450 N   0  0  0  0  0  0  0  0  0  0  0  0
   22.1000   67.7910   -6.4540 C   0  0  0  0  0  0  0  0  0  0  0  0
   20.9350   68.2910   -6.4250 O   0  0  0  0  0  0  0  0  0  0  0  0
   22.2100   66.3360   -6.7090 C   0  0  1  0  0  0  0  0  0  0  0  0
   23.3530   65.7380   -5.9140 C   0  0  0  0  0  0  0  0  0  0  0  0
   23.4770   64.2650   -6.1780 C   0  0  1  0  0  0  0  0  0  0  0  0
   22.1840   63.6110   -5.6860 C   0  0  0  0  0  0  0  0  0  0  0  0
   21.0200   64.1800   -6.4320 C   0  0  1  0  0  0  0  0  0  0  0  0
   20.9370   65.6750   -6.2280 C   0  0  0  0  0  0  0  0  0  0  0  0
   21.1850   63.8840   -7.9050 C   0  0  0  0  0  0  0  0  0  0  0  0
   22.4630   64.5430   -8.3700 C   0  0  2  0  0  0  0  0  0  0  0  0
   23.6300   63.9400   -7.6310 C   0  0  0  0  0  0  0  0  0  0  0  0
   22.3810   66.0340   -8.1820 C   0  0  0  0  0  0  0  0  0  0  0  0
   24.5860   63.7760   -5.3820 N   0  0  1  0  0  0  0  0  0  0  0  0
   25.7450   63.2680   -5.7610 N   0  0  0  0  0  0  0  0  0  0  0  0
   26.4880   62.9390   -4.7470 N   0  0  0  0  0  0  0  0  0  0  0  0
   25.8200   63.2290   -3.6440 C   0  0  0  0  0  0  0  0  0  0  0  0
   24.6270   63.7550   -4.0390 N   0  0  0  0  0  0  0  0  0  0  0  0
   25.4310   71.4950   -0.3990 H   0  0  0  0  0  0  0  0  0  0  0  0
   27.7260   68.5960   -2.4860 H   0  0  0  0  0  0  0  0  0  0  0  0
   23.4910   71.7680   -2.0080 H   0  0  0  0  0  0  0  0  0  0  0  0
   23.0500   70.2360   -2.8110 H   0  0  0  0  0  0  0  0  0  0  0  0
   24.9050   72.2880   -4.0930 H   0  0  0  0  0  0  0  0  0  0  0  0
   22.7700   73.3200   -3.4020 H   0  0  0  0  0  0  0  0  0  0  0  0
   23.0760   73.3550   -5.1430 H   0  0  0  0  0  0  0  0  0  0  0  0
   21.8490   72.1780   -4.4100 H   0  0  0  0  0  0  0  0  0  0  0  0
   22.5100   69.4510   -4.4320 H   0  0  0  0  0  0  0  0  0  0  0  0
   24.0260   68.5740   -6.8810 H   0  0  0  0  0  0  0  0  0  0  0  0
   24.3090   66.2830   -6.1290 H   0  0  0  0  0  0  0  0  0  0  0  0
   23.0640   65.8370   -4.8350 H   0  0  0  0  0  0  0  0  0  0  0  0
   22.2170   62.5230   -5.7930 H   0  0  0  0  0  0  0  0  0  0  0  0
   22.0890   63.9370   -4.6200 H   0  0  0  0  0  0  0  0  0  0  0  0
   20.0820   63.7420   -6.0560 H   0  0  0  0  0  0  0  0  0  0  0  0
   20.0350   66.0630   -6.7470 H   0  0  0  0  0  0  0  0  0  0  0  0
   20.8660   65.8580   -5.1310 H   0  0  0  0  0  0  0  0  0  0  0  0
   21.2970   62.7740   -8.0000 H   0  0  0  0  0  0  0  0  0  0  0  0
   20.3050   64.2570   -8.4380 H   0  0  0  0  0  0  0  0  0  0  0  0
   22.5380   64.3370   -9.4770 H   0  0  0  0  0  0  0  0  0  0  0  0
   24.5790   64.3140   -8.0480 H   0  0  0  0  0  0  0  0  0  0  0  0
   23.5560   62.8350   -7.7260 H   0  0  0  0  0  0  0  0  0  0  0  0
   21.5020   66.4250   -8.6990 H   0  0  0  0  0  0  0  0  0  0  0  0
   23.3360   66.4710   -8.5250 H   0  0  0  0  0  0  0  0  0  0  0  0
   26.1710   63.0720   -2.6360 H   0  0  0  0  0  0  0  0  0  0  0  0
  2  1  1  0  0  0  0
  3  2  2  0  0  0  0
  3 31  1  0  0  0  0
  4  3  1  0  0  0  0
  5  4  1  0  0  0  0
  5  6  2  0  0  0  0
  6  2  1  0  0  0  0
  7  4  1  0  0  0  0
  7 33  1  0  0  0  0
  8 35  1  1  0  0  0
  8  7  1  0  0  0  0
  9  8  1  0  0  0  0
  9 36  1  0  0  0  0
 10  8  1  0  0  0  0
 11 10  2  0  0  0  0
 12 10  1  0  0  0  0
 12 39  1  0  0  0  0
 13 12  1  0  0  0  0
 14 15  2  0  0  0  0
 14 13  1  0  0  0  0
 16 14  1  1  0  0  0
 16 21  1  0  0  0  0
 16 17  1  0  0  0  0
 17 42  1  0  0  0  0
 18 24  1  6  0  0  0
 18 17  1  0  0  0  0
 18 19  1  0  0  0  0
 18 26  1  0  0  0  0
 19 44  1  0  0  0  0
 20 21  1  0  0  0  0
 20 45  1  1  0  0  0
 20 19  1  0  0  0  0
 21 47  1  0  0  0  0
 22 20  1  0  0  0  0
 23 50  1  6  0  0  0
 23 25  1  0  0  0  0
 23 22  1  0  0  0  0
 23 24  1  0  0  0  0
 25 16  1  0  0  0  0
 26 27  1  1  0  0  0
 26 30  1  0  0  0  0
 27 28  1  0  0  0  0
 28 29  2  0  0  0  0
 29 55  1  0  0  0  0
 30 29  1  0  0  0  0
 32  6  1  0  0  0  0
 34  7  1  0  0  0  0
 37  9  1  0  0  0  0
 38  9  1  0  0  0  0
 40 13  1  0  0  0  0
 41 17  1  0  0  0  0
 43 19  1  0  0  0  0
 46 21  1  0  0  0  0
 48 22  1  0  0  0  0
 49 22  1  0  0  0  0
 51 24  1  0  0  0  0
 52 24  1  0  0  0  0
 53 25  1  0  0  0  0
 54 25  1  0  0  0  0
M  END
>  <Pose>
1

>  <Score>
-6.76

$$$$
