
 OpenBabel03202210193D

 58 61  0  0  1  0  0  0  0  0999 V2000
   24.3120   70.9100   -5.0630 Cl  0  0  0  0  0  0  0  0  0  0  0  0
   23.9170   69.2950   -5.7000 C   0  0  0  0  0  0  0  0  0  0  0  0
   22.6410   69.0050   -6.1260 C   0  0  0  0  0  0  0  0  0  0  0  0
   22.3410   67.7240   -6.6110 C   0  0  0  0  0  0  0  0  0  0  0  0
   23.3000   66.7250   -6.6810 C   0  0  0  0  0  0  0  0  0  0  0  0
   24.5510   67.0380   -6.2570 C   0  0  0  0  0  0  0  0  0  0  0  0
   24.8740   68.2980   -5.7690 C   0  0  0  0  0  0  0  0  0  0  0  0
   22.8410   65.4100   -7.1820 C   0  0  1  0  0  0  0  0  0  0  0  0
   21.8960   64.7210   -6.2890 C   0  0  0  0  0  0  0  0  0  0  0  0
   20.8090   63.8960   -6.9300 C   0  0  0  0  0  0  0  0  0  0  0  0
   20.9070   63.7330   -8.3440 N   0  0  0  0  0  0  0  0  0  0  0  0
   21.1890   64.9840   -9.0740 C   0  0  0  0  0  0  0  0  0  0  0  0
   22.3670   65.6730   -8.5900 C   0  0  0  0  0  0  0  0  0  0  0  0
   20.4990   62.6040   -9.0940 C   0  0  0  0  0  0  0  0  0  0  0  0
   20.8870   62.4330  -10.2470 O   0  0  0  0  0  0  0  0  0  0  0  0
   19.5670   61.5720   -8.4760 C   0  0  1  0  0  0  0  0  0  0  0  0
   19.2570   60.5550   -9.4530 N   0  0  0  0  0  0  0  0  0  0  0  0
   17.9950   60.0030   -9.6650 C   0  0  0  0  0  0  0  0  0  0  0  0
   17.9620   58.7260   -9.1400 O   0  0  0  0  0  0  0  0  0  0  0  0
   16.7670   60.3450  -10.2090 C   0  0  0  0  0  0  0  0  0  0  0  0
   15.9450   61.2530  -10.6430 C   0  0  0  0  0  0  0  0  0  0  0  0
   14.6360   60.8410  -11.1670 N   0  0  0  0  0  0  0  0  0  0  0  0
   13.6620   61.7360  -11.5640 N   0  0  0  0  0  0  0  0  0  0  0  0
   13.8500   63.1080  -11.4970 C   0  0  0  0  0  0  0  0  0  0  0  0
   12.9950   63.9580  -11.8520 O   0  0  0  0  0  0  0  0  0  0  0  0
   15.1410   63.6210  -10.9800 C   0  0  0  0  0  0  0  0  0  0  0  0
   16.0810   62.6960  -10.5940 C   0  0  0  0  0  0  0  0  0  0  0  0
   17.2420   63.2260  -10.0190 C   0  0  0  0  0  0  0  0  0  0  0  0
   17.4130   64.5950   -9.8740 C   0  0  0  0  0  0  0  0  0  0  0  0
   16.4510   65.4810  -10.2830 C   0  0  0  0  0  0  0  0  0  0  0  0
   15.2960   64.9790  -10.8430 C   0  0  0  0  0  0  0  0  0  0  0  0
   19.7080   61.2810   -7.0790 C   0  0  0  0  0  0  0  0  0  0  0  0
   24.0010   64.5840   -7.2750 O   0  0  0  0  0  0  0  0  0  0  0  0
   21.8800   69.7840   -6.0820 H   0  0  0  0  0  0  0  0  0  0  0  0
   21.3290   67.5490   -6.9460 H   0  0  0  0  0  0  0  0  0  0  0  0
   25.3660   66.3240   -6.2840 H   0  0  0  0  0  0  0  0  0  0  0  0
   25.8560   68.5550   -5.4270 H   0  0  0  0  0  0  0  0  0  0  0  0
   21.3950   65.3860   -5.5360 H   0  0  0  0  0  0  0  0  0  0  0  0
   22.4950   63.9930   -5.6520 H   0  0  0  0  0  0  0  0  0  0  0  0
   19.8270   64.4930   -6.7980 H   0  0  0  0  0  0  0  0  0  0  0  0
   20.5670   62.9620   -6.3880 H   0  0  0  0  0  0  0  0  0  0  0  0
   20.2650   65.6290   -8.7600 H   0  0  0  0  0  0  0  0  0  0  0  0
   21.1310   64.8770  -10.1500 H   0  0  0  0  0  0  0  0  0  0  0  0
   23.2200   65.5290   -9.2830 H   0  0  0  0  0  0  0  0  0  0  0  0
   22.1580   66.8000   -8.7110 H   0  0  0  0  0  0  0  0  0  0  0  0
   18.5440   62.2050   -8.5380 H   0  0  0  0  0  0  0  0  0  0  0  0
   20.1520   60.2330   -9.9550 H   0  0  0  0  0  0  0  0  0  0  0  0
   16.1500   59.3110  -10.3630 H   0  0  0  0  0  0  0  0  0  0  0  0
   14.4760   59.7980  -11.2230 H   0  0  0  0  0  0  0  0  0  0  0  0
   12.7420   61.3680  -11.9320 H   0  0  0  0  0  0  0  0  0  0  0  0
   17.9610   62.5720   -9.6560 H   0  0  0  0  0  0  0  0  0  0  0  0
   18.3450   64.9800   -9.4250 H   0  0  0  0  0  0  0  0  0  0  0  0
   16.6410   66.5300  -10.1360 H   0  0  0  0  0  0  0  0  0  0  0  0
   14.5040   65.6340  -11.1790 H   0  0  0  0  0  0  0  0  0  0  0  0
   19.9670   60.2320   -6.8060 H   0  0  0  0  0  0  0  0  0  0  0  0
   18.7510   61.4710   -6.4780 H   0  0  0  0  0  0  0  0  0  0  0  0
   20.4210   61.9870   -6.5620 H   0  0  0  0  0  0  0  0  0  0  0  0
   24.6100   64.7420   -6.5340 H   0  0  0  0  0  0  0  0  0  0  0  0
  2  1  1  0  0  0  0
  3 34  1  0  0  0  0
  3  2  2  0  0  0  0
  4  3  1  0  0  0  0
  5  4  2  0  0  0  0
  5  6  1  0  0  0  0
  6  7  2  0  0  0  0
  7  2  1  0  0  0  0
  7 37  1  0  0  0  0
  8 33  1  6  0  0  0
  8  5  1  0  0  0  0
  8  9  1  0  0  0  0
  9 39  1  0  0  0  0
  9 38  1  0  0  0  0
 10 40  1  0  0  0  0
 10 41  1  0  0  0  0
 10  9  1  0  0  0  0
 11 10  1  0  0  0  0
 12 42  1  0  0  0  0
 12 13  1  0  0  0  0
 12 11  1  0  0  0  0
 13  8  1  0  0  0  0
 14 16  1  0  0  0  0
 14 11  1  0  0  0  0
 15 14  2  0  0  0  0
 16 46  1  1  0  0  0
 16 32  1  0  0  0  0
 17 16  1  0  0  0  0
 18 17  1  0  0  0  0
 18 19  2  0  0  0  0
 20 18  1  0  0  0  0
 21 27  1  0  0  0  0
 21 20  2  0  0  0  0
 22 21  1  0  0  0  0
 23 24  1  0  0  0  0
 23 22  1  0  0  0  0
 24 26  1  0  0  0  0
 25 24  2  0  0  0  0
 26 31  2  0  0  0  0
 26 27  1  0  0  0  0
 27 28  2  0  0  0  0
 28 29  1  0  0  0  0
 28 51  1  0  0  0  0
 29 52  1  0  0  0  0
 30 53  1  0  0  0  0
 30 29  2  0  0  0  0
 31 30  1  0  0  0  0
 32 55  1  0  0  0  0
 32 57  1  0  0  0  0
 32 56  1  0  0  0  0
 33 58  1  0  0  0  0
 35  4  1  0  0  0  0
 36  6  1  0  0  0  0
 43 12  1  0  0  0  0
 44 13  1  0  0  0  0
 45 13  1  0  0  0  0
 47 17  1  0  0  0  0
 48 20  1  0  0  0  0
 49 22  1  0  0  0  0
 50 23  1  0  0  0  0
 54 31  1  0  0  0  0
M  END
>  <Pose>
1

>  <Score>
-6.19

$$$$
