
 OpenBabel03202210193D

 58 61  0  0  0  0  0  0  0  0999 V2000
   22.2090   66.8350   -8.9910 Cl  0  0  0  0  0  0  0  0  0  0  0  0
   22.4550   65.2060   -8.4150 C   0  0  0  0  0  0  0  0  0  0  0  0
   21.9420   64.1690   -9.1650 C   0  0  0  0  0  0  0  0  0  0  0  0
   22.2010   62.8960   -8.6390 C   0  0  0  0  0  0  0  0  0  0  0  0
   22.8960   62.7340   -7.4980 N   0  0  0  0  0  0  0  0  0  0  0  0
   23.3890   63.7190   -6.7770 N   0  0  0  0  0  0  0  0  0  0  0  0
   23.1660   64.9550   -7.2390 C   0  0  0  0  0  0  0  0  0  0  0  0
   23.6040   65.9510   -6.6090 O   0  0  0  0  0  0  0  0  0  0  0  0
   24.1140   63.4570   -5.5790 C   0  0  0  0  0  0  0  0  0  0  0  0
   25.4570   63.1140   -5.5900 C   0  0  0  0  0  0  0  0  0  0  0  0
   26.1740   62.8570   -4.4390 C   0  0  0  0  0  0  0  0  0  0  0  0
   25.5170   62.9480   -3.2290 C   0  0  0  0  0  0  0  0  0  0  0  0
   24.1770   63.2870   -3.1810 C   0  0  0  0  0  0  0  0  0  0  0  0
   23.4780   63.5410   -4.3670 C   0  0  0  0  0  0  0  0  0  0  0  0
   21.1880   64.3520  -10.3390 N   0  0  0  0  0  0  0  0  0  0  0  0
   20.9800   63.2360  -11.2570 C   0  0  0  0  0  0  0  0  0  0  0  0
   19.5120   62.9440  -11.4720 C   0  0  0  0  0  0  0  0  0  0  0  0
   18.7630   64.1040  -11.0550 N   0  0  0  0  0  0  0  0  0  0  0  0
   19.2930   65.3860  -11.4850 C   0  0  0  0  0  0  0  0  0  0  0  0
   20.5560   65.6390  -10.6630 C   0  0  0  0  0  0  0  0  0  0  0  0
   17.5860   64.0530  -10.2810 C   0  0  0  0  0  0  0  0  0  0  0  0
   17.2180   65.0780   -9.6660 O   0  0  0  0  0  0  0  0  0  0  0  0
   16.7480   62.8370  -10.1510 C   0  0  0  0  0  0  0  0  0  0  0  0
   15.3490   63.0920  -10.6620 C   0  0  0  0  0  0  0  0  0  0  0  0
   15.3230   64.0690  -11.8000 C   0  0  0  0  0  0  0  0  0  0  0  0
   14.1760   63.9260  -12.6700 N   0  0  0  0  0  0  0  0  0  0  0  0
   13.5480   62.7100  -13.0320 C   0  0  0  0  0  0  0  0  0  0  0  0
   13.8880   61.5380  -12.6540 O   0  0  0  0  0  0  0  0  0  0  0  0
   12.4530   62.9330  -13.8940 N   0  0  0  0  0  0  0  0  0  0  0  0
   12.3480   64.3550  -14.1320 C   0  0  0  0  0  0  0  0  0  0  0  0
   13.4410   64.9580  -13.3370 C   0  0  0  0  0  0  0  0  0  0  0  0
   13.6930   66.1780  -13.2530 O   0  0  0  0  0  0  0  0  0  0  0  0
   11.5770   61.9240  -14.4520 C   0  0  0  0  0  0  0  0  0  0  0  0
   21.8050   62.0670   -9.1950 H   0  0  0  0  0  0  0  0  0  0  0  0
   25.9570   63.0470   -6.5470 H   0  0  0  0  0  0  0  0  0  0  0  0
   27.2390   62.5870   -4.4700 H   0  0  0  0  0  0  0  0  0  0  0  0
   26.0860   62.7450   -2.3320 H   0  0  0  0  0  0  0  0  0  0  0  0
   23.7010   63.3480   -2.2180 H   0  0  0  0  0  0  0  0  0  0  0  0
   22.4300   63.8080   -4.3440 H   0  0  0  0  0  0  0  0  0  0  0  0
   21.4290   63.6090  -12.2360 H   0  0  0  0  0  0  0  0  0  0  0  0
   21.4450   62.2940  -10.9560 H   0  0  0  0  0  0  0  0  0  0  0  0
   19.1860   62.0510  -10.9030 H   0  0  0  0  0  0  0  0  0  0  0  0
   19.3570   62.7290  -12.5680 H   0  0  0  0  0  0  0  0  0  0  0  0
   19.5900   65.3020  -12.5500 H   0  0  0  0  0  0  0  0  0  0  0  0
   18.5630   66.2100  -11.3840 H   0  0  0  0  0  0  0  0  0  0  0  0
   20.1750   66.0520   -9.7200 H   0  0  0  0  0  0  0  0  0  0  0  0
   21.2450   66.2180  -11.2490 H   0  0  0  0  0  0  0  0  0  0  0  0
   17.1780   61.9870  -10.7190 H   0  0  0  0  0  0  0  0  0  0  0  0
   16.7050   62.4930   -9.0890 H   0  0  0  0  0  0  0  0  0  0  0  0
   14.7130   63.5040   -9.8580 H   0  0  0  0  0  0  0  0  0  0  0  0
   14.8740   62.1330  -10.9840 H   0  0  0  0  0  0  0  0  0  0  0  0
   16.2470   63.9630  -12.4280 H   0  0  0  0  0  0  0  0  0  0  0  0
   15.3230   65.1240  -11.4590 H   0  0  0  0  0  0  0  0  0  0  0  0
   11.3530   64.7520  -13.7950 H   0  0  0  0  0  0  0  0  0  0  0  0
   12.4280   64.6190  -15.2040 H   0  0  0  0  0  0  0  0  0  0  0  0
   10.8320   61.6420  -13.6710 H   0  0  0  0  0  0  0  0  0  0  0  0
   12.1770   60.9850  -14.6220 H   0  0  0  0  0  0  0  0  0  0  0  0
   11.0990   62.2840  -15.3730 H   0  0  0  0  0  0  0  0  0  0  0  0
  1  2  1  0  0  0  0
  2  7  1  0  0  0  0
  3  4  1  0  0  0  0
  3  2  2  0  0  0  0
  4  5  2  0  0  0  0
  5  6  1  0  0  0  0
  6  9  1  0  0  0  0
  7  6  1  0  0  0  0
  7  8  2  0  0  0  0
  9 14  1  0  0  0  0
 10  9  2  0  0  0  0
 10 11  1  0  0  0  0
 11 12  2  0  0  0  0
 12 13  1  0  0  0  0
 12 37  1  0  0  0  0
 13 38  1  0  0  0  0
 14 39  1  0  0  0  0
 14 13  2  0  0  0  0
 15  3  1  0  0  0  0
 16 41  1  0  0  0  0
 16 15  1  0  0  0  0
 17 16  1  0  0  0  0
 17 18  1  0  0  0  0
 17 42  1  0  0  0  0
 18 21  1  0  0  0  0
 19 45  1  0  0  0  0
 19 18  1  0  0  0  0
 19 20  1  0  0  0  0
 20 15  1  0  0  0  0
 20 46  1  0  0  0  0
 21 23  1  0  0  0  0
 21 22  2  0  0  0  0
 23 49  1  0  0  0  0
 24 23  1  0  0  0  0
 24 50  1  0  0  0  0
 25 53  1  0  0  0  0
 25 24  1  0  0  0  0
 26 25  1  0  0  0  0
 27 26  1  0  0  0  0
 27 28  2  0  0  0  0
 29 27  1  0  0  0  0
 30 29  1  0  0  0  0
 30 54  1  0  0  0  0
 30 31  1  0  0  0  0
 31 32  2  0  0  0  0
 31 26  1  0  0  0  0
 33 29  1  0  0  0  0
 33 56  1  0  0  0  0
 34  4  1  0  0  0  0
 35 10  1  0  0  0  0
 36 11  1  0  0  0  0
 40 16  1  0  0  0  0
 43 17  1  0  0  0  0
 44 19  1  0  0  0  0
 47 20  1  0  0  0  0
 48 23  1  0  0  0  0
 51 24  1  0  0  0  0
 52 25  1  0  0  0  0
 55 30  1  0  0  0  0
 57 33  1  0  0  0  0
 58 33  1  0  0  0  0
M  END
>  <Pose>
1

>  <Score>
-6.57

$$$$
