
 OpenBabel03202210193D

 48 51  0  0  1  0  0  0  0  0999 V2000
   22.6120   63.1090  -10.1320 Cl  0  0  0  0  0  0  0  0  0  0  0  0
   22.3520   63.5090   -8.4370 C   0  0  0  0  0  0  0  0  0  0  0  0
   21.1870   64.1590   -8.1050 C   0  0  0  0  0  0  0  0  0  0  0  0
   21.0140   64.4600   -6.7640 C   0  0  0  0  0  0  0  0  0  0  0  0
   21.9560   64.1190   -5.8680 N   0  0  0  0  0  0  0  0  0  0  0  0
   23.0810   63.4940   -6.1740 N   0  0  0  0  0  0  0  0  0  0  0  0
   23.2820   63.1870   -7.4680 C   0  0  0  0  0  0  0  0  0  0  0  0
   24.3330   62.5890   -7.8350 O   0  0  0  0  0  0  0  0  0  0  0  0
   24.0510   63.1560   -5.1710 C   0  0  0  0  0  0  0  0  0  0  0  0
   23.6430   62.8240   -3.8950 C   0  0  0  0  0  0  0  0  0  0  0  0
   24.5760   62.4930   -2.9080 C   0  0  0  0  0  0  0  0  0  0  0  0
   25.9170   62.4930   -3.1950 C   0  0  0  0  0  0  0  0  0  0  0  0
   26.3370   62.8210   -4.4580 C   0  0  0  0  0  0  0  0  0  0  0  0
   25.4080   63.1440   -5.4180 C   0  0  0  0  0  0  0  0  0  0  0  0
   20.2500   64.4800   -9.1100 N   0  0  0  0  0  0  0  0  0  0  0  0
   19.2410   65.5150   -8.9150 C   0  0  0  0  0  0  0  0  0  0  0  0
   17.9000   64.7560   -8.8760 C   0  0  0  0  0  0  0  0  0  0  0  0
   17.7690   63.9190  -10.0270 N   0  0  0  0  0  0  0  0  0  0  0  0
   18.8370   64.0060  -11.0460 C   0  0  0  0  0  0  0  0  0  0  0  0
   20.2000   63.8300  -10.4070 C   0  0  0  0  0  0  0  0  0  0  0  0
   16.6820   63.0290  -10.2340 C   0  0  0  0  0  0  0  0  0  0  0  0
   16.8420   61.7720  -10.2010 O   0  0  0  0  0  0  0  0  0  0  0  0
   15.3090   63.4940  -10.4970 C   0  0  1  0  0  0  0  0  0  0  0  0
   15.2820   64.3910  -11.5200 O   0  0  0  0  0  0  0  0  0  0  0  0
   14.0720   64.2550  -12.1890 C   0  0  0  0  0  0  0  0  0  0  0  0
   13.9380   62.7400  -12.2490 C   0  0  0  0  0  0  0  0  0  0  0  0
   14.3770   62.3570  -10.8510 C   0  0  0  0  0  0  0  0  0  0  0  0
   20.0990   64.9720   -6.4920 H   0  0  0  0  0  0  0  0  0  0  0  0
   22.6090   62.8020   -3.5990 H   0  0  0  0  0  0  0  0  0  0  0  0
   24.2790   62.2280   -1.8990 H   0  0  0  0  0  0  0  0  0  0  0  0
   26.6600   62.2400   -2.4500 H   0  0  0  0  0  0  0  0  0  0  0  0
   27.3740   62.8350   -4.7280 H   0  0  0  0  0  0  0  0  0  0  0  0
   25.7400   63.4010   -6.4040 H   0  0  0  0  0  0  0  0  0  0  0  0
   19.2310   66.1790   -9.7940 H   0  0  0  0  0  0  0  0  0  0  0  0
   19.3310   66.0260   -7.9610 H   0  0  0  0  0  0  0  0  0  0  0  0
   17.9930   64.1120   -7.9720 H   0  0  0  0  0  0  0  0  0  0  0  0
   17.0860   65.4950   -8.7350 H   0  0  0  0  0  0  0  0  0  0  0  0
   18.7870   65.0420  -11.4340 H   0  0  0  0  0  0  0  0  0  0  0  0
   18.6510   63.2900  -11.8440 H   0  0  0  0  0  0  0  0  0  0  0  0
   20.9630   64.2710  -11.0890 H   0  0  0  0  0  0  0  0  0  0  0  0
   20.4240   62.7480  -10.3420 H   0  0  0  0  0  0  0  0  0  0  0  0
   14.9400   63.9090   -9.5300 H   0  0  0  0  0  0  0  0  0  0  0  0
   13.2290   64.7150  -11.6400 H   0  0  0  0  0  0  0  0  0  0  0  0
   14.1160   64.6610  -13.2070 H   0  0  0  0  0  0  0  0  0  0  0  0
   14.6710   62.3380  -12.9610 H   0  0  0  0  0  0  0  0  0  0  0  0
   12.8950   62.4400  -12.4520 H   0  0  0  0  0  0  0  0  0  0  0  0
   14.8720   61.3680  -10.8260 H   0  0  0  0  0  0  0  0  0  0  0  0
   13.4620   62.3810  -10.2250 H   0  0  0  0  0  0  0  0  0  0  0  0
  1  2  1  0  0  0  0
  2  3  2  0  0  0  0
  2  7  1  0  0  0  0
  3  4  1  0  0  0  0
  4 28  1  0  0  0  0
  4  5  2  0  0  0  0
  6  5  1  0  0  0  0
  6  9  1  0  0  0  0
  7  6  1  0  0  0  0
  8  7  2  0  0  0  0
  9 10  1  0  0  0  0
 10 29  1  0  0  0  0
 10 11  2  0  0  0  0
 11 30  1  0  0  0  0
 12 11  1  0  0  0  0
 12 31  1  0  0  0  0
 13 12  2  0  0  0  0
 14  9  2  0  0  0  0
 14 13  1  0  0  0  0
 15 16  1  0  0  0  0
 15  3  1  0  0  0  0
 16 17  1  0  0  0  0
 16 35  1  0  0  0  0
 17 37  1  0  0  0  0
 17 36  1  0  0  0  0
 18 17  1  0  0  0  0
 19 20  1  0  0  0  0
 19 18  1  0  0  0  0
 20 41  1  0  0  0  0
 20 15  1  0  0  0  0
 21 22  2  0  0  0  0
 21 18  1  0  0  0  0
 23 21  1  0  0  0  0
 23 42  1  1  0  0  0
 24 23  1  0  0  0  0
 25 43  1  0  0  0  0
 25 24  1  0  0  0  0
 26 25  1  0  0  0  0
 26 27  1  0  0  0  0
 27 47  1  0  0  0  0
 27 23  1  0  0  0  0
 27 48  1  0  0  0  0
 32 13  1  0  0  0  0
 33 14  1  0  0  0  0
 34 16  1  0  0  0  0
 38 19  1  0  0  0  0
 39 19  1  0  0  0  0
 40 20  1  0  0  0  0
 44 25  1  0  0  0  0
 45 26  1  0  0  0  0
 46 26  1  0  0  0  0
M  END
>  <Pose>
1

>  <Score>
-5.28

$$$$
