
 OpenBabel03202210193D

 50 53  0  0  0  0  0  0  0  0999 V2000
   16.8630   60.8390  -10.1000 Cl  0  0  0  0  0  0  0  0  0  0  0  0
   16.4790   62.5100  -10.4450 C   0  0  0  0  0  0  0  0  0  0  0  0
   17.3380   63.4990  -10.0100 C   0  0  0  0  0  0  0  0  0  0  0  0
   16.9740   64.7980  -10.3140 C   0  0  0  0  0  0  0  0  0  0  0  0
   15.8470   65.0830  -10.9940 N   0  0  0  0  0  0  0  0  0  0  0  0
   15.0130   64.1480  -11.4180 N   0  0  0  0  0  0  0  0  0  0  0  0
   15.3360   62.8720  -11.1410 C   0  0  0  0  0  0  0  0  0  0  0  0
   14.5540   61.9830  -11.5390 O   0  0  0  0  0  0  0  0  0  0  0  0
   13.8180   64.4600  -12.1410 C   0  0  0  0  0  0  0  0  0  0  0  0
   13.8800   64.9670  -13.4230 C   0  0  0  0  0  0  0  0  0  0  0  0
   12.7320   65.2710  -14.1280 C   0  0  0  0  0  0  0  0  0  0  0  0
   11.4760   65.0840  -13.5880 C   0  0  0  0  0  0  0  0  0  0  0  0
   11.4090   64.5760  -12.3080 C   0  0  0  0  0  0  0  0  0  0  0  0
   12.5560   64.2750  -11.6100 C   0  0  0  0  0  0  0  0  0  0  0  0
   18.5360   63.2080   -9.2880 N   0  0  0  0  0  0  0  0  0  0  0  0
   18.4260   62.5380   -8.0230 C   0  0  0  0  0  0  0  0  0  0  0  0
   19.4310   63.0700   -7.0250 C   0  0  0  0  0  0  0  0  0  0  0  0
   20.6650   63.4610   -7.6580 N   0  0  0  0  0  0  0  0  0  0  0  0
   20.9080   63.0460   -9.0190 C   0  0  0  0  0  0  0  0  0  0  0  0
   19.8010   63.6080   -9.8740 C   0  0  0  0  0  0  0  0  0  0  0  0
   21.6150   64.2400   -6.9500 C   0  0  0  0  0  0  0  0  0  0  0  0
   21.3350   65.4080   -6.5300 O   0  0  0  0  0  0  0  0  0  0  0  0
   22.9870   63.7470   -6.6550 C   0  0  0  0  0  0  0  0  0  0  0  0
   23.5910   64.4680   -5.6150 O   0  0  0  0  0  0  0  0  0  0  0  0
   24.3150   63.8160   -4.6360 C   0  0  0  0  0  0  0  0  0  0  0  0
   24.7210   64.2500   -3.4380 N   0  0  0  0  0  0  0  0  0  0  0  0
   25.3780   63.3220   -2.8230 O   0  0  0  0  0  0  0  0  0  0  0  0
   25.4550   62.2260   -3.5490 C   0  0  0  0  0  0  0  0  0  0  0  0
   24.7820   62.5110   -4.7190 C   0  0  0  0  0  0  0  0  0  0  0  0
   26.1440   60.9990   -3.1080 C   0  0  0  0  0  0  0  0  0  0  0  0
   17.6510   65.5950   -9.9710 H   0  0  0  0  0  0  0  0  0  0  0  0
   14.8510   65.1250  -13.8720 H   0  0  0  0  0  0  0  0  0  0  0  0
   12.7790   65.6690  -15.1320 H   0  0  0  0  0  0  0  0  0  0  0  0
   10.5800   65.3250  -14.1530 H   0  0  0  0  0  0  0  0  0  0  0  0
   10.4090   64.4380  -11.9060 H   0  0  0  0  0  0  0  0  0  0  0  0
   12.4580   63.8820  -10.6130 H   0  0  0  0  0  0  0  0  0  0  0  0
   17.4200   62.6510   -7.5780 H   0  0  0  0  0  0  0  0  0  0  0  0
   18.5710   61.4460   -8.2170 H   0  0  0  0  0  0  0  0  0  0  0  0
   18.9850   63.8480   -6.4020 H   0  0  0  0  0  0  0  0  0  0  0  0
   19.6820   62.2200   -6.3360 H   0  0  0  0  0  0  0  0  0  0  0  0
   20.7830   61.9290   -9.0450 H   0  0  0  0  0  0  0  0  0  0  0  0
   21.9130   63.3210   -9.3800 H   0  0  0  0  0  0  0  0  0  0  0  0
   19.8700   64.7160   -9.9550 H   0  0  0  0  0  0  0  0  0  0  0  0
   19.8970   63.1310  -10.8920 H   0  0  0  0  0  0  0  0  0  0  0  0
   23.6240   63.7250   -7.5600 H   0  0  0  0  0  0  0  0  0  0  0  0
   22.9250   62.6760   -6.3020 H   0  0  0  0  0  0  0  0  0  0  0  0
   24.6610   61.8160   -5.5340 H   0  0  0  0  0  0  0  0  0  0  0  0
   26.2950   60.2790   -3.9300 H   0  0  0  0  0  0  0  0  0  0  0  0
   25.5630   60.4710   -2.2950 H   0  0  0  0  0  0  0  0  0  0  0  0
   27.1360   61.2820   -2.6480 H   0  0  0  0  0  0  0  0  0  0  0  0
  2  1  1  0  0  0  0
  2  3  2  0  0  0  0
  3 15  1  0  0  0  0
  4  3  1  0  0  0  0
  4 31  1  0  0  0  0
  5  4  2  0  0  0  0
  6  7  1  0  0  0  0
  6  5  1  0  0  0  0
  7  2  1  0  0  0  0
  8  7  2  0  0  0  0
  9 14  1  0  0  0  0
  9  6  1  0  0  0  0
 10  9  2  0  0  0  0
 11 12  2  0  0  0  0
 11 10  1  0  0  0  0
 12 13  1  0  0  0  0
 13 35  1  0  0  0  0
 13 14  2  0  0  0  0
 14 36  1  0  0  0  0
 15 16  1  0  0  0  0
 16 37  1  0  0  0  0
 16 17  1  0  0  0  0
 17 39  1  0  0  0  0
 17 40  1  0  0  0  0
 18 17  1  0  0  0  0
 18 21  1  0  0  0  0
 19 18  1  0  0  0  0
 20 15  1  0  0  0  0
 20 19  1  0  0  0  0
 21 23  1  0  0  0  0
 21 22  2  0  0  0  0
 23 46  1  0  0  0  0
 23 24  1  0  0  0  0
 24 25  1  0  0  0  0
 25 26  2  0  0  0  0
 26 27  1  0  0  0  0
 28 30  1  0  0  0  0
 28 27  1  0  0  0  0
 29 25  1  0  0  0  0
 29 28  2  0  0  0  0
 30 50  1  0  0  0  0
 30 49  1  0  0  0  0
 32 10  1  0  0  0  0
 33 11  1  0  0  0  0
 34 12  1  0  0  0  0
 38 16  1  0  0  0  0
 41 19  1  0  0  0  0
 42 19  1  0  0  0  0
 43 20  1  0  0  0  0
 44 20  1  0  0  0  0
 45 23  1  0  0  0  0
 47 29  1  0  0  0  0
 48 30  1  0  0  0  0
M  END
>  <Pose>
1

>  <Score>
-5.80

$$$$
