
 OpenBabel03202210193D

 39 42  0  0  0  0  0  0  0  0999 V2000
   14.2360   61.6700  -10.7660 B   0  0  0  0  0  0  0  0  0  0  0  0
   15.9300   62.5310  -10.6310 C   0  0  0  0  0  0  0  0  0  0  0  0
   17.0360   61.7510  -10.4340 C   0  0  0  0  0  0  0  0  0  0  0  0
   18.2460   62.3410  -10.3360 N   0  0  0  0  0  0  0  0  0  0  0  0
   18.3720   63.6730  -10.4290 C   0  0  0  0  0  0  0  0  0  0  0  0
   19.5970   64.2690  -10.3290 N   0  0  0  0  0  0  0  0  0  0  0  0
   20.7100   63.5390  -10.1350 C   0  0  0  0  0  0  0  0  0  0  0  0
   20.5580   62.1780  -10.0430 C   0  0  0  0  0  0  0  0  0  0  0  0
   19.3380   61.5460  -10.1400 C   0  0  0  0  0  0  0  0  0  0  0  0
   19.1770   60.3190  -10.0600 O   0  0  0  0  0  0  0  0  0  0  0  0
   22.0310   64.2460  -10.0430 C   0  0  0  0  0  0  0  0  0  0  0  0
   22.1590   65.0140   -8.8190 N   0  0  0  0  0  0  0  0  0  0  0  0
   22.7280   64.6920   -7.6490 C   0  0  0  0  0  0  0  0  0  0  0  0
   22.5990   65.7290   -6.7320 C   0  0  0  0  0  0  0  0  0  0  0  0
   21.9250   66.7000   -7.3940 N   0  0  0  0  0  0  0  0  0  0  0  0
   21.6620   66.2790   -8.6340 C   0  0  0  0  0  0  0  0  0  0  0  0
   23.0830   65.6780   -5.4750 N   0  0  0  0  0  0  0  0  0  0  0  0
   23.7220   64.5450   -5.1280 C   0  0  0  0  0  0  0  0  0  0  0  0
   24.1820   64.4790   -3.9550 O   0  0  0  0  0  0  0  0  0  0  0  0
   23.8760   63.5150   -5.9740 N   0  0  0  0  0  0  0  0  0  0  0  0
   23.3910   63.5640   -7.2320 C   0  0  0  0  0  0  0  0  0  0  0  0
   23.5260   62.6180   -8.0330 O   0  0  0  0  0  0  0  0  0  0  0  0
   24.5660   62.2940   -5.5950 C   0  0  0  0  0  0  0  0  0  0  0  0
   22.9130   66.7960   -4.5660 C   0  0  0  0  0  0  0  0  0  0  0  0
   17.2570   64.4710  -10.6280 C   0  0  0  0  0  0  0  0  0  0  0  0
   16.0130   63.9010  -10.7320 C   0  0  0  0  0  0  0  0  0  0  0  0
   16.9650   60.6530  -10.3540 H   0  0  0  0  0  0  0  0  0  0  0  0
   21.4350   61.5650   -9.8950 H   0  0  0  0  0  0  0  0  0  0  0  0
   22.8430   63.5090  -10.1570 H   0  0  0  0  0  0  0  0  0  0  0  0
   22.0780   64.9510  -10.8950 H   0  0  0  0  0  0  0  0  0  0  0  0
   21.1380   66.8150   -9.4180 H   0  0  0  0  0  0  0  0  0  0  0  0
   24.2170   61.4290   -6.1920 H   0  0  0  0  0  0  0  0  0  0  0  0
   25.6550   62.4880   -5.7240 H   0  0  0  0  0  0  0  0  0  0  0  0
   24.3930   62.0900   -4.5050 H   0  0  0  0  0  0  0  0  0  0  0  0
   23.8410   67.4040   -4.5070 H   0  0  0  0  0  0  0  0  0  0  0  0
   22.6210   66.3780   -3.5690 H   0  0  0  0  0  0  0  0  0  0  0  0
   22.0450   67.4150   -4.8920 H   0  0  0  0  0  0  0  0  0  0  0  0
   17.3940   65.5520  -10.6990 H   0  0  0  0  0  0  0  0  0  0  0  0
   15.1250   64.5260  -10.8900 H   0  0  0  0  0  0  0  0  0  0  0  0
  1  2  1  0  0  0  0
  2  3  1  0  0  0  0
  3 27  1  0  0  0  0
  3  4  1  0  0  0  0
  4  9  1  0  0  0  0
  5  4  1  0  0  0  0
  5  6  1  0  0  0  0
  6  7  2  0  0  0  0
  7  8  1  0  0  0  0
  7 11  1  0  0  0  0
  8 28  1  0  0  0  0
  9 10  2  0  0  0  0
  9  8  1  0  0  0  0
 11 12  1  0  0  0  0
 12 16  1  0  0  0  0
 12 13  1  0  0  0  0
 13 21  1  0  0  0  0
 13 14  2  0  0  0  0
 14 17  1  0  0  0  0
 15 14  1  0  0  0  0
 16 15  2  0  0  0  0
 17 18  1  0  0  0  0
 17 24  1  0  0  0  0
 18 19  2  0  0  0  0
 20 23  1  0  0  0  0
 20 18  1  0  0  0  0
 21 20  1  0  0  0  0
 22 21  2  0  0  0  0
 23 34  1  0  0  0  0
 24 35  1  0  0  0  0
 24 36  1  0  0  0  0
 25  5  2  0  0  0  0
 26  2  2  0  0  0  0
 26 25  1  0  0  0  0
 29 11  1  0  0  0  0
 30 11  1  0  0  0  0
 31 16  1  0  0  0  0
 32 23  1  0  0  0  0
 33 23  1  0  0  0  0
 37 24  1  0  0  0  0
 38 25  1  0  0  0  0
 39 26  1  0  0  0  0
M  END
>  <Pose>
1

>  <Score>
-7.25

$$$$
