
 OpenBabel03202210193D

 58 62  0  0  1  0  0  0  0  0999 V2000
   21.3400   72.3280   -7.4290 B   0  0  0  0  0  0  0  0  0  0  0  0
   21.7990   70.4970   -7.0480 C   0  0  0  0  0  0  0  0  0  0  0  0
   23.0090   70.1580   -6.5240 C   0  0  0  0  0  0  0  0  0  0  0  0
   23.3290   68.8580   -6.2550 C   0  0  0  0  0  0  0  0  0  0  0  0
   22.4510   67.8220   -6.4990 C   0  0  0  0  0  0  0  0  0  0  0  0
   21.2470   68.1570   -7.0200 C   0  0  0  0  0  0  0  0  0  0  0  0
   20.9000   69.5000   -7.3040 C   0  0  0  0  0  0  0  0  0  0  0  0
   22.8710   66.4710   -6.1960 C   0  0  0  0  0  0  0  0  0  0  0  0
   23.7530   66.1660   -5.1460 C   0  0  0  0  0  0  0  0  0  0  0  0
   23.9050   64.8480   -5.1460 N   0  0  0  0  0  0  0  0  0  0  0  0
   24.5730   63.8820   -4.4440 C   0  0  0  0  0  0  0  0  0  0  0  0
   24.2240   62.6960   -5.0390 C   0  0  0  0  0  0  0  0  0  0  0  0
   23.3960   62.9810   -6.0330 N   0  0  0  0  0  0  0  0  0  0  0  0
   23.1870   64.3260   -6.1120 C   0  0  1  0  0  0  0  0  0  0  0  0
   22.5320   65.3190   -6.7840 N   0  0  0  0  0  0  0  0  0  0  0  0
   21.6620   65.0250   -7.8820 C   0  0  0  0  0  0  0  0  0  0  0  0
   21.9860   63.8480   -8.7100 C   0  0  0  0  0  0  0  0  0  0  0  0
   20.9730   62.7700   -8.8500 C   0  0  0  0  0  0  0  0  0  0  0  0
   20.6620   62.4960  -10.2360 N   0  0  0  0  0  4  0  0  0  0  0  0
   19.2610   62.5770  -10.5280 C   0  0  0  0  0  0  0  0  0  0  0  0
   18.3780   61.7320   -9.6540 C   0  0  0  0  0  0  0  0  0  0  0  0
   17.0520   61.5750  -10.4130 C   0  0  0  0  0  0  0  0  0  0  0  0
   16.4410   62.9230  -10.5820 C   0  0  0  0  0  0  0  0  0  0  0  0
   17.3690   63.9390  -11.2070 C   0  0  0  0  0  0  0  0  0  0  0  0
   18.7000   63.9910  -10.4480 C   0  0  0  0  0  0  0  0  0  0  0  0
   24.7250   61.4750   -4.5790 C   0  0  0  0  0  0  0  0  0  0  0  0
   25.5900   61.4540   -3.5050 C   0  0  0  0  0  0  0  0  0  0  0  0
   25.9240   62.6570   -2.9270 C   0  0  0  0  0  0  0  0  0  0  0  0
   25.4300   63.8750   -3.3780 C   0  0  0  0  0  0  0  0  0  0  0  0
   23.7440   70.9510   -6.3120 H   0  0  0  0  0  0  0  0  0  0  0  0
   24.3300   68.6520   -5.8260 H   0  0  0  0  0  0  0  0  0  0  0  0
   20.4760   67.4820   -7.2650 H   0  0  0  0  0  0  0  0  0  0  0  0
   19.9410   69.7570   -7.7190 H   0  0  0  0  0  0  0  0  0  0  0  0
   24.2230   66.8690   -4.4630 H   0  0  0  0  0  0  0  0  0  0  0  0
   22.9740   62.2530   -6.6400 H   0  0  0  0  0  0  0  0  0  0  0  0
   21.4300   65.9040   -8.4770 H   0  0  0  0  0  0  0  0  0  0  0  0
   20.6370   64.7460   -7.4010 H   0  0  0  0  0  0  0  0  0  0  0  0
   22.1190   64.2600   -9.7680 H   0  0  0  0  0  0  0  0  0  0  0  0
   23.0180   63.4180   -8.5230 H   0  0  0  0  0  0  0  0  0  0  0  0
   20.0130   62.9890   -8.3400 H   0  0  0  0  0  0  0  0  0  0  0  0
   21.4510   61.8300   -8.4520 H   0  0  0  0  0  0  0  0  0  0  0  0
   21.2300   62.9710  -10.9320 H   0  0  0  0  0  0  0  0  0  0  0  0
   20.9110   61.4500  -10.3780 H   0  0  0  0  0  0  0  0  0  0  0  0
   19.0490   62.2610  -11.5940 H   0  0  0  0  0  0  0  0  0  0  0  0
   18.7970   60.7620   -9.3890 H   0  0  0  0  0  0  0  0  0  0  0  0
   18.1090   62.3270   -8.7350 H   0  0  0  0  0  0  0  0  0  0  0  0
   17.2610   61.0920  -11.4010 H   0  0  0  0  0  0  0  0  0  0  0  0
   16.3640   60.9590   -9.8100 H   0  0  0  0  0  0  0  0  0  0  0  0
   15.5690   62.8250  -11.2600 H   0  0  0  0  0  0  0  0  0  0  0  0
   16.0840   63.2870   -9.6010 H   0  0  0  0  0  0  0  0  0  0  0  0
   16.8810   64.9230  -11.1230 H   0  0  0  0  0  0  0  0  0  0  0  0
   17.5610   63.6450  -12.2400 H   0  0  0  0  0  0  0  0  0  0  0  0
   18.4860   64.2610   -9.3830 H   0  0  0  0  0  0  0  0  0  0  0  0
   19.3740   64.6700  -10.9670 H   0  0  0  0  0  0  0  0  0  0  0  0
   24.4580   60.5400   -5.0390 H   0  0  0  0  0  0  0  0  0  0  0  0
   26.0050   60.5140   -3.1140 H   0  0  0  0  0  0  0  0  0  0  0  0
   26.5980   62.6410   -2.0900 H   0  0  0  0  0  0  0  0  0  0  0  0
   25.6910   64.8100   -2.9260 H   0  0  0  0  0  0  0  0  0  0  0  0
  1  2  1  0  0  0  0
  2  3  1  0  0  0  0
  3 30  1  0  0  0  0
  3  4  2  0  0  0  0
  4 31  1  0  0  0  0
  5  4  1  0  0  0  0
  5  8  1  0  0  0  0
  6  5  2  0  0  0  0
  7  2  2  0  0  0  0
  7  6  1  0  0  0  0
  8  9  2  0  0  0  0
  9 34  1  0  0  0  0
 10  9  1  0  0  0  0
 10 11  1  0  0  0  0
 11 29  1  0  0  0  0
 12 26  1  0  0  0  0
 12 11  2  0  0  0  0
 13 12  1  0  0  0  0
 14 15  1  1  0  0  0
 14 13  1  0  0  0  0
 14 10  1  0  0  0  0
 15  8  1  0  0  0  0
 16 37  1  0  0  0  0
 16 15  1  0  0  0  0
 17 39  1  0  0  0  0
 17 16  1  0  0  0  0
 18 17  1  0  0  0  0
 18 41  1  0  0  0  0
 18 40  1  0  0  0  0
 19 18  1  0  0  0  0
 20 25  1  0  0  0  0
 20 19  1  0  0  0  0
 20 21  1  0  0  0  0
 21 45  1  0  0  0  0
 21 46  1  0  0  0  0
 22 48  1  0  0  0  0
 22 21  1  0  0  0  0
 23 22  1  0  0  0  0
 23 50  1  0  0  0  0
 24 51  1  0  0  0  0
 24 23  1  0  0  0  0
 24 25  1  0  0  0  0
 25 53  1  0  0  0  0
 26 27  2  0  0  0  0
 27 56  1  0  0  0  0
 27 28  1  0  0  0  0
 28 57  1  0  0  0  0
 29 28  2  0  0  0  0
 29 58  1  0  0  0  0
 32  6  1  0  0  0  0
 33  7  1  0  0  0  0
 35 13  1  0  0  0  0
 36 16  1  0  0  0  0
 38 17  1  0  0  0  0
 42 19  1  0  0  0  0
 43 19  1  0  0  0  0
 44 20  1  0  0  0  0
 47 22  1  0  0  0  0
 49 23  1  0  0  0  0
 52 24  1  0  0  0  0
 54 25  1  0  0  0  0
 55 26  1  0  0  0  0
M  END
>  <Pose>
1

>  <Score>
-6.28

$$$$
