
 OpenBabel03202210193D

 49 52  0  0  1  0  0  0  0  0999 V2000
   13.8210   63.3050  -10.6580 B   0  0  0  0  0  0  0  0  0  0  0  0
   15.7080   63.0880  -10.5470 C   0  0  0  0  0  0  0  0  0  0  0  0
   16.2620   61.8600  -10.2620 C   0  0  0  0  0  0  0  0  0  0  0  0
   17.6120   61.6860  -10.1790 C   0  0  0  0  0  0  0  0  0  0  0  0
   18.4360   60.6310   -9.9230 N   0  0  0  0  0  0  0  0  0  0  0  0
   19.6970   61.0340   -9.9690 N   0  0  0  0  0  0  0  0  0  0  0  0
   19.7600   62.3420  -10.2510 C   0  0  0  0  0  0  0  0  0  0  0  0
   18.4420   62.7610  -10.3850 C   0  0  0  0  0  0  0  0  0  0  0  0
   17.9100   64.0110  -10.6740 C   0  0  0  0  0  0  0  0  0  0  0  0
   16.5470   64.1840  -10.7570 C   0  0  0  0  0  0  0  0  0  0  0  0
   20.8820   63.1970  -10.4030 N   0  0  0  0  0  0  0  0  0  0  0  0
   21.1340   64.4580   -9.7090 C   0  0  0  0  0  0  0  0  0  0  0  0
   22.6210   64.4060   -9.4390 C   0  0  2  0  0  0  0  0  0  0  0  0
   23.1670   63.8620  -10.7540 C   0  0  0  0  0  0  0  0  0  0  0  0
   22.0160   63.0340  -11.2600 C   0  0  0  0  0  0  0  0  0  0  0  0
   22.0380   62.2970  -12.2900 O   0  0  0  0  0  0  0  0  0  0  0  0
   22.9480   63.4840   -8.3260 C   0  0  0  0  0  0  0  0  0  0  0  0
   23.7660   62.5560   -8.5450 O   0  0  0  0  0  0  0  0  0  0  0  0
   22.3780   63.6110   -7.0390 N   0  0  0  0  0  0  0  0  0  0  0  0
   22.9360   64.4570   -6.0150 C   0  0  0  0  0  0  0  0  0  0  0  0
   23.3820   63.6070   -4.8450 C   0  0  0  0  0  0  0  0  0  0  0  0
   24.8030   63.6790   -4.6070 N   0  0  0  0  0  0  0  0  0  0  0  0
   25.0300   63.3230   -3.2110 C   0  0  0  0  0  0  0  0  0  0  0  0
   25.0980   61.8060   -3.0560 C   0  0  0  0  0  0  0  0  0  0  0  0
   26.2100   61.2620   -3.6540 O   0  0  0  0  0  0  0  0  0  0  0  0
   26.6720   62.1170   -4.6280 C   0  0  0  0  0  0  0  0  0  0  0  0
   25.5450   62.7450   -5.4220 C   0  0  0  0  0  0  0  0  0  0  0  0
   15.6230   61.0030  -10.0980 H   0  0  0  0  0  0  0  0  0  0  0  0
   18.0290   59.6820   -9.7310 H   0  0  0  0  0  0  0  0  0  0  0  0
   18.5890   64.8630  -10.8360 H   0  0  0  0  0  0  0  0  0  0  0  0
   16.1450   65.1760  -10.9860 H   0  0  0  0  0  0  0  0  0  0  0  0
   20.5210   64.5860   -8.8090 H   0  0  0  0  0  0  0  0  0  0  0  0
   20.9430   65.3110  -10.3920 H   0  0  0  0  0  0  0  0  0  0  0  0
   23.0300   65.4200   -9.2950 H   0  0  0  0  0  0  0  0  0  0  0  0
   23.9610   63.1270  -10.5060 H   0  0  0  0  0  0  0  0  0  0  0  0
   23.4640   64.6420  -11.4500 H   0  0  0  0  0  0  0  0  0  0  0  0
   21.5080   63.0530   -6.8430 H   0  0  0  0  0  0  0  0  0  0  0  0
   22.0800   65.0750   -5.6240 H   0  0  0  0  0  0  0  0  0  0  0  0
   23.7060   65.1440   -6.3620 H   0  0  0  0  0  0  0  0  0  0  0  0
   23.1570   62.5340   -5.0790 H   0  0  0  0  0  0  0  0  0  0  0  0
   22.8180   63.8490   -3.9230 H   0  0  0  0  0  0  0  0  0  0  0  0
   25.9330   63.7540   -2.7860 H   0  0  0  0  0  0  0  0  0  0  0  0
   24.1350   63.6650   -2.6440 H   0  0  0  0  0  0  0  0  0  0  0  0
   25.1440   61.6300   -1.9430 H   0  0  0  0  0  0  0  0  0  0  0  0
   24.1950   61.3110   -3.4640 H   0  0  0  0  0  0  0  0  0  0  0  0
   27.3260   62.9210   -4.2390 H   0  0  0  0  0  0  0  0  0  0  0  0
   27.2910   61.5030   -5.3270 H   0  0  0  0  0  0  0  0  0  0  0  0
   26.0350   63.2510   -6.2910 H   0  0  0  0  0  0  0  0  0  0  0  0
   24.8960   61.9450   -5.8470 H   0  0  0  0  0  0  0  0  0  0  0  0
  1  2  1  0  0  0  0
  2  3  1  0  0  0  0
  3  4  2  0  0  0  0
  3 28  1  0  0  0  0
  4  5  1  0  0  0  0
  5 29  1  0  0  0  0
  6  5  1  0  0  0  0
  7  6  2  0  0  0  0
  8  7  1  0  0  0  0
  8  4  1  0  0  0  0
  9  8  2  0  0  0  0
 10  9  1  0  0  0  0
 10  2  2  0  0  0  0
 11  7  1  0  0  0  0
 11 12  1  0  0  0  0
 12 13  1  0  0  0  0
 12 32  1  0  0  0  0
 13 34  1  1  0  0  0
 13 17  1  0  0  0  0
 14 35  1  0  0  0  0
 14 13  1  0  0  0  0
 15 14  1  0  0  0  0
 15 11  1  0  0  0  0
 16 15  2  0  0  0  0
 17 19  1  0  0  0  0
 18 17  2  0  0  0  0
 19 37  1  0  0  0  0
 19 20  1  0  0  0  0
 20 38  1  0  0  0  0
 20 21  1  0  0  0  0
 21 22  1  0  0  0  0
 21 41  1  0  0  0  0
 22 23  1  0  0  0  0
 23 24  1  0  0  0  0
 23 42  1  0  0  0  0
 23 43  1  0  0  0  0
 24 44  1  0  0  0  0
 25 24  1  0  0  0  0
 26 46  1  0  0  0  0
 26 25  1  0  0  0  0
 27 26  1  0  0  0  0
 27 22  1  0  0  0  0
 30  9  1  0  0  0  0
 31 10  1  0  0  0  0
 33 12  1  0  0  0  0
 36 14  1  0  0  0  0
 39 20  1  0  0  0  0
 40 21  1  0  0  0  0
 45 24  1  0  0  0  0
 47 26  1  0  0  0  0
 48 27  1  0  0  0  0
 49 27  1  0  0  0  0
M  END
>  <Pose>
1

>  <Score>
-9.13

$$$$
