
 OpenBabel03202210193D

 40 43  0  0  1  0  0  0  0  0999 V2000
   26.9690   62.2380   -5.0180 Cl  0  0  0  0  0  0  0  0  0  0  0  0
   25.3900   62.9260   -5.3290 C   0  0  0  0  0  0  0  0  0  0  0  0
   24.7270   63.0190   -6.5160 N   0  0  0  0  0  0  0  0  0  0  0  0
   23.5380   63.6070   -6.3760 C   0  0  0  0  0  0  0  0  0  0  0  0
   23.4650   63.8950   -5.0070 C   0  0  0  0  0  0  0  0  0  0  0  0
   24.6020   63.4780   -4.3560 C   0  0  0  0  0  0  0  0  0  0  0  0
   24.9840   63.6130   -2.6530 Cl  0  0  0  0  0  0  0  0  0  0  0  0
   22.5210   63.9280   -7.3430 C   0  0  0  0  0  0  0  0  0  0  0  0
   21.4550   64.4720   -6.7850 O   0  0  0  0  0  0  0  0  0  0  0  0
   22.4930   63.7580   -8.7180 N   0  0  0  0  0  0  0  0  0  0  0  0
   21.8660   64.8260   -9.5340 C   0  0  0  0  0  0  0  0  0  0  0  0
   20.7100   64.1780  -10.2470 C   0  0  0  0  0  0  0  0  0  0  0  0
   20.6230   62.7620  -10.0800 N   0  0  0  0  0  0  0  0  0  0  0  0
   21.7720   61.8850   -9.9110 C   0  0  0  0  0  0  0  0  0  0  0  0
   22.9940   62.6940   -9.5050 C   0  0  0  0  0  0  0  0  0  0  0  0
   19.3500   62.1290  -10.0700 C   0  0  2  0  0  0  0  0  0  0  0  0
   19.2330   60.8050   -9.8570 N   0  0  0  0  0  0  0  0  0  0  0  0
   18.0290   60.1850   -9.8460 C   0  0  0  0  0  0  0  0  0  0  0  0
   16.9010   60.8870  -10.0510 N   0  0  0  0  0  0  0  0  0  0  0  0
   16.9330   62.2110  -10.2710 C   0  0  0  0  0  0  0  0  0  0  0  0
   15.9710   63.1250  -10.4970 N   0  0  0  0  0  0  0  0  0  0  0  0
   16.5700   64.2890  -10.6460 N   0  0  0  0  0  0  0  0  0  0  0  0
   17.9110   64.1560  -10.5200 C   0  0  0  0  0  0  0  0  0  0  0  0
   18.1850   62.8360  -10.2780 C   0  0  0  0  0  0  0  0  0  0  0  0
   14.5260   62.9060  -10.5710 C   0  0  0  0  0  0  0  0  0  0  0  0
   25.1810   62.6340   -7.3680 H   0  0  0  0  0  0  0  0  0  0  0  0
   22.6490   64.3820   -4.4590 H   0  0  0  0  0  0  0  0  0  0  0  0
   21.5670   65.6610   -8.8840 H   0  0  0  0  0  0  0  0  0  0  0  0
   22.6370   65.1670  -10.2700 H   0  0  0  0  0  0  0  0  0  0  0  0
   19.7930   64.7170   -9.9330 H   0  0  0  0  0  0  0  0  0  0  0  0
   20.8090   64.4070  -11.3490 H   0  0  0  0  0  0  0  0  0  0  0  0
   21.9610   61.3340  -10.8370 H   0  0  0  0  0  0  0  0  0  0  0  0
   21.5310   61.1830   -9.0970 H   0  0  0  0  0  0  0  0  0  0  0  0
   23.3490   63.1270  -10.5200 H   0  0  0  0  0  0  0  0  0  0  0  0
   23.7930   62.0800   -9.1440 H   0  0  0  0  0  0  0  0  0  0  0  0
   17.9630   59.1210   -9.6740 H   0  0  0  0  0  0  0  0  0  0  0  0
   18.6260   64.9400  -10.5950 H   0  0  0  0  0  0  0  0  0  0  0  0
   14.2280   63.0470  -11.6430 H   0  0  0  0  0  0  0  0  0  0  0  0
   13.9710   63.5930   -9.9180 H   0  0  0  0  0  0  0  0  0  0  0  0
   14.2730   61.8790  -10.2890 H   0  0  0  0  0  0  0  0  0  0  0  0
  2  1  1  0  0  0  0
  2  6  2  0  0  0  0
  3  4  1  0  0  0  0
  3  2  1  0  0  0  0
  4  5  2  0  0  0  0
  5 27  1  0  0  0  0
  5  6  1  0  0  0  0
  6  7  1  0  0  0  0
  8  9  2  0  0  0  0
  8  4  1  0  0  0  0
 10  8  1  0  0  0  0
 11 28  1  0  0  0  0
 11 10  1  0  0  0  0
 12 13  1  0  0  0  0
 12 30  1  0  0  0  0
 12 11  1  0  0  0  0
 13 14  1  0  0  0  0
 14 15  1  0  0  0  0
 14 33  1  0  0  0  0
 15 35  1  0  0  0  0
 15 10  1  0  0  0  0
 16 13  1  6  0  0  0
 16 17  1  0  0  0  0
 17 18  2  0  0  0  0
 18 36  1  0  0  0  0
 19 18  1  0  0  0  0
 20 19  1  0  0  0  0
 21 20  1  0  0  0  0
 22 23  2  0  0  0  0
 22 21  1  0  0  0  0
 23 24  1  0  0  0  0
 24 20  2  0  0  0  0
 24 16  1  0  0  0  0
 25 21  1  0  0  0  0
 25 40  1  0  0  0  0
 25 39  1  0  0  0  0
 26  3  1  0  0  0  0
 29 11  1  0  0  0  0
 31 12  1  0  0  0  0
 32 14  1  0  0  0  0
 34 15  1  0  0  0  0
 37 23  1  0  0  0  0
 38 25  1  0  0  0  0
M  END
>  <Pose>
1

>  <Score>
-7.68

$$$$
