
 OpenBabel03202210193D

 62 65  0  0  1  0  0  0  0  0999 V2000
   23.0060   69.2620   -6.2510 S   0  0  0  0  0  0  0  0  0  0  0  0
   22.9790   70.2390   -7.4060 O   0  0  0  0  0  0  0  0  0  0  0  0
   21.5740   69.1880   -5.7370 O   0  0  0  0  0  0  0  0  0  0  0  0
   23.4820   67.6960   -6.7050 N   0  0  0  0  0  0  0  0  0  0  0  0
   22.7460   67.1390   -7.7900 C   0  0  0  0  0  0  0  0  0  0  0  0
   21.6420   66.2640   -7.2300 C   0  0  0  0  0  0  0  0  0  0  0  0
   22.2700   65.1030   -6.6500 N   0  0  0  0  0  0  0  0  0  0  0  0
   23.5560   65.3190   -6.1000 C   0  0  0  0  0  0  0  0  0  0  0  0
   23.6300   66.7720   -5.6270 C   0  0  0  0  0  0  0  0  0  0  0  0
   22.0430   63.8820   -7.3410 C   0  0  0  0  0  0  0  0  0  0  0  0
   22.0290   64.1480   -8.8050 C   0  0  1  0  0  0  0  0  0  0  0  0
   23.3410   63.8850   -9.4650 C   0  0  0  0  0  0  0  0  0  0  0  0
   24.3840   63.6290   -8.8170 O   0  0  0  0  0  0  0  0  0  0  0  0
   23.2940   63.9520  -10.8550 O   0  0  0  0  0  0  0  0  0  0  0  0
   22.1780   63.6770  -11.6170 C   0  0  0  0  0  0  0  0  0  0  0  0
   21.0470   63.3160  -10.9710 C   0  0  0  0  0  0  0  0  0  0  0  0
   21.0720   63.2350   -9.5270 C   0  0  0  0  0  0  0  0  0  0  0  0
   20.3460   62.4540   -8.8880 O   0  0  0  0  0  0  0  0  0  0  0  0
   19.8220   62.9900  -11.7130 C   0  0  0  0  0  0  0  0  0  0  0  0
   18.7260   63.8350  -11.4710 N   0  0  0  0  0  0  0  0  0  0  0  0
   18.1110   63.8810  -10.2140 C   0  0  0  0  0  0  0  0  0  0  0  0
   16.6720   64.4310  -10.3380 C   0  0  0  0  0  0  0  0  0  0  0  0
   16.0850   63.6880  -11.4240 N   0  0  0  0  0  0  0  0  0  0  0  0
   16.6310   64.0110  -12.7350 C   0  0  0  0  0  0  0  0  0  0  0  0
   18.0830   64.4430  -12.5780 C   0  0  0  0  0  0  0  0  0  0  0  0
   15.0780   62.7230  -11.2320 C   0  0  0  0  0  0  0  0  0  0  0  0
   13.7950   62.8470  -11.7160 C   0  0  0  0  0  0  0  0  0  0  0  0
   12.8510   61.8700  -11.5010 C   0  0  0  0  0  0  0  0  0  0  0  0
   13.1290   60.7230  -10.7960 C   0  0  0  0  0  0  0  0  0  0  0  0
   14.3980   60.5700  -10.3010 C   0  0  0  0  0  0  0  0  0  0  0  0
   15.3530   61.5530  -10.5150 C   0  0  0  0  0  0  0  0  0  0  0  0
   11.2430   62.0860  -12.1390 Cl  0  0  0  0  0  0  0  0  0  0  0  0
   23.9800   69.9560   -4.9680 C   0  0  0  0  0  0  0  0  0  0  0  0
   23.4460   66.4230   -8.3140 H   0  0  0  0  0  0  0  0  0  0  0  0
   22.4200   67.8580   -8.5350 H   0  0  0  0  0  0  0  0  0  0  0  0
   21.1450   66.8210   -6.4100 H   0  0  0  0  0  0  0  0  0  0  0  0
   20.8870   66.0150   -7.9770 H   0  0  0  0  0  0  0  0  0  0  0  0
   24.4040   65.0520   -6.7530 H   0  0  0  0  0  0  0  0  0  0  0  0
   23.6590   64.6900   -5.1750 H   0  0  0  0  0  0  0  0  0  0  0  0
   22.8120   66.8910   -4.8690 H   0  0  0  0  0  0  0  0  0  0  0  0
   24.5760   66.9520   -5.0650 H   0  0  0  0  0  0  0  0  0  0  0  0
   22.8560   63.1390   -7.1460 H   0  0  0  0  0  0  0  0  0  0  0  0
   21.0860   63.4560   -6.9600 H   0  0  0  0  0  0  0  0  0  0  0  0
   21.7420   65.1810   -9.0070 H   0  0  0  0  0  0  0  0  0  0  0  0
   22.1470   63.7320  -12.6910 H   0  0  0  0  0  0  0  0  0  0  0  0
   19.6050   61.8990  -11.5200 H   0  0  0  0  0  0  0  0  0  0  0  0
   20.0720   63.0520  -12.8150 H   0  0  0  0  0  0  0  0  0  0  0  0
   18.5970   64.5350   -9.4730 H   0  0  0  0  0  0  0  0  0  0  0  0
   17.9200   62.8360   -9.8350 H   0  0  0  0  0  0  0  0  0  0  0  0
   16.1340   64.4160   -9.3980 H   0  0  0  0  0  0  0  0  0  0  0  0
   16.8190   65.5010  -10.6090 H   0  0  0  0  0  0  0  0  0  0  0  0
   16.6130   63.1650  -13.4250 H   0  0  0  0  0  0  0  0  0  0  0  0
   16.0840   64.9040  -13.0970 H   0  0  0  0  0  0  0  0  0  0  0  0
   18.6090   64.1630  -13.5110 H   0  0  0  0  0  0  0  0  0  0  0  0
   18.1610   65.5470  -12.4990 H   0  0  0  0  0  0  0  0  0  0  0  0
   13.5560   63.7600  -12.2800 H   0  0  0  0  0  0  0  0  0  0  0  0
   12.3630   59.9520  -10.6340 H   0  0  0  0  0  0  0  0  0  0  0  0
   14.6820   59.6800   -9.7330 H   0  0  0  0  0  0  0  0  0  0  0  0
   16.3640   61.4460  -10.1320 H   0  0  0  0  0  0  0  0  0  0  0  0
   24.8320   70.5640   -5.3270 H   0  0  0  0  0  0  0  0  0  0  0  0
   23.3630   70.6580   -4.3350 H   0  0  0  0  0  0  0  0  0  0  0  0
   24.3950   69.2110   -4.2600 H   0  0  0  0  0  0  0  0  0  0  0  0
  1  3  2  0  0  0  0
  1 33  1  0  0  0  0
  2  1  2  0  0  0  0
  4  1  1  0  0  0  0
  4  9  1  0  0  0  0
  5  6  1  0  0  0  0
  5  4  1  0  0  0  0
  6  7  1  0  0  0  0
  6 36  1  0  0  0  0
  7  8  1  0  0  0  0
  8  9  1  0  0  0  0
  8 39  1  0  0  0  0
  9 41  1  0  0  0  0
  9 40  1  0  0  0  0
 10 42  1  0  0  0  0
 10 43  1  0  0  0  0
 10  7  1  0  0  0  0
 11 44  1  6  0  0  0
 11 10  1  0  0  0  0
 12 13  2  0  0  0  0
 12 11  1  0  0  0  0
 14 12  1  0  0  0  0
 15 16  2  0  0  0  0
 15 14  1  0  0  0  0
 16 17  1  0  0  0  0
 17 18  2  0  0  0  0
 17 11  1  0  0  0  0
 19 46  1  0  0  0  0
 19 20  1  0  0  0  0
 19 16  1  0  0  0  0
 20 21  1  0  0  0  0
 21 49  1  0  0  0  0
 21 48  1  0  0  0  0
 22 21  1  0  0  0  0
 22 50  1  0  0  0  0
 23 26  1  0  0  0  0
 23 22  1  0  0  0  0
 24 25  1  0  0  0  0
 24 23  1  0  0  0  0
 25 55  1  0  0  0  0
 25 20  1  0  0  0  0
 26 31  1  0  0  0  0
 27 28  1  0  0  0  0
 27 26  2  0  0  0  0
 28 29  2  0  0  0  0
 29 57  1  0  0  0  0
 29 30  1  0  0  0  0
 30 58  1  0  0  0  0
 31 30  2  0  0  0  0
 31 59  1  0  0  0  0
 32 28  1  0  0  0  0
 33 61  1  0  0  0  0
 33 62  1  0  0  0  0
 34  5  1  0  0  0  0
 35  5  1  0  0  0  0
 37  6  1  0  0  0  0
 38  8  1  0  0  0  0
 45 15  1  0  0  0  0
 47 19  1  0  0  0  0
 51 22  1  0  0  0  0
 52 24  1  0  0  0  0
 53 24  1  0  0  0  0
 54 25  1  0  0  0  0
 56 27  1  0  0  0  0
 60 33  1  0  0  0  0
M  END
>  <Pose>
1

>  <Score>
-4.17

$$$$
