
 OpenBabel03202209553D

 50 53  0  0  0  0  0  0  0  0999 V2000
   29.7380   18.0490   24.7020 B   0  0  0  0  0  0  0  0  0  0  0  0
   28.6770   16.4480   24.7090 C   0  0  0  0  0  0  0  0  0  0  0  0
   28.3590   15.8650   23.4980 C   0  0  0  0  0  0  0  0  0  0  0  0
   27.5970   14.7170   23.5250 C   0  0  0  0  0  0  0  0  0  0  0  0
   27.1740   14.1810   24.7300 C   0  0  0  0  0  0  0  0  0  0  0  0
   27.4890   14.7600   25.9420 C   0  0  0  0  0  0  0  0  0  0  0  0
   28.2510   15.9100   25.9060 C   0  0  0  0  0  0  0  0  0  0  0  0
   28.5710   16.4980   27.1430 O   0  0  0  0  0  0  0  0  0  0  0  0
   27.0440   14.1990   27.2240 C   0  0  0  0  0  0  0  0  0  0  0  0
   27.0670   12.9430   27.4690 N   0  0  0  0  0  0  0  0  0  0  0  0
   26.6210   12.4410   28.7410 N   0  0  0  0  0  0  0  0  0  0  0  0
   25.2600   12.1340   28.8460 C   0  0  0  0  0  0  0  0  0  0  0  0
   24.9540   10.8760   28.6800 O   0  0  0  0  0  0  0  0  0  0  0  0
   24.1270   12.9880   29.1130 C   0  0  0  0  0  0  0  0  0  0  0  0
   23.8990   14.1570   28.4180 N   0  0  0  0  0  0  0  0  0  0  0  0
   22.8200   14.6930   28.8920 N   0  0  0  0  0  0  0  0  0  0  0  0
   22.3240   13.9070   29.8860 N   0  0  0  0  0  0  0  0  0  0  0  0
   23.1100   12.8450   30.0480 C   0  0  0  0  0  0  0  0  0  0  0  0
   22.9810   11.7370   30.9940 C   0  0  0  0  0  0  0  0  0  0  0  0
   21.7040   11.1990   31.2760 N   0  0  0  0  0  4  0  0  0  0  0  0
   21.7550    9.8830   31.8950 C   0  0  0  0  0  0  0  0  0  0  0  0
   22.6040    8.9580   31.1200 C   0  0  0  0  0  0  0  0  0  0  0  0
   22.6820    9.0560   29.7910 O   0  0  0  0  0  0  0  0  0  0  0  0
   22.0180   10.0510   29.1500 C   0  0  0  0  0  0  0  0  0  0  0  0
   21.0860   10.8670   29.9510 C   0  0  0  0  0  0  0  0  0  0  0  0
   21.1230   14.2960   30.5570 C   0  0  0  0  0  0  0  0  0  0  0  0
   19.8530   13.9590   30.3690 N   0  0  0  0  0  0  0  0  0  0  0  0
   19.1500   14.5630   31.2690 O   0  0  0  0  0  0  0  0  0  0  0  0
   19.8890   15.2870   32.0500 N   0  0  0  0  0  0  0  0  0  0  0  0
   21.1500   15.1660   31.6590 C   0  0  0  0  0  0  0  0  0  0  0  0
   22.3220   15.7600   32.1930 N   0  0  0  0  0  0  0  0  0  0  0  0
   27.1590   13.9110   21.8470 B   0  0  0  0  0  0  0  0  0  0  0  0
   28.8030   16.4320   22.3020 O   0  0  0  0  0  0  0  0  0  0  0  0
   26.5710   13.2710   24.7330 H   0  0  0  0  0  0  0  0  0  0  0  0
   28.2930   17.4510   27.3240 H   0  0  0  0  0  0  0  0  0  0  0  0
   26.6890   14.8560   27.9790 H   0  0  0  0  0  0  0  0  0  0  0  0
   27.3050   12.3350   29.4720 H   0  0  0  0  0  0  0  0  0  0  0  0
   23.5110   11.9800   31.9770 H   0  0  0  0  0  0  0  0  0  0  0  0
   23.5880   10.8740   30.5710 H   0  0  0  0  0  0  0  0  0  0  0  0
   21.0940   11.8430   31.7570 H   0  0  0  0  0  0  0  0  0  0  0  0
   20.6940    9.4980   31.8430 H   0  0  0  0  0  0  0  0  0  0  0  0
   22.0400    9.8790   32.9430 H   0  0  0  0  0  0  0  0  0  0  0  0
   22.2700    7.9080   31.3780 H   0  0  0  0  0  0  0  0  0  0  0  0
   23.6450    8.9970   31.5570 H   0  0  0  0  0  0  0  0  0  0  0  0
   22.7550   10.7080   28.6450 H   0  0  0  0  0  0  0  0  0  0  0  0
   21.4280    9.5820   28.3120 H   0  0  0  0  0  0  0  0  0  0  0  0
   20.1340   10.3730   30.1830 H   0  0  0  0  0  0  0  0  0  0  0  0
   20.8860   11.8420   29.4860 H   0  0  0  0  0  0  0  0  0  0  0  0
   23.2550   15.4170   31.8870 H   0  0  0  0  0  0  0  0  0  0  0  0
   22.2890   16.5490   32.9020 H   0  0  0  0  0  0  0  0  0  0  0  0
  1  2  1  0  0  0  0
  2  7  1  0  0  0  0
  3  4  1  0  0  0  0
  3  2  2  0  0  0  0
  4  5  2  0  0  0  0
  5 34  1  0  0  0  0
  5  6  1  0  0  0  0
  6  9  1  0  0  0  0
  7  6  2  0  0  0  0
  7  8  1  0  0  0  0
  8 35  1  0  0  0  0
  9 10  2  0  0  0  0
  9 36  1  0  0  0  0
 10 11  1  0  0  0  0
 11 12  1  0  0  0  0
 11 37  1  0  0  0  0
 12 14  1  0  0  0  0
 13 12  2  0  0  0  0
 14 18  2  0  0  0  0
 15 16  2  0  0  0  0
 15 14  1  0  0  0  0
 16 17  1  0  0  0  0
 17 18  1  0  0  0  0
 17 26  1  0  0  0  0
 18 19  1  0  0  0  0
 19 20  1  0  0  0  0
 19 38  1  0  0  0  0
 20 40  1  0  0  0  0
 20 21  1  0  0  0  0
 21 42  1  0  0  0  0
 22 43  1  0  0  0  0
 22 44  1  0  0  0  0
 22 21  1  0  0  0  0
 23 22  1  0  0  0  0
 24 23  1  0  0  0  0
 24 25  1  0  0  0  0
 25 47  1  0  0  0  0
 25 20  1  0  0  0  0
 26 30  1  0  0  0  0
 27 26  2  0  0  0  0
 27 28  1  0  0  0  0
 28 29  1  0  0  0  0
 30 29  2  0  0  0  0
 30 31  1  0  0  0  0
 31 50  1  0  0  0  0
 32  4  1  0  0  0  0
 33  3  1  0  0  0  0
 39 19  1  0  0  0  0
 41 21  1  0  0  0  0
 45 24  1  0  0  0  0
 46 24  1  0  0  0  0
 48 25  1  0  0  0  0
 49 31  1  0  0  0  0
M  END
>  <Pose>
1

>  <Score>
-7.52

$$$$
