
 OpenBabel03162216063D

 50 53  0  0  0  0  0  0  0  0999 V2000
   25.9290    2.1280   32.7240 B   0  0  0  0  0  0  0  0  0  0  0  0
   25.1390    3.5750   31.7900 C   0  0  0  0  0  0  0  0  0  0  0  0
   25.9040    4.3690   30.9880 C   0  0  0  0  0  0  0  0  0  0  0  0
   25.2950    5.4250   30.3150 C   0  0  0  0  0  0  0  0  0  0  0  0
   23.9310    5.6470   30.4760 C   0  0  0  0  0  0  0  0  0  0  0  0
   23.1560    4.8550   31.2790 C   0  0  0  0  0  0  0  0  0  0  0  0
   23.7710    3.8140   31.9380 C   0  0  0  0  0  0  0  0  0  0  0  0
   22.9770    3.0190   32.7490 O   0  0  0  0  0  0  0  0  0  0  0  0
   21.7310    5.1040   31.4340 C   0  0  0  0  0  0  0  0  0  0  0  0
   21.2400    6.2430   31.7700 N   0  0  0  0  0  0  0  0  0  0  0  0
   19.8160    6.3830   31.8940 N   0  0  0  0  0  0  0  0  0  0  0  0
   19.3420    7.1010   32.9840 C   0  0  0  0  0  0  0  0  0  0  0  0
   18.9530    6.4120   34.0010 O   0  0  0  0  0  0  0  0  0  0  0  0
   19.2180    8.5370   33.1480 C   0  0  0  0  0  0  0  0  0  0  0  0
   18.1100    9.1850   33.6340 N   0  0  0  0  0  0  0  0  0  0  0  0
   18.3350   10.4700   33.6550 N   0  0  0  0  0  0  0  0  0  0  0  0
   19.5450   10.7560   33.2070 N   0  0  0  0  0  0  0  0  0  0  0  0
   20.1130    9.5800   32.8890 C   0  0  0  0  0  0  0  0  0  0  0  0
   21.4460    9.3730   32.3150 C   0  0  0  0  0  0  0  0  0  0  0  0
   21.9290   10.4850   31.4920 N   0  0  0  0  0  0  0  0  0  0  0  0
   21.8230   10.0960   30.0720 C   0  0  0  0  0  0  0  0  0  0  0  0
   22.3800    8.7290   29.8810 C   0  0  0  0  0  0  0  0  0  0  0  0
   23.6580    8.6760   30.3810 O   0  0  0  0  0  0  0  0  0  0  0  0
   24.1790    9.8930   30.7330 C   0  0  0  0  0  0  0  0  0  0  0  0
   23.3770   10.6550   31.7560 C   0  0  0  0  0  0  0  0  0  0  0  0
   20.0550   12.0720   33.0850 C   0  0  0  0  0  0  0  0  0  0  0  0
   21.3300   12.5080   33.1620 N   0  0  0  0  0  0  0  0  0  0  0  0
   21.3670   13.8020   32.9810 O   0  0  0  0  0  0  0  0  0  0  0  0
   20.1610   14.2690   32.7820 N   0  0  0  0  0  0  0  0  0  0  0  0
   19.3200   13.2220   32.8400 C   0  0  0  0  0  0  0  0  0  0  0  0
   17.9220   13.3170   32.6730 N   0  0  0  0  0  0  0  0  0  0  0  0
   26.3310    6.5470   29.1920 B   0  0  0  0  0  0  0  0  0  0  0  0
   27.2650    4.1640   30.8140 O   0  0  0  0  0  0  0  0  0  0  0  0
   23.4630    6.4590   29.9580 H   0  0  0  0  0  0  0  0  0  0  0  0
   22.0840    2.6800   32.4120 H   0  0  0  0  0  0  0  0  0  0  0  0
   21.0250    4.2950   31.2600 H   0  0  0  0  0  0  0  0  0  0  0  0
   19.2500    5.9230   31.1420 H   0  0  0  0  0  0  0  0  0  0  0  0
   21.4840    8.4840   31.6820 H   0  0  0  0  0  0  0  0  0  0  0  0
   22.1840    9.2830   33.1240 H   0  0  0  0  0  0  0  0  0  0  0  0
   20.7870   10.1960   29.7140 H   0  0  0  0  0  0  0  0  0  0  0  0
   22.4430   10.8220   29.5140 H   0  0  0  0  0  0  0  0  0  0  0  0
   21.7720    7.9340   30.3460 H   0  0  0  0  0  0  0  0  0  0  0  0
   22.4690    8.5420   28.7700 H   0  0  0  0  0  0  0  0  0  0  0  0
   25.1730    9.6730   31.2270 H   0  0  0  0  0  0  0  0  0  0  0  0
   24.4160   10.5000   29.8340 H   0  0  0  0  0  0  0  0  0  0  0  0
   23.6070   11.7180   31.6080 H   0  0  0  0  0  0  0  0  0  0  0  0
   23.6590   10.3270   32.7510 H   0  0  0  0  0  0  0  0  0  0  0  0
   17.5410   14.0550   32.0540 H   0  0  0  0  0  0  0  0  0  0  0  0
   17.2590   12.6760   33.1450 H   0  0  0  0  0  0  0  0  0  0  0  0
   27.9280    4.9030   30.9840 H   0  0  0  0  0  0  0  0  0  0  0  0
  2  7  1  0  0  0  0
  2  1  1  0  0  0  0
  3  2  2  0  0  0  0
  4  5  2  0  0  0  0
  4  3  1  0  0  0  0
  5  6  1  0  0  0  0
  6  9  1  0  0  0  0
  6  7  2  0  0  0  0
  7  8  1  0  0  0  0
  9 10  2  0  0  0  0
 10 11  1  0  0  0  0
 11 12  1  0  0  0  0
 12 14  1  0  0  0  0
 12 13  2  0  0  0  0
 14 15  1  0  0  0  0
 15 16  2  0  0  0  0
 17 16  1  0  0  0  0
 18 14  2  0  0  0  0
 18 17  1  0  0  0  0
 19 18  1  0  0  0  0
 19 39  1  0  0  0  0
 20 25  1  0  0  0  0
 20 19  1  0  0  0  0
 21 20  1  0  0  0  0
 22 21  1  0  0  0  0
 22 42  1  0  0  0  0
 22 23  1  0  0  0  0
 23 24  1  0  0  0  0
 24 44  1  0  0  0  0
 24 25  1  0  0  0  0
 25 47  1  0  0  0  0
 26 27  2  0  0  0  0
 26 17  1  0  0  0  0
 28 27  1  0  0  0  0
 29 30  2  0  0  0  0
 29 28  1  0  0  0  0
 30 26  1  0  0  0  0
 31 30  1  0  0  0  0
 31 49  1  0  0  0  0
 32  4  1  0  0  0  0
 33 50  1  0  0  0  0
 33  3  1  0  0  0  0
 34  5  1  0  0  0  0
 35  8  1  0  0  0  0
 36  9  1  0  0  0  0
 37 11  1  0  0  0  0
 38 19  1  0  0  0  0
 40 21  1  0  0  0  0
 41 21  1  0  0  0  0
 43 22  1  0  0  0  0
 45 24  1  0  0  0  0
 46 25  1  0  0  0  0
 48 31  1  0  0  0  0
M  END
>  <Pose>
1

>  <Score>
-9.00

$$$$
