
 OpenBabel03202209553D

 50 53  0  0  0  0  0  0  0  0999 V2000
   28.6370    6.5890   24.2860 B   0  0  0  0  0  0  0  0  0  0  0  0
   28.2350    7.7460   25.7310 C   0  0  0  0  0  0  0  0  0  0  0  0
   28.4180    9.0920   25.5990 C   0  0  0  0  0  0  0  0  0  0  0  0
   28.1150    9.9170   26.6790 C   0  0  0  0  0  0  0  0  0  0  0  0
   27.6380    9.3570   27.8590 C   0  0  0  0  0  0  0  0  0  0  0  0
   27.4520    8.0080   28.0000 C   0  0  0  0  0  0  0  0  0  0  0  0
   27.7560    7.2040   26.9240 C   0  0  0  0  0  0  0  0  0  0  0  0
   27.5640    5.8400   27.0780 O   0  0  0  0  0  0  0  0  0  0  0  0
   26.9520    7.4420   29.2440 C   0  0  0  0  0  0  0  0  0  0  0  0
   25.7390    7.0500   29.4100 N   0  0  0  0  0  0  0  0  0  0  0  0
   25.3480    6.5030   30.6800 N   0  0  0  0  0  0  0  0  0  0  0  0
   24.1930    5.7340   30.7090 C   0  0  0  0  0  0  0  0  0  0  0  0
   24.2910    4.5300   30.2600 O   0  0  0  0  0  0  0  0  0  0  0  0
   22.8670    6.0930   31.1770 C   0  0  0  0  0  0  0  0  0  0  0  0
   21.7960    5.2390   31.2520 N   0  0  0  0  0  0  0  0  0  0  0  0
   20.7620    5.8820   31.7190 N   0  0  0  0  0  0  0  0  0  0  0  0
   21.0530    7.1460   31.9740 N   0  0  0  0  0  0  0  0  0  0  0  0
   22.3480    7.3030   31.6500 C   0  0  0  0  0  0  0  0  0  0  0  0
   23.1290    8.5410   31.7230 C   0  0  0  0  0  0  0  0  0  0  0  0
   23.6120    9.0270   30.4280 N   0  0  0  0  0  0  0  0  0  0  0  0
   24.7360    9.9540   30.6650 C   0  0  0  0  0  0  0  0  0  0  0  0
   24.3750   10.9200   31.7390 C   0  0  0  0  0  0  0  0  0  0  0  0
   23.1930   11.5440   31.4210 O   0  0  0  0  0  0  0  0  0  0  0  0
   22.7490   11.3000   30.1480 C   0  0  0  0  0  0  0  0  0  0  0  0
   22.5370    9.8460   29.8170 C   0  0  0  0  0  0  0  0  0  0  0  0
   20.1180    8.0930   32.4590 C   0  0  0  0  0  0  0  0  0  0  0  0
   20.1250    9.4380   32.3500 N   0  0  0  0  0  0  0  0  0  0  0  0
   19.0650    9.9350   32.9310 O   0  0  0  0  0  0  0  0  0  0  0  0
   18.3310    8.9770   33.4370 N   0  0  0  0  0  0  0  0  0  0  0  0
   18.9540    7.8190   33.1620 C   0  0  0  0  0  0  0  0  0  0  0  0
   18.4720    6.5480   33.5430 N   0  0  0  0  0  0  0  0  0  0  0  0
   28.3570   11.7910   26.5270 B   0  0  0  0  0  0  0  0  0  0  0  0
   28.8920    9.6700   24.4300 O   0  0  0  0  0  0  0  0  0  0  0  0
   27.4050    9.9920   28.6890 H   0  0  0  0  0  0  0  0  0  0  0  0
   27.0120    5.3240   26.4040 H   0  0  0  0  0  0  0  0  0  0  0  0
   27.6250    7.3370   30.0910 H   0  0  0  0  0  0  0  0  0  0  0  0
   25.9750    6.7380   31.4850 H   0  0  0  0  0  0  0  0  0  0  0  0
   24.0120    8.4290   32.3570 H   0  0  0  0  0  0  0  0  0  0  0  0
   22.4980    9.3520   32.1090 H   0  0  0  0  0  0  0  0  0  0  0  0
   25.6640    9.4000   30.8750 H   0  0  0  0  0  0  0  0  0  0  0  0
   24.8790   10.5030   29.7160 H   0  0  0  0  0  0  0  0  0  0  0  0
   24.2870   10.4600   32.7380 H   0  0  0  0  0  0  0  0  0  0  0  0
   25.1620   11.7300   31.7580 H   0  0  0  0  0  0  0  0  0  0  0  0
   21.7260   11.7810   30.0800 H   0  0  0  0  0  0  0  0  0  0  0  0
   23.3790   11.8240   29.3990 H   0  0  0  0  0  0  0  0  0  0  0  0
   22.6420    9.7520   28.7290 H   0  0  0  0  0  0  0  0  0  0  0  0
   21.5480    9.5430   30.1440 H   0  0  0  0  0  0  0  0  0  0  0  0
   17.4530    6.4180   33.6750 H   0  0  0  0  0  0  0  0  0  0  0  0
   19.0980    5.7360   33.6960 H   0  0  0  0  0  0  0  0  0  0  0  0
   28.3310    9.6890   23.5950 H   0  0  0  0  0  0  0  0  0  0  0  0
  1  2  1  0  0  0  0
  2  7  1  0  0  0  0
  3  2  2  0  0  0  0
  3  4  1  0  0  0  0
  4  5  2  0  0  0  0
  5  6  1  0  0  0  0
  5 34  1  0  0  0  0
  6  9  1  0  0  0  0
  7  8  1  0  0  0  0
  7  6  2  0  0  0  0
  9 10  2  0  0  0  0
  9 36  1  0  0  0  0
 10 11  1  0  0  0  0
 11 12  1  0  0  0  0
 11 37  1  0  0  0  0
 12 14  1  0  0  0  0
 13 12  2  0  0  0  0
 14 15  1  0  0  0  0
 14 18  2  0  0  0  0
 15 16  2  0  0  0  0
 16 17  1  0  0  0  0
 17 26  1  0  0  0  0
 18 19  1  0  0  0  0
 18 17  1  0  0  0  0
 19 39  1  0  0  0  0
 19 38  1  0  0  0  0
 20 21  1  0  0  0  0
 20 19  1  0  0  0  0
 21 40  1  0  0  0  0
 21 22  1  0  0  0  0
 22 43  1  0  0  0  0
 22 42  1  0  0  0  0
 23 22  1  0  0  0  0
 24 23  1  0  0  0  0
 25 47  1  0  0  0  0
 25 24  1  0  0  0  0
 25 20  1  0  0  0  0
 26 30  1  0  0  0  0
 27 26  2  0  0  0  0
 27 28  1  0  0  0  0
 28 29  1  0  0  0  0
 30 29  2  0  0  0  0
 30 31  1  0  0  0  0
 31 48  1  0  0  0  0
 31 49  1  0  0  0  0
 32  4  1  0  0  0  0
 33  3  1  0  0  0  0
 35  8  1  0  0  0  0
 41 21  1  0  0  0  0
 44 24  1  0  0  0  0
 45 24  1  0  0  0  0
 46 25  1  0  0  0  0
 50 33  1  0  0  0  0
M  END
>  <Pose>
1

>  <Score>
-8.92

$$$$
