
 OpenBabel03202209553D

 60 63  0  0  1  0  0  0  0  0999 V2000
   27.8940    9.9380   28.8560 B   0  0  0  0  0  0  0  0  0  0  0  0
   27.7900    8.4480   27.6590 C   0  0  0  0  0  0  0  0  0  0  0  0
   27.0470    7.3310   28.0740 C   0  0  0  0  0  0  0  0  0  0  0  0
   26.9830    6.2830   27.2130 C   0  0  0  0  0  0  0  0  0  0  0  0
   27.6220    6.2980   25.9680 C   0  0  0  0  0  0  0  0  0  0  0  0
   28.3450    7.4040   25.5840 C   0  0  0  0  0  0  0  0  0  0  0  0
   28.4220    8.4800   26.4430 C   0  0  0  0  0  0  0  0  0  0  0  0
   29.2550    7.5380   23.9160 B   0  0  0  0  0  0  0  0  0  0  0  0
   26.0010    4.7350   27.6430 B   0  0  0  0  0  0  0  0  0  0  0  0
   26.4440    7.3550   29.2820 O   0  0  0  0  0  0  0  0  0  0  0  0
   25.4950    6.4110   29.7740 C   0  0  0  0  0  0  0  0  0  0  0  0
   24.4850    7.0800   30.6050 C   0  0  1  0  0  0  0  0  0  0  0  0
   25.1210    7.3920   31.8200 O   0  0  0  0  0  0  0  0  0  0  0  0
   23.4390    7.9640   30.1190 C   0  0  0  0  0  0  0  0  0  0  0  0
   22.3890    8.4370   30.9490 N   0  0  0  0  0  0  0  0  0  0  0  0
   21.4500    7.6660   31.5590 C   0  0  0  0  0  0  0  0  0  0  0  0
   20.6000    8.4640   32.2770 C   0  0  0  0  0  0  0  0  0  0  0  0
   21.0340    9.6930   32.0890 N   0  0  0  0  0  0  0  0  0  0  0  0
   22.1270    9.7160   31.2780 C   0  0  0  0  0  0  0  0  0  0  0  0
   22.7180   10.9480   30.8240 N   0  0  0  0  0  0  0  0  0  0  0  0
   22.0620   12.1650   30.5400 C   0  0  0  0  0  0  0  0  0  0  0  0
   23.1500   13.2130   30.1770 C   0  0  0  0  0  0  0  0  0  0  0  0
   23.7780   12.6890   28.9800 N   0  0  0  0  0  4  0  0  0  0  0  0
   24.7110   11.6750   29.5080 C   0  0  0  0  0  0  0  0  0  0  0  0
   24.1800   10.9520   30.6810 C   0  0  0  0  0  0  0  0  0  0  0  0
   24.5220   13.7130   28.2740 C   0  0  0  0  0  0  0  0  0  0  0  0
   23.7280   15.0000   28.3040 C   0  0  0  0  0  0  0  0  0  0  0  0
   22.9780   15.1030   27.1260 O   0  0  0  0  0  0  0  0  0  0  0  0
   19.5320    8.0030   32.9980 N   0  0  0  0  0  0  0  0  0  0  0  0
   19.3250    6.6800   32.9800 C   0  0  0  0  0  0  0  0  0  0  0  0
   18.3390    6.2570   33.6470 O   0  0  0  0  0  0  0  0  0  0  0  0
   20.1290    5.8530   32.2850 N   0  0  0  0  0  0  0  0  0  0  0  0
   21.1810    6.2920   31.5750 C   0  0  0  0  0  0  0  0  0  0  0  0
   21.9830    5.4250   30.8690 O   0  0  0  0  0  0  0  0  0  0  0  0
   18.7000    8.9450   33.7340 C   0  0  0  0  0  0  0  0  0  0  0  0
   27.5560    5.4560   25.3080 H   0  0  0  0  0  0  0  0  0  0  0  0
   28.9880    9.3810   26.1730 H   0  0  0  0  0  0  0  0  0  0  0  0
   26.1340    5.7970   30.5000 H   0  0  0  0  0  0  0  0  0  0  0  0
   25.1670    5.6760   29.0520 H   0  0  0  0  0  0  0  0  0  0  0  0
   23.8420    6.1290   31.0150 H   0  0  0  0  0  0  0  0  0  0  0  0
   26.0850    7.2650   31.7720 H   0  0  0  0  0  0  0  0  0  0  0  0
   23.8420    8.7880   29.4390 H   0  0  0  0  0  0  0  0  0  0  0  0
   22.9360    7.3310   29.2810 H   0  0  0  0  0  0  0  0  0  0  0  0
   21.5920   12.6470   31.4370 H   0  0  0  0  0  0  0  0  0  0  0  0
   21.4340   12.1560   29.6440 H   0  0  0  0  0  0  0  0  0  0  0  0
   23.8840   13.2980   31.0010 H   0  0  0  0  0  0  0  0  0  0  0  0
   22.7150   14.1840   29.9400 H   0  0  0  0  0  0  0  0  0  0  0  0
   23.1250   12.1690   28.3560 H   0  0  0  0  0  0  0  0  0  0  0  0
   25.1700   11.0760   28.7170 H   0  0  0  0  0  0  0  0  0  0  0  0
   25.5660   12.3160   29.8980 H   0  0  0  0  0  0  0  0  0  0  0  0
   24.5300    9.9040   30.6410 H   0  0  0  0  0  0  0  0  0  0  0  0
   24.5460   11.3520   31.6580 H   0  0  0  0  0  0  0  0  0  0  0  0
   24.6600   13.4410   27.1940 H   0  0  0  0  0  0  0  0  0  0  0  0
   25.4980   13.9270   28.7500 H   0  0  0  0  0  0  0  0  0  0  0  0
   22.9920   14.9920   29.1380 H   0  0  0  0  0  0  0  0  0  0  0  0
   24.3980   15.9030   28.3690 H   0  0  0  0  0  0  0  0  0  0  0  0
   22.1470   14.5560   27.1870 H   0  0  0  0  0  0  0  0  0  0  0  0
   19.0220    8.8320   34.8110 H   0  0  0  0  0  0  0  0  0  0  0  0
   19.0140    9.9720   33.4650 H   0  0  0  0  0  0  0  0  0  0  0  0
   17.6320    8.7630   33.6530 H   0  0  0  0  0  0  0  0  0  0  0  0
  2  3  1  0  0  0  0
  2  1  1  0  0  0  0
  3 10  1  0  0  0  0
  4  9  1  0  0  0  0
  4  3  2  0  0  0  0
  5  4  1  0  0  0  0
  6  5  2  0  0  0  0
  6  7  1  0  0  0  0
  7  2  2  0  0  0  0
  8  6  1  0  0  0  0
 10 11  1  0  0  0  0
 11 38  1  0  0  0  0
 11 12  1  0  0  0  0
 12 40  1  1  0  0  0
 12 13  1  0  0  0  0
 14 12  1  0  0  0  0
 14 15  1  0  0  0  0
 15 19  1  0  0  0  0
 15 16  1  0  0  0  0
 16 33  1  0  0  0  0
 16 17  2  0  0  0  0
 17 29  1  0  0  0  0
 18 17  1  0  0  0  0
 19 18  2  0  0  0  0
 20 19  1  0  0  0  0
 21 20  1  0  0  0  0
 21 44  1  0  0  0  0
 22 21  1  0  0  0  0
 22 46  1  0  0  0  0
 23 24  1  0  0  0  0
 23 22  1  0  0  0  0
 24 50  1  0  0  0  0
 24 25  1  0  0  0  0
 25 20  1  0  0  0  0
 25 52  1  0  0  0  0
 26 27  1  0  0  0  0
 26 54  1  0  0  0  0
 26 23  1  0  0  0  0
 27 56  1  0  0  0  0
 27 55  1  0  0  0  0
 28 57  1  0  0  0  0
 28 27  1  0  0  0  0
 29 35  1  0  0  0  0
 30 29  1  0  0  0  0
 30 31  2  0  0  0  0
 32 30  1  0  0  0  0
 33 32  1  0  0  0  0
 34 33  2  0  0  0  0
 35 58  1  0  0  0  0
 36  5  1  0  0  0  0
 37  7  1  0  0  0  0
 39 11  1  0  0  0  0
 41 13  1  0  0  0  0
 42 14  1  0  0  0  0
 43 14  1  0  0  0  0
 45 21  1  0  0  0  0
 47 22  1  0  0  0  0
 48 23  1  0  0  0  0
 49 24  1  0  0  0  0
 51 25  1  0  0  0  0
 53 26  1  0  0  0  0
 59 35  1  0  0  0  0
 60 35  1  0  0  0  0
M  END
>  <Pose>
1

>  <Score>
-9.61

$$$$
