
 OpenBabel03202209553D

 43 46  0  0  0  0  0  0  0  0999 V2000
   23.5720   16.0470   33.7390 B   0  0  0  0  0  0  0  0  0  0  0  0
   22.4310   15.1850   32.4910 C   0  0  0  0  0  0  0  0  0  0  0  0
   22.8940   14.0700   31.8260 C   0  0  0  0  0  0  0  0  0  0  0  0
   22.0870   13.4410   30.9280 C   0  0  0  0  0  0  0  0  0  0  0  0
   20.7930   13.9020   30.6610 C   0  0  0  0  0  0  0  0  0  0  0  0
   20.3570   15.0150   31.3380 C   0  0  0  0  0  0  0  0  0  0  0  0
   21.1550   15.6630   32.2480 C   0  0  0  0  0  0  0  0  0  0  0  0
   18.5960   15.6880   31.0120 B   0  0  0  0  0  0  0  0  0  0  0  0
   22.5630   12.2670   30.2230 C   0  0  0  0  0  0  0  0  0  0  0  0
   21.7920   11.2540   30.1090 N   0  0  0  0  0  0  0  0  0  0  0  0
   22.1460   10.0840   29.4580 N   0  0  0  0  0  0  0  0  0  0  0  0
   22.7300    8.9570   30.0860 C   0  0  0  0  0  0  0  0  0  0  0  0
   23.5750    8.3150   29.4200 O   0  0  0  0  0  0  0  0  0  0  0  0
   22.3980    8.5350   31.4250 C   0  0  0  0  0  0  0  0  0  0  0  0
   21.6560    7.3180   31.5400 N   0  0  0  0  0  0  0  0  0  0  0  0
   21.9810    6.0980   31.0370 C   0  0  0  0  0  0  0  0  0  0  0  0
   21.0150    5.1850   31.3580 C   0  0  0  0  0  0  0  0  0  0  0  0
   20.1000    5.8700   32.0620 N   0  0  0  0  0  0  0  0  0  0  0  0
   20.4900    7.1790   32.1760 C   0  0  0  0  0  0  0  0  0  0  0  0
   19.7200    8.1970   32.8800 C   0  0  0  0  0  0  0  0  0  0  0  0
   20.1200    9.4530   33.1140 N   0  0  0  0  0  0  0  0  0  0  0  0
   19.1670   10.0880   33.7740 O   0  0  0  0  0  0  0  0  0  0  0  0
   18.1620    9.2960   33.9810 N   0  0  0  0  0  0  0  0  0  0  0  0
   18.4650    8.0970   33.4360 C   0  0  0  0  0  0  0  0  0  0  0  0
   17.6440    6.9440   33.4340 N   0  0  0  0  0  4  0  0  0  0  0  0
   21.1670    3.8820   30.9340 C   0  0  0  0  0  0  0  0  0  0  0  0
   22.2650    3.4730   30.1960 C   0  0  0  0  0  0  0  0  0  0  0  0
   23.2270    4.4190   29.8870 C   0  0  0  0  0  0  0  0  0  0  0  0
   23.0770    5.7250   30.3100 C   0  0  0  0  0  0  0  0  0  0  0  0
   24.1710   13.6010   32.0770 O   0  0  0  0  0  0  0  0  0  0  0  0
   20.1410   13.4150   29.9540 H   0  0  0  0  0  0  0  0  0  0  0  0
   20.8450   16.5380   32.7950 H   0  0  0  0  0  0  0  0  0  0  0  0
   23.5500   12.2010   29.7820 H   0  0  0  0  0  0  0  0  0  0  0  0
   21.9730   10.0240   28.4310 H   0  0  0  0  0  0  0  0  0  0  0  0
   23.3230    8.3790   32.0630 H   0  0  0  0  0  0  0  0  0  0  0  0
   21.8690    9.3560   31.9490 H   0  0  0  0  0  0  0  0  0  0  0  0
   17.9180    6.2600   32.7160 H   0  0  0  0  0  0  0  0  0  0  0  0
   16.6750    7.2760   33.1750 H   0  0  0  0  0  0  0  0  0  0  0  0
   17.5680    6.4970   34.3850 H   0  0  0  0  0  0  0  0  0  0  0  0
   20.3920    3.1620   31.1950 H   0  0  0  0  0  0  0  0  0  0  0  0
   22.3560    2.4290   29.8750 H   0  0  0  0  0  0  0  0  0  0  0  0
   24.0880    4.1030   29.3090 H   0  0  0  0  0  0  0  0  0  0  0  0
   23.8190    6.4850   30.0790 H   0  0  0  0  0  0  0  0  0  0  0  0
  2  1  1  0  0  0  0
  3 30  1  0  0  0  0
  3  2  2  0  0  0  0
  4  3  1  0  0  0  0
  5  4  2  0  0  0  0
  5  6  1  0  0  0  0
  6  7  2  0  0  0  0
  7  2  1  0  0  0  0
  7 32  1  0  0  0  0
  8  6  1  0  0  0  0
  9  4  1  0  0  0  0
 10  9  2  0  0  0  0
 11 12  1  0  0  0  0
 11 10  1  0  0  0  0
 12 14  1  0  0  0  0
 13 12  2  0  0  0  0
 14 15  1  0  0  0  0
 14 36  1  0  0  0  0
 14 35  1  0  0  0  0
 15 19  1  0  0  0  0
 16 17  1  0  0  0  0
 16 15  1  0  0  0  0
 17 18  1  0  0  0  0
 18 19  2  0  0  0  0
 19 20  1  0  0  0  0
 20 21  2  0  0  0  0
 20 24  1  0  0  0  0
 21 22  1  0  0  0  0
 22 23  1  0  0  0  0
 24 23  2  0  0  0  0
 25 24  1  0  0  0  0
 25 39  1  0  0  0  0
 26 40  1  0  0  0  0
 26 17  2  0  0  0  0
 27 26  1  0  0  0  0
 28 27  2  0  0  0  0
 28 29  1  0  0  0  0
 29 16  2  0  0  0  0
 31  5  1  0  0  0  0
 33  9  1  0  0  0  0
 34 11  1  0  0  0  0
 37 25  1  0  0  0  0
 38 25  1  0  0  0  0
 41 27  1  0  0  0  0
 42 28  1  0  0  0  0
 43 29  1  0  0  0  0
M  END
>  <Pose>
1

>  <Score>
-7.87

$$$$
