
 OpenBabel03202209553D

 50 53  0  0  0  0  0  0  0  0999 V2000
   31.3210   13.5250   25.6190 B   0  0  0  0  0  0  0  0  0  0  0  0
   29.5230   13.8020   26.1600 C   0  0  0  0  0  0  0  0  0  0  0  0
   28.8860   14.9890   25.8710 C   0  0  0  0  0  0  0  0  0  0  0  0
   27.5520   15.1810   26.3030 C   0  0  0  0  0  0  0  0  0  0  0  0
   26.9610   14.1640   26.9950 C   0  0  0  0  0  0  0  0  0  0  0  0
   27.5710   12.9420   27.3130 C   0  0  0  0  0  0  0  0  0  0  0  0
   28.8670   12.8120   26.8650 C   0  0  0  0  0  0  0  0  0  0  0  0
   26.8600   11.9610   28.0570 C   0  0  0  0  0  0  0  0  0  0  0  0
   26.0790   11.9950   28.9430 N   0  0  0  0  0  0  0  0  0  0  0  0
   25.2700   12.1240   29.8640 N   0  0  0  0  0  0  0  0  0  0  0  0
   24.3820   12.2680   30.8800 C   0  0  0  0  0  0  0  0  0  0  0  0
   24.4230   12.2270   32.1070 O   0  0  0  0  0  0  0  0  0  0  0  0
   22.9640   12.5540   30.3380 C   0  0  0  0  0  0  0  0  0  0  0  0
   22.0300   12.7340   31.3720 N   0  0  0  0  0  0  0  0  0  0  0  0
   21.3560   11.6390   31.8890 C   0  0  0  0  0  0  0  0  0  0  0  0
   20.5170   12.1010   32.8330 C   0  0  0  0  0  0  0  0  0  0  0  0
   20.6740   13.4150   32.8820 N   0  0  0  0  0  0  0  0  0  0  0  0
   21.6290   13.8270   31.9640 C   0  0  0  0  0  0  0  0  0  0  0  0
   21.8860   15.2550   31.9030 C   0  0  0  0  0  0  0  0  0  0  0  0
   21.3670   16.0630   30.8940 N   0  0  0  0  0  0  0  0  0  0  0  0
   21.7100   17.2740   31.0710 O   0  0  0  0  0  0  0  0  0  0  0  0
   22.4260   17.3860   32.1160 N   0  0  0  0  0  0  0  0  0  0  0  0
   22.5590   16.1330   32.6720 C   0  0  0  0  0  0  0  0  0  0  0  0
   23.2820   15.9200   33.8650 N   0  0  0  0  0  4  0  0  0  0  0  0
   19.6770   11.2720   33.5600 C   0  0  0  0  0  0  0  0  0  0  0  0
   19.7410    9.9300   33.2700 C   0  0  0  0  0  0  0  0  0  0  0  0
   20.5860    9.4020   32.3130 C   0  0  0  0  0  0  0  0  0  0  0  0
   21.4070   10.2820   31.6110 C   0  0  0  0  0  0  0  0  0  0  0  0
   26.9390   16.3830   26.0010 O   0  0  0  0  0  0  0  0  0  0  0  0
   26.0670   16.5390   24.9350 C   0  0  0  0  0  0  0  0  0  0  0  0
   25.1230   17.7060   25.0150 C   0  0  0  0  0  0  0  0  0  0  0  0
   29.4740   16.0110   25.1830 O   0  0  0  0  0  0  0  0  0  0  0  0
   25.9510   14.2780   27.3480 H   0  0  0  0  0  0  0  0  0  0  0  0
   29.4060   11.8640   27.0670 H   0  0  0  0  0  0  0  0  0  0  0  0
   27.0240   10.8550   27.7940 H   0  0  0  0  0  0  0  0  0  0  0  0
   26.1550   12.9470   30.5820 H   0  0  0  0  0  0  0  0  0  0  0  0
   22.6770   11.5940   29.7860 H   0  0  0  0  0  0  0  0  0  0  0  0
   23.0620   13.3450   29.6180 H   0  0  0  0  0  0  0  0  0  0  0  0
   22.9030   15.0130   34.3320 H   0  0  0  0  0  0  0  0  0  0  0  0
   23.0560   16.6500   34.5500 H   0  0  0  0  0  0  0  0  0  0  0  0
   24.2540   15.6810   33.6810 H   0  0  0  0  0  0  0  0  0  0  0  0
   19.0300   11.7150   34.3100 H   0  0  0  0  0  0  0  0  0  0  0  0
   19.0880    9.2320   33.8290 H   0  0  0  0  0  0  0  0  0  0  0  0
   20.5950    8.3410   32.1200 H   0  0  0  0  0  0  0  0  0  0  0  0
   22.0860    9.9260   30.8590 H   0  0  0  0  0  0  0  0  0  0  0  0
   26.6620   16.6080   23.9590 H   0  0  0  0  0  0  0  0  0  0  0  0
   25.4320   15.6160   24.7700 H   0  0  0  0  0  0  0  0  0  0  0  0
   24.0940   17.3380   24.8920 H   0  0  0  0  0  0  0  0  0  0  0  0
   25.2490   18.2310   25.9540 H   0  0  0  0  0  0  0  0  0  0  0  0
   25.2870   18.3830   24.1230 H   0  0  0  0  0  0  0  0  0  0  0  0
  1  2  1  0  0  0  0
  2  7  1  0  0  0  0
  3  2  2  0  0  0  0
  3  4  1  0  0  0  0
  4  5  2  0  0  0  0
  5  6  1  0  0  0  0
  5 33  1  0  0  0  0
  6  8  1  0  0  0  0
  7 34  1  0  0  0  0
  7  6  2  0  0  0  0
  8  9  1  0  0  0  0
  9 10  1  0  0  0  0
 10 36  1  0  0  0  0
 10 11  1  0  0  0  0
 11 12  2  0  0  0  0
 13 11  1  0  0  0  0
 13 14  1  0  0  0  0
 14 15  1  0  0  0  0
 14 18  1  0  0  0  0
 15 16  1  0  0  0  0
 16 17  1  0  0  0  0
 16 25  2  0  0  0  0
 18 17  2  0  0  0  0
 19 18  1  0  0  0  0
 19 23  1  0  0  0  0
 20 21  1  0  0  0  0
 20 19  2  0  0  0  0
 21 22  1  0  0  0  0
 22 23  2  0  0  0  0
 23 24  1  0  0  0  0
 24 39  1  0  0  0  0
 24 40  1  0  0  0  0
 25 42  1  0  0  0  0
 26 25  1  0  0  0  0
 26 43  1  0  0  0  0
 27 26  2  0  0  0  0
 28 15  2  0  0  0  0
 28 27  1  0  0  0  0
 29  4  1  0  0  0  0
 30 31  1  0  0  0  0
 30 29  1  0  0  0  0
 31 49  1  0  0  0  0
 32  3  1  0  0  0  0
 35  8  1  0  0  0  0
 37 13  1  0  0  0  0
 38 13  1  0  0  0  0
 41 24  1  0  0  0  0
 44 27  1  0  0  0  0
 45 28  1  0  0  0  0
 46 30  1  0  0  0  0
 47 30  1  0  0  0  0
 48 31  1  0  0  0  0
 50 31  1  0  0  0  0
M  END
>  <Pose>
1

>  <Score>
-7.74

$$$$
