
 OpenBabel03202209553D

 56 59  0  0  0  0  0  0  0  0999 V2000
   26.4660    4.4010   27.8350 B   0  0  0  0  0  0  0  0  0  0  0  0
   27.4220    5.9160   28.4860 C   0  0  0  0  0  0  0  0  0  0  0  0
   28.7470    5.8200   28.8970 C   0  0  0  0  0  0  0  0  0  0  0  0
   29.4440    6.9090   29.3680 C   0  0  0  0  0  0  0  0  0  0  0  0
   28.7810    8.1120   29.4220 C   0  0  0  0  0  0  0  0  0  0  0  0
   27.4610    8.2440   29.0210 C   0  0  0  0  0  0  0  0  0  0  0  0
   26.8020    7.1280   28.5560 C   0  0  0  0  0  0  0  0  0  0  0  0
   26.7340    9.5030   29.0670 C   0  0  0  0  0  0  0  0  0  0  0  0
   27.3330   10.6330   28.9850 N   0  0  0  0  0  0  0  0  0  0  0  0
   26.7290   11.8650   29.0190 N   0  0  0  0  0  0  0  0  0  0  0  0
   25.6710   12.2680   28.1730 C   0  0  0  0  0  0  0  0  0  0  0  0
   24.9690   11.3970   27.6230 O   0  0  0  0  0  0  0  0  0  0  0  0
   25.3770   13.6730   27.9260 C   0  0  0  0  0  0  0  0  0  0  0  0
   26.0290   14.5430   27.1440 N   0  0  0  0  0  0  0  0  0  0  0  0
   25.4380   15.7110   27.1990 N   0  0  0  0  0  0  0  0  0  0  0  0
   24.3710   15.6660   28.0180 N   0  0  0  0  0  0  0  0  0  0  0  0
   24.3150   14.4130   28.4790 C   0  0  0  0  0  0  0  0  0  0  0  0
   23.3350   13.8060   29.3820 C   0  0  0  0  0  0  0  0  0  0  0  0
   23.7530   13.5790   30.7430 N   0  0  0  0  0  0  0  0  0  0  0  0
   22.5930   13.9710   31.5540 C   0  0  0  0  0  0  0  0  0  0  0  0
   21.3650   13.1900   31.3050 C   0  0  0  0  0  0  0  0  0  0  0  0
   21.6580   11.8800   30.9580 O   0  0  0  0  0  0  0  0  0  0  0  0
   22.8040   11.5010   31.6240 C   0  0  0  0  0  0  0  0  0  0  0  0
   23.9950   12.1490   30.9460 C   0  0  0  0  0  0  0  0  0  0  0  0
   23.5190   16.7910   28.2550 C   0  0  0  0  0  0  0  0  0  0  0  0
   22.9350   17.1810   29.3990 N   0  0  0  0  0  0  0  0  0  0  0  0
   22.2400   18.2720   29.1780 O   0  0  0  0  0  0  0  0  0  0  0  0
   22.3370   18.6280   27.9190 N   0  0  0  0  0  0  0  0  0  0  0  0
   23.1300   17.7210   27.3210 C   0  0  0  0  0  0  0  0  0  0  0  0
   23.4770   17.7720   25.9460 N   0  0  0  0  0  0  0  0  0  0  0  0
   30.7510    6.7400   29.7570 O   0  0  0  0  0  0  0  0  0  0  0  0
   31.3200    7.1190   30.9670 C   0  0  0  0  0  0  0  0  0  0  0  0
   30.9050    6.2980   32.1450 C   0  0  0  0  0  0  0  0  0  0  0  0
   29.3660    4.5750   28.8200 O   0  0  0  0  0  0  0  0  0  0  0  0
   29.3090    8.9780   29.7880 H   0  0  0  0  0  0  0  0  0  0  0  0
   25.7580    7.2150   28.2350 H   0  0  0  0  0  0  0  0  0  0  0  0
   25.6580    9.4950   29.1730 H   0  0  0  0  0  0  0  0  0  0  0  0
   27.0880   12.5590   29.7360 H   0  0  0  0  0  0  0  0  0  0  0  0
   23.0130   12.8130   28.9690 H   0  0  0  0  0  0  0  0  0  0  0  0
   22.3690   14.4010   29.3740 H   0  0  0  0  0  0  0  0  0  0  0  0
   22.9030   13.8920   32.5970 H   0  0  0  0  0  0  0  0  0  0  0  0
   22.3960   15.0360   31.2460 H   0  0  0  0  0  0  0  0  0  0  0  0
   20.8550   13.6320   30.3990 H   0  0  0  0  0  0  0  0  0  0  0  0
   20.6140   13.2530   32.1190 H   0  0  0  0  0  0  0  0  0  0  0  0
   22.9860   10.4070   31.5880 H   0  0  0  0  0  0  0  0  0  0  0  0
   22.7350   11.8670   32.6670 H   0  0  0  0  0  0  0  0  0  0  0  0
   24.1280   11.6390   29.9830 H   0  0  0  0  0  0  0  0  0  0  0  0
   24.8390   12.0190   31.6410 H   0  0  0  0  0  0  0  0  0  0  0  0
   23.7260   18.6470   25.4410 H   0  0  0  0  0  0  0  0  0  0  0  0
   23.4980   16.8950   25.3640 H   0  0  0  0  0  0  0  0  0  0  0  0
   32.4380    7.1220   30.9120 H   0  0  0  0  0  0  0  0  0  0  0  0
   31.0140    8.1770   31.1650 H   0  0  0  0  0  0  0  0  0  0  0  0
   30.3860    6.9160   32.9310 H   0  0  0  0  0  0  0  0  0  0  0  0
   31.7490    5.7710   32.6470 H   0  0  0  0  0  0  0  0  0  0  0  0
   30.1480    5.5500   31.8180 H   0  0  0  0  0  0  0  0  0  0  0  0
   29.3540    4.0610   27.9470 H   0  0  0  0  0  0  0  0  0  0  0  0
  1  2  1  0  0  0  0
  2  7  2  0  0  0  0
  2  3  1  0  0  0  0
  3  4  2  0  0  0  0
  4  5  1  0  0  0  0
  4 31  1  0  0  0  0
  5 35  1  0  0  0  0
  6  8  1  0  0  0  0
  6  5  2  0  0  0  0
  7  6  1  0  0  0  0
  8 37  1  0  0  0  0
  9 10  1  0  0  0  0
  9  8  2  0  0  0  0
 10 38  1  0  0  0  0
 11 10  1  0  0  0  0
 12 11  2  0  0  0  0
 13 11  1  0  0  0  0
 13 17  2  0  0  0  0
 14 15  2  0  0  0  0
 14 13  1  0  0  0  0
 15 16  1  0  0  0  0
 16 25  1  0  0  0  0
 16 17  1  0  0  0  0
 17 18  1  0  0  0  0
 18 19  1  0  0  0  0
 19 24  1  0  0  0  0
 19 20  1  0  0  0  0
 20 41  1  0  0  0  0
 21 20  1  0  0  0  0
 21 44  1  0  0  0  0
 22 21  1  0  0  0  0
 22 23  1  0  0  0  0
 23 46  1  0  0  0  0
 24 23  1  0  0  0  0
 24 48  1  0  0  0  0
 25 26  2  0  0  0  0
 27 26  1  0  0  0  0
 28 27  1  0  0  0  0
 29 28  2  0  0  0  0
 29 25  1  0  0  0  0
 30 29  1  0  0  0  0
 31 32  1  0  0  0  0
 32 52  1  0  0  0  0
 32 33  1  0  0  0  0
 33 54  1  0  0  0  0
 33 53  1  0  0  0  0
 34  3  1  0  0  0  0
 36  7  1  0  0  0  0
 39 18  1  0  0  0  0
 40 18  1  0  0  0  0
 42 20  1  0  0  0  0
 43 21  1  0  0  0  0
 45 23  1  0  0  0  0
 47 24  1  0  0  0  0
 49 30  1  0  0  0  0
 50 30  1  0  0  0  0
 51 32  1  0  0  0  0
 55 33  1  0  0  0  0
 56 34  1  0  0  0  0
M  END
>  <Pose>
1

>  <Score>
-8.28

$$$$
