
 OpenBabel03202209553D

 58 61  0  0  0  0  0  0  0  0999 V2000
   24.5580    6.8990   30.3870 B   0  0  0  0  0  0  0  0  0  0  0  0
   23.3500    8.2640   30.9860 C   0  0  0  0  0  0  0  0  0  0  0  0
   22.1460    7.9070   31.5270 C   0  0  0  0  0  0  0  0  0  0  0  0
   21.2630    8.9000   31.9460 C   0  0  0  0  0  0  0  0  0  0  0  0
   21.6040   10.2390   31.8090 C   0  0  0  0  0  0  0  0  0  0  0  0
   22.7980   10.6070   31.2610 C   0  0  0  0  0  0  0  0  0  0  0  0
   23.6510    9.6030   30.8610 C   0  0  0  0  0  0  0  0  0  0  0  0
   23.1570   11.9850   30.8670 C   0  0  0  0  0  0  0  0  0  0  0  0
   22.8000   12.6240   29.9660 N   0  0  0  0  0  0  0  0  0  0  0  0
   22.4110   13.3600   28.9560 N   0  0  0  0  0  0  0  0  0  0  0  0
   23.5370   14.1930   28.4730 C   0  0  0  0  0  0  0  0  0  0  0  0
   23.4120   15.4310   28.0340 N   0  0  0  0  0  4  0  0  0  0  0  0
   24.4500   16.0660   27.4190 C   0  0  0  0  0  0  0  0  0  0  0  0
   25.5910   15.3470   27.2950 N   0  0  0  0  0  0  0  0  0  0  0  0
   25.7770   14.0840   27.7240 C   0  0  0  0  0  0  0  0  0  0  0  0
   24.7090   13.5170   28.3280 N   0  0  0  0  0  0  0  0  0  0  0  0
   26.9200   13.3620   27.4290 N   0  0  0  0  0  0  0  0  0  0  0  0
   28.2070   13.8100   27.0600 C   0  0  0  0  0  0  0  0  0  0  0  0
   28.4760   13.2570   25.6570 C   0  0  0  0  0  0  0  0  0  0  0  0
   28.3130   11.8910   25.7090 O   0  0  0  0  0  0  0  0  0  0  0  0
   27.0550   11.4540   26.0560 C   0  0  0  0  0  0  0  0  0  0  0  0
   26.7680   11.8790   27.5250 C   0  0  0  0  0  0  0  0  0  0  0  0
   24.3300   17.3590   26.8570 N   0  0  0  0  0  0  0  0  0  0  0  0
   23.5050   18.3710   27.5360 C   0  0  0  0  0  0  0  0  0  0  0  0
   22.6420   18.9980   26.4110 C   0  0  0  0  0  0  0  0  0  0  0  0
   23.5360   19.6760   25.6320 O   0  0  0  0  0  0  0  0  0  0  0  0
   24.3740   18.8670   24.9170 C   0  0  0  0  0  0  0  0  0  0  0  0
   24.9570   17.6950   25.6360 C   0  0  0  0  0  0  0  0  0  0  0  0
   20.0940    8.4560   32.4790 O   0  0  0  0  0  0  0  0  0  0  0  0
   19.1710    9.1230   33.2650 C   0  0  0  0  0  0  0  0  0  0  0  0
   17.9290    8.2920   33.5530 C   0  0  0  0  0  0  0  0  0  0  0  0
   21.8500    6.5650   31.6390 O   0  0  0  0  0  0  0  0  0  0  0  0
   20.9490   11.0150   32.1470 H   0  0  0  0  0  0  0  0  0  0  0  0
   24.6150    9.8310   30.4540 H   0  0  0  0  0  0  0  0  0  0  0  0
   23.8870   12.5020   31.5360 H   0  0  0  0  0  0  0  0  0  0  0  0
   21.5520   13.4670   28.4530 H   0  0  0  0  0  0  0  0  0  0  0  0
   28.4120   14.8790   27.0910 H   0  0  0  0  0  0  0  0  0  0  0  0
   28.9360   13.2540   27.7470 H   0  0  0  0  0  0  0  0  0  0  0  0
   29.5620   13.4270   25.4480 H   0  0  0  0  0  0  0  0  0  0  0  0
   27.8220   13.7740   24.9510 H   0  0  0  0  0  0  0  0  0  0  0  0
   27.0190   10.3760   26.0560 H   0  0  0  0  0  0  0  0  0  0  0  0
   26.2380   11.8220   25.3940 H   0  0  0  0  0  0  0  0  0  0  0  0
   25.7670   11.6220   27.7850 H   0  0  0  0  0  0  0  0  0  0  0  0
   27.5590   11.5260   28.1720 H   0  0  0  0  0  0  0  0  0  0  0  0
   22.8030   17.9160   28.2360 H   0  0  0  0  0  0  0  0  0  0  0  0
   24.1030   19.1020   28.0460 H   0  0  0  0  0  0  0  0  0  0  0  0
   21.9140   19.6550   26.8670 H   0  0  0  0  0  0  0  0  0  0  0  0
   22.1650   18.1280   25.8900 H   0  0  0  0  0  0  0  0  0  0  0  0
   25.2370   19.5040   24.5490 H   0  0  0  0  0  0  0  0  0  0  0  0
   23.8680   18.5370   23.9880 H   0  0  0  0  0  0  0  0  0  0  0  0
   26.0570   17.8320   25.7960 H   0  0  0  0  0  0  0  0  0  0  0  0
   24.8310   16.7910   24.9580 H   0  0  0  0  0  0  0  0  0  0  0  0
   19.6860    9.3010   34.2690 H   0  0  0  0  0  0  0  0  0  0  0  0
   18.8620   10.0750   32.8500 H   0  0  0  0  0  0  0  0  0  0  0  0
   17.8760    7.3830   32.9480 H   0  0  0  0  0  0  0  0  0  0  0  0
   17.0260    8.9320   33.3840 H   0  0  0  0  0  0  0  0  0  0  0  0
   17.9150    8.0070   34.6340 H   0  0  0  0  0  0  0  0  0  0  0  0
   21.6920    6.0980   32.4990 H   0  0  0  0  0  0  0  0  0  0  0  0
  1  2  1  0  0  0  0
  2  3  1  0  0  0  0
  3 32  1  0  0  0  0
  3  4  2  0  0  0  0
  4 29  1  0  0  0  0
  5  4  1  0  0  0  0
  5 33  1  0  0  0  0
  6  5  2  0  0  0  0
  7  2  2  0  0  0  0
  7  6  1  0  0  0  0
  8  6  1  0  0  0  0
  8 35  1  0  0  0  0
  9  8  1  0  0  0  0
 10  9  1  0  0  0  0
 11 10  1  0  0  0  0
 12 11  2  0  0  0  0
 13 12  2  0  0  0  0
 14 13  1  0  0  0  0
 14 15  2  0  0  0  0
 15 16  1  0  0  0  0
 16 11  1  0  0  0  0
 17 22  1  0  0  0  0
 17 15  1  0  0  0  0
 18 37  1  0  0  0  0
 18 17  1  0  0  0  0
 18 38  1  0  0  0  0
 19 20  1  0  0  0  0
 19 18  1  0  0  0  0
 20 21  1  0  0  0  0
 21 41  1  0  0  0  0
 21 22  1  0  0  0  0
 22 43  1  0  0  0  0
 22 44  1  0  0  0  0
 23 13  1  0  0  0  0
 23 24  1  0  0  0  0
 24 46  1  0  0  0  0
 24 45  1  0  0  0  0
 25 47  1  0  0  0  0
 25 24  1  0  0  0  0
 26 25  1  0  0  0  0
 27 26  1  0  0  0  0
 27 28  1  0  0  0  0
 28 51  1  0  0  0  0
 28 23  1  0  0  0  0
 29 30  1  0  0  0  0
 30 31  1  0  0  0  0
 30 53  1  0  0  0  0
 31 57  1  0  0  0  0
 32 58  1  0  0  0  0
 34  7  1  0  0  0  0
 36 10  1  0  0  0  0
 39 19  1  0  0  0  0
 40 19  1  0  0  0  0
 42 21  1  0  0  0  0
 48 25  1  0  0  0  0
 49 27  1  0  0  0  0
 50 27  1  0  0  0  0
 52 28  1  0  0  0  0
 54 30  1  0  0  0  0
 55 31  1  0  0  0  0
 56 31  1  0  0  0  0
M  END
>  <Pose>
1

>  <Score>
-8.12

$$$$
