
 OpenBabel03202209553D

 64 67  0  0  1  0  0  0  0  0999 V2000
   23.1640    5.3120   30.6990 B   0  0  0  0  0  0  0  0  0  0  0  0
   22.0370    6.6880   31.3550 C   0  0  0  0  0  0  0  0  0  0  0  0
   20.9810    6.3470   32.2130 C   0  0  0  0  0  0  0  0  0  0  0  0
   20.1540    7.3540   32.6930 C   0  0  0  0  0  0  0  0  0  0  0  0
   20.3990    8.6320   32.3160 C   0  0  0  0  0  0  0  0  0  0  0  0
   21.4430    8.9670   31.4680 C   0  0  0  0  0  0  0  0  0  0  0  0
   22.2770    7.9930   30.9770 C   0  0  0  0  0  0  0  0  0  0  0  0
   21.5820   10.4090   31.1350 C   0  0  1  0  0  0  0  0  0  0  0  0
   21.4900   11.1450   32.3790 N   0  0  0  0  0  0  0  0  0  0  0  0
   22.7370   11.6380   32.7780 C   0  0  0  0  0  0  0  0  0  0  0  0
   22.9940   12.1950   33.8560 O   0  0  0  0  0  0  0  0  0  0  0  0
   23.6850   11.3760   31.6950 C   0  0  0  0  0  0  0  0  0  0  0  0
   24.8980   11.7020   31.7600 O   0  0  0  0  0  0  0  0  0  0  0  0
   22.9690   10.7120   30.6260 C   0  0  0  0  0  0  0  0  0  0  0  0
   23.4720   10.4010   29.4620 C   0  0  0  0  0  0  0  0  0  0  0  0
   22.6990    9.7060   28.5450 O   0  0  0  0  0  0  0  0  0  0  0  0
   24.8160   10.7640   29.0850 C   0  0  0  0  0  0  0  0  0  0  0  0
   24.9300   12.0060   28.4470 C   0  0  0  0  0  0  0  0  0  0  0  0
   26.1540   12.4970   28.0650 C   0  0  0  0  0  0  0  0  0  0  0  0
   27.2960   11.7680   28.3030 C   0  0  0  0  0  0  0  0  0  0  0  0
   27.1570   10.5450   28.9330 C   0  0  0  0  0  0  0  0  0  0  0  0
   25.9380   10.0370   29.3260 C   0  0  0  0  0  0  0  0  0  0  0  0
   28.3950   12.5020   27.8120 O   0  0  0  0  0  0  0  0  0  0  0  0
   27.9070   13.5020   26.9230 C   0  0  2  0  0  0  0  0  0  0  0  0
   26.4910   13.7820   27.3710 C   0  0  0  0  0  0  0  0  0  0  0  0
   27.8450   13.0090   25.4900 C   0  0  0  0  0  0  0  0  0  0  0  0
   20.2260   11.3030   33.0680 C   0  0  0  0  0  0  0  0  0  0  0  0
   19.8190   12.6780   33.3920 C   0  0  0  0  0  0  0  0  0  0  0  0
   19.7000   13.6510   32.2780 C   0  0  0  0  0  0  0  0  0  0  0  0
   20.8370   14.5260   32.1310 N   0  0  0  0  0  4  0  0  0  0  0  0
   20.3790   15.8200   31.6050 C   0  0  0  0  0  0  0  0  0  0  0  0
   21.7020   13.9400   31.1230 C   0  0  0  0  0  0  0  0  0  0  0  0
   19.1010    7.0190   33.5480 O   0  0  0  0  0  0  0  0  0  0  0  0
   17.8230    7.5870   33.4520 C   0  0  0  0  0  0  0  0  0  0  0  0
   20.7450    5.0480   32.5870 O   0  0  0  0  0  0  0  0  0  0  0  0
   19.7260    9.4040   32.7140 H   0  0  0  0  0  0  0  0  0  0  0  0
   23.0890    8.2770   30.3160 H   0  0  0  0  0  0  0  0  0  0  0  0
   20.8070   10.7530   30.4220 H   0  0  0  0  0  0  0  0  0  0  0  0
   24.0350   12.6180   28.2420 H   0  0  0  0  0  0  0  0  0  0  0  0
   28.0530    9.9410   29.1370 H   0  0  0  0  0  0  0  0  0  0  0  0
   25.8390    9.0890   29.8400 H   0  0  0  0  0  0  0  0  0  0  0  0
   28.4770   14.4410   26.9680 H   0  0  0  0  0  0  0  0  0  0  0  0
   25.8010   13.9520   26.4920 H   0  0  0  0  0  0  0  0  0  0  0  0
   26.3900   14.6590   28.0170 H   0  0  0  0  0  0  0  0  0  0  0  0
   27.8650   11.8920   25.4870 H   0  0  0  0  0  0  0  0  0  0  0  0
   28.6590   13.4530   24.8760 H   0  0  0  0  0  0  0  0  0  0  0  0
   26.8920   13.3140   25.0410 H   0  0  0  0  0  0  0  0  0  0  0  0
   19.4420   10.8280   32.4450 H   0  0  0  0  0  0  0  0  0  0  0  0
   20.2320   10.6560   34.0000 H   0  0  0  0  0  0  0  0  0  0  0  0
   20.5720   13.1020   34.1180 H   0  0  0  0  0  0  0  0  0  0  0  0
   18.8690   12.6790   33.9580 H   0  0  0  0  0  0  0  0  0  0  0  0
   19.4640   13.2250   31.2950 H   0  0  0  0  0  0  0  0  0  0  0  0
   18.8310   14.3230   32.5250 H   0  0  0  0  0  0  0  0  0  0  0  0
   21.3970   14.6600   32.9780 H   0  0  0  0  0  0  0  0  0  0  0  0
   19.8120   16.3880   32.3900 H   0  0  0  0  0  0  0  0  0  0  0  0
   21.2300   16.4580   31.2950 H   0  0  0  0  0  0  0  0  0  0  0  0
   19.7310   15.6250   30.7160 H   0  0  0  0  0  0  0  0  0  0  0  0
   22.7400   13.8230   31.4840 H   0  0  0  0  0  0  0  0  0  0  0  0
   21.6770   14.5300   30.1800 H   0  0  0  0  0  0  0  0  0  0  0  0
   21.3570   12.9070   30.8370 H   0  0  0  0  0  0  0  0  0  0  0  0
   17.8490    8.7070   33.4900 H   0  0  0  0  0  0  0  0  0  0  0  0
   17.3750    7.2320   32.4780 H   0  0  0  0  0  0  0  0  0  0  0  0
   17.2040    7.1990   34.2680 H   0  0  0  0  0  0  0  0  0  0  0  0
   21.1530    4.2980   32.0870 H   0  0  0  0  0  0  0  0  0  0  0  0
  1  2  1  0  0  0  0
  2  3  1  0  0  0  0
  3 35  1  0  0  0  0
  3  4  2  0  0  0  0
  4 33  1  0  0  0  0
  5  4  1  0  0  0  0
  5 36  1  0  0  0  0
  6  5  2  0  0  0  0
  7  2  2  0  0  0  0
  7  6  1  0  0  0  0
  8 38  1  6  0  0  0
  8  6  1  0  0  0  0
  8  9  1  0  0  0  0
  9 10  1  0  0  0  0
  9 27  1  0  0  0  0
 10 11  2  0  0  0  0
 12 13  2  0  0  0  0
 12 10  1  0  0  0  0
 14  8  1  0  0  0  0
 14 12  1  0  0  0  0
 15 14  2  0  0  0  0
 16 15  1  0  0  0  0
 17 22  1  0  0  0  0
 17 15  1  0  0  0  0
 18 17  2  0  0  0  0
 19 20  2  0  0  0  0
 19 18  1  0  0  0  0
 20 21  1  0  0  0  0
 21 40  1  0  0  0  0
 21 22  2  0  0  0  0
 22 41  1  0  0  0  0
 23 20  1  0  0  0  0
 24 42  1  1  0  0  0
 24 25  1  0  0  0  0
 24 23  1  0  0  0  0
 25 44  1  0  0  0  0
 25 19  1  0  0  0  0
 26 24  1  0  0  0  0
 27 28  1  0  0  0  0
 27 49  1  0  0  0  0
 28 51  1  0  0  0  0
 28 50  1  0  0  0  0
 29 53  1  0  0  0  0
 29 28  1  0  0  0  0
 30 29  1  0  0  0  0
 30 54  1  0  0  0  0
 31 30  1  0  0  0  0
 31 55  1  0  0  0  0
 32 58  1  0  0  0  0
 32 30  1  0  0  0  0
 34 61  1  0  0  0  0
 34 33  1  0  0  0  0
 34 63  1  0  0  0  0
 37  7  1  0  0  0  0
 39 18  1  0  0  0  0
 43 25  1  0  0  0  0
 45 26  1  0  0  0  0
 46 26  1  0  0  0  0
 47 26  1  0  0  0  0
 48 27  1  0  0  0  0
 52 29  1  0  0  0  0
 56 31  1  0  0  0  0
 57 31  1  0  0  0  0
 59 32  1  0  0  0  0
 60 32  1  0  0  0  0
 62 34  1  0  0  0  0
 64 35  1  0  0  0  0
M  END
>  <Pose>
1

>  <Score>
-6.64

$$$$
