
 OpenBabel03202209553D

 39 42  0  0  1  0  0  0  0  0999 V2000
   20.3130   14.1510   31.0890 B   0  0  0  0  0  0  0  0  0  0  0  0
   21.8810   13.1300   30.7560 C   0  0  0  0  0  0  0  0  0  0  0  0
   22.7930   13.5570   29.8200 C   0  0  0  0  0  0  0  0  0  0  0  0
   23.9210   12.7960   29.6000 C   0  0  0  0  0  0  0  0  0  0  0  0
   24.1950   11.6200   30.2650 C   0  0  0  0  0  0  0  0  0  0  0  0
   23.2760   11.1980   31.2020 C   0  0  0  0  0  0  0  0  0  0  0  0
   22.1400   11.9400   31.4420 C   0  0  0  0  0  0  0  0  0  0  0  0
   23.4600    9.9480   31.9900 C   0  0  2  0  0  0  0  0  0  0  0  0
   24.3110    9.0780   31.2900 N   0  0  0  0  0  4  0  0  0  0  0  0
   23.9880    7.7050   31.2030 C   0  0  1  0  0  0  0  0  0  0  0  0
   23.0300    7.1980   32.2470 C   0  0  0  0  0  0  0  0  0  0  0  0
   21.8820    8.1150   32.4400 C   0  0  0  0  0  0  0  0  0  0  0  0
   20.5640    7.8960   32.7370 C   0  0  0  0  0  0  0  0  0  0  0  0
   19.9930    9.1560   32.7840 C   0  0  0  0  0  0  0  0  0  0  0  0
   20.9500   10.0860   32.5220 N   0  0  0  0  0  0  0  0  0  0  0  0
   22.1100    9.4510   32.3100 C   0  0  0  0  0  0  0  0  0  0  0  0
   18.6460    9.2180   33.0700 C   0  0  0  0  0  0  0  0  0  0  0  0
   17.9010    8.0810   33.3000 C   0  0  0  0  0  0  0  0  0  0  0  0
   18.4720    6.8260   33.2530 C   0  0  0  0  0  0  0  0  0  0  0  0
   19.8240    6.7450   32.9670 C   0  0  0  0  0  0  0  0  0  0  0  0
   23.4320    7.3250   29.8750 C   0  0  0  0  0  0  0  0  0  0  0  0
   24.0990    6.5400   29.1190 O   0  0  0  0  0  0  0  0  0  0  0  0
   22.2050    7.8290   29.4750 O   0  0  0  0  0  0  0  0  0  0  0  0
   25.1710   13.4070   28.2970 B   0  0  0  0  0  0  0  0  0  0  0  0
   22.5860   14.7490   29.0970 O   0  0  0  0  0  0  0  0  0  0  0  0
   25.0590   11.0130   30.1130 H   0  0  0  0  0  0  0  0  0  0  0  0
   21.3740   11.6740   32.1650 H   0  0  0  0  0  0  0  0  0  0  0  0
   23.9140   10.2730   32.9670 H   0  0  0  0  0  0  0  0  0  0  0  0
   24.5140    9.4290   30.3100 H   0  0  0  0  0  0  0  0  0  0  0  0
   25.2810    9.1460   31.7380 H   0  0  0  0  0  0  0  0  0  0  0  0
   24.9120    7.0580   31.3130 H   0  0  0  0  0  0  0  0  0  0  0  0
   23.5030    7.0350   33.2370 H   0  0  0  0  0  0  0  0  0  0  0  0
   22.6220    6.2200   31.9180 H   0  0  0  0  0  0  0  0  0  0  0  0
   20.7220   11.1040   32.5100 H   0  0  0  0  0  0  0  0  0  0  0  0
   18.1770   10.1860   33.1140 H   0  0  0  0  0  0  0  0  0  0  0  0
   16.8250    8.1370   33.5290 H   0  0  0  0  0  0  0  0  0  0  0  0
   17.8550    5.9560   33.4390 H   0  0  0  0  0  0  0  0  0  0  0  0
   20.2960    5.7730   32.9230 H   0  0  0  0  0  0  0  0  0  0  0  0
   22.0950   14.6840   28.2160 H   0  0  0  0  0  0  0  0  0  0  0  0
  2  1  1  0  0  0  0
  2  7  1  0  0  0  0
  3  2  2  0  0  0  0
  4  3  1  0  0  0  0
  4  5  2  0  0  0  0
  5  6  1  0  0  0  0
  6  7  2  0  0  0  0
  6  8  1  0  0  0  0
  7 27  1  0  0  0  0
  8 16  1  0  0  0  0
  8 28  1  1  0  0  0
  9 30  1  0  0  0  0
  9  8  1  0  0  0  0
 10  9  1  0  0  0  0
 10 31  1  1  0  0  0
 10 11  1  0  0  0  0
 11 12  1  0  0  0  0
 11 32  1  0  0  0  0
 12 13  1  0  0  0  0
 13 14  2  0  0  0  0
 13 20  1  0  0  0  0
 14 17  1  0  0  0  0
 15 14  1  0  0  0  0
 16 12  2  0  0  0  0
 16 15  1  0  0  0  0
 17 35  1  0  0  0  0
 17 18  2  0  0  0  0
 18 36  1  0  0  0  0
 19 18  1  0  0  0  0
 19 37  1  0  0  0  0
 20 19  2  0  0  0  0
 21 10  1  0  0  0  0
 22 21  2  0  0  0  0
 23 21  1  0  0  0  0
 24  4  1  0  0  0  0
 25  3  1  0  0  0  0
 26  5  1  0  0  0  0
 29  9  1  0  0  0  0
 33 11  1  0  0  0  0
 34 15  1  0  0  0  0
 38 20  1  0  0  0  0
 39 25  1  0  0  0  0
M  END
>  <Pose>
1

>  <Score>
-5.33

$$$$
