
 OpenBabel03202209553D

 52 55  0  0  0  0  0  0  0  0999 V2000
   24.4130    2.8510   32.0590 B   0  0  0  0  0  0  0  0  0  0  0  0
   24.9640    4.0570   30.6970 C   0  0  0  0  0  0  0  0  0  0  0  0
   25.6030    3.5370   29.5820 C   0  0  0  0  0  0  0  0  0  0  0  0
   25.9990    4.4340   28.6080 C   0  0  0  0  0  0  0  0  0  0  0  0
   25.7690    5.7790   28.7450 C   0  0  0  0  0  0  0  0  0  0  0  0
   25.1270    6.3240   29.8560 C   0  0  0  0  0  0  0  0  0  0  0  0
   24.7390    5.4150   30.8170 C   0  0  0  0  0  0  0  0  0  0  0  0
   24.8940    7.7520   29.9290 C   0  0  0  0  0  0  0  0  0  0  0  0
   24.1910    8.2850   30.8680 N   0  0  0  0  0  0  0  0  0  0  0  0
   23.9400    9.6420   30.9760 N   0  0  0  0  0  0  0  0  0  0  0  0
   22.7310   10.1080   31.5640 C   0  0  0  0  0  0  0  0  0  0  0  0
   22.4360   11.3980   31.5510 N   0  0  0  0  0  4  0  0  0  0  0  0
   21.3050   11.9220   32.0550 C   0  0  0  0  0  0  0  0  0  0  0  0
   20.4290   11.0540   32.6060 N   0  0  0  0  0  0  0  0  0  0  0  0
   20.6750    9.7170   32.6490 C   0  0  0  0  0  0  0  0  0  0  0  0
   21.8390    9.2620   32.1210 N   0  0  0  0  0  0  0  0  0  0  0  0
   19.7450    8.8210   33.2130 N   0  0  0  0  0  0  0  0  0  0  0  0
   18.4930    9.2820   33.7540 C   0  0  0  0  0  0  0  0  0  0  0  0
   17.4150    8.4360   33.0610 C   0  0  0  0  0  0  0  0  0  0  0  0
   17.7250    7.1000   33.2170 O   0  0  0  0  0  0  0  0  0  0  0  0
   18.8500    6.7680   32.4630 C   0  0  0  0  0  0  0  0  0  0  0  0
   20.0250    7.4080   33.2340 C   0  0  0  0  0  0  0  0  0  0  0  0
   21.0270   13.3320   32.0150 N   0  0  0  0  0  0  0  0  0  0  0  0
   22.0620   14.3040   32.2210 C   0  0  0  0  0  0  0  0  0  0  0  0
   21.7250   15.7100   31.9090 C   0  0  0  0  0  0  0  0  0  0  0  0
   20.3650   15.9690   31.8080 O   0  0  0  0  0  0  0  0  0  0  0  0
   19.7160   15.0490   30.9970 C   0  0  0  0  0  0  0  0  0  0  0  0
   19.6790   13.7470   31.7600 C   0  0  0  0  0  0  0  0  0  0  0  0
   26.1740    6.6810   27.7560 O   0  0  0  0  0  0  0  0  0  0  0  0
   25.8420    2.1730   29.4320 O   0  0  0  0  0  0  0  0  0  0  0  0
   26.5030    4.0060   27.7350 H   0  0  0  0  0  0  0  0  0  0  0  0
   24.2330    5.8310   31.7010 H   0  0  0  0  0  0  0  0  0  0  0  0
   25.3190    8.3990   29.1780 H   0  0  0  0  0  0  0  0  0  0  0  0
   24.6270   10.3220   30.6300 H   0  0  0  0  0  0  0  0  0  0  0  0
   18.4600    9.0880   34.8460 H   0  0  0  0  0  0  0  0  0  0  0  0
   18.3180   10.3630   33.5230 H   0  0  0  0  0  0  0  0  0  0  0  0
   16.4400    8.7060   33.5030 H   0  0  0  0  0  0  0  0  0  0  0  0
   17.4400    8.7360   31.9840 H   0  0  0  0  0  0  0  0  0  0  0  0
   18.7890    7.3440   31.4920 H   0  0  0  0  0  0  0  0  0  0  0  0
   18.9710    5.6970   32.3220 H   0  0  0  0  0  0  0  0  0  0  0  0
   19.8880    7.0620   34.2990 H   0  0  0  0  0  0  0  0  0  0  0  0
   20.9960    7.1260   32.8150 H   0  0  0  0  0  0  0  0  0  0  0  0
   22.4000   14.1920   33.2880 H   0  0  0  0  0  0  0  0  0  0  0  0
   22.9300   13.9940   31.5600 H   0  0  0  0  0  0  0  0  0  0  0  0
   22.2470   16.0480   30.9780 H   0  0  0  0  0  0  0  0  0  0  0  0
   22.1170   16.3600   32.7330 H   0  0  0  0  0  0  0  0  0  0  0  0
   18.7250   15.4470   30.7610 H   0  0  0  0  0  0  0  0  0  0  0  0
   20.2870   14.8280   30.0560 H   0  0  0  0  0  0  0  0  0  0  0  0
   19.1420   13.0290   31.0850 H   0  0  0  0  0  0  0  0  0  0  0  0
   19.0790   13.8230   32.6920 H   0  0  0  0  0  0  0  0  0  0  0  0
   25.7600    6.6000   26.8320 H   0  0  0  0  0  0  0  0  0  0  0  0
   25.1230    1.4680   29.4880 H   0  0  0  0  0  0  0  0  0  0  0  0
  2  7  1  0  0  0  0
  2  1  1  0  0  0  0
  3  2  2  0  0  0  0
  4  5  2  0  0  0  0
  4  3  1  0  0  0  0
  5  6  1  0  0  0  0
  6  8  1  0  0  0  0
  6  7  2  0  0  0  0
  7 32  1  0  0  0  0
  8  9  2  0  0  0  0
  9 10  1  0  0  0  0
 10 11  1  0  0  0  0
 11 16  1  0  0  0  0
 12 11  2  0  0  0  0
 12 13  2  0  0  0  0
 13 14  1  0  0  0  0
 14 15  2  0  0  0  0
 15 17  1  0  0  0  0
 16 15  1  0  0  0  0
 17 22  1  0  0  0  0
 17 18  1  0  0  0  0
 18 35  1  0  0  0  0
 19 20  1  0  0  0  0
 19 37  1  0  0  0  0
 19 18  1  0  0  0  0
 21 20  1  0  0  0  0
 21 22  1  0  0  0  0
 22 41  1  0  0  0  0
 23 13  1  0  0  0  0
 23 24  1  0  0  0  0
 24 43  1  0  0  0  0
 25 24  1  0  0  0  0
 25 46  1  0  0  0  0
 26 25  1  0  0  0  0
 27 28  1  0  0  0  0
 27 26  1  0  0  0  0
 28 23  1  0  0  0  0
 28 50  1  0  0  0  0
 29  5  1  0  0  0  0
 30 52  1  0  0  0  0
 30  3  1  0  0  0  0
 31  4  1  0  0  0  0
 33  8  1  0  0  0  0
 34 10  1  0  0  0  0
 36 18  1  0  0  0  0
 38 19  1  0  0  0  0
 39 21  1  0  0  0  0
 40 21  1  0  0  0  0
 42 22  1  0  0  0  0
 44 24  1  0  0  0  0
 45 25  1  0  0  0  0
 47 27  1  0  0  0  0
 48 27  1  0  0  0  0
 49 28  1  0  0  0  0
 51 29  1  0  0  0  0
M  END
>  <Pose>
1

>  <Score>
-7.23

$$$$
