
 OpenBabel03202209553D

 46 49  0  0  1  0  0  0  0  0999 V2000
   22.1900   17.1750   28.8820 B   0  0  0  0  0  0  0  0  0  0  0  0
   22.6190   15.4140   29.4710 C   0  0  0  0  0  0  0  0  0  0  0  0
   22.1720   15.0060   30.7230 C   0  0  0  0  0  0  0  0  0  0  0  0
   22.4910   13.7370   31.1220 C   0  0  0  0  0  0  0  0  0  0  0  0
   23.2200   12.8350   30.3780 C   0  0  0  0  0  0  0  0  0  0  0  0
   23.6500   13.2850   29.1270 C   0  0  0  0  0  0  0  0  0  0  0  0
   23.3540   14.5570   28.6780 C   0  0  0  0  0  0  0  0  0  0  0  0
   23.5430   11.5200   30.8100 N   0  0  0  0  0  0  0  0  0  0  0  0
   22.9250   10.3240   30.2890 C   0  0  0  0  0  0  0  0  0  0  0  0
   24.0500    9.3190   30.4010 C   0  0  1  0  0  0  0  0  0  0  0  0
   24.5650    9.6100   31.8000 C   0  0  0  0  0  0  0  0  0  0  0  0
   24.4750   11.0940   31.7880 C   0  0  0  0  0  0  0  0  0  0  0  0
   25.1320   11.8450   32.5390 O   0  0  0  0  0  0  0  0  0  0  0  0
   23.5690    7.9280   30.2690 C   0  0  0  0  0  0  0  0  0  0  0  0
   24.3440    7.0010   29.9310 O   0  0  0  0  0  0  0  0  0  0  0  0
   22.2120    7.6450   30.5300 N   0  0  0  0  0  0  0  0  0  0  0  0
   21.8280    6.4490   31.2380 C   0  0  0  0  0  0  0  0  0  0  0  0
   20.6300    6.6880   32.0900 C   0  0  0  0  0  0  0  0  0  0  0  0
   20.0960    7.8790   32.4590 N   0  0  0  0  0  0  0  0  0  0  0  0
   19.0160    7.6660   33.2280 C   0  0  0  0  0  0  0  0  0  0  0  0
   18.9030    6.3160   33.3200 N   0  0  0  0  0  0  0  0  0  0  0  0
   19.8670    5.7290   32.6410 N   0  0  0  0  0  0  0  0  0  0  0  0
   18.3990    8.9650   33.6550 C   0  0  0  0  0  0  0  0  0  0  0  0
   19.4950    9.9570   33.3370 C   0  0  0  0  0  0  0  0  0  0  0  0
   20.3460    9.2970   32.2720 C   0  0  0  0  0  0  0  0  0  0  0  0
   21.3830   15.9550   31.5540 C   0  0  0  0  0  0  0  0  0  0  0  0
   22.1300   13.4290   32.1110 H   0  0  0  0  0  0  0  0  0  0  0  0
   24.2270   12.6640   28.4600 H   0  0  0  0  0  0  0  0  0  0  0  0
   23.6770   14.9190   27.7140 H   0  0  0  0  0  0  0  0  0  0  0  0
   22.0710   10.0760   30.9630 H   0  0  0  0  0  0  0  0  0  0  0  0
   22.5820   10.4430   29.2400 H   0  0  0  0  0  0  0  0  0  0  0  0
   24.8120    9.6020   29.6560 H   0  0  0  0  0  0  0  0  0  0  0  0
   25.6180    9.2630   31.8200 H   0  0  0  0  0  0  0  0  0  0  0  0
   23.9420    9.1500   32.5670 H   0  0  0  0  0  0  0  0  0  0  0  0
   21.4730    8.2980   30.2140 H   0  0  0  0  0  0  0  0  0  0  0  0
   21.6210    5.6020   30.5590 H   0  0  0  0  0  0  0  0  0  0  0  0
   22.6680    6.1040   31.9020 H   0  0  0  0  0  0  0  0  0  0  0  0
   17.4820    9.1390   33.0740 H   0  0  0  0  0  0  0  0  0  0  0  0
   18.2520    9.0030   34.7540 H   0  0  0  0  0  0  0  0  0  0  0  0
   20.0900   10.2290   34.2360 H   0  0  0  0  0  0  0  0  0  0  0  0
   19.0130   10.8850   32.9850 H   0  0  0  0  0  0  0  0  0  0  0  0
   21.4180    9.5300   32.3790 H   0  0  0  0  0  0  0  0  0  0  0  0
   20.0050    9.6700   31.2840 H   0  0  0  0  0  0  0  0  0  0  0  0
   21.1950   15.5110   32.5500 H   0  0  0  0  0  0  0  0  0  0  0  0
   21.8700   16.9470   31.6110 H   0  0  0  0  0  0  0  0  0  0  0  0
   20.3770   16.0200   31.0620 H   0  0  0  0  0  0  0  0  0  0  0  0
  1  2  1  0  0  0  0
  2  3  1  0  0  0  0
  3  4  2  0  0  0  0
  3 26  1  0  0  0  0
  4 27  1  0  0  0  0
  5  8  1  0  0  0  0
  5  4  1  0  0  0  0
  6  5  2  0  0  0  0
  7  6  1  0  0  0  0
  7  2  2  0  0  0  0
  8 12  1  0  0  0  0
  9 10  1  0  0  0  0
  9  8  1  0  0  0  0
  9 30  1  0  0  0  0
 10 32  1  6  0  0  0
 10 11  1  0  0  0  0
 11 33  1  0  0  0  0
 11 34  1  0  0  0  0
 12 11  1  0  0  0  0
 12 13  2  0  0  0  0
 14 10  1  0  0  0  0
 14 16  1  0  0  0  0
 15 14  2  0  0  0  0
 16 17  1  0  0  0  0
 17 37  1  0  0  0  0
 17 18  1  0  0  0  0
 18 19  1  0  0  0  0
 18 22  2  0  0  0  0
 19 20  1  0  0  0  0
 20 21  2  0  0  0  0
 20 23  1  0  0  0  0
 22 21  1  0  0  0  0
 23 39  1  0  0  0  0
 24 23  1  0  0  0  0
 24 40  1  0  0  0  0
 25 42  1  0  0  0  0
 25 19  1  0  0  0  0
 25 24  1  0  0  0  0
 26 45  1  0  0  0  0
 26 44  1  0  0  0  0
 28  6  1  0  0  0  0
 29  7  1  0  0  0  0
 31  9  1  0  0  0  0
 35 16  1  0  0  0  0
 36 17  1  0  0  0  0
 38 23  1  0  0  0  0
 41 24  1  0  0  0  0
 43 25  1  0  0  0  0
 46 26  1  0  0  0  0
M  END
>  <Pose>
1

>  <Score>
-6.86

$$$$
