
 OpenBabel03202209553D

 33 36  0  0  1  0  0  0  0  0999 V2000
   25.1900    8.2430   29.6860 B   0  0  0  0  0  0  0  0  0  0  0  0
   23.7590    7.1490   30.3720 C   0  0  0  0  0  0  0  0  0  0  0  0
   22.6240    7.8010   30.7970 C   0  0  0  0  0  0  0  0  0  0  0  0
   21.6070    6.9870   31.2840 C   0  0  0  0  0  0  0  0  0  0  0  0
   21.7240    5.6110   31.3410 C   0  0  0  0  0  0  0  0  0  0  0  0
   22.8860    4.9870   30.9030 C   0  0  0  0  0  0  0  0  0  0  0  0
   23.8930    5.7790   30.4210 C   0  0  0  0  0  0  0  0  0  0  0  0
   22.4600    9.2110   30.7550 N   0  0  0  0  0  0  0  0  0  0  0  0
   22.5950   10.0960   29.6550 C   0  0  0  0  0  0  0  0  0  0  0  0
   22.7840    9.7320   28.4810 O   0  0  0  0  0  0  0  0  0  0  0  0
   22.4810   11.5080   30.0900 C   0  0  2  0  0  0  0  0  0  0  0  0
   23.7360   12.2860   29.8980 C   0  0  1  0  0  0  0  0  0  0  0  0
   24.0080   12.8760   31.1600 O   0  0  0  0  0  0  0  0  0  0  0  0
   23.9290   11.6760   31.9130 C   0  0  1  0  0  0  0  0  0  0  0  0
   22.4540   11.3730   31.6220 C   0  0  2  0  0  0  0  0  0  0  0  0
   22.1200    9.9710   31.9180 C   0  0  0  0  0  0  0  0  0  0  0  0
   21.6300    9.4970   32.9660 O   0  0  0  0  0  0  0  0  0  0  0  0
   24.8340   10.8060   31.1320 C   0  0  0  0  0  0  0  0  0  0  0  0
   24.8620   11.3010   29.8950 C   0  0  0  0  0  0  0  0  0  0  0  0
   23.7760   13.2530   28.7910 C   0  0  0  0  0  0  0  0  0  0  0  0
   22.9210   14.3230   29.1140 O   0  0  0  0  0  0  0  0  0  0  0  0
   20.7010    7.4780   31.6250 H   0  0  0  0  0  0  0  0  0  0  0  0
   20.9100    4.9850   31.7300 H   0  0  0  0  0  0  0  0  0  0  0  0
   22.9450    3.9050   30.9590 H   0  0  0  0  0  0  0  0  0  0  0  0
   24.8030    5.3220   30.0750 H   0  0  0  0  0  0  0  0  0  0  0  0
   21.5770   12.0040   29.7200 H   0  0  0  0  0  0  0  0  0  0  0  0
   24.1640   11.7930   32.9510 H   0  0  0  0  0  0  0  0  0  0  0  0
   21.8290   12.1250   32.0980 H   0  0  0  0  0  0  0  0  0  0  0  0
   25.4090    9.9190   31.4200 H   0  0  0  0  0  0  0  0  0  0  0  0
   25.5240   11.0640   29.0750 H   0  0  0  0  0  0  0  0  0  0  0  0
   23.3470   12.8270   27.8450 H   0  0  0  0  0  0  0  0  0  0  0  0
   24.7890   13.6020   28.5590 H   0  0  0  0  0  0  0  0  0  0  0  0
   22.1690   14.3560   28.4530 H   0  0  0  0  0  0  0  0  0  0  0  0
  1  2  1  0  0  0  0
  2  7  2  0  0  0  0
  2  3  1  0  0  0  0
  3  4  2  0  0  0  0
  4  5  1  0  0  0  0
  4 22  1  0  0  0  0
  5 23  1  0  0  0  0
  6 24  1  0  0  0  0
  6  5  2  0  0  0  0
  7  6  1  0  0  0  0
  8  3  1  0  0  0  0
  8 16  1  0  0  0  0
  9 11  1  0  0  0  0
  9  8  1  0  0  0  0
 10  9  2  0  0  0  0
 11 26  1  6  0  0  0
 11 15  1  0  0  0  0
 12 20  1  6  0  0  0
 12 11  1  0  0  0  0
 12 13  1  0  0  0  0
 13 14  1  0  0  0  0
 14 27  1  1  0  0  0
 15 14  1  0  0  0  0
 15 16  1  0  0  0  0
 15 28  1  1  0  0  0
 16 17  2  0  0  0  0
 18 29  1  0  0  0  0
 18 14  1  0  0  0  0
 19 12  1  0  0  0  0
 19 18  2  0  0  0  0
 20 21  1  0  0  0  0
 25  7  1  0  0  0  0
 30 19  1  0  0  0  0
 31 20  1  0  0  0  0
 32 20  1  0  0  0  0
 33 21  1  0  0  0  0
M  END
>  <Pose>
1

>  <Score>
-4.90

$$$$
