
 OpenBabel03202209553D

 36 39  0  0  1  0  0  0  0  0999 V2000
   22.3720    5.8930   30.7270 B   0  0  0  0  0  0  0  0  0  0  0  0
   21.2240    7.0550   31.6680 C   0  0  0  0  0  0  0  0  0  0  0  0
   21.3960    8.4290   31.6400 C   0  0  0  0  0  0  0  0  0  0  0  0
   20.4770    9.1610   32.3810 C   0  0  0  0  0  0  0  0  0  0  0  0
   19.4560    8.5910   33.1000 C   0  0  0  0  0  0  0  0  0  0  0  0
   19.3050    7.2410   33.1150 C   0  0  0  0  0  0  0  0  0  0  0  0
   20.1860    6.4740   32.4000 C   0  0  0  0  0  0  0  0  0  0  0  0
   22.4390    9.0520   30.9080 N   0  0  0  0  0  0  0  0  0  0  0  0
   23.8710    9.1020   31.2610 C   0  0  0  0  0  0  0  0  0  0  0  0
   24.2930   10.3310   30.6010 C   0  0  2  0  0  0  0  0  0  0  0  0
   24.0900   11.5200   31.3230 O   0  0  0  0  0  0  0  0  0  0  0  0
   24.4360   12.3950   30.2590 C   0  0  2  0  0  0  0  0  0  0  0  0
   23.3030   12.0010   29.3020 C   0  0  1  0  0  0  0  0  0  0  0  0
   23.4390   10.5110   29.3350 C   0  0  2  0  0  0  0  0  0  0  0  0
   22.2490    9.7510   29.6830 C   0  0  0  0  0  0  0  0  0  0  0  0
   21.1950    9.7020   29.0160 O   0  0  0  0  0  0  0  0  0  0  0  0
   22.0480   12.4230   30.0020 C   0  0  0  0  0  0  0  0  0  0  0  0
   21.1800   13.1250   29.4630 O   0  0  0  0  0  0  0  0  0  0  0  0
   21.8510   12.0090   31.3130 O   0  0  0  0  0  0  0  0  0  0  0  0
   20.9390   12.7480   32.1340 C   0  0  0  0  0  0  0  0  0  0  0  0
   25.7450   11.8120   29.8410 C   0  0  0  0  0  0  0  0  0  0  0  0
   25.6810   10.5060   30.1860 C   0  0  0  0  0  0  0  0  0  0  0  0
   20.5420   10.2390   32.4110 H   0  0  0  0  0  0  0  0  0  0  0  0
   18.7620    9.2010   33.6640 H   0  0  0  0  0  0  0  0  0  0  0  0
   18.5000    6.7730   33.6810 H   0  0  0  0  0  0  0  0  0  0  0  0
   20.0620    5.4020   32.4140 H   0  0  0  0  0  0  0  0  0  0  0  0
   23.9110    9.2080   32.3620 H   0  0  0  0  0  0  0  0  0  0  0  0
   24.4120    8.2030   30.9470 H   0  0  0  0  0  0  0  0  0  0  0  0
   24.4490   13.4270   30.5280 H   0  0  0  0  0  0  0  0  0  0  0  0
   23.4100   12.4570   28.3250 H   0  0  0  0  0  0  0  0  0  0  0  0
   23.9720   10.1020   28.4530 H   0  0  0  0  0  0  0  0  0  0  0  0
   20.7750   12.2390   33.0970 H   0  0  0  0  0  0  0  0  0  0  0  0
   19.9590   12.8830   31.6330 H   0  0  0  0  0  0  0  0  0  0  0  0
   21.3780   13.7480   32.3790 H   0  0  0  0  0  0  0  0  0  0  0  0
   26.5610   12.3430   29.3630 H   0  0  0  0  0  0  0  0  0  0  0  0
   26.5030    9.8090   30.1420 H   0  0  0  0  0  0  0  0  0  0  0  0
  1  2  1  0  0  0  0
  2  7  1  0  0  0  0
  3  2  2  0  0  0  0
  3  4  1  0  0  0  0
  4 23  1  0  0  0  0
  4  5  2  0  0  0  0
  5  6  1  0  0  0  0
  5 24  1  0  0  0  0
  6 25  1  0  0  0  0
  7 26  1  0  0  0  0
  7  6  2  0  0  0  0
  8  9  1  0  0  0  0
  8  3  1  0  0  0  0
  9 27  1  0  0  0  0
 10 22  1  6  0  0  0
 10  9  1  0  0  0  0
 10 11  1  0  0  0  0
 12 29  1  1  0  0  0
 12 11  1  0  0  0  0
 13 30  1  6  0  0  0
 13 14  1  0  0  0  0
 13 17  1  0  0  0  0
 13 12  1  0  0  0  0
 14 31  1  6  0  0  0
 14 15  1  0  0  0  0
 14 10  1  0  0  0  0
 15  8  1  0  0  0  0
 16 15  2  0  0  0  0
 17 19  1  0  0  0  0
 18 17  2  0  0  0  0
 19 20  1  0  0  0  0
 20 34  1  0  0  0  0
 20 32  1  0  0  0  0
 21 22  2  0  0  0  0
 21 12  1  0  0  0  0
 28  9  1  0  0  0  0
 33 20  1  0  0  0  0
 35 21  1  0  0  0  0
 36 22  1  0  0  0  0
M  END
>  <Pose>
1

>  <Score>
-4.87

$$$$
