
 OpenBabel03202209553D

 40 43  0  0  0  0  0  0  0  0999 V2000
   21.2370    5.4830   31.3250 B   0  0  0  0  0  0  0  0  0  0  0  0
   22.9090    4.5700   31.4540 C   0  0  0  0  0  0  0  0  0  0  0  0
   24.1180    4.9230   30.9510 C   0  0  0  0  0  0  0  0  0  0  0  0
   25.0270    3.9420   31.2820 N   0  0  0  0  0  0  0  0  0  0  0  0
   24.3720    3.0380   31.9610 N   0  0  0  0  0  0  0  0  0  0  0  0
   23.0870    3.3370   32.1120 C   0  0  0  0  0  0  0  0  0  0  0  0
   26.4260    3.9230   30.9440 C   0  0  0  0  0  0  0  0  0  0  0  0
   24.4950    6.1340   30.1930 C   0  0  0  0  0  0  0  0  0  0  0  0
   24.3350    6.0800   28.9160 O   0  0  0  0  0  0  0  0  0  0  0  0
   24.9990    7.2910   30.7800 N   0  0  0  0  0  0  0  0  0  0  0  0
   24.5740    8.6120   30.4910 C   0  0  0  0  0  0  0  0  0  0  0  0
   23.3920    9.0560   31.1190 C   0  0  0  0  0  0  0  0  0  0  0  0
   22.5560    8.4210   31.9850 N   0  0  0  0  0  0  0  0  0  0  0  0
   21.6060    9.2560   32.2780 O   0  0  0  0  0  0  0  0  0  0  0  0
   21.7790   10.3810   31.6580 N   0  0  0  0  0  0  0  0  0  0  0  0
   22.8890   10.3130   30.9130 C   0  0  0  0  0  0  0  0  0  0  0  0
   23.5030   11.2270   30.0800 C   0  0  0  0  0  0  0  0  0  0  0  0
   24.6610   10.7890   29.4660 C   0  0  0  0  0  0  0  0  0  0  0  0
   25.1810    9.5120   29.6690 C   0  0  0  0  0  0  0  0  0  0  0  0
   22.9980   12.5210   29.8580 N   0  0  0  0  0  0  0  0  0  0  0  0
   23.7860   13.4440   29.0450 C   0  0  0  0  0  0  0  0  0  0  0  0
   23.1990   14.8280   29.0480 C   0  0  0  0  0  0  0  0  0  0  0  0
   22.6960   15.2590   30.2310 O   0  0  0  0  0  0  0  0  0  0  0  0
   22.1700   14.3400   31.0910 C   0  0  0  0  0  0  0  0  0  0  0  0
   21.7730   13.0930   30.3290 C   0  0  0  0  0  0  0  0  0  0  0  0
   22.2960    2.8160   32.6070 H   0  0  0  0  0  0  0  0  0  0  0  0
   26.9030    4.8900   31.2220 H   0  0  0  0  0  0  0  0  0  0  0  0
   26.5440    3.7890   29.8550 H   0  0  0  0  0  0  0  0  0  0  0  0
   26.9080    3.0760   31.4530 H   0  0  0  0  0  0  0  0  0  0  0  0
   25.7750    7.1380   31.4920 H   0  0  0  0  0  0  0  0  0  0  0  0
   25.1580   11.4880   28.8090 H   0  0  0  0  0  0  0  0  0  0  0  0
   26.0830    9.2400   29.1600 H   0  0  0  0  0  0  0  0  0  0  0  0
   24.8280   13.5240   29.4210 H   0  0  0  0  0  0  0  0  0  0  0  0
   23.8340   13.0980   27.9850 H   0  0  0  0  0  0  0  0  0  0  0  0
   24.0320   15.5260   28.7520 H   0  0  0  0  0  0  0  0  0  0  0  0
   22.4690   14.8880   28.1960 H   0  0  0  0  0  0  0  0  0  0  0  0
   22.9750   14.0430   31.8130 H   0  0  0  0  0  0  0  0  0  0  0  0
   21.2880   14.7050   31.6660 H   0  0  0  0  0  0  0  0  0  0  0  0
   21.2280   13.4490   29.4030 H   0  0  0  0  0  0  0  0  0  0  0  0
   21.0800   12.4600   30.8510 H   0  0  0  0  0  0  0  0  0  0  0  0
  1  2  1  0  0  0  0
  2  6  1  0  0  0  0
  3  4  1  0  0  0  0
  3  2  2  0  0  0  0
  4  5  1  0  0  0  0
  5  6  2  0  0  0  0
  6 26  1  0  0  0  0
  7 27  1  0  0  0  0
  7  4  1  0  0  0  0
  7 29  1  0  0  0  0
  8 10  1  0  0  0  0
  8  3  1  0  0  0  0
  9  8  2  0  0  0  0
 10 30  1  0  0  0  0
 11 10  1  0  0  0  0
 11 12  1  0  0  0  0
 12 13  2  0  0  0  0
 13 14  1  0  0  0  0
 15 14  1  0  0  0  0
 16 12  1  0  0  0  0
 16 15  2  0  0  0  0
 17 16  1  0  0  0  0
 18 19  1  0  0  0  0
 18 17  2  0  0  0  0
 19 11  2  0  0  0  0
 20 17  1  0  0  0  0
 20 25  1  0  0  0  0
 21 22  1  0  0  0  0
 21 33  1  0  0  0  0
 21 20  1  0  0  0  0
 22 23  1  0  0  0  0
 23 24  1  0  0  0  0
 24 38  1  0  0  0  0
 24 37  1  0  0  0  0
 25 40  1  0  0  0  0
 25 24  1  0  0  0  0
 28  7  1  0  0  0  0
 31 18  1  0  0  0  0
 32 19  1  0  0  0  0
 34 21  1  0  0  0  0
 35 22  1  0  0  0  0
 36 22  1  0  0  0  0
 39 25  1  0  0  0  0
M  END
>  <Pose>
1

>  <Score>
-7.26

$$$$
