
 OpenBabel03202209553D

 48 51  0  0  0  0  0  0  0  0999 V2000
   26.6510   11.3240   29.0460 B   0  0  0  0  0  0  0  0  0  0  0  0
   24.9330   12.0280   29.4710 C   0  0  0  0  0  0  0  0  0  0  0  0
   24.0440   11.4530   30.3340 C   0  0  0  0  0  0  0  0  0  0  0  0
   22.8060   11.9820   30.6260 C   0  0  0  0  0  0  0  0  0  0  0  0
   22.4640   13.1800   29.9890 C   0  0  0  0  0  0  0  0  0  0  0  0
   23.3140   13.8000   29.1150 C   0  0  0  0  0  0  0  0  0  0  0  0
   24.5500   13.2180   28.8600 C   0  0  0  0  0  0  0  0  0  0  0  0
   21.2300   13.7340   30.2690 O   0  0  0  0  0  0  0  0  0  0  0  0
   21.1010   14.7120   31.2670 C   0  0  0  0  0  0  0  0  0  0  0  0
   21.8820   11.3610   31.5590 C   0  0  0  0  0  0  0  0  0  0  0  0
   21.6610   10.0830   31.6940 C   0  0  0  0  0  0  0  0  0  0  0  0
   22.2900    9.0950   30.9530 O   0  0  0  0  0  0  0  0  0  0  0  0
   21.8590    7.8300   31.3090 C   0  0  0  0  0  0  0  0  0  0  0  0
   20.9160    7.9050   32.3090 C   0  0  0  0  0  0  0  0  0  0  0  0
   20.3500    6.7540   32.8150 C   0  0  0  0  0  0  0  0  0  0  0  0
   20.7360    5.5300   32.3090 C   0  0  0  0  0  0  0  0  0  0  0  0
   21.7030    5.4810   31.2860 C   0  0  0  0  0  0  0  0  0  0  0  0
   22.2760    6.6040   30.7720 C   0  0  0  0  0  0  0  0  0  0  0  0
   23.2800    6.6130   29.7440 C   0  0  0  0  0  0  0  0  0  0  0  0
   24.6540    6.7220   30.0190 N   0  0  0  0  0  4  0  0  0  0  0  0
   25.2150    5.6770   30.8310 C   0  0  0  0  0  0  0  0  0  0  0  0
   25.5680    4.4240   30.0680 C   0  0  0  0  0  0  0  0  0  0  0  0
   25.1750    4.4560   28.7370 O   0  0  0  0  0  0  0  0  0  0  0  0
   25.8130    5.5520   28.1670 C   0  0  0  0  0  0  0  0  0  0  0  0
   25.4630    6.8620   28.7940 C   0  0  0  0  0  0  0  0  0  0  0  0
   21.9950    4.1720   30.8710 O   0  0  0  0  0  0  0  0  0  0  0  0
   20.7640    9.3380   32.5830 C   0  0  0  0  0  0  0  0  0  0  0  0
   20.0000    9.8540   33.4280 O   0  0  0  0  0  0  0  0  0  0  0  0
   24.3480   10.5190   30.8130 H   0  0  0  0  0  0  0  0  0  0  0  0
   23.0930   14.7350   28.5900 H   0  0  0  0  0  0  0  0  0  0  0  0
   25.2430   13.7070   28.1590 H   0  0  0  0  0  0  0  0  0  0  0  0
   20.0330   14.7330   31.6460 H   0  0  0  0  0  0  0  0  0  0  0  0
   21.2860   15.7220   30.8190 H   0  0  0  0  0  0  0  0  0  0  0  0
   21.7160   14.5150   32.1690 H   0  0  0  0  0  0  0  0  0  0  0  0
   21.3040   12.0240   32.2230 H   0  0  0  0  0  0  0  0  0  0  0  0
   19.6060    6.8240   33.6070 H   0  0  0  0  0  0  0  0  0  0  0  0
   20.3300    4.5970   32.6640 H   0  0  0  0  0  0  0  0  0  0  0  0
   23.1820    5.7090   29.0450 H   0  0  0  0  0  0  0  0  0  0  0  0
   23.0670    7.4530   28.9770 H   0  0  0  0  0  0  0  0  0  0  0  0
   24.8340    7.6240   30.5050 H   0  0  0  0  0  0  0  0  0  0  0  0
   26.1940    6.0890   31.2190 H   0  0  0  0  0  0  0  0  0  0  0  0
   24.6040    5.4720   31.7100 H   0  0  0  0  0  0  0  0  0  0  0  0
   26.6780    4.2230   30.0570 H   0  0  0  0  0  0  0  0  0  0  0  0
   25.1310    3.5430   30.5790 H   0  0  0  0  0  0  0  0  0  0  0  0
   25.4430    5.6040   27.0990 H   0  0  0  0  0  0  0  0  0  0  0  0
   26.9230    5.3610   28.1170 H   0  0  0  0  0  0  0  0  0  0  0  0
   24.9400    7.5550   28.1030 H   0  0  0  0  0  0  0  0  0  0  0  0
   26.4130    7.3730   29.0560 H   0  0  0  0  0  0  0  0  0  0  0  0
  1  2  1  0  0  0  0
  2  3  1  0  0  0  0
  3  4  2  0  0  0  0
  3 29  1  0  0  0  0
  4 10  1  0  0  0  0
  5  8  1  0  0  0  0
  5  4  1  0  0  0  0
  6  5  2  0  0  0  0
  7  6  1  0  0  0  0
  7  2  2  0  0  0  0
  8  9  1  0  0  0  0
  9 32  1  0  0  0  0
  9 34  1  0  0  0  0
 10 11  2  0  0  0  0
 10 35  1  0  0  0  0
 11 27  1  0  0  0  0
 12 13  1  0  0  0  0
 12 11  1  0  0  0  0
 13 14  1  0  0  0  0
 14 27  1  0  0  0  0
 14 15  2  0  0  0  0
 15 36  1  0  0  0  0
 16 37  1  0  0  0  0
 16 15  1  0  0  0  0
 17 16  2  0  0  0  0
 18 17  1  0  0  0  0
 18 13  2  0  0  0  0
 19 20  1  0  0  0  0
 19 18  1  0  0  0  0
 20 40  1  0  0  0  0
 20 21  1  0  0  0  0
 21 41  1  0  0  0  0
 21 42  1  0  0  0  0
 22 44  1  0  0  0  0
 22 21  1  0  0  0  0
 23 22  1  0  0  0  0
 24 23  1  0  0  0  0
 24 25  1  0  0  0  0
 25 48  1  0  0  0  0
 25 20  1  0  0  0  0
 26 17  1  0  0  0  0
 27 28  2  0  0  0  0
 30  6  1  0  0  0  0
 31  7  1  0  0  0  0
 33  9  1  0  0  0  0
 38 19  1  0  0  0  0
 39 19  1  0  0  0  0
 43 22  1  0  0  0  0
 45 24  1  0  0  0  0
 46 24  1  0  0  0  0
 47 25  1  0  0  0  0
M  END
>  <Pose>
1

>  <Score>
-6.17

$$$$
