
 OpenBabel03202209553D

 50 53  0  0  0  0  0  0  0  0999 V2000
   27.1680   15.3560   25.9560 B   0  0  0  0  0  0  0  0  0  0  0  0
   27.8560   14.0120   27.1130 C   0  0  0  0  0  0  0  0  0  0  0  0
   27.1360   12.8660   27.4230 C   0  0  0  0  0  0  0  0  0  0  0  0
   27.6300   11.8970   28.2570 C   0  0  0  0  0  0  0  0  0  0  0  0
   28.8800   12.0640   28.8060 C   0  0  0  0  0  0  0  0  0  0  0  0
   29.5970   13.1940   28.5040 C   0  0  0  0  0  0  0  0  0  0  0  0
   29.1090   14.1840   27.6600 C   0  0  0  0  0  0  0  0  0  0  0  0
   26.8450   10.7050   28.5600 C   0  0  0  0  0  0  0  0  0  0  0  0
   26.8050    9.7200   27.7790 O   0  0  0  0  0  0  0  0  0  0  0  0
   26.0820   10.6540   29.8090 C   0  0  0  0  0  0  0  0  0  0  0  0
   24.9510    9.8120   29.7610 N   0  0  0  0  0  0  0  0  0  0  0  0
   23.7090   10.3940   30.1130 C   0  0  0  0  0  0  0  0  0  0  0  0
   22.5510    9.4730   30.1680 C   0  0  0  0  0  0  0  0  0  0  0  0
   22.8320    8.3370   30.9870 N   0  0  0  0  0  0  0  0  0  0  0  0
   24.2030    7.9860   31.2240 C   0  0  0  0  0  0  0  0  0  0  0  0
   25.1520    8.4590   30.1470 C   0  0  0  0  0  0  0  0  0  0  0  0
   21.8050    7.5340   31.5490 C   0  0  0  0  0  0  0  0  0  0  0  0
   20.8170    8.1470   32.1980 C   0  0  0  0  0  0  0  0  0  0  0  0
   20.4960    9.4930   32.4980 N   0  0  0  0  0  0  0  0  0  0  0  0
   19.2860    9.4310   33.2270 N   0  0  0  0  0  0  0  0  0  0  0  0
   18.8970    8.0770   33.3580 C   0  0  0  0  0  0  0  0  0  0  0  0
   19.7670    7.2730   32.7670 C   0  0  0  0  0  0  0  0  0  0  0  0
   19.8520    5.8610   32.6040 N   0  0  0  0  0  0  0  0  0  0  0  0
   20.8300    5.3190   31.9670 C   0  0  0  0  0  0  0  0  0  0  0  0
   21.8570    6.0990   31.4040 N   0  0  0  0  0  0  0  0  0  0  0  0
   17.6860    7.5630   34.0520 C   0  0  0  0  0  0  0  0  0  0  0  0
   21.2460   10.6710   32.1360 C   0  0  0  0  0  0  0  0  0  0  0  0
   26.1620   12.7960   26.9610 H   0  0  0  0  0  0  0  0  0  0  0  0
   29.2480   11.2780   29.4670 H   0  0  0  0  0  0  0  0  0  0  0  0
   30.5800   13.3450   28.9250 H   0  0  0  0  0  0  0  0  0  0  0  0
   29.7140   15.0770   27.4400 H   0  0  0  0  0  0  0  0  0  0  0  0
   25.7730   11.6910   30.1090 H   0  0  0  0  0  0  0  0  0  0  0  0
   26.7360   10.3160   30.6670 H   0  0  0  0  0  0  0  0  0  0  0  0
   23.8180   11.0060   31.0270 H   0  0  0  0  0  0  0  0  0  0  0  0
   23.4790   11.1540   29.3020 H   0  0  0  0  0  0  0  0  0  0  0  0
   22.3540    9.1020   29.1250 H   0  0  0  0  0  0  0  0  0  0  0  0
   21.6240   10.0080   30.4530 H   0  0  0  0  0  0  0  0  0  0  0  0
   24.5760    8.1800   32.2350 H   0  0  0  0  0  0  0  0  0  0  0  0
   24.2230    6.8530   31.1390 H   0  0  0  0  0  0  0  0  0  0  0  0
   26.1790    8.3540   30.5540 H   0  0  0  0  0  0  0  0  0  0  0  0
   25.1120    7.8260   29.2340 H   0  0  0  0  0  0  0  0  0  0  0  0
   18.8140   10.2900   33.5810 H   0  0  0  0  0  0  0  0  0  0  0  0
   20.8390    4.2150   31.8760 H   0  0  0  0  0  0  0  0  0  0  0  0
   22.6620    5.7100   30.8850 H   0  0  0  0  0  0  0  0  0  0  0  0
   17.2850    8.3510   34.7180 H   0  0  0  0  0  0  0  0  0  0  0  0
   17.8590    6.6030   34.5450 H   0  0  0  0  0  0  0  0  0  0  0  0
   16.9040    7.3970   33.2610 H   0  0  0  0  0  0  0  0  0  0  0  0
   22.3150   10.6160   32.3170 H   0  0  0  0  0  0  0  0  0  0  0  0
   20.9460   11.0030   31.1200 H   0  0  0  0  0  0  0  0  0  0  0  0
   20.8810   11.4790   32.8510 H   0  0  0  0  0  0  0  0  0  0  0  0
  1  2  1  0  0  0  0
  2  3  2  0  0  0  0
  2  7  1  0  0  0  0
  3  4  1  0  0  0  0
  4  8  1  0  0  0  0
  4  5  2  0  0  0  0
  5 29  1  0  0  0  0
  6  5  1  0  0  0  0
  6 30  1  0  0  0  0
  7  6  2  0  0  0  0
  8 10  1  0  0  0  0
  9  8  2  0  0  0  0
 10 32  1  0  0  0  0
 10 33  1  0  0  0  0
 11 10  1  0  0  0  0
 11 12  1  0  0  0  0
 11 16  1  0  0  0  0
 12 13  1  0  0  0  0
 12 34  1  0  0  0  0
 13 37  1  0  0  0  0
 13 14  1  0  0  0  0
 14 15  1  0  0  0  0
 14 17  1  0  0  0  0
 15 38  1  0  0  0  0
 16 40  1  0  0  0  0
 16 15  1  0  0  0  0
 17 18  2  0  0  0  0
 18 19  1  0  0  0  0
 18 22  1  0  0  0  0
 19 20  1  0  0  0  0
 20 21  1  0  0  0  0
 20 42  1  0  0  0  0
 21 26  1  0  0  0  0
 22 21  2  0  0  0  0
 23 22  1  0  0  0  0
 24 23  2  0  0  0  0
 25 17  1  0  0  0  0
 25 24  1  0  0  0  0
 26 46  1  0  0  0  0
 26 45  1  0  0  0  0
 27 48  1  0  0  0  0
 27 19  1  0  0  0  0
 27 50  1  0  0  0  0
 28  3  1  0  0  0  0
 31  7  1  0  0  0  0
 35 12  1  0  0  0  0
 36 13  1  0  0  0  0
 39 15  1  0  0  0  0
 41 16  1  0  0  0  0
 43 24  1  0  0  0  0
 44 25  1  0  0  0  0
 47 26  1  0  0  0  0
 49 27  1  0  0  0  0
M  END
>  <Pose>
1

>  <Score>
-6.38

$$$$
