
 OpenBabel03202209553D

 49 52  0  0  0  0  0  0  0  0999 V2000
   26.7440    5.2840   27.4420 B   0  0  0  0  0  0  0  0  0  0  0  0
   25.6910    4.9030   28.9690 C   0  0  0  0  0  0  0  0  0  0  0  0
   24.6360    5.7380   29.2870 C   0  0  0  0  0  0  0  0  0  0  0  0
   23.8300    5.5150   30.3880 C   0  0  0  0  0  0  0  0  0  0  0  0
   24.1080    4.4110   31.1820 C   0  0  0  0  0  0  0  0  0  0  0  0
   25.1580    3.5850   30.8590 C   0  0  0  0  0  0  0  0  0  0  0  0
   25.9710    3.7920   29.7670 C   0  0  0  0  0  0  0  0  0  0  0  0
   22.7130    6.3770   30.7490 C   0  0  0  0  0  0  0  0  0  0  0  0
   21.7960    5.9270   31.4830 O   0  0  0  0  0  0  0  0  0  0  0  0
   22.6000    7.7160   30.3120 N   0  0  0  0  0  0  0  0  0  0  0  0
   23.1000    8.8240   31.0970 C   0  0  0  0  0  0  0  0  0  0  0  0
   23.9100    9.7600   30.2730 C   0  0  0  0  0  0  0  0  0  0  0  0
   24.5400    9.2670   29.3050 O   0  0  0  0  0  0  0  0  0  0  0  0
   24.0000   11.1380   30.5210 N   0  0  0  0  0  0  0  0  0  0  0  0
   24.6180   11.6730   31.7090 C   0  0  0  0  0  0  0  0  0  0  0  0
   23.5320   12.3820   32.4880 C   0  0  0  0  0  0  0  0  0  0  0  0
   22.7940   13.3350   31.5780 C   0  0  0  0  0  0  0  0  0  0  0  0
   21.4160   12.8990   31.4960 N   0  0  0  0  0  0  0  0  0  0  0  0
   20.5540   13.7680   30.7730 C   0  0  0  0  0  0  0  0  0  0  0  0
   20.7550   15.2270   30.9570 C   0  0  0  0  0  0  0  0  0  0  0  0
   21.7770   15.5890   31.9610 C   0  0  0  0  0  0  0  0  0  0  0  0
   21.9760   16.7150   32.7130 N   0  0  0  0  0  0  0  0  0  0  0  0
   23.0660   16.4910   33.4570 C   0  0  0  0  0  0  0  0  0  0  0  0
   23.5420   15.2640   33.1860 N   0  0  0  0  0  0  0  0  0  0  0  0
   22.7590   14.6690   32.2510 C   0  0  0  0  0  0  0  0  0  0  0  0
   23.3870   13.4710   30.2130 C   0  0  0  0  0  0  0  0  0  0  0  0
   23.4660   12.0810   29.5730 C   0  0  0  0  0  0  0  0  0  0  0  0
   24.4550    6.5720   28.6560 H   0  0  0  0  0  0  0  0  0  0  0  0
   23.5240    4.1630   32.0650 H   0  0  0  0  0  0  0  0  0  0  0  0
   25.3910    2.7160   31.4680 H   0  0  0  0  0  0  0  0  0  0  0  0
   26.7910    3.1730   29.4890 H   0  0  0  0  0  0  0  0  0  0  0  0
   22.1450    7.9090   29.3980 H   0  0  0  0  0  0  0  0  0  0  0  0
   23.7680    8.4650   31.9070 H   0  0  0  0  0  0  0  0  0  0  0  0
   22.2190    9.3140   31.5540 H   0  0  0  0  0  0  0  0  0  0  0  0
   25.4100   12.4170   31.4410 H   0  0  0  0  0  0  0  0  0  0  0  0
   25.1300   10.9040   32.3140 H   0  0  0  0  0  0  0  0  0  0  0  0
   23.9390   12.9050   33.3800 H   0  0  0  0  0  0  0  0  0  0  0  0
   22.8480   11.5690   32.8560 H   0  0  0  0  0  0  0  0  0  0  0  0
   21.3970   11.9560   31.0270 H   0  0  0  0  0  0  0  0  0  0  0  0
   19.5020   13.5350   31.1140 H   0  0  0  0  0  0  0  0  0  0  0  0
   20.5230   13.5290   29.6750 H   0  0  0  0  0  0  0  0  0  0  0  0
   19.8020   15.7610   31.2520 H   0  0  0  0  0  0  0  0  0  0  0  0
   21.0310   15.7350   29.9880 H   0  0  0  0  0  0  0  0  0  0  0  0
   21.3560   17.5750   32.6760 H   0  0  0  0  0  0  0  0  0  0  0  0
   23.4950   17.1830   34.1620 H   0  0  0  0  0  0  0  0  0  0  0  0
   24.3450   13.9900   30.1990 H   0  0  0  0  0  0  0  0  0  0  0  0
   22.6800   14.0470   29.5900 H   0  0  0  0  0  0  0  0  0  0  0  0
   24.1270   12.1030   28.6820 H   0  0  0  0  0  0  0  0  0  0  0  0
   22.4570   11.8360   29.2320 H   0  0  0  0  0  0  0  0  0  0  0  0
  1  2  1  0  0  0  0
  2  3  2  0  0  0  0
  2  7  1  0  0  0  0
  3  4  1  0  0  0  0
  4  8  1  0  0  0  0
  4  5  2  0  0  0  0
  5 29  1  0  0  0  0
  6  5  1  0  0  0  0
  6 30  1  0  0  0  0
  7  6  2  0  0  0  0
  8  9  2  0  0  0  0
 10  8  1  0  0  0  0
 10 11  1  0  0  0  0
 11 34  1  0  0  0  0
 11 33  1  0  0  0  0
 12 14  1  0  0  0  0
 12 11  1  0  0  0  0
 13 12  2  0  0  0  0
 14 15  1  0  0  0  0
 15 36  1  0  0  0  0
 15 16  1  0  0  0  0
 16 38  1  0  0  0  0
 16 37  1  0  0  0  0
 17 25  1  0  0  0  0
 17 16  1  0  0  0  0
 18 17  1  0  0  0  0
 19 20  1  0  0  0  0
 19 40  1  0  0  0  0
 19 18  1  0  0  0  0
 20 42  1  0  0  0  0
 20 21  1  0  0  0  0
 21 25  2  0  0  0  0
 21 22  1  0  0  0  0
 22 23  1  0  0  0  0
 23 45  1  0  0  0  0
 24 23  2  0  0  0  0
 25 24  1  0  0  0  0
 26 17  1  0  0  0  0
 27 26  1  0  0  0  0
 27 14  1  0  0  0  0
 28  3  1  0  0  0  0
 31  7  1  0  0  0  0
 32 10  1  0  0  0  0
 35 15  1  0  0  0  0
 39 18  1  0  0  0  0
 41 19  1  0  0  0  0
 43 20  1  0  0  0  0
 44 22  1  0  0  0  0
 46 26  1  0  0  0  0
 47 26  1  0  0  0  0
 48 27  1  0  0  0  0
 49 27  1  0  0  0  0
M  END
>  <Pose>
1

>  <Score>
-6.85

$$$$
