
 OpenBabel03202209553D

 44 47  0  0  0  0  0  0  0  0999 V2000
   23.4630   15.9120   27.7930 B   0  0  0  0  0  0  0  0  0  0  0  0
   23.3230   14.4870   29.0540 C   0  0  0  0  0  0  0  0  0  0  0  0
   24.0800   13.3310   28.8190 C   0  0  0  0  0  0  0  0  0  0  0  0
   24.0530   12.2410   29.7020 C   0  0  0  0  0  0  0  0  0  0  0  0
   23.2480   12.3520   30.8000 C   0  0  0  0  0  0  0  0  0  0  0  0
   22.4770   13.5060   31.0600 C   0  0  0  0  0  0  0  0  0  0  0  0
   22.5370   14.5870   30.1420 C   0  0  0  0  0  0  0  0  0  0  0  0
   25.1400   11.2280   29.6320 C   0  0  0  0  0  0  0  0  0  0  0  0
   24.8670    9.9380   29.8600 C   0  0  0  0  0  0  0  0  0  0  0  0
   23.6770    9.4250   30.1690 O   0  0  0  0  0  0  0  0  0  0  0  0
   23.7770    8.0180   30.3030 C   0  0  0  0  0  0  0  0  0  0  0  0
   25.0450    7.5990   30.0780 C   0  0  0  0  0  0  0  0  0  0  0  0
   25.2960    6.2290   30.0980 C   0  0  0  0  0  0  0  0  0  0  0  0
   24.2950    5.3470   30.3610 C   0  0  0  0  0  0  0  0  0  0  0  0
   23.0190    5.8070   30.6170 C   0  0  0  0  0  0  0  0  0  0  0  0
   22.6970    7.1430   30.6080 C   0  0  0  0  0  0  0  0  0  0  0  0
   21.5960    7.8030   31.2800 C   0  0  0  0  0  0  0  0  0  0  0  0
   20.9470    7.8460   32.4600 N   0  0  0  0  0  4  0  0  0  0  0  0
   20.1520    8.8830   32.9530 C   0  0  0  0  0  0  0  0  0  0  0  0
   18.6420    8.6930   32.6920 C   0  0  0  0  0  0  0  0  0  0  0  0
   18.1020    7.6210   33.3620 O   0  0  0  0  0  0  0  0  0  0  0  0
   19.0100    6.5570   33.3500 C   0  0  0  0  0  0  0  0  0  0  0  0
   19.9760    6.6430   32.2890 C   0  0  0  0  0  0  0  0  0  0  0  0
   22.0270    4.8630   30.8930 O   0  0  0  0  0  0  0  0  0  0  0  0
   25.8250    8.8260   29.7890 C   0  0  0  0  0  0  0  0  0  0  0  0
   27.0430    8.8950   29.5420 O   0  0  0  0  0  0  0  0  0  0  0  0
   24.6930   13.3330   27.9770 H   0  0  0  0  0  0  0  0  0  0  0  0
   23.1690   11.5850   31.5240 H   0  0  0  0  0  0  0  0  0  0  0  0
   21.8410   13.6610   31.9020 H   0  0  0  0  0  0  0  0  0  0  0  0
   21.9760   15.4740   30.3300 H   0  0  0  0  0  0  0  0  0  0  0  0
   26.1480   11.5120   29.4340 H   0  0  0  0  0  0  0  0  0  0  0  0
   26.2810    5.8860   29.9170 H   0  0  0  0  0  0  0  0  0  0  0  0
   24.4920    4.2520   30.3630 H   0  0  0  0  0  0  0  0  0  0  0  0
   22.1930    8.9710   31.3540 H   0  0  0  0  0  0  0  0  0  0  0  0
   20.9160    8.2680   30.3880 H   0  0  0  0  0  0  0  0  0  0  0  0
   21.6110    7.5010   33.2510 H   0  0  0  0  0  0  0  0  0  0  0  0
   20.4190    9.8960   32.6060 H   0  0  0  0  0  0  0  0  0  0  0  0
   20.2060    8.9220   34.1210 H   0  0  0  0  0  0  0  0  0  0  0  0
   18.4700    8.6940   31.5960 H   0  0  0  0  0  0  0  0  0  0  0  0
   18.1680    9.6170   33.1450 H   0  0  0  0  0  0  0  0  0  0  0  0
   19.4880    6.3370   34.3090 H   0  0  0  0  0  0  0  0  0  0  0  0
   18.3860    5.6250   33.1100 H   0  0  0  0  0  0  0  0  0  0  0  0
   19.5360    6.8720   31.2530 H   0  0  0  0  0  0  0  0  0  0  0  0
   20.6280    5.8190   32.2050 H   0  0  0  0  0  0  0  0  0  0  0  0
  1  2  1  0  0  0  0
  2  7  1  0  0  0  0
  3  2  2  0  0  0  0
  3  4  1  0  0  0  0
  4  5  2  0  0  0  0
  5  6  1  0  0  0  0
  5 28  1  0  0  0  0
  6 29  1  0  0  0  0
  7 30  1  0  0  0  0
  7  6  2  0  0  0  0
  8  4  1  0  0  0  0
  8  9  2  0  0  0  0
  9 10  1  0  0  0  0
 10 11  1  0  0  0  0
 11 16  1  0  0  0  0
 12 13  1  0  0  0  0
 12 11  2  0  0  0  0
 13 14  2  0  0  0  0
 14 33  1  0  0  0  0
 14 15  1  0  0  0  0
 15 24  1  0  0  0  0
 16 15  2  0  0  0  0
 16 17  1  0  0  0  0
 17 34  1  0  0  0  0
 17 18  1  0  0  0  0
 18 19  1  0  0  0  0
 18 36  1  0  0  0  0
 19 38  1  0  0  0  0
 20 19  1  0  0  0  0
 20 40  1  0  0  0  0
 20 21  1  0  0  0  0
 22 21  1  0  0  0  0
 22 41  1  0  0  0  0
 23 18  1  0  0  0  0
 23 22  1  0  0  0  0
 25  9  1  0  0  0  0
 25 12  1  0  0  0  0
 26 25  2  0  0  0  0
 27  3  1  0  0  0  0
 31  8  1  0  0  0  0
 32 13  1  0  0  0  0
 35 17  1  0  0  0  0
 37 19  1  0  0  0  0
 39 20  1  0  0  0  0
 42 22  1  0  0  0  0
 43 23  1  0  0  0  0
 44 23  1  0  0  0  0
M  END
>  <Pose>
1

>  <Score>
-6.38

$$$$
