
 OpenBabel03202209553D

 63 66  0  0  1  0  0  0  0  0999 V2000
   20.2490    6.5190   32.8490 B   0  0  0  0  0  0  0  0  0  0  0  0
   20.2120    8.4260   32.8720 C   0  0  0  0  0  0  0  0  0  0  0  0
   21.1830    9.1380   32.2000 C   0  0  0  0  0  0  0  0  0  0  0  0
   21.1990   10.5270   32.1870 C   0  0  0  0  0  0  0  0  0  0  0  0
   20.1770   11.1450   32.8910 C   0  0  0  0  0  0  0  0  0  0  0  0
   19.2020   10.4420   33.5650 C   0  0  0  0  0  0  0  0  0  0  0  0
   19.2070    9.0650   33.5650 C   0  0  0  0  0  0  0  0  0  0  0  0
   22.2410   11.2860   31.4540 C   0  0  2  0  0  0  0  0  0  0  0  0
   21.6050   11.9970   30.3620 N   0  0  0  0  0  0  0  0  0  0  0  0
   21.3560   11.0310   29.3510 C   0  0  0  0  0  0  0  0  0  0  0  0
   20.4780   11.0710   28.4610 O   0  0  0  0  0  0  0  0  0  0  0  0
   22.3420    9.9450   29.5450 C   0  0  0  0  0  0  0  0  0  0  0  0
   22.4700    8.9050   28.8630 O   0  0  0  0  0  0  0  0  0  0  0  0
   23.1390   10.3440   30.6980 C   0  0  0  0  0  0  0  0  0  0  0  0
   24.3590    9.9780   30.9420 C   0  0  0  0  0  0  0  0  0  0  0  0
   24.9980   10.5160   32.0790 O   0  0  0  0  0  0  0  0  0  0  0  0
   25.1430    9.0450   30.1450 C   0  0  0  0  0  0  0  0  0  0  0  0
   26.2080    9.1870   29.3210 C   0  0  0  0  0  0  0  0  0  0  0  0
   26.5670    7.9630   28.8800 N   0  0  0  0  0  0  0  0  0  0  0  0
   25.7700    7.0130   29.3850 C   0  0  0  0  0  0  0  0  0  0  0  0
   24.8670    7.6640   30.1830 C   0  0  0  0  0  0  0  0  0  0  0  0
   23.7720    7.0080   30.9610 C   0  0  0  0  0  0  0  0  0  0  0  0
   25.8480    5.5600   29.1340 C   0  0  0  0  0  0  0  0  0  0  0  0
   25.5550    5.1230   28.0110 O   0  0  0  0  0  0  0  0  0  0  0  0
   26.2430    4.6920   30.1340 O   0  0  0  0  0  0  0  0  0  0  0  0
   25.3450    3.9820   30.9550 C   0  0  0  0  0  0  0  0  0  0  0  0
   26.8800   10.4600   28.8940 C   0  0  0  0  0  0  0  0  0  0  0  0
   21.2820   13.4250   30.2990 C   0  0  0  0  0  0  0  0  0  0  0  0
   20.8040   13.9350   31.6410 C   0  0  0  0  0  0  0  0  0  0  0  0
   21.4350   15.1440   32.0590 N   0  0  0  0  0  4  0  0  0  0  0  0
   21.8760   15.9920   30.9570 C   0  0  0  0  0  0  0  0  0  0  0  0
   22.0850   17.3770   31.5060 C   0  0  0  0  0  0  0  0  0  0  0  0
   22.3150   17.3010   32.8570 O   0  0  0  0  0  0  0  0  0  0  0  0
   23.1710   16.2810   33.2350 C   0  0  0  0  0  0  0  0  0  0  0  0
   22.6300   14.9030   32.8580 C   0  0  0  0  0  0  0  0  0  0  0  0
   21.9760    8.6310   31.6620 H   0  0  0  0  0  0  0  0  0  0  0  0
   20.1700   12.2340   32.8940 H   0  0  0  0  0  0  0  0  0  0  0  0
   18.4070   10.9430   34.1140 H   0  0  0  0  0  0  0  0  0  0  0  0
   18.4330    8.4940   34.0990 H   0  0  0  0  0  0  0  0  0  0  0  0
   22.8270   11.9460   32.1170 H   0  0  0  0  0  0  0  0  0  0  0  0
   27.3760    7.7870   28.2170 H   0  0  0  0  0  0  0  0  0  0  0  0
   23.1880    6.3230   30.3130 H   0  0  0  0  0  0  0  0  0  0  0  0
   23.0710    7.7820   31.3130 H   0  0  0  0  0  0  0  0  0  0  0  0
   24.1550    6.4150   31.8050 H   0  0  0  0  0  0  0  0  0  0  0  0
   24.4740    3.5790   30.3900 H   0  0  0  0  0  0  0  0  0  0  0  0
   25.0080    4.6000   31.8290 H   0  0  0  0  0  0  0  0  0  0  0  0
   25.9240    3.1230   31.3840 H   0  0  0  0  0  0  0  0  0  0  0  0
   27.8610   10.5820   29.3830 H   0  0  0  0  0  0  0  0  0  0  0  0
   26.2270   11.3210   29.0960 H   0  0  0  0  0  0  0  0  0  0  0  0
   27.0190   10.3420   27.7730 H   0  0  0  0  0  0  0  0  0  0  0  0
   22.1680   14.0170   29.9900 H   0  0  0  0  0  0  0  0  0  0  0  0
   20.4440   13.5960   29.5880 H   0  0  0  0  0  0  0  0  0  0  0  0
   20.9560   13.1090   32.3990 H   0  0  0  0  0  0  0  0  0  0  0  0
   19.7140   14.1080   31.6330 H   0  0  0  0  0  0  0  0  0  0  0  0
   20.7920   15.6720   32.6760 H   0  0  0  0  0  0  0  0  0  0  0  0
   22.8930   15.6070   30.6570 H   0  0  0  0  0  0  0  0  0  0  0  0
   21.2420   15.9370   30.0740 H   0  0  0  0  0  0  0  0  0  0  0  0
   22.9070   17.9270   31.0160 H   0  0  0  0  0  0  0  0  0  0  0  0
   21.1600   17.9950   31.3590 H   0  0  0  0  0  0  0  0  0  0  0  0
   23.1980   16.3070   34.3620 H   0  0  0  0  0  0  0  0  0  0  0  0
   24.2130   16.4230   32.8850 H   0  0  0  0  0  0  0  0  0  0  0  0
   22.4400   14.2790   33.7330 H   0  0  0  0  0  0  0  0  0  0  0  0
   23.4040   14.4330   32.1970 H   0  0  0  0  0  0  0  0  0  0  0  0
  1  2  1  0  0  0  0
  2  7  1  0  0  0  0
  3  2  2  0  0  0  0
  4  3  1  0  0  0  0
  4  5  2  0  0  0  0
  5 37  1  0  0  0  0
  5  6  1  0  0  0  0
  6  7  2  0  0  0  0
  6 38  1  0  0  0  0
  7 39  1  0  0  0  0
  8 40  1  1  0  0  0
  8  4  1  0  0  0  0
  9  8  1  0  0  0  0
 10 12  1  0  0  0  0
 10  9  1  0  0  0  0
 11 10  2  0  0  0  0
 12 14  1  0  0  0  0
 13 12  2  0  0  0  0
 14 15  2  0  0  0  0
 14  8  1  0  0  0  0
 15 16  1  0  0  0  0
 17 21  1  0  0  0  0
 17 15  1  0  0  0  0
 18 17  2  0  0  0  0
 19 18  1  0  0  0  0
 19 20  1  0  0  0  0
 20 21  2  0  0  0  0
 21 22  1  0  0  0  0
 22 43  1  0  0  0  0
 22 44  1  0  0  0  0
 23 20  1  0  0  0  0
 23 25  1  0  0  0  0
 24 23  2  0  0  0  0
 25 26  1  0  0  0  0
 26 47  1  0  0  0  0
 26 46  1  0  0  0  0
 27 49  1  0  0  0  0
 27 18  1  0  0  0  0
 27 48  1  0  0  0  0
 28  9  1  0  0  0  0
 28 29  1  0  0  0  0
 29 30  1  0  0  0  0
 29 53  1  0  0  0  0
 30 55  1  0  0  0  0
 30 35  1  0  0  0  0
 31 32  1  0  0  0  0
 31 30  1  0  0  0  0
 32 33  1  0  0  0  0
 33 34  1  0  0  0  0
 34 60  1  0  0  0  0
 35 34  1  0  0  0  0
 35 62  1  0  0  0  0
 36  3  1  0  0  0  0
 41 19  1  0  0  0  0
 42 22  1  0  0  0  0
 45 26  1  0  0  0  0
 50 27  1  0  0  0  0
 51 28  1  0  0  0  0
 52 28  1  0  0  0  0
 54 29  1  0  0  0  0
 56 31  1  0  0  0  0
 57 31  1  0  0  0  0
 58 32  1  0  0  0  0
 59 32  1  0  0  0  0
 61 34  1  0  0  0  0
 63 35  1  0  0  0  0
M  END
>  <Pose>
1

>  <Score>
-6.52

$$$$
