
 OpenBabel03202209553D

 56 59  0  0  1  0  0  0  0  0999 V2000
   23.3250   15.7160   33.4600 B   0  0  0  0  0  0  0  0  0  0  0  0
   22.3850   14.7020   32.1570 C   0  0  0  0  0  0  0  0  0  0  0  0
   23.0290   13.9210   31.2070 C   0  0  0  0  0  0  0  0  0  0  0  0
   22.3400   13.1920   30.2640 C   0  0  0  0  0  0  0  0  0  0  0  0
   20.9790   13.2530   30.2780 C   0  0  0  0  0  0  0  0  0  0  0  0
   20.3170   14.0370   31.2340 C   0  0  0  0  0  0  0  0  0  0  0  0
   21.0080   14.7650   32.1750 C   0  0  0  0  0  0  0  0  0  0  0  0
   23.0770   12.3700   29.2720 C   0  0  1  0  0  0  0  0  0  0  0  0
   24.4080   12.9090   29.0450 N   0  0  0  0  0  0  0  0  0  0  0  0
   25.2950   12.2320   29.9600 C   0  0  0  0  0  0  0  0  0  0  0  0
   26.4340   12.6450   30.2890 O   0  0  0  0  0  0  0  0  0  0  0  0
   24.6180   11.0280   30.3940 C   0  0  0  0  0  0  0  0  0  0  0  0
   25.0340   10.1410   31.2030 O   0  0  0  0  0  0  0  0  0  0  0  0
   23.3220   10.9900   29.7310 C   0  0  0  0  0  0  0  0  0  0  0  0
   22.5460    9.9220   29.6240 C   0  0  0  0  0  0  0  0  0  0  0  0
   21.3140   10.1670   28.9820 O   0  0  0  0  0  0  0  0  0  0  0  0
   22.8890    8.5940   30.1060 C   0  0  0  0  0  0  0  0  0  0  0  0
   24.0660    7.9330   29.8470 C   0  0  0  0  0  0  0  0  0  0  0  0
   24.3510    6.6840   30.3600 C   0  0  0  0  0  0  0  0  0  0  0  0
   23.4460    6.0360   31.1700 C   0  0  0  0  0  0  0  0  0  0  0  0
   22.2570    6.6850   31.4410 C   0  0  0  0  0  0  0  0  0  0  0  0
   21.9810    7.9350   30.9220 C   0  0  0  0  0  0  0  0  0  0  0  0
   23.7870    4.4380   31.8400 Cl  0  0  0  0  0  0  0  0  0  0  0  0
   24.7350   13.9800   28.1600 C   0  0  0  0  0  0  0  0  0  0  0  0
   23.9040   15.1970   28.1620 C   0  0  0  0  0  0  0  0  0  0  0  0
   23.6760   15.9460   26.9030 C   0  0  0  0  0  0  0  0  0  0  0  0
   24.3660   17.1770   26.7140 N   0  0  0  0  0  4  0  0  0  0  0  0
   25.3360   17.0650   25.6540 C   0  0  0  0  0  0  0  0  0  0  0  0
   24.7970   17.4830   24.3020 C   0  0  0  0  0  0  0  0  0  0  0  0
   24.4990   18.8480   24.3060 O   0  0  0  0  0  0  0  0  0  0  0  0
   24.2290   19.2940   25.6010 C   0  0  0  0  0  0  0  0  0  0  0  0
   23.4030   18.2320   26.2710 C   0  0  0  0  0  0  0  0  0  0  0  0
   24.1050   13.8890   31.2150 H   0  0  0  0  0  0  0  0  0  0  0  0
   20.4030   12.7030   29.5670 H   0  0  0  0  0  0  0  0  0  0  0  0
   19.2470   14.0860   31.2510 H   0  0  0  0  0  0  0  0  0  0  0  0
   20.4960   15.3770   32.9210 H   0  0  0  0  0  0  0  0  0  0  0  0
   22.5380   12.4170   28.3030 H   0  0  0  0  0  0  0  0  0  0  0  0
   24.7970    8.3910   29.2010 H   0  0  0  0  0  0  0  0  0  0  0  0
   25.2800    6.1670   30.1550 H   0  0  0  0  0  0  0  0  0  0  0  0
   21.5570    6.1590   32.0790 H   0  0  0  0  0  0  0  0  0  0  0  0
   21.0400    8.4350   31.1420 H   0  0  0  0  0  0  0  0  0  0  0  0
   24.7010   13.5310   27.1110 H   0  0  0  0  0  0  0  0  0  0  0  0
   25.8310   14.2610   28.3520 H   0  0  0  0  0  0  0  0  0  0  0  0
   24.2710   15.9350   28.9720 H   0  0  0  0  0  0  0  0  0  0  0  0
   22.8520   14.9360   28.5560 H   0  0  0  0  0  0  0  0  0  0  0  0
   22.5810   16.1690   26.7560 H   0  0  0  0  0  0  0  0  0  0  0  0
   23.9270   15.2850   26.0050 H   0  0  0  0  0  0  0  0  0  0  0  0
   24.7460   17.5580   27.5770 H   0  0  0  0  0  0  0  0  0  0  0  0
   25.6950   16.0170   25.5770 H   0  0  0  0  0  0  0  0  0  0  0  0
   26.2110   17.6990   25.8790 H   0  0  0  0  0  0  0  0  0  0  0  0
   23.9170   16.8570   24.0520 H   0  0  0  0  0  0  0  0  0  0  0  0
   25.5690   17.2950   23.5550 H   0  0  0  0  0  0  0  0  0  0  0  0
   25.1940   19.4420   26.1140 H   0  0  0  0  0  0  0  0  0  0  0  0
   23.6920   20.2640   25.5250 H   0  0  0  0  0  0  0  0  0  0  0  0
   22.7030   17.7550   25.5550 H   0  0  0  0  0  0  0  0  0  0  0  0
   22.9020   18.6380   27.1710 H   0  0  0  0  0  0  0  0  0  0  0  0
  2  7  1  0  0  0  0
  2  1  1  0  0  0  0
  3 33  1  0  0  0  0
  3  2  2  0  0  0  0
  4  5  2  0  0  0  0
  4  3  1  0  0  0  0
  5  6  1  0  0  0  0
  6 35  1  0  0  0  0
  6  7  2  0  0  0  0
  7 36  1  0  0  0  0
  8 37  1  6  0  0  0
  8 14  1  0  0  0  0
  8  4  1  0  0  0  0
  9  8  1  0  0  0  0
  9 10  1  0  0  0  0
 10 11  2  0  0  0  0
 10 12  1  0  0  0  0
 12 13  2  0  0  0  0
 14 12  1  0  0  0  0
 15 14  2  0  0  0  0
 15 17  1  0  0  0  0
 16 15  1  0  0  0  0
 17 22  1  0  0  0  0
 18 17  2  0  0  0  0
 18 19  1  0  0  0  0
 19 20  2  0  0  0  0
 20 21  1  0  0  0  0
 20 23  1  0  0  0  0
 21 40  1  0  0  0  0
 22 41  1  0  0  0  0
 22 21  2  0  0  0  0
 24 25  1  0  0  0  0
 24 43  1  0  0  0  0
 24  9  1  0  0  0  0
 25 45  1  0  0  0  0
 25 44  1  0  0  0  0
 26 25  1  0  0  0  0
 27 26  1  0  0  0  0
 27 48  1  0  0  0  0
 28 50  1  0  0  0  0
 28 27  1  0  0  0  0
 29 30  1  0  0  0  0
 29 28  1  0  0  0  0
 30 31  1  0  0  0  0
 31 53  1  0  0  0  0
 31 32  1  0  0  0  0
 32 27  1  0  0  0  0
 32 56  1  0  0  0  0
 34  5  1  0  0  0  0
 38 18  1  0  0  0  0
 39 19  1  0  0  0  0
 42 24  1  0  0  0  0
 46 26  1  0  0  0  0
 47 26  1  0  0  0  0
 49 28  1  0  0  0  0
 51 29  1  0  0  0  0
 52 29  1  0  0  0  0
 54 31  1  0  0  0  0
 55 32  1  0  0  0  0
M  END
>  <Pose>
1

>  <Score>
-6.99

$$$$
