
 OpenBabel03202209553D

 62 66  0  0  1  0  0  0  0  0999 V2000
   23.3080   13.4020   29.2110 B   0  0  0  0  0  0  0  0  0  0  0  0
   23.8530   11.9220   30.2980 C   0  0  0  0  0  0  0  0  0  0  0  0
   23.6010   10.6330   29.9090 C   0  0  0  0  0  0  0  0  0  0  0  0
   23.9790    9.5080   30.6700 C   0  0  0  0  0  0  0  0  0  0  0  0
   24.6270    9.8360   31.8400 C   0  0  0  0  0  0  0  0  0  0  0  0
   24.8900   11.1250   32.2520 C   0  0  0  0  0  0  0  0  0  0  0  0
   24.5010   12.1910   31.4740 C   0  0  0  0  0  0  0  0  0  0  0  0
   23.6840    8.1970   30.1760 C   0  0  2  0  0  0  0  0  0  0  0  0
   23.0360    7.2340   30.9960 N   0  0  0  0  0  0  0  0  0  0  0  0
   23.0310    6.0290   30.1620 C   0  0  0  0  0  0  0  0  0  0  0  0
   22.2050    5.1040   30.2150 O   0  0  0  0  0  0  0  0  0  0  0  0
   24.1920    6.1450   29.2650 C   0  0  0  0  0  0  0  0  0  0  0  0
   24.5760    5.3380   28.3880 O   0  0  0  0  0  0  0  0  0  0  0  0
   24.8240    7.4160   29.6110 C   0  0  0  0  0  0  0  0  0  0  0  0
   26.0880    7.7260   29.4830 C   0  0  0  0  0  0  0  0  0  0  0  0
   26.4870    8.9990   29.9460 O   0  0  0  0  0  0  0  0  0  0  0  0
   27.0690    6.8310   28.8860 C   0  0  0  0  0  0  0  0  0  0  0  0
   27.7690    6.9040   27.7450 N   0  0  0  0  0  0  0  0  0  0  0  0
   28.5190    5.8080   27.6070 C   0  0  0  0  0  0  0  0  0  0  0  0
   28.2870    5.0210   28.6900 N   0  0  0  0  0  0  0  0  0  0  0  0
   27.4020    5.6150   29.5020 C   0  0  0  0  0  0  0  0  0  0  0  0
   26.8770    5.0910   30.7940 C   0  0  0  0  0  0  0  0  0  0  0  0
   29.3610    5.6300   26.5110 C   0  0  0  0  0  0  0  0  0  0  0  0
   29.3910    6.6400   25.5690 C   0  0  0  0  0  0  0  0  0  0  0  0
   28.6030    7.7620   25.7430 C   0  0  0  0  0  0  0  0  0  0  0  0
   27.7790    7.9150   26.8320 C   0  0  0  0  0  0  0  0  0  0  0  0
   30.1700    4.3910   26.4090 C   0  0  0  0  0  0  0  0  0  0  0  0
   22.4220    7.2630   32.3120 C   0  0  0  0  0  0  0  0  0  0  0  0
   21.1280    7.9960   32.3940 C   0  0  0  0  0  0  0  0  0  0  0  0
   20.3610    7.6590   33.5760 N   0  0  0  0  0  4  0  0  0  0  0  0
   19.9760    8.8420   34.3130 C   0  0  0  0  0  0  0  0  0  0  0  0
   18.8720    9.5840   33.5530 C   0  0  0  0  0  0  0  0  0  0  0  0
   17.7630    8.7320   33.5670 O   0  0  0  0  0  0  0  0  0  0  0  0
   18.0880    7.6710   32.6970 C   0  0  0  0  0  0  0  0  0  0  0  0
   19.2160    6.8320   33.2500 C   0  0  0  0  0  0  0  0  0  0  0  0
   23.0790   10.4860   28.9580 H   0  0  0  0  0  0  0  0  0  0  0  0
   24.9610    9.0530   32.4690 H   0  0  0  0  0  0  0  0  0  0  0  0
   25.4000   11.3420   33.1790 H   0  0  0  0  0  0  0  0  0  0  0  0
   24.6810   13.2160   31.7470 H   0  0  0  0  0  0  0  0  0  0  0  0
   22.9920    8.3150   29.2730 H   0  0  0  0  0  0  0  0  0  0  0  0
   25.9440    4.5280   30.5870 H   0  0  0  0  0  0  0  0  0  0  0  0
   26.6350    5.9520   31.4280 H   0  0  0  0  0  0  0  0  0  0  0  0
   27.6410    4.4270   31.2730 H   0  0  0  0  0  0  0  0  0  0  0  0
   30.0430    6.5300   24.6960 H   0  0  0  0  0  0  0  0  0  0  0  0
   28.6210    8.5570   25.0110 H   0  0  0  0  0  0  0  0  0  0  0  0
   27.1610    8.7830   26.9800 H   0  0  0  0  0  0  0  0  0  0  0  0
   30.6700    4.3580   25.4180 H   0  0  0  0  0  0  0  0  0  0  0  0
   29.4960    3.5020   26.5080 H   0  0  0  0  0  0  0  0  0  0  0  0
   30.9530    4.3210   27.1690 H   0  0  0  0  0  0  0  0  0  0  0  0
   22.2230    6.2060   32.6040 H   0  0  0  0  0  0  0  0  0  0  0  0
   23.1650    7.6250   33.0700 H   0  0  0  0  0  0  0  0  0  0  0  0
   21.4160    9.0920   32.5010 H   0  0  0  0  0  0  0  0  0  0  0  0
   20.4620    7.9590   31.5510 H   0  0  0  0  0  0  0  0  0  0  0  0
   20.9630    7.0910   34.2210 H   0  0  0  0  0  0  0  0  0  0  0  0
   20.8500    9.5200   34.3110 H   0  0  0  0  0  0  0  0  0  0  0  0
   19.7050    8.6350   35.3480 H   0  0  0  0  0  0  0  0  0  0  0  0
   18.6780   10.5590   34.0090 H   0  0  0  0  0  0  0  0  0  0  0  0
   19.1870    9.6660   32.4990 H   0  0  0  0  0  0  0  0  0  0  0  0
   18.4760    8.1500   31.7650 H   0  0  0  0  0  0  0  0  0  0  0  0
   17.2300    7.0330   32.4860 H   0  0  0  0  0  0  0  0  0  0  0  0
   19.5330    6.1480   32.4360 H   0  0  0  0  0  0  0  0  0  0  0  0
   18.9030    6.1960   34.1010 H   0  0  0  0  0  0  0  0  0  0  0  0
  1  2  1  0  0  0  0
  2  7  1  0  0  0  0
  3  2  2  0  0  0  0
  3  4  1  0  0  0  0
  4  5  2  0  0  0  0
  5  6  1  0  0  0  0
  5 37  1  0  0  0  0
  6 38  1  0  0  0  0
  7 39  1  0  0  0  0
  7  6  2  0  0  0  0
  8 40  1  6  0  0  0
  8  4  1  0  0  0  0
  8  9  1  0  0  0  0
  9 28  1  0  0  0  0
 10 11  2  0  0  0  0
 10  9  1  0  0  0  0
 12 14  1  0  0  0  0
 12 10  1  0  0  0  0
 13 12  2  0  0  0  0
 14  8  1  0  0  0  0
 15 14  2  0  0  0  0
 15 16  1  0  0  0  0
 17 15  1  0  0  0  0
 17 21  2  0  0  0  0
 18 17  1  0  0  0  0
 19 18  1  0  0  0  0
 19 20  2  0  0  0  0
 20 21  1  0  0  0  0
 21 22  1  0  0  0  0
 22 43  1  0  0  0  0
 22 42  1  0  0  0  0
 23 19  1  0  0  0  0
 24 25  1  0  0  0  0
 24 23  2  0  0  0  0
 25 26  2  0  0  0  0
 26 46  1  0  0  0  0
 26 18  1  0  0  0  0
 27 48  1  0  0  0  0
 27 23  1  0  0  0  0
 27 49  1  0  0  0  0
 28 29  1  0  0  0  0
 28 50  1  0  0  0  0
 28 51  1  0  0  0  0
 29 52  1  0  0  0  0
 29 30  1  0  0  0  0
 30 54  1  0  0  0  0
 30 31  1  0  0  0  0
 31 56  1  0  0  0  0
 32 33  1  0  0  0  0
 32 57  1  0  0  0  0
 32 31  1  0  0  0  0
 34 35  1  0  0  0  0
 34 33  1  0  0  0  0
 35 30  1  0  0  0  0
 35 62  1  0  0  0  0
 36  3  1  0  0  0  0
 41 22  1  0  0  0  0
 44 24  1  0  0  0  0
 45 25  1  0  0  0  0
 47 27  1  0  0  0  0
 53 29  1  0  0  0  0
 55 31  1  0  0  0  0
 58 32  1  0  0  0  0
 59 34  1  0  0  0  0
 60 34  1  0  0  0  0
 61 35  1  0  0  0  0
M  END
>  <Pose>
1

>  <Score>
-6.34

$$$$
