
 OpenBabel03202209553D

 57 60  0  0  1  0  0  0  0  0999 V2000
   24.4370   12.1900   28.4820 B   0  0  0  0  0  0  0  0  0  0  0  0
   23.9740   11.0610   29.9380 C   0  0  0  0  0  0  0  0  0  0  0  0
   23.2810    9.8760   29.6910 C   0  0  0  0  0  0  0  0  0  0  0  0
   22.9380    9.0520   30.7090 C   0  0  0  0  0  0  0  0  0  0  0  0
   23.2990    9.4250   32.0080 C   0  0  0  0  0  0  0  0  0  0  0  0
   23.9770   10.5830   32.2450 C   0  0  0  0  0  0  0  0  0  0  0  0
   24.3360   11.4360   31.2240 C   0  0  0  0  0  0  0  0  0  0  0  0
   22.2160    7.7850   30.5400 C   0  0  2  0  0  0  0  0  0  0  0  0
   21.3890    7.4010   31.6680 N   0  0  0  0  0  0  0  0  0  0  0  0
   21.1850    5.9900   31.5180 C   0  0  0  0  0  0  0  0  0  0  0  0
   20.2410    5.3080   31.9560 O   0  0  0  0  0  0  0  0  0  0  0  0
   22.3090    5.4790   30.7430 C   0  0  0  0  0  0  0  0  0  0  0  0
   22.5730    4.3020   30.3530 O   0  0  0  0  0  0  0  0  0  0  0  0
   23.1580    6.6250   30.4550 C   0  0  0  0  0  0  0  0  0  0  0  0
   24.4400    6.5820   30.1500 C   0  0  0  0  0  0  0  0  0  0  0  0
   25.0410    7.8120   29.8460 O   0  0  0  0  0  0  0  0  0  0  0  0
   25.2540    5.3770   30.1140 C   0  0  0  0  0  0  0  0  0  0  0  0
   25.9870    4.9140   29.0900 N   0  0  0  0  0  0  0  0  0  0  0  0
   26.6480    3.7820   29.4420 C   0  0  0  0  0  0  0  0  0  0  0  0
   26.2930    3.5550   30.7370 N   0  0  0  0  0  0  0  0  0  0  0  0
   25.4620    4.4840   31.1770 C   0  0  0  0  0  0  0  0  0  0  0  0
   24.8080    4.6680   32.4910 C   0  0  0  0  0  0  0  0  0  0  0  0
   27.4700    3.0870   28.5680 C   0  0  0  0  0  0  0  0  0  0  0  0
   27.6390    3.5440   27.2780 C   0  0  0  0  0  0  0  0  0  0  0  0
   26.9570    4.7030   26.9250 C   0  0  0  0  0  0  0  0  0  0  0  0
   26.1590    5.3590   27.8100 C   0  0  0  0  0  0  0  0  0  0  0  0
   20.8500    8.2500   32.7330 C   0  0  0  0  0  0  0  0  0  0  0  0
   19.3700    8.3630   32.7110 C   0  0  0  0  0  0  0  0  0  0  0  0
   18.5670    7.1370   32.8600 C   0  0  0  0  0  0  0  0  0  0  0  0
   17.2180    7.3040   33.2730 N   0  0  0  0  0  4  0  0  0  0  0  0
   16.3340    7.1880   32.1380 C   0  0  0  0  0  0  0  0  0  0  0  0
   17.0320    8.6740   33.7870 C   0  0  0  0  0  0  0  0  0  0  0  0
   23.0310    9.6540   28.6800 H   0  0  0  0  0  0  0  0  0  0  0  0
   23.0300    8.7750   32.8290 H   0  0  0  0  0  0  0  0  0  0  0  0
   24.2630   10.8810   33.2610 H   0  0  0  0  0  0  0  0  0  0  0  0
   24.8820   12.3710   31.4100 H   0  0  0  0  0  0  0  0  0  0  0  0
   21.5840    7.7780   29.6540 H   0  0  0  0  0  0  0  0  0  0  0  0
   24.8800    3.6920   33.0230 H   0  0  0  0  0  0  0  0  0  0  0  0
   23.7140    4.8520   32.3660 H   0  0  0  0  0  0  0  0  0  0  0  0
   25.2790    5.4440   33.1150 H   0  0  0  0  0  0  0  0  0  0  0  0
   27.9730    2.1900   28.9000 H   0  0  0  0  0  0  0  0  0  0  0  0
   28.2660    3.0490   26.5470 H   0  0  0  0  0  0  0  0  0  0  0  0
   27.0750    5.0860   25.9060 H   0  0  0  0  0  0  0  0  0  0  0  0
   25.6040    6.2710   27.5500 H   0  0  0  0  0  0  0  0  0  0  0  0
   21.2670    7.9370   33.7140 H   0  0  0  0  0  0  0  0  0  0  0  0
   21.2510    9.2690   32.5640 H   0  0  0  0  0  0  0  0  0  0  0  0
   18.9960    9.1460   33.4200 H   0  0  0  0  0  0  0  0  0  0  0  0
   19.1080    8.8010   31.6990 H   0  0  0  0  0  0  0  0  0  0  0  0
   18.5500    6.6310   31.8560 H   0  0  0  0  0  0  0  0  0  0  0  0
   19.1110    6.3960   33.5170 H   0  0  0  0  0  0  0  0  0  0  0  0
   16.9320    6.6980   34.0730 H   0  0  0  0  0  0  0  0  0  0  0  0
   15.7460    8.1090   31.9410 H   0  0  0  0  0  0  0  0  0  0  0  0
   16.9550    7.0040   31.2400 H   0  0  0  0  0  0  0  0  0  0  0  0
   15.6430    6.3280   32.2140 H   0  0  0  0  0  0  0  0  0  0  0  0
   17.6500    8.8300   34.7000 H   0  0  0  0  0  0  0  0  0  0  0  0
   17.2790    9.4070   32.9800 H   0  0  0  0  0  0  0  0  0  0  0  0
   15.9840    8.8480   34.0910 H   0  0  0  0  0  0  0  0  0  0  0  0
  1  2  1  0  0  0  0
  2  7  1  0  0  0  0
  3  2  2  0  0  0  0
  3  4  1  0  0  0  0
  4  5  2  0  0  0  0
  5  6  1  0  0  0  0
  5 34  1  0  0  0  0
  6 35  1  0  0  0  0
  7 36  1  0  0  0  0
  7  6  2  0  0  0  0
  8 37  1  6  0  0  0
  8  4  1  0  0  0  0
  8  9  1  0  0  0  0
  9 27  1  0  0  0  0
 10  9  1  0  0  0  0
 10 11  2  0  0  0  0
 12 10  1  0  0  0  0
 13 12  2  0  0  0  0
 14  8  1  0  0  0  0
 14 12  1  0  0  0  0
 15 14  2  0  0  0  0
 16 15  1  0  0  0  0
 17 15  1  0  0  0  0
 17 21  2  0  0  0  0
 18 19  1  0  0  0  0
 18 17  1  0  0  0  0
 19 20  2  0  0  0  0
 20 21  1  0  0  0  0
 21 22  1  0  0  0  0
 22 38  1  0  0  0  0
 22 40  1  0  0  0  0
 23 41  1  0  0  0  0
 23 19  1  0  0  0  0
 24 23  2  0  0  0  0
 25 24  1  0  0  0  0
 25 26  2  0  0  0  0
 26 18  1  0  0  0  0
 27 45  1  0  0  0  0
 28 27  1  0  0  0  0
 28 29  1  0  0  0  0
 28 47  1  0  0  0  0
 29 30  1  0  0  0  0
 29 50  1  0  0  0  0
 30 32  1  0  0  0  0
 30 51  1  0  0  0  0
 31 54  1  0  0  0  0
 31 30  1  0  0  0  0
 32 57  1  0  0  0  0
 32 55  1  0  0  0  0
 33  3  1  0  0  0  0
 39 22  1  0  0  0  0
 42 24  1  0  0  0  0
 43 25  1  0  0  0  0
 44 26  1  0  0  0  0
 46 27  1  0  0  0  0
 48 28  1  0  0  0  0
 49 29  1  0  0  0  0
 52 31  1  0  0  0  0
 53 31  1  0  0  0  0
 56 32  1  0  0  0  0
M  END
>  <Pose>
1

>  <Score>
-5.92

$$$$
