
 OpenBabel03202209553D

 38 41  0  0  1  0  0  0  0  0999 V2000
   23.5820   12.5400   31.0590 B   0  0  0  0  0  0  0  0  0  0  0  0
   24.8050   11.3100   30.2690 C   0  0  0  0  0  0  0  0  0  0  0  0
   24.7690    9.9680   30.5690 C   0  0  0  0  0  0  0  0  0  0  0  0
   25.6540    9.0380   30.0050 C   0  0  0  0  0  0  0  0  0  0  0  0
   26.5740    9.5370   29.1260 C   0  0  0  0  0  0  0  0  0  0  0  0
   26.6030   10.9010   28.8280 C   0  0  0  0  0  0  0  0  0  0  0  0
   25.7330   11.7810   29.3890 C   0  0  0  0  0  0  0  0  0  0  0  0
   25.5460    7.6810   30.3680 N   0  0  0  0  0  0  0  0  0  0  0  0
   24.9240    6.6830   29.6020 C   0  0  0  0  0  0  0  0  0  0  0  0
   25.0820    6.4990   28.3860 O   0  0  0  0  0  0  0  0  0  0  0  0
   23.9730    5.7310   30.2740 C   0  0  2  0  0  0  0  0  0  0  0  0
   22.5210    6.0860   30.0870 C   0  0  0  0  0  0  0  0  0  0  0  0
   22.4940    6.7780   31.3840 N   0  0  2  0  0  0  0  0  0  0  0  0
   23.6980    6.0390   31.7160 C   0  0  0  0  0  0  0  0  0  0  0  0
   21.6230    7.7390   31.9690 C   0  0  1  0  0  0  0  0  0  0  0  0
   21.9670    9.0480   32.0860 N   0  0  0  0  0  0  0  0  0  0  0  0
   21.1120    9.9510   32.6510 C   0  0  0  0  0  0  0  0  0  0  0  0
   19.9110    9.5770   33.1050 N   0  0  0  0  0  0  0  0  0  0  0  0
   19.5100    8.3080   33.0220 C   0  0  0  0  0  0  0  0  0  0  0  0
   18.3720    7.6910   33.3990 N   0  0  0  0  0  0  0  0  0  0  0  0
   18.5130    6.4240   33.0760 N   0  0  0  0  0  0  0  0  0  0  0  0
   19.7040    6.2150   32.5050 N   0  0  0  0  0  0  0  0  0  0  0  0
   20.3750    7.3970   32.4510 C   0  0  0  0  0  0  0  0  0  0  0  0
   17.1980    8.2790   34.0390 C   0  0  0  0  0  0  0  0  0  0  0  0
   24.0210    9.6180   31.2710 H   0  0  0  0  0  0  0  0  0  0  0  0
   27.3020    8.8820   28.6410 H   0  0  0  0  0  0  0  0  0  0  0  0
   27.3640   11.2460   28.1160 H   0  0  0  0  0  0  0  0  0  0  0  0
   25.7760   12.8410   29.1400 H   0  0  0  0  0  0  0  0  0  0  0  0
   25.9850    7.4060   31.3220 H   0  0  0  0  0  0  0  0  0  0  0  0
   24.1580    4.6730   30.0170 H   0  0  0  0  0  0  0  0  0  0  0  0
   22.3040    6.8400   29.3010 H   0  0  0  0  0  0  0  0  0  0  0  0
   21.8150    5.2510   30.1110 H   0  0  0  0  0  0  0  0  0  0  0  0
   24.5020    6.6490   32.1790 H   0  0  0  0  0  0  0  0  0  0  0  0
   23.4410    5.1690   32.3380 H   0  0  0  0  0  0  0  0  0  0  0  0
   21.4520   10.9730   32.7110 H   0  0  0  0  0  0  0  0  0  0  0  0
   16.2780    7.7300   33.7790 H   0  0  0  0  0  0  0  0  0  0  0  0
   17.0330    9.3320   33.6670 H   0  0  0  0  0  0  0  0  0  0  0  0
   17.3070    8.3550   35.1220 H   0  0  0  0  0  0  0  0  0  0  0  0
  2  3  1  0  0  0  0
  2  1  1  0  0  0  0
  3 25  1  0  0  0  0
  4  8  1  0  0  0  0
  4  3  2  0  0  0  0
  5  4  1  0  0  0  0
  6  5  2  0  0  0  0
  6  7  1  0  0  0  0
  7  2  2  0  0  0  0
  8 29  1  0  0  0  0
  9 11  1  0  0  0  0
  9  8  1  0  0  0  0
 10  9  2  0  0  0  0
 11 30  1  6  0  0  0
 11 14  1  0  0  0  0
 12 32  1  0  0  0  0
 12 11  1  0  0  0  0
 13 12  1  1  0  0  0
 13 14  1  0  0  0  0
 13 15  1  0  0  0  0
 14 33  1  0  0  0  0
 14 34  1  0  0  0  0
 15 16  1  6  0  0  0
 15 23  1  0  0  0  0
 16 17  2  0  0  0  0
 17 35  1  0  0  0  0
 17 18  1  0  0  0  0
 19 18  1  0  0  0  0
 19 20  1  0  0  0  0
 20 24  1  0  0  0  0
 21 20  1  0  0  0  0
 22 21  2  0  0  0  0
 23 22  1  0  0  0  0
 23 19  2  0  0  0  0
 24 38  1  0  0  0  0
 26  5  1  0  0  0  0
 27  6  1  0  0  0  0
 28  7  1  0  0  0  0
 31 12  1  0  0  0  0
 36 24  1  0  0  0  0
 37 24  1  0  0  0  0
M  END
>  <Pose>
1

>  <Score>
-6.96

$$$$
