
 OpenBabel03202209553D

 25 28  0  0  1  0  0  0  0  0999 V2000
   27.3330   11.9470   28.0010 B   0  0  0  0  0  0  0  0  0  0  0  0
   25.6800   12.4930   28.7790 C   0  0  0  0  0  0  0  0  0  0  0  0
   24.9450   13.5470   28.2610 C   0  0  0  0  0  0  0  0  0  0  0  0
   23.7530   13.9940   28.7650 C   0  0  0  0  0  0  0  0  0  0  0  0
   23.3000   13.2820   29.8950 C   0  0  0  0  0  0  0  0  0  0  0  0
   24.0020   12.2330   30.4340 C   0  0  0  0  0  0  0  0  0  0  0  0
   25.1970   11.8320   29.8780 C   0  0  0  0  0  0  0  0  0  0  0  0
   22.9740   15.0610   28.2700 N   0  0  0  0  0  0  0  0  0  0  0  0
   23.4450   16.0590   27.3840 C   0  0  1  0  0  0  0  0  0  0  0  0
   24.4140   15.9400   26.4820 N   0  0  0  0  0  0  0  0  0  0  0  0
   24.8300   16.9160   25.6580 C   0  0  0  0  0  0  0  0  0  0  0  0
   25.7570   17.0460   24.6930 N   0  0  0  0  0  0  0  0  0  0  0  0
   25.7500   18.2410   24.1910 O   0  0  0  0  0  0  0  0  0  0  0  0
   24.8390   18.9120   24.8020 N   0  0  0  0  0  0  0  0  0  0  0  0
   24.2210   18.1610   25.7280 C   0  0  0  0  0  0  0  0  0  0  0  0
   23.2360   18.3300   26.6240 N   0  0  0  0  0  0  0  0  0  0  0  0
   22.5100   19.4150   26.8770 N   0  0  0  0  0  0  0  0  0  0  0  0
   21.6500   19.0960   27.8560 N   0  0  0  0  0  0  0  0  0  0  0  0
   21.8620   17.8210   28.1910 N   0  0  0  0  0  0  0  0  0  0  0  0
   22.8460   17.3320   27.4320 C   0  0  0  0  0  0  0  0  0  0  0  0
   25.3720   14.0200   27.4060 H   0  0  0  0  0  0  0  0  0  0  0  0
   22.3730   13.5690   30.3530 H   0  0  0  0  0  0  0  0  0  0  0  0
   23.6390   11.6950   31.3070 H   0  0  0  0  0  0  0  0  0  0  0  0
   25.7520   11.0100   30.2970 H   0  0  0  0  0  0  0  0  0  0  0  0
   21.9690   15.0900   28.6040 H   0  0  0  0  0  0  0  0  0  0  0  0
  1  2  1  0  0  0  0
  2  7  1  0  0  0  0
  3  4  1  0  0  0  0
  3  2  2  0  0  0  0
  4  5  2  0  0  0  0
  5 22  1  0  0  0  0
  5  6  1  0  0  0  0
  6 23  1  0  0  0  0
  7 24  1  0  0  0  0
  7  6  2  0  0  0  0
  8 25  1  0  0  0  0
  8  4  1  0  0  0  0
  9 20  1  0  0  0  0
  9  8  1  6  0  0  0
 10  9  1  0  0  0  0
 11 15  1  0  0  0  0
 11 10  2  0  0  0  0
 12 11  1  0  0  0  0
 13 12  1  0  0  0  0
 13 14  1  0  0  0  0
 14 15  2  0  0  0  0
 15 16  1  0  0  0  0
 16 17  1  0  0  0  0
 16 20  1  0  0  0  0
 17 18  2  0  0  0  0
 18 19  1  0  0  0  0
 20 19  2  0  0  0  0
 21  3  1  0  0  0  0
M  END
>  <Pose>
1

>  <Score>
-7.25

$$$$
