
 OpenBabel03202209553D

 37 40  0  0  1  0  0  0  0  0999 V2000
   24.0440   13.3410   29.5920 B   0  0  0  0  0  0  0  0  0  0  0  0
   24.8100   11.6000   29.5460 C   0  0  0  0  0  0  0  0  0  0  0  0
   24.0810   10.4920   29.9900 C   0  0  0  0  0  0  0  0  0  0  0  0
   24.6160    9.2250   29.9630 C   0  0  0  0  0  0  0  0  0  0  0  0
   25.8960    9.0860   29.4860 C   0  0  0  0  0  0  0  0  0  0  0  0
   26.6310   10.1940   29.0400 C   0  0  0  0  0  0  0  0  0  0  0  0
   26.0920   11.4620   29.0670 C   0  0  0  0  0  0  0  0  0  0  0  0
   23.8550    8.1220   30.4120 N   0  0  0  0  0  0  0  0  0  0  0  0
   24.3700    6.8150   30.7490 C   0  0  0  0  0  0  0  0  0  0  0  0
   25.5150    6.5150   31.1050 O   0  0  0  0  0  0  0  0  0  0  0  0
   23.2520    5.8390   30.5950 C   0  0  1  0  0  0  0  0  0  0  0  0
   23.2600    4.8130   31.5210 O   0  0  0  0  0  0  0  0  0  0  0  0
   21.9170    4.5450   31.6490 N   0  0  0  0  0  0  0  0  0  0  0  0
   21.3020    5.8430   31.7420 C   0  0  0  0  0  0  0  0  0  0  0  0
   22.0940    6.6720   31.1050 C   0  0  0  0  0  0  0  0  0  0  0  0
   22.4310    8.0220   30.6380 C   0  0  0  0  0  0  0  0  0  0  0  0
   21.5800    8.9040   30.4790 O   0  0  0  0  0  0  0  0  0  0  0  0
   20.0770    6.2100   32.3980 C   0  0  0  0  0  0  0  0  0  0  0  0
   19.6480    7.5320   32.4990 C   0  0  0  0  0  0  0  0  0  0  0  0
   18.4700    7.5740   33.1460 N   0  0  0  0  0  0  0  0  0  0  0  0
   18.1750    6.3190   33.4380 N   0  0  0  0  0  0  0  0  0  0  0  0
   19.1010    5.4610   33.0150 C   0  0  0  0  0  0  0  0  0  0  0  0
   19.1130    3.9650   33.1530 C   0  0  0  0  0  0  0  0  0  0  0  0
   17.6830    8.7780   33.4590 C   0  0  0  0  0  0  0  0  0  0  0  0
   23.0930   10.6520   30.3530 H   0  0  0  0  0  0  0  0  0  0  0  0
   26.3370    8.1130   29.4540 H   0  0  0  0  0  0  0  0  0  0  0  0
   27.6440   10.0500   28.6660 H   0  0  0  0  0  0  0  0  0  0  0  0
   26.6780   12.3120   28.7150 H   0  0  0  0  0  0  0  0  0  0  0  0
   23.1080    5.5290   29.5530 H   0  0  0  0  0  0  0  0  0  0  0  0
   21.4350    3.6400   31.6750 H   0  0  0  0  0  0  0  0  0  0  0  0
   20.1720    8.4060   32.1190 H   0  0  0  0  0  0  0  0  0  0  0  0
   19.3620    3.6530   34.1680 H   0  0  0  0  0  0  0  0  0  0  0  0
   19.7230    3.5260   32.3650 H   0  0  0  0  0  0  0  0  0  0  0  0
   18.0520    3.6530   32.9710 H   0  0  0  0  0  0  0  0  0  0  0  0
   17.0110    8.9020   32.5620 H   0  0  0  0  0  0  0  0  0  0  0  0
   18.3370    9.6460   33.5830 H   0  0  0  0  0  0  0  0  0  0  0  0
   17.0370    8.5440   34.3010 H   0  0  0  0  0  0  0  0  0  0  0  0
  2  1  1  0  0  0  0
  2  3  1  0  0  0  0
  3 25  1  0  0  0  0
  4  3  2  0  0  0  0
  4  8  1  0  0  0  0
  5  4  1  0  0  0  0
  6  7  1  0  0  0  0
  6  5  2  0  0  0  0
  7  2  2  0  0  0  0
  8 16  1  0  0  0  0
  8  9  1  0  0  0  0
  9 10  2  0  0  0  0
 11 29  1  6  0  0  0
 11  9  1  0  0  0  0
 11 15  1  0  0  0  0
 11 12  1  0  0  0  0
 12 13  1  0  0  0  0
 13 30  1  0  0  0  0
 13 14  1  0  0  0  0
 14 18  1  0  0  0  0
 15 14  2  0  0  0  0
 16 15  1  0  0  0  0
 17 16  2  0  0  0  0
 18 19  2  0  0  0  0
 18 22  1  0  0  0  0
 19 20  1  0  0  0  0
 20 21  1  0  0  0  0
 20 24  1  0  0  0  0
 22 23  1  0  0  0  0
 22 21  2  0  0  0  0
 23 32  1  0  0  0  0
 24 36  1  0  0  0  0
 24 37  1  0  0  0  0
 26  5  1  0  0  0  0
 27  6  1  0  0  0  0
 28  7  1  0  0  0  0
 31 19  1  0  0  0  0
 33 23  1  0  0  0  0
 34 23  1  0  0  0  0
 35 24  1  0  0  0  0
M  END
>  <Pose>
1

>  <Score>
-6.06

$$$$
