
 OpenBabel03202209553D

 52 55  0  0  1  0  0  0  0  0999 V2000
   18.3610    8.4310   33.6260 B   0  0  0  0  0  0  0  0  0  0  0  0
   19.9060    7.8220   32.7280 C   0  0  0  0  0  0  0  0  0  0  0  0
   20.8630    8.7450   32.3190 C   0  0  0  0  0  0  0  0  0  0  0  0
   22.0190    8.3750   31.6570 C   0  0  0  0  0  0  0  0  0  0  0  0
   22.1710    7.0260   31.4240 C   0  0  0  0  0  0  0  0  0  0  0  0
   21.2650    6.0570   31.8020 C   0  0  0  0  0  0  0  0  0  0  0  0
   20.1270    6.4720   32.4590 C   0  0  0  0  0  0  0  0  0  0  0  0
   22.9560    9.3610   31.2740 N   0  0  0  0  0  0  0  0  0  0  0  0
   22.6120   10.6580   30.7110 C   0  0  0  0  0  0  0  0  0  0  0  0
   23.5400   11.5010   31.6110 C   0  0  1  0  0  0  0  0  0  0  0  0
   24.8520   10.8060   31.2300 C   0  0  0  0  0  0  0  0  0  0  0  0
   24.3780    9.3970   31.3210 C   0  0  0  0  0  0  0  0  0  0  0  0
   25.1190    8.3920   31.4240 O   0  0  0  0  0  0  0  0  0  0  0  0
   23.5010   12.9110   31.2770 C   0  0  0  0  0  0  0  0  0  0  0  0
   24.5370   13.4390   30.8010 O   0  0  0  0  0  0  0  0  0  0  0  0
   22.3190   13.6510   31.4880 N   0  0  0  0  0  0  0  0  0  0  0  0
   21.1440   13.5440   30.6340 C   0  0  0  0  0  0  0  0  0  0  0  0
   20.3850   14.8640   30.6750 C   0  0  0  0  0  0  0  0  0  0  0  0
   21.2440   15.9970   30.9610 N   0  0  0  0  0  0  0  0  0  0  0  0
   21.7080   15.9050   32.3010 C   0  0  0  0  0  0  0  0  0  0  0  0
   22.2910   14.5730   32.6310 C   0  0  0  0  0  0  0  0  0  0  0  0
   22.2150   16.2130   29.9490 C   0  0  0  0  0  0  0  0  0  0  0  0
   21.9990   17.4720   29.1480 C   0  0  0  0  0  0  0  0  0  0  0  0
   22.8220   17.5690   27.9770 N   0  0  0  0  0  0  0  0  0  0  0  0
   23.1140   18.6510   27.2530 C   0  0  0  0  0  0  0  0  0  0  0  0
   23.9180   18.3040   26.2260 N   0  0  0  0  0  0  0  0  0  0  0  0
   24.1410   16.9860   26.2970 C   0  0  0  0  0  0  0  0  0  0  0  0
   23.4500   16.5360   27.3970 C   0  0  0  0  0  0  0  0  0  0  0  0
   20.7120    9.7920   32.5170 H   0  0  0  0  0  0  0  0  0  0  0  0
   23.0600    6.6990   30.9090 H   0  0  0  0  0  0  0  0  0  0  0  0
   21.3990    5.0010   31.6120 H   0  0  0  0  0  0  0  0  0  0  0  0
   19.3790    5.7500   32.7800 H   0  0  0  0  0  0  0  0  0  0  0  0
   21.5560   10.9320   30.8860 H   0  0  0  0  0  0  0  0  0  0  0  0
   22.9310   10.7050   29.6640 H   0  0  0  0  0  0  0  0  0  0  0  0
   23.2700   11.2230   32.6310 H   0  0  0  0  0  0  0  0  0  0  0  0
   25.1480   11.0970   30.2060 H   0  0  0  0  0  0  0  0  0  0  0  0
   25.6430   11.0260   31.9670 H   0  0  0  0  0  0  0  0  0  0  0  0
   20.5280   12.7170   31.0390 H   0  0  0  0  0  0  0  0  0  0  0  0
   21.3590   13.3280   29.5890 H   0  0  0  0  0  0  0  0  0  0  0  0
   19.6320   14.7910   31.4590 H   0  0  0  0  0  0  0  0  0  0  0  0
   19.8490   15.0610   29.7210 H   0  0  0  0  0  0  0  0  0  0  0  0
   22.4450   16.7180   32.5110 H   0  0  0  0  0  0  0  0  0  0  0  0
   20.8170   16.1030   32.9610 H   0  0  0  0  0  0  0  0  0  0  0  0
   23.3150   14.7110   33.0410 H   0  0  0  0  0  0  0  0  0  0  0  0
   21.6600   14.0940   33.4370 H   0  0  0  0  0  0  0  0  0  0  0  0
   23.2530   16.2910   30.3580 H   0  0  0  0  0  0  0  0  0  0  0  0
   22.2380   15.3430   29.2280 H   0  0  0  0  0  0  0  0  0  0  0  0
   20.9090   17.5820   28.9070 H   0  0  0  0  0  0  0  0  0  0  0  0
   22.2080   18.3280   29.8540 H   0  0  0  0  0  0  0  0  0  0  0  0
   22.7870   19.6580   27.4240 H   0  0  0  0  0  0  0  0  0  0  0  0
   24.7580   16.4090   25.5980 H   0  0  0  0  0  0  0  0  0  0  0  0
   23.4530   15.4860   27.6970 H   0  0  0  0  0  0  0  0  0  0  0  0
  2  1  1  0  0  0  0
  3 29  1  0  0  0  0
  3  2  2  0  0  0  0
  4  3  1  0  0  0  0
  5  4  2  0  0  0  0
  5  6  1  0  0  0  0
  6  7  2  0  0  0  0
  7  2  1  0  0  0  0
  7 32  1  0  0  0  0
  8 12  1  0  0  0  0
  8  4  1  0  0  0  0
  9 33  1  0  0  0  0
  9  8  1  0  0  0  0
  9 10  1  0  0  0  0
 10 35  1  1  0  0  0
 11 12  1  0  0  0  0
 11 10  1  0  0  0  0
 11 37  1  0  0  0  0
 12 13  2  0  0  0  0
 14 16  1  0  0  0  0
 14 10  1  0  0  0  0
 15 14  2  0  0  0  0
 16 21  1  0  0  0  0
 17 18  1  0  0  0  0
 17 38  1  0  0  0  0
 17 16  1  0  0  0  0
 18 19  1  0  0  0  0
 18 40  1  0  0  0  0
 19 20  1  0  0  0  0
 20 42  1  0  0  0  0
 20 21  1  0  0  0  0
 20 43  1  0  0  0  0
 21 44  1  0  0  0  0
 21 45  1  0  0  0  0
 22 46  1  0  0  0  0
 22 19  1  0  0  0  0
 23 49  1  0  0  0  0
 23 22  1  0  0  0  0
 24 23  1  0  0  0  0
 25 50  1  0  0  0  0
 25 24  1  0  0  0  0
 26 27  1  0  0  0  0
 26 25  2  0  0  0  0
 27 28  2  0  0  0  0
 28 52  1  0  0  0  0
 28 24  1  0  0  0  0
 30  5  1  0  0  0  0
 31  6  1  0  0  0  0
 34  9  1  0  0  0  0
 36 11  1  0  0  0  0
 39 17  1  0  0  0  0
 41 18  1  0  0  0  0
 47 22  1  0  0  0  0
 48 23  1  0  0  0  0
 51 27  1  0  0  0  0
M  END
>  <Pose>
1

>  <Score>
-7.13

$$$$
