
 OpenBabel03202209553D

 50 53  0  0  0  0  0  0  0  0999 V2000
   29.4550    5.9960   26.0290 B   0  0  0  0  0  0  0  0  0  0  0  0
   28.0600    6.4000   27.2570 C   0  0  0  0  0  0  0  0  0  0  0  0
   28.1640    7.5010   28.0950 C   0  0  0  0  0  0  0  0  0  0  0  0
   27.1650    7.8210   29.0000 C   0  0  0  0  0  0  0  0  0  0  0  0
   26.0270    7.0620   29.1100 C   0  0  0  0  0  0  0  0  0  0  0  0
   25.9350    5.9670   28.2690 C   0  0  0  0  0  0  0  0  0  0  0  0
   26.9190    5.6370   27.3650 C   0  0  0  0  0  0  0  0  0  0  0  0
   24.9690    7.3980   30.0610 C   0  0  0  0  0  0  0  0  0  0  0  0
   25.2940    7.7680   31.2010 O   0  0  0  0  0  0  0  0  0  0  0  0
   23.5290    7.2970   29.6710 C   0  0  0  0  0  0  0  0  0  0  0  0
   22.6410    7.8900   30.6310 N   0  0  0  0  0  0  0  0  0  0  0  0
   21.6560    7.2820   31.3130 C   0  0  0  0  0  0  0  0  0  0  0  0
   21.0250    8.1970   32.1350 C   0  0  0  0  0  0  0  0  0  0  0  0
   21.6620    9.3540   31.9180 N   0  0  0  0  0  0  0  0  0  0  0  0
   22.6450    9.1980   31.0130 C   0  0  0  0  0  0  0  0  0  0  0  0
   23.5440   10.1650   30.5020 N   0  0  0  0  0  0  0  0  0  0  0  0
   23.4860   10.5020   29.1160 C   0  0  0  0  0  0  0  0  0  0  0  0
   24.1770   11.7430   28.6910 C   0  0  0  0  0  0  0  0  0  0  0  0
   25.2560   12.1750   29.5290 N   0  0  0  0  0  0  0  0  0  0  0  0
   24.7720   12.2200   30.8950 C   0  0  0  0  0  0  0  0  0  0  0  0
   24.4900   10.7940   31.3710 C   0  0  0  0  0  0  0  0  0  0  0  0
   26.4490   11.3900   29.3840 C   0  0  0  0  0  0  0  0  0  0  0  0
   19.9990    7.8100   32.9140 N   0  0  0  0  0  0  0  0  0  0  0  0
   19.5750    6.5340   32.9070 C   0  0  0  0  0  0  0  0  0  0  0  0
   18.6220    6.1310   33.6180 O   0  0  0  0  0  0  0  0  0  0  0  0
   20.1870    5.6230   32.1020 N   0  0  0  0  0  0  0  0  0  0  0  0
   21.2170    5.9610   31.3050 C   0  0  0  0  0  0  0  0  0  0  0  0
   21.7650    5.0780   30.5670 O   0  0  0  0  0  0  0  0  0  0  0  0
   19.3180    8.7440   33.7870 C   0  0  0  0  0  0  0  0  0  0  0  0
   29.0650    8.1060   28.0100 H   0  0  0  0  0  0  0  0  0  0  0  0
   27.2770    8.7000   29.6490 H   0  0  0  0  0  0  0  0  0  0  0  0
   25.0380    5.3530   28.3410 H   0  0  0  0  0  0  0  0  0  0  0  0
   26.8230    4.7790   26.7240 H   0  0  0  0  0  0  0  0  0  0  0  0
   23.3900    7.7040   28.6460 H   0  0  0  0  0  0  0  0  0  0  0  0
   23.3020    6.2170   29.5880 H   0  0  0  0  0  0  0  0  0  0  0  0
   23.9350    9.6270   28.5720 H   0  0  0  0  0  0  0  0  0  0  0  0
   22.4220   10.5650   28.7800 H   0  0  0  0  0  0  0  0  0  0  0  0
   23.4650   12.5950   28.5570 H   0  0  0  0  0  0  0  0  0  0  0  0
   24.6540   11.5380   27.6830 H   0  0  0  0  0  0  0  0  0  0  0  0
   23.7770   12.7240   30.8590 H   0  0  0  0  0  0  0  0  0  0  0  0
   25.4170   12.7270   31.6030 H   0  0  0  0  0  0  0  0  0  0  0  0
   25.4470   10.2200   31.4550 H   0  0  0  0  0  0  0  0  0  0  0  0
   24.1270   10.9110   32.4140 H   0  0  0  0  0  0  0  0  0  0  0  0
   26.1600   10.3400   29.0890 H   0  0  0  0  0  0  0  0  0  0  0  0
   27.0610   11.3560   30.3060 H   0  0  0  0  0  0  0  0  0  0  0  0
   27.0980   11.7480   28.5620 H   0  0  0  0  0  0  0  0  0  0  0  0
   19.8260    4.6410   32.1250 H   0  0  0  0  0  0  0  0  0  0  0  0
   19.9750    8.8820   34.6710 H   0  0  0  0  0  0  0  0  0  0  0  0
   19.2430    9.7250   33.2770 H   0  0  0  0  0  0  0  0  0  0  0  0
   18.3270    8.3550   34.0930 H   0  0  0  0  0  0  0  0  0  0  0  0
  1  2  1  0  0  0  0
  2  7  2  0  0  0  0
  2  3  1  0  0  0  0
  3  4  2  0  0  0  0
  4  5  1  0  0  0  0
  4 31  1  0  0  0  0
  5  8  1  0  0  0  0
  6 32  1  0  0  0  0
  6  5  2  0  0  0  0
  7  6  1  0  0  0  0
  8  9  2  0  0  0  0
 10  8  1  0  0  0  0
 10 11  1  0  0  0  0
 11 15  1  0  0  0  0
 11 12  1  0  0  0  0
 12 13  2  0  0  0  0
 13 23  1  0  0  0  0
 14 13  1  0  0  0  0
 15 14  2  0  0  0  0
 16 15  1  0  0  0  0
 16 21  1  0  0  0  0
 17 16  1  0  0  0  0
 18 17  1  0  0  0  0
 18 19  1  0  0  0  0
 19 20  1  0  0  0  0
 20 21  1  0  0  0  0
 20 41  1  0  0  0  0
 21 42  1  0  0  0  0
 21 43  1  0  0  0  0
 22 19  1  0  0  0  0
 22 45  1  0  0  0  0
 23 29  1  0  0  0  0
 24 23  1  0  0  0  0
 24 25  2  0  0  0  0
 26 47  1  0  0  0  0
 26 24  1  0  0  0  0
 27 12  1  0  0  0  0
 27 26  1  0  0  0  0
 28 27  2  0  0  0  0
 29 50  1  0  0  0  0
 29 48  1  0  0  0  0
 30  3  1  0  0  0  0
 33  7  1  0  0  0  0
 34 10  1  0  0  0  0
 35 10  1  0  0  0  0
 36 17  1  0  0  0  0
 37 17  1  0  0  0  0
 38 18  1  0  0  0  0
 39 18  1  0  0  0  0
 40 20  1  0  0  0  0
 44 22  1  0  0  0  0
 46 22  1  0  0  0  0
 49 29  1  0  0  0  0
M  END
>  <Pose>
1

>  <Score>
-7.42

$$$$
