
 OpenBabel03202209553D

 58 61  0  0  1  0  0  0  0  0999 V2000
   24.6420    3.5880   31.0590 B   0  0  0  0  0  0  0  0  0  0  0  0
   24.1420    5.3770   30.6700 C   0  0  0  0  0  0  0  0  0  0  0  0
   22.8260    5.7450   30.8200 C   0  0  0  0  0  0  0  0  0  0  0  0
   22.4510    7.0340   30.5420 C   0  0  0  0  0  0  0  0  0  0  0  0
   23.3730    7.9940   30.1090 C   0  0  0  0  0  0  0  0  0  0  0  0
   24.6760    7.5600   29.9800 C   0  0  0  0  0  0  0  0  0  0  0  0
   25.0920    6.2700   30.2500 C   0  0  0  0  0  0  0  0  0  0  0  0
   22.9510    9.3550   29.8280 C   0  0  0  0  0  0  0  0  0  0  0  0
   23.1540    9.8220   28.6890 O   0  0  0  0  0  0  0  0  0  0  0  0
   22.3080   10.1440   30.8620 C   0  0  2  0  0  0  0  0  0  0  0  0
   21.9990   11.5720   30.4820 C   0  0  1  0  0  0  0  0  0  0  0  0
   21.7020   12.1700   31.7630 N   0  0  0  0  0  0  0  0  0  0  0  0
   22.5450   11.5250   32.7120 C   0  0  0  0  0  0  0  0  0  0  0  0
   22.6900   11.8620   33.9270 O   0  0  0  0  0  0  0  0  0  0  0  0
   23.2200   10.4000   32.0370 C   0  0  0  0  0  0  0  0  0  0  0  0
   24.2710    9.8340   32.3800 O   0  0  0  0  0  0  0  0  0  0  0  0
   20.7620   13.2090   32.1040 C   0  0  0  0  0  0  0  0  0  0  0  0
   20.8360   14.4030   31.2030 C   0  0  0  0  0  0  0  0  0  0  0  0
   20.5630   15.6470   31.8130 N   0  0  0  0  0  4  0  0  0  0  0  0
   19.6310   16.3820   30.9510 C   0  0  0  0  0  0  0  0  0  0  0  0
   20.2710   16.8520   29.6870 C   0  0  0  0  0  0  0  0  0  0  0  0
   21.6430   16.8010   29.6810 O   0  0  0  0  0  0  0  0  0  0  0  0
   22.1650   17.2570   30.8670 C   0  0  0  0  0  0  0  0  0  0  0  0
   21.6740   16.4940   32.0660 C   0  0  0  0  0  0  0  0  0  0  0  0
   23.0560   12.2390   29.7380 C   0  0  0  0  0  0  0  0  0  0  0  0
   24.2180   11.5680   29.3320 C   0  0  0  0  0  0  0  0  0  0  0  0
   25.2140   12.2070   28.6230 C   0  0  0  0  0  0  0  0  0  0  0  0
   25.1020   13.5420   28.2810 C   0  0  0  0  0  0  0  0  0  0  0  0
   23.9670   14.2210   28.6700 C   0  0  0  0  0  0  0  0  0  0  0  0
   22.9750   13.5660   29.3820 C   0  0  0  0  0  0  0  0  0  0  0  0
   26.0900   14.2100   27.5680 O   0  0  0  0  0  0  0  0  0  0  0  0
   26.3640   11.5510   28.2200 O   0  0  0  0  0  0  0  0  0  0  0  0
   27.0590   10.6340   29.0250 C   0  0  0  0  0  0  0  0  0  0  0  0
   22.1220    5.0060   31.1510 H   0  0  0  0  0  0  0  0  0  0  0  0
   21.4310    7.3750   30.6420 H   0  0  0  0  0  0  0  0  0  0  0  0
   25.4500    8.2410   29.6550 H   0  0  0  0  0  0  0  0  0  0  0  0
   26.1070    5.9510   30.1450 H   0  0  0  0  0  0  0  0  0  0  0  0
   21.3980    9.6750   31.2930 H   0  0  0  0  0  0  0  0  0  0  0  0
   21.1020   11.5220   29.8260 H   0  0  0  0  0  0  0  0  0  0  0  0
   21.0460   13.5620   33.1320 H   0  0  0  0  0  0  0  0  0  0  0  0
   19.7260   12.8750   32.1610 H   0  0  0  0  0  0  0  0  0  0  0  0
   20.1370   14.2900   30.3230 H   0  0  0  0  0  0  0  0  0  0  0  0
   21.8510   14.4170   30.7540 H   0  0  0  0  0  0  0  0  0  0  0  0
   20.0370   15.5170   32.7220 H   0  0  0  0  0  0  0  0  0  0  0  0
   18.6930   15.8190   30.7910 H   0  0  0  0  0  0  0  0  0  0  0  0
   19.3480   17.2970   31.5390 H   0  0  0  0  0  0  0  0  0  0  0  0
   19.9120   16.1980   28.8540 H   0  0  0  0  0  0  0  0  0  0  0  0
   19.9890   17.9180   29.4450 H   0  0  0  0  0  0  0  0  0  0  0  0
   23.2920   17.2370   30.7940 H   0  0  0  0  0  0  0  0  0  0  0  0
   21.9230   18.3540   30.9290 H   0  0  0  0  0  0  0  0  0  0  0  0
   22.5470   16.0010   32.5320 H   0  0  0  0  0  0  0  0  0  0  0  0
   21.3390   17.2680   32.8180 H   0  0  0  0  0  0  0  0  0  0  0  0
   24.3070   10.5170   29.6010 H   0  0  0  0  0  0  0  0  0  0  0  0
   23.8910   15.2650   28.3980 H   0  0  0  0  0  0  0  0  0  0  0  0
   22.1210   14.1300   29.6560 H   0  0  0  0  0  0  0  0  0  0  0  0
   27.2490   11.0400   30.0540 H   0  0  0  0  0  0  0  0  0  0  0  0
   28.0670   10.4800   28.5830 H   0  0  0  0  0  0  0  0  0  0  0  0
   26.5780    9.6520   29.1100 H   0  0  0  0  0  0  0  0  0  0  0  0
  2  3  1  0  0  0  0
  2  1  1  0  0  0  0
  3 34  1  0  0  0  0
  4 35  1  0  0  0  0
  4  3  2  0  0  0  0
  5  4  1  0  0  0  0
  6  5  2  0  0  0  0
  6  7  1  0  0  0  0
  7  2  2  0  0  0  0
  8  5  1  0  0  0  0
  8 10  1  0  0  0  0
  9  8  2  0  0  0  0
 10 38  1  1  0  0  0
 10 15  1  0  0  0  0
 11 39  1  6  0  0  0
 11 10  1  0  0  0  0
 11 12  1  0  0  0  0
 12 17  1  0  0  0  0
 12 13  1  0  0  0  0
 13 14  2  0  0  0  0
 15 16  2  0  0  0  0
 15 13  1  0  0  0  0
 17 41  1  0  0  0  0
 17 40  1  0  0  0  0
 18 19  1  0  0  0  0
 18 17  1  0  0  0  0
 19 24  1  0  0  0  0
 19 44  1  0  0  0  0
 20 46  1  0  0  0  0
 20 19  1  0  0  0  0
 21 20  1  0  0  0  0
 22 21  1  0  0  0  0
 22 23  1  0  0  0  0
 23 50  1  0  0  0  0
 23 24  1  0  0  0  0
 24 51  1  0  0  0  0
 24 52  1  0  0  0  0
 25 11  1  0  0  0  0
 26 53  1  0  0  0  0
 26 25  2  0  0  0  0
 27 26  1  0  0  0  0
 28 27  2  0  0  0  0
 28 29  1  0  0  0  0
 29 30  2  0  0  0  0
 30 55  1  0  0  0  0
 30 25  1  0  0  0  0
 31 28  1  0  0  0  0
 32 27  1  0  0  0  0
 32 33  1  0  0  0  0
 33 58  1  0  0  0  0
 33 56  1  0  0  0  0
 36  6  1  0  0  0  0
 37  7  1  0  0  0  0
 42 18  1  0  0  0  0
 43 18  1  0  0  0  0
 45 20  1  0  0  0  0
 47 21  1  0  0  0  0
 48 21  1  0  0  0  0
 49 23  1  0  0  0  0
 54 29  1  0  0  0  0
 57 33  1  0  0  0  0
M  END
>  <Pose>
1

>  <Score>
-4.39

$$$$
