
 OpenBabel03202209553D

 41 44  0  0  1  0  0  0  0  0999 V2000
   25.0890    0.8570   32.5540 B   0  0  0  0  0  0  0  0  0  0  0  0
   24.5930    2.5950   31.9390 C   0  0  0  0  0  0  0  0  0  0  0  0
   25.4270    3.3280   31.1230 C   0  0  0  0  0  0  0  0  0  0  0  0
   25.1130    4.5840   30.6550 C   0  0  0  0  0  0  0  0  0  0  0  0
   23.9200    5.1660   30.9970 C   0  0  0  0  0  0  0  0  0  0  0  0
   23.0730    4.4380   31.8180 C   0  0  0  0  0  0  0  0  0  0  0  0
   23.3950    3.1830   32.2810 C   0  0  0  0  0  0  0  0  0  0  0  0
   23.5380    6.4830   30.5410 C   0  0  0  0  0  0  0  0  0  0  0  0
   23.1270    6.6070   29.3410 O   0  0  0  0  0  0  0  0  0  0  0  0
   23.5830    7.7110   31.3460 C   0  0  1  0  0  0  0  0  0  0  0  0
   23.1610    8.8690   30.5740 N   0  0  0  0  0  0  0  0  0  0  0  0
   22.8400    9.1460   29.2610 N   0  0  0  0  0  0  0  0  0  0  0  0
   22.3740   10.2780   28.8650 C   0  0  0  0  0  0  0  0  0  0  0  0
   22.1750   11.3430   29.8210 C   0  0  0  0  0  0  0  0  0  0  0  0
   22.4830   11.1650   31.0850 C   0  0  0  0  0  0  0  0  0  0  0  0
   23.0400    9.9210   31.5810 C   0  0  1  0  0  0  0  0  0  0  0  0
   22.2600    9.2220   32.6370 C   0  0  2  0  0  0  0  0  0  0  0  0
   22.5510    7.7280   32.4530 C   0  0  1  0  0  0  0  0  0  0  0  0
   21.2650    7.1650   32.0450 C   0  0  0  0  0  0  0  0  0  0  0  0
   21.0930    6.0240   31.5340 O   0  0  0  0  0  0  0  0  0  0  0  0
   20.2470    8.1090   32.3140 N   0  0  0  0  0  0  0  0  0  0  0  0
   20.8070    9.3990   32.5190 C   0  0  0  0  0  0  0  0  0  0  0  0
   20.1870   10.4880   32.5870 O   0  0  0  0  0  0  0  0  0  0  0  0
   18.8320    7.8270   32.3780 C   0  0  0  0  0  0  0  0  0  0  0  0
   18.4710    6.7990   33.4070 C   0  0  0  0  0  0  0  0  0  0  0  0
   26.3910    2.9010   30.8240 H   0  0  0  0  0  0  0  0  0  0  0  0
   25.7960    5.1420   30.0030 H   0  0  0  0  0  0  0  0  0  0  0  0
   22.1080    4.8790   32.1100 H   0  0  0  0  0  0  0  0  0  0  0  0
   22.7090    2.6500   32.9170 H   0  0  0  0  0  0  0  0  0  0  0  0
   24.5710    7.8230   31.7850 H   0  0  0  0  0  0  0  0  0  0  0  0
   22.1160   10.4740   27.8130 H   0  0  0  0  0  0  0  0  0  0  0  0
   21.7640   12.2920   29.4660 H   0  0  0  0  0  0  0  0  0  0  0  0
   22.3160   11.9740   31.7870 H   0  0  0  0  0  0  0  0  0  0  0  0
   24.1010   10.1210   31.9120 H   0  0  0  0  0  0  0  0  0  0  0  0
   22.5510    9.5720   33.6510 H   0  0  0  0  0  0  0  0  0  0  0  0
   22.9150    7.3760   33.4230 H   0  0  0  0  0  0  0  0  0  0  0  0
   18.4240    7.4880   31.3980 H   0  0  0  0  0  0  0  0  0  0  0  0
   18.2480    8.7540   32.6310 H   0  0  0  0  0  0  0  0  0  0  0  0
   19.2960    6.0780   33.6000 H   0  0  0  0  0  0  0  0  0  0  0  0
   18.1260    7.2870   34.3510 H   0  0  0  0  0  0  0  0  0  0  0  0
   17.5970    6.1910   33.0550 H   0  0  0  0  0  0  0  0  0  0  0  0
  2  7  1  0  0  0  0
  2  1  1  0  0  0  0
  3  2  2  0  0  0  0
  4  5  2  0  0  0  0
  4  3  1  0  0  0  0
  5  6  1  0  0  0  0
  6 28  1  0  0  0  0
  6  7  2  0  0  0  0
  7 29  1  0  0  0  0
  8  5  1  0  0  0  0
  8 10  1  0  0  0  0
  9  8  2  0  0  0  0
 10 30  1  1  0  0  0
 10 18  1  0  0  0  0
 11 10  1  0  0  0  0
 11 16  1  0  0  0  0
 12 11  1  0  0  0  0
 13 12  2  0  0  0  0
 13 14  1  0  0  0  0
 14 15  2  0  0  0  0
 15 16  1  0  0  0  0
 15 33  1  0  0  0  0
 16 34  1  1  0  0  0
 16 17  1  0  0  0  0
 17 35  1  1  0  0  0
 18 17  1  0  0  0  0
 18 36  1  1  0  0  0
 19 21  1  0  0  0  0
 19 18  1  0  0  0  0
 20 19  2  0  0  0  0
 21 24  1  0  0  0  0
 21 22  1  0  0  0  0
 22 23  2  0  0  0  0
 22 17  1  0  0  0  0
 24 38  1  0  0  0  0
 24 25  1  0  0  0  0
 25 39  1  0  0  0  0
 25 40  1  0  0  0  0
 26  3  1  0  0  0  0
 27  4  1  0  0  0  0
 31 13  1  0  0  0  0
 32 14  1  0  0  0  0
 37 24  1  0  0  0  0
 41 25  1  0  0  0  0
M  END
>  <Pose>
1

>  <Score>
-5.08

$$$$
