
 OpenBabel03202209553D

 48 49  0  0  1  0  0  0  0  0999 V2000
   25.9010    4.5650   29.4720 B   0  0  0  0  0  0  0  0  0  0  0  0
   24.6080    5.7650   30.1780 C   0  0  0  0  0  0  0  0  0  0  0  0
   24.8730    7.0940   30.4400 C   0  0  0  0  0  0  0  0  0  0  0  0
   23.9100    7.9400   30.9530 C   0  0  0  0  0  0  0  0  0  0  0  0
   22.6330    7.5020   31.2320 C   0  0  0  0  0  0  0  0  0  0  0  0
   22.3690    6.1770   30.9710 C   0  0  0  0  0  0  0  0  0  0  0  0
   23.3200    5.3260   30.4600 C   0  0  0  0  0  0  0  0  0  0  0  0
   21.6080    8.4040   31.7790 C   0  0  0  0  0  0  0  0  0  0  0  0
   20.5910    7.8350   32.3020 O   0  0  0  0  0  0  0  0  0  0  0  0
   21.7100    9.7970   31.7450 N   0  0  0  0  0  0  0  0  0  0  0  0
   22.8220   10.4730   32.3620 C   0  0  0  0  0  0  0  0  0  0  0  0
   22.6210   11.9670   32.4330 C   0  0  0  0  0  0  0  0  0  0  0  0
   23.2500   12.4690   31.2300 N   0  0  0  0  0  0  0  0  0  0  0  0
   24.1640   11.4740   30.6950 C   0  0  0  0  0  0  0  0  0  0  0  0
   24.0400   10.2360   31.5120 C   0  0  0  0  0  0  0  0  0  0  0  0
   23.7820   11.2890   29.2770 C   0  0  0  0  0  0  0  0  0  0  0  0
   23.6300   10.1310   28.8280 O   0  0  0  0  0  0  0  0  0  0  0  0
   23.6020   12.4430   28.4770 N   0  0  0  0  0  0  0  0  0  0  0  0
   23.3880   13.7670   29.0160 C   0  0  1  0  0  0  0  0  0  0  0  0
   23.1700   13.6800   30.4890 C   0  0  0  0  0  0  0  0  0  0  0  0
   22.8900   14.7420   31.1520 O   0  0  0  0  0  0  0  0  0  0  0  0
   24.5230   14.6950   28.6560 C   0  0  0  0  0  0  0  0  0  0  0  0
   24.0250   15.9250   27.9780 C   0  0  0  0  0  0  0  0  0  0  0  0
   24.4660   16.2540   26.6950 C   0  0  0  0  0  0  0  0  0  0  0  0
   23.9730   17.4020   26.1160 C   0  0  0  0  0  0  0  0  0  0  0  0
   23.0660   18.2360   26.7480 C   0  0  0  0  0  0  0  0  0  0  0  0
   22.6610   17.8700   28.0100 C   0  0  0  0  0  0  0  0  0  0  0  0
   23.1200   16.7340   28.6400 C   0  0  0  0  0  0  0  0  0  0  0  0
   25.8880    7.4330   30.2160 H   0  0  0  0  0  0  0  0  0  0  0  0
   24.1920    8.9500   31.1270 H   0  0  0  0  0  0  0  0  0  0  0  0
   21.3860    5.7900   31.1730 H   0  0  0  0  0  0  0  0  0  0  0  0
   23.1020    4.2710   30.2550 H   0  0  0  0  0  0  0  0  0  0  0  0
   20.9860   10.3660   31.2760 H   0  0  0  0  0  0  0  0  0  0  0  0
   22.9330   10.1140   33.3930 H   0  0  0  0  0  0  0  0  0  0  0  0
   21.5440   12.1540   32.4770 H   0  0  0  0  0  0  0  0  0  0  0  0
   23.0940   12.4380   33.3020 H   0  0  0  0  0  0  0  0  0  0  0  0
   25.2010   11.8610   30.7820 H   0  0  0  0  0  0  0  0  0  0  0  0
   23.9770    9.3290   30.8970 H   0  0  0  0  0  0  0  0  0  0  0  0
   24.9120   10.1310   32.1860 H   0  0  0  0  0  0  0  0  0  0  0  0
   23.6300   12.2940   27.4340 H   0  0  0  0  0  0  0  0  0  0  0  0
   22.4350   14.1460   28.5920 H   0  0  0  0  0  0  0  0  0  0  0  0
   25.2670   14.1910   28.0130 H   0  0  0  0  0  0  0  0  0  0  0  0
   24.9830   15.0180   29.6110 H   0  0  0  0  0  0  0  0  0  0  0  0
   25.1730   15.5950   26.2160 H   0  0  0  0  0  0  0  0  0  0  0  0
   24.3080   17.6770   25.1060 H   0  0  0  0  0  0  0  0  0  0  0  0
   22.7110   19.1260   26.2440 H   0  0  0  0  0  0  0  0  0  0  0  0
   21.9430   18.5200   28.5210 H   0  0  0  0  0  0  0  0  0  0  0  0
   22.7970   16.4550   29.6300 H   0  0  0  0  0  0  0  0  0  0  0  0
  1  2  1  0  0  0  0
  2  3  2  0  0  0  0
  2  7  1  0  0  0  0
  3  4  1  0  0  0  0
  4 30  1  0  0  0  0
  4  5  2  0  0  0  0
  5  8  1  0  0  0  0
  6 31  1  0  0  0  0
  6  5  1  0  0  0  0
  7  6  2  0  0  0  0
  8  9  2  0  0  0  0
 10  8  1  0  0  0  0
 10 11  1  0  0  0  0
 11 12  1  0  0  0  0
 11 34  1  0  0  0  0
 12 35  1  0  0  0  0
 12 36  1  0  0  0  0
 13 12  1  0  0  0  0
 14 37  1  0  0  0  0
 14 13  1  0  0  0  0
 15 39  1  0  0  0  0
 16 14  1  0  0  0  0
 17 16  2  0  0  0  0
 18 19  1  0  0  0  0
 18 16  1  0  0  0  0
 19 41  1  6  0  0  0
 19 20  1  0  0  0  0
 20 21  2  0  0  0  0
 20 13  1  0  0  0  0
 22 19  1  0  0  0  0
 22 43  1  0  0  0  0
 23 28  1  0  0  0  0
 23 22  1  0  0  0  0
 24 23  2  0  0  0  0
 25 24  1  0  0  0  0
 25 26  2  0  0  0  0
 26 27  1  0  0  0  0
 27 47  1  0  0  0  0
 27 28  2  0  0  0  0
 28 48  1  0  0  0  0
 29  3  1  0  0  0  0
 32  7  1  0  0  0  0
 33 10  1  0  0  0  0
 38 15  1  0  0  0  0
 40 18  1  0  0  0  0
 42 22  1  0  0  0  0
 44 24  1  0  0  0  0
 45 25  1  0  0  0  0
 46 26  1  0  0  0  0
M  END
>  <Pose>
1

>  <Score>
-6.14

$$$$
