
 OpenBabel03202209553D

 49 52  0  0  1  0  0  0  0  0999 V2000
   17.4270    7.7310   33.4170 B   0  0  0  0  0  0  0  0  0  0  0  0
   19.2140    7.6990   32.7570 C   0  0  0  0  0  0  0  0  0  0  0  0
   19.8470    6.5450   32.3490 C   0  0  0  0  0  0  0  0  0  0  0  0
   21.1410    6.5410   31.8750 C   0  0  0  0  0  0  0  0  0  0  0  0
   21.8770    7.7290   31.7870 C   0  0  0  0  0  0  0  0  0  0  0  0
   21.2300    8.8740   32.1990 C   0  0  0  0  0  0  0  0  0  0  0  0
   19.9220    8.8800   32.6790 C   0  0  0  0  0  0  0  0  0  0  0  0
   23.2280    7.6970   31.2540 C   0  0  0  0  0  0  0  0  0  0  0  0
   23.9540    8.7840   31.2400 C   0  0  0  0  0  0  0  0  0  0  0  0
   25.3530    8.9660   30.7360 C   0  0  2  0  0  0  0  0  0  0  0  0
   25.2520   10.2830   30.1190 N   0  0  0  0  0  0  0  0  0  0  0  0
   24.4240   11.0390   31.0260 C   0  0  0  0  0  0  0  0  0  0  0  0
   24.4510   12.2760   31.1360 O   0  0  0  0  0  0  0  0  0  0  0  0
   23.5780   10.0890   31.7640 C   0  0  0  0  0  0  0  0  0  0  0  0
   22.7210   10.3410   32.6510 O   0  0  0  0  0  0  0  0  0  0  0  0
   25.8560   10.7160   28.8930 C   0  0  0  0  0  0  0  0  0  0  0  0
   25.0060   11.7490   28.1700 C   0  0  0  0  0  0  0  0  0  0  0  0
   25.7130   13.0990   28.2950 C   0  0  0  0  0  0  0  0  0  0  0  0
   24.7930   14.2040   28.1040 N   0  0  0  0  0  0  0  0  0  0  0  0
   23.5490   14.3360   28.6200 C   0  0  0  0  0  0  0  0  0  0  0  0
   23.0280   15.5040   28.2050 N   0  0  0  0  0  0  0  0  0  0  0  0
   23.9140   16.1390   27.4240 C   0  0  0  0  0  0  0  0  0  0  0  0
   25.0140   15.3070   27.3740 C   0  0  0  0  0  0  0  0  0  0  0  0
   25.7060    7.8980   29.7680 C   0  0  0  0  0  0  0  0  0  0  0  0
   26.9320    7.9270   29.2210 N   0  0  0  0  0  0  0  0  0  0  0  0
   27.3650    7.0140   28.3470 C   0  0  0  0  0  0  0  0  0  0  0  0
   26.5080    5.9980   27.9950 C   0  0  0  0  0  0  0  0  0  0  0  0
   25.2440    5.9290   28.5310 C   0  0  0  0  0  0  0  0  0  0  0  0
   24.8480    6.8920   29.4240 C   0  0  0  0  0  0  0  0  0  0  0  0
   23.7840    6.5080   30.7420 O   0  0  0  0  0  0  0  0  0  0  0  0
   19.2750    5.6250   32.4180 H   0  0  0  0  0  0  0  0  0  0  0  0
   21.6360    5.6290   31.5550 H   0  0  0  0  0  0  0  0  0  0  0  0
   21.7490    9.8210   32.1320 H   0  0  0  0  0  0  0  0  0  0  0  0
   19.4580    9.8250   32.9930 H   0  0  0  0  0  0  0  0  0  0  0  0
   26.0780    8.9640   31.5650 H   0  0  0  0  0  0  0  0  0  0  0  0
   25.8820    9.8350   28.1970 H   0  0  0  0  0  0  0  0  0  0  0  0
   26.8680   11.1070   28.9680 H   0  0  0  0  0  0  0  0  0  0  0  0
   24.9030   11.5450   27.0980 H   0  0  0  0  0  0  0  0  0  0  0  0
   24.0270   11.8680   28.6650 H   0  0  0  0  0  0  0  0  0  0  0  0
   26.1660   13.1280   29.3110 H   0  0  0  0  0  0  0  0  0  0  0  0
   26.5720   13.1520   27.5720 H   0  0  0  0  0  0  0  0  0  0  0  0
   23.0340   13.6360   29.2620 H   0  0  0  0  0  0  0  0  0  0  0  0
   22.0700   15.8840   28.4450 H   0  0  0  0  0  0  0  0  0  0  0  0
   23.8260   17.0930   26.9260 H   0  0  0  0  0  0  0  0  0  0  0  0
   25.9360   15.5070   26.8220 H   0  0  0  0  0  0  0  0  0  0  0  0
   28.3680    7.0460   27.9070 H   0  0  0  0  0  0  0  0  0  0  0  0
   26.8520    5.2430   27.2790 H   0  0  0  0  0  0  0  0  0  0  0  0
   24.5630    5.1350   28.2600 H   0  0  0  0  0  0  0  0  0  0  0  0
   23.8620    6.8880   29.8890 H   0  0  0  0  0  0  0  0  0  0  0  0
  2  1  1  0  0  0  0
  3 31  1  0  0  0  0
  3  2  2  0  0  0  0
  4  3  1  0  0  0  0
  5  4  2  0  0  0  0
  5  6  1  0  0  0  0
  6  7  2  0  0  0  0
  7  2  1  0  0  0  0
  7 34  1  0  0  0  0
  8  5  1  0  0  0  0
  9  8  2  0  0  0  0
  9 14  1  0  0  0  0
 10  9  1  0  0  0  0
 10 35  1  1  0  0  0
 11 10  1  0  0  0  0
 11 12  1  0  0  0  0
 12 13  2  0  0  0  0
 12 14  1  0  0  0  0
 14 15  2  0  0  0  0
 16 37  1  0  0  0  0
 16 11  1  0  0  0  0
 17 18  1  0  0  0  0
 17 39  1  0  0  0  0
 17 16  1  0  0  0  0
 18 40  1  0  0  0  0
 19 18  1  0  0  0  0
 19 20  1  0  0  0  0
 20 42  1  0  0  0  0
 21 43  1  0  0  0  0
 21 20  1  0  0  0  0
 22 21  1  0  0  0  0
 23 22  2  0  0  0  0
 23 19  1  0  0  0  0
 24 10  1  0  0  0  0
 25 24  2  0  0  0  0
 26 25  1  0  0  0  0
 27 26  2  0  0  0  0
 27 28  1  0  0  0  0
 28 29  2  0  0  0  0
 29 24  1  0  0  0  0
 30  8  1  0  0  0  0
 32  4  1  0  0  0  0
 33  6  1  0  0  0  0
 36 16  1  0  0  0  0
 38 17  1  0  0  0  0
 41 18  1  0  0  0  0
 44 22  1  0  0  0  0
 45 23  1  0  0  0  0
 46 26  1  0  0  0  0
 47 27  1  0  0  0  0
 48 28  1  0  0  0  0
 49 30  1  0  0  0  0
M  END
>  <Pose>
1

>  <Score>
-6.02

$$$$
