
 OpenBabel03202209553D

 55 58  0  0  1  0  0  0  0  0999 V2000
   18.8240    8.2010   33.2520 B   0  0  0  0  0  0  0  0  0  0  0  0
   20.2670    7.3660   32.2940 C   0  0  0  0  0  0  0  0  0  0  0  0
   21.3940    8.1190   32.0510 C   0  0  0  0  0  0  0  0  0  0  0  0
   22.4330    7.5480   31.3730 C   0  0  0  0  0  0  0  0  0  0  0  0
   22.3590    6.2280   30.9330 C   0  0  0  0  0  0  0  0  0  0  0  0
   21.2440    5.4960   31.1770 C   0  0  0  0  0  0  0  0  0  0  0  0
   20.1870    6.0600   31.8610 C   0  0  0  0  0  0  0  0  0  0  0  0
   23.5070    5.7500   30.1790 C   0  0  0  0  0  0  0  0  0  0  0  0
   24.1980    4.7170   30.5820 C   0  0  0  0  0  0  0  0  0  0  0  0
   25.3990    4.1050   29.9080 C   0  0  2  0  0  0  0  0  0  0  0  0
   26.1720    3.6140   30.9960 N   0  0  0  0  0  0  0  0  0  0  0  0
   25.2450    3.2710   32.0550 C   0  0  0  0  0  0  0  0  0  0  0  0
   25.4510    2.5110   33.0320 O   0  0  0  0  0  0  0  0  0  0  0  0
   23.9890    3.9680   31.8010 C   0  0  0  0  0  0  0  0  0  0  0  0
   22.9470    3.9010   32.5350 O   0  0  0  0  0  0  0  0  0  0  0  0
   27.5900    3.3740   31.1880 C   0  0  0  0  0  0  0  0  0  0  0  0
   28.1830    3.9710   32.4230 C   0  0  0  0  0  0  0  0  0  0  0  0
   29.2240    4.9450   32.1370 N   0  0  0  0  0  4  0  0  0  0  0  0
   29.6880    4.8170   30.7520 C   0  0  0  0  0  0  0  0  0  0  0  0
   30.6520    5.9930   30.5480 C   0  0  0  0  0  0  0  0  0  0  0  0
   31.7180    5.9500   31.4130 O   0  0  0  0  0  0  0  0  0  0  0  0
   31.3630    5.8260   32.7470 C   0  0  0  0  0  0  0  0  0  0  0  0
   30.3750    4.7080   32.9710 C   0  0  0  0  0  0  0  0  0  0  0  0
   26.0290    5.0440   28.9880 C   0  0  0  0  0  0  0  0  0  0  0  0
   26.5400    6.2710   29.3170 C   0  0  0  0  0  0  0  0  0  0  0  0
   27.1280    7.0930   28.3910 C   0  0  0  0  0  0  0  0  0  0  0  0
   27.2130    6.6870   27.0870 C   0  0  0  0  0  0  0  0  0  0  0  0
   26.7110    5.4510   26.6920 C   0  0  0  0  0  0  0  0  0  0  0  0
   26.1300    4.6530   27.6430 C   0  0  0  0  0  0  0  0  0  0  0  0
   27.6330    8.3430   28.8000 N   0  0  0  0  0  0  0  0  0  0  0  0
   27.1180    9.4300   28.4300 O   0  0  0  0  0  0  0  0  0  0  0  0
   28.7280    8.3670   29.6330 O   0  0  0  0  0  0  0  0  0  0  0  0
   23.9060    6.3930   28.9870 O   0  0  0  0  0  0  0  0  0  0  0  0
   21.4900    9.1590   32.3810 H   0  0  0  0  0  0  0  0  0  0  0  0
   23.3420    8.1450   31.1730 H   0  0  0  0  0  0  0  0  0  0  0  0
   21.1720    4.4640   30.8050 H   0  0  0  0  0  0  0  0  0  0  0  0
   19.2900    5.4690   32.0580 H   0  0  0  0  0  0  0  0  0  0  0  0
   25.0180    3.2080   29.3540 H   0  0  0  0  0  0  0  0  0  0  0  0
   28.1110    3.8310   30.3170 H   0  0  0  0  0  0  0  0  0  0  0  0
   27.8210    2.2880   31.1900 H   0  0  0  0  0  0  0  0  0  0  0  0
   28.5220    3.2970   33.1950 H   0  0  0  0  0  0  0  0  0  0  0  0
   27.3100    4.5410   32.9070 H   0  0  0  0  0  0  0  0  0  0  0  0
   28.9300    5.9200   32.2410 H   0  0  0  0  0  0  0  0  0  0  0  0
   28.8650    4.9670   30.0280 H   0  0  0  0  0  0  0  0  0  0  0  0
   30.2700    3.9070   30.5850 H   0  0  0  0  0  0  0  0  0  0  0  0
   31.0270    6.0330   29.5250 H   0  0  0  0  0  0  0  0  0  0  0  0
   30.0280    6.9120   30.7200 H   0  0  0  0  0  0  0  0  0  0  0  0
   32.3060    5.5190   33.2870 H   0  0  0  0  0  0  0  0  0  0  0  0
   31.0140    6.7610   33.2070 H   0  0  0  0  0  0  0  0  0  0  0  0
   30.0450    4.7300   34.0240 H   0  0  0  0  0  0  0  0  0  0  0  0
   30.8440    3.7290   32.7190 H   0  0  0  0  0  0  0  0  0  0  0  0
   26.4700    6.5990   30.3370 H   0  0  0  0  0  0  0  0  0  0  0  0
   27.6640    7.2870   26.3090 H   0  0  0  0  0  0  0  0  0  0  0  0
   26.7800    5.1280   25.6500 H   0  0  0  0  0  0  0  0  0  0  0  0
   25.7340    3.6760   27.3290 H   0  0  0  0  0  0  0  0  0  0  0  0
  2  1  1  0  0  0  0
  3  2  1  0  0  0  0
  3 34  1  0  0  0  0
  4  3  2  0  0  0  0
  5  6  2  0  0  0  0
  5  4  1  0  0  0  0
  6  7  1  0  0  0  0
  7 37  1  0  0  0  0
  7  2  2  0  0  0  0
  8  9  2  0  0  0  0
  8  5  1  0  0  0  0
  9 14  1  0  0  0  0
 10 38  1  6  0  0  0
 10  9  1  0  0  0  0
 10 11  1  0  0  0  0
 11 16  1  0  0  0  0
 11 12  1  0  0  0  0
 12 13  2  0  0  0  0
 14 12  1  0  0  0  0
 14 15  2  0  0  0  0
 16 40  1  0  0  0  0
 16 17  1  0  0  0  0
 17 42  1  0  0  0  0
 17 41  1  0  0  0  0
 18 43  1  0  0  0  0
 18 17  1  0  0  0  0
 18 23  1  0  0  0  0
 19 18  1  0  0  0  0
 20 47  1  0  0  0  0
 20 19  1  0  0  0  0
 20 21  1  0  0  0  0
 21 22  1  0  0  0  0
 22 23  1  0  0  0  0
 22 49  1  0  0  0  0
 22 48  1  0  0  0  0
 23 50  1  0  0  0  0
 24 25  1  0  0  0  0
 24 10  1  0  0  0  0
 25 52  1  0  0  0  0
 26 30  1  0  0  0  0
 26 25  2  0  0  0  0
 27 26  1  0  0  0  0
 28 27  2  0  0  0  0
 28 29  1  0  0  0  0
 29 24  2  0  0  0  0
 30 32  2  0  0  0  0
 31 30  2  0  0  0  0
 33  8  1  0  0  0  0
 35  4  1  0  0  0  0
 36  6  1  0  0  0  0
 39 16  1  0  0  0  0
 44 19  1  0  0  0  0
 45 19  1  0  0  0  0
 46 20  1  0  0  0  0
 51 23  1  0  0  0  0
 53 27  1  0  0  0  0
 54 28  1  0  0  0  0
 55 29  1  0  0  0  0
M  END
>  <Pose>
1

>  <Score>
-6.78

$$$$
