
 OpenBabel03202209553D

 59 62  0  0  1  0  0  0  0  0999 V2000
   23.3820    3.8630   31.8630 B   0  0  0  0  0  0  0  0  0  0  0  0
   23.3350    5.6040   31.0700 C   0  0  0  0  0  0  0  0  0  0  0  0
   22.3600    6.5010   31.4500 C   0  0  0  0  0  0  0  0  0  0  0  0
   22.3120    7.7610   30.8920 C   0  0  0  0  0  0  0  0  0  0  0  0
   23.2270    8.2000   29.9260 C   0  0  0  0  0  0  0  0  0  0  0  0
   24.1910    7.2910   29.5590 C   0  0  0  0  0  0  0  0  0  0  0  0
   24.2450    6.0100   30.1240 C   0  0  0  0  0  0  0  0  0  0  0  0
   23.1000    9.5300   29.3480 C   0  0  0  0  0  0  0  0  0  0  0  0
   24.0900   10.3910   29.2680 C   0  0  0  0  0  0  0  0  0  0  0  0
   24.0130   11.7740   28.6750 C   0  0  2  0  0  0  0  0  0  0  0  0
   25.3320   12.3010   28.7300 N   0  0  0  0  0  0  0  0  0  0  0  0
   26.2190   11.4110   29.4400 C   0  0  0  0  0  0  0  0  0  0  0  0
   27.4110   11.5770   29.7340 O   0  0  0  0  0  0  0  0  0  0  0  0
   25.4290   10.2060   29.7800 C   0  0  0  0  0  0  0  0  0  0  0  0
   25.8770    9.1980   30.4160 O   0  0  0  0  0  0  0  0  0  0  0  0
   25.8130   13.5450   28.1920 C   0  0  0  0  0  0  0  0  0  0  0  0
   26.9530   13.4300   27.2400 C   0  0  0  0  0  0  0  0  0  0  0  0
   28.1670   14.0670   27.6550 N   0  0  0  0  0  4  0  0  0  0  0  0
   28.3710   15.3800   27.0790 C   0  0  0  0  0  0  0  0  0  0  0  0
   29.5800   15.9840   27.7630 C   0  0  0  0  0  0  0  0  0  0  0  0
   30.6870   15.2100   27.3410 O   0  0  0  0  0  0  0  0  0  0  0  0
   30.5240   13.9590   27.9430 C   0  0  0  0  0  0  0  0  0  0  0  0
   29.3490   13.2730   27.2650 C   0  0  0  0  0  0  0  0  0  0  0  0
   23.0850   12.5180   29.5820 C   0  0  0  0  0  0  0  0  0  0  0  0
   23.4560   12.6930   30.8780 C   0  0  0  0  0  0  0  0  0  0  0  0
   22.6360   13.3670   31.7590 C   0  0  0  0  0  0  0  0  0  0  0  0
   21.4370   13.8660   31.3300 C   0  0  0  0  0  0  0  0  0  0  0  0
   21.0650   13.6890   30.0230 C   0  0  0  0  0  0  0  0  0  0  0  0
   21.8840   13.0140   29.1320 C   0  0  0  0  0  0  0  0  0  0  0  0
   20.5560   14.5810   32.2570 C   0  0  0  0  0  0  0  0  0  0  0  0
   19.7260   13.9330   32.9450 O   0  0  0  0  0  0  0  0  0  0  0  0
   20.5840   15.9390   32.4190 O   0  0  0  0  0  0  0  0  0  0  0  0
   21.7770   16.6890   32.4100 C   0  0  0  0  0  0  0  0  0  0  0  0
   21.8620    9.9720   28.8270 O   0  0  0  0  0  0  0  0  0  0  0  0
   21.6340    6.1800   32.2040 H   0  0  0  0  0  0  0  0  0  0  0  0
   21.5440    8.4440   31.2010 H   0  0  0  0  0  0  0  0  0  0  0  0
   24.9210    7.5680   28.7900 H   0  0  0  0  0  0  0  0  0  0  0  0
   25.0150    5.3180   29.8160 H   0  0  0  0  0  0  0  0  0  0  0  0
   23.5820   11.6370   27.6730 H   0  0  0  0  0  0  0  0  0  0  0  0
   24.9800   14.1250   27.6950 H   0  0  0  0  0  0  0  0  0  0  0  0
   26.1570   14.2310   29.0180 H   0  0  0  0  0  0  0  0  0  0  0  0
   26.6380   13.9550   26.2910 H   0  0  0  0  0  0  0  0  0  0  0  0
   27.1520   12.3880   26.9190 H   0  0  0  0  0  0  0  0  0  0  0  0
   28.2510   14.1090   28.7060 H   0  0  0  0  0  0  0  0  0  0  0  0
   27.4820   16.0370   27.1490 H   0  0  0  0  0  0  0  0  0  0  0  0
   28.6520   15.2470   26.0040 H   0  0  0  0  0  0  0  0  0  0  0  0
   29.7260   17.0320   27.4200 H   0  0  0  0  0  0  0  0  0  0  0  0
   29.4790   15.9190   28.8820 H   0  0  0  0  0  0  0  0  0  0  0  0
   30.1950   14.1490   29.0020 H   0  0  0  0  0  0  0  0  0  0  0  0
   31.4450   13.3500   27.8820 H   0  0  0  0  0  0  0  0  0  0  0  0
   29.4170   13.3460   26.1500 H   0  0  0  0  0  0  0  0  0  0  0  0
   29.2460   12.2170   27.5900 H   0  0  0  0  0  0  0  0  0  0  0  0
   24.3830   12.3190   31.2540 H   0  0  0  0  0  0  0  0  0  0  0  0
   22.9390   13.4960   32.7730 H   0  0  0  0  0  0  0  0  0  0  0  0
   20.0980   14.1000   29.7050 H   0  0  0  0  0  0  0  0  0  0  0  0
   21.5930   12.8770   28.1190 H   0  0  0  0  0  0  0  0  0  0  0  0
   22.1230   16.9620   33.4090 H   0  0  0  0  0  0  0  0  0  0  0  0
   22.5930   16.1320   31.8850 H   0  0  0  0  0  0  0  0  0  0  0  0
   21.6270   17.6470   31.8380 H   0  0  0  0  0  0  0  0  0  0  0  0
  2  3  1  0  0  0  0
  2  1  1  0  0  0  0
  3 35  1  0  0  0  0
  4 36  1  0  0  0  0
  4  3  2  0  0  0  0
  5  4  1  0  0  0  0
  6  5  2  0  0  0  0
  6  7  1  0  0  0  0
  7  2  2  0  0  0  0
  8  5  1  0  0  0  0
  9  8  2  0  0  0  0
  9 14  1  0  0  0  0
 10 39  1  6  0  0  0
 10 11  1  0  0  0  0
 10  9  1  0  0  0  0
 10 24  1  0  0  0  0
 11 12  1  0  0  0  0
 12 13  2  0  0  0  0
 12 14  1  0  0  0  0
 14 15  2  0  0  0  0
 16 11  1  0  0  0  0
 16 41  1  0  0  0  0
 17 18  1  0  0  0  0
 17 16  1  0  0  0  0
 18 44  1  0  0  0  0
 19 45  1  0  0  0  0
 19 18  1  0  0  0  0
 19 20  1  0  0  0  0
 20 48  1  0  0  0  0
 21 20  1  0  0  0  0
 21 22  1  0  0  0  0
 22 49  1  0  0  0  0
 23 52  1  0  0  0  0
 23 18  1  0  0  0  0
 23 22  1  0  0  0  0
 24 25  1  0  0  0  0
 25 53  1  0  0  0  0
 25 26  2  0  0  0  0
 26 54  1  0  0  0  0
 27 26  1  0  0  0  0
 27 30  1  0  0  0  0
 28 27  2  0  0  0  0
 29 24  2  0  0  0  0
 29 28  1  0  0  0  0
 30 32  1  0  0  0  0
 30 31  2  0  0  0  0
 33 32  1  0  0  0  0
 33 57  1  0  0  0  0
 34  8  1  0  0  0  0
 37  6  1  0  0  0  0
 38  7  1  0  0  0  0
 40 16  1  0  0  0  0
 42 17  1  0  0  0  0
 43 17  1  0  0  0  0
 46 19  1  0  0  0  0
 47 20  1  0  0  0  0
 50 22  1  0  0  0  0
 51 23  1  0  0  0  0
 55 28  1  0  0  0  0
 56 29  1  0  0  0  0
 58 33  1  0  0  0  0
 59 33  1  0  0  0  0
M  END
>  <Pose>
1

>  <Score>
-7.11

$$$$
