
 OpenBabel03202209553D

 48 51  0  0  1  0  0  0  0  0999 V2000
   27.1340    2.8440   31.8850 B   0  0  0  0  0  0  0  0  0  0  0  0
   25.4170    3.6290   31.5680 C   0  0  0  0  0  0  0  0  0  0  0  0
   25.3290    4.7670   30.7980 C   0  0  0  0  0  0  0  0  0  0  0  0
   24.0970    5.3230   30.5760 C   0  0  0  0  0  0  0  0  0  0  0  0
   22.9720    4.7520   31.1160 C   0  0  0  0  0  0  0  0  0  0  0  0
   23.0990    3.6170   31.8800 C   0  0  0  0  0  0  0  0  0  0  0  0
   24.3230    3.0170   32.1330 C   0  0  0  0  0  0  0  0  0  0  0  0
   21.6150    5.3700   30.8730 C   0  0  1  0  0  0  0  0  0  0  0  0
   20.9150    4.5020   30.0590 O   0  0  0  0  0  0  0  0  0  0  0  0
   20.9350    5.6810   32.1720 C   0  0  0  0  0  0  0  0  0  0  0  0
   20.7060    7.0820   32.3750 N   0  0  0  0  0  0  0  0  0  0  0  0
   19.5310    7.5550   32.8550 C   0  0  0  0  0  0  0  0  0  0  0  0
   19.6660    8.9330   32.9170 C   0  0  0  0  0  0  0  0  0  0  0  0
   18.6040    9.6830   33.3860 C   0  0  0  0  0  0  0  0  0  0  0  0
   17.4030    9.0910   33.7950 C   0  0  0  0  0  0  0  0  0  0  0  0
   17.3160    7.7070   33.7150 C   0  0  0  0  0  0  0  0  0  0  0  0
   18.3560    6.9380   33.2540 C   0  0  0  0  0  0  0  0  0  0  0  0
   20.9070    9.2990   32.4780 N   0  0  0  0  0  0  0  0  0  0  0  0
   21.5210    8.1300   32.1530 C   0  0  1  0  0  0  0  0  0  0  0  0
   22.7270    8.0680   31.6960 N   0  0  0  0  0  0  0  0  0  0  0  0
   21.3630   10.6550   32.4000 C   0  0  0  0  0  0  0  0  0  0  0  0
   22.4080   10.8790   31.3430 C   0  0  0  0  0  0  0  0  0  0  0  0
   23.6390   11.3910   31.7160 C   0  0  0  0  0  0  0  0  0  0  0  0
   24.6510   11.6230   30.8040 C   0  0  0  0  0  0  0  0  0  0  0  0
   24.3980   11.3250   29.4880 C   0  0  0  0  0  0  0  0  0  0  0  0
   23.1890   10.8170   29.0920 C   0  0  0  0  0  0  0  0  0  0  0  0
   22.2070   10.5990   30.0210 C   0  0  0  0  0  0  0  0  0  0  0  0
   26.2450    5.2200   30.3670 H   0  0  0  0  0  0  0  0  0  0  0  0
   24.0120    6.2190   29.9710 H   0  0  0  0  0  0  0  0  0  0  0  0
   22.2050    3.1460   32.3240 H   0  0  0  0  0  0  0  0  0  0  0  0
   24.4100    2.1120   32.7430 H   0  0  0  0  0  0  0  0  0  0  0  0
   21.7960    6.2930   30.2610 H   0  0  0  0  0  0  0  0  0  0  0  0
   20.7370    4.8570   29.1660 H   0  0  0  0  0  0  0  0  0  0  0  0
   19.9120    5.2040   32.1050 H   0  0  0  0  0  0  0  0  0  0  0  0
   21.4140    5.2120   33.0400 H   0  0  0  0  0  0  0  0  0  0  0  0
   18.7210   10.7550   33.4400 H   0  0  0  0  0  0  0  0  0  0  0  0
   16.6110    9.7110   34.1490 H   0  0  0  0  0  0  0  0  0  0  0  0
   16.3930    7.2320   34.0290 H   0  0  0  0  0  0  0  0  0  0  0  0
   18.2510    5.8660   33.2060 H   0  0  0  0  0  0  0  0  0  0  0  0
   23.1390    7.1150   31.4640 H   0  0  0  0  0  0  0  0  0  0  0  0
   23.3580    8.8550   31.5300 H   0  0  0  0  0  0  0  0  0  0  0  0
   21.8130   10.9890   33.3640 H   0  0  0  0  0  0  0  0  0  0  0  0
   20.5030   11.3090   32.1500 H   0  0  0  0  0  0  0  0  0  0  0  0
   23.8740   11.6470   32.7620 H   0  0  0  0  0  0  0  0  0  0  0  0
   25.6230   12.0290   31.1160 H   0  0  0  0  0  0  0  0  0  0  0  0
   25.1630   11.4880   28.7300 H   0  0  0  0  0  0  0  0  0  0  0  0
   23.0330   10.5930   28.0220 H   0  0  0  0  0  0  0  0  0  0  0  0
   21.2740   10.2070   29.6920 H   0  0  0  0  0  0  0  0  0  0  0  0
  2  1  1  0  0  0  0
  2  7  1  0  0  0  0
  3  2  2  0  0  0  0
  4  3  1  0  0  0  0
  4  5  2  0  0  0  0
  5  6  1  0  0  0  0
  6  7  2  0  0  0  0
  6 30  1  0  0  0  0
  7 31  1  0  0  0  0
  8 32  1  6  0  0  0
  8  5  1  0  0  0  0
  8 10  1  0  0  0  0
  9  8  1  0  0  0  0
 10 11  1  0  0  0  0
 10 35  1  0  0  0  0
 11 12  1  0  0  0  0
 12 13  2  0  0  0  0
 12 17  1  0  0  0  0
 13 14  1  0  0  0  0
 14 36  1  0  0  0  0
 14 15  2  0  0  0  0
 15 37  1  0  0  0  0
 16 15  1  0  0  0  0
 16 38  1  0  0  0  0
 17 16  2  0  0  0  0
 18 13  1  0  0  0  0
 19 20  1  1  0  0  0
 19 11  1  0  0  0  0
 19 18  1  0  0  0  0
 21 18  1  0  0  0  0
 21 42  1  0  0  0  0
 22 23  1  0  0  0  0
 22 21  1  0  0  0  0
 23 44  1  0  0  0  0
 24 45  1  0  0  0  0
 24 23  2  0  0  0  0
 25 24  1  0  0  0  0
 26 25  2  0  0  0  0
 26 27  1  0  0  0  0
 27 22  2  0  0  0  0
 28  3  1  0  0  0  0
 29  4  1  0  0  0  0
 33  9  1  0  0  0  0
 34 10  1  0  0  0  0
 39 17  1  0  0  0  0
 40 20  1  0  0  0  0
 41 20  1  0  0  0  0
 43 21  1  0  0  0  0
 46 25  1  0  0  0  0
 47 26  1  0  0  0  0
 48 27  1  0  0  0  0
M  END
>  <Pose>
1

>  <Score>
-7.02

$$$$
