
 OpenBabel03202209553D

 55 58  0  0  0  0  0  0  0  0999 V2000
   22.8400   18.4120   26.9060 B   0  0  0  0  0  0  0  0  0  0  0  0
   22.9750   16.8420   28.0060 C   0  0  0  0  0  0  0  0  0  0  0  0
   22.2310   16.7270   29.1630 C   0  0  0  0  0  0  0  0  0  0  0  0
   22.3280   15.5970   29.9590 C   0  0  0  0  0  0  0  0  0  0  0  0
   23.1710   14.5740   29.6050 C   0  0  0  0  0  0  0  0  0  0  0  0
   23.9200   14.6710   28.4520 C   0  0  0  0  0  0  0  0  0  0  0  0
   23.8130   15.8030   27.6690 C   0  0  0  0  0  0  0  0  0  0  0  0
   23.2490   13.3980   30.4930 C   0  0  0  0  0  0  0  0  0  0  0  0
   24.1850   12.4050   30.0810 N   0  0  0  0  0  0  0  0  0  0  0  0
   25.0940   11.9680   31.0540 C   0  0  0  0  0  0  0  0  0  0  0  0
   24.8770   10.5090   31.4450 C   0  0  0  0  0  0  0  0  0  0  0  0
   23.7080   10.0640   30.7700 N   0  0  0  0  0  0  0  0  0  0  0  0
   23.7440   10.1030   29.3280 C   0  0  0  0  0  0  0  0  0  0  0  0
   23.8440   11.5940   28.9850 C   0  0  0  0  0  0  0  0  0  0  0  0
   22.5490    9.6200   31.4310 C   0  0  0  0  0  0  0  0  0  0  0  0
   21.7370   10.3170   32.2430 N   0  0  0  0  0  0  0  0  0  0  0  0
   20.7630    9.4990   32.7070 C   0  0  0  0  0  0  0  0  0  0  0  0
   20.9540    8.2420   32.1770 C   0  0  0  0  0  0  0  0  0  0  0  0
   22.0380    8.3430   31.4080 N   0  0  0  0  0  0  0  0  0  0  0  0
   20.1030    7.2500   32.4980 N   0  0  0  0  0  0  0  0  0  0  0  0
   19.0670    7.4470   33.3250 C   0  0  0  0  0  0  0  0  0  0  0  0
   18.2850    6.4840   33.6070 O   0  0  0  0  0  0  0  0  0  0  0  0
   18.8630    8.6660   33.8530 N   0  0  0  0  0  0  0  0  0  0  0  0
   19.6910    9.6760   33.5540 C   0  0  0  0  0  0  0  0  0  0  0  0
   19.4990   10.8140   34.0490 O   0  0  0  0  0  0  0  0  0  0  0  0
   20.3410    5.9240   31.9190 C   0  0  0  0  0  0  0  0  0  0  0  0
   21.7910   11.7140   32.5780 C   0  0  0  0  0  0  0  0  0  0  0  0
   20.7060   12.5090   31.8880 C   0  0  0  0  0  0  0  0  0  0  0  0
   20.1730   13.5200   32.6610 O   0  0  0  0  0  0  0  0  0  0  0  0
   20.1740   14.6730   31.8410 C   0  0  0  0  0  0  0  0  0  0  0  0
   21.5780   17.5360   29.4270 H   0  0  0  0  0  0  0  0  0  0  0  0
   21.7090   15.5840   30.8500 H   0  0  0  0  0  0  0  0  0  0  0  0
   24.6030   13.8660   28.1390 H   0  0  0  0  0  0  0  0  0  0  0  0
   24.4180   15.8600   26.7620 H   0  0  0  0  0  0  0  0  0  0  0  0
   22.2480   12.9750   30.6910 H   0  0  0  0  0  0  0  0  0  0  0  0
   23.6240   13.7880   31.4860 H   0  0  0  0  0  0  0  0  0  0  0  0
   24.8740   12.5380   32.0130 H   0  0  0  0  0  0  0  0  0  0  0  0
   26.1730   12.1780   30.8510 H   0  0  0  0  0  0  0  0  0  0  0  0
   25.8050    9.9710   31.0670 H   0  0  0  0  0  0  0  0  0  0  0  0
   24.9120   10.3640   32.5330 H   0  0  0  0  0  0  0  0  0  0  0  0
   22.8460    9.6480   28.9050 H   0  0  0  0  0  0  0  0  0  0  0  0
   24.6630    9.5950   28.9170 H   0  0  0  0  0  0  0  0  0  0  0  0
   22.8280   11.8850   28.6340 H   0  0  0  0  0  0  0  0  0  0  0  0
   24.5010   11.7260   28.1010 H   0  0  0  0  0  0  0  0  0  0  0  0
   18.0440    8.8290   34.5080 H   0  0  0  0  0  0  0  0  0  0  0  0
   21.1400    5.4450   32.5320 H   0  0  0  0  0  0  0  0  0  0  0  0
   19.4400    5.3180   31.8600 H   0  0  0  0  0  0  0  0  0  0  0  0
   20.7890    6.0970   30.9100 H   0  0  0  0  0  0  0  0  0  0  0  0
   21.7100   11.9210   33.6640 H   0  0  0  0  0  0  0  0  0  0  0  0
   22.7880   12.1560   32.2750 H   0  0  0  0  0  0  0  0  0  0  0  0
   19.9190   11.8090   31.5070 H   0  0  0  0  0  0  0  0  0  0  0  0
   21.1200   12.9820   30.9810 H   0  0  0  0  0  0  0  0  0  0  0  0
   19.5330   14.4490   30.9440 H   0  0  0  0  0  0  0  0  0  0  0  0
   21.1690   14.8960   31.4350 H   0  0  0  0  0  0  0  0  0  0  0  0
   19.7520   15.5150   32.4190 H   0  0  0  0  0  0  0  0  0  0  0  0
  1  2  1  0  0  0  0
  2  3  1  0  0  0  0
  3 31  1  0  0  0  0
  3  4  2  0  0  0  0
  4 32  1  0  0  0  0
  5  4  1  0  0  0  0
  5  8  1  0  0  0  0
  6  5  2  0  0  0  0
  7  2  2  0  0  0  0
  7  6  1  0  0  0  0
  8 35  1  0  0  0  0
  8 36  1  0  0  0  0
  9  8  1  0  0  0  0
  9 10  1  0  0  0  0
 10 11  1  0  0  0  0
 10 37  1  0  0  0  0
 11 40  1  0  0  0  0
 12 15  1  0  0  0  0
 12 11  1  0  0  0  0
 13 12  1  0  0  0  0
 14 13  1  0  0  0  0
 14  9  1  0  0  0  0
 15 16  1  0  0  0  0
 16 27  1  0  0  0  0
 16 17  1  0  0  0  0
 17 24  1  0  0  0  0
 18 20  1  0  0  0  0
 18 17  2  0  0  0  0
 19 15  2  0  0  0  0
 19 18  1  0  0  0  0
 20 21  1  0  0  0  0
 21 22  2  0  0  0  0
 21 23  1  0  0  0  0
 23 45  1  0  0  0  0
 24 23  1  0  0  0  0
 24 25  2  0  0  0  0
 26 20  1  0  0  0  0
 26 46  1  0  0  0  0
 27 49  1  0  0  0  0
 28 27  1  0  0  0  0
 28 29  1  0  0  0  0
 30 55  1  0  0  0  0
 30 29  1  0  0  0  0
 33  6  1  0  0  0  0
 34  7  1  0  0  0  0
 38 10  1  0  0  0  0
 39 11  1  0  0  0  0
 41 13  1  0  0  0  0
 42 13  1  0  0  0  0
 43 14  1  0  0  0  0
 44 14  1  0  0  0  0
 47 26  1  0  0  0  0
 48 26  1  0  0  0  0
 50 27  1  0  0  0  0
 51 28  1  0  0  0  0
 52 28  1  0  0  0  0
 53 30  1  0  0  0  0
 54 30  1  0  0  0  0
M  END
>  <Pose>
1

>  <Score>
-7.30

$$$$
