
 OpenBabel03202209553D

 44 47  0  0  0  0  0  0  0  0999 V2000
   17.4040    7.9640   33.5230 B   0  0  0  0  0  0  0  0  0  0  0  0
   19.2110    8.0350   32.8730 C   0  0  0  0  0  0  0  0  0  0  0  0
   19.8620    6.8950   32.4600 C   0  0  0  0  0  0  0  0  0  0  0  0
   21.1630    6.9440   31.9950 C   0  0  0  0  0  0  0  0  0  0  0  0
   21.8680    8.1340   31.9210 C   0  0  0  0  0  0  0  0  0  0  0  0
   21.2120    9.2720   32.3340 C   0  0  0  0  0  0  0  0  0  0  0  0
   19.8980    9.2290   32.8060 C   0  0  0  0  0  0  0  0  0  0  0  0
   23.2390    8.1500   31.4210 C   0  0  0  0  0  0  0  0  0  0  0  0
   23.6890    9.2240   30.7620 C   0  0  0  0  0  0  0  0  0  0  0  0
   22.9180   10.3500   30.5190 O   0  0  0  0  0  0  0  0  0  0  0  0
   23.6300   11.3170   29.8160 C   0  0  0  0  0  0  0  0  0  0  0  0
   24.8830   10.8340   29.5870 C   0  0  0  0  0  0  0  0  0  0  0  0
   25.8030   11.6010   28.9020 C   0  0  0  0  0  0  0  0  0  0  0  0
   25.4030   12.8390   28.4740 C   0  0  0  0  0  0  0  0  0  0  0  0
   24.1150   13.3370   28.7080 C   0  0  0  0  0  0  0  0  0  0  0  0
   23.1850   12.5900   29.3860 C   0  0  0  0  0  0  0  0  0  0  0  0
   21.8040   12.9740   29.7040 C   0  0  0  0  0  0  0  0  0  0  0  0
   21.5380   13.5440   30.9680 N   0  0  0  0  0  4  0  0  0  0  0  0
   22.4680   14.6020   31.3040 C   0  0  0  0  0  0  0  0  0  0  0  0
   21.9680   15.9160   30.7310 C   0  0  0  0  0  0  0  0  0  0  0  0
   20.9600   16.3870   31.5570 O   0  0  0  0  0  0  0  0  0  0  0  0
   20.2490   15.2820   32.0390 C   0  0  0  0  0  0  0  0  0  0  0  0
   20.2130   14.1870   30.9850 C   0  0  0  0  0  0  0  0  0  0  0  0
   23.7870   14.6100   28.2380 O   0  0  0  0  0  0  0  0  0  0  0  0
   24.9740    9.4910   30.1750 C   0  0  0  0  0  0  0  0  0  0  0  0
   25.9550    8.7040   30.1860 O   0  0  0  0  0  0  0  0  0  0  0  0
   19.3030    5.9680   32.5230 H   0  0  0  0  0  0  0  0  0  0  0  0
   21.6720    6.0380   31.6720 H   0  0  0  0  0  0  0  0  0  0  0  0
   21.7120   10.2190   32.2960 H   0  0  0  0  0  0  0  0  0  0  0  0
   19.3710   10.1160   33.1350 H   0  0  0  0  0  0  0  0  0  0  0  0
   23.9400    7.3270   31.5510 H   0  0  0  0  0  0  0  0  0  0  0  0
   26.8050   11.2320   28.7130 H   0  0  0  0  0  0  0  0  0  0  0  0
   26.0980   13.4600   27.9390 H   0  0  0  0  0  0  0  0  0  0  0  0
   21.1290   12.1170   29.4690 H   0  0  0  0  0  0  0  0  0  0  0  0
   21.5260   13.7600   28.9350 H   0  0  0  0  0  0  0  0  0  0  0  0
   21.4850   12.8270   31.7200 H   0  0  0  0  0  0  0  0  0  0  0  0
   22.6880   14.6820   32.3840 H   0  0  0  0  0  0  0  0  0  0  0  0
   23.4320   14.4030   30.7910 H   0  0  0  0  0  0  0  0  0  0  0  0
   21.6140   15.7330   29.6990 H   0  0  0  0  0  0  0  0  0  0  0  0
   22.8580   16.5980   30.7110 H   0  0  0  0  0  0  0  0  0  0  0  0
   19.2360   15.6460   32.2890 H   0  0  0  0  0  0  0  0  0  0  0  0
   20.6940   14.8940   32.9860 H   0  0  0  0  0  0  0  0  0  0  0  0
   19.4500   13.4420   31.2980 H   0  0  0  0  0  0  0  0  0  0  0  0
   19.9360   14.6240   30.0260 H   0  0  0  0  0  0  0  0  0  0  0  0
  2  1  1  0  0  0  0
  3 27  1  0  0  0  0
  3  2  2  0  0  0  0
  4  3  1  0  0  0  0
  5  4  2  0  0  0  0
  5  6  1  0  0  0  0
  6  7  2  0  0  0  0
  7  2  1  0  0  0  0
  7 30  1  0  0  0  0
  8 31  1  0  0  0  0
  8  5  1  0  0  0  0
  9  8  2  0  0  0  0
 10  9  1  0  0  0  0
 11 10  1  0  0  0  0
 12 11  1  0  0  0  0
 12 25  1  0  0  0  0
 13 12  2  0  0  0  0
 14 15  2  0  0  0  0
 14 13  1  0  0  0  0
 15 16  1  0  0  0  0
 16 17  1  0  0  0  0
 16 11  2  0  0  0  0
 17 18  1  0  0  0  0
 18 23  1  0  0  0  0
 18 19  1  0  0  0  0
 18 36  1  0  0  0  0
 19 37  1  0  0  0  0
 20 19  1  0  0  0  0
 20 21  1  0  0  0  0
 21 22  1  0  0  0  0
 22 41  1  0  0  0  0
 22 42  1  0  0  0  0
 23 43  1  0  0  0  0
 23 22  1  0  0  0  0
 24 15  1  0  0  0  0
 25 26  2  0  0  0  0
 25  9  1  0  0  0  0
 28  4  1  0  0  0  0
 29  6  1  0  0  0  0
 32 13  1  0  0  0  0
 33 14  1  0  0  0  0
 34 17  1  0  0  0  0
 35 17  1  0  0  0  0
 38 19  1  0  0  0  0
 39 20  1  0  0  0  0
 40 20  1  0  0  0  0
 44 23  1  0  0  0  0
M  END
>  <Pose>
1

>  <Score>
-6.29

$$$$
