
 OpenBabel03202209553D

 42 45  0  0  0  0  0  0  0  0999 V2000
   22.0780    5.4290   31.2480 B   0  0  0  0  0  0  0  0  0  0  0  0
   22.4420    7.2780   30.9400 C   0  0  0  0  0  0  0  0  0  0  0  0
   23.2880    7.6770   29.9160 C   0  0  0  0  0  0  0  0  0  0  0  0
   23.5660    9.0110   29.6750 C   0  0  0  0  0  0  0  0  0  0  0  0
   23.0030    9.9970   30.4560 C   0  0  0  0  0  0  0  0  0  0  0  0
   22.1640    9.5900   31.4710 C   0  0  0  0  0  0  0  0  0  0  0  0
   21.8780    8.2640   31.7220 C   0  0  0  0  0  0  0  0  0  0  0  0
   23.2810   11.4100   30.2210 C   0  0  0  0  0  0  0  0  0  0  0  0
   24.4530   11.9110   30.2690 N   0  0  0  0  0  0  0  0  0  0  0  0
   24.7700   13.2340   30.0550 N   0  0  0  0  0  0  0  0  0  0  0  0
   24.4770   13.8290   28.8040 C   0  0  0  0  0  0  0  0  0  0  0  0
   25.3980   13.9880   27.9720 O   0  0  0  0  0  0  0  0  0  0  0  0
   23.0950   14.2620   28.4680 C   0  0  0  0  0  0  0  0  0  0  0  0
   23.0160   15.7020   28.3180 N   0  0  0  0  0  0  0  0  0  0  0  0
   23.3940   16.2800   27.1370 N   0  0  0  0  0  0  0  0  0  0  0  0
   23.2530   17.6090   27.2430 C   0  0  0  0  0  0  0  0  0  0  0  0
   22.7950   17.8250   28.4750 N   0  0  0  0  0  0  0  0  0  0  0  0
   22.6430   16.6290   29.1590 C   0  0  0  0  0  0  0  0  0  0  0  0
   22.1570   16.5740   30.5230 C   0  0  0  0  0  0  0  0  0  0  0  0
   22.7640   17.2940   31.5490 N   0  0  0  0  0  0  0  0  0  0  0  0
   22.1420   17.0900   32.6430 O   0  0  0  0  0  0  0  0  0  0  0  0
   21.1650   16.2940   32.4490 N   0  0  0  0  0  0  0  0  0  0  0  0
   21.1440   15.9490   31.1260 C   0  0  0  0  0  0  0  0  0  0  0  0
   20.1560   15.0870   30.6320 N   0  0  0  0  0  0  0  0  0  0  0  0
   23.5380   18.6150   26.2270 C   0  0  0  0  0  0  0  0  0  0  0  0
   22.9980   19.8330   26.1230 N   0  0  0  0  0  0  0  0  0  0  0  0
   23.5120   20.4480   25.0720 O   0  0  0  0  0  0  0  0  0  0  0  0
   24.3760   19.6770   24.4740 N   0  0  0  0  0  0  0  0  0  0  0  0
   24.4180   18.5060   25.1800 C   0  0  0  0  0  0  0  0  0  0  0  0
   25.2480   17.4080   24.8370 N   0  0  0  0  0  0  0  0  0  0  0  0
   23.7330    6.9250   29.3010 H   0  0  0  0  0  0  0  0  0  0  0  0
   24.2370    9.3150   28.8620 H   0  0  0  0  0  0  0  0  0  0  0  0
   21.7260   10.3910   32.0810 H   0  0  0  0  0  0  0  0  0  0  0  0
   21.2020    7.9840   32.5440 H   0  0  0  0  0  0  0  0  0  0  0  0
   22.4520   12.0620   29.9950 H   0  0  0  0  0  0  0  0  0  0  0  0
   25.2320   13.7960   30.8340 H   0  0  0  0  0  0  0  0  0  0  0  0
   22.5440   13.6660   27.7650 H   0  0  0  0  0  0  0  0  0  0  0  0
   22.5000   14.0520   29.4510 H   0  0  0  0  0  0  0  0  0  0  0  0
   20.1750   14.8140   29.6230 H   0  0  0  0  0  0  0  0  0  0  0  0
   19.3900   14.6790   31.2070 H   0  0  0  0  0  0  0  0  0  0  0  0
   25.5980   17.3060   23.8430 H   0  0  0  0  0  0  0  0  0  0  0  0
   25.5460   16.6760   25.5090 H   0  0  0  0  0  0  0  0  0  0  0  0
  2  1  1  0  0  0  0
  2  7  1  0  0  0  0
  3  2  2  0  0  0  0
  4  3  1  0  0  0  0
  4  5  2  0  0  0  0
  5  6  1  0  0  0  0
  6  7  2  0  0  0  0
  6 33  1  0  0  0  0
  7 34  1  0  0  0  0
  8  9  2  0  0  0  0
  8  5  1  0  0  0  0
 10  9  1  0  0  0  0
 10 36  1  0  0  0  0
 11 10  1  0  0  0  0
 12 11  2  0  0  0  0
 13 11  1  0  0  0  0
 13 38  1  0  0  0  0
 14 13  1  0  0  0  0
 14 18  1  0  0  0  0
 15 16  2  0  0  0  0
 15 14  1  0  0  0  0
 16 17  1  0  0  0  0
 17 18  2  0  0  0  0
 18 19  1  0  0  0  0
 19 23  1  0  0  0  0
 19 20  2  0  0  0  0
 20 21  1  0  0  0  0
 22 21  1  0  0  0  0
 23 22  2  0  0  0  0
 24 23  1  0  0  0  0
 24 40  1  0  0  0  0
 25 16  1  0  0  0  0
 26 25  2  0  0  0  0
 27 26  1  0  0  0  0
 28 27  1  0  0  0  0
 28 29  2  0  0  0  0
 29 25  1  0  0  0  0
 30 29  1  0  0  0  0
 30 42  1  0  0  0  0
 31  3  1  0  0  0  0
 32  4  1  0  0  0  0
 35  8  1  0  0  0  0
 37 13  1  0  0  0  0
 39 24  1  0  0  0  0
 41 30  1  0  0  0  0
M  END
>  <Pose>
1

>  <Score>
-10.70

$$$$
