
 OpenBabel03202209553D

 57 60  0  0  0  0  0  0  0  0999 V2000
   30.6640   12.9150   26.9420 B   0  0  0  0  0  0  0  0  0  0  0  0
   29.3110   11.7370   27.6030 C   0  0  0  0  0  0  0  0  0  0  0  0
   28.8790   11.8930   28.8880 C   0  0  0  0  0  0  0  0  0  0  0  0
   27.9070   11.0490   29.3780 C   0  0  0  0  0  0  0  0  0  0  0  0
   27.3300   10.0290   28.6250 C   0  0  0  0  0  0  0  0  0  0  0  0
   27.7800    9.8940   27.3380 C   0  0  0  0  0  0  0  0  0  0  0  0
   28.7710   10.7420   26.8160 C   0  0  0  0  0  0  0  0  0  0  0  0
   26.3250    9.1400   29.1430 C   0  0  0  0  0  0  0  0  0  0  0  0
   25.0560    9.5940   29.4100 C   0  0  0  0  0  0  0  0  0  0  0  0
   24.1100    8.8220   29.9100 O   0  0  0  0  0  0  0  0  0  0  0  0
   24.3270    7.5620   30.1870 C   0  0  0  0  0  0  0  0  0  0  0  0
   25.5550    7.0560   29.9460 C   0  0  0  0  0  0  0  0  0  0  0  0
   25.8150    5.7330   30.2300 C   0  0  0  0  0  0  0  0  0  0  0  0
   24.8070    4.9660   30.7540 C   0  0  0  0  0  0  0  0  0  0  0  0
   23.5300    5.5040   31.0020 C   0  0  0  0  0  0  0  0  0  0  0  0
   23.2480    6.8090   30.7280 C   0  0  0  0  0  0  0  0  0  0  0  0
   21.9910    7.4950   30.9060 C   0  0  0  0  0  0  0  0  0  0  0  0
   21.3090    7.5570   32.1330 N   0  0  0  0  0  4  0  0  0  0  0  0
   20.5310    6.3970   32.3830 C   0  0  0  0  0  0  0  0  0  0  0  0
   19.3290    6.5050   33.2360 C   0  0  0  0  0  0  0  0  0  0  0  0
   18.8460    7.8110   33.3690 N   0  0  0  0  0  0  0  0  0  0  0  0
   19.7600    8.8430   33.6020 C   0  0  0  0  0  0  0  0  0  0  0  0
   20.8650    8.8230   32.5950 C   0  0  0  0  0  0  0  0  0  0  0  0
   17.4740    8.0790   33.2630 C   0  0  0  0  0  0  0  0  0  0  0  0
   22.6430    4.5830   31.5330 O   0  0  0  0  0  0  0  0  0  0  0  0
   26.5950    7.7990   29.4240 C   0  0  0  0  0  0  0  0  0  0  0  0
   27.7180    7.3340   29.2040 O   0  0  0  0  0  0  0  0  0  0  0  0
   24.7480   11.0030   29.1200 C   0  0  0  0  0  0  0  0  0  0  0  0
   24.2330   11.2750   28.0070 O   0  0  0  0  0  0  0  0  0  0  0  0
   24.9900   12.0230   29.9880 O   0  0  0  0  0  0  0  0  0  0  0  0
   24.5580   11.9440   31.3250 C   0  0  0  0  0  0  0  0  0  0  0  0
   23.7450   13.1660   31.6510 C   0  0  0  0  0  0  0  0  0  0  0  0
   29.3220   12.6900   29.4990 H   0  0  0  0  0  0  0  0  0  0  0  0
   27.5730   11.1730   30.3770 H   0  0  0  0  0  0  0  0  0  0  0  0
   27.4040    9.1380   26.6660 H   0  0  0  0  0  0  0  0  0  0  0  0
   29.1230   10.6300   25.8070 H   0  0  0  0  0  0  0  0  0  0  0  0
   26.8100    5.3390   30.0290 H   0  0  0  0  0  0  0  0  0  0  0  0
   24.9970    3.9310   30.9780 H   0  0  0  0  0  0  0  0  0  0  0  0
   21.2240    7.1090   30.1240 H   0  0  0  0  0  0  0  0  0  0  0  0
   22.1020    8.5710   30.5380 H   0  0  0  0  0  0  0  0  0  0  0  0
   22.1720    7.3780   32.8540 H   0  0  0  0  0  0  0  0  0  0  0  0
   20.2320    5.9400   31.3960 H   0  0  0  0  0  0  0  0  0  0  0  0
   21.1780    5.5480   32.8150 H   0  0  0  0  0  0  0  0  0  0  0  0
   19.4930    6.0420   34.2650 H   0  0  0  0  0  0  0  0  0  0  0  0
   18.4730    5.8680   32.8400 H   0  0  0  0  0  0  0  0  0  0  0  0
   20.2100    8.8390   34.6340 H   0  0  0  0  0  0  0  0  0  0  0  0
   19.2240    9.8260   33.5480 H   0  0  0  0  0  0  0  0  0  0  0  0
   20.6230    9.4890   31.7440 H   0  0  0  0  0  0  0  0  0  0  0  0
   21.7170    9.4020   33.1010 H   0  0  0  0  0  0  0  0  0  0  0  0
   17.3210    9.0030   32.6650 H   0  0  0  0  0  0  0  0  0  0  0  0
   16.9890    7.2690   32.6430 H   0  0  0  0  0  0  0  0  0  0  0  0
   16.8950    8.0900   34.2060 H   0  0  0  0  0  0  0  0  0  0  0  0
   23.9850   11.0010   31.5200 H   0  0  0  0  0  0  0  0  0  0  0  0
   25.4460   11.8610   32.0200 H   0  0  0  0  0  0  0  0  0  0  0  0
   24.0240   13.5900   32.6530 H   0  0  0  0  0  0  0  0  0  0  0  0
   23.8440   13.8940   30.8270 H   0  0  0  0  0  0  0  0  0  0  0  0
   22.6760   12.8280   31.6690 H   0  0  0  0  0  0  0  0  0  0  0  0
  1  2  1  0  0  0  0
  2  3  1  0  0  0  0
  3  4  2  0  0  0  0
  3 33  1  0  0  0  0
  4 34  1  0  0  0  0
  5  8  1  0  0  0  0
  5  4  1  0  0  0  0
  6  5  2  0  0  0  0
  7  6  1  0  0  0  0
  7  2  2  0  0  0  0
  8  9  2  0  0  0  0
  8 26  1  0  0  0  0
  9 10  1  0  0  0  0
 10 11  1  0  0  0  0
 11 16  1  0  0  0  0
 12 11  2  0  0  0  0
 12 13  1  0  0  0  0
 13 14  2  0  0  0  0
 14 38  1  0  0  0  0
 14 15  1  0  0  0  0
 15 25  1  0  0  0  0
 16 17  1  0  0  0  0
 16 15  2  0  0  0  0
 17 18  1  0  0  0  0
 18 19  1  0  0  0  0
 18 23  1  0  0  0  0
 18 41  1  0  0  0  0
 19 43  1  0  0  0  0
 19 20  1  0  0  0  0
 20 21  1  0  0  0  0
 20 44  1  0  0  0  0
 21 22  1  0  0  0  0
 22 46  1  0  0  0  0
 23 49  1  0  0  0  0
 23 22  1  0  0  0  0
 24 21  1  0  0  0  0
 24 52  1  0  0  0  0
 26 12  1  0  0  0  0
 27 26  2  0  0  0  0
 28  9  1  0  0  0  0
 28 30  1  0  0  0  0
 29 28  2  0  0  0  0
 30 31  1  0  0  0  0
 31 53  1  0  0  0  0
 31 32  1  0  0  0  0
 31 54  1  0  0  0  0
 32 57  1  0  0  0  0
 32 55  1  0  0  0  0
 35  6  1  0  0  0  0
 36  7  1  0  0  0  0
 37 13  1  0  0  0  0
 39 17  1  0  0  0  0
 40 17  1  0  0  0  0
 42 19  1  0  0  0  0
 45 20  1  0  0  0  0
 47 22  1  0  0  0  0
 48 23  1  0  0  0  0
 50 24  1  0  0  0  0
 51 24  1  0  0  0  0
 56 32  1  0  0  0  0
M  END
>  <Pose>
1

>  <Score>
-5.96

$$$$
