
 OpenBabel03202209553D

 58 62  0  0  1  0  0  0  0  0999 V2000
   27.2350    3.6480   28.2210 B   0  0  0  0  0  0  0  0  0  0  0  0
   25.8400    4.6190   29.1260 C   0  0  0  0  0  0  0  0  0  0  0  0
   25.3840    5.8140   28.6600 C   0  0  0  0  0  0  0  0  0  0  0  0
   24.3950    6.4990   29.3050 C   0  0  0  0  0  0  0  0  0  0  0  0
   23.8050    6.0220   30.4580 C   0  0  0  0  0  0  0  0  0  0  0  0
   24.2570    4.8340   30.9230 C   0  0  0  0  0  0  0  0  0  0  0  0
   25.2830    4.1110   30.2660 C   0  0  0  0  0  0  0  0  0  0  0  0
   22.7710    6.8140   31.0860 C   0  0  0  0  0  0  0  0  0  0  0  0
   21.5140    6.2900   31.4290 C   0  0  0  0  0  0  0  0  0  0  0  0
   20.8300    7.2770   31.9940 N   0  0  0  0  0  0  0  0  0  0  0  0
   19.6020    7.4980   32.5550 C   0  0  0  0  0  0  0  0  0  0  0  0
   19.6150    8.8130   32.9470 C   0  0  0  0  0  0  0  0  0  0  0  0
   20.7980    9.3110   32.6220 N   0  0  0  0  0  0  0  0  0  0  0  0
   21.5700    8.3600   32.0230 C   0  0  1  0  0  0  0  0  0  0  0  0
   22.7880    8.0980   31.4610 N   0  0  0  0  0  0  0  0  0  0  0  0
   23.8000    9.1060   31.3770 C   0  0  0  0  0  0  0  0  0  0  0  0
   23.6210   10.1660   30.3670 C   0  0  0  0  0  0  0  0  0  0  0  0
   22.2940   10.8230   30.2440 C   0  0  0  0  0  0  0  0  0  0  0  0
   22.3640   12.0480   29.4780 N   0  0  0  0  0  4  0  0  0  0  0  0
   21.7870   13.1720   30.1530 C   0  0  0  0  0  0  0  0  0  0  0  0
   21.3700   12.9160   31.5740 C   0  0  0  0  0  0  0  0  0  0  0  0
   20.3710   14.0260   31.9310 C   0  0  0  0  0  0  0  0  0  0  0  0
   21.0710   15.3380   31.8470 C   0  0  0  0  0  0  0  0  0  0  0  0
   21.7750   15.5710   30.5300 C   0  0  0  0  0  0  0  0  0  0  0  0
   22.6980   14.3930   30.1980 C   0  0  0  0  0  0  0  0  0  0  0  0
   18.5080    9.3980   33.5700 C   0  0  0  0  0  0  0  0  0  0  0  0
   17.3770    8.6450   33.7970 C   0  0  0  0  0  0  0  0  0  0  0  0
   17.3890    7.3290   33.3940 C   0  0  0  0  0  0  0  0  0  0  0  0
   18.4850    6.7400   32.7750 C   0  0  0  0  0  0  0  0  0  0  0  0
   25.8240    6.2360   27.7420 H   0  0  0  0  0  0  0  0  0  0  0  0
   24.0680    7.4650   28.8700 H   0  0  0  0  0  0  0  0  0  0  0  0
   23.9130    4.3440   31.7900 H   0  0  0  0  0  0  0  0  0  0  0  0
   25.6360    3.1680   30.6430 H   0  0  0  0  0  0  0  0  0  0  0  0
   21.1630    5.2750   31.2650 H   0  0  0  0  0  0  0  0  0  0  0  0
   21.0700   10.2920   32.8220 H   0  0  0  0  0  0  0  0  0  0  0  0
   24.8030    8.6900   31.3720 H   0  0  0  0  0  0  0  0  0  0  0  0
   23.7510    9.6830   32.3890 H   0  0  0  0  0  0  0  0  0  0  0  0
   24.3300   11.0030   30.6910 H   0  0  0  0  0  0  0  0  0  0  0  0
   24.0490    9.9150   29.3480 H   0  0  0  0  0  0  0  0  0  0  0  0
   21.8290   11.0770   31.2190 H   0  0  0  0  0  0  0  0  0  0  0  0
   21.6460   10.1230   29.6450 H   0  0  0  0  0  0  0  0  0  0  0  0
   23.2630   12.2690   29.0570 H   0  0  0  0  0  0  0  0  0  0  0  0
   21.7190   11.8800   28.6220 H   0  0  0  0  0  0  0  0  0  0  0  0
   20.8640   13.5410   29.6130 H   0  0  0  0  0  0  0  0  0  0  0  0
   20.9420   11.9290   31.7500 H   0  0  0  0  0  0  0  0  0  0  0  0
   22.2550   13.1050   32.2460 H   0  0  0  0  0  0  0  0  0  0  0  0
   19.5090   13.9740   31.2190 H   0  0  0  0  0  0  0  0  0  0  0  0
   20.0320   13.8830   32.9720 H   0  0  0  0  0  0  0  0  0  0  0  0
   20.3140   16.1410   31.9530 H   0  0  0  0  0  0  0  0  0  0  0  0
   21.7900   15.4210   32.6820 H   0  0  0  0  0  0  0  0  0  0  0  0
   22.3920   16.4760   30.6450 H   0  0  0  0  0  0  0  0  0  0  0  0
   21.0220   15.6640   29.7460 H   0  0  0  0  0  0  0  0  0  0  0  0
   23.4440   14.2870   31.0250 H   0  0  0  0  0  0  0  0  0  0  0  0
   23.1270   14.5510   29.2100 H   0  0  0  0  0  0  0  0  0  0  0  0
   18.5090   10.4280   33.8810 H   0  0  0  0  0  0  0  0  0  0  0  0
   16.4870    9.0690   34.2840 H   0  0  0  0  0  0  0  0  0  0  0  0
   16.5070    6.7420   33.5710 H   0  0  0  0  0  0  0  0  0  0  0  0
   18.4930    5.7160   32.4620 H   0  0  0  0  0  0  0  0  0  0  0  0
  1  2  1  0  0  0  0
  2  7  1  0  0  0  0
  3  2  2  0  0  0  0
  3  4  1  0  0  0  0
  4  5  2  0  0  0  0
  5  6  1  0  0  0  0
  5  8  1  0  0  0  0
  6 32  1  0  0  0  0
  7 33  1  0  0  0  0
  7  6  2  0  0  0  0
  8  9  2  0  0  0  0
  8 15  1  0  0  0  0
  9 10  1  0  0  0  0
 10 14  1  0  0  0  0
 10 11  1  0  0  0  0
 11 29  2  0  0  0  0
 11 12  1  0  0  0  0
 12 26  2  0  0  0  0
 13 35  1  0  0  0  0
 13 12  1  0  0  0  0
 14 15  1  1  0  0  0
 14 13  1  0  0  0  0
 16 15  1  0  0  0  0
 16 37  1  0  0  0  0
 17 38  1  0  0  0  0
 17 16  1  0  0  0  0
 18 17  1  0  0  0  0
 18 40  1  0  0  0  0
 19 20  1  0  0  0  0
 19 18  1  0  0  0  0
 20 25  1  0  0  0  0
 20 21  1  0  0  0  0
 21 45  1  0  0  0  0
 21 22  1  0  0  0  0
 21 46  1  0  0  0  0
 22 48  1  0  0  0  0
 23 22  1  0  0  0  0
 23 49  1  0  0  0  0
 23 50  1  0  0  0  0
 24 51  1  0  0  0  0
 24 23  1  0  0  0  0
 25 24  1  0  0  0  0
 25 53  1  0  0  0  0
 26 27  1  0  0  0  0
 26 55  1  0  0  0  0
 27 56  1  0  0  0  0
 28 57  1  0  0  0  0
 28 27  2  0  0  0  0
 29 28  1  0  0  0  0
 30  3  1  0  0  0  0
 31  4  1  0  0  0  0
 34  9  1  0  0  0  0
 36 16  1  0  0  0  0
 39 17  1  0  0  0  0
 41 18  1  0  0  0  0
 42 19  1  0  0  0  0
 43 19  1  0  0  0  0
 44 20  1  0  0  0  0
 47 22  1  0  0  0  0
 52 24  1  0  0  0  0
 54 25  1  0  0  0  0
 58 29  1  0  0  0  0
M  END
>  <Pose>
1

>  <Score>
-7.66

$$$$
