
 OpenBabel03202209553D

 60 63  0  0  1  0  0  0  0  0999 V2000
   17.4400    7.2110   33.1440 B   0  0  0  0  0  0  0  0  0  0  0  0
   19.1160    8.0830   32.8850 C   0  0  0  0  0  0  0  0  0  0  0  0
   19.2050    9.4510   32.9910 C   0  0  0  0  0  0  0  0  0  0  0  0
   20.4320   10.0920   32.8030 C   0  0  0  0  0  0  0  0  0  0  0  0
   21.5700    9.3820   32.5090 C   0  0  0  0  0  0  0  0  0  0  0  0
   21.4510    8.0140   32.4090 C   0  0  0  0  0  0  0  0  0  0  0  0
   20.2440    7.3630   32.5930 C   0  0  0  0  0  0  0  0  0  0  0  0
   22.8440   10.0640   32.3290 C   0  0  2  0  0  0  0  0  0  0  0  0
   22.6620   11.3790   31.7490 N   0  0  0  0  0  0  0  0  0  0  0  0
   22.4590   11.1760   30.3490 C   0  0  0  0  0  0  0  0  0  0  0  0
   21.8450   11.9340   29.5580 O   0  0  0  0  0  0  0  0  0  0  0  0
   23.1120    9.9100   30.0320 C   0  0  0  0  0  0  0  0  0  0  0  0
   23.2020    9.3130   28.9300 O   0  0  0  0  0  0  0  0  0  0  0  0
   23.6880    9.3960   31.2700 C   0  0  0  0  0  0  0  0  0  0  0  0
   24.6700    8.5360   31.3900 C   0  0  0  0  0  0  0  0  0  0  0  0
   25.0040    8.1580   32.7020 O   0  0  0  0  0  0  0  0  0  0  0  0
   25.4000    7.9860   30.2520 C   0  0  0  0  0  0  0  0  0  0  0  0
   25.0580    6.8210   29.6040 C   0  0  0  0  0  0  0  0  0  0  0  0
   25.7580    6.2830   28.5390 C   0  0  0  0  0  0  0  0  0  0  0  0
   26.8650    6.9440   28.0890 C   0  0  0  0  0  0  0  0  0  0  0  0
   27.2490    8.1270   28.7140 C   0  0  0  0  0  0  0  0  0  0  0  0
   26.5260    8.6330   29.7740 C   0  0  0  0  0  0  0  0  0  0  0  0
   25.2720    5.1090   28.0100 O   0  0  0  0  0  0  0  0  0  0  0  0
   25.9910    3.9910   27.6170 C   0  0  0  0  0  0  0  0  0  0  0  0
   22.6780   12.6780   32.4420 C   0  0  0  0  0  0  0  0  0  0  0  0
   21.4970   13.5440   31.9770 C   0  0  0  0  0  0  0  0  0  0  0  0
   22.0180   14.6870   31.1530 C   0  0  0  0  0  0  0  0  0  0  0  0
   21.3540   15.9020   31.5610 N   0  0  0  0  0  4  0  0  0  0  0  0
   20.0110   16.0210   31.0880 C   0  0  0  0  0  0  0  0  0  0  0  0
   19.9240   16.3020   29.6270 C   0  0  0  0  0  0  0  0  0  0  0  0
   20.6440   17.4380   29.2980 O   0  0  0  0  0  0  0  0  0  0  0  0
   21.9800   17.2000   29.6230 C   0  0  0  0  0  0  0  0  0  0  0  0
   22.0750   17.0870   31.1320 C   0  0  0  0  0  0  0  0  0  0  0  0
   18.3010    9.9890   33.2200 H   0  0  0  0  0  0  0  0  0  0  0  0
   20.4430   11.1530   32.8960 H   0  0  0  0  0  0  0  0  0  0  0  0
   22.3620    7.4800   32.1770 H   0  0  0  0  0  0  0  0  0  0  0  0
   20.1930    6.2900   32.5110 H   0  0  0  0  0  0  0  0  0  0  0  0
   23.3920   10.1030   33.2890 H   0  0  0  0  0  0  0  0  0  0  0  0
   24.1770    6.3000   29.9390 H   0  0  0  0  0  0  0  0  0  0  0  0
   27.4310    6.5400   27.2560 H   0  0  0  0  0  0  0  0  0  0  0  0
   28.1410    8.6050   28.3090 H   0  0  0  0  0  0  0  0  0  0  0  0
   26.8760    9.5720   30.2320 H   0  0  0  0  0  0  0  0  0  0  0  0
   25.6140    3.5450   26.6540 H   0  0  0  0  0  0  0  0  0  0  0  0
   27.0590    4.2220   27.5570 H   0  0  0  0  0  0  0  0  0  0  0  0
   25.8360    3.1890   28.3680 H   0  0  0  0  0  0  0  0  0  0  0  0
   23.5740   13.2160   32.1350 H   0  0  0  0  0  0  0  0  0  0  0  0
   22.5940   12.4410   33.5060 H   0  0  0  0  0  0  0  0  0  0  0  0
   20.8010   12.9750   31.3650 H   0  0  0  0  0  0  0  0  0  0  0  0
   20.9510   13.9440   32.8570 H   0  0  0  0  0  0  0  0  0  0  0  0
   23.1160   14.7280   31.3410 H   0  0  0  0  0  0  0  0  0  0  0  0
   21.8340   14.4950   30.0980 H   0  0  0  0  0  0  0  0  0  0  0  0
   21.3430   15.9310   32.6070 H   0  0  0  0  0  0  0  0  0  0  0  0
   19.4540   15.0890   31.3370 H   0  0  0  0  0  0  0  0  0  0  0  0
   19.5140   16.8440   31.6600 H   0  0  0  0  0  0  0  0  0  0  0  0
   20.3730   15.4570   29.0480 H   0  0  0  0  0  0  0  0  0  0  0  0
   18.8500   16.3890   29.3460 H   0  0  0  0  0  0  0  0  0  0  0  0
   22.6560   18.0050   29.2760 H   0  0  0  0  0  0  0  0  0  0  0  0
   22.3560   16.2510   29.1830 H   0  0  0  0  0  0  0  0  0  0  0  0
   21.5450   17.9690   31.5450 H   0  0  0  0  0  0  0  0  0  0  0  0
   23.1230   17.0830   31.4640 H   0  0  0  0  0  0  0  0  0  0  0  0
  2  3  1  0  0  0  0
  2  1  1  0  0  0  0
  3 34  1  0  0  0  0
  4 35  1  0  0  0  0
  4  3  2  0  0  0  0
  5  4  1  0  0  0  0
  6  5  2  0  0  0  0
  6  7  1  0  0  0  0
  7  2  2  0  0  0  0
  8  5  1  0  0  0  0
  8 38  1  1  0  0  0
  9  8  1  0  0  0  0
  9 25  1  0  0  0  0
 10  9  1  0  0  0  0
 11 10  2  0  0  0  0
 12 10  1  0  0  0  0
 12 14  1  0  0  0  0
 13 12  2  0  0  0  0
 14 15  2  0  0  0  0
 14  8  1  0  0  0  0
 15 16  1  0  0  0  0
 17 15  1  0  0  0  0
 18 39  1  0  0  0  0
 18 17  2  0  0  0  0
 19 18  1  0  0  0  0
 20 19  2  0  0  0  0
 20 21  1  0  0  0  0
 21 22  2  0  0  0  0
 22 42  1  0  0  0  0
 22 17  1  0  0  0  0
 23 19  1  0  0  0  0
 24 23  1  0  0  0  0
 24 45  1  0  0  0  0
 25 47  1  0  0  0  0
 26 25  1  0  0  0  0
 26 49  1  0  0  0  0
 27 50  1  0  0  0  0
 27 28  1  0  0  0  0
 27 26  1  0  0  0  0
 28 52  1  0  0  0  0
 29 53  1  0  0  0  0
 29 28  1  0  0  0  0
 29 54  1  0  0  0  0
 30 29  1  0  0  0  0
 31 32  1  0  0  0  0
 31 30  1  0  0  0  0
 32 33  1  0  0  0  0
 33 60  1  0  0  0  0
 33 59  1  0  0  0  0
 33 28  1  0  0  0  0
 36  6  1  0  0  0  0
 37  7  1  0  0  0  0
 40 20  1  0  0  0  0
 41 21  1  0  0  0  0
 43 24  1  0  0  0  0
 44 24  1  0  0  0  0
 46 25  1  0  0  0  0
 48 26  1  0  0  0  0
 51 27  1  0  0  0  0
 55 30  1  0  0  0  0
 56 30  1  0  0  0  0
 57 32  1  0  0  0  0
 58 32  1  0  0  0  0
M  END
>  <Pose>
1

>  <Score>
-4.97

$$$$
