
 OpenBabel03202209553D

 56 59  0  0  1  0  0  0  0  0999 V2000
   28.8680   10.8630   26.8200 B   0  0  0  0  0  0  0  0  0  0  0  0
   27.3170   11.0830   27.9210 C   0  0  0  0  0  0  0  0  0  0  0  0
   26.1850   11.7210   27.4610 C   0  0  0  0  0  0  0  0  0  0  0  0
   25.0910   11.8670   28.2640 C   0  0  0  0  0  0  0  0  0  0  0  0
   25.0560   11.3840   29.5810 C   0  0  0  0  0  0  0  0  0  0  0  0
   26.1670   10.7590   30.0260 C   0  0  0  0  0  0  0  0  0  0  0  0
   27.2890   10.6070   29.2100 C   0  0  0  0  0  0  0  0  0  0  0  0
   23.8660   11.5820   30.3140 C   0  0  1  0  0  0  0  0  0  0  0  0
   22.8480   12.5140   30.0820 N   0  0  0  0  0  0  0  0  0  0  0  0
   22.0080   12.4150   31.2930 C   0  0  0  0  0  0  0  0  0  0  0  0
   21.3220   13.3330   31.8210 O   0  0  0  0  0  0  0  0  0  0  0  0
   22.1570   11.0220   31.7260 C   0  0  0  0  0  0  0  0  0  0  0  0
   21.6170   10.4460   32.7190 O   0  0  0  0  0  0  0  0  0  0  0  0
   23.0760   10.3980   30.7550 C   0  0  0  0  0  0  0  0  0  0  0  0
   23.1120    9.1410   30.3740 C   0  0  0  0  0  0  0  0  0  0  0  0
   24.0010    8.7290   29.3890 O   0  0  0  0  0  0  0  0  0  0  0  0
   22.2560    8.1140   30.9470 C   0  0  0  0  0  0  0  0  0  0  0  0
   22.3730    6.7730   30.7540 C   0  0  0  0  0  0  0  0  0  0  0  0
   21.5140    5.8930   31.3980 C   0  0  0  0  0  0  0  0  0  0  0  0
   20.5320    6.3660   32.2380 C   0  0  0  0  0  0  0  0  0  0  0  0
   20.3800    7.7150   32.4590 C   0  0  0  0  0  0  0  0  0  0  0  0
   21.2510    8.5750   31.8050 C   0  0  0  0  0  0  0  0  0  0  0  0
   19.5900    5.4500   32.9480 C   0  0  0  0  0  0  0  0  0  0  0  0
   22.4710   13.4850   29.0660 C   0  0  0  0  0  0  0  0  0  0  0  0
   23.4870   14.5770   28.8540 C   0  0  0  0  0  0  0  0  0  0  0  0
   22.9950   15.6870   28.1060 N   0  0  0  0  0  4  0  0  0  0  0  0
   24.0500   16.2450   27.2820 C   0  0  0  0  0  0  0  0  0  0  0  0
   23.4820   17.3840   26.4780 C   0  0  0  0  0  0  0  0  0  0  0  0
   23.2070   18.4140   27.3920 O   0  0  0  0  0  0  0  0  0  0  0  0
   22.2220   17.9680   28.2420 C   0  0  0  0  0  0  0  0  0  0  0  0
   22.6410   16.7670   29.0490 C   0  0  0  0  0  0  0  0  0  0  0  0
   26.2200   12.0950   26.4350 H   0  0  0  0  0  0  0  0  0  0  0  0
   24.2100   12.3850   27.8510 H   0  0  0  0  0  0  0  0  0  0  0  0
   26.3010   10.3220   31.0090 H   0  0  0  0  0  0  0  0  0  0  0  0
   28.1910   10.1060   29.5560 H   0  0  0  0  0  0  0  0  0  0  0  0
   24.2810   11.9510   31.3760 H   0  0  0  0  0  0  0  0  0  0  0  0
   23.1300    6.3970   30.0630 H   0  0  0  0  0  0  0  0  0  0  0  0
   21.6200    4.8290   31.2360 H   0  0  0  0  0  0  0  0  0  0  0  0
   19.6040    8.1130   33.1240 H   0  0  0  0  0  0  0  0  0  0  0  0
   21.1700    9.6510   31.9470 H   0  0  0  0  0  0  0  0  0  0  0  0
   18.5490    5.5630   32.5860 H   0  0  0  0  0  0  0  0  0  0  0  0
   19.9050    4.3840   32.7730 H   0  0  0  0  0  0  0  0  0  0  0  0
   19.6230    5.6080   34.0450 H   0  0  0  0  0  0  0  0  0  0  0  0
   22.4180   12.9440   28.0760 H   0  0  0  0  0  0  0  0  0  0  0  0
   21.5180   13.9570   29.2800 H   0  0  0  0  0  0  0  0  0  0  0  0
   23.8110   14.9860   29.8680 H   0  0  0  0  0  0  0  0  0  0  0  0
   24.4150   14.1520   28.3770 H   0  0  0  0  0  0  0  0  0  0  0  0
   22.1620   15.4630   27.5430 H   0  0  0  0  0  0  0  0  0  0  0  0
   24.5260   15.5400   26.6000 H   0  0  0  0  0  0  0  0  0  0  0  0
   24.8550   16.6270   27.9490 H   0  0  0  0  0  0  0  0  0  0  0  0
   22.5660   17.0930   25.9480 H   0  0  0  0  0  0  0  0  0  0  0  0
   24.2200   17.7550   25.7420 H   0  0  0  0  0  0  0  0  0  0  0  0
   22.0070   18.8050   28.9590 H   0  0  0  0  0  0  0  0  0  0  0  0
   21.3080   17.7450   27.6810 H   0  0  0  0  0  0  0  0  0  0  0  0
   23.5570   16.9790   29.6260 H   0  0  0  0  0  0  0  0  0  0  0  0
   21.8190   16.4860   29.7140 H   0  0  0  0  0  0  0  0  0  0  0  0
  1  2  1  0  0  0  0
  2  7  1  0  0  0  0
  3  2  2  0  0  0  0
  3  4  1  0  0  0  0
  4  5  2  0  0  0  0
  5  6  1  0  0  0  0
  5  8  1  0  0  0  0
  6 34  1  0  0  0  0
  7 35  1  0  0  0  0
  7  6  2  0  0  0  0
  8 14  1  0  0  0  0
  8 36  1  1  0  0  0
  9  8  1  0  0  0  0
  9 10  1  0  0  0  0
 10 12  1  0  0  0  0
 10 11  2  0  0  0  0
 12 13  2  0  0  0  0
 14 12  1  0  0  0  0
 15 14  2  0  0  0  0
 15 17  1  0  0  0  0
 16 15  1  0  0  0  0
 17 22  1  0  0  0  0
 18 17  2  0  0  0  0
 18 19  1  0  0  0  0
 19 20  2  0  0  0  0
 20 21  1  0  0  0  0
 20 23  1  0  0  0  0
 21 39  1  0  0  0  0
 22 40  1  0  0  0  0
 22 21  2  0  0  0  0
 23 43  1  0  0  0  0
 24 45  1  0  0  0  0
 24  9  1  0  0  0  0
 25 24  1  0  0  0  0
 25 46  1  0  0  0  0
 26 25  1  0  0  0  0
 26 31  1  0  0  0  0
 27 50  1  0  0  0  0
 27 26  1  0  0  0  0
 28 27  1  0  0  0  0
 28 29  1  0  0  0  0
 29 30  1  0  0  0  0
 30 53  1  0  0  0  0
 30 31  1  0  0  0  0
 31 55  1  0  0  0  0
 31 56  1  0  0  0  0
 32  3  1  0  0  0  0
 33  4  1  0  0  0  0
 37 18  1  0  0  0  0
 38 19  1  0  0  0  0
 41 23  1  0  0  0  0
 42 23  1  0  0  0  0
 44 24  1  0  0  0  0
 47 25  1  0  0  0  0
 48 26  1  0  0  0  0
 49 27  1  0  0  0  0
 51 28  1  0  0  0  0
 52 28  1  0  0  0  0
 54 30  1  0  0  0  0
M  END
>  <Pose>
1

>  <Score>
-5.54

$$$$
