
 OpenBabel03202209553D

 53 56  0  0  1  0  0  0  0  0999 V2000
   26.7030    2.9330   27.8180 B   0  0  0  0  0  0  0  0  0  0  0  0
   26.2550    4.5820   28.6530 C   0  0  0  0  0  0  0  0  0  0  0  0
   26.3410    5.7970   28.0130 C   0  0  0  0  0  0  0  0  0  0  0  0
   26.0020    6.9940   28.6620 C   0  0  0  0  0  0  0  0  0  0  0  0
   25.5720    6.9910   29.9590 C   0  0  0  0  0  0  0  0  0  0  0  0
   25.4960    5.7590   30.5740 C   0  0  0  0  0  0  0  0  0  0  0  0
   25.8240    4.5760   29.9520 C   0  0  0  0  0  0  0  0  0  0  0  0
   25.2330    8.1670   30.6650 C   0  0  1  0  0  0  0  0  0  0  0  0
   25.4030    9.4670   30.1270 N   0  0  0  0  0  0  0  0  0  0  0  0
   24.8800   10.3360   31.1770 C   0  0  0  0  0  0  0  0  0  0  0  0
   25.2430   11.5210   31.4100 O   0  0  0  0  0  0  0  0  0  0  0  0
   23.8680    9.5480   31.8780 C   0  0  0  0  0  0  0  0  0  0  0  0
   23.1480    9.8910   32.8520 O   0  0  0  0  0  0  0  0  0  0  0  0
   23.8450    8.2440   31.2110 C   0  0  0  0  0  0  0  0  0  0  0  0
   22.8270    7.4100   31.1040 C   0  0  0  0  0  0  0  0  0  0  0  0
   22.9580    6.2360   30.3780 O   0  0  0  0  0  0  0  0  0  0  0  0
   21.5290    7.6370   31.7240 C   0  0  0  0  0  0  0  0  0  0  0  0
   20.8800    6.4750   32.1620 C   0  0  0  0  0  0  0  0  0  0  0  0
   19.6640    6.5170   32.8040 C   0  0  0  0  0  0  0  0  0  0  0  0
   19.0760    7.7590   33.0170 C   0  0  0  0  0  0  0  0  0  0  0  0
   19.7200    8.8970   32.5840 C   0  0  0  0  0  0  0  0  0  0  0  0
   20.9400    8.8440   31.9420 C   0  0  0  0  0  0  0  0  0  0  0  0
   17.5300    7.8000   33.8340 Cl  0  0  0  0  0  0  0  0  0  0  0  0
   25.9900    9.9860   28.8890 C   0  0  0  0  0  0  0  0  0  0  0  0
   27.3030   10.6830   29.0700 C   0  0  0  0  0  0  0  0  0  0  0  0
   27.2720   12.0590   28.6280 N   0  0  0  0  0  4  0  0  0  0  0  0
   26.3790   12.2730   27.5240 C   0  0  0  0  0  0  0  0  0  0  0  0
   26.8490   11.6690   26.2340 C   0  0  0  0  0  0  0  0  0  0  0  0
   28.1550   12.0500   25.9200 O   0  0  0  0  0  0  0  0  0  0  0  0
   28.9610   11.5890   26.9710 C   0  0  0  0  0  0  0  0  0  0  0  0
   28.6090   12.4160   28.1890 C   0  0  0  0  0  0  0  0  0  0  0  0
   26.6790    5.7930   26.9980 H   0  0  0  0  0  0  0  0  0  0  0  0
   26.1020    7.8660   28.0420 H   0  0  0  0  0  0  0  0  0  0  0  0
   25.1600    5.6550   31.6180 H   0  0  0  0  0  0  0  0  0  0  0  0
   25.7500    3.6260   30.4700 H   0  0  0  0  0  0  0  0  0  0  0  0
   25.8700    8.1750   31.6260 H   0  0  0  0  0  0  0  0  0  0  0  0
   21.3160    5.4980   32.0080 H   0  0  0  0  0  0  0  0  0  0  0  0
   19.1940    5.5960   33.1270 H   0  0  0  0  0  0  0  0  0  0  0  0
   19.2370    9.8430   32.7650 H   0  0  0  0  0  0  0  0  0  0  0  0
   21.4430    9.7550   31.6360 H   0  0  0  0  0  0  0  0  0  0  0  0
   25.2760   10.7700   28.4960 H   0  0  0  0  0  0  0  0  0  0  0  0
   26.1400    9.1810   28.1500 H   0  0  0  0  0  0  0  0  0  0  0  0
   28.0200   10.1700   28.3750 H   0  0  0  0  0  0  0  0  0  0  0  0
   27.7660   10.6060   30.0580 H   0  0  0  0  0  0  0  0  0  0  0  0
   27.0150   12.7180   29.3890 H   0  0  0  0  0  0  0  0  0  0  0  0
   25.3470   11.9580   27.7090 H   0  0  0  0  0  0  0  0  0  0  0  0
   26.3430   13.3870   27.3590 H   0  0  0  0  0  0  0  0  0  0  0  0
   26.7340   10.5640   26.2150 H   0  0  0  0  0  0  0  0  0  0  0  0
   26.2060   12.0880   25.4220 H   0  0  0  0  0  0  0  0  0  0  0  0
   30.0390   11.6980   26.7360 H   0  0  0  0  0  0  0  0  0  0  0  0
   28.7540   10.5240   27.0890 H   0  0  0  0  0  0  0  0  0  0  0  0
   29.3570   12.2700   29.0080 H   0  0  0  0  0  0  0  0  0  0  0  0
   28.6190   13.4860   27.8540 H   0  0  0  0  0  0  0  0  0  0  0  0
  1  2  1  0  0  0  0
  2  7  1  0  0  0  0
  3  2  2  0  0  0  0
  3  4  1  0  0  0  0
  4  5  2  0  0  0  0
  5  6  1  0  0  0  0
  5  8  1  0  0  0  0
  6 34  1  0  0  0  0
  7 35  1  0  0  0  0
  7  6  2  0  0  0  0
  8 14  1  0  0  0  0
  8 36  1  1  0  0  0
  9  8  1  0  0  0  0
  9 10  1  0  0  0  0
 10 11  2  0  0  0  0
 10 12  1  0  0  0  0
 12 13  2  0  0  0  0
 14 12  1  0  0  0  0
 15 14  2  0  0  0  0
 15 17  1  0  0  0  0
 16 15  1  0  0  0  0
 17 22  2  0  0  0  0
 17 18  1  0  0  0  0
 18 19  2  0  0  0  0
 19 20  1  0  0  0  0
 19 38  1  0  0  0  0
 20 23  1  0  0  0  0
 21 39  1  0  0  0  0
 21 20  2  0  0  0  0
 22 21  1  0  0  0  0
 24 25  1  0  0  0  0
 24  9  1  0  0  0  0
 25 44  1  0  0  0  0
 26 25  1  0  0  0  0
 26 45  1  0  0  0  0
 27 46  1  0  0  0  0
 27 26  1  0  0  0  0
 28 27  1  0  0  0  0
 29 28  1  0  0  0  0
 29 30  1  0  0  0  0
 30 51  1  0  0  0  0
 30 31  1  0  0  0  0
 31 26  1  0  0  0  0
 31 52  1  0  0  0  0
 32  3  1  0  0  0  0
 33  4  1  0  0  0  0
 37 18  1  0  0  0  0
 40 22  1  0  0  0  0
 41 24  1  0  0  0  0
 42 24  1  0  0  0  0
 43 25  1  0  0  0  0
 47 27  1  0  0  0  0
 48 28  1  0  0  0  0
 49 28  1  0  0  0  0
 50 30  1  0  0  0  0
 53 31  1  0  0  0  0
M  END
>  <Pose>
1

>  <Score>
-6.20

$$$$
