
 OpenBabel03202209553D

 55 58  0  0  1  0  0  0  0  0999 V2000
   17.5820    7.7700   33.5920 B   0  0  0  0  0  0  0  0  0  0  0  0
   19.3450    7.8350   32.8620 C   0  0  0  0  0  0  0  0  0  0  0  0
   20.0190    6.7000   32.4670 C   0  0  0  0  0  0  0  0  0  0  0  0
   21.2950    6.7640   31.9410 C   0  0  0  0  0  0  0  0  0  0  0  0
   21.9560    7.9350   31.7820 C   0  0  0  0  0  0  0  0  0  0  0  0
   21.2590    9.0850   32.1880 C   0  0  0  0  0  0  0  0  0  0  0  0
   19.9880    9.0450   32.7140 C   0  0  0  0  0  0  0  0  0  0  0  0
   23.2980    8.1230   31.2660 C   0  0  1  0  0  0  0  0  0  0  0  0
   23.8340    7.1350   30.3860 N   0  0  0  0  0  0  0  0  0  0  0  0
   24.9070    7.7960   29.6660 C   0  0  0  0  0  0  0  0  0  0  0  0
   25.8460    7.1990   29.0800 O   0  0  0  0  0  0  0  0  0  0  0  0
   24.6870    9.2270   29.7550 C   0  0  0  0  0  0  0  0  0  0  0  0
   25.3950   10.1530   29.2560 O   0  0  0  0  0  0  0  0  0  0  0  0
   23.4790    9.4050   30.5360 C   0  0  0  0  0  0  0  0  0  0  0  0
   22.7130   10.4810   30.5430 C   0  0  0  0  0  0  0  0  0  0  0  0
   21.5510   10.4130   31.3500 O   0  0  0  0  0  0  0  0  0  0  0  0
   22.9920   11.6930   29.7990 C   0  0  0  0  0  0  0  0  0  0  0  0
   22.0210   12.0800   28.8670 C   0  0  0  0  0  0  0  0  0  0  0  0
   22.1360   13.2350   28.1210 C   0  0  0  0  0  0  0  0  0  0  0  0
   23.2130   14.0250   28.2830 N   0  0  0  0  0  0  0  0  0  0  0  0
   24.1640   13.6760   29.1740 C   0  0  0  0  0  0  0  0  0  0  0  0
   24.0580   12.5130   29.9350 C   0  0  0  0  0  0  0  0  0  0  0  0
   23.5300    5.7140   30.2050 C   0  0  0  0  0  0  0  0  0  0  0  0
   24.4440    4.7750   30.9160 C   0  0  0  0  0  0  0  0  0  0  0  0
   23.7250    4.0030   32.0120 C   0  0  0  0  0  0  0  0  0  0  0  0
   24.0390    2.5950   31.9550 N   0  0  0  0  0  4  0  0  0  0  0  0
   25.4630    2.3430   31.9520 C   0  0  0  0  0  0  0  0  0  0  0  0
   25.6480    0.8690   32.3200 C   0  0  0  0  0  0  0  0  0  0  0  0
   25.4340    0.7270   33.6900 O   0  0  0  0  0  0  0  0  0  0  0  0
   24.3660    1.5090   34.1270 C   0  0  0  0  0  0  0  0  0  0  0  0
   23.4150    1.8340   32.9930 C   0  0  0  0  0  0  0  0  0  0  0  0
   19.5060    5.7570   32.5870 H   0  0  0  0  0  0  0  0  0  0  0  0
   21.7900    5.8360   31.6230 H   0  0  0  0  0  0  0  0  0  0  0  0
   21.7120   10.0630   32.0960 H   0  0  0  0  0  0  0  0  0  0  0  0
   19.4800    9.9690   33.0190 H   0  0  0  0  0  0  0  0  0  0  0  0
   24.0300    8.1920   32.1180 H   0  0  0  0  0  0  0  0  0  0  0  0
   21.1390   11.4780   28.7010 H   0  0  0  0  0  0  0  0  0  0  0  0
   21.3920   13.5400   27.3990 H   0  0  0  0  0  0  0  0  0  0  0  0
   25.0360   14.3130   29.3090 H   0  0  0  0  0  0  0  0  0  0  0  0
   24.8320   12.3020   30.6520 H   0  0  0  0  0  0  0  0  0  0  0  0
   23.5890    5.5090   29.1230 H   0  0  0  0  0  0  0  0  0  0  0  0
   22.4910    5.4780   30.5140 H   0  0  0  0  0  0  0  0  0  0  0  0
   24.8990    4.0260   30.1900 H   0  0  0  0  0  0  0  0  0  0  0  0
   25.2820    5.3010   31.3790 H   0  0  0  0  0  0  0  0  0  0  0  0
   24.0680    4.3810   32.9760 H   0  0  0  0  0  0  0  0  0  0  0  0
   22.6450    4.1160   31.8320 H   0  0  0  0  0  0  0  0  0  0  0  0
   23.6690    2.2460   31.0380 H   0  0  0  0  0  0  0  0  0  0  0  0
   25.9350    2.4760   30.9680 H   0  0  0  0  0  0  0  0  0  0  0  0
   25.9850    2.9610   32.6950 H   0  0  0  0  0  0  0  0  0  0  0  0
   26.6180    0.4960   31.9960 H   0  0  0  0  0  0  0  0  0  0  0  0
   24.8420    0.3190   31.7950 H   0  0  0  0  0  0  0  0  0  0  0  0
   23.7740    0.9650   34.8890 H   0  0  0  0  0  0  0  0  0  0  0  0
   24.7510    2.4620   34.5570 H   0  0  0  0  0  0  0  0  0  0  0  0
   22.5740    2.3900   33.4020 H   0  0  0  0  0  0  0  0  0  0  0  0
   23.0220    0.8500   32.6280 H   0  0  0  0  0  0  0  0  0  0  0  0
  2  1  1  0  0  0  0
  3 32  1  0  0  0  0
  3  2  2  0  0  0  0
  4  3  1  0  0  0  0
  5  4  2  0  0  0  0
  5  6  1  0  0  0  0
  6  7  2  0  0  0  0
  7  2  1  0  0  0  0
  7 35  1  0  0  0  0
  8  5  1  0  0  0  0
  8 36  1  1  0  0  0
  9  8  1  0  0  0  0
 10 12  1  0  0  0  0
 10  9  1  0  0  0  0
 11 10  2  0  0  0  0
 12 14  1  0  0  0  0
 13 12  2  0  0  0  0
 14 15  2  0  0  0  0
 14  8  1  0  0  0  0
 15 16  1  0  0  0  0
 16 34  1  0  0  0  0
 17 22  1  0  0  0  0
 17 15  1  0  0  0  0
 18 17  2  0  0  0  0
 19 20  2  0  0  0  0
 19 18  1  0  0  0  0
 20 21  1  0  0  0  0
 21 39  1  0  0  0  0
 21 22  2  0  0  0  0
 22 40  1  0  0  0  0
 23  9  1  0  0  0  0
 23 42  1  0  0  0  0
 23 24  1  0  0  0  0
 24 44  1  0  0  0  0
 24 25  1  0  0  0  0
 25 45  1  0  0  0  0
 26 25  1  0  0  0  0
 26 31  1  0  0  0  0
 27 26  1  0  0  0  0
 27 28  1  0  0  0  0
 27 49  1  0  0  0  0
 28 29  1  0  0  0  0
 29 30  1  0  0  0  0
 30 53  1  0  0  0  0
 30 52  1  0  0  0  0
 31 54  1  0  0  0  0
 31 30  1  0  0  0  0
 33  4  1  0  0  0  0
 37 18  1  0  0  0  0
 38 19  1  0  0  0  0
 41 23  1  0  0  0  0
 43 24  1  0  0  0  0
 46 25  1  0  0  0  0
 47 26  1  0  0  0  0
 48 27  1  0  0  0  0
 50 28  1  0  0  0  0
 51 28  1  0  0  0  0
 55 31  1  0  0  0  0
M  END
>  <Pose>
1

>  <Score>
-6.56

$$$$
