
 OpenBabel03202209553D

 57 60  0  0  1  0  0  0  0  0999 V2000
   17.3810    7.7170   33.8160 B   0  0  0  0  0  0  0  0  0  0  0  0
   19.1480    7.9210   33.0900 C   0  0  0  0  0  0  0  0  0  0  0  0
   19.8660    6.8200   32.6590 C   0  0  0  0  0  0  0  0  0  0  0  0
   21.1470    6.9830   32.1350 C   0  0  0  0  0  0  0  0  0  0  0  0
   21.7420    8.2180   32.0240 C   0  0  0  0  0  0  0  0  0  0  0  0
   21.0090    9.3010   32.4580 C   0  0  0  0  0  0  0  0  0  0  0  0
   19.7450    9.1520   32.9780 C   0  0  0  0  0  0  0  0  0  0  0  0
   23.1080    8.3680   31.4770 C   0  0  1  0  0  0  0  0  0  0  0  0
   23.3240    7.4450   30.3470 N   0  0  0  0  0  0  0  0  0  0  0  0
   22.5910    8.0220   29.2720 C   0  0  0  0  0  0  0  0  0  0  0  0
   22.1380    7.3690   28.2880 O   0  0  0  0  0  0  0  0  0  0  0  0
   22.4640    9.4570   29.5050 C   0  0  0  0  0  0  0  0  0  0  0  0
   21.8920   10.2890   28.7720 O   0  0  0  0  0  0  0  0  0  0  0  0
   23.1490    9.6970   30.7620 C   0  0  0  0  0  0  0  0  0  0  0  0
   23.7150   10.8010   31.1790 C   0  0  0  0  0  0  0  0  0  0  0  0
   24.3780   10.8500   32.3970 O   0  0  0  0  0  0  0  0  0  0  0  0
   23.6740   12.0220   30.3970 C   0  0  0  0  0  0  0  0  0  0  0  0
   22.9870   13.1700   30.5640 N   0  0  0  0  0  0  0  0  0  0  0  0
   23.2350   14.0260   29.5620 C   0  0  0  0  0  0  0  0  0  0  0  0
   24.1040   13.3970   28.7420 N   0  0  0  0  0  0  0  0  0  0  0  0
   24.3990   12.1960   29.1980 C   0  0  0  0  0  0  0  0  0  0  0  0
   25.3110   11.1540   28.6250 C   0  0  0  0  0  0  0  0  0  0  0  0
   22.6700   15.2990   29.4910 C   0  0  0  0  0  0  0  0  0  0  0  0
   21.8140   15.7280   30.4790 C   0  0  0  0  0  0  0  0  0  0  0  0
   21.5720   14.8380   31.5010 C   0  0  0  0  0  0  0  0  0  0  0  0
   22.1440   13.5890   31.5440 C   0  0  0  0  0  0  0  0  0  0  0  0
   24.0960    6.2310   30.3720 C   0  0  0  0  0  0  0  0  0  0  0  0
   23.4330    4.9550   30.7150 C   0  0  0  0  0  0  0  0  0  0  0  0
   23.9660    4.0930   31.7890 C   0  0  0  0  0  0  0  0  0  0  0  0
   24.1910    2.7100   31.4930 N   0  0  0  0  0  4  0  0  0  0  0  0
   25.6610    2.5510   31.3010 C   0  0  0  0  0  0  0  0  0  0  0  0
   23.8980    1.9020   32.6590 C   0  0  0  0  0  0  0  0  0  0  0  0
   19.4080    5.8270   32.7400 H   0  0  0  0  0  0  0  0  0  0  0  0
   21.6830    6.1100   31.8060 H   0  0  0  0  0  0  0  0  0  0  0  0
   21.4740   10.2730   32.3850 H   0  0  0  0  0  0  0  0  0  0  0  0
   19.2090   10.0190   33.3050 H   0  0  0  0  0  0  0  0  0  0  0  0
   23.8950    8.2890   32.2300 H   0  0  0  0  0  0  0  0  0  0  0  0
   24.9110   10.1440   28.7690 H   0  0  0  0  0  0  0  0  0  0  0  0
   26.3360   11.2440   29.0920 H   0  0  0  0  0  0  0  0  0  0  0  0
   25.4460   11.3300   27.5380 H   0  0  0  0  0  0  0  0  0  0  0  0
   22.8930   15.9620   28.6660 H   0  0  0  0  0  0  0  0  0  0  0  0
   21.3620   16.7160   30.4450 H   0  0  0  0  0  0  0  0  0  0  0  0
   20.8940   15.1800   32.2850 H   0  0  0  0  0  0  0  0  0  0  0  0
   21.9480   12.9010   32.3430 H   0  0  0  0  0  0  0  0  0  0  0  0
   25.0190    6.3590   31.0100 H   0  0  0  0  0  0  0  0  0  0  0  0
   24.4970    6.1110   29.3080 H   0  0  0  0  0  0  0  0  0  0  0  0
   23.1760    4.3570   29.7890 H   0  0  0  0  0  0  0  0  0  0  0  0
   22.3810    5.2630   31.0760 H   0  0  0  0  0  0  0  0  0  0  0  0
   23.3550    4.1880   32.7400 H   0  0  0  0  0  0  0  0  0  0  0  0
   24.9600    4.5320   32.1230 H   0  0  0  0  0  0  0  0  0  0  0  0
   23.7180    2.3290   30.6740 H   0  0  0  0  0  0  0  0  0  0  0  0
   25.9080    1.5040   31.0820 H   0  0  0  0  0  0  0  0  0  0  0  0
   25.9980    3.2340   30.4960 H   0  0  0  0  0  0  0  0  0  0  0  0
   26.0930    2.8000   32.2920 H   0  0  0  0  0  0  0  0  0  0  0  0
   23.1470    2.3930   33.3190 H   0  0  0  0  0  0  0  0  0  0  0  0
   23.4330    0.9590   32.3070 H   0  0  0  0  0  0  0  0  0  0  0  0
   24.8010    1.6060   33.2220 H   0  0  0  0  0  0  0  0  0  0  0  0
  2  1  1  0  0  0  0
  3 33  1  0  0  0  0
  3  2  2  0  0  0  0
  4  3  1  0  0  0  0
  5  4  2  0  0  0  0
  5  6  1  0  0  0  0
  6  7  2  0  0  0  0
  7  2  1  0  0  0  0
  7 36  1  0  0  0  0
  8  5  1  0  0  0  0
  8 37  1  1  0  0  0
  9 27  1  0  0  0  0
  9  8  1  0  0  0  0
 10 12  1  0  0  0  0
 10  9  1  0  0  0  0
 11 10  2  0  0  0  0
 12 14  1  0  0  0  0
 13 12  2  0  0  0  0
 14 15  2  0  0  0  0
 14  8  1  0  0  0  0
 15 16  1  0  0  0  0
 17 18  1  0  0  0  0
 17 15  1  0  0  0  0
 18 26  1  0  0  0  0
 19 18  1  0  0  0  0
 20 21  1  0  0  0  0
 20 19  2  0  0  0  0
 21 17  2  0  0  0  0
 22 38  1  0  0  0  0
 22 39  1  0  0  0  0
 22 21  1  0  0  0  0
 23 19  1  0  0  0  0
 23 24  2  0  0  0  0
 24 25  1  0  0  0  0
 25 26  2  0  0  0  0
 25 43  1  0  0  0  0
 26 44  1  0  0  0  0
 27 28  1  0  0  0  0
 27 45  1  0  0  0  0
 28 48  1  0  0  0  0
 28 29  1  0  0  0  0
 29 50  1  0  0  0  0
 29 49  1  0  0  0  0
 30 29  1  0  0  0  0
 30 32  1  0  0  0  0
 31 30  1  0  0  0  0
 31 54  1  0  0  0  0
 32 57  1  0  0  0  0
 32 55  1  0  0  0  0
 34  4  1  0  0  0  0
 35  6  1  0  0  0  0
 40 22  1  0  0  0  0
 41 23  1  0  0  0  0
 42 24  1  0  0  0  0
 46 27  1  0  0  0  0
 47 28  1  0  0  0  0
 51 30  1  0  0  0  0
 52 31  1  0  0  0  0
 53 31  1  0  0  0  0
 56 32  1  0  0  0  0
M  END
>  <Pose>
1

>  <Score>
-7.40

$$$$
