
 OpenBabel03202209553D

 62 66  0  0  1  0  0  0  0  0999 V2000
   17.9710    7.4610   33.1070 B   0  0  0  0  0  0  0  0  0  0  0  0
   19.7240    7.9660   32.5470 C   0  0  0  0  0  0  0  0  0  0  0  0
   20.6650    7.0350   32.1510 C   0  0  0  0  0  0  0  0  0  0  0  0
   21.9320    7.3990   31.7460 C   0  0  0  0  0  0  0  0  0  0  0  0
   22.2950    8.7150   31.7250 C   0  0  0  0  0  0  0  0  0  0  0  0
   21.3680    9.6390   32.1150 C   0  0  0  0  0  0  0  0  0  0  0  0
   20.1000    9.2950   32.5230 C   0  0  0  0  0  0  0  0  0  0  0  0
   23.5880    9.1530   31.2980 C   0  0  2  0  0  0  0  0  0  0  0  0
   23.8370   10.4340   30.7850 N   0  0  0  0  0  0  0  0  0  0  0  0
   25.2390   10.3620   30.4090 C   0  0  0  0  0  0  0  0  0  0  0  0
   26.0820   11.3180   30.3260 O   0  0  0  0  0  0  0  0  0  0  0  0
   25.5470    8.9640   30.1280 C   0  0  0  0  0  0  0  0  0  0  0  0
   26.6340    8.4070   29.7680 O   0  0  0  0  0  0  0  0  0  0  0  0
   24.2920    8.2500   30.3520 C   0  0  0  0  0  0  0  0  0  0  0  0
   23.9140    7.0820   29.8660 C   0  0  0  0  0  0  0  0  0  0  0  0
   22.6930    6.5370   30.2410 O   0  0  0  0  0  0  0  0  0  0  0  0
   24.7270    6.3180   28.9320 C   0  0  0  0  0  0  0  0  0  0  0  0
   25.3210    5.1300   29.1350 N   0  0  0  0  0  0  0  0  0  0  0  0
   25.9570    4.7310   28.0090 C   0  0  0  0  0  0  0  0  0  0  0  0
   25.7490    5.6950   27.0960 N   0  0  0  0  0  0  0  0  0  0  0  0
   25.0110    6.6740   27.6130 C   0  0  0  0  0  0  0  0  0  0  0  0
   24.5310    7.9360   26.9870 C   0  0  0  0  0  0  0  0  0  0  0  0
   26.6610    3.5480   27.9360 C   0  0  0  0  0  0  0  0  0  0  0  0
   26.7490    2.7110   29.0230 C   0  0  0  0  0  0  0  0  0  0  0  0
   26.1100    3.1030   30.1780 C   0  0  0  0  0  0  0  0  0  0  0  0
   25.4270    4.2790   30.1970 C   0  0  0  0  0  0  0  0  0  0  0  0
   23.1640   11.6760   30.5830 C   0  0  0  0  0  0  0  0  0  0  0  0
   22.0520   11.8410   29.6720 C   0  0  0  0  0  0  0  0  0  0  0  0
   20.7770   12.4430   30.2140 C   0  0  0  0  0  0  0  0  0  0  0  0
   20.7910   13.8990   30.1080 N   0  0  0  0  0  4  0  0  0  0  0  0
   21.7200   14.5400   30.9920 C   0  0  0  0  0  0  0  0  0  0  0  0
   21.1770   14.8500   32.3560 C   0  0  0  0  0  0  0  0  0  0  0  0
   20.0020   14.2070   32.6420 O   0  0  0  0  0  0  0  0  0  0  0  0
   19.0070   14.3570   31.7120 C   0  0  0  0  0  0  0  0  0  0  0  0
   19.4920   14.4690   30.3040 C   0  0  0  0  0  0  0  0  0  0  0  0
   20.3890    5.9790   32.1620 H   0  0  0  0  0  0  0  0  0  0  0  0
   22.6310    6.5830   31.4410 H   0  0  0  0  0  0  0  0  0  0  0  0
   21.5870   10.7230   32.1160 H   0  0  0  0  0  0  0  0  0  0  0  0
   19.3580   10.0440   32.8360 H   0  0  0  0  0  0  0  0  0  0  0  0
   24.2460    9.0880   32.2300 H   0  0  0  0  0  0  0  0  0  0  0  0
   23.4760    8.0910   27.2830 H   0  0  0  0  0  0  0  0  0  0  0  0
   24.5850    7.8070   25.8990 H   0  0  0  0  0  0  0  0  0  0  0  0
   25.1910    8.7520   27.3310 H   0  0  0  0  0  0  0  0  0  0  0  0
   27.1540    3.2610   27.0240 H   0  0  0  0  0  0  0  0  0  0  0  0
   27.2820    1.7860   29.0130 H   0  0  0  0  0  0  0  0  0  0  0  0
   26.1660    2.4580   31.0370 H   0  0  0  0  0  0  0  0  0  0  0  0
   24.9220    4.5990   31.1220 H   0  0  0  0  0  0  0  0  0  0  0  0
   23.9130   12.5120   30.3970 H   0  0  0  0  0  0  0  0  0  0  0  0
   22.7800   11.9630   31.6140 H   0  0  0  0  0  0  0  0  0  0  0  0
   22.2800   12.1860   28.6270 H   0  0  0  0  0  0  0  0  0  0  0  0
   21.7180   10.7720   29.4160 H   0  0  0  0  0  0  0  0  0  0  0  0
   20.6560   12.2440   31.3020 H   0  0  0  0  0  0  0  0  0  0  0  0
   19.9340   12.0870   29.6000 H   0  0  0  0  0  0  0  0  0  0  0  0
   21.1040   14.1160   29.1290 H   0  0  0  0  0  0  0  0  0  0  0  0
   22.7180   14.0590   31.0470 H   0  0  0  0  0  0  0  0  0  0  0  0
   21.9300   15.5490   30.5210 H   0  0  0  0  0  0  0  0  0  0  0  0
   21.1190   15.9540   32.5700 H   0  0  0  0  0  0  0  0  0  0  0  0
   21.9380   14.4820   33.1030 H   0  0  0  0  0  0  0  0  0  0  0  0
   18.3050   15.1970   31.9740 H   0  0  0  0  0  0  0  0  0  0  0  0
   18.3580   13.4360   31.7670 H   0  0  0  0  0  0  0  0  0  0  0  0
   19.5710   15.5560   30.0620 H   0  0  0  0  0  0  0  0  0  0  0  0
   18.7970   14.0430   29.5530 H   0  0  0  0  0  0  0  0  0  0  0  0
  2  1  1  0  0  0  0
  3 36  1  0  0  0  0
  3  2  2  0  0  0  0
  4  3  1  0  0  0  0
  5  4  2  0  0  0  0
  5  6  1  0  0  0  0
  6 38  1  0  0  0  0
  6  7  2  0  0  0  0
  7  2  1  0  0  0  0
  7 39  1  0  0  0  0
  8  5  1  0  0  0  0
  8 40  1  1  0  0  0
  9  8  1  0  0  0  0
 10  9  1  0  0  0  0
 11 10  2  0  0  0  0
 12 14  1  0  0  0  0
 12 10  1  0  0  0  0
 13 12  2  0  0  0  0
 14  8  1  0  0  0  0
 15 16  1  0  0  0  0
 15 14  2  0  0  0  0
 17 18  1  0  0  0  0
 17 15  1  0  0  0  0
 18 26  1  0  0  0  0
 19 18  1  0  0  0  0
 20 21  1  0  0  0  0
 20 19  2  0  0  0  0
 21 17  2  0  0  0  0
 22 41  1  0  0  0  0
 22 43  1  0  0  0  0
 22 21  1  0  0  0  0
 23 19  1  0  0  0  0
 23 24  2  0  0  0  0
 24 25  1  0  0  0  0
 25 26  2  0  0  0  0
 25 46  1  0  0  0  0
 26 47  1  0  0  0  0
 27  9  1  0  0  0  0
 27 49  1  0  0  0  0
 28 29  1  0  0  0  0
 28 27  1  0  0  0  0
 29 52  1  0  0  0  0
 30 29  1  0  0  0  0
 30 35  1  0  0  0  0
 30 31  1  0  0  0  0
 31 55  1  0  0  0  0
 31 32  1  0  0  0  0
 32 57  1  0  0  0  0
 32 33  1  0  0  0  0
 32 58  1  0  0  0  0
 34 60  1  0  0  0  0
 34 59  1  0  0  0  0
 34 33  1  0  0  0  0
 35 34  1  0  0  0  0
 37  4  1  0  0  0  0
 42 22  1  0  0  0  0
 44 23  1  0  0  0  0
 45 24  1  0  0  0  0
 48 27  1  0  0  0  0
 50 28  1  0  0  0  0
 51 28  1  0  0  0  0
 53 29  1  0  0  0  0
 54 30  1  0  0  0  0
 56 31  1  0  0  0  0
 61 35  1  0  0  0  0
 62 35  1  0  0  0  0
M  END
>  <Pose>
1

>  <Score>
-6.17

$$$$
