
 OpenBabel03202209553D

 54 57  0  0  1  0  0  0  0  0999 V2000
   21.6160   16.3670   31.1630 B   0  0  0  0  0  0  0  0  0  0  0  0
   22.5250   14.8740   30.3910 C   0  0  0  0  0  0  0  0  0  0  0  0
   22.9820   14.9730   29.1080 C   0  0  0  0  0  0  0  0  0  0  0  0
   23.6370   13.9050   28.5390 C   0  0  0  0  0  0  0  0  0  0  0  0
   23.8750   12.7120   29.1830 C   0  0  0  0  0  0  0  0  0  0  0  0
   23.3960   12.6440   30.4920 C   0  0  0  0  0  0  0  0  0  0  0  0
   22.7380   13.7010   31.0760 C   0  0  0  0  0  0  0  0  0  0  0  0
   24.5880   11.5780   28.5350 C   0  0  1  0  0  0  0  0  0  0  0  0
   26.0010   11.8170   28.4270 N   0  0  0  0  0  0  0  0  0  0  0  0
   26.6440   11.0150   29.4030 C   0  0  0  0  0  0  0  0  0  0  0  0
   27.8580   11.1030   29.7450 O   0  0  0  0  0  0  0  0  0  0  0  0
   25.6760   10.0650   29.9570 C   0  0  0  0  0  0  0  0  0  0  0  0
   25.8760    9.1930   30.8380 O   0  0  0  0  0  0  0  0  0  0  0  0
   24.4130   10.3160   29.2850 C   0  0  0  0  0  0  0  0  0  0  0  0
   23.3540    9.5240   29.3120 C   0  0  0  0  0  0  0  0  0  0  0  0
   22.2460    9.9060   28.5300 O   0  0  0  0  0  0  0  0  0  0  0  0
   23.2150    8.3070   30.0720 C   0  0  0  0  0  0  0  0  0  0  0  0
   23.8410    7.1240   30.0270 N   0  0  0  0  0  0  0  0  0  0  0  0
   23.3210    6.2720   30.9280 C   0  0  0  0  0  0  0  0  0  0  0  0
   22.3380    6.9280   31.5660 N   0  0  0  0  0  0  0  0  0  0  0  0
   22.2450    8.1640   31.0730 C   0  0  0  0  0  0  0  0  0  0  0  0
   21.2730    9.1990   31.5250 C   0  0  0  0  0  0  0  0  0  0  0  0
   23.7860    4.9750   31.1170 C   0  0  0  0  0  0  0  0  0  0  0  0
   24.8290    4.5430   30.3450 C   0  0  0  0  0  0  0  0  0  0  0  0
   25.3670    5.4170   29.4190 C   0  0  0  0  0  0  0  0  0  0  0  0
   24.8710    6.6920   29.2690 C   0  0  0  0  0  0  0  0  0  0  0  0
   26.6730   12.7290   27.4760 C   0  0  0  0  0  0  0  0  0  0  0  0
   26.1200   14.1300   27.6250 C   0  0  0  0  0  0  0  0  0  0  0  0
   27.1210   15.1130   27.8460 N   0  0  0  0  0  4  0  0  0  0  0  0
   28.3670   14.6170   27.2610 C   0  0  0  0  0  0  0  0  0  0  0  0
   26.8410   16.4040   27.2990 C   0  0  0  0  0  0  0  0  0  0  0  0
   22.8390   15.8880   28.5130 H   0  0  0  0  0  0  0  0  0  0  0  0
   23.9830   14.0230   27.5240 H   0  0  0  0  0  0  0  0  0  0  0  0
   23.5410   11.7400   31.0670 H   0  0  0  0  0  0  0  0  0  0  0  0
   22.3720   13.6350   32.0900 H   0  0  0  0  0  0  0  0  0  0  0  0
   24.1760   11.5150   27.5030 H   0  0  0  0  0  0  0  0  0  0  0  0
   21.7830   10.0120   32.0880 H   0  0  0  0  0  0  0  0  0  0  0  0
   20.8230    9.6220   30.5880 H   0  0  0  0  0  0  0  0  0  0  0  0
   20.4680    8.7280   32.0880 H   0  0  0  0  0  0  0  0  0  0  0  0
   23.2980    4.3590   31.8720 H   0  0  0  0  0  0  0  0  0  0  0  0
   25.1950    3.5340   30.4890 H   0  0  0  0  0  0  0  0  0  0  0  0
   26.2010    5.1000   28.7900 H   0  0  0  0  0  0  0  0  0  0  0  0
   25.2730    7.3980   28.5510 H   0  0  0  0  0  0  0  0  0  0  0  0
   26.5410   12.3620   26.4400 H   0  0  0  0  0  0  0  0  0  0  0  0
   27.7370   12.7050   27.7440 H   0  0  0  0  0  0  0  0  0  0  0  0
   25.3970   14.0900   28.4800 H   0  0  0  0  0  0  0  0  0  0  0  0
   25.4820   14.3390   26.7230 H   0  0  0  0  0  0  0  0  0  0  0  0
   27.3230   15.2490   28.8760 H   0  0  0  0  0  0  0  0  0  0  0  0
   28.2930   14.5540   26.1670 H   0  0  0  0  0  0  0  0  0  0  0  0
   29.2310   15.2650   27.5830 H   0  0  0  0  0  0  0  0  0  0  0  0
   28.6180   13.5990   27.6280 H   0  0  0  0  0  0  0  0  0  0  0  0
   27.8120   16.8610   26.9860 H   0  0  0  0  0  0  0  0  0  0  0  0
   26.2120   16.3710   26.3850 H   0  0  0  0  0  0  0  0  0  0  0  0
   26.4330   17.1000   28.0730 H   0  0  0  0  0  0  0  0  0  0  0  0
  2  7  1  0  0  0  0
  2  1  1  0  0  0  0
  3  2  2  0  0  0  0
  4  3  1  0  0  0  0
  4  5  2  0  0  0  0
  5  6  1  0  0  0  0
  6 34  1  0  0  0  0
  6  7  2  0  0  0  0
  7 35  1  0  0  0  0
  8 36  1  6  0  0  0
  8  5  1  0  0  0  0
  8 14  1  0  0  0  0
  9  8  1  0  0  0  0
  9 10  1  0  0  0  0
 10 11  2  0  0  0  0
 10 12  1  0  0  0  0
 12 13  2  0  0  0  0
 14 15  2  0  0  0  0
 14 12  1  0  0  0  0
 15 17  1  0  0  0  0
 16 15  1  0  0  0  0
 17 21  2  0  0  0  0
 18 17  1  0  0  0  0
 18 19  1  0  0  0  0
 19 23  1  0  0  0  0
 19 20  2  0  0  0  0
 21 22  1  0  0  0  0
 21 20  1  0  0  0  0
 22 39  1  0  0  0  0
 22 37  1  0  0  0  0
 23 40  1  0  0  0  0
 24 41  1  0  0  0  0
 24 23  2  0  0  0  0
 25 24  1  0  0  0  0
 26 25  2  0  0  0  0
 26 18  1  0  0  0  0
 27 28  1  0  0  0  0
 27 45  1  0  0  0  0
 27  9  1  0  0  0  0
 28 29  1  0  0  0  0
 28 46  1  0  0  0  0
 29 48  1  0  0  0  0
 30 50  1  0  0  0  0
 30 51  1  0  0  0  0
 30 29  1  0  0  0  0
 31 29  1  0  0  0  0
 31 54  1  0  0  0  0
 32  3  1  0  0  0  0
 33  4  1  0  0  0  0
 38 22  1  0  0  0  0
 42 25  1  0  0  0  0
 43 26  1  0  0  0  0
 44 27  1  0  0  0  0
 47 28  1  0  0  0  0
 49 30  1  0  0  0  0
 52 31  1  0  0  0  0
 53 31  1  0  0  0  0
M  END
>  <Pose>
1

>  <Score>
-6.32

$$$$
