
 OpenBabel03202209553D

 47 50  0  0  1  0  0  0  0  0999 V2000
   26.5420    1.7810   28.4580 B   0  0  0  0  0  0  0  0  0  0  0  0
   26.0480    3.5340   29.0650 C   0  0  0  0  0  0  0  0  0  0  0  0
   26.0200    4.6000   28.2000 C   0  0  0  0  0  0  0  0  0  0  0  0
   25.6790    5.8360   28.6150 C   0  0  0  0  0  0  0  0  0  0  0  0
   25.3310    6.1010   29.9770 C   0  0  0  0  0  0  0  0  0  0  0  0
   25.3720    5.0050   30.8100 C   0  0  0  0  0  0  0  0  0  0  0  0
   25.7170    3.7460   30.3850 C   0  0  0  0  0  0  0  0  0  0  0  0
   25.0770    7.4110   30.2970 N   0  0  0  0  0  0  0  0  0  0  0  0
   24.8350    8.6740   30.6070 C   0  0  0  0  0  0  0  0  0  0  0  0
   24.8700    9.2860   31.7470 O   0  0  0  0  0  0  0  0  0  0  0  0
   24.4310    9.6710   29.5000 C   0  0  2  0  0  0  0  0  0  0  0  0
   25.6190    9.7470   28.5880 C   0  0  0  0  0  0  0  0  0  0  0  0
   26.5490   10.8430   28.8870 C   0  0  0  0  0  0  0  0  0  0  0  0
   27.7700   10.6690   28.6250 O   0  0  0  0  0  0  0  0  0  0  0  0
   26.0710   12.0490   29.4550 N   0  0  0  0  0  0  0  0  0  0  0  0
   24.7860   12.0950   30.0380 C   0  0  0  0  0  0  0  0  0  0  0  0
   24.3400   13.2760   30.5690 N   0  0  0  0  0  0  0  0  0  0  0  0
   23.1320   13.3940   31.1230 C   0  0  0  0  0  0  0  0  0  0  0  0
   22.3500   12.3070   31.1490 N   0  0  0  0  0  0  0  0  0  0  0  0
   22.7470   11.1060   30.6350 C   0  0  0  0  0  0  0  0  0  0  0  0
   23.9920   10.9570   30.0560 C   0  0  0  0  0  0  0  0  0  0  0  0
   21.8840    9.9750   30.6980 N   0  0  0  0  0  0  0  0  0  0  0  0
   22.6830   14.6510   31.6800 N   0  0  0  0  0  0  0  0  0  0  0  0
   23.1060   14.9610   33.0010 C   0  0  0  0  0  0  0  0  0  0  0  0
   23.0040   16.4170   33.3570 C   0  0  0  0  0  0  0  0  0  0  0  0
   22.5970   17.2000   32.2830 O   0  0  0  0  0  0  0  0  0  0  0  0
   21.4490   16.6990   31.6830 C   0  0  0  0  0  0  0  0  0  0  0  0
   21.8460   15.5010   30.8590 C   0  0  0  0  0  0  0  0  0  0  0  0
   26.2880    4.4250   27.1500 H   0  0  0  0  0  0  0  0  0  0  0  0
   25.6610    6.6890   27.9320 H   0  0  0  0  0  0  0  0  0  0  0  0
   25.1250    5.1360   31.8810 H   0  0  0  0  0  0  0  0  0  0  0  0
   25.7360    2.8950   31.0760 H   0  0  0  0  0  0  0  0  0  0  0  0
   26.1870    7.4270   31.0880 H   0  0  0  0  0  0  0  0  0  0  0  0
   23.5990    9.1610   28.9180 H   0  0  0  0  0  0  0  0  0  0  0  0
   25.2340    9.8510   27.5350 H   0  0  0  0  0  0  0  0  0  0  0  0
   26.1710    8.7730   28.6540 H   0  0  0  0  0  0  0  0  0  0  0  0
   26.6560   12.9350   29.4580 H   0  0  0  0  0  0  0  0  0  0  0  0
   21.9400    9.2650   31.4340 H   0  0  0  0  0  0  0  0  0  0  0  0
   21.1570    9.8590   29.9470 H   0  0  0  0  0  0  0  0  0  0  0  0
   22.4280   14.3820   33.6920 H   0  0  0  0  0  0  0  0  0  0  0  0
   24.1290   14.5320   33.1600 H   0  0  0  0  0  0  0  0  0  0  0  0
   22.3060   16.5870   34.2140 H   0  0  0  0  0  0  0  0  0  0  0  0
   23.9970   16.7770   33.6750 H   0  0  0  0  0  0  0  0  0  0  0  0
   21.0670   17.5320   31.0240 H   0  0  0  0  0  0  0  0  0  0  0  0
   20.6790   16.4560   32.4400 H   0  0  0  0  0  0  0  0  0  0  0  0
   20.9630   14.9470   30.4730 H   0  0  0  0  0  0  0  0  0  0  0  0
   22.3960   15.8760   29.9550 H   0  0  0  0  0  0  0  0  0  0  0  0
  1  2  1  0  0  0  0
  2  7  1  0  0  0  0
  3  4  1  0  0  0  0
  3  2  2  0  0  0  0
  4  5  2  0  0  0  0
  5  8  1  0  0  0  0
  5  6  1  0  0  0  0
  6 31  1  0  0  0  0
  7  6  2  0  0  0  0
  7 32  1  0  0  0  0
  8  9  1  0  0  0  0
  8 33  1  0  0  0  0
  9 10  2  0  0  0  0
 11 34  1  6  0  0  0
 11 21  1  0  0  0  0
 11  9  1  0  0  0  0
 12 36  1  0  0  0  0
 12 13  1  0  0  0  0
 12 11  1  0  0  0  0
 13 15  1  0  0  0  0
 14 13  2  0  0  0  0
 15 37  1  0  0  0  0
 15 16  1  0  0  0  0
 16 21  2  0  0  0  0
 16 17  1  0  0  0  0
 17 18  2  0  0  0  0
 18 19  1  0  0  0  0
 18 23  1  0  0  0  0
 20 22  1  0  0  0  0
 20 19  2  0  0  0  0
 21 20  1  0  0  0  0
 22 38  1  0  0  0  0
 23 24  1  0  0  0  0
 24 41  1  0  0  0  0
 24 25  1  0  0  0  0
 24 40  1  0  0  0  0
 25 43  1  0  0  0  0
 25 42  1  0  0  0  0
 26 25  1  0  0  0  0
 27 26  1  0  0  0  0
 27 45  1  0  0  0  0
 28 23  1  0  0  0  0
 28 27  1  0  0  0  0
 29  3  1  0  0  0  0
 30  4  1  0  0  0  0
 35 12  1  0  0  0  0
 39 22  1  0  0  0  0
 44 27  1  0  0  0  0
 46 28  1  0  0  0  0
 47 28  1  0  0  0  0
M  END
>  <Pose>
1

>  <Score>
-7.11

$$$$
